0
                    3D
 Structure written by MMmdl.
156164  0  0  1  0            999 V2000
  -30.7560  -14.5410   20.4721 C   0  0  0  0  0  0
  -30.3926  -12.3235   19.4737 C   0  0  0  0  0  0
  -29.5010  -12.4972   18.2288 C   0  0  0  0  0  0
  -28.0204  -12.3554   18.6287 C   0  0  0  0  0  0
  -27.6448  -13.2377   19.8505 C   0  0  2  0  0  0
  -28.6869  -13.1450   20.9871 C   0  0  0  0  0  0
  -25.2505  -13.8225   20.5704 C   0  0  0  0  0  0
  -24.1796  -13.0451   20.9200 C   0  0  0  0  0  0
  -24.6404  -11.6931   20.8728 C   0  0  0  0  0  0
  -23.9086  -10.4299   21.0399 C   0  0  0  0  0  0
  -24.3632   -9.4211   21.9183 C   0  0  0  0  0  0
  -23.6299   -8.2247   22.0756 C   0  0  0  0  0  0
  -22.4273   -8.0284   21.3550 C   0  0  0  0  0  0
  -21.9914   -9.0262   20.4656 C   0  0  0  0  0  0
  -22.7249  -10.2139   20.3055 C   0  0  0  0  0  0
  -21.6852   -6.0744   22.5285 C   0  0  0  0  0  0
  -21.4023   -6.5648   23.8224 C   0  0  0  0  0  0
  -21.3667   -5.6796   24.9180 C   0  0  0  0  0  0
  -21.6038   -4.3056   24.7226 C   0  0  0  0  0  0
  -21.8816   -3.8152   23.4344 C   0  0  0  0  0  0
  -21.9193   -4.6971   22.3401 C   0  0  0  0  0  0
  -22.7813  -13.5216   21.1861 C   0  0  0  0  0  0
  -22.1649   -4.2165   21.0979 F   0  0  0  0  0  0
  -21.5622   -3.4535   25.7733 F   0  0  0  0  0  0
  -30.0173  -13.3912   20.4211 N   0  0  0  0  0  0
  -26.2952  -12.9456   20.3287 N   0  0  0  0  0  0
  -25.9336  -11.6584   20.5736 N   0  0  0  0  0  0
  -22.0466  -12.8214   22.0428 N   0  0  0  0  0  0
  -25.4163  -15.1956   20.4150 N   0  0  0  0  0  0
  -31.9568  -14.4930   20.2028 O   0  0  0  0  0  0
  -21.6631   -6.8885   21.4245 O   0  0  0  0  0  0
  -22.3480  -14.5521   20.6708 O   0  0  0  0  0  0
  -24.6205  -31.8678   23.2099 C   0  0  0  0  0  0
  -25.9082  -32.4814   23.8401 C   0  0  1  0  0  0
  -27.2039  -27.3657   20.0986 C   0  0  0  0  0  0
  -25.5925  -33.8610   24.2325 N   0  0  0  0  0  0
  -23.4088  -30.4970   21.5529 C   0  0  2  0  0  0
  -24.8493  -28.9703   20.1085 C   0  0  0  0  0  0
  -22.7439  -29.4663   22.4954 C   0  0  0  0  0  0
  -18.0285  -28.1376   22.8484 C   0  0  0  0  0  0
  -24.1478  -36.7290   23.2638 C   0  0  0  0  0  0
  -25.9495  -30.8074   21.3825 C   0  0  0  0  0  0
  -26.0172  -29.4426   20.7198 C   0  0  0  0  0  0
  -27.1953  -28.6470   20.7173 C   0  0  0  0  0  0
  -26.0218  -26.9608   19.4286 C   0  0  0  0  0  0
  -24.8512  -27.7311   19.4577 C   0  0  0  0  0  0
  -23.6183  -29.8460   20.1633 C   0  0  0  0  0  0
  -25.4103  -36.3097   24.0337 C   0  0  1  0  0  0
  -20.5881  -28.3678   23.1284 C   0  0  2  0  0  0
  -20.6767  -26.9402   22.5404 C   0  0  0  0  0  0
  -19.5742  -26.6379   21.5204 C   0  0  0  0  0  0
  -18.1925  -26.7922   22.1620 C   0  0  0  0  0  0
  -19.1533  -28.8843   23.2882 C   0  0  0  0  0  0
  -18.9468  -30.1443   23.8903 C   0  0  0  0  0  0
  -17.6463  -30.6583   24.0566 C   0  0  0  0  0  0
  -25.9045  -34.9469   23.5124 C   0  0  0  0  0  0
  -16.5356  -29.9080   23.6322 C   0  0  0  0  0  0
  -16.7272  -28.6496   23.0352 C   0  0  0  0  0  0
  -26.4479  -31.6608   25.0755 C   0  0  0  0  0  0
  -25.3725  -31.3756   26.1497 C   0  0  0  0  0  0
  -27.0312  -30.3028   24.6194 C   0  0  0  0  0  0
  -27.6035  -32.4357   25.7518 C   0  0  0  0  0  0
  -27.5577  -37.1801   24.8463 C   0  0  0  0  0  0
  -21.4168  -29.3045   22.3691 N   0  0  0  0  0  0
  -26.4282  -37.3789   23.9417 N   0  0  0  0  0  0
  -24.6775  -31.0733   22.1044 N   0  0  0  0  0  0
  -23.4195  -28.8187   23.3000 O   0  0  0  0  0  0
  -28.3202  -26.5323   20.1778 O   0  0  0  0  0  0
  -26.5608  -34.8926   22.4689 O   0  0  0  0  0  0
  -23.5379  -32.1480   23.7452 O   0  0  0  0  0  0
  -31.3540  -20.3818   18.7838 C   0  0  0  0  0  0
  -30.5155  -21.2215   19.5224 C   0  0  0  0  0  0
  -29.7396  -19.2932   20.8078 C   0  0  0  0  0  0
  -31.4002  -18.9961   19.0314 C   0  0  0  0  0  0
  -30.6094  -18.4263   20.0770 C   0  0  0  0  0  0
  -29.6896  -20.6988   20.5365 C   0  0  0  0  0  0
  -33.4772  -18.6162   17.6599 C   0  0  0  0  0  0
  -32.3345  -18.1813   18.2200 C   0  0  0  0  0  0
  -30.8465  -16.9671   20.3377 C   0  0  0  0  0  0
  -30.0681  -15.8561   20.5174 C   0  0  0  0  0  0
  -28.7884  -24.0607   20.7122 C   0  0  0  0  0  0
  -28.2090  -22.6199   20.5560 C   0  0  0  0  0  0
  -28.1329  -25.1298   19.7977 C   0  0  0  0  0  0
  -29.6950  -24.3322   21.5082 O   0  0  0  0  0  0
  -28.8987  -21.5653   21.2778 O   0  0  0  0  0  0
  -31.4460  -12.3457   19.1903 H   0  0  0  0  0  0
  -30.2288  -11.3444   19.9271 H   0  0  0  0  0  0
  -29.7563  -11.7584   17.4682 H   0  0  0  0  0  0
  -29.6786  -13.4755   17.7788 H   0  0  0  0  0  0
  -27.8442  -11.3038   18.8581 H   0  0  0  0  0  0
  -27.3761  -12.5938   17.7815 H   0  0  0  0  0  0
  -27.6501  -14.2662   19.4899 H   0  0  0  0  0  0
  -28.6618  -12.1611   21.4573 H   0  0  0  0  0  0
  -28.4635  -13.8653   21.7748 H   0  0  0  0  0  0
  -25.2779   -9.5672   22.4752 H   0  0  0  0  0  0
  -24.0012   -7.4632   22.7461 H   0  0  0  0  0  0
  -21.0848   -8.8775   19.8959 H   0  0  0  0  0  0
  -22.3713  -10.9665   19.6148 H   0  0  0  0  0  0
  -21.2020   -7.6156   23.9726 H   0  0  0  0  0  0
  -21.1489   -6.0526   25.9085 H   0  0  0  0  0  0
  -22.0590   -2.7613   23.2836 H   0  0  0  0  0  0
  -22.4080  -11.9891   22.4837 H   0  0  0  0  0  0
  -21.1084  -13.1243   22.2643 H   0  0  0  0  0  0
  -24.6456  -15.8449   20.5263 H   0  0  0  0  0  0
  -26.2738  -15.6477   20.1222 H   0  0  0  0  0  0
  -26.7150  -32.5486   23.1151 H   0  0  0  0  0  0
  -25.0073  -33.9775   25.0466 H   0  0  0  0  0  0
  -22.6987  -31.3160   21.4197 H   0  0  0  0  0  0
  -23.3753  -35.9609   23.3302 H   0  0  0  0  0  0
  -24.3568  -36.8908   22.2052 H   0  0  0  0  0  0
  -23.7221  -37.6488   23.6656 H   0  0  0  0  0  0
  -26.0911  -31.5768   20.6224 H   0  0  0  0  0  0
  -26.8268  -30.8430   22.0162 H   0  0  0  0  0  0
  -28.0878  -28.9990   21.2156 H   0  0  0  0  0  0
  -25.9507  -26.0483   18.8584 H   0  0  0  0  0  0
  -23.9617  -27.3730   18.9580 H   0  0  0  0  0  0
  -23.7367  -30.6299   19.4144 H   0  0  0  0  0  0
  -22.7375  -29.2791   19.8565 H   0  0  0  0  0  0
  -25.1278  -36.1952   25.0829 H   0  0  0  0  0  0
  -20.9972  -28.3254   24.1405 H   0  0  0  0  0  0
  -20.5654  -26.2292   23.3604 H   0  0  0  0  0  0
  -21.6640  -26.7428   22.1210 H   0  0  0  0  0  0
  -19.6897  -25.6290   21.1235 H   0  0  0  0  0  0
  -19.6668  -27.3185   20.6729 H   0  0  0  0  0  0
  -17.4188  -26.6663   21.4032 H   0  0  0  0  0  0
  -18.0329  -26.0065   22.9018 H   0  0  0  0  0  0
  -19.7946  -30.7253   24.2270 H   0  0  0  0  0  0
  -17.5028  -31.6255   24.5170 H   0  0  0  0  0  0
  -15.5356  -30.2985   23.7646 H   0  0  0  0  0  0
  -15.8673  -28.0806   22.7077 H   0  0  0  0  0  0
  -24.5832  -30.7185   25.7831 H   0  0  0  0  0  0
  -24.8998  -32.2939   26.4989 H   0  0  0  0  0  0
  -25.8050  -30.8865   27.0234 H   0  0  0  0  0  0
  -26.2882  -29.6803   24.1197 H   0  0  0  0  0  0
  -27.3992  -29.7261   25.4692 H   0  0  0  0  0  0
  -27.8762  -30.4316   23.9427 H   0  0  0  0  0  0
  -27.2612  -33.3634   26.2118 H   0  0  0  0  0  0
  -28.3813  -32.6976   25.0332 H   0  0  0  0  0  0
  -28.0734  -31.8487   26.5421 H   0  0  0  0  0  0
  -28.2592  -38.0102   24.7535 H   0  0  0  0  0  0
  -28.1080  -36.2644   24.6250 H   0  0  0  0  0  0
  -27.2307  -37.1406   25.8869 H   0  0  0  0  0  0
  -20.9322  -29.8778   21.6928 H   0  0  0  0  0  0
  -26.0167  -38.2862   24.1433 H   0  0  0  0  0  0
  -31.9679  -20.8262   18.0138 H   0  0  0  0  0  0
  -30.5389  -22.2793   19.3078 H   0  0  0  0  0  0
  -29.1377  -18.8845   21.6057 H   0  0  0  0  0  0
  -34.0855  -17.9494   17.0654 H   0  0  0  0  0  0
  -33.8350  -19.6286   17.7814 H   0  0  0  0  0  0
  -32.0532  -17.1530   18.0388 H   0  0  0  0  0  0
  -31.9134  -16.7924   20.3460 H   0  0  0  0  0  0
  -28.9946  -15.9284   20.5991 H   0  0  0  0  0  0
  -28.1229  -22.3711   19.4970 H   0  0  0  0  0  0
  -27.1878  -22.6459   20.9353 H   0  0  0  0  0  0
  -27.0909  -24.8258   19.8315 H   0  0  0  0  0  0
  -28.4784  -24.9850   18.7735 H   0  0  0  0  0  0
  1 25  1  0  0  0
  1 30  2  0  0  0
  1 80  1  0  0  0
  2  3  1  0  0  0
  2 25  1  0  0  0
  2 86  1  0  0  0
  2 87  1  0  0  0
  3  4  1  0  0  0
  3 88  1  0  0  0
  3 89  1  0  0  0
  4  5  1  0  0  0
  4 90  1  0  0  0
  4 91  1  0  0  0
  5  6  1  0  0  0
  5 26  1  0  0  0
  5 92  1  0  0  0
  6 25  1  0  0  0
  6 93  1  0  0  0
  6 94  1  0  0  0
  7  8  2  0  0  0
  7 26  1  0  0  0
  7 29  1  0  0  0
  8  9  1  0  0  0
  8 22  1  0  0  0
  9 10  1  0  0  0
  9 27  2  0  0  0
 10 11  2  0  0  0
 10 15  1  0  0  0
 11 12  1  0  0  0
 11 95  1  0  0  0
 12 13  2  0  0  0
 12 96  1  0  0  0
 13 14  1  0  0  0
 13 31  1  0  0  0
 14 15  2  0  0  0
 14 97  1  0  0  0
 15 98  1  0  0  0
 16 17  2  0  0  0
 16 21  1  0  0  0
 16 31  1  0  0  0
 17 18  1  0  0  0
 17 99  1  0  0  0
 18 19  2  0  0  0
 18100  1  0  0  0
 19 20  1  0  0  0
 19 24  1  0  0  0
 20 21  2  0  0  0
 20101  1  0  0  0
 21 23  1  0  0  0
 22 28  1  0  0  0
 22 32  2  0  0  0
 26 27  1  0  0  0
 28102  1  0  0  0
 28103  1  0  0  0
 29104  1  0  0  0
 29105  1  0  0  0
 33 34  1  0  0  0
 33 66  1  0  0  0
 33 70  2  0  0  0
 34 36  1  0  0  0
 34 59  1  0  0  0
 34106  1  0  0  0
 35 44  2  0  0  0
 35 45  1  0  0  0
 35 68  1  0  0  0
 36 56  1  0  0  0
 36107  1  0  0  0
 37 39  1  0  0  0
 37 47  1  0  0  0
 37 66  1  0  0  0
 37108  1  0  0  0
 38 43  2  0  0  0
 38 46  1  0  0  0
 38 47  1  0  0  0
 39 64  1  0  0  0
 39 67  2  0  0  0
 40 52  1  0  0  0
 40 53  2  0  0  0
 40 58  1  0  0  0
 41109  1  0  0  0
 41110  1  0  0  0
 41111  1  0  0  0
 41 48  1  0  0  0
 42 43  1  0  0  0
 42 66  1  0  0  0
 42112  1  0  0  0
 42113  1  0  0  0
 43 44  1  0  0  0
 44114  1  0  0  0
 45 46  2  0  0  0
 45115  1  0  0  0
 46116  1  0  0  0
 47117  1  0  0  0
 47118  1  0  0  0
 48 56  1  0  0  0
 48 65  1  0  0  0
 48119  1  0  0  0
 49 50  1  0  0  0
 49 53  1  0  0  0
 49 64  1  0  0  0
 49120  1  0  0  0
 50 51  1  0  0  0
 50121  1  0  0  0
 50122  1  0  0  0
 51 52  1  0  0  0
 51123  1  0  0  0
 51124  1  0  0  0
 52125  1  0  0  0
 52126  1  0  0  0
 53 54  1  0  0  0
 54 55  2  0  0  0
 54127  1  0  0  0
 55 57  1  0  0  0
 55128  1  0  0  0
 56 69  2  0  0  0
 57 58  2  0  0  0
 57129  1  0  0  0
 58130  1  0  0  0
 59 60  1  0  0  0
 59 61  1  0  0  0
 59 62  1  0  0  0
 60131  1  0  0  0
 60132  1  0  0  0
 60133  1  0  0  0
 61134  1  0  0  0
 61135  1  0  0  0
 61136  1  0  0  0
 62137  1  0  0  0
 62138  1  0  0  0
 62139  1  0  0  0
 63 65  1  0  0  0
 63140  1  0  0  0
 63141  1  0  0  0
 63142  1  0  0  0
 64143  1  0  0  0
 65144  1  0  0  0
 68 83  1  0  0  0
 71 72  2  0  0  0
 71 74  1  0  0  0
 71145  1  0  0  0
 72 76  1  0  0  0
 72146  1  0  0  0
 73 75  1  0  0  0
 73 76  2  0  0  0
 73147  1  0  0  0
 74 75  2  0  0  0
 74 78  1  0  0  0
 75 79  1  0  0  0
 76 85  1  0  0  0
 77 78  2  0  0  0
 77148  1  0  0  0
 77149  1  0  0  0
 78150  1  0  0  0
 79 80  2  0  0  0
 79151  1  0  0  0
 80152  1  0  0  0
 81 82  1  0  0  0
 81 83  1  0  0  0
 81 84  2  0  0  0
 82 85  1  0  0  0
 82153  1  0  0  0
 82154  1  0  0  0
 83155  1  0  0  0
 83156  1  0  0  0
M  ISO  4   1 100  68 101  80 100  83 101
M  END
> <chiral flag>
0

> <version>
0

> <s_m_source_file>
/data/baiqing/PycharmProjects/Reinvent-master-3.2/result/LINK_invent/BTK/process_docking_weight1_custom_product_contain_oxygen_bond_distance_aromatic_linkinvent_7_9_3/rearranged_h_0120.sdf

> <i_m_source_file_index>
1

> <r_mmod_Potential_Energy-OPLS-2005>
139.088928222656

> <r_mmod_Stretch_Energy-OPLS-2005>
57.6207733154297

> <r_mmod_Bend_Energy-OPLS-2005>
145.166351318359

> <r_mmod_Torsional_Energy-OPLS-2005>
230.144989013672

> <r_mmod_Improper_Torsional_Energy-OPLS-2005>
9.37328052520752

> <r_mmod_Van_der_Waal_Energy-OPLS-2005>
177.298706054688

> <r_mmod_Electrostatic_Energy-OPLS-2005>
-297.001892089844

> <r_mmod_Solvation_Energy-OPLS-2005>
-228.649948120117

> <b_mmod_Minimization_Converged-OPLS-2005>
0

> <r_mmod_RMS_Derivative-OPLS-2005>
2.06534719467163

$$$$
1
                    3D
 Structure written by MMmdl.
159168  0  0  1  0            999 V2000
  -30.6455  -14.5293   20.6589 C   0  0  0  0  0  0
  -30.4407  -12.3564   19.4324 C   0  0  0  0  0  0
  -29.5063  -12.5120   18.2134 C   0  0  0  0  0  0
  -28.0242  -12.3484   18.6062 C   0  0  0  0  0  0
  -27.6581  -13.1891   19.8573 C   0  0  2  0  0  0
  -28.6846  -12.9383   20.9782 C   0  0  0  0  0  0
  -25.2608  -13.8120   20.5553 C   0  0  0  0  0  0
  -24.1855  -13.0436   20.9112 C   0  0  0  0  0  0
  -24.6387  -11.6898   20.8720 C   0  0  0  0  0  0
  -23.9050  -10.4301   21.0404 C   0  0  0  0  0  0
  -24.3624   -9.4211   21.9189 C   0  0  0  0  0  0
  -23.6305   -8.2239   22.0754 C   0  0  0  0  0  0
  -22.4285   -8.0287   21.3545 C   0  0  0  0  0  0
  -21.9912   -9.0241   20.4637 C   0  0  0  0  0  0
  -22.7215  -10.2133   20.3034 C   0  0  0  0  0  0
  -21.6850   -6.0751   22.5289 C   0  0  0  0  0  0
  -21.4002   -6.5646   23.8229 C   0  0  0  0  0  0
  -21.3656   -5.6787   24.9188 C   0  0  0  0  0  0
  -21.6041   -4.3053   24.7223 C   0  0  0  0  0  0
  -21.8814   -3.8157   23.4347 C   0  0  0  0  0  0
  -21.9184   -4.6979   22.3408 C   0  0  0  0  0  0
  -22.7879  -13.5247   21.1782 C   0  0  0  0  0  0
  -22.1653   -4.2180   21.0988 F   0  0  0  0  0  0
  -21.5635   -3.4528   25.7729 F   0  0  0  0  0  0
  -30.0165  -13.3231   20.4686 N   0  0  0  0  0  0
  -26.2977  -12.9240   20.3168 N   0  0  0  0  0  0
  -25.9274  -11.6435   20.5662 N   0  0  0  0  0  0
  -22.0518  -12.8298   22.0367 N   0  0  0  0  0  0
  -25.4440  -15.1834   20.3893 N   0  0  0  0  0  0
  -31.7184  -14.7818   20.0995 O   0  0  0  0  0  0
  -21.6644   -6.8897   21.4255 O   0  0  0  0  0  0
  -22.3561  -14.5547   20.6590 O   0  0  0  0  0  0
  -24.6190  -31.8626   23.2098 C   0  0  0  0  0  0
  -25.9051  -32.4798   23.8401 C   0  0  1  0  0  0
  -27.2281  -27.3564   20.1123 C   0  0  0  0  0  0
  -25.5888  -33.8602   24.2330 N   0  0  0  0  0  0
  -23.4148  -30.4867   21.5461 C   0  0  2  0  0  0
  -24.8687  -28.9510   20.1053 C   0  0  0  0  0  0
  -22.7451  -29.4631   22.4925 C   0  0  0  0  0  0
  -18.0265  -28.1396   22.8486 C   0  0  0  0  0  0
  -24.1485  -36.7290   23.2651 C   0  0  0  0  0  0
  -25.9533  -30.7993   21.3848 C   0  0  0  0  0  0
  -26.0356  -29.4334   20.7160 C   0  0  0  0  0  0
  -27.2205  -28.6425   20.7232 C   0  0  0  0  0  0
  -26.0495  -26.9229   19.4701 C   0  0  0  0  0  0
  -24.8723  -27.6925   19.4808 C   0  0  0  0  0  0
  -23.6367  -29.8307   20.1566 C   0  0  0  0  0  0
  -25.4110  -36.3097   24.0345 C   0  0  1  0  0  0
  -20.5867  -28.3676   23.1277 C   0  0  2  0  0  0
  -20.6757  -26.9394   22.5410 C   0  0  0  0  0  0
  -19.5733  -26.6375   21.5217 C   0  0  0  0  0  0
  -18.1910  -26.7930   22.1632 C   0  0  0  0  0  0
  -19.1522  -28.8854   23.2873 C   0  0  0  0  0  0
  -18.9470  -30.1465   23.8872 C   0  0  0  0  0  0
  -17.6473  -30.6597   24.0566 C   0  0  0  0  0  0
  -25.9035  -34.9464   23.5138 C   0  0  0  0  0  0
  -16.5349  -29.9094   23.6351 C   0  0  0  0  0  0
  -16.7256  -28.6518   23.0346 C   0  0  0  0  0  0
  -26.4489  -31.6581   25.0733 C   0  0  0  0  0  0
  -25.3781  -31.3701   26.1506 C   0  0  0  0  0  0
  -27.0334  -30.3000   24.6194 C   0  0  0  0  0  0
  -27.6100  -32.4277   25.7464 C   0  0  0  0  0  0
  -27.5575  -37.1803   24.8471 C   0  0  0  0  0  0
  -21.4162  -29.3037   22.3689 N   0  0  0  0  0  0
  -26.4297  -37.3776   23.9411 N   0  0  0  0  0  0
  -24.6795  -31.0642   22.1048 N   0  0  0  0  0  0
  -23.4179  -28.8195   23.3016 O   0  0  0  0  0  0
  -28.2635  -26.4300   20.2291 O   0  0  0  0  0  0
  -26.5604  -34.8921   22.4704 O   0  0  0  0  0  0
  -23.5359  -32.1445   23.7411 O   0  0  0  0  0  0
  -30.9581  -18.0483   19.7626 C   0  0  0  0  0  0
  -29.3842  -19.2438   21.1662 C   0  0  0  0  0  0
  -30.6121  -20.4707   19.4783 C   0  0  0  0  0  0
  -30.0435  -18.0150   20.8331 C   0  0  0  0  0  0
  -31.2462  -19.2649   19.1037 C   0  0  0  0  0  0
  -29.6494  -20.4938   20.5095 C   0  0  0  0  0  0
  -28.2694  -24.0258   21.1103 C   0  0  0  0  0  0
  -29.7516  -16.7852   21.6514 C   0  0  0  0  0  0
  -27.9074  -25.3473   21.0447 C   0  0  0  0  0  0
  -29.9776  -15.4325   21.6231 C   0  0  0  0  0  0
  -27.5822  -23.1290   22.1198 C   0  0  0  0  0  0
  -29.2339  -23.0972   20.3301 C   0  0  0  0  0  0
  -27.7472  -21.7066   21.6011 C   0  0  0  0  0  0
  -32.2596  -19.2870   17.9829 C   0  0  0  0  0  0
  -28.9939  -21.7198   20.8557 N   0  0  0  0  0  0
  -31.4799  -12.5012   19.1311 H   0  0  0  0  0  0
  -30.3959  -11.3342   19.8152 H   0  0  0  0  0  0
  -29.7712  -11.7885   17.4402 H   0  0  0  0  0  0
  -29.6553  -13.5017   17.7778 H   0  0  0  0  0  0
  -27.8402  -11.2918   18.8036 H   0  0  0  0  0  0
  -27.3811  -12.6111   17.7644 H   0  0  0  0  0  0
  -27.7123  -14.2383   19.5658 H   0  0  0  0  0  0
  -28.6814  -11.8757   21.2279 H   0  0  0  0  0  0
  -28.3673  -13.4284   21.8971 H   0  0  0  0  0  0
  -25.2762   -9.5709   22.4775 H   0  0  0  0  0  0
  -24.0005   -7.4642   22.7470 H   0  0  0  0  0  0
  -21.0838   -8.8732   19.8975 H   0  0  0  0  0  0
  -22.3636  -10.9665   19.6159 H   0  0  0  0  0  0
  -21.1990   -7.6154   23.9745 H   0  0  0  0  0  0
  -21.1480   -6.0524   25.9093 H   0  0  0  0  0  0
  -22.0606   -2.7630   23.2836 H   0  0  0  0  0  0
  -22.4035  -11.9923   22.4771 H   0  0  0  0  0  0
  -21.1160  -13.1405   22.2532 H   0  0  0  0  0  0
  -24.6999  -15.8636   20.4909 H   0  0  0  0  0  0
  -26.3114  -15.5943   20.0681 H   0  0  0  0  0  0
  -26.7104  -32.5491   23.1145 H   0  0  0  0  0  0
  -25.0006  -33.9787   25.0449 H   0  0  0  0  0  0
  -22.7050  -31.3046   21.4032 H   0  0  0  0  0  0
  -23.3765  -35.9600   23.3307 H   0  0  0  0  0  0
  -24.3583  -36.8914   22.2067 H   0  0  0  0  0  0
  -23.7210  -37.6484   23.6662 H   0  0  0  0  0  0
  -26.0866  -31.5729   20.6282 H   0  0  0  0  0  0
  -26.8303  -30.8400   22.0180 H   0  0  0  0  0  0
  -28.1074  -28.9807   21.2411 H   0  0  0  0  0  0
  -26.0367  -25.9492   19.0018 H   0  0  0  0  0  0
  -23.9768  -27.3030   19.0155 H   0  0  0  0  0  0
  -23.7651  -30.6177   19.4114 H   0  0  0  0  0  0
  -22.7587  -29.2682   19.8373 H   0  0  0  0  0  0
  -25.1294  -36.1964   25.0838 H   0  0  0  0  0  0
  -20.9935  -28.3232   24.1408 H   0  0  0  0  0  0
  -20.5647  -26.2281   23.3612 H   0  0  0  0  0  0
  -21.6623  -26.7440   22.1196 H   0  0  0  0  0  0
  -19.6882  -25.6281   21.1260 H   0  0  0  0  0  0
  -19.6682  -27.3180   20.6749 H   0  0  0  0  0  0
  -17.4180  -26.6667   21.4040 H   0  0  0  0  0  0
  -18.0308  -26.0076   22.9027 H   0  0  0  0  0  0
  -19.7955  -30.7291   24.2198 H   0  0  0  0  0  0
  -17.5041  -31.6284   24.5147 H   0  0  0  0  0  0
  -15.5356  -30.3001   23.7716 H   0  0  0  0  0  0
  -15.8640  -28.0865   22.7054 H   0  0  0  0  0  0
  -24.5789  -30.7286   25.7780 H   0  0  0  0  0  0
  -24.9230  -32.2895   26.5195 H   0  0  0  0  0  0
  -25.8119  -30.8587   27.0109 H   0  0  0  0  0  0
  -26.2891  -29.6692   24.1325 H   0  0  0  0  0  0
  -27.4133  -29.7314   25.4690 H   0  0  0  0  0  0
  -27.8726  -30.4281   23.9359 H   0  0  0  0  0  0
  -27.2776  -33.3593   26.2054 H   0  0  0  0  0  0
  -28.3898  -32.6784   25.0256 H   0  0  0  0  0  0
  -28.0761  -31.8367   26.5362 H   0  0  0  0  0  0
  -28.2604  -38.0090   24.7495 H   0  0  0  0  0  0
  -28.1064  -36.2620   24.6318 H   0  0  0  0  0  0
  -27.2301  -37.1467   25.8880 H   0  0  0  0  0  0
  -20.9295  -29.8810   21.6972 H   0  0  0  0  0  0
  -26.0189  -38.2855   24.1414 H   0  0  0  0  0  0
  -31.4672  -17.1511   19.4476 H   0  0  0  0  0  0
  -28.6597  -19.2007   21.9667 H   0  0  0  0  0  0
  -30.8640  -21.3797   18.9507 H   0  0  0  0  0  0
  -29.2174  -17.0610   22.5517 H   0  0  0  0  0  0
  -27.1437  -25.6671   21.7462 H   0  0  0  0  0  0
  -29.6026  -14.9468   22.5112 H   0  0  0  0  0  0
  -26.5326  -23.3843   22.2641 H   0  0  0  0  0  0
  -28.0908  -23.2319   23.0812 H   0  0  0  0  0  0
  -30.2724  -23.3970   20.4871 H   0  0  0  0  0  0
  -29.0253  -23.1374   19.2610 H   0  0  0  0  0  0
  -26.9394  -21.4627   20.9076 H   0  0  0  0  0  0
  -27.7204  -20.9951   22.4255 H   0  0  0  0  0  0
  -32.4332  -18.2859   17.5865 H   0  0  0  0  0  0
  -33.2069  -19.6823   18.3468 H   0  0  0  0  0  0
  -31.9092  -19.9275   17.1738 H   0  0  0  0  0  0
  1 25  1  0  0  0
  1 30  2  0  0  0
  1 80  1  0  0  0
  2  3  1  0  0  0
  2 25  1  0  0  0
  2 86  1  0  0  0
  2 87  1  0  0  0
  3  4  1  0  0  0
  3 88  1  0  0  0
  3 89  1  0  0  0
  4  5  1  0  0  0
  4 90  1  0  0  0
  4 91  1  0  0  0
  5  6  1  0  0  0
  5 26  1  0  0  0
  5 92  1  0  0  0
  6 25  1  0  0  0
  6 93  1  0  0  0
  6 94  1  0  0  0
  7  8  2  0  0  0
  7 26  1  0  0  0
  7 29  1  0  0  0
  8  9  1  0  0  0
  8 22  1  0  0  0
  9 10  1  0  0  0
  9 27  2  0  0  0
 10 11  2  0  0  0
 10 15  1  0  0  0
 11 12  1  0  0  0
 11 95  1  0  0  0
 12 13  2  0  0  0
 12 96  1  0  0  0
 13 14  1  0  0  0
 13 31  1  0  0  0
 14 15  2  0  0  0
 14 97  1  0  0  0
 15 98  1  0  0  0
 16 17  2  0  0  0
 16 21  1  0  0  0
 16 31  1  0  0  0
 17 18  1  0  0  0
 17 99  1  0  0  0
 18 19  2  0  0  0
 18100  1  0  0  0
 19 20  1  0  0  0
 19 24  1  0  0  0
 20 21  2  0  0  0
 20101  1  0  0  0
 21 23  1  0  0  0
 22 28  1  0  0  0
 22 32  2  0  0  0
 26 27  1  0  0  0
 28102  1  0  0  0
 28103  1  0  0  0
 29104  1  0  0  0
 29105  1  0  0  0
 33 34  1  0  0  0
 33 66  1  0  0  0
 33 70  2  0  0  0
 34 36  1  0  0  0
 34 59  1  0  0  0
 34106  1  0  0  0
 35 44  2  0  0  0
 35 45  1  0  0  0
 35 68  1  0  0  0
 36 56  1  0  0  0
 36107  1  0  0  0
 37 39  1  0  0  0
 37 47  1  0  0  0
 37 66  1  0  0  0
 37108  1  0  0  0
 38 43  2  0  0  0
 38 46  1  0  0  0
 38 47  1  0  0  0
 39 64  1  0  0  0
 39 67  2  0  0  0
 40 52  1  0  0  0
 40 53  2  0  0  0
 40 58  1  0  0  0
 41109  1  0  0  0
 41110  1  0  0  0
 41111  1  0  0  0
 41 48  1  0  0  0
 42 43  1  0  0  0
 42 66  1  0  0  0
 42112  1  0  0  0
 42113  1  0  0  0
 43 44  1  0  0  0
 44114  1  0  0  0
 45 46  2  0  0  0
 45115  1  0  0  0
 46116  1  0  0  0
 47117  1  0  0  0
 47118  1  0  0  0
 48 56  1  0  0  0
 48 65  1  0  0  0
 48119  1  0  0  0
 49 50  1  0  0  0
 49 53  1  0  0  0
 49 64  1  0  0  0
 49120  1  0  0  0
 50 51  1  0  0  0
 50121  1  0  0  0
 50122  1  0  0  0
 51 52  1  0  0  0
 51123  1  0  0  0
 51124  1  0  0  0
 52125  1  0  0  0
 52126  1  0  0  0
 53 54  1  0  0  0
 54 55  2  0  0  0
 54127  1  0  0  0
 55 57  1  0  0  0
 55128  1  0  0  0
 56 69  2  0  0  0
 57 58  2  0  0  0
 57129  1  0  0  0
 58130  1  0  0  0
 59 60  1  0  0  0
 59 61  1  0  0  0
 59 62  1  0  0  0
 60131  1  0  0  0
 60132  1  0  0  0
 60133  1  0  0  0
 61134  1  0  0  0
 61135  1  0  0  0
 61136  1  0  0  0
 62137  1  0  0  0
 62138  1  0  0  0
 62139  1  0  0  0
 63 65  1  0  0  0
 63140  1  0  0  0
 63141  1  0  0  0
 63142  1  0  0  0
 64143  1  0  0  0
 65144  1  0  0  0
 68 79  1  0  0  0
 71 74  2  0  0  0
 71 75  1  0  0  0
 71145  1  0  0  0
 72 74  1  0  0  0
 72 76  2  0  0  0
 72146  1  0  0  0
 73 75  2  0  0  0
 73 76  1  0  0  0
 73147  1  0  0  0
 74 78  1  0  0  0
 75 84  1  0  0  0
 76 85  1  0  0  0
 77 79  2  0  0  0
 77 81  1  0  0  0
 77 82  1  0  0  0
 78 80  2  0  0  0
 78148  1  0  0  0
 79149  1  0  0  0
 80150  1  0  0  0
 81 83  1  0  0  0
 81151  1  0  0  0
 81152  1  0  0  0
 82 85  1  0  0  0
 82153  1  0  0  0
 82154  1  0  0  0
 83 85  1  0  0  0
 83155  1  0  0  0
 83156  1  0  0  0
 84157  1  0  0  0
 84158  1  0  0  0
 84159  1  0  0  0
M  ISO  4   1 100  68 101  79 101  80 100
M  END
> <chiral flag>
0

> <version>
0

> <s_m_source_file>
/data/baiqing/PycharmProjects/Reinvent-master-3.2/result/LINK_invent/BTK/process_docking_weight1_custom_product_contain_oxygen_bond_distance_aromatic_linkinvent_7_9_3/rearranged_h_0120.sdf

> <i_m_source_file_index>
2

> <r_mmod_Potential_Energy-OPLS-2005>
165.878784179688

> <r_mmod_Stretch_Energy-OPLS-2005>
63.1576614379883

> <r_mmod_Bend_Energy-OPLS-2005>
239.638885498047

> <r_mmod_Torsional_Energy-OPLS-2005>
199.200973510742

> <r_mmod_Improper_Torsional_Energy-OPLS-2005>
3.50122094154358

> <r_mmod_Van_der_Waal_Energy-OPLS-2005>
150.953994750977

> <r_mmod_Electrostatic_Energy-OPLS-2005>
-319.644989013672

> <r_mmod_Solvation_Energy-OPLS-2005>
-208.918960571289

> <b_mmod_Minimization_Converged-OPLS-2005>
0

> <r_mmod_RMS_Derivative-OPLS-2005>
5.08614683151245

$$$$
2
                    3D
 Structure written by MMmdl.
162170  0  0  1  0            999 V2000
  -30.6611  -14.5212   20.5417 C   0  0  0  0  0  0
  -30.4335  -12.3335   19.4205 C   0  0  0  0  0  0
  -29.4910  -12.4987   18.2050 C   0  0  0  0  0  0
  -27.9994  -12.4075   18.6001 C   0  0  0  0  0  0
  -27.6562  -13.1917   19.8932 C   0  0  2  0  0  0
  -28.7046  -12.9171   20.9849 C   0  0  0  0  0  0
  -25.2520  -13.8108   20.5702 C   0  0  0  0  0  0
  -24.1758  -13.0398   20.9184 C   0  0  0  0  0  0
  -24.6336  -11.6868   20.8792 C   0  0  0  0  0  0
  -23.9006  -10.4279   21.0441 C   0  0  0  0  0  0
  -24.3580   -9.4198   21.9210 C   0  0  0  0  0  0
  -23.6243   -8.2249   22.0779 C   0  0  0  0  0  0
  -22.4234   -8.0298   21.3563 C   0  0  0  0  0  0
  -21.9874   -9.0263   20.4652 C   0  0  0  0  0  0
  -22.7197  -10.2140   20.3063 C   0  0  0  0  0  0
  -21.6848   -6.0721   22.5291 C   0  0  0  0  0  0
  -21.4001   -6.5623   23.8225 C   0  0  0  0  0  0
  -21.3668   -5.6776   24.9199 C   0  0  0  0  0  0
  -21.6036   -4.3042   24.7238 C   0  0  0  0  0  0
  -21.8808   -3.8129   23.4352 C   0  0  0  0  0  0
  -21.9175   -4.6936   22.3410 C   0  0  0  0  0  0
  -22.7779  -13.5215   21.1838 C   0  0  0  0  0  0
  -22.1609   -4.2106   21.0989 F   0  0  0  0  0  0
  -21.5658   -3.4539   25.7755 F   0  0  0  0  0  0
  -30.0246  -13.3083   20.4533 N   0  0  0  0  0  0
  -26.2990  -12.9243   20.3513 N   0  0  0  0  0  0
  -25.9273  -11.6419   20.5860 N   0  0  0  0  0  0
  -22.0396  -12.8256   22.0415 N   0  0  0  0  0  0
  -25.4250  -15.1809   20.4033 N   0  0  0  0  0  0
  -31.7807  -14.7092   20.0525 O   0  0  0  0  0  0
  -21.6621   -6.8878   21.4252 O   0  0  0  0  0  0
  -22.3497  -14.5533   20.6681 O   0  0  0  0  0  0
  -24.6156  -31.8695   23.2122 C   0  0  0  0  0  0
  -25.9036  -32.4831   23.8431 C   0  0  1  0  0  0
  -27.2440  -27.4575   20.0875 C   0  0  0  0  0  0
  -25.5874  -33.8629   24.2345 N   0  0  0  0  0  0
  -23.4033  -30.4933   21.5515 C   0  0  2  0  0  0
  -24.8483  -28.9623   20.1168 C   0  0  0  0  0  0
  -22.7418  -29.4670   22.4999 C   0  0  0  0  0  0
  -18.0275  -28.1397   22.8486 C   0  0  0  0  0  0
  -24.1476  -36.7339   23.2640 C   0  0  0  0  0  0
  -25.9309  -30.8423   21.3620 C   0  0  0  0  0  0
  -26.0072  -29.4793   20.7060 C   0  0  0  0  0  0
  -27.2077  -28.7368   20.6810 C   0  0  0  0  0  0
  -26.0595  -26.9459   19.5025 C   0  0  0  0  0  0
  -24.8682  -27.6940   19.5119 C   0  0  0  0  0  0
  -23.6110  -29.8278   20.1651 C   0  0  0  0  0  0
  -25.4097  -36.3130   24.0345 C   0  0  1  0  0  0
  -20.5869  -28.3675   23.1312 C   0  0  2  0  0  0
  -20.6756  -26.9410   22.5415 C   0  0  0  0  0  0
  -19.5733  -26.6392   21.5221 C   0  0  0  0  0  0
  -18.1915  -26.7941   22.1626 C   0  0  0  0  0  0
  -19.1524  -28.8858   23.2897 C   0  0  0  0  0  0
  -18.9447  -30.1458   23.8924 C   0  0  0  0  0  0
  -17.6448  -30.6602   24.0566 C   0  0  0  0  0  0
  -25.9021  -34.9482   23.5150 C   0  0  0  0  0  0
  -16.5339  -29.9108   23.6311 C   0  0  0  0  0  0
  -16.7264  -28.6520   23.0337 C   0  0  0  0  0  0
  -26.4459  -31.6619   25.0771 C   0  0  0  0  0  0
  -25.3727  -31.3719   26.1523 C   0  0  0  0  0  0
  -27.0283  -30.3055   24.6149 C   0  0  0  0  0  0
  -27.6033  -32.4348   25.7536 C   0  0  0  0  0  0
  -27.5585  -37.1822   24.8461 C   0  0  0  0  0  0
  -21.4153  -29.3045   22.3736 N   0  0  0  0  0  0
  -26.4290  -37.3809   23.9416 N   0  0  0  0  0  0
  -24.6679  -31.0826   22.0999 N   0  0  0  0  0  0
  -23.4196  -28.8201   23.3023 O   0  0  0  0  0  0
  -28.4393  -26.7698   20.1060 O   0  0  0  0  0  0
  -26.5592  -34.8933   22.4718 O   0  0  0  0  0  0
  -23.5341  -32.1422   23.7516 O   0  0  0  0  0  0
  -29.5724  -18.7692   18.7919 C   0  0  0  0  0  0
  -30.2730  -19.7325   19.5236 C   0  0  0  0  0  0
  -30.7973  -18.0581   21.2034 C   0  0  0  0  0  0
  -30.0715  -17.0651   20.4929 C   0  0  0  0  0  0
  -29.4459  -17.4402   19.2613 C   0  0  0  0  0  0
  -30.8855  -19.3901   20.7429 C   0  0  0  0  0  0
  -29.8310  -23.4372   20.4144 C   0  0  0  0  0  0
  -29.7523  -24.7244   20.0351 C   0  0  0  0  0  0
  -29.8903  -15.7245   21.1507 C   0  0  0  0  0  0
  -28.1522  -16.9078   17.0519 C   0  0  0  0  0  0
  -28.5768  -16.4704   18.4664 C   0  0  0  0  0  0
  -31.0994  -22.6761   20.7759 C   0  0  0  0  0  0
  -28.4452  -25.4097   19.6830 C   0  0  0  0  0  0
  -30.8146  -21.5268   21.7737 C   0  0  0  0  0  0
  -29.1663  -15.6709   22.1899 N   0  0  0  0  0  0
  -31.5462  -20.3265   21.5078 O   0  0  0  0  0  0
  -31.4667  -12.4708   19.0993 H   0  0  0  0  0  0
  -30.3887  -11.3144   19.8087 H   0  0  0  0  0  0
  -29.7168  -11.7419   17.4535 H   0  0  0  0  0  0
  -29.6920  -13.4575   17.7282 H   0  0  0  0  0  0
  -27.7455  -11.3560   18.7267 H   0  0  0  0  0  0
  -27.3717  -12.7668   17.7838 H   0  0  0  0  0  0
  -27.7001  -14.2455   19.6583 H   0  0  0  0  0  0
  -28.7096  -11.8516   21.2176 H   0  0  0  0  0  0
  -28.4405  -13.3787   21.9316 H   0  0  0  0  0  0
  -25.2738   -9.5651   22.4807 H   0  0  0  0  0  0
  -23.9933   -7.4610   22.7472 H   0  0  0  0  0  0
  -21.0831   -8.8794   19.8908 H   0  0  0  0  0  0
  -22.3678  -10.9711   19.6185 H   0  0  0  0  0  0
  -21.2004   -7.6123   23.9719 H   0  0  0  0  0  0
  -21.1515   -6.0509   25.9089 H   0  0  0  0  0  0
  -22.0591   -2.7590   23.2875 H   0  0  0  0  0  0
  -22.3963  -11.9899   22.4808 H   0  0  0  0  0  0
  -21.1044  -13.1348   22.2672 H   0  0  0  0  0  0
  -24.6540  -15.8401   20.4555 H   0  0  0  0  0  0
  -26.3136  -15.6267   20.2203 H   0  0  0  0  0  0
  -26.7131  -32.5540   23.1222 H   0  0  0  0  0  0
  -25.0006  -33.9797   25.0476 H   0  0  0  0  0  0
  -22.6916  -31.3102   21.4134 H   0  0  0  0  0  0
  -23.3731  -35.9677   23.3299 H   0  0  0  0  0  0
  -24.3575  -36.8961   22.2057 H   0  0  0  0  0  0
  -23.7233  -37.6545   23.6653 H   0  0  0  0  0  0
  -26.0478  -31.6111   20.5961 H   0  0  0  0  0  0
  -26.8174  -30.8904   21.9829 H   0  0  0  0  0  0
  -28.1087  -29.1426   21.1200 H   0  0  0  0  0  0
  -26.0319  -25.9754   19.0298 H   0  0  0  0  0  0
  -23.9748  -27.2884   19.0575 H   0  0  0  0  0  0
  -23.7253  -30.6053   19.4082 H   0  0  0  0  0  0
  -22.7353  -29.2505   19.8635 H   0  0  0  0  0  0
  -25.1273  -36.2011   25.0839 H   0  0  0  0  0  0
  -20.9948  -28.3237   24.1435 H   0  0  0  0  0  0
  -20.5659  -26.2290   23.3609 H   0  0  0  0  0  0
  -21.6622  -26.7449   22.1202 H   0  0  0  0  0  0
  -19.6870  -25.6300   21.1261 H   0  0  0  0  0  0
  -19.6671  -27.3195   20.6749 H   0  0  0  0  0  0
  -17.4174  -26.6694   21.4032 H   0  0  0  0  0  0
  -18.0296  -26.0100   22.9034 H   0  0  0  0  0  0
  -19.7928  -30.7266   24.2307 H   0  0  0  0  0  0
  -17.5006  -31.6281   24.5170 H   0  0  0  0  0  0
  -15.5340  -30.3021   23.7633 H   0  0  0  0  0  0
  -15.8657  -28.0864   22.7030 H   0  0  0  0  0  0
  -24.5888  -30.7081   25.7869 H   0  0  0  0  0  0
  -24.8928  -32.2864   26.5014 H   0  0  0  0  0  0
  -25.8079  -30.8865   27.0264 H   0  0  0  0  0  0
  -26.2825  -29.6850   24.1161 H   0  0  0  0  0  0
  -27.3993  -29.7280   25.4626 H   0  0  0  0  0  0
  -27.8692  -30.4381   23.9341 H   0  0  0  0  0  0
  -27.2636  -33.3635   26.2140 H   0  0  0  0  0  0
  -28.3820  -32.6935   25.0350 H   0  0  0  0  0  0
  -28.0716  -31.8462   26.5432 H   0  0  0  0  0  0
  -28.2595  -38.0126   24.7515 H   0  0  0  0  0  0
  -28.1087  -36.2658   24.6265 H   0  0  0  0  0  0
  -27.2305  -37.1456   25.8863 H   0  0  0  0  0  0
  -20.9326  -29.8794   21.6982 H   0  0  0  0  0  0
  -26.0187  -38.2896   24.1394 H   0  0  0  0  0  0
  -29.1074  -19.0971   17.8756 H   0  0  0  0  0  0
  -30.3125  -20.7336   19.1232 H   0  0  0  0  0  0
  -31.2457  -17.8096   22.1540 H   0  0  0  0  0  0
  -28.9138  -22.8662   20.4532 H   0  0  0  0  0  0
  -30.6498  -25.3227   19.9542 H   0  0  0  0  0  0
  -27.5969  -16.1113   16.5572 H   0  0  0  0  0  0
  -29.0147  -17.1418   16.4265 H   0  0  0  0  0  0
  -27.4974  -17.7815   17.0756 H   0  0  0  0  0  0
  -27.6715  -16.3110   19.0511 H   0  0  0  0  0  0
  -29.0981  -15.5219   18.3785 H   0  0  0  0  0  0
  -31.8537  -23.3554   21.1734 H   0  0  0  0  0  0
  -31.5306  -22.2882   19.8541 H   0  0  0  0  0  0
  -27.6320  -24.8602   20.1617 H   0  0  0  0  0  0
  -28.3029  -25.3579   18.6026 H   0  0  0  0  0  0
  -29.7500  -21.2875   21.8112 H   0  0  0  0  0  0
  -31.0645  -21.8551   22.7832 H   0  0  0  0  0  0
  -28.7797  -16.5819   22.4077 H   0  0  0  0  0  0
  1 25  1  0  0  0
  1 30  2  0  0  0
  1 79  1  0  0  0
  2  3  1  0  0  0
  2 25  1  0  0  0
  2 87  1  0  0  0
  2 88  1  0  0  0
  3  4  1  0  0  0
  3 89  1  0  0  0
  3 90  1  0  0  0
  4  5  1  0  0  0
  4 91  1  0  0  0
  4 92  1  0  0  0
  5  6  1  0  0  0
  5 26  1  0  0  0
  5 93  1  0  0  0
  6 25  1  0  0  0
  6 94  1  0  0  0
  6 95  1  0  0  0
  7  8  2  0  0  0
  7 26  1  0  0  0
  7 29  1  0  0  0
  8  9  1  0  0  0
  8 22  1  0  0  0
  9 10  1  0  0  0
  9 27  2  0  0  0
 10 11  2  0  0  0
 10 15  1  0  0  0
 11 12  1  0  0  0
 11 96  1  0  0  0
 12 13  2  0  0  0
 12 97  1  0  0  0
 13 14  1  0  0  0
 13 31  1  0  0  0
 14 15  2  0  0  0
 14 98  1  0  0  0
 15 99  1  0  0  0
 16 17  2  0  0  0
 16 21  1  0  0  0
 16 31  1  0  0  0
 17 18  1  0  0  0
 17100  1  0  0  0
 18 19  2  0  0  0
 18101  1  0  0  0
 19 20  1  0  0  0
 19 24  1  0  0  0
 20 21  2  0  0  0
 20102  1  0  0  0
 21 23  1  0  0  0
 22 28  1  0  0  0
 22 32  2  0  0  0
 26 27  1  0  0  0
 28103  1  0  0  0
 28104  1  0  0  0
 29105  1  0  0  0
 29106  1  0  0  0
 33 34  1  0  0  0
 33 66  1  0  0  0
 33 70  2  0  0  0
 34 36  1  0  0  0
 34 59  1  0  0  0
 34107  1  0  0  0
 35 44  2  0  0  0
 35 45  1  0  0  0
 35 68  1  0  0  0
 36 56  1  0  0  0
 36108  1  0  0  0
 37 39  1  0  0  0
 37 47  1  0  0  0
 37 66  1  0  0  0
 37109  1  0  0  0
 38 43  2  0  0  0
 38 46  1  0  0  0
 38 47  1  0  0  0
 39 64  1  0  0  0
 39 67  2  0  0  0
 40 52  1  0  0  0
 40 53  2  0  0  0
 40 58  1  0  0  0
 41110  1  0  0  0
 41111  1  0  0  0
 41112  1  0  0  0
 41 48  1  0  0  0
 42 43  1  0  0  0
 42 66  1  0  0  0
 42113  1  0  0  0
 42114  1  0  0  0
 43 44  1  0  0  0
 44115  1  0  0  0
 45 46  2  0  0  0
 45116  1  0  0  0
 46117  1  0  0  0
 47118  1  0  0  0
 47119  1  0  0  0
 48 56  1  0  0  0
 48 65  1  0  0  0
 48120  1  0  0  0
 49 50  1  0  0  0
 49 53  1  0  0  0
 49 64  1  0  0  0
 49121  1  0  0  0
 50 51  1  0  0  0
 50122  1  0  0  0
 50123  1  0  0  0
 51 52  1  0  0  0
 51124  1  0  0  0
 51125  1  0  0  0
 52126  1  0  0  0
 52127  1  0  0  0
 53 54  1  0  0  0
 54 55  2  0  0  0
 54128  1  0  0  0
 55 57  1  0  0  0
 55129  1  0  0  0
 56 69  2  0  0  0
 57 58  2  0  0  0
 57130  1  0  0  0
 58131  1  0  0  0
 59 60  1  0  0  0
 59 61  1  0  0  0
 59 62  1  0  0  0
 60132  1  0  0  0
 60133  1  0  0  0
 60134  1  0  0  0
 61135  1  0  0  0
 61136  1  0  0  0
 61137  1  0  0  0
 62138  1  0  0  0
 62139  1  0  0  0
 62140  1  0  0  0
 63 65  1  0  0  0
 63141  1  0  0  0
 63142  1  0  0  0
 63143  1  0  0  0
 64144  1  0  0  0
 65145  1  0  0  0
 68 83  1  0  0  0
 71 72  2  0  0  0
 71 75  1  0  0  0
 71146  1  0  0  0
 72 76  1  0  0  0
 72147  1  0  0  0
 73 74  1  0  0  0
 73 76  2  0  0  0
 73148  1  0  0  0
 74 75  2  0  0  0
 74 79  1  0  0  0
 75 81  1  0  0  0
 76 86  1  0  0  0
 77 78  2  0  0  0
 77 82  1  0  0  0
 77149  1  0  0  0
 78 83  1  0  0  0
 78150  1  0  0  0
 79 85  2  0  0  0
 80 81  1  0  0  0
 80151  1  0  0  0
 80152  1  0  0  0
 80153  1  0  0  0
 81154  1  0  0  0
 81155  1  0  0  0
 82 84  1  0  0  0
 82156  1  0  0  0
 82157  1  0  0  0
 83158  1  0  0  0
 83159  1  0  0  0
 84 86  1  0  0  0
 84160  1  0  0  0
 84161  1  0  0  0
 85162  1  0  0  0
M  ISO  4   1 100  68 101  79 100  83 101
M  END
> <chiral flag>
0

> <version>
0

> <s_m_source_file>
/data/baiqing/PycharmProjects/Reinvent-master-3.2/result/LINK_invent/BTK/process_docking_weight1_custom_product_contain_oxygen_bond_distance_aromatic_linkinvent_7_9_3/rearranged_h_0120.sdf

> <i_m_source_file_index>
3

> <r_mmod_Potential_Energy-OPLS-2005>
162.701141357422

> <r_mmod_Stretch_Energy-OPLS-2005>
44.9216003417969

> <r_mmod_Bend_Energy-OPLS-2005>
114.153717041016

> <r_mmod_Torsional_Energy-OPLS-2005>
230.399703979492

> <r_mmod_Improper_Torsional_Energy-OPLS-2005>
3.90851783752441

> <r_mmod_Van_der_Waal_Energy-OPLS-2005>
166.884033203125

> <r_mmod_Electrostatic_Energy-OPLS-2005>
-218.591369628906

> <r_mmod_Solvation_Energy-OPLS-2005>
-194.591781616211

> <b_mmod_Minimization_Converged-OPLS-2005>
0

> <r_mmod_RMS_Derivative-OPLS-2005>
4.35556268692017

$$$$
3
                    3D
 Structure written by MMmdl.
165173  0  0  1  0            999 V2000
  -28.9216  -16.1558   20.7565 C   0  0  0  0  0  0
  -30.1124  -13.6841   19.7895 C   0  0  0  0  0  0
  -29.5179  -12.9249   18.5280 C   0  0  0  0  0  0
  -28.1485  -12.3096   18.8385 C   0  0  0  0  0  0
  -27.4443  -13.2584   19.8177 C   0  0  2  0  0  0
  -28.2341  -13.5970   21.0737 C   0  0  0  0  0  0
  -25.1394  -13.7884   20.5261 C   0  0  0  0  0  0
  -24.1045  -13.0133   20.9263 C   0  0  0  0  0  0
  -24.5829  -11.6672   20.8813 C   0  0  0  0  0  0
  -23.8728  -10.4097   21.0512 C   0  0  0  0  0  0
  -24.3435   -9.4071   21.9245 C   0  0  0  0  0  0
  -23.6185   -8.2083   22.0774 C   0  0  0  0  0  0
  -22.4166   -8.0131   21.3556 C   0  0  0  0  0  0
  -21.9731   -9.0058   20.4654 C   0  0  0  0  0  0
  -22.6975  -10.1955   20.3091 C   0  0  0  0  0  0
  -21.6801   -6.0656   22.5293 C   0  0  0  0  0  0
  -21.3972   -6.5592   23.8212 C   0  0  0  0  0  0
  -21.3642   -5.6761   24.9184 C   0  0  0  0  0  0
  -21.6049   -4.3024   24.7249 C   0  0  0  0  0  0
  -21.8825   -3.8101   23.4374 C   0  0  0  0  0  0
  -21.9182   -4.6903   22.3423 C   0  0  0  0  0  0
  -22.7202  -13.5010   21.2039 C   0  0  0  0  0  0
  -22.1661   -4.2097   21.0997 F   0  0  0  0  0  0
  -21.5642   -3.4520   25.7766 F   0  0  0  0  0  0
  -29.0932  -14.6380   20.5826 N   0  0  0  0  0  0
  -26.1518  -12.9017   20.2473 N   0  0  0  0  0  0
  -25.8599  -11.6224   20.5428 N   0  0  0  0  0  0
  -21.9961  -12.8068   22.0700 N   0  0  0  0  0  0
  -25.2870  -15.1577   20.3393 N   0  0  0  0  0  0
  -30.1669  -16.3590   20.4832 O   0  0  0  0  0  0
  -21.6560   -6.8742   21.4237 O   0  0  0  0  0  0
  -22.2970  -14.5360   20.6893 O   0  0  0  0  0  0
  -24.6303  -31.9012   23.2093 C   0  0  0  0  0  0
  -25.9167  -32.4969   23.8480 C   0  0  1  0  0  0
  -27.2508  -27.4985   20.1170 C   0  0  0  0  0  0
  -25.6024  -33.8732   24.2470 N   0  0  0  0  0  0
  -23.4307  -30.5155   21.5708 C   0  0  2  0  0  0
  -24.8555  -28.9871   20.1065 C   0  0  0  0  0  0
  -22.9443  -29.4498   22.5572 C   0  0  0  0  0  0
  -18.3738  -27.2513   23.1041 C   0  0  0  0  0  0
  -24.1486  -36.7393   23.2633 C   0  0  0  0  0  0
  -25.9341  -30.8919   21.3305 C   0  0  0  0  0  0
  -26.0093  -29.5179   20.6979 C   0  0  0  0  0  0
  -27.2084  -28.7832   20.6991 C   0  0  0  0  0  0
  -26.0926  -26.9748   19.5070 C   0  0  0  0  0  0
  -24.8919  -27.7139   19.5027 C   0  0  0  0  0  0
  -23.6158  -29.8547   20.1712 C   0  0  0  0  0  0
  -25.4092  -36.3176   24.0346 C   0  0  1  0  0  0
  -21.2403  -27.8238   22.9844 C   0  0  2  0  0  0
  -21.8400  -26.6868   21.4097 C   0  0  0  0  0  0
  -20.1401  -25.3597   20.7613 C   0  0  0  0  0  0
  -18.5807  -25.7291   22.0930 C   0  0  0  0  0  0
  -19.5621  -28.1277   23.5356 C   0  0  0  0  0  0
  -19.2333  -29.4985   23.9682 C   0  0  0  0  0  0
  -17.9374  -30.0946   23.9886 C   0  0  0  0  0  0
  -25.9024  -34.9558   23.5172 C   0  0  0  0  0  0
  -16.8563  -29.3259   23.5406 C   0  0  0  0  0  0
  -17.0891  -27.9764   23.1087 C   0  0  0  0  0  0
  -26.4494  -31.6591   25.0738 C   0  0  0  0  0  0
  -25.3805  -31.3675   26.1525 C   0  0  0  0  0  0
  -27.0196  -30.3035   24.5954 C   0  0  0  0  0  0
  -27.6139  -32.4180   25.7506 C   0  0  0  0  0  0
  -27.5583  -37.1862   24.8455 C   0  0  0  0  0  0
  -21.6661  -29.1523   22.5507 N   0  0  0  0  0  0
  -26.4291  -37.3845   23.9404 N   0  0  0  0  0  0
  -24.6847  -31.1358   22.0836 N   0  0  0  0  0  0
  -23.7178  -28.8402   23.2909 O   0  0  0  0  0  0
  -28.3890  -26.7336   20.1513 O   0  0  0  0  0  0
  -26.5505  -34.8960   22.4686 O   0  0  0  0  0  0
  -23.5480  -32.1595   23.7564 O   0  0  0  0  0  0
  -25.0372  -21.9779   21.8367 C   0  0  0  0  0  0
  -23.5517  -20.6726   21.9736 C   0  0  0  0  0  0
  -25.1073  -20.3976   21.6851 C   0  0  0  0  0  0
  -24.0072  -23.2418   22.1167 C   0  0  0  0  0  0
  -22.4643  -21.9090   22.2419 C   0  0  0  0  0  0
  -22.4449  -23.5100   22.3517 C   0  0  0  0  0  0
  -26.6369  -18.9236   21.2964 C   0  0  0  0  0  0
  -24.8214  -24.4609   22.1935 C   0  0  0  0  0  0
  -27.4216  -17.3802   21.1856 C   0  0  0  0  0  0
  -25.9323  -24.5739   22.9446 C   0  0  0  0  0  0
  -21.0602  -21.3801   22.5053 C   0  0  0  0  0  0
  -19.7876  -27.4917   21.1685 C   0  0  0  0  0  0
  -21.0143  -25.1620   22.8153 C   0  0  0  0  0  0
  -26.8788  -25.7545   22.8968 C   0  0  0  0  0  0
  -28.1905  -25.3619   22.1798 C   0  0  0  0  0  0
  -28.9311  -26.5127   21.4626 C   0  0  0  0  0  0
  -30.9526  -14.2846   19.4404 H   0  0  0  0  0  0
  -30.5783  -12.9719   20.4719 H   0  0  0  0  0  0
  -30.2149  -12.1736   18.1578 H   0  0  0  0  0  0
  -29.3984  -13.6523   17.7230 H   0  0  0  0  0  0
  -28.2862  -11.3326   19.3028 H   0  0  0  0  0  0
  -27.5659  -12.1610   17.9291 H   0  0  0  0  0  0
  -27.2875  -14.1559   19.2142 H   0  0  0  0  0  0
  -28.7236  -12.7332   21.5271 H   0  0  0  0  0  0
  -27.6080  -14.0318   21.8538 H   0  0  0  0  0  0
  -25.2584   -9.5615   22.4790 H   0  0  0  0  0  0
  -23.9932   -7.4468   22.7462 H   0  0  0  0  0  0
  -21.0680   -8.8520   19.8958 H   0  0  0  0  0  0
  -22.3425  -10.9495   19.6206 H   0  0  0  0  0  0
  -21.1940   -7.6098   23.9699 H   0  0  0  0  0  0
  -21.1468   -6.0497   25.9088 H   0  0  0  0  0  0
  -22.0631   -2.7565   23.2884 H   0  0  0  0  0  0
  -22.3615  -11.9717   22.5028 H   0  0  0  0  0  0
  -21.0624  -13.1122   22.3041 H   0  0  0  0  0  0
  -24.4723  -15.7592   20.3928 H   0  0  0  0  0  0
  -26.0358  -15.5643   19.7950 H   0  0  0  0  0  0
  -26.7311  -32.5718   23.1331 H   0  0  0  0  0  0
  -25.0247  -33.9890   25.0675 H   0  0  0  0  0  0
  -22.6605  -31.2856   21.4791 H   0  0  0  0  0  0
  -23.3726  -35.9753   23.3286 H   0  0  0  0  0  0
  -24.3599  -36.9022   22.2057 H   0  0  0  0  0  0
  -23.7254  -37.6609   23.6649 H   0  0  0  0  0  0
  -26.0101  -31.6470   20.5450 H   0  0  0  0  0  0
  -26.8368  -30.9779   21.9208 H   0  0  0  0  0  0
  -28.0955  -29.2081   21.1476 H   0  0  0  0  0  0
  -26.1179  -25.9876   19.0674 H   0  0  0  0  0  0
  -24.0106  -27.2959   19.0382 H   0  0  0  0  0  0
  -23.7225  -30.6355   19.4179 H   0  0  0  0  0  0
  -22.7320  -29.2923   19.8757 H   0  0  0  0  0  0
  -25.1257  -36.2072   25.0847 H   0  0  0  0  0  0
  -21.7763  -27.5655   23.8979 H   0  0  0  0  0  0
  -22.7683  -26.1776   21.6346 H   0  0  0  0  0  0
  -22.2001  -27.2913   20.5785 H   0  0  0  0  0  0
  -20.3880  -24.2968   20.6769 H   0  0  0  0  0  0
  -19.8468  -25.5629   19.7272 H   0  0  0  0  0  0
  -17.6807  -25.6954   21.4765 H   0  0  0  0  0  0
  -18.3763  -24.8736   22.7365 H   0  0  0  0  0  0
  -20.0507  -30.1463   24.2550 H   0  0  0  0  0  0
  -17.7931  -31.1178   24.3092 H   0  0  0  0  0  0
  -15.8622  -29.7489   23.4968 H   0  0  0  0  0  0
  -16.2314  -27.4516   22.7075 H   0  0  0  0  0  0
  -24.5988  -30.6974   25.7921 H   0  0  0  0  0  0
  -24.8983  -32.2800   26.5043 H   0  0  0  0  0  0
  -25.8233  -30.8859   27.0259 H   0  0  0  0  0  0
  -26.2761  -29.7067   24.0656 H   0  0  0  0  0  0
  -27.3613  -29.6973   25.4349 H   0  0  0  0  0  0
  -27.8740  -30.4342   23.9295 H   0  0  0  0  0  0
  -27.2842  -33.3470   26.2177 H   0  0  0  0  0  0
  -28.3919  -32.6741   25.0307 H   0  0  0  0  0  0
  -28.0805  -31.8198   26.5337 H   0  0  0  0  0  0
  -28.2575  -38.0180   24.7506 H   0  0  0  0  0  0
  -28.1092  -36.2707   24.6258 H   0  0  0  0  0  0
  -27.2303  -37.1499   25.8856 H   0  0  0  0  0  0
  -21.0163  -29.7038   22.0043 H   0  0  0  0  0  0
  -26.0188  -38.2936   24.1391 H   0  0  0  0  0  0
  -26.0478  -22.3292   21.6983 H   0  0  0  0  0  0
  -23.0448  -19.7179   21.9888 H   0  0  0  0  0  0
  -27.4073  -19.5597   20.8837 H   0  0  0  0  0  0
  -24.5586  -25.2779   21.5452 H   0  0  0  0  0  0
  -26.6951  -16.7136   21.6160 H   0  0  0  0  0  0
  -26.2138  -23.7646   23.6044 H   0  0  0  0  0  0
  -20.9701  -20.3059   22.3518 H   0  0  0  0  0  0
  -20.3322  -21.8677   21.8537 H   0  0  0  0  0  0
  -20.7701  -21.5889   23.5366 H   0  0  0  0  0  0
  -19.6992  -28.5632   21.3578 H   0  0  0  0  0  0
  -18.8284  -27.3937   20.6360 H   0  0  0  0  0  0
  -20.2502  -27.7073   20.1907 H   0  0  0  0  0  0
  -21.5351  -25.5444   23.6890 H   0  0  0  0  0  0
  -20.2686  -24.6149   23.3849 H   0  0  0  0  0  0
  -27.0825  -26.0938   23.9141 H   0  0  0  0  0  0
  -26.3774  -26.5797   22.3976 H   0  0  0  0  0  0
  -27.9989  -24.5806   21.4429 H   0  0  0  0  0  0
  -28.8568  -24.9054   22.9141 H   0  0  0  0  0  0
  -28.9563  -27.4052   22.0898 H   0  0  0  0  0  0
  -29.9748  -26.2257   21.3337 H   0  0  0  0  0  0
  1 25  1  0  0  0
  1 30  2  0  0  0
  1 79  1  0  0  0
  2  3  1  0  0  0
  2 25  1  0  0  0
  2 87  1  0  0  0
  2 88  1  0  0  0
  3  4  1  0  0  0
  3 89  1  0  0  0
  3 90  1  0  0  0
  4  5  1  0  0  0
  4 91  1  0  0  0
  4 92  1  0  0  0
  5  6  1  0  0  0
  5 26  1  0  0  0
  5 93  1  0  0  0
  6 25  1  0  0  0
  6 94  1  0  0  0
  6 95  1  0  0  0
  7  8  2  0  0  0
  7 26  1  0  0  0
  7 29  1  0  0  0
  8  9  1  0  0  0
  8 22  1  0  0  0
  9 10  1  0  0  0
  9 27  2  0  0  0
 10 11  2  0  0  0
 10 15  1  0  0  0
 11 12  1  0  0  0
 11 96  1  0  0  0
 12 13  2  0  0  0
 12 97  1  0  0  0
 13 14  1  0  0  0
 13 31  1  0  0  0
 14 15  2  0  0  0
 14 98  1  0  0  0
 15 99  1  0  0  0
 16 17  2  0  0  0
 16 21  1  0  0  0
 16 31  1  0  0  0
 17 18  1  0  0  0
 17100  1  0  0  0
 18 19  2  0  0  0
 18101  1  0  0  0
 19 20  1  0  0  0
 19 24  1  0  0  0
 20 21  2  0  0  0
 20102  1  0  0  0
 21 23  1  0  0  0
 22 28  1  0  0  0
 22 32  2  0  0  0
 26 27  1  0  0  0
 28103  1  0  0  0
 28104  1  0  0  0
 29105  1  0  0  0
 29106  1  0  0  0
 33 34  1  0  0  0
 33 66  1  0  0  0
 33 70  2  0  0  0
 34 36  1  0  0  0
 34 59  1  0  0  0
 34107  1  0  0  0
 35 44  2  0  0  0
 35 45  1  0  0  0
 35 68  1  0  0  0
 36 56  1  0  0  0
 36108  1  0  0  0
 37 39  1  0  0  0
 37 47  1  0  0  0
 37 66  1  0  0  0
 37109  1  0  0  0
 38 43  2  0  0  0
 38 46  1  0  0  0
 38 47  1  0  0  0
 39 64  1  0  0  0
 39 67  2  0  0  0
 40 52  1  0  0  0
 40 53  2  0  0  0
 40 58  1  0  0  0
 41110  1  0  0  0
 41111  1  0  0  0
 41112  1  0  0  0
 41 48  1  0  0  0
 42 43  1  0  0  0
 42 66  1  0  0  0
 42113  1  0  0  0
 42114  1  0  0  0
 43 44  1  0  0  0
 44115  1  0  0  0
 45 46  2  0  0  0
 45116  1  0  0  0
 46117  1  0  0  0
 47118  1  0  0  0
 47119  1  0  0  0
 48 56  1  0  0  0
 48 65  1  0  0  0
 48120  1  0  0  0
 49 50  1  0  0  0
 49 53  1  0  0  0
 49 64  1  0  0  0
 49121  1  0  0  0
 50 51  1  0  0  0
 50122  1  0  0  0
 50123  1  0  0  0
 51 52  1  0  0  0
 51124  1  0  0  0
 51125  1  0  0  0
 52126  1  0  0  0
 52127  1  0  0  0
 53 54  1  0  0  0
 54 55  2  0  0  0
 54128  1  0  0  0
 55 57  1  0  0  0
 55129  1  0  0  0
 56 69  2  0  0  0
 57 58  2  0  0  0
 57130  1  0  0  0
 58131  1  0  0  0
 59 60  1  0  0  0
 59 61  1  0  0  0
 59 62  1  0  0  0
 60132  1  0  0  0
 60133  1  0  0  0
 60134  1  0  0  0
 61135  1  0  0  0
 61136  1  0  0  0
 61137  1  0  0  0
 62138  1  0  0  0
 62139  1  0  0  0
 62140  1  0  0  0
 63 65  1  0  0  0
 63141  1  0  0  0
 63142  1  0  0  0
 63143  1  0  0  0
 64144  1  0  0  0
 65145  1  0  0  0
 68 86  1  0  0  0
 71 73  2  0  0  0
 71 74  1  0  0  0
 71146  1  0  0  0
 72 73  1  0  0  0
 72 75  2  0  0  0
 72147  1  0  0  0
 73 77  1  0  0  0
 74 76  2  0  0  0
 74 78  1  0  0  0
 75 76  1  0  0  0
 75 81  1  0  0  0
 76 83  1  0  0  0
 77 79  2  0  0  0
 77148  1  0  0  0
 78 80  2  0  0  0
 78149  1  0  0  0
 79150  1  0  0  0
 80 84  1  0  0  0
 80151  1  0  0  0
 81152  1  0  0  0
 81153  1  0  0  0
 81154  1  0  0  0
 82 83  1  0  0  0
 82155  1  0  0  0
 82156  1  0  0  0
 82157  1  0  0  0
 83158  1  0  0  0
 83159  1  0  0  0
 84 85  1  0  0  0
 84160  1  0  0  0
 84161  1  0  0  0
 85 86  1  0  0  0
 85162  1  0  0  0
 85163  1  0  0  0
 86164  1  0  0  0
 86165  1  0  0  0
M  ISO  4   1 100  68 101  79 100  86 101
M  END
> <chiral flag>
0

> <version>
0

> <s_m_source_file>
/data/baiqing/PycharmProjects/Reinvent-master-3.2/result/LINK_invent/BTK/process_docking_weight1_custom_product_contain_oxygen_bond_distance_aromatic_linkinvent_7_9_3/rearranged_h_0120.sdf

> <i_m_source_file_index>
4

> <r_mmod_Potential_Energy-OPLS-2005>
13276.4794921875

> <r_mmod_Stretch_Energy-OPLS-2005>
7262.3623046875

> <r_mmod_Bend_Energy-OPLS-2005>
1439.39990234375

> <r_mmod_Torsional_Energy-OPLS-2005>
298.679443359375

> <r_mmod_Improper_Torsional_Energy-OPLS-2005>
16.3091449737549

> <r_mmod_Van_der_Waal_Energy-OPLS-2005>
1773.85729980469

> <r_mmod_Electrostatic_Energy-OPLS-2005>
-339.357391357422

> <r_mmod_Solvation_Energy-OPLS-2005>
-182.37776184082

> <b_mmod_Minimization_Converged-OPLS-2005>
0

> <r_mmod_RMS_Derivative-OPLS-2005>
5.35712099075317

$$$$
4
                    3D
 Structure written by MMmdl.
160168  0  0  1  0            999 V2000
  -30.7125  -14.4102   20.6041 C   0  0  0  0  0  0
  -30.4280  -12.2810   19.4095 C   0  0  0  0  0  0
  -29.4961  -12.5186   18.2014 C   0  0  0  0  0  0
  -28.0189  -12.3672   18.6169 C   0  0  0  0  0  0
  -27.6670  -13.1755   19.8935 C   0  0  2  0  0  0
  -28.7101  -12.9300   21.0070 C   0  0  0  0  0  0
  -25.2620  -13.8069   20.5691 C   0  0  0  0  0  0
  -24.1840  -13.0418   20.9166 C   0  0  0  0  0  0
  -24.6342  -11.6862   20.8738 C   0  0  0  0  0  0
  -23.9010  -10.4275   21.0445 C   0  0  0  0  0  0
  -24.3593   -9.4194   21.9214 C   0  0  0  0  0  0
  -23.6277   -8.2234   22.0777 C   0  0  0  0  0  0
  -22.4268   -8.0261   21.3566 C   0  0  0  0  0  0
  -21.9887   -9.0227   20.4679 C   0  0  0  0  0  0
  -22.7195  -10.2109   20.3088 C   0  0  0  0  0  0
  -21.6851   -6.0719   22.5273 C   0  0  0  0  0  0
  -21.3998   -6.5624   23.8193 C   0  0  0  0  0  0
  -21.3672   -5.6801   24.9167 C   0  0  0  0  0  0
  -21.6059   -4.3061   24.7247 C   0  0  0  0  0  0
  -21.8815   -3.8130   23.4369 C   0  0  0  0  0  0
  -21.9186   -4.6942   22.3409 C   0  0  0  0  0  0
  -22.7877  -13.5260   21.1838 C   0  0  0  0  0  0
  -22.1663   -4.2114   21.0992 F   0  0  0  0  0  0
  -21.5655   -3.4549   25.7769 F   0  0  0  0  0  0
  -30.0492  -13.2335   20.4605 N   0  0  0  0  0  0
  -26.3031  -12.9169   20.3436 N   0  0  0  0  0  0
  -25.9259  -11.6367   20.5791 N   0  0  0  0  0  0
  -22.0508  -12.8254   22.0375 N   0  0  0  0  0  0
  -25.4367  -15.1782   20.4096 N   0  0  0  0  0  0
  -31.8163  -14.6442   20.1008 O   0  0  0  0  0  0
  -21.6651   -6.8854   21.4236 O   0  0  0  0  0  0
  -22.3606  -14.5607   20.6715 O   0  0  0  0  0  0
  -24.6087  -31.8731   23.2191 C   0  0  0  0  0  0
  -25.9001  -32.4860   23.8484 C   0  0  1  0  0  0
  -27.2462  -27.4902   20.0846 C   0  0  0  0  0  0
  -25.5875  -33.8651   24.2397 N   0  0  0  0  0  0
  -23.3958  -30.4998   21.5577 C   0  0  2  0  0  0
  -24.8386  -28.9630   20.1257 C   0  0  0  0  0  0
  -22.7432  -29.4717   22.5078 C   0  0  0  0  0  0
  -18.0314  -28.1328   22.8520 C   0  0  0  0  0  0
  -24.1483  -36.7328   23.2636 C   0  0  0  0  0  0
  -25.9190  -30.8515   21.3645 C   0  0  0  0  0  0
  -25.9940  -29.4895   20.7129 C   0  0  0  0  0  0
  -27.1934  -28.7538   20.6979 C   0  0  0  0  0  0
  -26.0656  -26.9531   19.5138 C   0  0  0  0  0  0
  -24.8638  -27.6875   19.5335 C   0  0  0  0  0  0
  -23.5985  -29.8264   20.1731 C   0  0  0  0  0  0
  -25.4100  -36.3143   24.0361 C   0  0  1  0  0  0
  -20.5911  -28.3657   23.1333 C   0  0  2  0  0  0
  -20.6895  -26.9445   22.5282 C   0  0  0  0  0  0
  -19.5765  -26.6380   21.5190 C   0  0  0  0  0  0
  -18.2006  -26.7837   22.1721 C   0  0  0  0  0  0
  -19.1556  -28.8776   23.2931 C   0  0  0  0  0  0
  -18.9480  -30.1354   23.8999 C   0  0  0  0  0  0
  -17.6491  -30.6490   24.0719 C   0  0  0  0  0  0
  -25.9020  -34.9493   23.5181 C   0  0  0  0  0  0
  -16.5385  -29.8996   23.6477 C   0  0  0  0  0  0
  -16.7305  -28.6466   23.0407 C   0  0  0  0  0  0
  -26.4448  -31.6641   25.0800 C   0  0  0  0  0  0
  -25.3769  -31.3703   26.1596 C   0  0  0  0  0  0
  -27.0266  -30.3118   24.6115 C   0  0  0  0  0  0
  -27.6045  -32.4370   25.7516 C   0  0  0  0  0  0
  -27.5593  -37.1827   24.8465 C   0  0  0  0  0  0
  -21.4160  -29.3114   22.3835 N   0  0  0  0  0  0
  -26.4296  -37.3824   23.9419 N   0  0  0  0  0  0
  -24.6591  -31.0887   22.1058 N   0  0  0  0  0  0
  -23.4232  -28.8217   23.3072 O   0  0  0  0  0  0
  -28.4700  -26.8602   20.0827 O   0  0  0  0  0  0
  -26.5575  -34.8923   22.4728 O   0  0  0  0  0  0
  -23.5291  -32.1416   23.7628 O   0  0  0  0  0  0
  -29.2848  -18.7363   19.8548 C   0  0  0  0  0  0
  -30.7741  -17.5614   21.9343 C   0  0  0  0  0  0
  -29.3681  -17.3292   19.9360 C   0  0  0  0  0  0
  -30.0886  -16.7418   21.0117 C   0  0  0  0  0  0
  -29.9422  -19.5529   20.7951 C   0  0  0  0  0  0
  -30.7117  -18.9626   21.8158 C   0  0  0  0  0  0
  -27.5199  -16.8243   18.3146 C   0  0  0  0  0  0
  -28.6704  -16.5102   18.9308 C   0  0  0  0  0  0
  -28.2255  -24.4461   20.0311 C   0  0  0  0  0  0
  -28.3518  -23.1349   19.2603 C   0  0  0  0  0  0
  -28.6623  -25.7047   19.2790 C   0  0  0  0  0  0
  -27.7456  -21.9174   19.9815 C   0  0  0  0  0  0
  -28.5789  -21.4196   21.1762 C   0  0  0  0  0  0
  -30.0205  -15.3483   21.2592 N   0  0  0  0  0  0
  -27.7733  -24.4914   21.1811 O   0  0  0  0  0  0
  -29.8351  -20.9186   20.7347 O   0  0  0  0  0  0
  -31.3545  -19.7453   22.7153 F   0  0  0  0  0  0
  -31.4726  -12.3891   19.1130 H   0  0  0  0  0  0
  -30.3322  -11.2587   19.7807 H   0  0  0  0  0  0
  -29.7407  -11.8278   17.3934 H   0  0  0  0  0  0
  -29.6599  -13.5171   17.7939 H   0  0  0  0  0  0
  -27.8328  -11.3071   18.7903 H   0  0  0  0  0  0
  -27.3643  -12.6560   17.7948 H   0  0  0  0  0  0
  -27.7108  -14.2249   19.6311 H   0  0  0  0  0  0
  -28.6789  -11.8897   21.3341 H   0  0  0  0  0  0
  -28.4640  -13.5086   21.8986 H   0  0  0  0  0  0
  -25.2754   -9.5673   22.4772 H   0  0  0  0  0  0
  -23.9998   -7.4627   22.7482 H   0  0  0  0  0  0
  -21.0827   -8.8737   19.8980 H   0  0  0  0  0  0
  -22.3665  -10.9656   19.6194 H   0  0  0  0  0  0
  -21.1962   -7.6127   23.9672 H   0  0  0  0  0  0
  -21.1526   -6.0552   25.9069 H   0  0  0  0  0  0
  -22.0589   -2.7594   23.2884 H   0  0  0  0  0  0
  -22.4122  -11.9886   22.4710 H   0  0  0  0  0  0
  -21.1127  -13.1276   22.2575 H   0  0  0  0  0  0
  -24.6728  -15.8349   20.5154 H   0  0  0  0  0  0
  -26.2840  -15.6064   20.0551 H   0  0  0  0  0  0
  -26.7073  -32.5590   23.1251 H   0  0  0  0  0  0
  -25.0064  -33.9791   25.0574 H   0  0  0  0  0  0
  -22.6807  -31.3155   21.4229 H   0  0  0  0  0  0
  -23.3756  -35.9657   23.3309 H   0  0  0  0  0  0
  -24.3554  -36.8902   22.2041 H   0  0  0  0  0  0
  -23.7217  -37.6536   23.6621 H   0  0  0  0  0  0
  -26.0327  -31.6204   20.5978 H   0  0  0  0  0  0
  -26.8039  -30.8989   21.9884 H   0  0  0  0  0  0
  -28.0897  -29.1605   21.1445 H   0  0  0  0  0  0
  -26.0446  -25.9741   19.0612 H   0  0  0  0  0  0
  -23.9694  -27.2654   19.0960 H   0  0  0  0  0  0
  -23.6964  -30.5953   19.4049 H   0  0  0  0  0  0
  -22.7247  -29.2396   19.8877 H   0  0  0  0  0  0
  -25.1277  -36.2028   25.0863 H   0  0  0  0  0  0
  -21.0039  -28.3251   24.1441 H   0  0  0  0  0  0
  -20.6105  -26.2174   23.3389 H   0  0  0  0  0  0
  -21.6703  -26.7764   22.0824 H   0  0  0  0  0  0
  -19.6988  -25.6312   21.1189 H   0  0  0  0  0  0
  -19.6589  -27.3182   20.6702 H   0  0  0  0  0  0
  -17.4216  -26.6457   21.4217 H   0  0  0  0  0  0
  -18.0611  -25.9989   22.9156 H   0  0  0  0  0  0
  -19.7949  -30.7113   24.2462 H   0  0  0  0  0  0
  -17.5052  -31.6084   24.5512 H   0  0  0  0  0  0
  -15.5364  -30.2787   23.7988 H   0  0  0  0  0  0
  -15.8694  -28.0805   22.7147 H   0  0  0  0  0  0
  -24.5921  -30.7051   25.7976 H   0  0  0  0  0  0
  -24.8981  -32.2828   26.5169 H   0  0  0  0  0  0
  -25.8182  -30.8824   27.0294 H   0  0  0  0  0  0
  -26.2781  -29.6913   24.1185 H   0  0  0  0  0  0
  -27.4070  -29.7324   25.4524 H   0  0  0  0  0  0
  -27.8609  -30.4470   23.9233 H   0  0  0  0  0  0
  -27.2686  -33.3637   26.2179 H   0  0  0  0  0  0
  -28.3802  -32.6990   25.0314 H   0  0  0  0  0  0
  -28.0803  -31.8473   26.5348 H   0  0  0  0  0  0
  -28.2656  -38.0092   24.7529 H   0  0  0  0  0  0
  -28.1051  -36.2630   24.6292 H   0  0  0  0  0  0
  -27.2311  -37.1501   25.8869 H   0  0  0  0  0  0
  -20.9338  -29.8933   21.7125 H   0  0  0  0  0  0
  -26.0208  -38.2923   24.1390 H   0  0  0  0  0  0
  -28.7224  -19.1909   19.0545 H   0  0  0  0  0  0
  -31.3316  -17.1295   22.7519 H   0  0  0  0  0  0
  -27.0954  -16.1612   17.5721 H   0  0  0  0  0  0
  -26.9793  -17.7334   18.5390 H   0  0  0  0  0  0
  -29.1559  -15.5898   18.6426 H   0  0  0  0  0  0
  -29.4059  -22.9587   19.0436 H   0  0  0  0  0  0
  -27.8494  -23.2845   18.3035 H   0  0  0  0  0  0
  -29.7258  -25.6154   19.0605 H   0  0  0  0  0  0
  -28.1519  -25.7971   18.3195 H   0  0  0  0  0  0
  -27.6106  -21.1099   19.2661 H   0  0  0  0  0  0
  -26.7402  -22.1648   20.3218 H   0  0  0  0  0  0
  -28.0079  -20.6721   21.7334 H   0  0  0  0  0  0
  -28.7679  -22.2224   21.8874 H   0  0  0  0  0  0
  -29.1461  -15.0173   21.6388 H   0  0  0  0  0  0
  1 25  1  0  0  0
  1 30  2  0  0  0
  1 84  1  0  0  0
  2  3  1  0  0  0
  2 25  1  0  0  0
  2 88  1  0  0  0
  2 89  1  0  0  0
  3  4  1  0  0  0
  3 90  1  0  0  0
  3 91  1  0  0  0
  4  5  1  0  0  0
  4 92  1  0  0  0
  4 93  1  0  0  0
  5  6  1  0  0  0
  5 26  1  0  0  0
  5 94  1  0  0  0
  6 25  1  0  0  0
  6 95  1  0  0  0
  6 96  1  0  0  0
  7  8  2  0  0  0
  7 26  1  0  0  0
  7 29  1  0  0  0
  8  9  1  0  0  0
  8 22  1  0  0  0
  9 10  1  0  0  0
  9 27  2  0  0  0
 10 11  2  0  0  0
 10 15  1  0  0  0
 11 12  1  0  0  0
 11 97  1  0  0  0
 12 13  2  0  0  0
 12 98  1  0  0  0
 13 14  1  0  0  0
 13 31  1  0  0  0
 14 15  2  0  0  0
 14 99  1  0  0  0
 15100  1  0  0  0
 16 17  2  0  0  0
 16 21  1  0  0  0
 16 31  1  0  0  0
 17 18  1  0  0  0
 17101  1  0  0  0
 18 19  2  0  0  0
 18102  1  0  0  0
 19 20  1  0  0  0
 19 24  1  0  0  0
 20 21  2  0  0  0
 20103  1  0  0  0
 21 23  1  0  0  0
 22 28  1  0  0  0
 22 32  2  0  0  0
 26 27  1  0  0  0
 28104  1  0  0  0
 28105  1  0  0  0
 29106  1  0  0  0
 29107  1  0  0  0
 33 34  1  0  0  0
 33 66  1  0  0  0
 33 70  2  0  0  0
 34 36  1  0  0  0
 34 59  1  0  0  0
 34108  1  0  0  0
 35 44  2  0  0  0
 35 45  1  0  0  0
 35 68  1  0  0  0
 36 56  1  0  0  0
 36109  1  0  0  0
 37 39  1  0  0  0
 37 47  1  0  0  0
 37 66  1  0  0  0
 37110  1  0  0  0
 38 43  2  0  0  0
 38 46  1  0  0  0
 38 47  1  0  0  0
 39 64  1  0  0  0
 39 67  2  0  0  0
 40 52  1  0  0  0
 40 53  2  0  0  0
 40 58  1  0  0  0
 41111  1  0  0  0
 41112  1  0  0  0
 41113  1  0  0  0
 41 48  1  0  0  0
 42 43  1  0  0  0
 42 66  1  0  0  0
 42114  1  0  0  0
 42115  1  0  0  0
 43 44  1  0  0  0
 44116  1  0  0  0
 45 46  2  0  0  0
 45117  1  0  0  0
 46118  1  0  0  0
 47119  1  0  0  0
 47120  1  0  0  0
 48 56  1  0  0  0
 48 65  1  0  0  0
 48121  1  0  0  0
 49 50  1  0  0  0
 49 53  1  0  0  0
 49 64  1  0  0  0
 49122  1  0  0  0
 50 51  1  0  0  0
 50123  1  0  0  0
 50124  1  0  0  0
 51 52  1  0  0  0
 51125  1  0  0  0
 51126  1  0  0  0
 52127  1  0  0  0
 52128  1  0  0  0
 53 54  1  0  0  0
 54 55  2  0  0  0
 54129  1  0  0  0
 55 57  1  0  0  0
 55130  1  0  0  0
 56 69  2  0  0  0
 57 58  2  0  0  0
 57131  1  0  0  0
 58132  1  0  0  0
 59 60  1  0  0  0
 59 61  1  0  0  0
 59 62  1  0  0  0
 60133  1  0  0  0
 60134  1  0  0  0
 60135  1  0  0  0
 61136  1  0  0  0
 61137  1  0  0  0
 61138  1  0  0  0
 62139  1  0  0  0
 62140  1  0  0  0
 62141  1  0  0  0
 63 65  1  0  0  0
 63142  1  0  0  0
 63143  1  0  0  0
 63144  1  0  0  0
 64145  1  0  0  0
 65146  1  0  0  0
 68 81  1  0  0  0
 71 73  2  0  0  0
 71 75  1  0  0  0
 71147  1  0  0  0
 72 74  2  0  0  0
 72 76  1  0  0  0
 72148  1  0  0  0
 73 74  1  0  0  0
 73 78  1  0  0  0
 74 84  1  0  0  0
 75 76  2  0  0  0
 75 86  1  0  0  0
 76 87  1  0  0  0
 77 78  2  0  0  0
 77149  1  0  0  0
 77150  1  0  0  0
 78151  1  0  0  0
 79 80  1  0  0  0
 79 81  1  0  0  0
 79 85  2  0  0  0
 80 82  1  0  0  0
 80152  1  0  0  0
 80153  1  0  0  0
 81154  1  0  0  0
 81155  1  0  0  0
 82 83  1  0  0  0
 82156  1  0  0  0
 82157  1  0  0  0
 83 86  1  0  0  0
 83158  1  0  0  0
 83159  1  0  0  0
 84160  1  0  0  0
M  ISO  4   1 100  68 101  81 101  84 100
M  END
> <chiral flag>
0

> <version>
0

> <s_m_source_file>
/data/baiqing/PycharmProjects/Reinvent-master-3.2/result/LINK_invent/BTK/process_docking_weight1_custom_product_contain_oxygen_bond_distance_aromatic_linkinvent_7_9_3/rearranged_h_0120.sdf

> <i_m_source_file_index>
5

> <r_mmod_Potential_Energy-OPLS-2005>
-29.4457035064697

> <r_mmod_Stretch_Energy-OPLS-2005>
31.6303634643555

> <r_mmod_Bend_Energy-OPLS-2005>
95.6945266723633

> <r_mmod_Torsional_Energy-OPLS-2005>
265.526763916016

> <r_mmod_Improper_Torsional_Energy-OPLS-2005>
5.25467348098755

> <r_mmod_Van_der_Waal_Energy-OPLS-2005>
159.040802001953

> <r_mmod_Electrostatic_Energy-OPLS-2005>
-370.150482177734

> <r_mmod_Solvation_Energy-OPLS-2005>
-226.913635253906

> <b_mmod_Minimization_Converged-OPLS-2005>
0

> <r_mmod_RMS_Derivative-OPLS-2005>
4.1261157989502

$$$$
5
                    3D
 Structure written by MMmdl.
158166  0  0  1  0            999 V2000
  -30.6560  -14.5279   20.3308 C   0  0  0  0  0  0
  -30.4398  -12.2810   19.4220 C   0  0  0  0  0  0
  -29.4951  -12.3947   18.2012 C   0  0  0  0  0  0
  -28.0103  -12.3094   18.6210 C   0  0  0  0  0  0
  -27.6445  -13.1816   19.8532 C   0  0  2  0  0  0
  -28.7179  -13.0658   20.9660 C   0  0  0  0  0  0
  -25.2595  -13.8050   20.5755 C   0  0  0  0  0  0
  -24.1824  -13.0364   20.9230 C   0  0  0  0  0  0
  -24.6360  -11.6825   20.8795 C   0  0  0  0  0  0
  -23.9026  -10.4239   21.0442 C   0  0  0  0  0  0
  -24.3594   -9.4148   21.9196 C   0  0  0  0  0  0
  -23.6277   -8.2187   22.0747 C   0  0  0  0  0  0
  -22.4252   -8.0247   21.3540 C   0  0  0  0  0  0
  -21.9889   -9.0220   20.4644 C   0  0  0  0  0  0
  -22.7215  -10.2097   20.3069 C   0  0  0  0  0  0
  -21.6828   -6.0721   22.5284 C   0  0  0  0  0  0
  -21.3987   -6.5633   23.8213 C   0  0  0  0  0  0
  -21.3661   -5.6789   24.9178 C   0  0  0  0  0  0
  -21.6048   -4.3059   24.7231 C   0  0  0  0  0  0
  -21.8830   -3.8140   23.4355 C   0  0  0  0  0  0
  -21.9187   -4.6948   22.3406 C   0  0  0  0  0  0
  -22.7858  -13.5196   21.1863 C   0  0  0  0  0  0
  -22.1663   -4.2131   21.0987 F   0  0  0  0  0  0
  -21.5631   -3.4555   25.7752 F   0  0  0  0  0  0
  -30.0610  -13.3058   20.4035 N   0  0  0  0  0  0
  -26.2984  -12.9138   20.3419 N   0  0  0  0  0  0
  -25.9276  -11.6339   20.5857 N   0  0  0  0  0  0
  -22.0497  -12.8182   22.0422 N   0  0  0  0  0  0
  -25.4326  -15.1777   20.4178 N   0  0  0  0  0  0
  -31.8763  -14.6864   20.3201 O   0  0  0  0  0  0
  -21.6608   -6.8849   21.4240 O   0  0  0  0  0  0
  -22.3562  -14.5507   20.6705 O   0  0  0  0  0  0
  -24.6139  -31.8695   23.2087 C   0  0  0  0  0  0
  -25.9036  -32.4822   23.8379 C   0  0  1  0  0  0
  -27.2464  -27.4519   20.1071 C   0  0  0  0  0  0
  -25.5907  -33.8620   24.2327 N   0  0  0  0  0  0
  -23.4003  -30.4914   21.5496 C   0  0  2  0  0  0
  -24.8486  -28.9566   20.1157 C   0  0  0  0  0  0
  -22.7385  -29.4682   22.5003 C   0  0  0  0  0  0
  -18.0273  -28.1380   22.8506 C   0  0  0  0  0  0
  -24.1493  -36.7320   23.2634 C   0  0  0  0  0  0
  -25.9256  -30.8452   21.3530 C   0  0  0  0  0  0
  -26.0062  -29.4785   20.7064 C   0  0  0  0  0  0
  -27.2071  -28.7360   20.6926 C   0  0  0  0  0  0
  -26.0676  -26.9382   19.5129 C   0  0  0  0  0  0
  -24.8746  -27.6859   19.5158 C   0  0  0  0  0  0
  -23.6060  -29.8174   20.1651 C   0  0  0  0  0  0
  -25.4105  -36.3112   24.0336 C   0  0  1  0  0  0
  -20.5852  -28.3668   23.1322 C   0  0  2  0  0  0
  -20.6761  -26.9406   22.5410 C   0  0  0  0  0  0
  -19.5745  -26.6399   21.5201 C   0  0  0  0  0  0
  -18.1923  -26.7932   22.1617 C   0  0  0  0  0  0
  -19.1518  -28.8838   23.2918 C   0  0  0  0  0  0
  -18.9442  -30.1438   23.8933 C   0  0  0  0  0  0
  -17.6443  -30.6586   24.0566 C   0  0  0  0  0  0
  -25.9034  -34.9479   23.5127 C   0  0  0  0  0  0
  -16.5340  -29.9089   23.6327 C   0  0  0  0  0  0
  -16.7255  -28.6501   23.0367 C   0  0  0  0  0  0
  -26.4476  -31.6583   25.0682 C   0  0  0  0  0  0
  -25.3742  -31.3677   26.1416 C   0  0  0  0  0  0
  -27.0274  -30.3030   24.6014 C   0  0  0  0  0  0
  -27.6084  -32.4252   25.7451 C   0  0  0  0  0  0
  -27.5577  -37.1813   24.8466 C   0  0  0  0  0  0
  -21.4114  -29.3041   22.3730 N   0  0  0  0  0  0
  -26.4294  -37.3782   23.9394 N   0  0  0  0  0  0
  -24.6653  -31.0812   22.0975 N   0  0  0  0  0  0
  -23.4169  -28.8238   23.3048 O   0  0  0  0  0  0
  -28.4362  -26.7536   20.1296 O   0  0  0  0  0  0
  -26.5575  -34.8925   22.4677 O   0  0  0  0  0  0
  -23.5332  -32.1431   23.7490 O   0  0  0  0  0  0
  -29.0807  -19.0032   20.5043 C   0  0  0  0  0  0
  -31.1417  -17.9889   21.2883 C   0  0  0  0  0  0
  -29.4321  -20.2211   21.0997 C   0  0  0  0  0  0
  -31.4964  -19.2198   21.8946 C   0  0  0  0  0  0
  -29.9499  -17.8948   20.5383 C   0  0  0  0  0  0
  -30.6645  -20.3607   21.7643 C   0  0  0  0  0  0
  -29.5262  -16.7604   19.7042 C   0  0  0  0  0  0
  -29.7960  -15.4452   19.5910 C   0  0  0  0  0  0
  -29.8420  -23.5102   21.0932 C   0  0  0  0  0  0
  -29.7167  -24.6661   20.4032 C   0  0  0  0  0  0
  -30.8888  -25.3874   19.7574 C   0  0  0  0  0  0
  -31.1242  -22.6995   21.2752 C   0  0  0  0  0  0
  -28.3556  -25.3275   20.1986 C   0  0  0  0  0  0
  -31.0639  -21.6130   22.2632 N   0  0  0  0  0  0
  -31.4769  -12.3976   19.0988 H   0  0  0  0  0  0
  -30.3729  -11.2902   19.8725 H   0  0  0  0  0  0
  -29.7141  -11.5868   17.5014 H   0  0  0  0  0  0
  -29.6896  -13.3030   17.6342 H   0  0  0  0  0  0
  -27.8053  -11.2616   18.8439 H   0  0  0  0  0  0
  -27.3659  -12.5638   17.7776 H   0  0  0  0  0  0
  -27.5951  -14.2035   19.5018 H   0  0  0  0  0  0
  -28.6893  -12.0767   21.4268 H   0  0  0  0  0  0
  -28.5120  -13.7831   21.7620 H   0  0  0  0  0  0
  -25.2745   -9.5604   22.4764 H   0  0  0  0  0  0
  -23.9990   -7.4558   22.7445 H   0  0  0  0  0  0
  -21.0828   -8.8745   19.8948 H   0  0  0  0  0  0
  -22.3693  -10.9644   19.6184 H   0  0  0  0  0  0
  -21.1965   -7.6138   23.9713 H   0  0  0  0  0  0
  -21.1476   -6.0518   25.9079 H   0  0  0  0  0  0
  -22.0609   -2.7602   23.2866 H   0  0  0  0  0  0
  -22.4126  -11.9858   22.4821 H   0  0  0  0  0  0
  -21.1105  -13.1181   22.2633 H   0  0  0  0  0  0
  -24.6707  -15.8368   20.5373 H   0  0  0  0  0  0
  -26.3027  -15.6235   20.1526 H   0  0  0  0  0  0
  -26.7121  -32.5549   23.1164 H   0  0  0  0  0  0
  -25.0099  -33.9783   25.0506 H   0  0  0  0  0  0
  -22.6900  -31.3082   21.4081 H   0  0  0  0  0  0
  -23.3741  -35.9667   23.3308 H   0  0  0  0  0  0
  -24.3598  -36.8904   22.2042 H   0  0  0  0  0  0
  -23.7249  -37.6538   23.6632 H   0  0  0  0  0  0
  -26.0222  -31.6092   20.5800 H   0  0  0  0  0  0
  -26.8192  -30.9111   21.9612 H   0  0  0  0  0  0
  -28.1037  -29.1394   21.1440 H   0  0  0  0  0  0
  -26.0547  -25.9702   19.0351 H   0  0  0  0  0  0
  -23.9848  -27.2796   19.0540 H   0  0  0  0  0  0
  -23.7038  -30.5887   19.3999 H   0  0  0  0  0  0
  -22.7329  -29.2278   19.8795 H   0  0  0  0  0  0
  -25.1283  -36.1997   25.0826 H   0  0  0  0  0  0
  -20.9962  -28.3232   24.1433 H   0  0  0  0  0  0
  -20.5663  -26.2271   23.3588 H   0  0  0  0  0  0
  -21.6635  -26.7461   22.1196 H   0  0  0  0  0  0
  -19.6911  -25.6321   21.1216 H   0  0  0  0  0  0
  -19.6688  -27.3221   20.6736 H   0  0  0  0  0  0
  -17.4187  -26.6685   21.4021 H   0  0  0  0  0  0
  -18.0335  -26.0066   22.9007 H   0  0  0  0  0  0
  -19.7915  -30.7241   24.2339 H   0  0  0  0  0  0
  -17.4998  -31.6277   24.5146 H   0  0  0  0  0  0
  -15.5343  -30.2999   23.7626 H   0  0  0  0  0  0
  -15.8655  -28.0808   22.7093 H   0  0  0  0  0  0
  -24.5958  -30.6978   25.7757 H   0  0  0  0  0  0
  -24.8869  -32.2813   26.4828 H   0  0  0  0  0  0
  -25.8078  -30.8890   27.0201 H   0  0  0  0  0  0
  -26.2792  -29.6806   24.1082 H   0  0  0  0  0  0
  -27.4084  -29.7239   25.4440 H   0  0  0  0  0  0
  -27.8619  -30.4349   23.9113 H   0  0  0  0  0  0
  -27.2761  -33.3547   26.2077 H   0  0  0  0  0  0
  -28.3887  -32.6783   25.0266 H   0  0  0  0  0  0
  -28.0759  -31.8315   26.5314 H   0  0  0  0  0  0
  -28.2624  -38.0086   24.7476 H   0  0  0  0  0  0
  -28.1050  -36.2613   24.6353 H   0  0  0  0  0  0
  -27.2290  -37.1524   25.8872 H   0  0  0  0  0  0
  -20.9275  -29.8762   21.6952 H   0  0  0  0  0  0
  -26.0204  -38.2875   24.1370 H   0  0  0  0  0  0
  -28.1447  -18.9484   19.9676 H   0  0  0  0  0  0
  -31.8201  -17.1504   21.3454 H   0  0  0  0  0  0
  -28.7437  -21.0446   21.0108 H   0  0  0  0  0  0
  -32.4378  -19.2840   22.4216 H   0  0  0  0  0  0
  -28.8266  -17.0786   18.9423 H   0  0  0  0  0  0
  -29.2890  -15.0161   18.7478 H   0  0  0  0  0  0
  -28.9490  -23.0966   21.5373 H   0  0  0  0  0  0
  -31.8191  -24.8270   19.8186 H   0  0  0  0  0  0
  -31.0493  -26.3504   20.2442 H   0  0  0  0  0  0
  -30.6804  -25.5733   18.7039 H   0  0  0  0  0  0
  -31.9349  -23.3749   21.5511 H   0  0  0  0  0  0
  -31.3919  -22.2835   20.3012 H   0  0  0  0  0  0
  -27.9720  -24.9388   19.2560 H   0  0  0  0  0  0
  -27.6663  -25.0195   20.9882 H   0  0  0  0  0  0
  -31.9102  -21.5617   22.8255 H   0  0  0  0  0  0
  1 25  1  0  0  0
  1 30  2  0  0  0
  1 78  1  0  0  0
  2  3  1  0  0  0
  2 25  1  0  0  0
  2 85  1  0  0  0
  2 86  1  0  0  0
  3  4  1  0  0  0
  3 87  1  0  0  0
  3 88  1  0  0  0
  4  5  1  0  0  0
  4 89  1  0  0  0
  4 90  1  0  0  0
  5  6  1  0  0  0
  5 26  1  0  0  0
  5 91  1  0  0  0
  6 25  1  0  0  0
  6 92  1  0  0  0
  6 93  1  0  0  0
  7  8  2  0  0  0
  7 26  1  0  0  0
  7 29  1  0  0  0
  8  9  1  0  0  0
  8 22  1  0  0  0
  9 10  1  0  0  0
  9 27  2  0  0  0
 10 11  2  0  0  0
 10 15  1  0  0  0
 11 12  1  0  0  0
 11 94  1  0  0  0
 12 13  2  0  0  0
 12 95  1  0  0  0
 13 14  1  0  0  0
 13 31  1  0  0  0
 14 15  2  0  0  0
 14 96  1  0  0  0
 15 97  1  0  0  0
 16 17  2  0  0  0
 16 21  1  0  0  0
 16 31  1  0  0  0
 17 18  1  0  0  0
 17 98  1  0  0  0
 18 19  2  0  0  0
 18 99  1  0  0  0
 19 20  1  0  0  0
 19 24  1  0  0  0
 20 21  2  0  0  0
 20100  1  0  0  0
 21 23  1  0  0  0
 22 28  1  0  0  0
 22 32  2  0  0  0
 26 27  1  0  0  0
 28101  1  0  0  0
 28102  1  0  0  0
 29103  1  0  0  0
 29104  1  0  0  0
 33 34  1  0  0  0
 33 66  1  0  0  0
 33 70  2  0  0  0
 34 36  1  0  0  0
 34 59  1  0  0  0
 34105  1  0  0  0
 35 44  2  0  0  0
 35 45  1  0  0  0
 35 68  1  0  0  0
 36 56  1  0  0  0
 36106  1  0  0  0
 37 39  1  0  0  0
 37 47  1  0  0  0
 37 66  1  0  0  0
 37107  1  0  0  0
 38 43  2  0  0  0
 38 46  1  0  0  0
 38 47  1  0  0  0
 39 64  1  0  0  0
 39 67  2  0  0  0
 40 52  1  0  0  0
 40 53  2  0  0  0
 40 58  1  0  0  0
 41108  1  0  0  0
 41109  1  0  0  0
 41110  1  0  0  0
 41 48  1  0  0  0
 42 43  1  0  0  0
 42 66  1  0  0  0
 42111  1  0  0  0
 42112  1  0  0  0
 43 44  1  0  0  0
 44113  1  0  0  0
 45 46  2  0  0  0
 45114  1  0  0  0
 46115  1  0  0  0
 47116  1  0  0  0
 47117  1  0  0  0
 48 56  1  0  0  0
 48 65  1  0  0  0
 48118  1  0  0  0
 49 50  1  0  0  0
 49 53  1  0  0  0
 49 64  1  0  0  0
 49119  1  0  0  0
 50 51  1  0  0  0
 50120  1  0  0  0
 50121  1  0  0  0
 51 52  1  0  0  0
 51122  1  0  0  0
 51123  1  0  0  0
 52124  1  0  0  0
 52125  1  0  0  0
 53 54  1  0  0  0
 54 55  2  0  0  0
 54126  1  0  0  0
 55 57  1  0  0  0
 55127  1  0  0  0
 56 69  2  0  0  0
 57 58  2  0  0  0
 57128  1  0  0  0
 58129  1  0  0  0
 59 60  1  0  0  0
 59 61  1  0  0  0
 59 62  1  0  0  0
 60130  1  0  0  0
 60131  1  0  0  0
 60132  1  0  0  0
 61133  1  0  0  0
 61134  1  0  0  0
 61135  1  0  0  0
 62136  1  0  0  0
 62137  1  0  0  0
 62138  1  0  0  0
 63 65  1  0  0  0
 63139  1  0  0  0
 63140  1  0  0  0
 63141  1  0  0  0
 64142  1  0  0  0
 65143  1  0  0  0
 68 83  1  0  0  0
 71 73  2  0  0  0
 71 75  1  0  0  0
 71144  1  0  0  0
 72 74  1  0  0  0
 72 75  2  0  0  0
 72145  1  0  0  0
 73 76  1  0  0  0
 73146  1  0  0  0
 74 76  2  0  0  0
 74147  1  0  0  0
 75 77  1  0  0  0
 76 84  1  0  0  0
 77 78  2  0  0  0
 77148  1  0  0  0
 78149  1  0  0  0
 79 80  2  0  0  0
 79 82  1  0  0  0
 79150  1  0  0  0
 80 81  1  0  0  0
 80 83  1  0  0  0
 81151  1  0  0  0
 81152  1  0  0  0
 81153  1  0  0  0
 82 84  1  0  0  0
 82154  1  0  0  0
 82155  1  0  0  0
 83156  1  0  0  0
 83157  1  0  0  0
 84158  1  0  0  0
M  ISO  4   1 100  68 101  78 100  83 101
M  END
> <chiral flag>
0

> <version>
0

> <s_m_source_file>
/data/baiqing/PycharmProjects/Reinvent-master-3.2/result/LINK_invent/BTK/process_docking_weight1_custom_product_contain_oxygen_bond_distance_aromatic_linkinvent_7_9_3/rearranged_h_0120.sdf

> <i_m_source_file_index>
6

> <r_mmod_Potential_Energy-OPLS-2005>
94.9536285400391

> <r_mmod_Stretch_Energy-OPLS-2005>
35.2517356872559

> <r_mmod_Bend_Energy-OPLS-2005>
142.439895629883

> <r_mmod_Torsional_Energy-OPLS-2005>
248.468978881836

> <r_mmod_Improper_Torsional_Energy-OPLS-2005>
28.7444400787354

> <r_mmod_Van_der_Waal_Energy-OPLS-2005>
164.869522094727

> <r_mmod_Electrostatic_Energy-OPLS-2005>
-351.058837890625

> <r_mmod_Solvation_Energy-OPLS-2005>
-210.583084106445

> <b_mmod_Minimization_Converged-OPLS-2005>
0

> <r_mmod_RMS_Derivative-OPLS-2005>
2.47041130065918

$$$$
6
                    3D
 Structure written by MMmdl.
153161  0  0  1  0            999 V2000
  -30.6168  -14.7905   20.4124 C   0  0  0  0  0  0
  -30.4291  -12.4768   19.4784 C   0  0  0  0  0  0
  -29.5119  -12.5001   18.2364 C   0  0  0  0  0  0
  -28.0399  -12.3232   18.6527 C   0  0  0  0  0  0
  -27.6371  -13.2397   19.8402 C   0  0  2  0  0  0
  -28.6842  -13.2111   20.9750 C   0  0  0  0  0  0
  -25.2495  -13.8212   20.5693 C   0  0  0  0  0  0
  -24.1798  -13.0452   20.9241 C   0  0  0  0  0  0
  -24.6402  -11.6930   20.8756 C   0  0  0  0  0  0
  -23.9084  -10.4305   21.0411 C   0  0  0  0  0  0
  -24.3632   -9.4214   21.9191 C   0  0  0  0  0  0
  -23.6305   -8.2249   22.0748 C   0  0  0  0  0  0
  -22.4279   -8.0294   21.3543 C   0  0  0  0  0  0
  -21.9929   -9.0274   20.4639 C   0  0  0  0  0  0
  -22.7259  -10.2150   20.3057 C   0  0  0  0  0  0
  -21.6863   -6.0753   22.5289 C   0  0  0  0  0  0
  -21.4010   -6.5651   23.8225 C   0  0  0  0  0  0
  -21.3653   -5.6799   24.9189 C   0  0  0  0  0  0
  -21.6045   -4.3063   24.7234 C   0  0  0  0  0  0
  -21.8818   -3.8155   23.4355 C   0  0  0  0  0  0
  -21.9191   -4.6978   22.3412 C   0  0  0  0  0  0
  -22.7828  -13.5235   21.1909 C   0  0  0  0  0  0
  -22.1664   -4.2169   21.0990 F   0  0  0  0  0  0
  -21.5631   -3.4544   25.7746 F   0  0  0  0  0  0
  -29.9796  -13.5640   20.3814 N   0  0  0  0  0  0
  -26.2926  -12.9434   20.3250 N   0  0  0  0  0  0
  -25.9331  -11.6571   20.5743 N   0  0  0  0  0  0
  -22.0456  -12.8216   22.0448 N   0  0  0  0  0  0
  -25.4158  -15.1943   20.4098 N   0  0  0  0  0  0
  -31.8216  -14.8260   20.1531 O   0  0  0  0  0  0
  -21.6643   -6.8892   21.4244 O   0  0  0  0  0  0
  -22.3511  -14.5545   20.6762 O   0  0  0  0  0  0
  -24.6354  -31.8530   23.1955 C   0  0  0  0  0  0
  -25.9168  -32.4748   23.8317 C   0  0  1  0  0  0
  -27.2219  -27.2456   20.1276 C   0  0  0  0  0  0
  -25.5935  -33.8544   24.2236 N   0  0  0  0  0  0
  -23.4334  -30.4743   21.5411 C   0  0  2  0  0  0
  -24.8837  -28.9222   20.1065 C   0  0  0  0  0  0
  -22.7525  -29.4611   22.4917 C   0  0  0  0  0  0
  -18.0289  -28.1409   22.8481 C   0  0  0  0  0  0
  -24.1476  -36.7264   23.2632 C   0  0  0  0  0  0
  -25.9808  -30.7589   21.3798 C   0  0  0  0  0  0
  -26.0573  -29.3805   20.7230 C   0  0  0  0  0  0
  -27.2332  -28.5541   20.7245 C   0  0  0  0  0  0
  -26.0313  -26.8650   19.4761 C   0  0  0  0  0  0
  -24.8780  -27.6719   19.4697 C   0  0  0  0  0  0
  -23.6524  -29.8086   20.1581 C   0  0  0  0  0  0
  -25.4112  -36.3063   24.0312 C   0  0  1  0  0  0
  -20.5902  -28.3736   23.1276 C   0  0  2  0  0  0
  -20.6781  -26.9447   22.5410 C   0  0  0  0  0  0
  -19.5742  -26.6395   21.5209 C   0  0  0  0  0  0
  -18.1929  -26.7946   22.1621 C   0  0  0  0  0  0
  -19.1543  -28.8882   23.2878 C   0  0  0  0  0  0
  -18.9463  -30.1486   23.8889 C   0  0  0  0  0  0
  -17.6464  -30.6608   24.0580 C   0  0  0  0  0  0
  -25.9058  -34.9439   23.5084 C   0  0  0  0  0  0
  -16.5356  -29.9109   23.6352 C   0  0  0  0  0  0
  -16.7280  -28.6532   23.0362 C   0  0  0  0  0  0
  -26.4524  -31.6578   25.0706 C   0  0  0  0  0  0
  -25.3729  -31.3742   26.1421 C   0  0  0  0  0  0
  -27.0355  -30.2969   24.6202 C   0  0  0  0  0  0
  -27.6079  -32.4317   25.7488 C   0  0  0  0  0  0
  -27.5581  -37.1790   24.8467 C   0  0  0  0  0  0
  -21.4230  -29.3059   22.3647 N   0  0  0  0  0  0
  -26.4291  -37.3780   23.9421 N   0  0  0  0  0  0
  -24.7027  -31.0469   22.0957 N   0  0  0  0  0  0
  -23.4205  -28.8163   23.3051 O   0  0  0  0  0  0
  -28.2433  -26.2594   20.1905 O   0  0  0  0  0  0
  -26.5644  -34.8927   22.4658 O   0  0  0  0  0  0
  -23.5501  -32.1374   23.7229 O   0  0  0  0  0  0
  -30.8371  -20.1394   19.4810 C   0  0  0  0  0  0
  -31.3504  -17.7360   19.5093 C   0  0  0  0  0  0
  -29.6481  -19.9600   20.2147 C   0  0  0  0  0  0
  -29.3134  -18.5588   20.5521 C   0  0  0  0  0  0
  -30.1717  -17.4092   20.2268 C   0  0  0  0  0  0
  -31.6666  -19.0556   19.1380 C   0  0  0  0  0  0
  -26.8383  -18.7506   20.8694 C   0  0  0  0  0  0
  -28.8800  -21.2599   20.6196 C   0  0  0  0  0  0
  -28.0324  -18.2371   21.2069 C   0  0  0  0  0  0
  -28.9819  -22.6155   20.2765 C   0  0  0  0  0  0
  -28.1582  -23.7034   20.9378 C   0  0  0  0  0  0
  -27.8866  -25.0793   20.9101 C   0  0  0  0  0  0
  -29.8611  -15.9640   20.5371 N   0  0  0  0  0  0
  -32.8018  -19.2898   18.4386 F   0  0  0  0  0  0
  -31.4716  -12.5907   19.1740 H   0  0  0  0  0  0
  -30.3719  -11.5116   19.9840 H   0  0  0  0  0  0
  -29.7997  -11.7110   17.5407 H   0  0  0  0  0  0
  -29.6370  -13.4419   17.6996 H   0  0  0  0  0  0
  -27.9063  -11.2793   18.9354 H   0  0  0  0  0  0
  -27.3820  -12.4919   17.8003 H   0  0  0  0  0  0
  -27.6179  -14.2534   19.4397 H   0  0  0  0  0  0
  -28.7294  -12.2253   21.4413 H   0  0  0  0  0  0
  -28.4178  -13.9144   21.7653 H   0  0  0  0  0  0
  -25.2767   -9.5712   22.4781 H   0  0  0  0  0  0
  -24.0032   -7.4632   22.7448 H   0  0  0  0  0  0
  -21.0880   -8.8789   19.8932 H   0  0  0  0  0  0
  -22.3716  -10.9702   19.6178 H   0  0  0  0  0  0
  -21.1988   -7.6155   23.9744 H   0  0  0  0  0  0
  -21.1477   -6.0521   25.9098 H   0  0  0  0  0  0
  -22.0595   -2.7616   23.2855 H   0  0  0  0  0  0
  -22.4055  -11.9876   22.4857 H   0  0  0  0  0  0
  -21.1062  -13.1230   22.2612 H   0  0  0  0  0  0
  -24.6401  -15.8388   20.5076 H   0  0  0  0  0  0
  -26.2541  -15.6385   20.0587 H   0  0  0  0  0  0
  -26.7230  -32.5406   23.1060 H   0  0  0  0  0  0
  -25.0081  -33.9667   25.0378 H   0  0  0  0  0  0
  -22.7316  -31.2982   21.3941 H   0  0  0  0  0  0
  -23.3729  -35.9594   23.3303 H   0  0  0  0  0  0
  -24.3560  -36.8890   22.2047 H   0  0  0  0  0  0
  -23.7240  -37.6464   23.6660 H   0  0  0  0  0  0
  -26.1184  -31.5175   20.6081 H   0  0  0  0  0  0
  -26.8575  -30.8120   22.0134 H   0  0  0  0  0  0
  -28.1277  -28.8904   21.2308 H   0  0  0  0  0  0
  -25.9792  -25.8943   19.0032 H   0  0  0  0  0  0
  -23.9853  -27.3120   18.9775 H   0  0  0  0  0  0
  -23.7776  -30.5853   19.4033 H   0  0  0  0  0  0
  -22.7702  -29.2413   19.8557 H   0  0  0  0  0  0
  -25.1291  -36.1903   25.0797 H   0  0  0  0  0  0
  -21.0012  -28.3349   24.1401 H   0  0  0  0  0  0
  -20.5682  -26.2357   23.3625 H   0  0  0  0  0  0
  -21.6654  -26.7487   22.1193 H   0  0  0  0  0  0
  -19.6921  -25.6303   21.1238 H   0  0  0  0  0  0
  -19.6668  -27.3212   20.6742 H   0  0  0  0  0  0
  -17.4195  -26.6690   21.4040 H   0  0  0  0  0  0
  -18.0347  -26.0087   22.9018 H   0  0  0  0  0  0
  -19.7944  -30.7308   24.2243 H   0  0  0  0  0  0
  -17.5014  -31.6281   24.5186 H   0  0  0  0  0  0
  -15.5355  -30.3010   23.7666 H   0  0  0  0  0  0
  -15.8675  -28.0852   22.7098 H   0  0  0  0  0  0
  -24.5905  -30.7085   25.7765 H   0  0  0  0  0  0
  -24.8891  -32.2896   26.4822 H   0  0  0  0  0  0
  -25.8024  -30.8944   27.0215 H   0  0  0  0  0  0
  -26.2934  -29.6717   24.1200 H   0  0  0  0  0  0
  -27.4001  -29.7254   25.4751 H   0  0  0  0  0  0
  -27.8848  -30.4185   23.9465 H   0  0  0  0  0  0
  -27.2663  -33.3610   26.2046 H   0  0  0  0  0  0
  -28.3901  -32.6873   25.0329 H   0  0  0  0  0  0
  -28.0698  -31.8428   26.5407 H   0  0  0  0  0  0
  -28.2606  -38.0096   24.7554 H   0  0  0  0  0  0
  -28.1081  -36.2632   24.6234 H   0  0  0  0  0  0
  -27.2297  -37.1405   25.8874 H   0  0  0  0  0  0
  -20.9427  -29.8738   21.6797 H   0  0  0  0  0  0
  -26.0152  -38.2838   24.1451 H   0  0  0  0  0  0
  -31.1474  -21.1302   19.1854 H   0  0  0  0  0  0
  -32.0494  -16.9773   19.1967 H   0  0  0  0  0  0
  -25.9370  -18.4737   21.3984 H   0  0  0  0  0  0
  -26.7365  -19.4507   20.0529 H   0  0  0  0  0  0
  -28.1275  -21.0575   21.3671 H   0  0  0  0  0  0
  -28.0764  -17.5393   22.0314 H   0  0  0  0  0  0
  -29.7029  -22.9083   19.5251 H   0  0  0  0  0  0
  -27.5765  -23.2613   21.7358 H   0  0  0  0  0  0
  -27.1815  -25.3845   21.6736 H   0  0  0  0  0  0
  -28.9037  -15.7917   20.8014 H   0  0  0  0  0  0
  1 25  1  0  0  0
  1 30  2  0  0  0
  1 83  1  0  0  0
  2  3  1  0  0  0
  2 25  1  0  0  0
  2 85  1  0  0  0
  2 86  1  0  0  0
  3  4  1  0  0  0
  3 87  1  0  0  0
  3 88  1  0  0  0
  4  5  1  0  0  0
  4 89  1  0  0  0
  4 90  1  0  0  0
  5  6  1  0  0  0
  5 26  1  0  0  0
  5 91  1  0  0  0
  6 25  1  0  0  0
  6 92  1  0  0  0
  6 93  1  0  0  0
  7  8  2  0  0  0
  7 26  1  0  0  0
  7 29  1  0  0  0
  8  9  1  0  0  0
  8 22  1  0  0  0
  9 10  1  0  0  0
  9 27  2  0  0  0
 10 11  2  0  0  0
 10 15  1  0  0  0
 11 12  1  0  0  0
 11 94  1  0  0  0
 12 13  2  0  0  0
 12 95  1  0  0  0
 13 14  1  0  0  0
 13 31  1  0  0  0
 14 15  2  0  0  0
 14 96  1  0  0  0
 15 97  1  0  0  0
 16 17  2  0  0  0
 16 21  1  0  0  0
 16 31  1  0  0  0
 17 18  1  0  0  0
 17 98  1  0  0  0
 18 19  2  0  0  0
 18 99  1  0  0  0
 19 20  1  0  0  0
 19 24  1  0  0  0
 20 21  2  0  0  0
 20100  1  0  0  0
 21 23  1  0  0  0
 22 28  1  0  0  0
 22 32  2  0  0  0
 26 27  1  0  0  0
 28101  1  0  0  0
 28102  1  0  0  0
 29103  1  0  0  0
 29104  1  0  0  0
 33 34  1  0  0  0
 33 66  1  0  0  0
 33 70  2  0  0  0
 34 36  1  0  0  0
 34 59  1  0  0  0
 34105  1  0  0  0
 35 44  2  0  0  0
 35 45  1  0  0  0
 35 68  1  0  0  0
 36 56  1  0  0  0
 36106  1  0  0  0
 37 39  1  0  0  0
 37 47  1  0  0  0
 37 66  1  0  0  0
 37107  1  0  0  0
 38 43  2  0  0  0
 38 46  1  0  0  0
 38 47  1  0  0  0
 39 64  1  0  0  0
 39 67  2  0  0  0
 40 52  1  0  0  0
 40 53  2  0  0  0
 40 58  1  0  0  0
 41108  1  0  0  0
 41109  1  0  0  0
 41110  1  0  0  0
 41 48  1  0  0  0
 42 43  1  0  0  0
 42 66  1  0  0  0
 42111  1  0  0  0
 42112  1  0  0  0
 43 44  1  0  0  0
 44113  1  0  0  0
 45 46  2  0  0  0
 45114  1  0  0  0
 46115  1  0  0  0
 47116  1  0  0  0
 47117  1  0  0  0
 48 56  1  0  0  0
 48 65  1  0  0  0
 48118  1  0  0  0
 49 50  1  0  0  0
 49 53  1  0  0  0
 49 64  1  0  0  0
 49119  1  0  0  0
 50 51  1  0  0  0
 50120  1  0  0  0
 50121  1  0  0  0
 51 52  1  0  0  0
 51122  1  0  0  0
 51123  1  0  0  0
 52124  1  0  0  0
 52125  1  0  0  0
 53 54  1  0  0  0
 54 55  2  0  0  0
 54126  1  0  0  0
 55 57  1  0  0  0
 55127  1  0  0  0
 56 69  2  0  0  0
 57 58  2  0  0  0
 57128  1  0  0  0
 58129  1  0  0  0
 59 60  1  0  0  0
 59 61  1  0  0  0
 59 62  1  0  0  0
 60130  1  0  0  0
 60131  1  0  0  0
 60132  1  0  0  0
 61133  1  0  0  0
 61134  1  0  0  0
 61135  1  0  0  0
 62136  1  0  0  0
 62137  1  0  0  0
 62138  1  0  0  0
 63 65  1  0  0  0
 63139  1  0  0  0
 63140  1  0  0  0
 63141  1  0  0  0
 64142  1  0  0  0
 65143  1  0  0  0
 68 82  1  0  0  0
 71 73  2  0  0  0
 71 76  1  0  0  0
 71144  1  0  0  0
 72 75  1  0  0  0
 72 76  2  0  0  0
 72145  1  0  0  0
 73 74  1  0  0  0
 73 78  1  0  0  0
 74 75  2  0  0  0
 74 79  1  0  0  0
 75 83  1  0  0  0
 76 84  1  0  0  0
 77 79  2  0  0  0
 77146  1  0  0  0
 77147  1  0  0  0
 78 80  2  0  0  0
 78148  1  0  0  0
 79149  1  0  0  0
 80 81  1  0  0  0
 80150  1  0  0  0
 81 82  2  0  0  0
 81151  1  0  0  0
 82152  1  0  0  0
 83153  1  0  0  0
M  ISO  4   1 100  68 101  82 101  83 100
M  END
> <chiral flag>
0

> <version>
0

> <s_m_source_file>
/data/baiqing/PycharmProjects/Reinvent-master-3.2/result/LINK_invent/BTK/process_docking_weight1_custom_product_contain_oxygen_bond_distance_aromatic_linkinvent_7_9_3/rearranged_h_0120.sdf

> <i_m_source_file_index>
7

> <r_mmod_Potential_Energy-OPLS-2005>
330.229217529297

> <r_mmod_Stretch_Energy-OPLS-2005>
144.812759399414

> <r_mmod_Bend_Energy-OPLS-2005>
235.168792724609

> <r_mmod_Torsional_Energy-OPLS-2005>
241.256622314453

> <r_mmod_Improper_Torsional_Energy-OPLS-2005>
5.21996831893921

> <r_mmod_Van_der_Waal_Energy-OPLS-2005>
142.839263916016

> <r_mmod_Electrostatic_Energy-OPLS-2005>
-357.361297607422

> <r_mmod_Solvation_Energy-OPLS-2005>
-193.511169433594

> <b_mmod_Minimization_Converged-OPLS-2005>
0

> <r_mmod_RMS_Derivative-OPLS-2005>
3.2655189037323

$$$$
7
                    3D
 Structure written by MMmdl.
165173  0  0  1  0            999 V2000
  -30.7204  -14.4014   20.6890 C   0  0  0  0  0  0
  -30.4368  -12.3169   19.3816 C   0  0  0  0  0  0
  -29.4878  -12.5508   18.1885 C   0  0  0  0  0  0
  -28.0121  -12.3983   18.6059 C   0  0  0  0  0  0
  -27.6725  -13.2008   19.8882 C   0  0  2  0  0  0
  -28.7141  -12.9102   20.9911 C   0  0  0  0  0  0
  -25.2625  -13.8148   20.5689 C   0  0  0  0  0  0
  -24.1853  -13.0436   20.9160 C   0  0  0  0  0  0
  -24.6385  -11.6897   20.8702 C   0  0  0  0  0  0
  -23.9036  -10.4294   21.0376 C   0  0  0  0  0  0
  -24.3592   -9.4220   21.9160 C   0  0  0  0  0  0
  -23.6279   -8.2250   22.0737 C   0  0  0  0  0  0
  -22.4265   -8.0277   21.3529 C   0  0  0  0  0  0
  -21.9891   -9.0245   20.4630 C   0  0  0  0  0  0
  -22.7204  -10.2130   20.3037 C   0  0  0  0  0  0
  -21.6850   -6.0728   22.5269 C   0  0  0  0  0  0
  -21.4009   -6.5631   23.8200 C   0  0  0  0  0  0
  -21.3664   -5.6786   24.9163 C   0  0  0  0  0  0
  -21.6053   -4.3049   24.7213 C   0  0  0  0  0  0
  -21.8823   -3.8140   23.4331 C   0  0  0  0  0  0
  -21.9195   -4.6959   22.3392 C   0  0  0  0  0  0
  -22.7874  -13.5243   21.1845 C   0  0  0  0  0  0
  -22.1665   -4.2144   21.0972 F   0  0  0  0  0  0
  -21.5640   -3.4535   25.7729 F   0  0  0  0  0  0
  -30.0600  -13.2320   20.4692 N   0  0  0  0  0  0
  -26.3076  -12.9308   20.3424 N   0  0  0  0  0  0
  -25.9319  -11.6466   20.5745 N   0  0  0  0  0  0
  -22.0513  -12.8233   22.0399 N   0  0  0  0  0  0
  -25.4372  -15.1863   20.4116 N   0  0  0  0  0  0
  -31.7062  -14.7632   20.0370 O   0  0  0  0  0  0
  -21.6639   -6.8867   21.4229 O   0  0  0  0  0  0
  -22.3556  -14.5560   20.6710 O   0  0  0  0  0  0
  -24.6153  -31.8678   23.2060 C   0  0  0  0  0  0
  -25.9041  -32.4809   23.8363 C   0  0  1  0  0  0
  -27.2489  -27.4410   20.0772 C   0  0  0  0  0  0
  -25.5902  -33.8608   24.2300 N   0  0  0  0  0  0
  -23.4020  -30.4894   21.5463 C   0  0  2  0  0  0
  -24.8502  -28.9507   20.1129 C   0  0  0  0  0  0
  -22.7406  -29.4648   22.4956 C   0  0  0  0  0  0
  -18.0284  -28.1356   22.8472 C   0  0  0  0  0  0
  -24.1496  -36.7311   23.2635 C   0  0  0  0  0  0
  -25.9309  -30.8311   21.3600 C   0  0  0  0  0  0
  -26.0075  -29.4632   20.7108 C   0  0  0  0  0  0
  -27.2028  -28.7111   20.6981 C   0  0  0  0  0  0
  -26.0658  -26.9338   19.4900 C   0  0  0  0  0  0
  -24.8729  -27.6822   19.5050 C   0  0  0  0  0  0
  -23.6137  -29.8195   20.1617 C   0  0  0  0  0  0
  -25.4106  -36.3086   24.0336 C   0  0  1  0  0  0
  -20.5868  -28.3652   23.1302 C   0  0  2  0  0  0
  -20.6777  -26.9391   22.5399 C   0  0  0  0  0  0
  -19.5767  -26.6369   21.5192 C   0  0  0  0  0  0
  -18.1941  -26.7896   22.1597 C   0  0  0  0  0  0
  -19.1530  -28.8816   23.2890 C   0  0  0  0  0  0
  -18.9475  -30.1419   23.8909 C   0  0  0  0  0  0
  -17.6486  -30.6574   24.0558 C   0  0  0  0  0  0
  -25.9045  -34.9467   23.5106 C   0  0  0  0  0  0
  -16.5371  -29.9075   23.6323 C   0  0  0  0  0  0
  -16.7273  -28.6491   23.0327 C   0  0  0  0  0  0
  -26.4468  -31.6597   25.0699 C   0  0  0  0  0  0
  -25.3737  -31.3735   26.1463 C   0  0  0  0  0  0
  -27.0297  -30.3046   24.6034 C   0  0  0  0  0  0
  -27.6031  -32.4332   25.7468 C   0  0  0  0  0  0
  -27.5581  -37.1790   24.8457 C   0  0  0  0  0  0
  -21.4140  -29.3025   22.3712 N   0  0  0  0  0  0
  -26.4285  -37.3775   23.9414 N   0  0  0  0  0  0
  -24.6669  -31.0771   22.0953 N   0  0  0  0  0  0
  -23.4184  -28.8193   23.2995 O   0  0  0  0  0  0
  -28.4412  -26.7457   20.1013 O   0  0  0  0  0  0
  -26.5591  -34.8924   22.4659 O   0  0  0  0  0  0
  -23.5348  -32.1421   23.7460 O   0  0  0  0  0  0
  -30.0451  -17.4425   20.9655 C   0  0  0  0  0  0
  -29.7549  -16.8322   23.2985 C   0  0  0  0  0  0
  -29.6304  -18.7744   21.2423 C   0  0  0  0  0  0
  -29.3578  -18.1458   23.6100 C   0  0  0  0  0  0
  -29.2501  -19.1172   22.5768 C   0  0  0  0  0  0
  -30.0733  -16.4562   21.9829 C   0  0  0  0  0  0
  -29.6020  -19.7294   20.0977 C   0  0  0  0  0  0
  -29.7673  -21.0725   20.1032 C   0  0  0  0  0  0
  -28.9239  -24.3497   19.7163 C   0  0  0  0  0  0
  -28.6569  -20.4892   22.8968 C   0  0  0  0  0  0
  -30.0674  -19.3818   25.7251 C   0  0  0  0  0  0
  -29.0351  -18.4531   25.0710 C   0  0  0  0  0  0
  -29.6311  -21.9514   18.8653 C   0  0  0  0  0  0
  -29.9863  -23.4510   19.0520 C   0  0  0  0  0  0
  -28.7177  -25.7507   19.1016 C   0  0  0  0  0  0
  -30.2926  -15.0630   21.7742 N   0  0  0  0  0  0
  -28.2764  -23.9669   20.6954 O   0  0  0  0  0  0
  -31.4733  -12.4569   19.0696 H   0  0  0  0  0  0
  -30.3698  -11.2846   19.7275 H   0  0  0  0  0  0
  -29.7212  -11.8577   17.3792 H   0  0  0  0  0  0
  -29.6483  -13.5527   17.7860 H   0  0  0  0  0  0
  -27.8136  -11.3375   18.7647 H   0  0  0  0  0  0
  -27.3600  -12.7095   17.7886 H   0  0  0  0  0  0
  -27.7384  -14.2600   19.6394 H   0  0  0  0  0  0
  -28.6847  -11.8533   21.2616 H   0  0  0  0  0  0
  -28.4489  -13.4409   21.9054 H   0  0  0  0  0  0
  -25.2733   -9.5722   22.4729 H   0  0  0  0  0  0
  -24.0006   -7.4647   22.7455 H   0  0  0  0  0  0
  -21.0825   -8.8732   19.8934 H   0  0  0  0  0  0
  -22.3632  -10.9656   19.6153 H   0  0  0  0  0  0
  -21.1982   -7.6133   23.9701 H   0  0  0  0  0  0
  -21.1494   -6.0512   25.9068 H   0  0  0  0  0  0
  -22.0600   -2.7600   23.2827 H   0  0  0  0  0  0
  -22.4118  -11.9887   22.4785 H   0  0  0  0  0  0
  -21.1128  -13.1251   22.2609 H   0  0  0  0  0  0
  -24.6781  -15.8491   20.5280 H   0  0  0  0  0  0
  -26.3083  -15.6238   20.1374 H   0  0  0  0  0  0
  -26.7106  -32.5519   23.1129 H   0  0  0  0  0  0
  -25.0107  -33.9785   25.0473 H   0  0  0  0  0  0
  -22.6903  -31.3045   21.3999 H   0  0  0  0  0  0
  -23.3755  -35.9651   23.3297 H   0  0  0  0  0  0
  -24.3617  -36.8926   22.2054 H   0  0  0  0  0  0
  -23.7271  -37.6518   23.6662 H   0  0  0  0  0  0
  -26.0397  -31.5919   20.5864 H   0  0  0  0  0  0
  -26.8221  -30.8898   21.9736 H   0  0  0  0  0  0
  -28.0990  -29.1059   21.1556 H   0  0  0  0  0  0
  -26.0369  -25.9552   19.0341 H   0  0  0  0  0  0
  -23.9808  -27.2735   19.0515 H   0  0  0  0  0  0
  -23.7277  -30.5952   19.4029 H   0  0  0  0  0  0
  -22.7376  -29.2416   19.8606 H   0  0  0  0  0  0
  -25.1284  -36.1946   25.0832 H   0  0  0  0  0  0
  -20.9960  -28.3227   24.1420 H   0  0  0  0  0  0
  -20.5680  -26.2258   23.3578 H   0  0  0  0  0  0
  -21.6655  -26.7424   22.1198 H   0  0  0  0  0  0
  -19.6952  -25.6281   21.1214 H   0  0  0  0  0  0
  -19.6738  -27.3189   20.6727 H   0  0  0  0  0  0
  -17.4209  -26.6649   21.3999 H   0  0  0  0  0  0
  -18.0361  -26.0023   22.8980 H   0  0  0  0  0  0
  -19.7964  -30.7213   24.2279 H   0  0  0  0  0  0
  -17.5058  -31.6257   24.5151 H   0  0  0  0  0  0
  -15.5376  -30.2991   23.7641 H   0  0  0  0  0  0
  -15.8664  -28.0832   22.7008 H   0  0  0  0  0  0
  -24.5903  -30.7067   25.7839 H   0  0  0  0  0  0
  -24.8939  -32.2912   26.4877 H   0  0  0  0  0  0
  -25.8108  -30.8952   27.0238 H   0  0  0  0  0  0
  -26.2820  -29.6811   24.1101 H   0  0  0  0  0  0
  -27.4128  -29.7264   25.4448 H   0  0  0  0  0  0
  -27.8624  -30.4398   23.9125 H   0  0  0  0  0  0
  -27.2624  -33.3629   26.2045 H   0  0  0  0  0  0
  -28.3845  -32.6906   25.0302 H   0  0  0  0  0  0
  -28.0683  -31.8455   26.5391 H   0  0  0  0  0  0
  -28.2553  -38.0118   24.7521 H   0  0  0  0  0  0
  -28.1121  -36.2650   24.6261 H   0  0  0  0  0  0
  -27.2319  -37.1411   25.8862 H   0  0  0  0  0  0
  -20.9290  -29.8773   21.6964 H   0  0  0  0  0  0
  -26.0175  -38.2849   24.1438 H   0  0  0  0  0  0
  -30.3002  -17.1720   19.9499 H   0  0  0  0  0  0
  -29.7880  -16.0893   24.0843 H   0  0  0  0  0  0
  -29.3858  -19.2738   19.1416 H   0  0  0  0  0  0
  -30.0095  -21.5953   21.0149 H   0  0  0  0  0  0
  -28.0412  -20.8527   22.0757 H   0  0  0  0  0  0
  -29.4447  -21.2139   23.0979 H   0  0  0  0  0  0
  -27.9915  -20.4805   23.7561 H   0  0  0  0  0  0
  -29.8497  -19.5165   26.7843 H   0  0  0  0  0  0
  -30.0771  -20.3706   25.2678 H   0  0  0  0  0  0
  -31.0731  -18.9690   25.6432 H   0  0  0  0  0  0
  -29.0057  -17.5237   25.6414 H   0  0  0  0  0  0
  -28.0289  -18.8601   25.1614 H   0  0  0  0  0  0
  -28.6110  -21.8572   18.4893 H   0  0  0  0  0  0
  -30.2776  -21.5346   18.0908 H   0  0  0  0  0  0
  -30.9155  -23.5463   19.6137 H   0  0  0  0  0  0
  -30.1910  -23.8741   18.0681 H   0  0  0  0  0  0
  -27.9634  -25.7004   18.3186 H   0  0  0  0  0  0
  -29.6419  -26.0446   18.6035 H   0  0  0  0  0  0
  -29.7712  -14.4703   22.4035 H   0  0  0  0  0  0
  1 25  1  0  0  0
  1 30  2  0  0  0
  1 86  1  0  0  0
  2  3  1  0  0  0
  2 25  1  0  0  0
  2 88  1  0  0  0
  2 89  1  0  0  0
  3  4  1  0  0  0
  3 90  1  0  0  0
  3 91  1  0  0  0
  4  5  1  0  0  0
  4 92  1  0  0  0
  4 93  1  0  0  0
  5  6  1  0  0  0
  5 26  1  0  0  0
  5 94  1  0  0  0
  6 25  1  0  0  0
  6 95  1  0  0  0
  6 96  1  0  0  0
  7  8  2  0  0  0
  7 26  1  0  0  0
  7 29  1  0  0  0
  8  9  1  0  0  0
  8 22  1  0  0  0
  9 10  1  0  0  0
  9 27  2  0  0  0
 10 11  2  0  0  0
 10 15  1  0  0  0
 11 12  1  0  0  0
 11 97  1  0  0  0
 12 13  2  0  0  0
 12 98  1  0  0  0
 13 14  1  0  0  0
 13 31  1  0  0  0
 14 15  2  0  0  0
 14 99  1  0  0  0
 15100  1  0  0  0
 16 17  2  0  0  0
 16 21  1  0  0  0
 16 31  1  0  0  0
 17 18  1  0  0  0
 17101  1  0  0  0
 18 19  2  0  0  0
 18102  1  0  0  0
 19 20  1  0  0  0
 19 24  1  0  0  0
 20 21  2  0  0  0
 20103  1  0  0  0
 21 23  1  0  0  0
 22 28  1  0  0  0
 22 32  2  0  0  0
 26 27  1  0  0  0
 28104  1  0  0  0
 28105  1  0  0  0
 29106  1  0  0  0
 29107  1  0  0  0
 33 34  1  0  0  0
 33 66  1  0  0  0
 33 70  2  0  0  0
 34 36  1  0  0  0
 34 59  1  0  0  0
 34108  1  0  0  0
 35 44  2  0  0  0
 35 45  1  0  0  0
 35 68  1  0  0  0
 36 56  1  0  0  0
 36109  1  0  0  0
 37 39  1  0  0  0
 37 47  1  0  0  0
 37 66  1  0  0  0
 37110  1  0  0  0
 38 43  2  0  0  0
 38 46  1  0  0  0
 38 47  1  0  0  0
 39 64  1  0  0  0
 39 67  2  0  0  0
 40 52  1  0  0  0
 40 53  2  0  0  0
 40 58  1  0  0  0
 41111  1  0  0  0
 41112  1  0  0  0
 41113  1  0  0  0
 41 48  1  0  0  0
 42 43  1  0  0  0
 42 66  1  0  0  0
 42114  1  0  0  0
 42115  1  0  0  0
 43 44  1  0  0  0
 44116  1  0  0  0
 45 46  2  0  0  0
 45117  1  0  0  0
 46118  1  0  0  0
 47119  1  0  0  0
 47120  1  0  0  0
 48 56  1  0  0  0
 48 65  1  0  0  0
 48121  1  0  0  0
 49 50  1  0  0  0
 49 53  1  0  0  0
 49 64  1  0  0  0
 49122  1  0  0  0
 50 51  1  0  0  0
 50123  1  0  0  0
 50124  1  0  0  0
 51 52  1  0  0  0
 51125  1  0  0  0
 51126  1  0  0  0
 52127  1  0  0  0
 52128  1  0  0  0
 53 54  1  0  0  0
 54 55  2  0  0  0
 54129  1  0  0  0
 55 57  1  0  0  0
 55130  1  0  0  0
 56 69  2  0  0  0
 57 58  2  0  0  0
 57131  1  0  0  0
 58132  1  0  0  0
 59 60  1  0  0  0
 59 61  1  0  0  0
 59 62  1  0  0  0
 60133  1  0  0  0
 60134  1  0  0  0
 60135  1  0  0  0
 61136  1  0  0  0
 61137  1  0  0  0
 61138  1  0  0  0
 62139  1  0  0  0
 62140  1  0  0  0
 62141  1  0  0  0
 63 65  1  0  0  0
 63142  1  0  0  0
 63143  1  0  0  0
 63144  1  0  0  0
 64145  1  0  0  0
 65146  1  0  0  0
 68 85  1  0  0  0
 71 73  2  0  0  0
 71 76  1  0  0  0
 71147  1  0  0  0
 72 74  1  0  0  0
 72 76  2  0  0  0
 72148  1  0  0  0
 73 75  1  0  0  0
 73 77  1  0  0  0
 74 75  2  0  0  0
 74 82  1  0  0  0
 75 80  1  0  0  0
 76 86  1  0  0  0
 77 78  2  0  0  0
 77149  1  0  0  0
 78 83  1  0  0  0
 78150  1  0  0  0
 79 84  1  0  0  0
 79 85  1  0  0  0
 79 87  2  0  0  0
 80151  1  0  0  0
 80152  1  0  0  0
 80153  1  0  0  0
 81 82  1  0  0  0
 81154  1  0  0  0
 81155  1  0  0  0
 81156  1  0  0  0
 82157  1  0  0  0
 82158  1  0  0  0
 83 84  1  0  0  0
 83159  1  0  0  0
 83160  1  0  0  0
 84161  1  0  0  0
 84162  1  0  0  0
 85163  1  0  0  0
 85164  1  0  0  0
 86165  1  0  0  0
M  ISO  4   1 100  68 101  85 101  86 100
M  END
> <chiral flag>
0

> <version>
0

> <s_m_source_file>
/data/baiqing/PycharmProjects/Reinvent-master-3.2/result/LINK_invent/BTK/process_docking_weight1_custom_product_contain_oxygen_bond_distance_aromatic_linkinvent_7_9_3/rearranged_h_0120.sdf

> <i_m_source_file_index>
8

> <r_mmod_Potential_Energy-OPLS-2005>
4.88958930969238

> <r_mmod_Stretch_Energy-OPLS-2005>
41.1734886169434

> <r_mmod_Bend_Energy-OPLS-2005>
116.908653259277

> <r_mmod_Torsional_Energy-OPLS-2005>
243.667541503906

> <r_mmod_Improper_Torsional_Energy-OPLS-2005>
4.89737033843994

> <r_mmod_Van_der_Waal_Energy-OPLS-2005>
157.977203369141

> <r_mmod_Electrostatic_Energy-OPLS-2005>
-351.452484130859

> <r_mmod_Solvation_Energy-OPLS-2005>
-219.273284912109

> <b_mmod_Minimization_Converged-OPLS-2005>
0

> <r_mmod_RMS_Derivative-OPLS-2005>
2.26990699768066

$$$$
8
                    3D
 Structure written by MMmdl.
160168  0  0  1  0            999 V2000
  -30.7302  -14.4094   20.6256 C   0  0  0  0  0  0
  -30.4229  -12.2935   19.4054 C   0  0  0  0  0  0
  -29.4823  -12.5152   18.2019 C   0  0  0  0  0  0
  -28.0068  -12.3620   18.6167 C   0  0  0  0  0  0
  -27.6607  -13.1866   19.8826 C   0  0  2  0  0  0
  -28.7024  -12.9461   20.9993 C   0  0  0  0  0  0
  -25.2576  -13.8128   20.5697 C   0  0  0  0  0  0
  -24.1786  -13.0439   20.9179 C   0  0  0  0  0  0
  -24.6312  -11.6900   20.8741 C   0  0  0  0  0  0
  -23.8979  -10.4301   21.0428 C   0  0  0  0  0  0
  -24.3548   -9.4210   21.9203 C   0  0  0  0  0  0
  -23.6244   -8.2232   22.0748 C   0  0  0  0  0  0
  -22.4232   -8.0260   21.3533 C   0  0  0  0  0  0
  -21.9854   -9.0232   20.4638 C   0  0  0  0  0  0
  -22.7159  -10.2129   20.3065 C   0  0  0  0  0  0
  -21.6845   -6.0707   22.5272 C   0  0  0  0  0  0
  -21.4011   -6.5611   23.8208 C   0  0  0  0  0  0
  -21.3657   -5.6765   24.9171 C   0  0  0  0  0  0
  -21.6050   -4.3032   24.7232 C   0  0  0  0  0  0
  -21.8812   -3.8117   23.4358 C   0  0  0  0  0  0
  -21.9185   -4.6928   22.3410 C   0  0  0  0  0  0
  -22.7818  -13.5259   21.1863 C   0  0  0  0  0  0
  -22.1652   -4.2104   21.0995 F   0  0  0  0  0  0
  -21.5633   -3.4529   25.7758 F   0  0  0  0  0  0
  -30.0475  -13.2446   20.4613 N   0  0  0  0  0  0
  -26.2980  -12.9241   20.3406 N   0  0  0  0  0  0
  -25.9225  -11.6423   20.5764 N   0  0  0  0  0  0
  -22.0430  -12.8284   22.0420 N   0  0  0  0  0  0
  -25.4393  -15.1850   20.4132 N   0  0  0  0  0  0
  -31.7996  -14.6606   20.0610 O   0  0  0  0  0  0
  -21.6611   -6.8843   21.4233 O   0  0  0  0  0  0
  -22.3516  -14.5571   20.6702 O   0  0  0  0  0  0
  -24.6142  -31.8698   23.2109 C   0  0  0  0  0  0
  -25.9051  -32.4822   23.8380 C   0  0  1  0  0  0
  -27.2394  -27.4631   20.0778 C   0  0  0  0  0  0
  -25.5942  -33.8621   24.2339 N   0  0  0  0  0  0
  -23.3994  -30.4912   21.5521 C   0  0  2  0  0  0
  -24.8472  -28.9560   20.1149 C   0  0  0  0  0  0
  -22.7410  -29.4657   22.5028 C   0  0  0  0  0  0
  -18.0270  -28.1370   22.8503 C   0  0  0  0  0  0
  -24.1478  -36.7305   23.2633 C   0  0  0  0  0  0
  -25.9243  -30.8402   21.3595 C   0  0  0  0  0  0
  -26.0061  -29.4760   20.7067 C   0  0  0  0  0  0
  -27.2078  -28.7346   20.6882 C   0  0  0  0  0  0
  -26.0697  -26.9478   19.4842 C   0  0  0  0  0  0
  -24.8732  -27.6904   19.5019 C   0  0  0  0  0  0
  -23.6046  -29.8171   20.1684 C   0  0  0  0  0  0
  -25.4102  -36.3103   24.0339 C   0  0  1  0  0  0
  -20.5877  -28.3649   23.1333 C   0  0  2  0  0  0
  -20.6767  -26.9399   22.5427 C   0  0  0  0  0  0
  -19.5739  -26.6403   21.5215 C   0  0  0  0  0  0
  -18.1910  -26.7921   22.1623 C   0  0  0  0  0  0
  -19.1522  -28.8819   23.2917 C   0  0  0  0  0  0
  -18.9452  -30.1423   23.8939 C   0  0  0  0  0  0
  -17.6453  -30.6578   24.0585 C   0  0  0  0  0  0
  -25.9034  -34.9475   23.5120 C   0  0  0  0  0  0
  -16.5343  -29.9084   23.6337 C   0  0  0  0  0  0
  -16.7255  -28.6501   23.0367 C   0  0  0  0  0  0
  -26.4481  -31.6604   25.0712 C   0  0  0  0  0  0
  -25.3754  -31.3730   26.1474 C   0  0  0  0  0  0
  -27.0323  -30.3049   24.6081 C   0  0  0  0  0  0
  -27.6056  -32.4326   25.7482 C   0  0  0  0  0  0
  -27.5578  -37.1814   24.8466 C   0  0  0  0  0  0
  -21.4139  -29.3048   22.3776 N   0  0  0  0  0  0
  -26.4281  -37.3798   23.9425 N   0  0  0  0  0  0
  -24.6639  -31.0811   22.0998 N   0  0  0  0  0  0
  -23.4201  -28.8199   23.3040 O   0  0  0  0  0  0
  -28.3903  -26.7155   20.0612 O   0  0  0  0  0  0
  -26.5554  -34.8922   22.4653 O   0  0  0  0  0  0
  -23.5331  -32.1454   23.7517 O   0  0  0  0  0  0
  -29.6650  -18.8839   20.3993 C   0  0  0  0  0  0
  -30.6529  -17.3884   22.5531 C   0  0  0  0  0  0
  -30.0173  -19.5566   21.5893 C   0  0  0  0  0  0
  -29.7737  -17.4801   20.2820 C   0  0  0  0  0  0
  -30.5579  -18.7939   22.6587 C   0  0  0  0  0  0
  -30.2346  -16.7162   21.3876 C   0  0  0  0  0  0
  -29.6965  -20.9921   21.7834 C   0  0  0  0  0  0
  -28.8456  -21.7577   21.0703 C   0  0  0  0  0  0
  -29.3324  -16.8299   18.9816 C   0  0  0  0  0  0
  -30.9877  -19.4623   23.9564 C   0  0  0  0  0  0
  -28.4915  -23.1798   21.4822 C   0  0  0  0  0  0
  -28.6510  -24.2712   20.4079 C   0  0  0  0  0  0
  -28.3943  -25.6621   21.0256 C   0  0  0  0  0  0
  -30.1361  -15.2974   21.4338 N   0  0  0  0  0  0
  -31.4623  -12.4079   19.0927 H   0  0  0  0  0  0
  -30.3368  -11.2689   19.7746 H   0  0  0  0  0  0
  -29.7160  -11.8035   17.4091 H   0  0  0  0  0  0
  -29.6433  -13.5084   17.7787 H   0  0  0  0  0  0
  -27.8190  -11.3033   18.8024 H   0  0  0  0  0  0
  -27.3512  -12.6482   17.7935 H   0  0  0  0  0  0
  -27.7054  -14.2324   19.5963 H   0  0  0  0  0  0
  -28.6668  -11.9035   21.3221 H   0  0  0  0  0  0
  -28.4435  -13.5260   21.8863 H   0  0  0  0  0  0
  -25.2693   -9.5690   22.4782 H   0  0  0  0  0  0
  -23.9946   -7.4619   22.7466 H   0  0  0  0  0  0
  -21.0780   -8.8746   19.8955 H   0  0  0  0  0  0
  -22.3605  -10.9664   19.6173 H   0  0  0  0  0  0
  -21.2000   -7.6116   23.9698 H   0  0  0  0  0  0
  -21.1494   -6.0505   25.9074 H   0  0  0  0  0  0
  -22.0598   -2.7575   23.2881 H   0  0  0  0  0  0
  -22.3946  -11.9923   22.4845 H   0  0  0  0  0  0
  -21.1057  -13.1378   22.2606 H   0  0  0  0  0  0
  -24.6932  -15.8604   20.5389 H   0  0  0  0  0  0
  -26.3118  -15.6144   20.1333 H   0  0  0  0  0  0
  -26.7142  -32.5538   23.1163 H   0  0  0  0  0  0
  -25.0210  -33.9767   25.0556 H   0  0  0  0  0  0
  -22.6867  -31.3062   21.4129 H   0  0  0  0  0  0
  -23.3735  -35.9642   23.3300 H   0  0  0  0  0  0
  -24.3562  -36.8913   22.2045 H   0  0  0  0  0  0
  -23.7230  -37.6513   23.6622 H   0  0  0  0  0  0
  -26.0312  -31.6089   20.5923 H   0  0  0  0  0  0
  -26.8118  -30.8929   21.9782 H   0  0  0  0  0  0
  -28.1037  -29.1326   21.1439 H   0  0  0  0  0  0
  -26.0869  -25.9756   19.0097 H   0  0  0  0  0  0
  -23.9850  -27.2867   19.0369 H   0  0  0  0  0  0
  -23.6964  -30.5875   19.4025 H   0  0  0  0  0  0
  -22.7293  -29.2291   19.8840 H   0  0  0  0  0  0
  -25.1278  -36.1973   25.0832 H   0  0  0  0  0  0
  -20.9956  -28.3162   24.1450 H   0  0  0  0  0  0
  -20.5629  -26.2266   23.3605 H   0  0  0  0  0  0
  -21.6646  -26.7460   22.1217 H   0  0  0  0  0  0
  -19.6651  -27.3243   20.6766 H   0  0  0  0  0  0
  -19.6930  -25.6328   21.1216 H   0  0  0  0  0  0
  -17.4186  -26.6713   21.4011 H   0  0  0  0  0  0
  -18.0298  -26.0040   22.9002 H   0  0  0  0  0  0
  -19.7927  -30.7227   24.2327 H   0  0  0  0  0  0
  -17.5005  -31.6261   24.5175 H   0  0  0  0  0  0
  -15.5340  -30.3002   23.7648 H   0  0  0  0  0  0
  -15.8644  -28.0830   22.7089 H   0  0  0  0  0  0
  -24.5888  -30.7123   25.7827 H   0  0  0  0  0  0
  -24.8983  -32.2896   26.4950 H   0  0  0  0  0  0
  -25.8105  -30.8876   27.0224 H   0  0  0  0  0  0
  -26.2877  -29.6818   24.1119 H   0  0  0  0  0  0
  -27.4100  -29.7287   25.4546 H   0  0  0  0  0  0
  -27.8694  -30.4383   23.9224 H   0  0  0  0  0  0
  -27.2665  -33.3614   26.2085 H   0  0  0  0  0  0
  -28.3838  -32.6940   25.0298 H   0  0  0  0  0  0
  -28.0742  -31.8447   26.5385 H   0  0  0  0  0  0
  -28.2614  -38.0099   24.7510 H   0  0  0  0  0  0
  -28.1055  -36.2637   24.6280 H   0  0  0  0  0  0
  -27.2290  -37.1460   25.8866 H   0  0  0  0  0  0
  -20.9255  -29.8839   21.7100 H   0  0  0  0  0  0
  -26.0173  -38.2879   24.1423 H   0  0  0  0  0  0
  -29.2652  -19.4469   19.5703 H   0  0  0  0  0  0
  -31.0118  -16.8126   23.3949 H   0  0  0  0  0  0
  -30.1842  -21.4754   22.6148 H   0  0  0  0  0  0
  -28.3357  -21.3626   20.2021 H   0  0  0  0  0  0
  -28.4819  -16.1760   19.1546 H   0  0  0  0  0  0
  -30.1433  -16.2496   18.5429 H   0  0  0  0  0  0
  -29.0312  -17.5750   18.2452 H   0  0  0  0  0  0
  -31.3952  -18.7455   24.6696 H   0  0  0  0  0  0
  -30.1424  -19.9602   24.4321 H   0  0  0  0  0  0
  -31.7603  -20.2072   23.7638 H   0  0  0  0  0  0
  -29.0860  -23.4479   22.3576 H   0  0  0  0  0  0
  -27.4525  -23.1668   21.8162 H   0  0  0  0  0  0
  -29.6554  -24.2376   19.9838 H   0  0  0  0  0  0
  -27.9549  -24.0942   19.5854 H   0  0  0  0  0  0
  -29.1672  -25.8868   21.7614 H   0  0  0  0  0  0
  -27.4582  -25.6291   21.5875 H   0  0  0  0  0  0
  -29.3668  -14.9272   21.9722 H   0  0  0  0  0  0
  1 25  1  0  0  0
  1 30  2  0  0  0
  1 84  1  0  0  0
  2  3  1  0  0  0
  2 25  1  0  0  0
  2 85  1  0  0  0
  2 86  1  0  0  0
  3  4  1  0  0  0
  3 87  1  0  0  0
  3 88  1  0  0  0
  4  5  1  0  0  0
  4 89  1  0  0  0
  4 90  1  0  0  0
  5  6  1  0  0  0
  5 26  1  0  0  0
  5 91  1  0  0  0
  6 25  1  0  0  0
  6 92  1  0  0  0
  6 93  1  0  0  0
  7  8  2  0  0  0
  7 26  1  0  0  0
  7 29  1  0  0  0
  8  9  1  0  0  0
  8 22  1  0  0  0
  9 10  1  0  0  0
  9 27  2  0  0  0
 10 11  2  0  0  0
 10 15  1  0  0  0
 11 12  1  0  0  0
 11 94  1  0  0  0
 12 13  2  0  0  0
 12 95  1  0  0  0
 13 14  1  0  0  0
 13 31  1  0  0  0
 14 15  2  0  0  0
 14 96  1  0  0  0
 15 97  1  0  0  0
 16 17  2  0  0  0
 16 21  1  0  0  0
 16 31  1  0  0  0
 17 18  1  0  0  0
 17 98  1  0  0  0
 18 19  2  0  0  0
 18 99  1  0  0  0
 19 20  1  0  0  0
 19 24  1  0  0  0
 20 21  2  0  0  0
 20100  1  0  0  0
 21 23  1  0  0  0
 22 28  1  0  0  0
 22 32  2  0  0  0
 26 27  1  0  0  0
 28101  1  0  0  0
 28102  1  0  0  0
 29103  1  0  0  0
 29104  1  0  0  0
 33 34  1  0  0  0
 33 66  1  0  0  0
 33 70  2  0  0  0
 34 36  1  0  0  0
 34 59  1  0  0  0
 34105  1  0  0  0
 35 44  2  0  0  0
 35 45  1  0  0  0
 35 68  1  0  0  0
 36 56  1  0  0  0
 36106  1  0  0  0
 37 39  1  0  0  0
 37 47  1  0  0  0
 37 66  1  0  0  0
 37107  1  0  0  0
 38 43  2  0  0  0
 38 46  1  0  0  0
 38 47  1  0  0  0
 39 64  1  0  0  0
 39 67  2  0  0  0
 40 52  1  0  0  0
 40 53  2  0  0  0
 40 58  1  0  0  0
 41108  1  0  0  0
 41109  1  0  0  0
 41110  1  0  0  0
 41 48  1  0  0  0
 42 43  1  0  0  0
 42 66  1  0  0  0
 42111  1  0  0  0
 42112  1  0  0  0
 43 44  1  0  0  0
 44113  1  0  0  0
 45 46  2  0  0  0
 45114  1  0  0  0
 46115  1  0  0  0
 47116  1  0  0  0
 47117  1  0  0  0
 48 56  1  0  0  0
 48 65  1  0  0  0
 48118  1  0  0  0
 49 50  1  0  0  0
 49 53  1  0  0  0
 49 64  1  0  0  0
 49119  1  0  0  0
 50 51  1  0  0  0
 50120  1  0  0  0
 50121  1  0  0  0
 51 52  1  0  0  0
 51122  1  0  0  0
 51123  1  0  0  0
 52124  1  0  0  0
 52125  1  0  0  0
 53 54  1  0  0  0
 54 55  2  0  0  0
 54126  1  0  0  0
 55 57  1  0  0  0
 55127  1  0  0  0
 56 69  2  0  0  0
 57 58  2  0  0  0
 57128  1  0  0  0
 58129  1  0  0  0
 59 60  1  0  0  0
 59 61  1  0  0  0
 59 62  1  0  0  0
 60130  1  0  0  0
 60131  1  0  0  0
 60132  1  0  0  0
 61133  1  0  0  0
 61134  1  0  0  0
 61135  1  0  0  0
 62136  1  0  0  0
 62137  1  0  0  0
 62138  1  0  0  0
 63 65  1  0  0  0
 63139  1  0  0  0
 63140  1  0  0  0
 63141  1  0  0  0
 64142  1  0  0  0
 65143  1  0  0  0
 68 83  1  0  0  0
 71 73  2  0  0  0
 71 74  1  0  0  0
 71144  1  0  0  0
 72 75  2  0  0  0
 72 76  1  0  0  0
 72145  1  0  0  0
 73 75  1  0  0  0
 73 77  1  0  0  0
 74 76  2  0  0  0
 74 79  1  0  0  0
 75 80  1  0  0  0
 76 84  1  0  0  0
 77 78  2  0  0  0
 77146  1  0  0  0
 78 81  1  0  0  0
 78147  1  0  0  0
 79148  1  0  0  0
 79149  1  0  0  0
 79150  1  0  0  0
 80151  1  0  0  0
 80152  1  0  0  0
 80153  1  0  0  0
 81 82  1  0  0  0
 81154  1  0  0  0
 81155  1  0  0  0
 82 83  1  0  0  0
 82156  1  0  0  0
 82157  1  0  0  0
 83158  1  0  0  0
 83159  1  0  0  0
 84160  1  0  0  0
M  ISO  4   1 100  68 101  83 101  84 100
M  END
> <chiral flag>
0

> <version>
0

> <s_m_source_file>
/data/baiqing/PycharmProjects/Reinvent-master-3.2/result/LINK_invent/BTK/process_docking_weight1_custom_product_contain_oxygen_bond_distance_aromatic_linkinvent_7_9_3/rearranged_h_0120.sdf

> <i_m_source_file_index>
9

> <r_mmod_Potential_Energy-OPLS-2005>
-31.4617137908936

> <r_mmod_Stretch_Energy-OPLS-2005>
34.8010940551758

> <r_mmod_Bend_Energy-OPLS-2005>
91.8592071533203

> <r_mmod_Torsional_Energy-OPLS-2005>
265.274810791016

> <r_mmod_Improper_Torsional_Energy-OPLS-2005>
4.39815282821655

> <r_mmod_Van_der_Waal_Energy-OPLS-2005>
154.486938476562

> <r_mmod_Electrostatic_Energy-OPLS-2005>
-388.134887695312

> <r_mmod_Solvation_Energy-OPLS-2005>
-202.173431396484

> <b_mmod_Minimization_Converged-OPLS-2005>
0

> <r_mmod_RMS_Derivative-OPLS-2005>
3.13539671897888

$$$$
9
                    3D
 Structure written by MMmdl.
162170  0  0  1  0            999 V2000
  -30.7846  -14.3923   20.6735 C   0  0  0  0  0  0
  -30.4280  -12.3047   19.4049 C   0  0  0  0  0  0
  -29.4869  -12.5477   18.2094 C   0  0  0  0  0  0
  -28.0148  -12.3866   18.6264 C   0  0  0  0  0  0
  -27.6739  -13.2091   19.8930 C   0  0  2  0  0  0
  -28.7228  -12.9740   21.0080 C   0  0  0  0  0  0
  -25.2612  -13.8165   20.5706 C   0  0  0  0  0  0
  -24.1851  -13.0481   20.9161 C   0  0  0  0  0  0
  -24.6365  -11.6925   20.8726 C   0  0  0  0  0  0
  -23.9005  -10.4325   21.0396 C   0  0  0  0  0  0
  -24.3553   -9.4238   21.9167 C   0  0  0  0  0  0
  -23.6251   -8.2273   22.0723 C   0  0  0  0  0  0
  -22.4254   -8.0284   21.3514 C   0  0  0  0  0  0
  -21.9876   -9.0256   20.4644 C   0  0  0  0  0  0
  -22.7172  -10.2150   20.3058 C   0  0  0  0  0  0
  -21.6869   -6.0724   22.5280 C   0  0  0  0  0  0
  -21.4011   -6.5600   23.8224 C   0  0  0  0  0  0
  -21.3674   -5.6741   24.9167 C   0  0  0  0  0  0
  -21.6053   -4.3004   24.7215 C   0  0  0  0  0  0
  -21.8830   -3.8121   23.4323 C   0  0  0  0  0  0
  -21.9196   -4.6943   22.3393 C   0  0  0  0  0  0
  -22.7867  -13.5259   21.1836 C   0  0  0  0  0  0
  -22.1679   -4.2147   21.0970 F   0  0  0  0  0  0
  -21.5619   -3.4469   25.7708 F   0  0  0  0  0  0
  -30.0743  -13.2485   20.4726 N   0  0  0  0  0  0
  -26.3113  -12.9368   20.3514 N   0  0  0  0  0  0
  -25.9326  -11.6524   20.5844 N   0  0  0  0  0  0
  -22.0524  -12.8296   22.0438 N   0  0  0  0  0  0
  -25.4357  -15.1908   20.4121 N   0  0  0  0  0  0
  -31.7935  -14.6863   20.0248 O   0  0  0  0  0  0
  -21.6642   -6.8852   21.4234 O   0  0  0  0  0  0
  -22.3554  -14.5573   20.6667 O   0  0  0  0  0  0
  -24.6096  -31.8715   23.2078 C   0  0  0  0  0  0
  -25.9007  -32.4832   23.8402 C   0  0  1  0  0  0
  -27.2278  -27.4611   20.0708 C   0  0  0  0  0  0
  -25.5934  -33.8649   24.2345 N   0  0  0  0  0  0
  -23.3958  -30.4929   21.5479 C   0  0  2  0  0  0
  -24.8390  -28.9530   20.1235 C   0  0  0  0  0  0
  -22.7376  -29.4693   22.5007 C   0  0  0  0  0  0
  -18.0274  -28.1372   22.8547 C   0  0  0  0  0  0
  -24.1472  -36.7243   23.2624 C   0  0  0  0  0  0
  -25.9260  -30.8402   21.3579 C   0  0  0  0  0  0
  -26.0022  -29.4811   20.6976 C   0  0  0  0  0  0
  -27.2038  -28.7435   20.6581 C   0  0  0  0  0  0
  -26.0384  -26.9243   19.5345 C   0  0  0  0  0  0
  -24.8459  -27.6687   19.5552 C   0  0  0  0  0  0
  -23.5981  -29.8106   20.1692 C   0  0  0  0  0  0
  -25.4125  -36.3128   24.0313 C   0  0  1  0  0  0
  -20.5862  -28.3664   23.1350 C   0  0  2  0  0  0
  -20.6792  -26.9416   22.5440 C   0  0  0  0  0  0
  -19.5756  -26.6385   21.5263 C   0  0  0  0  0  0
  -18.1926  -26.7939   22.1646 C   0  0  0  0  0  0
  -19.1521  -28.8843   23.2943 C   0  0  0  0  0  0
  -18.9453  -30.1466   23.8925 C   0  0  0  0  0  0
  -17.6457  -30.6609   24.0553 C   0  0  0  0  0  0
  -25.9049  -34.9488   23.5107 C   0  0  0  0  0  0
  -16.5345  -29.9112   23.6323 C   0  0  0  0  0  0
  -16.7268  -28.6495   23.0417 C   0  0  0  0  0  0
  -26.4422  -31.6596   25.0706 C   0  0  0  0  0  0
  -25.3720  -31.3692   26.1467 C   0  0  0  0  0  0
  -27.0172  -30.3025   24.6032 C   0  0  0  0  0  0
  -27.5975  -32.4338   25.7500 C   0  0  0  0  0  0
  -27.5574  -37.1781   24.8471 C   0  0  0  0  0  0
  -21.4105  -29.3050   22.3753 N   0  0  0  0  0  0
  -26.4287  -37.3847   23.9408 N   0  0  0  0  0  0
  -24.6621  -31.0838   22.0950 N   0  0  0  0  0  0
  -23.4172  -28.8273   23.3055 O   0  0  0  0  0  0
  -28.4019  -26.7505   20.0252 O   0  0  0  0  0  0
  -26.5562  -34.8919   22.4637 O   0  0  0  0  0  0
  -23.5282  -32.1446   23.7475 O   0  0  0  0  0  0
  -30.0222  -18.5056   23.3037 C   0  0  0  0  0  0
  -30.5123  -17.4356   20.7603 C   0  0  0  0  0  0
  -30.1870  -17.1056   23.1661 C   0  0  0  0  0  0
  -30.3946  -16.5590   21.8682 C   0  0  0  0  0  0
  -30.0530  -19.3630   22.1858 C   0  0  0  0  0  0
  -30.3435  -18.8235   20.9185 C   0  0  0  0  0  0
  -30.4238  -16.6639   25.6277 C   0  0  0  0  0  0
  -30.1726  -16.2486   24.3735 C   0  0  0  0  0  0
  -28.5059  -23.0247   20.4797 C   0  0  0  0  0  0
  -27.5448  -22.0884   20.5463 C   0  0  0  0  0  0
  -28.4818  -24.2754   19.6270 C   0  0  0  0  0  0
  -27.4948  -20.9496   21.5621 C   0  0  0  0  0  0
  -28.3330  -25.4526   20.6077 C   0  0  0  0  0  0
  -28.5018  -21.0717   22.7337 C   0  0  0  0  0  0
  -30.3554  -15.1397   21.7007 N   0  0  0  0  0  0
  -29.8204  -20.7140   22.3099 O   0  0  0  0  0  0
  -30.3995  -19.6335   19.8321 F   0  0  0  0  0  0
  -31.4668  -12.4061   19.0863 H   0  0  0  0  0  0
  -30.3388  -11.2807   19.7695 H   0  0  0  0  0  0
  -29.7268  -11.8638   17.3952 H   0  0  0  0  0  0
  -29.6413  -13.5592   17.8282 H   0  0  0  0  0  0
  -27.8217  -11.3288   18.8049 H   0  0  0  0  0  0
  -27.3611  -12.6825   17.8046 H   0  0  0  0  0  0
  -27.7273  -14.2601   19.6051 H   0  0  0  0  0  0
  -28.6955  -11.9409   21.3531 H   0  0  0  0  0  0
  -28.4714  -13.5735   21.8817 H   0  0  0  0  0  0
  -25.2661   -9.5751   22.4778 H   0  0  0  0  0  0
  -23.9952   -7.4658   22.7449 H   0  0  0  0  0  0
  -21.0816   -8.8754   19.8937 H   0  0  0  0  0  0
  -22.3571  -10.9704   19.6211 H   0  0  0  0  0  0
  -21.2004   -7.6103   23.9743 H   0  0  0  0  0  0
  -21.1493   -6.0437   25.9087 H   0  0  0  0  0  0
  -22.0601   -2.7582   23.2811 H   0  0  0  0  0  0
  -22.4030  -11.9866   22.4747 H   0  0  0  0  0  0
  -21.1154  -13.1360   22.2687 H   0  0  0  0  0  0
  -24.6743  -15.8533   20.5104 H   0  0  0  0  0  0
  -26.2988  -15.6264   20.1152 H   0  0  0  0  0  0
  -26.7071  -32.5530   23.1170 H   0  0  0  0  0  0
  -25.0370  -33.9823   25.0694 H   0  0  0  0  0  0
  -22.6821  -31.3074   21.4020 H   0  0  0  0  0  0
  -23.3786  -35.9524   23.3356 H   0  0  0  0  0  0
  -24.3571  -36.8756   22.2019 H   0  0  0  0  0  0
  -23.7143  -37.6422   23.6601 H   0  0  0  0  0  0
  -26.0497  -31.6089   20.5930 H   0  0  0  0  0  0
  -26.8126  -30.8824   21.9808 H   0  0  0  0  0  0
  -28.1116  -29.1482   21.0816 H   0  0  0  0  0  0
  -26.0211  -25.9301   19.1139 H   0  0  0  0  0  0
  -23.9367  -27.2414   19.1564 H   0  0  0  0  0  0
  -23.7050  -30.5727   19.3987 H   0  0  0  0  0  0
  -22.7239  -29.2238   19.8752 H   0  0  0  0  0  0
  -25.1324  -36.1962   25.0797 H   0  0  0  0  0  0
  -20.9987  -28.3234   24.1455 H   0  0  0  0  0  0
  -20.5800  -26.2288   23.3640 H   0  0  0  0  0  0
  -21.6658  -26.7536   22.1178 H   0  0  0  0  0  0
  -19.6941  -25.6308   21.1291 H   0  0  0  0  0  0
  -19.6674  -27.3204   20.6796 H   0  0  0  0  0  0
  -17.4237  -26.6767   21.3995 H   0  0  0  0  0  0
  -18.0227  -26.0049   22.8981 H   0  0  0  0  0  0
  -19.7923  -30.7282   24.2308 H   0  0  0  0  0  0
  -17.5004  -31.6292   24.5157 H   0  0  0  0  0  0
  -15.5356  -30.3028   23.7642 H   0  0  0  0  0  0
  -15.8647  -28.0783   22.7216 H   0  0  0  0  0  0
  -24.5945  -30.6956   25.7830 H   0  0  0  0  0  0
  -24.8856  -32.2827   26.4872 H   0  0  0  0  0  0
  -25.8093  -30.8927   27.0246 H   0  0  0  0  0  0
  -26.2606  -29.6878   24.1103 H   0  0  0  0  0  0
  -27.3945  -29.7160   25.4425 H   0  0  0  0  0  0
  -27.8496  -30.4328   23.9122 H   0  0  0  0  0  0
  -27.2533  -33.3644   26.2045 H   0  0  0  0  0  0
  -28.3797  -32.6880   25.0341 H   0  0  0  0  0  0
  -28.0637  -31.8513   26.5449 H   0  0  0  0  0  0
  -28.2630  -38.0049   24.7567 H   0  0  0  0  0  0
  -28.1041  -36.2580   24.6311 H   0  0  0  0  0  0
  -27.2269  -37.1418   25.8869 H   0  0  0  0  0  0
  -20.9291  -29.8636   21.6846 H   0  0  0  0  0  0
  -26.0156  -38.2900   24.1477 H   0  0  0  0  0  0
  -29.8292  -18.9415   24.2721 H   0  0  0  0  0  0
  -30.6831  -17.0690   19.7602 H   0  0  0  0  0  0
  -30.3538  -15.9737   26.4597 H   0  0  0  0  0  0
  -30.7073  -17.6801   25.8593 H   0  0  0  0  0  0
  -29.9215  -15.2048   24.2463 H   0  0  0  0  0  0
  -29.3635  -22.9462   21.1283 H   0  0  0  0  0  0
  -26.7104  -22.1408   19.8610 H   0  0  0  0  0  0
  -27.6711  -24.2457   18.9001 H   0  0  0  0  0  0
  -29.4091  -24.3441   19.0575 H   0  0  0  0  0  0
  -27.6111  -19.9972   21.0490 H   0  0  0  0  0  0
  -26.4854  -20.9373   21.9774 H   0  0  0  0  0  0
  -29.1424  -25.3989   21.3360 H   0  0  0  0  0  0
  -27.4127  -25.3301   21.1843 H   0  0  0  0  0  0
  -28.1866  -20.4710   23.5861 H   0  0  0  0  0  0
  -28.5096  -22.0937   23.1200 H   0  0  0  0  0  0
  -29.7030  -14.6680   22.3037 H   0  0  0  0  0  0
  1 25  1  0  0  0
  1 30  2  0  0  0
  1 85  1  0  0  0
  2  3  1  0  0  0
  2 25  1  0  0  0
  2 88  1  0  0  0
  2 89  1  0  0  0
  3  4  1  0  0  0
  3 90  1  0  0  0
  3 91  1  0  0  0
  4  5  1  0  0  0
  4 92  1  0  0  0
  4 93  1  0  0  0
  5  6  1  0  0  0
  5 26  1  0  0  0
  5 94  1  0  0  0
  6 25  1  0  0  0
  6 95  1  0  0  0
  6 96  1  0  0  0
  7  8  2  0  0  0
  7 26  1  0  0  0
  7 29  1  0  0  0
  8  9  1  0  0  0
  8 22  1  0  0  0
  9 10  1  0  0  0
  9 27  2  0  0  0
 10 11  2  0  0  0
 10 15  1  0  0  0
 11 12  1  0  0  0
 11 97  1  0  0  0
 12 13  2  0  0  0
 12 98  1  0  0  0
 13 14  1  0  0  0
 13 31  1  0  0  0
 14 15  2  0  0  0
 14 99  1  0  0  0
 15100  1  0  0  0
 16 17  2  0  0  0
 16 21  1  0  0  0
 16 31  1  0  0  0
 17 18  1  0  0  0
 17101  1  0  0  0
 18 19  2  0  0  0
 18102  1  0  0  0
 19 20  1  0  0  0
 19 24  1  0  0  0
 20 21  2  0  0  0
 20103  1  0  0  0
 21 23  1  0  0  0
 22 28  1  0  0  0
 22 32  2  0  0  0
 26 27  1  0  0  0
 28104  1  0  0  0
 28105  1  0  0  0
 29106  1  0  0  0
 29107  1  0  0  0
 33 34  1  0  0  0
 33 66  1  0  0  0
 33 70  2  0  0  0
 34 36  1  0  0  0
 34 59  1  0  0  0
 34108  1  0  0  0
 35 44  2  0  0  0
 35 45  1  0  0  0
 35 68  1  0  0  0
 36 56  1  0  0  0
 36109  1  0  0  0
 37 39  1  0  0  0
 37 47  1  0  0  0
 37 66  1  0  0  0
 37110  1  0  0  0
 38 43  2  0  0  0
 38 46  1  0  0  0
 38 47  1  0  0  0
 39 64  1  0  0  0
 39 67  2  0  0  0
 40 52  1  0  0  0
 40 53  2  0  0  0
 40 58  1  0  0  0
 41111  1  0  0  0
 41112  1  0  0  0
 41113  1  0  0  0
 41 48  1  0  0  0
 42 43  1  0  0  0
 42 66  1  0  0  0
 42114  1  0  0  0
 42115  1  0  0  0
 43 44  1  0  0  0
 44116  1  0  0  0
 45 46  2  0  0  0
 45117  1  0  0  0
 46118  1  0  0  0
 47119  1  0  0  0
 47120  1  0  0  0
 48 56  1  0  0  0
 48 65  1  0  0  0
 48121  1  0  0  0
 49 50  1  0  0  0
 49 53  1  0  0  0
 49 64  1  0  0  0
 49122  1  0  0  0
 50 51  1  0  0  0
 50123  1  0  0  0
 50124  1  0  0  0
 51 52  1  0  0  0
 51125  1  0  0  0
 51126  1  0  0  0
 52127  1  0  0  0
 52128  1  0  0  0
 53 54  1  0  0  0
 54 55  2  0  0  0
 54129  1  0  0  0
 55 57  1  0  0  0
 55130  1  0  0  0
 56 69  2  0  0  0
 57 58  2  0  0  0
 57131  1  0  0  0
 58132  1  0  0  0
 59 60  1  0  0  0
 59 61  1  0  0  0
 59 62  1  0  0  0
 60133  1  0  0  0
 60134  1  0  0  0
 60135  1  0  0  0
 61136  1  0  0  0
 61137  1  0  0  0
 61138  1  0  0  0
 62139  1  0  0  0
 62140  1  0  0  0
 62141  1  0  0  0
 63 65  1  0  0  0
 63142  1  0  0  0
 63143  1  0  0  0
 63144  1  0  0  0
 64145  1  0  0  0
 65146  1  0  0  0
 68 83  1  0  0  0
 71 73  2  0  0  0
 71 75  1  0  0  0
 71147  1  0  0  0
 72 74  2  0  0  0
 72 76  1  0  0  0
 72148  1  0  0  0
 73 74  1  0  0  0
 73 78  1  0  0  0
 74 85  1  0  0  0
 75 76  2  0  0  0
 75 86  1  0  0  0
 76 87  1  0  0  0
 77 78  2  0  0  0
 77149  1  0  0  0
 77150  1  0  0  0
 78151  1  0  0  0
 79 80  2  0  0  0
 79 81  1  0  0  0
 79152  1  0  0  0
 80 82  1  0  0  0
 80153  1  0  0  0
 81 83  1  0  0  0
 81154  1  0  0  0
 81155  1  0  0  0
 82 84  1  0  0  0
 82156  1  0  0  0
 82157  1  0  0  0
 83158  1  0  0  0
 83159  1  0  0  0
 84 86  1  0  0  0
 84160  1  0  0  0
 84161  1  0  0  0
 85162  1  0  0  0
M  ISO  4   1 100  68 101  83 101  85 100
M  END
> <chiral flag>
0

> <version>
0

> <s_m_source_file>
/data/baiqing/PycharmProjects/Reinvent-master-3.2/result/LINK_invent/BTK/process_docking_weight1_custom_product_contain_oxygen_bond_distance_aromatic_linkinvent_7_9_3/rearranged_h_0120.sdf

> <i_m_source_file_index>
10

> <r_mmod_Potential_Energy-OPLS-2005>
7.34387731552124

> <r_mmod_Stretch_Energy-OPLS-2005>
36.1418304443359

> <r_mmod_Bend_Energy-OPLS-2005>
98.0057373046875

> <r_mmod_Torsional_Energy-OPLS-2005>
263.582336425781

> <r_mmod_Improper_Torsional_Energy-OPLS-2005>
4.45565223693848

> <r_mmod_Van_der_Waal_Energy-OPLS-2005>
162.088943481445

> <r_mmod_Electrostatic_Energy-OPLS-2005>
-359.279449462891

> <r_mmod_Solvation_Energy-OPLS-2005>
-206.543304443359

> <b_mmod_Minimization_Converged-OPLS-2005>
0

> <r_mmod_RMS_Derivative-OPLS-2005>
6.46697473526001

$$$$
10
                    3D
 Structure written by MMmdl.
158166  0  0  1  0            999 V2000
  -30.7603  -14.3922   20.7087 C   0  0  0  0  0  0
  -30.4238  -12.3221   19.3911 C   0  0  0  0  0  0
  -29.4829  -12.5431   18.1917 C   0  0  0  0  0  0
  -28.0092  -12.3839   18.6091 C   0  0  0  0  0  0
  -27.6680  -13.1992   19.8826 C   0  0  2  0  0  0
  -28.7058  -12.9251   20.9912 C   0  0  0  0  0  0
  -25.2624  -13.8147   20.5684 C   0  0  0  0  0  0
  -24.1853  -13.0439   20.9154 C   0  0  0  0  0  0
  -24.6394  -11.6902   20.8722 C   0  0  0  0  0  0
  -23.9056  -10.4288   21.0395 C   0  0  0  0  0  0
  -24.3610   -9.4207   21.9178 C   0  0  0  0  0  0
  -23.6283   -8.2245   22.0754 C   0  0  0  0  0  0
  -22.4266   -8.0282   21.3546 C   0  0  0  0  0  0
  -21.9902   -9.0252   20.4645 C   0  0  0  0  0  0
  -22.7229  -10.2129   20.3046 C   0  0  0  0  0  0
  -21.6855   -6.0732   22.5272 C   0  0  0  0  0  0
  -21.4014   -6.5639   23.8203 C   0  0  0  0  0  0
  -21.3651   -5.6793   24.9167 C   0  0  0  0  0  0
  -21.6043   -4.3055   24.7219 C   0  0  0  0  0  0
  -21.8822   -3.8146   23.4342 C   0  0  0  0  0  0
  -21.9194   -4.6960   22.3396 C   0  0  0  0  0  0
  -22.7874  -13.5247   21.1822 C   0  0  0  0  0  0
  -22.1664   -4.2148   21.0975 F   0  0  0  0  0  0
  -21.5624   -3.4537   25.7730 F   0  0  0  0  0  0
  -30.0453  -13.2534   20.4671 N   0  0  0  0  0  0
  -26.3056  -12.9303   20.3396 N   0  0  0  0  0  0
  -25.9320  -11.6468   20.5756 N   0  0  0  0  0  0
  -22.0520  -12.8236   22.0381 N   0  0  0  0  0  0
  -25.4389  -15.1860   20.4121 N   0  0  0  0  0  0
  -31.7404  -14.7257   20.0309 O   0  0  0  0  0  0
  -21.6637   -6.8873   21.4235 O   0  0  0  0  0  0
  -22.3558  -14.5560   20.6683 O   0  0  0  0  0  0
  -24.6142  -31.8679   23.2101 C   0  0  0  0  0  0
  -25.9034  -32.4824   23.8401 C   0  0  1  0  0  0
  -27.2360  -27.4501   20.0896 C   0  0  0  0  0  0
  -25.5895  -33.8622   24.2331 N   0  0  0  0  0  0
  -23.4013  -30.4918   21.5501 C   0  0  2  0  0  0
  -24.8501  -28.9597   20.1127 C   0  0  0  0  0  0
  -22.7409  -29.4663   22.4995 C   0  0  0  0  0  0
  -18.0268  -28.1372   22.8500 C   0  0  0  0  0  0
  -24.1479  -36.7304   23.2639 C   0  0  0  0  0  0
  -25.9300  -30.8387   21.3605 C   0  0  0  0  0  0
  -26.0103  -29.4751   20.7061 C   0  0  0  0  0  0
  -27.2104  -28.7275   20.6924 C   0  0  0  0  0  0
  -26.0621  -26.9455   19.4928 C   0  0  0  0  0  0
  -24.8695  -27.6925   19.5039 C   0  0  0  0  0  0
  -23.6092  -29.8222   20.1648 C   0  0  0  0  0  0
  -25.4096  -36.3110   24.0345 C   0  0  1  0  0  0
  -20.5862  -28.3656   23.1315 C   0  0  2  0  0  0
  -20.6752  -26.9393   22.5419 C   0  0  0  0  0  0
  -19.5737  -26.6383   21.5211 C   0  0  0  0  0  0
  -18.1913  -26.7928   22.1607 C   0  0  0  0  0  0
  -19.1521  -28.8830   23.2908 C   0  0  0  0  0  0
  -18.9449  -30.1438   23.8919 C   0  0  0  0  0  0
  -17.6451  -30.6584   24.0568 C   0  0  0  0  0  0
  -25.9032  -34.9479   23.5137 C   0  0  0  0  0  0
  -16.5342  -29.9085   23.6333 C   0  0  0  0  0  0
  -16.7254  -28.6495   23.0362 C   0  0  0  0  0  0
  -26.4462  -31.6601   25.0729 C   0  0  0  0  0  0
  -25.3740  -31.3716   26.1492 C   0  0  0  0  0  0
  -27.0272  -30.3041   24.6094 C   0  0  0  0  0  0
  -27.6062  -32.4301   25.7469 C   0  0  0  0  0  0
  -27.5582  -37.1798   24.8457 C   0  0  0  0  0  0
  -21.4141  -29.3027   22.3729 N   0  0  0  0  0  0
  -26.4277  -37.3804   23.9431 N   0  0  0  0  0  0
  -24.6667  -31.0798   22.0988 N   0  0  0  0  0  0
  -23.4186  -28.8213   23.3040 O   0  0  0  0  0  0
  -28.3665  -26.6665   20.1109 O   0  0  0  0  0  0
  -26.5597  -34.8930   22.4701 O   0  0  0  0  0  0
  -23.5336  -32.1417   23.7508 O   0  0  0  0  0  0
  -30.2486  -18.9001   21.0433 C   0  0  0  0  0  0
  -30.6185  -17.5333   21.0798 C   0  0  0  0  0  0
  -28.4406  -18.4233   22.5678 C   0  0  0  0  0  0
  -29.1667  -19.3671   21.8181 C   0  0  0  0  0  0
  -29.9185  -16.5801   21.8688 C   0  0  0  0  0  0
  -28.7890  -17.0560   22.6065 C   0  0  0  0  0  0
  -28.7418  -20.7824   21.9192 C   0  0  0  0  0  0
  -29.1662  -21.8746   21.2405 C   0  0  0  0  0  0
  -28.8355  -24.3508   20.6494 C   0  0  0  0  0  0
  -28.2542  -25.5456   20.9002 C   0  0  0  0  0  0
  -30.4193  -15.1601   21.9901 C   0  0  0  0  0  0
  -28.6024  -23.2113   21.5714 C   0  0  0  0  0  0
  -28.1905  -16.3366   24.9757 C   0  0  0  0  0  0
  -27.8970  -16.1725   23.4779 C   0  0  0  0  0  0
  -30.5622  -14.6115   23.1261 N   0  0  0  0  0  0
  -27.9453  -23.3751   22.6063 O   0  0  0  0  0  0
  -31.4631  -12.4455   19.0813 H   0  0  0  0  0  0
  -30.3456  -11.2947   19.7505 H   0  0  0  0  0  0
  -29.7215  -11.8409   17.3918 H   0  0  0  0  0  0
  -29.6412  -13.5418   17.7819 H   0  0  0  0  0  0
  -27.8228  -11.3239   18.7868 H   0  0  0  0  0  0
  -27.3515  -12.6734   17.7888 H   0  0  0  0  0  0
  -27.7302  -14.2555   19.6192 H   0  0  0  0  0  0
  -28.6806  -11.8725   21.2775 H   0  0  0  0  0  0
  -28.4327  -13.4636   21.8926 H   0  0  0  0  0  0
  -25.2760   -9.5680   22.4748 H   0  0  0  0  0  0
  -23.9984   -7.4639   22.7481 H   0  0  0  0  0  0
  -21.0828   -8.8773   19.8954 H   0  0  0  0  0  0
  -22.3692  -10.9668   19.6147 H   0  0  0  0  0  0
  -21.2009   -7.6149   23.9705 H   0  0  0  0  0  0
  -21.1466   -6.0524   25.9067 H   0  0  0  0  0  0
  -22.0610   -2.7610   23.2841 H   0  0  0  0  0  0
  -22.4128  -11.9873   22.4725 H   0  0  0  0  0  0
  -21.1152  -13.1270   22.2619 H   0  0  0  0  0  0
  -24.6790  -15.8479   20.5227 H   0  0  0  0  0  0
  -26.3032  -15.6243   20.1193 H   0  0  0  0  0  0
  -26.7118  -32.5533   23.1180 H   0  0  0  0  0  0
  -25.0081  -33.9792   25.0502 H   0  0  0  0  0  0
  -22.6898  -31.3085   21.4102 H   0  0  0  0  0  0
  -23.3764  -35.9613   23.3262 H   0  0  0  0  0  0
  -24.3594  -36.8952   22.2064 H   0  0  0  0  0  0
  -23.7188  -37.6481   23.6672 H   0  0  0  0  0  0
  -26.0408  -31.6064   20.5937 H   0  0  0  0  0  0
  -26.8184  -30.8922   21.9782 H   0  0  0  0  0  0
  -28.1061  -29.1156   21.1565 H   0  0  0  0  0  0
  -26.0707  -25.9672   19.0330 H   0  0  0  0  0  0
  -23.9768  -27.2868   19.0481 H   0  0  0  0  0  0
  -23.7128  -30.5949   19.4022 H   0  0  0  0  0  0
  -22.7361  -29.2367   19.8709 H   0  0  0  0  0  0
  -25.1274  -36.1974   25.0839 H   0  0  0  0  0  0
  -20.9951  -28.3210   24.1437 H   0  0  0  0  0  0
  -20.5624  -26.2272   23.3607 H   0  0  0  0  0  0
  -21.6625  -26.7421   22.1218 H   0  0  0  0  0  0
  -19.6886  -25.6295   21.1231 H   0  0  0  0  0  0
  -19.6684  -27.3203   20.6749 H   0  0  0  0  0  0
  -17.4192  -26.6706   21.4000 H   0  0  0  0  0  0
  -18.0290  -26.0050   22.8973 H   0  0  0  0  0  0
  -19.7929  -30.7250   24.2290 H   0  0  0  0  0  0
  -17.5011  -31.6270   24.5158 H   0  0  0  0  0  0
  -15.5343  -30.2995   23.7659 H   0  0  0  0  0  0
  -15.8647  -28.0817   22.7087 H   0  0  0  0  0  0
  -24.5905  -30.7063   25.7840 H   0  0  0  0  0  0
  -24.8942  -32.2873   26.4959 H   0  0  0  0  0  0
  -25.8103  -30.8876   27.0240 H   0  0  0  0  0  0
  -26.2797  -29.6811   24.1166 H   0  0  0  0  0  0
  -27.4057  -29.7277   25.4546 H   0  0  0  0  0  0
  -27.8634  -30.4354   23.9223 H   0  0  0  0  0  0
  -27.2727  -33.3634   26.2019 H   0  0  0  0  0  0
  -28.3886  -32.6788   25.0286 H   0  0  0  0  0  0
  -28.0703  -31.8419   26.5400 H   0  0  0  0  0  0
  -28.2581  -38.0119   24.7553 H   0  0  0  0  0  0
  -28.1101  -36.2656   24.6209 H   0  0  0  0  0  0
  -27.2321  -37.1352   25.8865 H   0  0  0  0  0  0
  -20.9298  -29.8769   21.6967 H   0  0  0  0  0  0
  -26.0162  -38.2875   24.1475 H   0  0  0  0  0  0
  -30.8281  -19.5894   20.4457 H   0  0  0  0  0  0
  -31.4887  -17.2308   20.5147 H   0  0  0  0  0  0
  -27.5971  -18.7579   23.1568 H   0  0  0  0  0  0
  -27.9818  -20.9427   22.6726 H   0  0  0  0  0  0
  -29.9136  -21.8069   20.4641 H   0  0  0  0  0  0
  -29.4608  -24.2017   19.7822 H   0  0  0  0  0  0
  -27.6236  -25.7222   21.7638 H   0  0  0  0  0  0
  -27.5349  -15.6996   25.5700 H   0  0  0  0  0  0
  -28.0312  -17.3646   25.3027 H   0  0  0  0  0  0
  -29.2176  -16.0666   25.2179 H   0  0  0  0  0  0
  -27.9562  -15.1255   23.1997 H   0  0  0  0  0  0
  -26.8572  -16.4445   23.2883 H   0  0  0  0  0  0
  -30.2941  -15.2535   23.8611 H   0  0  0  0  0  0
  1 25  1  0  0  0
  1 30  2  0  0  0
  1 81  1  0  0  0
  2  3  1  0  0  0
  2 25  1  0  0  0
  2 87  1  0  0  0
  2 88  1  0  0  0
  3  4  1  0  0  0
  3 89  1  0  0  0
  3 90  1  0  0  0
  4  5  1  0  0  0
  4 91  1  0  0  0
  4 92  1  0  0  0
  5  6  1  0  0  0
  5 26  1  0  0  0
  5 93  1  0  0  0
  6 25  1  0  0  0
  6 94  1  0  0  0
  6 95  1  0  0  0
  7  8  2  0  0  0
  7 26  1  0  0  0
  7 29  1  0  0  0
  8  9  1  0  0  0
  8 22  1  0  0  0
  9 10  1  0  0  0
  9 27  2  0  0  0
 10 11  2  0  0  0
 10 15  1  0  0  0
 11 12  1  0  0  0
 11 96  1  0  0  0
 12 13  2  0  0  0
 12 97  1  0  0  0
 13 14  1  0  0  0
 13 31  1  0  0  0
 14 15  2  0  0  0
 14 98  1  0  0  0
 15 99  1  0  0  0
 16 17  2  0  0  0
 16 21  1  0  0  0
 16 31  1  0  0  0
 17 18  1  0  0  0
 17100  1  0  0  0
 18 19  2  0  0  0
 18101  1  0  0  0
 19 20  1  0  0  0
 19 24  1  0  0  0
 20 21  2  0  0  0
 20102  1  0  0  0
 21 23  1  0  0  0
 22 28  1  0  0  0
 22 32  2  0  0  0
 26 27  1  0  0  0
 28103  1  0  0  0
 28104  1  0  0  0
 29105  1  0  0  0
 29106  1  0  0  0
 33 34  1  0  0  0
 33 66  1  0  0  0
 33 70  2  0  0  0
 34 36  1  0  0  0
 34 59  1  0  0  0
 34107  1  0  0  0
 35 44  2  0  0  0
 35 45  1  0  0  0
 35 68  1  0  0  0
 36 56  1  0  0  0
 36108  1  0  0  0
 37 39  1  0  0  0
 37 47  1  0  0  0
 37 66  1  0  0  0
 37109  1  0  0  0
 38 43  2  0  0  0
 38 46  1  0  0  0
 38 47  1  0  0  0
 39 64  1  0  0  0
 39 67  2  0  0  0
 40 52  1  0  0  0
 40 53  2  0  0  0
 40 58  1  0  0  0
 41110  1  0  0  0
 41111  1  0  0  0
 41112  1  0  0  0
 41 48  1  0  0  0
 42 43  1  0  0  0
 42 66  1  0  0  0
 42113  1  0  0  0
 42114  1  0  0  0
 43 44  1  0  0  0
 44115  1  0  0  0
 45 46  2  0  0  0
 45116  1  0  0  0
 46117  1  0  0  0
 47118  1  0  0  0
 47119  1  0  0  0
 48 56  1  0  0  0
 48 65  1  0  0  0
 48120  1  0  0  0
 49 50  1  0  0  0
 49 53  1  0  0  0
 49 64  1  0  0  0
 49121  1  0  0  0
 50 51  1  0  0  0
 50122  1  0  0  0
 50123  1  0  0  0
 51 52  1  0  0  0
 51124  1  0  0  0
 51125  1  0  0  0
 52126  1  0  0  0
 52127  1  0  0  0
 53 54  1  0  0  0
 54 55  2  0  0  0
 54128  1  0  0  0
 55 57  1  0  0  0
 55129  1  0  0  0
 56 69  2  0  0  0
 57 58  2  0  0  0
 57130  1  0  0  0
 58131  1  0  0  0
 59 60  1  0  0  0
 59 61  1  0  0  0
 59 62  1  0  0  0
 60132  1  0  0  0
 60133  1  0  0  0
 60134  1  0  0  0
 61135  1  0  0  0
 61136  1  0  0  0
 61137  1  0  0  0
 62138  1  0  0  0
 62139  1  0  0  0
 62140  1  0  0  0
 63 65  1  0  0  0
 63141  1  0  0  0
 63142  1  0  0  0
 63143  1  0  0  0
 64144  1  0  0  0
 65145  1  0  0  0
 68 80  1  0  0  0
 71 72  2  0  0  0
 71 74  1  0  0  0
 71146  1  0  0  0
 72 75  1  0  0  0
 72147  1  0  0  0
 73 74  2  0  0  0
 73 76  1  0  0  0
 73148  1  0  0  0
 74 77  1  0  0  0
 75 76  2  0  0  0
 75 81  1  0  0  0
 76 84  1  0  0  0
 77 78  2  0  0  0
 77149  1  0  0  0
 78 82  1  0  0  0
 78150  1  0  0  0
 79 80  2  0  0  0
 79 82  1  0  0  0
 79151  1  0  0  0
 80152  1  0  0  0
 81 85  2  0  0  0
 82 86  2  0  0  0
 83 84  1  0  0  0
 83153  1  0  0  0
 83154  1  0  0  0
 83155  1  0  0  0
 84156  1  0  0  0
 84157  1  0  0  0
 85158  1  0  0  0
M  ISO  4   1 100  68 101  80 101  81 100
M  END
> <chiral flag>
0

> <version>
0

> <s_m_source_file>
/data/baiqing/PycharmProjects/Reinvent-master-3.2/result/LINK_invent/BTK/process_docking_weight1_custom_product_contain_oxygen_bond_distance_aromatic_linkinvent_7_9_3/rearranged_h_0120.sdf

> <i_m_source_file_index>
11

> <r_mmod_Potential_Energy-OPLS-2005>
115.042602539062

> <r_mmod_Stretch_Energy-OPLS-2005>
43.2167510986328

> <r_mmod_Bend_Energy-OPLS-2005>
105.229164123535

> <r_mmod_Torsional_Energy-OPLS-2005>
227.641036987305

> <r_mmod_Improper_Torsional_Energy-OPLS-2005>
3.68061494827271

> <r_mmod_Van_der_Waal_Energy-OPLS-2005>
159.571273803711

> <r_mmod_Electrostatic_Energy-OPLS-2005>
-236.802352905273

> <r_mmod_Solvation_Energy-OPLS-2005>
-197.397796630859

> <b_mmod_Minimization_Converged-OPLS-2005>
0

> <r_mmod_RMS_Derivative-OPLS-2005>
1.18399775028229

$$$$
11
                    3D
 Structure written by MMmdl.
155163  0  0  1  0            999 V2000
  -30.6899  -14.5801   20.4820 C   0  0  0  0  0  0
  -30.4201  -12.3477   19.4590 C   0  0  0  0  0  0
  -29.5032  -12.4894   18.2246 C   0  0  0  0  0  0
  -28.0239  -12.3418   18.6308 C   0  0  0  0  0  0
  -27.6503  -13.2192   19.8552 C   0  0  2  0  0  0
  -28.6933  -13.0896   20.9873 C   0  0  0  0  0  0
  -25.2559  -13.8184   20.5682 C   0  0  0  0  0  0
  -24.1829  -13.0447   20.9192 C   0  0  0  0  0  0
  -24.6399  -11.6919   20.8735 C   0  0  0  0  0  0
  -23.9065  -10.4304   21.0401 C   0  0  0  0  0  0
  -24.3621   -9.4223   21.9180 C   0  0  0  0  0  0
  -23.6302   -8.2256   22.0753 C   0  0  0  0  0  0
  -22.4280   -8.0292   21.3547 C   0  0  0  0  0  0
  -21.9911   -9.0262   20.4644 C   0  0  0  0  0  0
  -22.7235  -10.2146   20.3052 C   0  0  0  0  0  0
  -21.6858   -6.0747   22.5282 C   0  0  0  0  0  0
  -21.4016   -6.5648   23.8216 C   0  0  0  0  0  0
  -21.3657   -5.6798   24.9176 C   0  0  0  0  0  0
  -21.6042   -4.3060   24.7223 C   0  0  0  0  0  0
  -21.8820   -3.8156   23.4342 C   0  0  0  0  0  0
  -21.9196   -4.6976   22.3402 C   0  0  0  0  0  0
  -22.7852  -13.5243   21.1860 C   0  0  0  0  0  0
  -22.1666   -4.2163   21.0978 F   0  0  0  0  0  0
  -21.5627   -3.4539   25.7733 F   0  0  0  0  0  0
  -30.0182  -13.3881   20.4263 N   0  0  0  0  0  0
  -26.2979  -12.9369   20.3289 N   0  0  0  0  0  0
  -25.9325  -11.6522   20.5743 N   0  0  0  0  0  0
  -22.0496  -12.8228   22.0415 N   0  0  0  0  0  0
  -25.4275  -15.1902   20.4100 N   0  0  0  0  0  0
  -31.8762  -14.6390   20.1499 O   0  0  0  0  0  0
  -21.6644   -6.8888   21.4243 O   0  0  0  0  0  0
  -22.3532  -14.5551   20.6716 O   0  0  0  0  0  0
  -24.6235  -31.8653   23.2095 C   0  0  0  0  0  0
  -25.9100  -32.4807   23.8404 C   0  0  1  0  0  0
  -27.2102  -27.3546   20.0984 C   0  0  0  0  0  0
  -25.5937  -33.8610   24.2322 N   0  0  0  0  0  0
  -23.4135  -30.4959   21.5522 C   0  0  2  0  0  0
  -24.8551  -28.9671   20.1094 C   0  0  0  0  0  0
  -22.7465  -29.4672   22.4953 C   0  0  0  0  0  0
  -18.0309  -28.1369   22.8484 C   0  0  0  0  0  0
  -24.1488  -36.7307   23.2638 C   0  0  0  0  0  0
  -25.9554  -30.8053   21.3792 C   0  0  0  0  0  0
  -26.0261  -29.4394   20.7156 C   0  0  0  0  0  0
  -27.2074  -28.6432   20.7073 C   0  0  0  0  0  0
  -26.0160  -26.9457   19.4515 C   0  0  0  0  0  0
  -24.8499  -27.7225   19.4710 C   0  0  0  0  0  0
  -23.6237  -29.8430   20.1634 C   0  0  0  0  0  0
  -25.4110  -36.3100   24.0333 C   0  0  1  0  0  0
  -20.5901  -28.3691   23.1288 C   0  0  2  0  0  0
  -20.6806  -26.9426   22.5397 C   0  0  0  0  0  0
  -19.5784  -26.6403   21.5199 C   0  0  0  0  0  0
  -18.1969  -26.7913   22.1622 C   0  0  0  0  0  0
  -19.1552  -28.8845   23.2882 C   0  0  0  0  0  0
  -18.9467  -30.1446   23.8898 C   0  0  0  0  0  0
  -17.6465  -30.6571   24.0559 C   0  0  0  0  0  0
  -25.9046  -34.9468   23.5120 C   0  0  0  0  0  0
  -16.5367  -29.9063   23.6317 C   0  0  0  0  0  0
  -16.7295  -28.6480   23.0344 C   0  0  0  0  0  0
  -26.4494  -31.6597   25.0756 C   0  0  0  0  0  0
  -25.3738  -31.3721   26.1487 C   0  0  0  0  0  0
  -27.0330  -30.3024   24.6188 C   0  0  0  0  0  0
  -27.6060  -32.4326   25.7523 C   0  0  0  0  0  0
  -27.5578  -37.1813   24.8467 C   0  0  0  0  0  0
  -21.4181  -29.3067   22.3699 N   0  0  0  0  0  0
  -26.4294  -37.3786   23.9403 N   0  0  0  0  0  0
  -24.6828  -31.0705   22.1037 N   0  0  0  0  0  0
  -23.4211  -28.8193   23.2999 O   0  0  0  0  0  0
  -28.3142  -26.4920   20.1630 O   0  0  0  0  0  0
  -26.5607  -34.8926   22.4684 O   0  0  0  0  0  0
  -23.5405  -32.1443   23.7438 O   0  0  0  0  0  0
  -30.6936  -19.5778   20.6673 C   0  0  0  0  0  0
  -30.1642  -20.8961   20.5989 C   0  0  0  0  0  0
  -28.4764  -18.6487   20.5256 C   0  0  0  0  0  0
  -29.8675  -18.4241   20.6114 C   0  0  0  0  0  0
  -28.7737  -21.1155   20.4670 C   0  0  0  0  0  0
  -27.9361  -19.9604   20.4409 C   0  0  0  0  0  0
  -30.4793  -17.0502   20.5919 C   0  0  0  0  0  0
  -29.8957  -15.8167   20.6901 C   0  0  0  0  0  0
  -26.4280  -20.0976   20.2921 C   0  0  0  0  0  0
  -28.1345  -22.5278   20.3116 C   0  0  0  0  0  0
  -28.9407  -23.8804   20.3945 C   0  0  0  0  0  0
  -27.9946  -25.0690   19.9832 C   0  0  0  0  0  0
  -31.4672  -12.4266   19.1628 H   0  0  0  0  0  0
  -30.3143  -11.3575   19.9053 H   0  0  0  0  0  0
  -29.7601  -11.7389   17.4756 H   0  0  0  0  0  0
  -29.6628  -13.4607   17.7534 H   0  0  0  0  0  0
  -27.8517  -11.2898   18.8630 H   0  0  0  0  0  0
  -27.3741  -12.5750   17.7863 H   0  0  0  0  0  0
  -27.6644  -14.2505   19.5036 H   0  0  0  0  0  0
  -28.6851  -12.0795   21.3992 H   0  0  0  0  0  0
  -28.4533  -13.7509   21.8207 H   0  0  0  0  0  0
  -25.2768   -9.5708   22.4747 H   0  0  0  0  0  0
  -24.0022   -7.4647   22.7466 H   0  0  0  0  0  0
  -21.0847   -8.8774   19.8944 H   0  0  0  0  0  0
  -22.3690  -10.9685   19.6160 H   0  0  0  0  0  0
  -21.2006   -7.6153   23.9725 H   0  0  0  0  0  0
  -21.1473   -6.0523   25.9079 H   0  0  0  0  0  0
  -22.0598   -2.7618   23.2835 H   0  0  0  0  0  0
  -22.4117  -11.9890   22.4798 H   0  0  0  0  0  0
  -21.1110  -13.1244   22.2621 H   0  0  0  0  0  0
  -24.6616  -15.8460   20.5193 H   0  0  0  0  0  0
  -26.2798  -15.6263   20.0839 H   0  0  0  0  0  0
  -26.7172  -32.5479   23.1158 H   0  0  0  0  0  0
  -25.0086  -33.9769   25.0466 H   0  0  0  0  0  0
  -22.7047  -31.3155   21.4172 H   0  0  0  0  0  0
  -23.3745  -35.9647   23.3314 H   0  0  0  0  0  0
  -24.3579  -36.8910   22.2050 H   0  0  0  0  0  0
  -23.7246  -37.6520   23.6644 H   0  0  0  0  0  0
  -26.0873  -31.5722   20.6148 H   0  0  0  0  0  0
  -26.8368  -30.8464   22.0076 H   0  0  0  0  0  0
  -28.1019  -28.9966   21.2002 H   0  0  0  0  0  0
  -25.9332  -26.0064   18.9271 H   0  0  0  0  0  0
  -23.9550  -27.3570   18.9865 H   0  0  0  0  0  0
  -23.7413  -30.6251   19.4125 H   0  0  0  0  0  0
  -22.7429  -29.2743   19.8590 H   0  0  0  0  0  0
  -25.1285  -36.1966   25.0825 H   0  0  0  0  0  0
  -20.9994  -28.3254   24.1411 H   0  0  0  0  0  0
  -20.5724  -26.2303   23.3589 H   0  0  0  0  0  0
  -21.6676  -26.7475   22.1189 H   0  0  0  0  0  0
  -19.6970  -25.6327   21.1204 H   0  0  0  0  0  0
  -19.6705  -27.3240   20.6749 H   0  0  0  0  0  0
  -17.4234  -26.6640   21.4030 H   0  0  0  0  0  0
  -18.0405  -26.0047   22.9018 H   0  0  0  0  0  0
  -19.7937  -30.7266   24.2274 H   0  0  0  0  0  0
  -17.5012  -31.6249   24.5161 H   0  0  0  0  0  0
  -15.5366  -30.2964   23.7629 H   0  0  0  0  0  0
  -15.8700  -28.0801   22.7057 H   0  0  0  0  0  0
  -24.5913  -30.7068   25.7821 H   0  0  0  0  0  0
  -24.8934  -32.2883   26.4929 H   0  0  0  0  0  0
  -25.8077  -30.8891   27.0251 H   0  0  0  0  0  0
  -26.2900  -29.6787   24.1205 H   0  0  0  0  0  0
  -27.4029  -29.7260   25.4678 H   0  0  0  0  0  0
  -27.8772  -30.4319   23.9410 H   0  0  0  0  0  0
  -27.2671  -33.3617   26.2119 H   0  0  0  0  0  0
  -28.3863  -32.6901   25.0350 H   0  0  0  0  0  0
  -28.0740  -31.8443   26.5427 H   0  0  0  0  0  0
  -28.2607  -38.0100   24.7500 H   0  0  0  0  0  0
  -28.1063  -36.2631   24.6307 H   0  0  0  0  0  0
  -27.2300  -37.1485   25.8873 H   0  0  0  0  0  0
  -20.9340  -29.8813   21.6943 H   0  0  0  0  0  0
  -26.0181  -38.2866   24.1389 H   0  0  0  0  0  0
  -31.7653  -19.4566   20.7415 H   0  0  0  0  0  0
  -30.8427  -21.7374   20.6255 H   0  0  0  0  0  0
  -27.8100  -17.7989   20.4800 H   0  0  0  0  0  0
  -31.5482  -17.0720   20.4280 H   0  0  0  0  0  0
  -28.8363  -15.7575   20.8768 H   0  0  0  0  0  0
  -25.9405  -19.1239   20.2333 H   0  0  0  0  0  0
  -26.1749  -20.6406   19.3815 H   0  0  0  0  0  0
  -26.0005  -20.6266   21.1435 H   0  0  0  0  0  0
  -27.3384  -22.5897   21.0544 H   0  0  0  0  0  0
  -27.6300  -22.5149   19.3446 H   0  0  0  0  0  0
  -29.8031  -23.8523   19.7283 H   0  0  0  0  0  0
  -29.3198  -24.0253   21.4063 H   0  0  0  0  0  0
  -27.0693  -24.8787   20.5310 H   0  0  0  0  0  0
  -27.7740  -24.9214   18.9248 H   0  0  0  0  0  0
  1 25  1  0  0  0
  1 30  2  0  0  0
  1 78  1  0  0  0
  2  3  1  0  0  0
  2 25  1  0  0  0
  2 83  1  0  0  0
  2 84  1  0  0  0
  3  4  1  0  0  0
  3 85  1  0  0  0
  3 86  1  0  0  0
  4  5  1  0  0  0
  4 87  1  0  0  0
  4 88  1  0  0  0
  5  6  1  0  0  0
  5 26  1  0  0  0
  5 89  1  0  0  0
  6 25  1  0  0  0
  6 90  1  0  0  0
  6 91  1  0  0  0
  7  8  2  0  0  0
  7 26  1  0  0  0
  7 29  1  0  0  0
  8  9  1  0  0  0
  8 22  1  0  0  0
  9 10  1  0  0  0
  9 27  2  0  0  0
 10 11  2  0  0  0
 10 15  1  0  0  0
 11 12  1  0  0  0
 11 92  1  0  0  0
 12 13  2  0  0  0
 12 93  1  0  0  0
 13 14  1  0  0  0
 13 31  1  0  0  0
 14 15  2  0  0  0
 14 94  1  0  0  0
 15 95  1  0  0  0
 16 17  2  0  0  0
 16 21  1  0  0  0
 16 31  1  0  0  0
 17 18  1  0  0  0
 17 96  1  0  0  0
 18 19  2  0  0  0
 18 97  1  0  0  0
 19 20  1  0  0  0
 19 24  1  0  0  0
 20 21  2  0  0  0
 20 98  1  0  0  0
 21 23  1  0  0  0
 22 28  1  0  0  0
 22 32  2  0  0  0
 26 27  1  0  0  0
 28 99  1  0  0  0
 28100  1  0  0  0
 29101  1  0  0  0
 29102  1  0  0  0
 33 34  1  0  0  0
 33 66  1  0  0  0
 33 70  2  0  0  0
 34 36  1  0  0  0
 34 59  1  0  0  0
 34103  1  0  0  0
 35 44  2  0  0  0
 35 45  1  0  0  0
 35 68  1  0  0  0
 36 56  1  0  0  0
 36104  1  0  0  0
 37 39  1  0  0  0
 37 47  1  0  0  0
 37 66  1  0  0  0
 37105  1  0  0  0
 38 43  2  0  0  0
 38 46  1  0  0  0
 38 47  1  0  0  0
 39 64  1  0  0  0
 39 67  2  0  0  0
 40 52  1  0  0  0
 40 53  2  0  0  0
 40 58  1  0  0  0
 41106  1  0  0  0
 41107  1  0  0  0
 41108  1  0  0  0
 41 48  1  0  0  0
 42 43  1  0  0  0
 42 66  1  0  0  0
 42109  1  0  0  0
 42110  1  0  0  0
 43 44  1  0  0  0
 44111  1  0  0  0
 45 46  2  0  0  0
 45112  1  0  0  0
 46113  1  0  0  0
 47114  1  0  0  0
 47115  1  0  0  0
 48 56  1  0  0  0
 48 65  1  0  0  0
 48116  1  0  0  0
 49 50  1  0  0  0
 49 53  1  0  0  0
 49 64  1  0  0  0
 49117  1  0  0  0
 50 51  1  0  0  0
 50118  1  0  0  0
 50119  1  0  0  0
 51 52  1  0  0  0
 51120  1  0  0  0
 51121  1  0  0  0
 52122  1  0  0  0
 52123  1  0  0  0
 53 54  1  0  0  0
 54 55  2  0  0  0
 54124  1  0  0  0
 55 57  1  0  0  0
 55125  1  0  0  0
 56 69  2  0  0  0
 57 58  2  0  0  0
 57126  1  0  0  0
 58127  1  0  0  0
 59 60  1  0  0  0
 59 61  1  0  0  0
 59 62  1  0  0  0
 60128  1  0  0  0
 60129  1  0  0  0
 60130  1  0  0  0
 61131  1  0  0  0
 61132  1  0  0  0
 61133  1  0  0  0
 62134  1  0  0  0
 62135  1  0  0  0
 62136  1  0  0  0
 63 65  1  0  0  0
 63137  1  0  0  0
 63138  1  0  0  0
 63139  1  0  0  0
 64140  1  0  0  0
 65141  1  0  0  0
 68 82  1  0  0  0
 71 72  2  0  0  0
 71 74  1  0  0  0
 71142  1  0  0  0
 72 75  1  0  0  0
 72143  1  0  0  0
 73 74  2  0  0  0
 73 76  1  0  0  0
 73144  1  0  0  0
 74 77  1  0  0  0
 75 76  2  0  0  0
 75 80  1  0  0  0
 76 79  1  0  0  0
 77 78  2  0  0  0
 77145  1  0  0  0
 78146  1  0  0  0
 79147  1  0  0  0
 79148  1  0  0  0
 79149  1  0  0  0
 80 81  1  0  0  0
 80150  1  0  0  0
 80151  1  0  0  0
 81 82  1  0  0  0
 81152  1  0  0  0
 81153  1  0  0  0
 82154  1  0  0  0
 82155  1  0  0  0
M  ISO  4   1 100  68 101  78 100  82 101
M  END
> <chiral flag>
0

> <version>
0

> <s_m_source_file>
/data/baiqing/PycharmProjects/Reinvent-master-3.2/result/LINK_invent/BTK/process_docking_weight1_custom_product_contain_oxygen_bond_distance_aromatic_linkinvent_7_9_3/rearranged_h_0120.sdf

> <i_m_source_file_index>
12

> <r_mmod_Potential_Energy-OPLS-2005>
49.376838684082

> <r_mmod_Stretch_Energy-OPLS-2005>
60.0876159667969

> <r_mmod_Bend_Energy-OPLS-2005>
133.052154541016

> <r_mmod_Torsional_Energy-OPLS-2005>
182.946060180664

> <r_mmod_Improper_Torsional_Energy-OPLS-2005>
6.33643960952759

> <r_mmod_Van_der_Waal_Energy-OPLS-2005>
163.196655273438

> <r_mmod_Electrostatic_Energy-OPLS-2005>
-343.220031738281

> <r_mmod_Solvation_Energy-OPLS-2005>
-193.130340576172

> <b_mmod_Minimization_Converged-OPLS-2005>
0

> <r_mmod_RMS_Derivative-OPLS-2005>
0.869730591773987

$$$$
12
                    3D
 Structure written by MMmdl.
167175  0  0  1  0            999 V2000
  -30.7171  -14.5998   20.6059 C   0  0  0  0  0  0
  -30.4254  -12.4135   19.4411 C   0  0  0  0  0  0
  -29.4850  -12.5477   18.2251 C   0  0  0  0  0  0
  -28.0173  -12.3603   18.6444 C   0  0  0  0  0  0
  -27.6528  -13.2250   19.8801 C   0  0  2  0  0  0
  -28.7100  -13.0598   21.0028 C   0  0  0  0  0  0
  -25.2382  -13.8263   20.5602 C   0  0  0  0  0  0
  -24.1709  -13.0446   20.9060 C   0  0  0  0  0  0
  -24.6354  -11.6943   20.8682 C   0  0  0  0  0  0
  -23.9137  -10.4276   21.0372 C   0  0  0  0  0  0
  -24.3669   -9.4205   21.9153 C   0  0  0  0  0  0
  -23.6318   -8.2248   22.0789 C   0  0  0  0  0  0
  -22.4296   -8.0305   21.3590 C   0  0  0  0  0  0
  -21.9960   -9.0235   20.4674 C   0  0  0  0  0  0
  -22.7300  -10.2133   20.3040 C   0  0  0  0  0  0
  -21.6829   -6.0801   22.5274 C   0  0  0  0  0  0
  -21.3942   -6.5670   23.8206 C   0  0  0  0  0  0
  -21.3645   -5.6823   24.9128 C   0  0  0  0  0  0
  -21.6080   -4.3089   24.7206 C   0  0  0  0  0  0
  -21.8783   -3.8194   23.4284 C   0  0  0  0  0  0
  -21.9128   -4.7024   22.3359 C   0  0  0  0  0  0
  -22.7676  -13.5235   21.1768 C   0  0  0  0  0  0
  -22.1586   -4.2205   21.0941 F   0  0  0  0  0  0
  -21.5666   -3.4566   25.7704 F   0  0  0  0  0  0
  -30.0243  -13.4211   20.4471 N   0  0  0  0  0  0
  -26.2915  -12.9471   20.3434 N   0  0  0  0  0  0
  -25.9309  -11.6587   20.5781 N   0  0  0  0  0  0
  -22.0404  -12.8207   22.0432 N   0  0  0  0  0  0
  -25.4138  -15.1948   20.3949 N   0  0  0  0  0  0
  -31.7691  -14.8161   19.9918 O   0  0  0  0  0  0
  -21.6626   -6.8933   21.4280 O   0  0  0  0  0  0
  -22.3331  -14.5501   20.6690 O   0  0  0  0  0  0
  -24.6309  -31.8570   23.2055 C   0  0  0  0  0  0
  -25.9195  -32.4748   23.8358 C   0  0  1  0  0  0
  -27.2312  -27.3170   20.0993 C   0  0  0  0  0  0
  -25.5985  -33.8525   24.2308 N   0  0  0  0  0  0
  -23.4249  -30.4941   21.5385 C   0  0  2  0  0  0
  -24.8690  -28.9297   20.1229 C   0  0  0  0  0  0
  -22.7386  -29.4756   22.4882 C   0  0  0  0  0  0
  -18.0214  -28.1353   22.8643 C   0  0  0  0  0  0
  -24.1507  -36.7282   23.2644 C   0  0  0  0  0  0
  -25.9731  -30.7699   21.3859 C   0  0  0  0  0  0
  -26.0381  -29.3977   20.7355 C   0  0  0  0  0  0
  -27.2161  -28.5939   20.7308 C   0  0  0  0  0  0
  -26.0425  -26.9152   19.4448 C   0  0  0  0  0  0
  -24.8722  -27.6915   19.4700 C   0  0  0  0  0  0
  -23.6474  -29.8209   20.1597 C   0  0  0  0  0  0
  -25.4107  -36.3021   24.0329 C   0  0  1  0  0  0
  -20.5839  -28.3827   23.1128 C   0  0  2  0  0  0
  -20.6849  -26.9389   22.5547 C   0  0  0  0  0  0
  -19.5624  -26.5846   21.5759 C   0  0  0  0  0  0
  -18.1824  -26.7715   22.2217 C   0  0  0  0  0  0
  -19.1472  -28.8930   23.2785 C   0  0  0  0  0  0
  -18.9299  -30.1627   23.8581 C   0  0  0  0  0  0
  -17.6268  -30.6702   24.0287 C   0  0  0  0  0  0
  -25.9046  -34.9385   23.5075 C   0  0  0  0  0  0
  -16.5171  -29.9090   23.6183 C   0  0  0  0  0  0
  -16.7214  -28.6434   23.0374 C   0  0  0  0  0  0
  -26.4516  -31.6543   25.0710 C   0  0  0  0  0  0
  -25.3768  -31.3681   26.1470 C   0  0  0  0  0  0
  -27.0383  -30.2985   24.6173 C   0  0  0  0  0  0
  -27.6026  -32.4306   25.7486 C   0  0  0  0  0  0
  -27.5556  -37.1807   24.8446 C   0  0  0  0  0  0
  -21.4126  -29.2994   22.3310 N   0  0  0  0  0  0
  -26.4269  -37.3727   23.9383 N   0  0  0  0  0  0
  -24.6950  -31.0563   22.0980 N   0  0  0  0  0  0
  -23.4045  -28.8351   23.3089 O   0  0  0  0  0  0
  -28.3640  -26.4860   20.1201 O   0  0  0  0  0  0
  -26.5585  -34.8879   22.4638 O   0  0  0  0  0  0
  -23.5488  -32.1356   23.7450 O   0  0  0  0  0  0
  -29.9916  -17.8724   20.4668 C   0  0  0  0  0  0
  -27.6001  -18.3301   21.8146 C   0  0  0  0  0  0
  -29.5967  -16.9317   21.4962 C   0  0  0  0  0  0
  -28.5146  -17.3816   22.3345 C   0  0  0  0  0  0
  -27.9263  -19.1182   20.7073 C   0  0  0  0  0  0
  -29.2180  -19.0429   20.1521 C   0  0  0  0  0  0
  -30.3119  -15.5799   21.7520 C   0  0  0  0  0  0
  -26.8627  -20.0121   20.1106 C   0  0  0  0  0  0
  -29.1999  -19.3014   24.5963 C   0  0  0  0  0  0
  -28.2828  -17.0341   23.8262 C   0  0  0  0  0  0
  -28.0303  -18.2944   24.7036 C   0  0  0  0  0  0
  -29.3884  -24.0608   19.9131 C   0  0  0  0  0  0
  -28.9551  -22.5395   19.7643 C   0  0  0  0  0  0
  -28.1561  -25.0193   20.2102 C   0  0  0  0  0  0
  -30.0155  -21.3475   19.6761 C   0  0  0  0  0  0
  -30.6095  -15.2076   22.9240 N   0  0  0  0  0  0
  -29.5956  -20.0098   19.2264 O   0  0  0  0  0  0
  -31.4659  -12.5226   19.1352 H   0  0  0  0  0  0
  -30.3653  -11.4185   19.8822 H   0  0  0  0  0  0
  -29.7635  -11.8309   17.4540 H   0  0  0  0  0  0
  -29.5888  -13.5413   17.7817 H   0  0  0  0  0  0
  -27.8651  -11.3053   18.8783 H   0  0  0  0  0  0
  -27.3499  -12.5733   17.8091 H   0  0  0  0  0  0
  -27.6779  -14.2644   19.5401 H   0  0  0  0  0  0
  -28.7390  -12.0222   21.3296 H   0  0  0  0  0  0
  -28.4465  -13.6411   21.8832 H   0  0  0  0  0  0
  -25.2870   -9.5599   22.4640 H   0  0  0  0  0  0
  -23.9982   -7.4692   22.7573 H   0  0  0  0  0  0
  -21.0853   -8.8741   19.9041 H   0  0  0  0  0  0
  -22.3783  -10.9583   19.6048 H   0  0  0  0  0  0
  -21.1913   -7.6155   23.9701 H   0  0  0  0  0  0
  -21.1532   -6.0556   25.9049 H   0  0  0  0  0  0
  -22.0604   -2.7659   23.2749 H   0  0  0  0  0  0
  -22.4037  -11.9871   22.4750 H   0  0  0  0  0  0
  -21.0992  -13.1109   22.2674 H   0  0  0  0  0  0
  -24.6801  -15.8722   20.5514 H   0  0  0  0  0  0
  -26.2909  -15.6323   20.1317 H   0  0  0  0  0  0
  -26.7221  -32.5396   23.1060 H   0  0  0  0  0  0
  -25.0118  -33.9684   25.0448 H   0  0  0  0  0  0
  -22.7356  -31.3314   21.3829 H   0  0  0  0  0  0
  -23.3706  -35.9679   23.3289 H   0  0  0  0  0  0
  -24.3605  -36.8946   22.2060 H   0  0  0  0  0  0
  -23.7354  -37.6522   23.6680 H   0  0  0  0  0  0
  -26.1093  -31.5261   20.6140 H   0  0  0  0  0  0
  -26.8578  -30.8283   22.0047 H   0  0  0  0  0  0
  -28.1132  -28.9277   21.2376 H   0  0  0  0  0  0
  -25.9824  -25.9994   18.8876 H   0  0  0  0  0  0
  -23.9927  -27.3258   18.9629 H   0  0  0  0  0  0
  -23.8026  -30.5960   19.4055 H   0  0  0  0  0  0
  -22.7618  -29.2744   19.8331 H   0  0  0  0  0  0
  -25.1312  -36.1809   25.0826 H   0  0  0  0  0  0
  -20.9952  -28.3715   24.1223 H   0  0  0  0  0  0
  -20.6079  -26.2604   23.4030 H   0  0  0  0  0  0
  -21.6575  -26.7397   22.1024 H   0  0  0  0  0  0
  -19.6606  -25.5380   21.2903 H   0  0  0  0  0  0
  -19.6475  -27.1957   20.6800 H   0  0  0  0  0  0
  -17.3910  -26.5963   21.4889 H   0  0  0  0  0  0
  -18.0348  -26.0315   23.0090 H   0  0  0  0  0  0
  -19.7645  -30.7670   24.1736 H   0  0  0  0  0  0
  -17.4846  -31.6506   24.4606 H   0  0  0  0  0  0
  -15.5149  -30.3026   23.7477 H   0  0  0  0  0  0
  -15.8714  -28.0622   22.7036 H   0  0  0  0  0  0
  -24.5872  -30.7099   25.7814 H   0  0  0  0  0  0
  -24.9030  -32.2860   26.4994 H   0  0  0  0  0  0
  -25.8137  -30.8764   27.0193 H   0  0  0  0  0  0
  -26.2970  -29.6685   24.1233 H   0  0  0  0  0  0
  -27.4146  -29.7281   25.4681 H   0  0  0  0  0  0
  -27.8801  -30.4274   23.9350 H   0  0  0  0  0  0
  -27.2564  -33.3576   26.2090 H   0  0  0  0  0  0
  -28.3814  -32.6973   25.0303 H   0  0  0  0  0  0
  -28.0710  -31.8417   26.5409 H   0  0  0  0  0  0
  -28.2560  -38.0118   24.7449 H   0  0  0  0  0  0
  -28.1091  -36.2633   24.6307 H   0  0  0  0  0  0
  -27.2271  -37.1496   25.8866 H   0  0  0  0  0  0
  -20.9362  -29.8340   21.6112 H   0  0  0  0  0  0
  -26.0111  -38.2785   24.1423 H   0  0  0  0  0  0
  -30.8951  -17.7081   19.8996 H   0  0  0  0  0  0
  -26.6741  -18.5297   22.3397 H   0  0  0  0  0  0
  -26.3764  -20.6025   20.8850 H   0  0  0  0  0  0
  -26.1115  -19.3675   19.6372 H   0  0  0  0  0  0
  -27.2452  -20.6681   19.3301 H   0  0  0  0  0  0
  -29.0899  -19.8432   23.6515 H   0  0  0  0  0  0
  -30.1625  -18.7825   24.5845 H   0  0  0  0  0  0
  -29.2367  -20.0567   25.3845 H   0  0  0  0  0  0
  -29.1270  -16.5443   24.2932 H   0  0  0  0  0  0
  -27.4634  -16.3262   23.9495 H   0  0  0  0  0  0
  -27.0971  -18.7994   24.4253 H   0  0  0  0  0  0
  -27.8711  -17.9536   25.7302 H   0  0  0  0  0  0
  -30.1842  -24.1692   20.6550 H   0  0  0  0  0  0
  -29.8401  -24.3922   18.9688 H   0  0  0  0  0  0
  -28.3776  -22.5025   18.8438 H   0  0  0  0  0  0
  -28.2617  -22.3412   20.5797 H   0  0  0  0  0  0
  -27.7466  -24.7862   21.2092 H   0  0  0  0  0  0
  -27.3703  -24.6794   19.5293 H   0  0  0  0  0  0
  -30.7718  -21.6124   18.9351 H   0  0  0  0  0  0
  -30.5639  -21.2639   20.6131 H   0  0  0  0  0  0
  -30.3256  -15.8879   23.6144 H   0  0  0  0  0  0
  1 25  1  0  0  0
  1 30  2  0  0  0
  1 77  1  0  0  0
  2  3  1  0  0  0
  2 25  1  0  0  0
  2 88  1  0  0  0
  2 89  1  0  0  0
  3  4  1  0  0  0
  3 90  1  0  0  0
  3 91  1  0  0  0
  4  5  1  0  0  0
  4 92  1  0  0  0
  4 93  1  0  0  0
  5  6  1  0  0  0
  5 26  1  0  0  0
  5 94  1  0  0  0
  6 25  1  0  0  0
  6 95  1  0  0  0
  6 96  1  0  0  0
  7  8  2  0  0  0
  7 26  1  0  0  0
  7 29  1  0  0  0
  8  9  1  0  0  0
  8 22  1  0  0  0
  9 10  1  0  0  0
  9 27  2  0  0  0
 10 11  2  0  0  0
 10 15  1  0  0  0
 11 12  1  0  0  0
 11 97  1  0  0  0
 12 13  2  0  0  0
 12 98  1  0  0  0
 13 14  1  0  0  0
 13 31  1  0  0  0
 14 15  2  0  0  0
 14 99  1  0  0  0
 15100  1  0  0  0
 16 17  2  0  0  0
 16 21  1  0  0  0
 16 31  1  0  0  0
 17 18  1  0  0  0
 17101  1  0  0  0
 18 19  2  0  0  0
 18102  1  0  0  0
 19 20  1  0  0  0
 19 24  1  0  0  0
 20 21  2  0  0  0
 20103  1  0  0  0
 21 23  1  0  0  0
 22 28  1  0  0  0
 22 32  2  0  0  0
 26 27  1  0  0  0
 28104  1  0  0  0
 28105  1  0  0  0
 29106  1  0  0  0
 29107  1  0  0  0
 33 34  1  0  0  0
 33 66  1  0  0  0
 33 70  2  0  0  0
 34 36  1  0  0  0
 34 59  1  0  0  0
 34108  1  0  0  0
 35 44  2  0  0  0
 35 45  1  0  0  0
 35 68  1  0  0  0
 36 56  1  0  0  0
 36109  1  0  0  0
 37 39  1  0  0  0
 37 47  1  0  0  0
 37 66  1  0  0  0
 37110  1  0  0  0
 38 43  2  0  0  0
 38 46  1  0  0  0
 38 47  1  0  0  0
 39 64  1  0  0  0
 39 67  2  0  0  0
 40 52  1  0  0  0
 40 53  2  0  0  0
 40 58  1  0  0  0
 41111  1  0  0  0
 41112  1  0  0  0
 41113  1  0  0  0
 41 48  1  0  0  0
 42 43  1  0  0  0
 42 66  1  0  0  0
 42114  1  0  0  0
 42115  1  0  0  0
 43 44  1  0  0  0
 44116  1  0  0  0
 45 46  2  0  0  0
 45117  1  0  0  0
 46118  1  0  0  0
 47119  1  0  0  0
 47120  1  0  0  0
 48 56  1  0  0  0
 48 65  1  0  0  0
 48121  1  0  0  0
 49 50  1  0  0  0
 49 53  1  0  0  0
 49 64  1  0  0  0
 49122  1  0  0  0
 50 51  1  0  0  0
 50123  1  0  0  0
 50124  1  0  0  0
 51 52  1  0  0  0
 51125  1  0  0  0
 51126  1  0  0  0
 52127  1  0  0  0
 52128  1  0  0  0
 53 54  1  0  0  0
 54 55  2  0  0  0
 54129  1  0  0  0
 55 57  1  0  0  0
 55130  1  0  0  0
 56 69  2  0  0  0
 57 58  2  0  0  0
 57131  1  0  0  0
 58132  1  0  0  0
 59 60  1  0  0  0
 59 61  1  0  0  0
 59 62  1  0  0  0
 60133  1  0  0  0
 60134  1  0  0  0
 60135  1  0  0  0
 61136  1  0  0  0
 61137  1  0  0  0
 61138  1  0  0  0
 62139  1  0  0  0
 62140  1  0  0  0
 62141  1  0  0  0
 63 65  1  0  0  0
 63142  1  0  0  0
 63143  1  0  0  0
 63144  1  0  0  0
 64145  1  0  0  0
 65146  1  0  0  0
 68 84  1  0  0  0
 71 73  2  0  0  0
 71 76  1  0  0  0
 71147  1  0  0  0
 72 74  2  0  0  0
 72 75  1  0  0  0
 72148  1  0  0  0
 73 74  1  0  0  0
 73 77  1  0  0  0
 74 80  1  0  0  0
 75 76  2  0  0  0
 75 78  1  0  0  0
 76 87  1  0  0  0
 77 86  2  0  0  0
 78149  1  0  0  0
 78150  1  0  0  0
 78151  1  0  0  0
 79 81  1  0  0  0
 79152  1  0  0  0
 79153  1  0  0  0
 79154  1  0  0  0
 80 81  1  0  0  0
 80155  1  0  0  0
 80156  1  0  0  0
 81157  1  0  0  0
 81158  1  0  0  0
 82 83  1  0  0  0
 82 84  1  0  0  0
 82159  1  0  0  0
 82160  1  0  0  0
 83 85  1  0  0  0
 83161  1  0  0  0
 83162  1  0  0  0
 84163  1  0  0  0
 84164  1  0  0  0
 85 87  1  0  0  0
 85165  1  0  0  0
 85166  1  0  0  0
 86167  1  0  0  0
M  ISO  4   1 100  68 101  77 100  84 101
M  END
> <chiral flag>
0

> <version>
0

> <s_m_source_file>
/data/baiqing/PycharmProjects/Reinvent-master-3.2/result/LINK_invent/BTK/process_docking_weight1_custom_product_contain_oxygen_bond_distance_aromatic_linkinvent_7_9_3/rearranged_h_0120.sdf

> <i_m_source_file_index>
13

> <r_mmod_Potential_Energy-OPLS-2005>
353.360229492188

> <r_mmod_Stretch_Energy-OPLS-2005>
98.0728149414062

> <r_mmod_Bend_Energy-OPLS-2005>
172.306045532227

> <r_mmod_Torsional_Energy-OPLS-2005>
311.282409667969

> <r_mmod_Improper_Torsional_Energy-OPLS-2005>
5.65504693984985

> <r_mmod_Van_der_Waal_Energy-OPLS-2005>
152.62190246582

> <r_mmod_Electrostatic_Energy-OPLS-2005>
-240.995910644531

> <r_mmod_Solvation_Energy-OPLS-2005>
-190.552032470703

> <b_mmod_Minimization_Converged-OPLS-2005>
0

> <r_mmod_RMS_Derivative-OPLS-2005>
14.5488004684448

$$$$
13
                    3D
 Structure written by MMmdl.
159167  0  0  1  0            999 V2000
  -30.7461  -14.4234   20.5972 C   0  0  0  0  0  0
  -30.4017  -12.2805   19.4177 C   0  0  0  0  0  0
  -29.4830  -12.5156   18.2030 C   0  0  0  0  0  0
  -28.0043  -12.3942   18.6136 C   0  0  0  0  0  0
  -27.6665  -13.2119   19.8891 C   0  0  2  0  0  0
  -28.7106  -12.9726   21.0032 C   0  0  0  0  0  0
  -25.2598  -13.8188   20.5704 C   0  0  0  0  0  0
  -24.1846  -13.0441   20.9164 C   0  0  0  0  0  0
  -24.6414  -11.6915   20.8742 C   0  0  0  0  0  0
  -23.9072  -10.4290   21.0419 C   0  0  0  0  0  0
  -24.3626   -9.4206   21.9205 C   0  0  0  0  0  0
  -23.6293   -8.2240   22.0781 C   0  0  0  0  0  0
  -22.4285   -8.0283   21.3547 C   0  0  0  0  0  0
  -21.9929   -9.0250   20.4637 C   0  0  0  0  0  0
  -22.7255  -10.2127   20.3057 C   0  0  0  0  0  0
  -21.6853   -6.0734   22.5275 C   0  0  0  0  0  0
  -21.4012   -6.5653   23.8199 C   0  0  0  0  0  0
  -21.3651   -5.6813   24.9163 C   0  0  0  0  0  0
  -21.6041   -4.3074   24.7222 C   0  0  0  0  0  0
  -21.8832   -3.8153   23.4352 C   0  0  0  0  0  0
  -21.9201   -4.6960   22.3398 C   0  0  0  0  0  0
  -22.7859  -13.5219   21.1819 C   0  0  0  0  0  0
  -22.1674   -4.2151   21.0980 F   0  0  0  0  0  0
  -21.5613   -3.4555   25.7734 F   0  0  0  0  0  0
  -30.0393  -13.2672   20.4475 N   0  0  0  0  0  0
  -26.3061  -12.9367   20.3470 N   0  0  0  0  0  0
  -25.9354  -11.6519   20.5830 N   0  0  0  0  0  0
  -22.0526  -12.8181   22.0376 N   0  0  0  0  0  0
  -25.4304  -15.1900   20.4111 N   0  0  0  0  0  0
  -31.8399  -14.5747   20.0499 O   0  0  0  0  0  0
  -21.6639   -6.8888   21.4242 O   0  0  0  0  0  0
  -22.3531  -14.5515   20.6677 O   0  0  0  0  0  0
  -24.6120  -31.8712   23.2106 C   0  0  0  0  0  0
  -25.9010  -32.4842   23.8418 C   0  0  1  0  0  0
  -27.2319  -27.4407   20.0759 C   0  0  0  0  0  0
  -25.5875  -33.8640   24.2339 N   0  0  0  0  0  0
  -23.3995  -30.4955   21.5518 C   0  0  2  0  0  0
  -24.8430  -28.9628   20.1189 C   0  0  0  0  0  0
  -22.7404  -29.4678   22.4987 C   0  0  0  0  0  0
  -18.0279  -28.1364   22.8501 C   0  0  0  0  0  0
  -24.1477  -36.7324   23.2642 C   0  0  0  0  0  0
  -25.9292  -30.8362   21.3641 C   0  0  0  0  0  0
  -26.0045  -29.4687   20.7150 C   0  0  0  0  0  0
  -27.1983  -28.7107   20.6992 C   0  0  0  0  0  0
  -26.0452  -26.9545   19.4742 C   0  0  0  0  0  0
  -24.8566  -27.7026   19.5033 C   0  0  0  0  0  0
  -23.6066  -29.8283   20.1670 C   0  0  0  0  0  0
  -25.4100  -36.3123   24.0337 C   0  0  1  0  0  0
  -20.5867  -28.3654   23.1318 C   0  0  2  0  0  0
  -20.6756  -26.9388   22.5411 C   0  0  0  0  0  0
  -19.5726  -26.6368   21.5209 C   0  0  0  0  0  0
  -18.1912  -26.7911   22.1632 C   0  0  0  0  0  0
  -19.1532  -28.8819   23.2908 C   0  0  0  0  0  0
  -18.9461  -30.1432   23.8909 C   0  0  0  0  0  0
  -17.6462  -30.6575   24.0558 C   0  0  0  0  0  0
  -25.9030  -34.9488   23.5136 C   0  0  0  0  0  0
  -16.5356  -29.9079   23.6317 C   0  0  0  0  0  0
  -16.7274  -28.6496   23.0350 C   0  0  0  0  0  0
  -26.4424  -31.6607   25.0738 C   0  0  0  0  0  0
  -25.3653  -31.3660   26.1442 C   0  0  0  0  0  0
  -27.0284  -30.3073   24.6087 C   0  0  0  0  0  0
  -27.5985  -32.4313   25.7537 C   0  0  0  0  0  0
  -27.5575  -37.1822   24.8463 C   0  0  0  0  0  0
  -21.4130  -29.3038   22.3728 N   0  0  0  0  0  0
  -26.4290  -37.3806   23.9401 N   0  0  0  0  0  0
  -24.6653  -31.0819   22.1003 N   0  0  0  0  0  0
  -23.4185  -28.8214   23.3016 O   0  0  0  0  0  0
  -28.4152  -26.7246   20.0759 O   0  0  0  0  0  0
  -26.5616  -34.8927   22.4709 O   0  0  0  0  0  0
  -23.5308  -32.1470   23.7486 O   0  0  0  0  0  0
  -30.5733  -20.4566   20.9554 C   0  0  0  0  0  0
  -31.1940  -19.1650   21.0839 C   0  0  0  0  0  0
  -31.4335  -21.4444   20.5280 C   0  0  0  0  0  0
  -32.5233  -19.1981   20.7057 C   0  0  0  0  0  0
  -33.5529  -18.2050   20.7482 C   0  0  0  0  0  0
  -29.9144  -23.4696   20.2120 C   0  0  0  0  0  0
  -33.6233  -17.0652   21.4534 C   0  0  0  0  0  0
  -29.7265  -24.7011   19.6853 C   0  0  0  0  0  0
  -31.2705  -22.8858   20.2798 C   0  0  0  0  0  0
  -34.7910  -16.1041   21.3882 C   0  0  0  0  0  0
  -28.3935  -25.4019   19.5296 C   0  0  0  0  0  0
  -30.2009  -15.6287   21.3951 C   0  0  0  0  0  0
  -30.3663  -16.9831   20.6484 C   0  0  0  0  0  0
  -32.2713  -23.5964   20.1272 O   0  0  0  0  0  0
  -30.5587  -18.0637   21.5684 O   0  0  0  0  0  0
  -33.0168  -20.7898   20.2112 S   0  0  0  0  0  0
  -31.4498  -12.3343   19.1198 H   0  0  0  0  0  0
  -30.2576  -11.2706   19.8065 H   0  0  0  0  0  0
  -29.7036  -11.8014   17.4098 H   0  0  0  0  0  0
  -29.6696  -13.5073   17.7872 H   0  0  0  0  0  0
  -27.7894  -11.3371   18.7778 H   0  0  0  0  0  0
  -27.3612  -12.7083   17.7896 H   0  0  0  0  0  0
  -27.7192  -14.2658   19.6170 H   0  0  0  0  0  0
  -28.6780  -11.9325   21.3309 H   0  0  0  0  0  0
  -28.4817  -13.5512   21.8969 H   0  0  0  0  0  0
  -25.2793   -9.5658   22.4759 H   0  0  0  0  0  0
  -23.9985   -7.4655   22.7539 H   0  0  0  0  0  0
  -21.0851   -8.8761   19.8941 H   0  0  0  0  0  0
  -22.3739  -10.9657   19.6133 H   0  0  0  0  0  0
  -21.2022   -7.6168   23.9686 H   0  0  0  0  0  0
  -21.1448   -6.0556   25.9058 H   0  0  0  0  0  0
  -22.0621   -2.7618   23.2861 H   0  0  0  0  0  0
  -22.4206  -11.9828   22.4687 H   0  0  0  0  0  0
  -21.1141  -13.1142   22.2612 H   0  0  0  0  0  0
  -24.6686  -15.8504   20.5204 H   0  0  0  0  0  0
  -26.2928  -15.6279   20.1087 H   0  0  0  0  0  0
  -26.7089  -32.5563   23.1201 H   0  0  0  0  0  0
  -24.9955  -33.9808   25.0436 H   0  0  0  0  0  0
  -22.6882  -31.3131   21.4113 H   0  0  0  0  0  0
  -23.3742  -35.9655   23.3299 H   0  0  0  0  0  0
  -24.3557  -36.8963   22.2058 H   0  0  0  0  0  0
  -23.7232  -37.6519   23.6678 H   0  0  0  0  0  0
  -26.0346  -31.5988   20.5913 H   0  0  0  0  0  0
  -26.8204  -30.8960   21.9770 H   0  0  0  0  0  0
  -28.0942  -29.0975   21.1649 H   0  0  0  0  0  0
  -26.0073  -26.0036   18.9649 H   0  0  0  0  0  0
  -23.9613  -27.3077   19.0432 H   0  0  0  0  0  0
  -23.7165  -30.5999   19.4039 H   0  0  0  0  0  0
  -22.7293  -29.2492   19.8722 H   0  0  0  0  0  0
  -25.1272  -36.2000   25.0833 H   0  0  0  0  0  0
  -20.9978  -28.3213   24.1429 H   0  0  0  0  0  0
  -20.5651  -26.2260   23.3594 H   0  0  0  0  0  0
  -21.6633  -26.7413   22.1218 H   0  0  0  0  0  0
  -19.6875  -25.6285   21.1224 H   0  0  0  0  0  0
  -19.6631  -27.3181   20.6738 H   0  0  0  0  0  0
  -17.4171  -26.6684   21.4039 H   0  0  0  0  0  0
  -18.0291  -26.0054   22.9025 H   0  0  0  0  0  0
  -19.7933  -30.7248   24.2284 H   0  0  0  0  0  0
  -17.5015  -31.6254   24.5168 H   0  0  0  0  0  0
  -15.5351  -30.2983   23.7613 H   0  0  0  0  0  0
  -15.8682  -28.0806   22.7051 H   0  0  0  0  0  0
  -24.5882  -30.6967   25.7730 H   0  0  0  0  0  0
  -24.8751  -32.2779   26.4860 H   0  0  0  0  0  0
  -25.7980  -30.8840   27.0218 H   0  0  0  0  0  0
  -26.2861  -29.6851   24.1074 H   0  0  0  0  0  0
  -27.4019  -29.7280   25.4544 H   0  0  0  0  0  0
  -27.8694  -30.4434   23.9279 H   0  0  0  0  0  0
  -27.2610  -33.3607   26.2141 H   0  0  0  0  0  0
  -28.3809  -32.6883   25.0381 H   0  0  0  0  0  0
  -28.0636  -31.8405   26.5444 H   0  0  0  0  0  0
  -28.2577  -38.0139   24.7552 H   0  0  0  0  0  0
  -28.1101  -36.2669   24.6269 H   0  0  0  0  0  0
  -27.2283  -37.1445   25.8865 H   0  0  0  0  0  0
  -20.9273  -29.8791   21.6982 H   0  0  0  0  0  0
  -26.0178  -38.2886   24.1408 H   0  0  0  0  0  0
  -29.5348  -20.6139   21.2083 H   0  0  0  0  0  0
  -34.3911  -18.4204   20.0983 H   0  0  0  0  0  0
  -29.0819  -22.8887   20.5783 H   0  0  0  0  0  0
  -32.8191  -16.7975   22.1231 H   0  0  0  0  0  0
  -30.5718  -25.2614   19.3103 H   0  0  0  0  0  0
  -35.5353  -16.4282   20.6587 H   0  0  0  0  0  0
  -34.4476  -15.1080   21.1054 H   0  0  0  0  0  0
  -35.2761  -16.0380   22.3607 H   0  0  0  0  0  0
  -27.6186  -24.7978   20.0036 H   0  0  0  0  0  0
  -28.1759  -25.4553   18.4619 H   0  0  0  0  0  0
  -29.1581  -15.5236   21.6817 H   0  0  0  0  0  0
  -30.7697  -15.6576   22.3242 H   0  0  0  0  0  0
  -29.4652  -17.1790   20.0644 H   0  0  0  0  0  0
  -31.1799  -16.9500   19.9234 H   0  0  0  0  0  0
  1 25  1  0  0  0
  1 30  2  0  0  0
  1 82  1  0  0  0
  2  3  1  0  0  0
  2 25  1  0  0  0
  2 87  1  0  0  0
  2 88  1  0  0  0
  3  4  1  0  0  0
  3 89  1  0  0  0
  3 90  1  0  0  0
  4  5  1  0  0  0
  4 91  1  0  0  0
  4 92  1  0  0  0
  5  6  1  0  0  0
  5 26  1  0  0  0
  5 93  1  0  0  0
  6 25  1  0  0  0
  6 94  1  0  0  0
  6 95  1  0  0  0
  7  8  2  0  0  0
  7 26  1  0  0  0
  7 29  1  0  0  0
  8  9  1  0  0  0
  8 22  1  0  0  0
  9 10  1  0  0  0
  9 27  2  0  0  0
 10 11  2  0  0  0
 10 15  1  0  0  0
 11 12  1  0  0  0
 11 96  1  0  0  0
 12 13  2  0  0  0
 12 97  1  0  0  0
 13 14  1  0  0  0
 13 31  1  0  0  0
 14 15  2  0  0  0
 14 98  1  0  0  0
 15 99  1  0  0  0
 16 17  2  0  0  0
 16 21  1  0  0  0
 16 31  1  0  0  0
 17 18  1  0  0  0
 17100  1  0  0  0
 18 19  2  0  0  0
 18101  1  0  0  0
 19 20  1  0  0  0
 19 24  1  0  0  0
 20 21  2  0  0  0
 20102  1  0  0  0
 21 23  1  0  0  0
 22 28  1  0  0  0
 22 32  2  0  0  0
 26 27  1  0  0  0
 28103  1  0  0  0
 28104  1  0  0  0
 29105  1  0  0  0
 29106  1  0  0  0
 33 34  1  0  0  0
 33 66  1  0  0  0
 33 70  2  0  0  0
 34 36  1  0  0  0
 34 59  1  0  0  0
 34107  1  0  0  0
 35 44  2  0  0  0
 35 45  1  0  0  0
 35 68  1  0  0  0
 36 56  1  0  0  0
 36108  1  0  0  0
 37 39  1  0  0  0
 37 47  1  0  0  0
 37 66  1  0  0  0
 37109  1  0  0  0
 38 43  2  0  0  0
 38 46  1  0  0  0
 38 47  1  0  0  0
 39 64  1  0  0  0
 39 67  2  0  0  0
 40 52  1  0  0  0
 40 53  2  0  0  0
 40 58  1  0  0  0
 41110  1  0  0  0
 41111  1  0  0  0
 41112  1  0  0  0
 41 48  1  0  0  0
 42 43  1  0  0  0
 42 66  1  0  0  0
 42113  1  0  0  0
 42114  1  0  0  0
 43 44  1  0  0  0
 44115  1  0  0  0
 45 46  2  0  0  0
 45116  1  0  0  0
 46117  1  0  0  0
 47118  1  0  0  0
 47119  1  0  0  0
 48 56  1  0  0  0
 48 65  1  0  0  0
 48120  1  0  0  0
 49 50  1  0  0  0
 49 53  1  0  0  0
 49 64  1  0  0  0
 49121  1  0  0  0
 50 51  1  0  0  0
 50122  1  0  0  0
 50123  1  0  0  0
 51 52  1  0  0  0
 51124  1  0  0  0
 51125  1  0  0  0
 52126  1  0  0  0
 52127  1  0  0  0
 53 54  1  0  0  0
 54 55  2  0  0  0
 54128  1  0  0  0
 55 57  1  0  0  0
 55129  1  0  0  0
 56 69  2  0  0  0
 57 58  2  0  0  0
 57130  1  0  0  0
 58131  1  0  0  0
 59 60  1  0  0  0
 59 61  1  0  0  0
 59 62  1  0  0  0
 60132  1  0  0  0
 60133  1  0  0  0
 60134  1  0  0  0
 61135  1  0  0  0
 61136  1  0  0  0
 61137  1  0  0  0
 62138  1  0  0  0
 62139  1  0  0  0
 62140  1  0  0  0
 63 65  1  0  0  0
 63141  1  0  0  0
 63142  1  0  0  0
 63143  1  0  0  0
 64144  1  0  0  0
 65145  1  0  0  0
 68 81  1  0  0  0
 71 72  1  0  0  0
 71 73  2  0  0  0
 71146  1  0  0  0
 72 74  2  0  0  0
 72 85  1  0  0  0
 73 79  1  0  0  0
 73 86  1  0  0  0
 74 75  1  0  0  0
 74 86  1  0  0  0
 75 77  2  0  0  0
 75147  1  0  0  0
 76 78  2  0  0  0
 76 79  1  0  0  0
 76148  1  0  0  0
 77 80  1  0  0  0
 77149  1  0  0  0
 78 81  1  0  0  0
 78150  1  0  0  0
 79 84  2  0  0  0
 80151  1  0  0  0
 80152  1  0  0  0
 80153  1  0  0  0
 81154  1  0  0  0
 81155  1  0  0  0
 82 83  1  0  0  0
 82156  1  0  0  0
 82157  1  0  0  0
 83 85  1  0  0  0
 83158  1  0  0  0
 83159  1  0  0  0
M  ISO  4   1 100  68 101  81 101  82 100
M  END
> <chiral flag>
0

> <version>
0

> <s_m_source_file>
/data/baiqing/PycharmProjects/Reinvent-master-3.2/result/LINK_invent/BTK/process_docking_weight1_custom_product_contain_oxygen_bond_distance_aromatic_linkinvent_7_9_3/rearranged_h_0120.sdf

> <i_m_source_file_index>
14

> <r_mmod_Potential_Energy-OPLS-2005>
-93.2627716064453

> <r_mmod_Stretch_Energy-OPLS-2005>
35.7630386352539

> <r_mmod_Bend_Energy-OPLS-2005>
103.424598693848

> <r_mmod_Torsional_Energy-OPLS-2005>
178.235366821289

> <r_mmod_Improper_Torsional_Energy-OPLS-2005>
2.33288931846619

> <r_mmod_Van_der_Waal_Energy-OPLS-2005>
140.343078613281

> <r_mmod_Electrostatic_Energy-OPLS-2005>
-353.573577880859

> <r_mmod_Solvation_Energy-OPLS-2005>
-210.19465637207

> <b_mmod_Minimization_Converged-OPLS-2005>
0

> <r_mmod_RMS_Derivative-OPLS-2005>
2.68341159820557

$$$$
14
                    3D
 Structure written by MMmdl.
158166  0  0  1  0            999 V2000
  -30.7899  -14.4259   20.5451 C   0  0  0  0  0  0
  -30.3950  -12.2698   19.4419 C   0  0  0  0  0  0
  -29.4929  -12.4922   18.2138 C   0  0  0  0  0  0
  -28.0110  -12.3749   18.6189 C   0  0  0  0  0  0
  -27.6572  -13.2234   19.8704 C   0  0  2  0  0  0
  -28.6997  -13.0562   20.9983 C   0  0  0  0  0  0
  -25.2570  -13.8199   20.5723 C   0  0  0  0  0  0
  -24.1823  -13.0467   20.9195 C   0  0  0  0  0  0
  -24.6383  -11.6931   20.8728 C   0  0  0  0  0  0
  -23.9044  -10.4303   21.0394 C   0  0  0  0  0  0
  -24.3591   -9.4223   21.9178 C   0  0  0  0  0  0
  -23.6286   -8.2246   22.0749 C   0  0  0  0  0  0
  -22.4271   -8.0273   21.3537 C   0  0  0  0  0  0
  -21.9898   -9.0246   20.4654 C   0  0  0  0  0  0
  -22.7211  -10.2137   20.3053 C   0  0  0  0  0  0
  -21.6853   -6.0717   22.5277 C   0  0  0  0  0  0
  -21.4013   -6.5618   23.8214 C   0  0  0  0  0  0
  -21.3673   -5.6764   24.9175 C   0  0  0  0  0  0
  -21.6057   -4.3022   24.7208 C   0  0  0  0  0  0
  -21.8820   -3.8127   23.4322 C   0  0  0  0  0  0
  -21.9199   -4.6952   22.3391 C   0  0  0  0  0  0
  -22.7853  -13.5276   21.1847 C   0  0  0  0  0  0
  -22.1674   -4.2150   21.0967 F   0  0  0  0  0  0
  -21.5639   -3.4506   25.7711 F   0  0  0  0  0  0
  -30.0364  -13.2965   20.4358 N   0  0  0  0  0  0
  -26.3013  -12.9401   20.3381 N   0  0  0  0  0  0
  -25.9318  -11.6536   20.5744 N   0  0  0  0  0  0
  -22.0458  -12.8297   22.0391 N   0  0  0  0  0  0
  -25.4260  -15.1930   20.4156 N   0  0  0  0  0  0
  -31.9474  -14.4628   20.1223 O   0  0  0  0  0  0
  -21.6629   -6.8879   21.4243 O   0  0  0  0  0  0
  -22.3571  -14.5588   20.6699 O   0  0  0  0  0  0
  -24.6122  -31.8694   23.2118 C   0  0  0  0  0  0
  -25.9015  -32.4827   23.8411 C   0  0  1  0  0  0
  -27.2342  -27.4532   20.0993 C   0  0  0  0  0  0
  -25.5884  -33.8629   24.2351 N   0  0  0  0  0  0
  -23.4005  -30.4942   21.5503 C   0  0  2  0  0  0
  -24.8497  -28.9636   20.1137 C   0  0  0  0  0  0
  -22.7396  -29.4666   22.4970 C   0  0  0  0  0  0
  -18.0257  -28.1390   22.8510 C   0  0  0  0  0  0
  -24.1487  -36.7322   23.2640 C   0  0  0  0  0  0
  -25.9290  -30.8420   21.3626 C   0  0  0  0  0  0
  -26.0091  -29.4793   20.7086 C   0  0  0  0  0  0
  -27.2082  -28.7327   20.6962 C   0  0  0  0  0  0
  -26.0642  -26.9513   19.4931 C   0  0  0  0  0  0
  -24.8715  -27.6975   19.5015 C   0  0  0  0  0  0
  -23.6101  -29.8263   20.1644 C   0  0  0  0  0  0
  -25.4099  -36.3111   24.0345 C   0  0  1  0  0  0
  -20.5854  -28.3667   23.1323 C   0  0  2  0  0  0
  -20.6738  -26.9397   22.5419 C   0  0  0  0  0  0
  -19.5709  -26.6380   21.5226 C   0  0  0  0  0  0
  -18.1893  -26.7935   22.1641 C   0  0  0  0  0  0
  -19.1514  -28.8839   23.2922 C   0  0  0  0  0  0
  -18.9446  -30.1453   23.8911 C   0  0  0  0  0  0
  -17.6452  -30.6603   24.0554 C   0  0  0  0  0  0
  -25.9019  -34.9479   23.5146 C   0  0  0  0  0  0
  -16.5336  -29.9098   23.6334 C   0  0  0  0  0  0
  -16.7250  -28.6519   23.0356 C   0  0  0  0  0  0
  -26.4461  -31.6599   25.0736 C   0  0  0  0  0  0
  -25.3763  -31.3736   26.1530 C   0  0  0  0  0  0
  -27.0230  -30.3017   24.6098 C   0  0  0  0  0  0
  -27.6073  -32.4293   25.7468 C   0  0  0  0  0  0
  -27.5588  -37.1817   24.8462 C   0  0  0  0  0  0
  -21.4122  -29.3058   22.3742 N   0  0  0  0  0  0
  -26.4287  -37.3797   23.9414 N   0  0  0  0  0  0
  -24.6658  -31.0813   22.1004 N   0  0  0  0  0  0
  -23.4188  -28.8169   23.2964 O   0  0  0  0  0  0
  -28.3734  -26.6862   20.1204 O   0  0  0  0  0  0
  -26.5581  -34.8925   22.4704 O   0  0  0  0  0  0
  -23.5313  -32.1419   23.7522 O   0  0  0  0  0  0
  -31.3613  -18.9401   22.2918 C   0  0  0  0  0  0
  -31.2867  -20.3414   22.1948 C   0  0  0  0  0  0
  -29.7128  -18.7357   20.5240 C   0  0  0  0  0  0
  -30.6146  -18.1269   21.4190 C   0  0  0  0  0  0
  -30.4645  -20.9656   21.2271 C   0  0  0  0  0  0
  -29.6455  -20.1441   20.3955 C   0  0  0  0  0  0
  -30.9244  -16.6927   21.3302 C   0  0  0  0  0  0
  -30.1331  -15.6759   20.9151 C   0  0  0  0  0  0
  -29.3994  -23.2930   21.1445 C   0  0  0  0  0  0
  -29.4412  -24.6202   20.8927 C   0  0  0  0  0  0
  -30.6105  -22.4513   21.0967 C   0  0  0  0  0  0
  -29.6183  -21.0489   18.0198 C   0  0  0  0  0  0
  -28.7857  -20.6921   19.2591 C   0  0  0  0  0  0
  -28.2356  -25.5359   20.9620 C   0  0  0  0  0  0
  -31.7375  -22.9545   21.0152 O   0  0  0  0  0  0
  -31.4447  -12.2974   19.1457 H   0  0  0  0  0  0
  -30.2332  -11.2719   19.8531 H   0  0  0  0  0  0
  -29.7275  -11.7653   17.4356 H   0  0  0  0  0  0
  -29.6870  -13.4773   17.7849 H   0  0  0  0  0  0
  -27.8046  -11.3217   18.8122 H   0  0  0  0  0  0
  -27.3696  -12.6618   17.7837 H   0  0  0  0  0  0
  -27.6881  -14.2667   19.5542 H   0  0  0  0  0  0
  -28.6516  -12.0496   21.4169 H   0  0  0  0  0  0
  -28.4822  -13.7304   21.8266 H   0  0  0  0  0  0
  -25.2728   -9.5720   22.4752 H   0  0  0  0  0  0
  -24.0019   -7.4622   22.7442 H   0  0  0  0  0  0
  -21.0839   -8.8747   19.8942 H   0  0  0  0  0  0
  -22.3664  -10.9660   19.6155 H   0  0  0  0  0  0
  -21.1982   -7.6115   23.9723 H   0  0  0  0  0  0
  -21.1520   -6.0475   25.9091 H   0  0  0  0  0  0
  -22.0589   -2.7585   23.2787 H   0  0  0  0  0  0
  -22.4032  -11.9962   22.4814 H   0  0  0  0  0  0
  -21.1084  -13.1398   22.2547 H   0  0  0  0  0  0
  -24.6561  -15.8439   20.5224 H   0  0  0  0  0  0
  -26.2805  -15.6376   20.1055 H   0  0  0  0  0  0
  -26.7092  -32.5552   23.1186 H   0  0  0  0  0  0
  -25.0026  -33.9782   25.0489 H   0  0  0  0  0  0
  -22.6895  -31.3115   21.4110 H   0  0  0  0  0  0
  -23.3763  -35.9641   23.3261 H   0  0  0  0  0  0
  -24.3598  -36.8975   22.2065 H   0  0  0  0  0  0
  -23.7218  -37.6507   23.6680 H   0  0  0  0  0  0
  -26.0406  -31.6118   20.5971 H   0  0  0  0  0  0
  -26.8158  -30.8937   21.9820 H   0  0  0  0  0  0
  -28.1042  -29.1253   21.1576 H   0  0  0  0  0  0
  -26.0769  -25.9809   19.0168 H   0  0  0  0  0  0
  -23.9807  -27.2967   19.0374 H   0  0  0  0  0  0
  -23.7160  -30.6009   19.4037 H   0  0  0  0  0  0
  -22.7365  -29.2414   19.8703 H   0  0  0  0  0  0
  -25.1273  -36.1977   25.0837 H   0  0  0  0  0  0
  -20.9965  -28.3224   24.1438 H   0  0  0  0  0  0
  -20.5654  -26.2263   23.3609 H   0  0  0  0  0  0
  -21.6605  -26.7433   22.1208 H   0  0  0  0  0  0
  -19.6851  -25.6287   21.1269 H   0  0  0  0  0  0
  -19.6653  -27.3178   20.6747 H   0  0  0  0  0  0
  -17.4166  -26.6710   21.4039 H   0  0  0  0  0  0
  -18.0274  -26.0073   22.9033 H   0  0  0  0  0  0
  -19.7921  -30.7272   24.2285 H   0  0  0  0  0  0
  -17.5006  -31.6296   24.5134 H   0  0  0  0  0  0
  -15.5337  -30.3007   23.7652 H   0  0  0  0  0  0
  -15.8651  -28.0844   22.7052 H   0  0  0  0  0  0
  -24.5753  -30.7323   25.7849 H   0  0  0  0  0  0
  -24.9200  -32.2932   26.5211 H   0  0  0  0  0  0
  -25.8105  -30.8655   27.0153 H   0  0  0  0  0  0
  -26.2730  -29.6819   24.1177 H   0  0  0  0  0  0
  -27.3988  -29.7225   25.4542 H   0  0  0  0  0  0
  -27.8599  -30.4289   23.9224 H   0  0  0  0  0  0
  -27.2737  -33.3611   26.2053 H   0  0  0  0  0  0
  -28.3881  -32.6823   25.0284 H   0  0  0  0  0  0
  -28.0746  -31.8406   26.5374 H   0  0  0  0  0  0
  -28.2601  -38.0118   24.7502 H   0  0  0  0  0  0
  -28.1084  -36.2649   24.6281 H   0  0  0  0  0  0
  -27.2319  -37.1467   25.8867 H   0  0  0  0  0  0
  -20.9247  -29.8845   21.7046 H   0  0  0  0  0  0
  -26.0180  -38.2882   24.1395 H   0  0  0  0  0  0
  -32.0598  -18.4978   22.9896 H   0  0  0  0  0  0
  -31.9177  -20.9420   22.8377 H   0  0  0  0  0  0
  -29.1563  -18.1135   19.8358 H   0  0  0  0  0  0
  -31.9689  -16.4803   21.5273 H   0  0  0  0  0  0
  -29.0738  -15.8162   20.7629 H   0  0  0  0  0  0
  -28.4675  -22.8160   21.4085 H   0  0  0  0  0  0
  -30.3802  -25.0958   20.6422 H   0  0  0  0  0  0
  -28.9741  -21.3989   17.2129 H   0  0  0  0  0  0
  -30.1679  -20.1817   17.6532 H   0  0  0  0  0  0
  -30.3417  -21.8355   18.2310 H   0  0  0  0  0  0
  -28.1934  -21.5454   19.5805 H   0  0  0  0  0  0
  -28.0489  -19.9384   18.9765 H   0  0  0  0  0  0
  -28.1263  -25.8673   21.9961 H   0  0  0  0  0  0
  -27.3466  -24.9509   20.7209 H   0  0  0  0  0  0
  1 25  1  0  0  0
  1 30  2  0  0  0
  1 78  1  0  0  0
  2  3  1  0  0  0
  2 25  1  0  0  0
  2 86  1  0  0  0
  2 87  1  0  0  0
  3  4  1  0  0  0
  3 88  1  0  0  0
  3 89  1  0  0  0
  4  5  1  0  0  0
  4 90  1  0  0  0
  4 91  1  0  0  0
  5  6  1  0  0  0
  5 26  1  0  0  0
  5 92  1  0  0  0
  6 25  1  0  0  0
  6 93  1  0  0  0
  6 94  1  0  0  0
  7  8  2  0  0  0
  7 26  1  0  0  0
  7 29  1  0  0  0
  8  9  1  0  0  0
  8 22  1  0  0  0
  9 10  1  0  0  0
  9 27  2  0  0  0
 10 11  2  0  0  0
 10 15  1  0  0  0
 11 12  1  0  0  0
 11 95  1  0  0  0
 12 13  2  0  0  0
 12 96  1  0  0  0
 13 14  1  0  0  0
 13 31  1  0  0  0
 14 15  2  0  0  0
 14 97  1  0  0  0
 15 98  1  0  0  0
 16 17  2  0  0  0
 16 21  1  0  0  0
 16 31  1  0  0  0
 17 18  1  0  0  0
 17 99  1  0  0  0
 18 19  2  0  0  0
 18100  1  0  0  0
 19 20  1  0  0  0
 19 24  1  0  0  0
 20 21  2  0  0  0
 20101  1  0  0  0
 21 23  1  0  0  0
 22 28  1  0  0  0
 22 32  2  0  0  0
 26 27  1  0  0  0
 28102  1  0  0  0
 28103  1  0  0  0
 29104  1  0  0  0
 29105  1  0  0  0
 33 34  1  0  0  0
 33 66  1  0  0  0
 33 70  2  0  0  0
 34 36  1  0  0  0
 34 59  1  0  0  0
 34106  1  0  0  0
 35 44  2  0  0  0
 35 45  1  0  0  0
 35 68  1  0  0  0
 36 56  1  0  0  0
 36107  1  0  0  0
 37 39  1  0  0  0
 37 47  1  0  0  0
 37 66  1  0  0  0
 37108  1  0  0  0
 38 43  2  0  0  0
 38 46  1  0  0  0
 38 47  1  0  0  0
 39 64  1  0  0  0
 39 67  2  0  0  0
 40 52  1  0  0  0
 40 53  2  0  0  0
 40 58  1  0  0  0
 41109  1  0  0  0
 41110  1  0  0  0
 41111  1  0  0  0
 41 48  1  0  0  0
 42 43  1  0  0  0
 42 66  1  0  0  0
 42112  1  0  0  0
 42113  1  0  0  0
 43 44  1  0  0  0
 44114  1  0  0  0
 45 46  2  0  0  0
 45115  1  0  0  0
 46116  1  0  0  0
 47117  1  0  0  0
 47118  1  0  0  0
 48 56  1  0  0  0
 48 65  1  0  0  0
 48119  1  0  0  0
 49 50  1  0  0  0
 49 53  1  0  0  0
 49 64  1  0  0  0
 49120  1  0  0  0
 50 51  1  0  0  0
 50121  1  0  0  0
 50122  1  0  0  0
 51 52  1  0  0  0
 51123  1  0  0  0
 51124  1  0  0  0
 52125  1  0  0  0
 52126  1  0  0  0
 53 54  1  0  0  0
 54 55  2  0  0  0
 54127  1  0  0  0
 55 57  1  0  0  0
 55128  1  0  0  0
 56 69  2  0  0  0
 57 58  2  0  0  0
 57129  1  0  0  0
 58130  1  0  0  0
 59 60  1  0  0  0
 59 61  1  0  0  0
 59 62  1  0  0  0
 60131  1  0  0  0
 60132  1  0  0  0
 60133  1  0  0  0
 61134  1  0  0  0
 61135  1  0  0  0
 61136  1  0  0  0
 62137  1  0  0  0
 62138  1  0  0  0
 62139  1  0  0  0
 63 65  1  0  0  0
 63140  1  0  0  0
 63141  1  0  0  0
 63142  1  0  0  0
 64143  1  0  0  0
 65144  1  0  0  0
 68 84  1  0  0  0
 71 72  2  0  0  0
 71 74  1  0  0  0
 71145  1  0  0  0
 72 75  1  0  0  0
 72146  1  0  0  0
 73 74  2  0  0  0
 73 76  1  0  0  0
 73147  1  0  0  0
 74 77  1  0  0  0
 75 76  2  0  0  0
 75 81  1  0  0  0
 76 83  1  0  0  0
 77 78  2  0  0  0
 77148  1  0  0  0
 78149  1  0  0  0
 79 80  2  0  0  0
 79 81  1  0  0  0
 79150  1  0  0  0
 80 84  1  0  0  0
 80151  1  0  0  0
 81 85  2  0  0  0
 82 83  1  0  0  0
 82152  1  0  0  0
 82153  1  0  0  0
 82154  1  0  0  0
 83155  1  0  0  0
 83156  1  0  0  0
 84157  1  0  0  0
 84158  1  0  0  0
M  ISO  4   1 100  68 101  78 100  84 101
M  END
> <chiral flag>
0

> <version>
0

> <s_m_source_file>
/data/baiqing/PycharmProjects/Reinvent-master-3.2/result/LINK_invent/BTK/process_docking_weight1_custom_product_contain_oxygen_bond_distance_aromatic_linkinvent_7_9_3/rearranged_h_0120.sdf

> <i_m_source_file_index>
15

> <r_mmod_Potential_Energy-OPLS-2005>
41.2466163635254

> <r_mmod_Stretch_Energy-OPLS-2005>
35.9375648498535

> <r_mmod_Bend_Energy-OPLS-2005>
100.932968139648

> <r_mmod_Torsional_Energy-OPLS-2005>
244.605651855469

> <r_mmod_Improper_Torsional_Energy-OPLS-2005>
11.0343151092529

> <r_mmod_Van_der_Waal_Energy-OPLS-2005>
159.517654418945

> <r_mmod_Electrostatic_Energy-OPLS-2005>
-327.918609619141

> <r_mmod_Solvation_Energy-OPLS-2005>
-202.704528808594

> <b_mmod_Minimization_Converged-OPLS-2005>
0

> <r_mmod_RMS_Derivative-OPLS-2005>
2.65369343757629

$$$$
15
                    3D
 Structure written by MMmdl.
165173  0  0  1  0            999 V2000
  -30.6711  -14.4500   20.5013 C   0  0  0  0  0  0
  -30.4108  -12.2672   19.4360 C   0  0  0  0  0  0
  -29.4950  -12.5103   18.2152 C   0  0  0  0  0  0
  -28.0097  -12.3740   18.6108 C   0  0  0  0  0  0
  -27.6493  -13.2025   19.8746 C   0  0  2  0  0  0
  -28.6894  -12.9730   20.9949 C   0  0  0  0  0  0
  -25.2501  -13.8106   20.5752 C   0  0  0  0  0  0
  -24.1751  -13.0394   20.9186 C   0  0  0  0  0  0
  -24.6320  -11.6867   20.8680 C   0  0  0  0  0  0
  -23.9019  -10.4264   21.0360 C   0  0  0  0  0  0
  -24.3599   -9.4187   21.9131 C   0  0  0  0  0  0
  -23.6265   -8.2227   22.0737 C   0  0  0  0  0  0
  -22.4251   -8.0254   21.3531 C   0  0  0  0  0  0
  -21.9881   -9.0214   20.4631 C   0  0  0  0  0  0
  -22.7199  -10.2090   20.3009 C   0  0  0  0  0  0
  -21.6827   -6.0738   22.5264 C   0  0  0  0  0  0
  -21.4022   -6.5643   23.8206 C   0  0  0  0  0  0
  -21.3648   -5.6788   24.9165 C   0  0  0  0  0  0
  -21.6030   -4.3052   24.7211 C   0  0  0  0  0  0
  -21.8812   -3.8149   23.4334 C   0  0  0  0  0  0
  -21.9196   -4.6973   22.3399 C   0  0  0  0  0  0
  -22.7794  -13.5223   21.1867 C   0  0  0  0  0  0
  -22.1659   -4.2165   21.0976 F   0  0  0  0  0  0
  -21.5625   -3.4537   25.7726 F   0  0  0  0  0  0
  -30.0325  -13.2520   20.4590 N   0  0  0  0  0  0
  -26.2910  -12.9291   20.3305 N   0  0  0  0  0  0
  -25.9221  -11.6456   20.5674 N   0  0  0  0  0  0
  -22.0450  -12.8209   22.0440 N   0  0  0  0  0  0
  -25.4164  -15.1852   20.4453 N   0  0  0  0  0  0
  -31.8415  -14.5980   20.1398 O   0  0  0  0  0  0
  -21.6611   -6.8863   21.4225 O   0  0  0  0  0  0
  -22.3476  -14.5535   20.6728 O   0  0  0  0  0  0
  -24.6112  -31.8683   23.2042 C   0  0  0  0  0  0
  -25.8988  -32.4810   23.8382 C   0  0  1  0  0  0
  -27.2519  -27.4281   20.1051 C   0  0  0  0  0  0
  -25.5872  -33.8622   24.2351 N   0  0  0  0  0  0
  -23.4035  -30.4849   21.5469 C   0  0  2  0  0  0
  -24.8520  -28.9367   20.1265 C   0  0  0  0  0  0
  -22.7404  -29.4633   22.4997 C   0  0  0  0  0  0
  -18.0274  -28.1351   22.8494 C   0  0  0  0  0  0
  -24.1510  -36.7294   23.2631 C   0  0  0  0  0  0
  -25.9336  -30.8247   21.3638 C   0  0  0  0  0  0
  -26.0091  -29.4579   20.7139 C   0  0  0  0  0  0
  -27.2072  -28.7130   20.6924 C   0  0  0  0  0  0
  -26.0703  -26.9115   19.5221 C   0  0  0  0  0  0
  -24.8759  -27.6619   19.5305 C   0  0  0  0  0  0
  -23.6119  -29.8011   20.1681 C   0  0  0  0  0  0
  -25.4123  -36.3128   24.0361 C   0  0  1  0  0  0
  -20.5867  -28.3591   23.1298 C   0  0  2  0  0  0
  -20.6737  -26.9342   22.5319 C   0  0  0  0  0  0
  -19.5690  -26.6310   21.5161 C   0  0  0  0  0  0
  -18.1911  -26.7890   22.1625 C   0  0  0  0  0  0
  -19.1528  -28.8787   23.2922 C   0  0  0  0  0  0
  -18.9443  -30.1401   23.8930 C   0  0  0  0  0  0
  -17.6455  -30.6554   24.0572 C   0  0  0  0  0  0
  -25.9027  -34.9477   23.5162 C   0  0  0  0  0  0
  -16.5340  -29.9057   23.6341 C   0  0  0  0  0  0
  -16.7272  -28.6470   23.0349 C   0  0  0  0  0  0
  -26.4389  -31.6530   25.0702 C   0  0  0  0  0  0
  -25.3634  -31.3575   26.1447 C   0  0  0  0  0  0
  -27.0228  -30.2992   24.6013 C   0  0  0  0  0  0
  -27.5960  -32.4200   25.7501 C   0  0  0  0  0  0
  -27.5606  -37.1797   24.8482 C   0  0  0  0  0  0
  -21.4129  -29.3010   22.3742 N   0  0  0  0  0  0
  -26.4336  -37.3798   23.9409 N   0  0  0  0  0  0
  -24.6677  -31.0759   22.0945 N   0  0  0  0  0  0
  -23.4164  -28.8180   23.3049 O   0  0  0  0  0  0
  -28.4665  -26.7762   20.0819 O   0  0  0  0  0  0
  -26.5626  -34.8899   22.4734 O   0  0  0  0  0  0
  -23.5303  -32.1398   23.7435 O   0  0  0  0  0  0
  -29.1408  -18.7716   20.6418 C   0  0  0  0  0  0
  -27.2679  -20.0151   19.7506 C   0  0  0  0  0  0
  -28.8726  -17.7170   19.7444 C   0  0  0  0  0  0
  -26.9913  -18.9846   18.8312 C   0  0  0  0  0  0
  -27.8282  -17.8325   18.7766 C   0  0  0  0  0  0
  -28.3817  -19.9560   20.6173 C   0  0  0  0  0  0
  -29.7709  -16.5549   19.7570 C   0  0  0  0  0  0
  -29.7808  -15.5881   20.6966 C   0  0  0  0  0  0
  -25.7964  -19.2095   17.9157 C   0  0  0  0  0  0
  -26.3308  -16.3262   17.1718 C   0  0  0  0  0  0
  -27.7194  -16.7484   17.6775 C   0  0  0  0  0  0
  -28.6119  -24.8350   21.5737 C   0  0  0  0  0  0
  -29.1529  -23.3938   21.7175 C   0  0  0  0  0  0
  -28.5434  -25.3451   20.1205 C   0  0  0  0  0  0
  -28.2497  -22.3077   21.1123 C   0  0  0  0  0  0
  -28.7710  -21.0100   21.4197 O   0  0  0  0  0  0
  -31.4639  -12.3339   19.1539 H   0  0  0  0  0  0
  -30.2717  -11.2552   19.8179 H   0  0  0  0  0  0
  -29.7357  -11.8057   17.4177 H   0  0  0  0  0  0
  -29.6729  -13.5090   17.8130 H   0  0  0  0  0  0
  -27.8115  -11.3160   18.7894 H   0  0  0  0  0  0
  -27.3665  -12.6681   17.7801 H   0  0  0  0  0  0
  -27.6781  -14.2516   19.5895 H   0  0  0  0  0  0
  -28.6436  -11.9405   21.3371 H   0  0  0  0  0  0
  -28.4611  -13.5726   21.8758 H   0  0  0  0  0  0
  -25.2755   -9.5682   22.4679 H   0  0  0  0  0  0
  -23.9964   -7.4670   22.7501 H   0  0  0  0  0  0
  -21.0786   -8.8756   19.8969 H   0  0  0  0  0  0
  -22.3651  -10.9631   19.6121 H   0  0  0  0  0  0
  -21.2010   -7.6151   23.9725 H   0  0  0  0  0  0
  -21.1458   -6.0517   25.9070 H   0  0  0  0  0  0
  -22.0594   -2.7609   23.2832 H   0  0  0  0  0  0
  -22.4137  -11.9921   22.4842 H   0  0  0  0  0  0
  -21.1054  -13.1171   22.2645 H   0  0  0  0  0  0
  -24.6419  -15.8251   20.5921 H   0  0  0  0  0  0
  -26.2646  -15.6483   20.1436 H   0  0  0  0  0  0
  -26.7073  -32.5499   23.1144 H   0  0  0  0  0  0
  -25.0025  -33.9779   25.0509 H   0  0  0  0  0  0
  -22.6948  -31.3016   21.4026 H   0  0  0  0  0  0
  -23.3821  -35.9581   23.3335 H   0  0  0  0  0  0
  -24.3584  -36.8854   22.2031 H   0  0  0  0  0  0
  -23.7200  -37.6481   23.6610 H   0  0  0  0  0  0
  -26.0570  -31.5895   20.5961 H   0  0  0  0  0  0
  -26.8197  -30.8723   21.9850 H   0  0  0  0  0  0
  -28.1098  -29.1162   21.1284 H   0  0  0  0  0  0
  -26.0526  -25.9470   19.0392 H   0  0  0  0  0  0
  -23.9836  -27.2540   19.0764 H   0  0  0  0  0  0
  -23.7124  -30.5660   19.3988 H   0  0  0  0  0  0
  -22.7423  -29.2057   19.8819 H   0  0  0  0  0  0
  -25.1303  -36.2045   25.0873 H   0  0  0  0  0  0
  -20.9975  -28.3101   24.1414 H   0  0  0  0  0  0
  -20.5678  -26.2148   23.3459 H   0  0  0  0  0  0
  -21.6574  -26.7395   22.1044 H   0  0  0  0  0  0
  -19.6784  -25.6174   21.1286 H   0  0  0  0  0  0
  -19.6612  -27.3036   20.6629 H   0  0  0  0  0  0
  -17.4120  -26.6587   21.4104 H   0  0  0  0  0  0
  -18.0415  -26.0058   22.9068 H   0  0  0  0  0  0
  -19.7923  -30.7218   24.2305 H   0  0  0  0  0  0
  -17.5007  -31.6225   24.5191 H   0  0  0  0  0  0
  -15.5329  -30.2938   23.7683 H   0  0  0  0  0  0
  -15.8681  -28.0790   22.7050 H   0  0  0  0  0  0
  -24.5727  -30.7051   25.7722 H   0  0  0  0  0  0
  -24.8938  -32.2740   26.5051 H   0  0  0  0  0  0
  -25.7947  -30.8554   27.0122 H   0  0  0  0  0  0
  -26.2768  -29.6813   24.0994 H   0  0  0  0  0  0
  -27.3978  -29.7142   25.4432 H   0  0  0  0  0  0
  -27.8620  -30.4376   23.9181 H   0  0  0  0  0  0
  -27.2610  -33.3497   26.2107 H   0  0  0  0  0  0
  -28.3778  -32.6713   25.0312 H   0  0  0  0  0  0
  -28.0568  -31.8243   26.5397 H   0  0  0  0  0  0
  -28.2672  -38.0064   24.7583 H   0  0  0  0  0  0
  -28.1094  -36.2613   24.6332 H   0  0  0  0  0  0
  -27.2327  -37.1454   25.8887 H   0  0  0  0  0  0
  -20.9276  -29.8800   21.7039 H   0  0  0  0  0  0
  -26.0269  -38.2895   24.1395 H   0  0  0  0  0  0
  -29.9774  -18.6899   21.3266 H   0  0  0  0  0  0
  -26.6217  -20.8804   19.7570 H   0  0  0  0  0  0
  -30.4525  -16.4892   18.9173 H   0  0  0  0  0  0
  -29.1230  -15.6474   21.5506 H   0  0  0  0  0  0
  -25.2983  -20.1576   18.1255 H   0  0  0  0  0  0
  -25.0393  -18.4411   18.0755 H   0  0  0  0  0  0
  -26.0980  -19.2252   16.8672 H   0  0  0  0  0  0
  -26.3980  -15.3780   16.6376 H   0  0  0  0  0  0
  -25.9092  -17.0376   16.4645 H   0  0  0  0  0  0
  -25.6219  -16.1896   17.9845 H   0  0  0  0  0  0
  -28.1933  -15.8273   18.0126 H   0  0  0  0  0  0
  -28.3140  -17.0746   16.8233 H   0  0  0  0  0  0
  -29.2817  -25.4903   22.1332 H   0  0  0  0  0  0
  -27.6335  -24.9292   22.0515 H   0  0  0  0  0  0
  -29.2887  -23.1856   22.7786 H   0  0  0  0  0  0
  -30.1445  -23.3271   21.2662 H   0  0  0  0  0  0
  -27.7587  -24.8376   19.5666 H   0  0  0  0  0  0
  -29.4706  -25.0719   19.6151 H   0  0  0  0  0  0
  -28.2175  -22.4669   20.0317 H   0  0  0  0  0  0
  -27.2355  -22.3962   21.5042 H   0  0  0  0  0  0
  1 25  1  0  0  0
  1 30  2  0  0  0
  1 78  1  0  0  0
  2  3  1  0  0  0
  2 25  1  0  0  0
  2 87  1  0  0  0
  2 88  1  0  0  0
  3  4  1  0  0  0
  3 89  1  0  0  0
  3 90  1  0  0  0
  4  5  1  0  0  0
  4 91  1  0  0  0
  4 92  1  0  0  0
  5  6  1  0  0  0
  5 26  1  0  0  0
  5 93  1  0  0  0
  6 25  1  0  0  0
  6 94  1  0  0  0
  6 95  1  0  0  0
  7  8  2  0  0  0
  7 26  1  0  0  0
  7 29  1  0  0  0
  8  9  1  0  0  0
  8 22  1  0  0  0
  9 10  1  0  0  0
  9 27  2  0  0  0
 10 11  2  0  0  0
 10 15  1  0  0  0
 11 12  1  0  0  0
 11 96  1  0  0  0
 12 13  2  0  0  0
 12 97  1  0  0  0
 13 14  1  0  0  0
 13 31  1  0  0  0
 14 15  2  0  0  0
 14 98  1  0  0  0
 15 99  1  0  0  0
 16 17  2  0  0  0
 16 21  1  0  0  0
 16 31  1  0  0  0
 17 18  1  0  0  0
 17100  1  0  0  0
 18 19  2  0  0  0
 18101  1  0  0  0
 19 20  1  0  0  0
 19 24  1  0  0  0
 20 21  2  0  0  0
 20102  1  0  0  0
 21 23  1  0  0  0
 22 28  1  0  0  0
 22 32  2  0  0  0
 26 27  1  0  0  0
 28103  1  0  0  0
 28104  1  0  0  0
 29105  1  0  0  0
 29106  1  0  0  0
 33 34  1  0  0  0
 33 66  1  0  0  0
 33 70  2  0  0  0
 34 36  1  0  0  0
 34 59  1  0  0  0
 34107  1  0  0  0
 35 44  2  0  0  0
 35 45  1  0  0  0
 35 68  1  0  0  0
 36 56  1  0  0  0
 36108  1  0  0  0
 37 39  1  0  0  0
 37 47  1  0  0  0
 37 66  1  0  0  0
 37109  1  0  0  0
 38 43  2  0  0  0
 38 46  1  0  0  0
 38 47  1  0  0  0
 39 64  1  0  0  0
 39 67  2  0  0  0
 40 52  1  0  0  0
 40 53  2  0  0  0
 40 58  1  0  0  0
 41110  1  0  0  0
 41111  1  0  0  0
 41112  1  0  0  0
 41 48  1  0  0  0
 42 43  1  0  0  0
 42 66  1  0  0  0
 42113  1  0  0  0
 42114  1  0  0  0
 43 44  1  0  0  0
 44115  1  0  0  0
 45 46  2  0  0  0
 45116  1  0  0  0
 46117  1  0  0  0
 47118  1  0  0  0
 47119  1  0  0  0
 48 56  1  0  0  0
 48 65  1  0  0  0
 48120  1  0  0  0
 49 50  1  0  0  0
 49 53  1  0  0  0
 49 64  1  0  0  0
 49121  1  0  0  0
 50 51  1  0  0  0
 50122  1  0  0  0
 50123  1  0  0  0
 51 52  1  0  0  0
 51124  1  0  0  0
 51125  1  0  0  0
 52126  1  0  0  0
 52127  1  0  0  0
 53 54  1  0  0  0
 54 55  2  0  0  0
 54128  1  0  0  0
 55 57  1  0  0  0
 55129  1  0  0  0
 56 69  2  0  0  0
 57 58  2  0  0  0
 57130  1  0  0  0
 58131  1  0  0  0
 59 60  1  0  0  0
 59 61  1  0  0  0
 59 62  1  0  0  0
 60132  1  0  0  0
 60133  1  0  0  0
 60134  1  0  0  0
 61135  1  0  0  0
 61136  1  0  0  0
 61137  1  0  0  0
 62138  1  0  0  0
 62139  1  0  0  0
 62140  1  0  0  0
 63 65  1  0  0  0
 63141  1  0  0  0
 63142  1  0  0  0
 63143  1  0  0  0
 64144  1  0  0  0
 65145  1  0  0  0
 68 84  1  0  0  0
 71 73  2  0  0  0
 71 76  1  0  0  0
 71146  1  0  0  0
 72 74  1  0  0  0
 72 76  2  0  0  0
 72147  1  0  0  0
 73 75  1  0  0  0
 73 77  1  0  0  0
 74 75  2  0  0  0
 74 79  1  0  0  0
 75 81  1  0  0  0
 76 86  1  0  0  0
 77 78  2  0  0  0
 77148  1  0  0  0
 78149  1  0  0  0
 79150  1  0  0  0
 79151  1  0  0  0
 79152  1  0  0  0
 80 81  1  0  0  0
 80153  1  0  0  0
 80154  1  0  0  0
 80155  1  0  0  0
 81156  1  0  0  0
 81157  1  0  0  0
 82 83  1  0  0  0
 82 84  1  0  0  0
 82158  1  0  0  0
 82159  1  0  0  0
 83 85  1  0  0  0
 83160  1  0  0  0
 83161  1  0  0  0
 84162  1  0  0  0
 84163  1  0  0  0
 85 86  1  0  0  0
 85164  1  0  0  0
 85165  1  0  0  0
M  ISO  4   1 100  68 101  78 100  84 101
M  END
> <chiral flag>
0

> <version>
0

> <s_m_source_file>
/data/baiqing/PycharmProjects/Reinvent-master-3.2/result/LINK_invent/BTK/process_docking_weight1_custom_product_contain_oxygen_bond_distance_aromatic_linkinvent_7_9_3/rearranged_h_0120.sdf

> <i_m_source_file_index>
16

> <r_mmod_Potential_Energy-OPLS-2005>
31.2405452728271

> <r_mmod_Stretch_Energy-OPLS-2005>
38.849796295166

> <r_mmod_Bend_Energy-OPLS-2005>
114.278999328613

> <r_mmod_Torsional_Energy-OPLS-2005>
240.530960083008

> <r_mmod_Improper_Torsional_Energy-OPLS-2005>
8.20656776428223

> <r_mmod_Van_der_Waal_Energy-OPLS-2005>
160.518814086914

> <r_mmod_Electrostatic_Energy-OPLS-2005>
-358.433227539062

> <r_mmod_Solvation_Energy-OPLS-2005>
-188.088104248047

> <b_mmod_Minimization_Converged-OPLS-2005>
0

> <r_mmod_RMS_Derivative-OPLS-2005>
4.62721920013428

$$$$
16
                    3D
 Structure written by MMmdl.
162170  0  0  1  0            999 V2000
  -30.6605  -14.4486   20.5654 C   0  0  0  0  0  0
  -30.4306  -12.2827   19.4267 C   0  0  0  0  0  0
  -29.5013  -12.4980   18.2116 C   0  0  0  0  0  0
  -28.0203  -12.3575   18.6198 C   0  0  0  0  0  0
  -27.6660  -13.1913   19.8802 C   0  0  2  0  0  0
  -28.6984  -12.9356   21.0013 C   0  0  0  0  0  0
  -25.2628  -13.8130   20.5659 C   0  0  0  0  0  0
  -24.1866  -13.0432   20.9144 C   0  0  0  0  0  0
  -24.6394  -11.6885   20.8713 C   0  0  0  0  0  0
  -23.9056  -10.4281   21.0405 C   0  0  0  0  0  0
  -24.3614   -9.4211   21.9200 C   0  0  0  0  0  0
  -23.6284   -8.2248   22.0778 C   0  0  0  0  0  0
  -22.4276   -8.0269   21.3552 C   0  0  0  0  0  0
  -21.9900   -9.0256   20.4658 C   0  0  0  0  0  0
  -22.7228  -10.2125   20.3058 C   0  0  0  0  0  0
  -21.6853   -6.0727   22.5277 C   0  0  0  0  0  0
  -21.4013   -6.5638   23.8210 C   0  0  0  0  0  0
  -21.3656   -5.6794   24.9172 C   0  0  0  0  0  0
  -21.6037   -4.3052   24.7228 C   0  0  0  0  0  0
  -21.8819   -3.8138   23.4354 C   0  0  0  0  0  0
  -21.9204   -4.6954   22.3403 C   0  0  0  0  0  0
  -22.7893  -13.5250   21.1813 C   0  0  0  0  0  0
  -22.1667   -4.2141   21.0980 F   0  0  0  0  0  0
  -21.5627   -3.4537   25.7736 F   0  0  0  0  0  0
  -30.0369  -13.2454   20.4638 N   0  0  0  0  0  0
  -26.3044  -12.9267   20.3355 N   0  0  0  0  0  0
  -25.9312  -11.6435   20.5762 N   0  0  0  0  0  0
  -22.0530  -12.8250   22.0353 N   0  0  0  0  0  0
  -25.4403  -15.1840   20.4085 N   0  0  0  0  0  0
  -31.7856  -14.6703   20.1038 O   0  0  0  0  0  0
  -21.6641   -6.8866   21.4244 O   0  0  0  0  0  0
  -22.3590  -14.5585   20.6694 O   0  0  0  0  0  0
  -24.6151  -31.8691   23.2112 C   0  0  0  0  0  0
  -25.9035  -32.4841   23.8396 C   0  0  1  0  0  0
  -27.2254  -27.4417   20.0581 C   0  0  0  0  0  0
  -25.5875  -33.8634   24.2313 N   0  0  0  0  0  0
  -23.4001  -30.5010   21.5527 C   0  0  2  0  0  0
  -24.8366  -28.9683   20.1199 C   0  0  0  0  0  0
  -22.7419  -29.4698   22.4971 C   0  0  0  0  0  0
  -18.0281  -28.1402   22.8525 C   0  0  0  0  0  0
  -24.1468  -36.7285   23.2650 C   0  0  0  0  0  0
  -25.9320  -30.8360   21.3610 C   0  0  0  0  0  0
  -26.0038  -29.4716   20.7067 C   0  0  0  0  0  0
  -27.2019  -28.7164   20.6742 C   0  0  0  0  0  0
  -26.0156  -26.9400   19.5152 C   0  0  0  0  0  0
  -24.8357  -27.6977   19.5301 C   0  0  0  0  0  0
  -23.6052  -29.8405   20.1661 C   0  0  0  0  0  0
  -25.4091  -36.3103   24.0351 C   0  0  1  0  0  0
  -20.5890  -28.3672   23.1306 C   0  0  2  0  0  0
  -20.6765  -26.9405   22.5400 C   0  0  0  0  0  0
  -19.5744  -26.6392   21.5225 C   0  0  0  0  0  0
  -18.1931  -26.7940   22.1646 C   0  0  0  0  0  0
  -19.1543  -28.8851   23.2926 C   0  0  0  0  0  0
  -18.9473  -30.1463   23.8928 C   0  0  0  0  0  0
  -17.6485  -30.6610   24.0597 C   0  0  0  0  0  0
  -25.9028  -34.9487   23.5126 C   0  0  0  0  0  0
  -16.5373  -29.9130   23.6337 C   0  0  0  0  0  0
  -16.7274  -28.6550   23.0343 C   0  0  0  0  0  0
  -26.4438  -31.6641   25.0741 C   0  0  0  0  0  0
  -25.3693  -31.3763   26.1495 C   0  0  0  0  0  0
  -27.0271  -30.3093   24.6085 C   0  0  0  0  0  0
  -27.6019  -32.4352   25.7490 C   0  0  0  0  0  0
  -27.5570  -37.1789   24.8478 C   0  0  0  0  0  0
  -21.4145  -29.3054   22.3708 N   0  0  0  0  0  0
  -26.4264  -37.3801   23.9452 N   0  0  0  0  0  0
  -24.6688  -31.0822   22.1000 N   0  0  0  0  0  0
  -23.4207  -28.8226   23.2981 O   0  0  0  0  0  0
  -28.4167  -26.7396   19.9853 O   0  0  0  0  0  0
  -26.5605  -34.8950   22.4699 O   0  0  0  0  0  0
  -23.5342  -32.1422   23.7506 O   0  0  0  0  0  0
  -29.9498  -18.5904   19.0829 C   0  0  0  0  0  0
  -30.3223  -17.3146   19.5472 C   0  0  0  0  0  0
  -28.5289  -17.4078   21.1689 C   0  0  0  0  0  0
  -28.8670  -19.3110   19.6492 C   0  0  0  0  0  0
  -28.1298  -18.6874   20.7018 C   0  0  0  0  0  0
  -29.6186  -16.7101   20.6100 C   0  0  0  0  0  0
  -26.4850  -19.0580   22.5781 C   0  0  0  0  0  0
  -28.5581  -20.6894   19.1619 C   0  0  0  0  0  0
  -26.9686  -19.3403   21.3546 C   0  0  0  0  0  0
  -29.3013  -21.4304   18.3108 C   0  0  0  0  0  0
  -29.7718  -25.0249   18.8391 C   0  0  0  0  0  0
  -30.0245  -23.8598   18.2028 C   0  0  0  0  0  0
  -31.4383  -23.4922   17.7934 C   0  0  0  0  0  0
  -28.9544  -22.8326   17.8235 C   0  0  0  0  0  0
  -28.3952  -25.5324   19.2112 C   0  0  0  0  0  0
  -29.9039  -15.4084   21.1241 N   0  0  0  0  0  0
  -31.4761  -12.3927   19.1314 H   0  0  0  0  0  0
  -30.3347  -11.2639   19.8055 H   0  0  0  0  0  0
  -29.7392  -11.7773   17.4278 H   0  0  0  0  0  0
  -29.6728  -13.4858   17.7817 H   0  0  0  0  0  0
  -27.8307  -11.3009   18.8131 H   0  0  0  0  0  0
  -27.3698  -12.6343   17.7902 H   0  0  0  0  0  0
  -27.7248  -14.2429   19.5987 H   0  0  0  0  0  0
  -28.6654  -11.8910   21.3160 H   0  0  0  0  0  0
  -28.4522  -13.5070   21.8964 H   0  0  0  0  0  0
  -25.2765   -9.5683   22.4770 H   0  0  0  0  0  0
  -23.9981   -7.4642   22.7508 H   0  0  0  0  0  0
  -21.0828   -8.8773   19.8970 H   0  0  0  0  0  0
  -22.3709  -10.9665   19.6150 H   0  0  0  0  0  0
  -21.2003   -7.6152   23.9711 H   0  0  0  0  0  0
  -21.1466   -6.0526   25.9078 H   0  0  0  0  0  0
  -22.0605   -2.7600   23.2855 H   0  0  0  0  0  0
  -22.4123  -11.9870   22.4676 H   0  0  0  0  0  0
  -21.1178  -13.1311   22.2615 H   0  0  0  0  0  0
  -24.6796  -15.8417   20.5323 H   0  0  0  0  0  0
  -26.2976  -15.6238   20.0987 H   0  0  0  0  0  0
  -26.7121  -32.5527   23.1172 H   0  0  0  0  0  0
  -25.0023  -33.9795   25.0453 H   0  0  0  0  0  0
  -22.6915  -31.3201   21.4159 H   0  0  0  0  0  0
  -23.3757  -35.9590   23.3311 H   0  0  0  0  0  0
  -24.3568  -36.8874   22.2065 H   0  0  0  0  0  0
  -23.7174  -37.6474   23.6644 H   0  0  0  0  0  0
  -26.0406  -31.6016   20.5908 H   0  0  0  0  0  0
  -26.8221  -30.8856   21.9762 H   0  0  0  0  0  0
  -28.1080  -29.1130   21.1081 H   0  0  0  0  0  0
  -25.9391  -25.9619   19.0651 H   0  0  0  0  0  0
  -23.9330  -27.2911   19.0912 H   0  0  0  0  0  0
  -23.7235  -30.6184   19.4109 H   0  0  0  0  0  0
  -22.7266  -29.2666   19.8648 H   0  0  0  0  0  0
  -25.1261  -36.1955   25.0834 H   0  0  0  0  0  0
  -21.0014  -28.3209   24.1409 H   0  0  0  0  0  0
  -20.5679  -26.2281   23.3582 H   0  0  0  0  0  0
  -21.6628  -26.7448   22.1164 H   0  0  0  0  0  0
  -19.6908  -25.6315   21.1220 H   0  0  0  0  0  0
  -19.6688  -27.3225   20.6777 H   0  0  0  0  0  0
  -17.4196  -26.6718   21.4047 H   0  0  0  0  0  0
  -18.0331  -26.0073   22.9023 H   0  0  0  0  0  0
  -19.7960  -30.7264   24.2299 H   0  0  0  0  0  0
  -17.5061  -31.6309   24.5170 H   0  0  0  0  0  0
  -15.5380  -30.3074   23.7645 H   0  0  0  0  0  0
  -15.8666  -28.0906   22.7017 H   0  0  0  0  0  0
  -24.5867  -30.7109   25.7840 H   0  0  0  0  0  0
  -24.8906  -32.2942   26.4928 H   0  0  0  0  0  0
  -25.8041  -30.8959   27.0272 H   0  0  0  0  0  0
  -26.2824  -29.6873   24.1116 H   0  0  0  0  0  0
  -27.4047  -29.7302   25.4516 H   0  0  0  0  0  0
  -27.8638  -30.4444   23.9230 H   0  0  0  0  0  0
  -27.2652  -33.3678   26.2026 H   0  0  0  0  0  0
  -28.3859  -32.6855   25.0333 H   0  0  0  0  0  0
  -28.0644  -31.8499   26.5442 H   0  0  0  0  0  0
  -28.2566  -38.0108   24.7554 H   0  0  0  0  0  0
  -28.1074  -36.2638   24.6245 H   0  0  0  0  0  0
  -27.2300  -37.1349   25.8881 H   0  0  0  0  0  0
  -20.9280  -29.8846   21.7016 H   0  0  0  0  0  0
  -26.0149  -38.2858   24.1519 H   0  0  0  0  0  0
  -30.5183  -18.9962   18.2621 H   0  0  0  0  0  0
  -31.1479  -16.8167   19.0614 H   0  0  0  0  0  0
  -27.9697  -16.9266   21.9576 H   0  0  0  0  0  0
  -25.6076  -19.5642   22.9560 H   0  0  0  0  0  0
  -26.9385  -18.3266   23.2310 H   0  0  0  0  0  0
  -27.6469  -21.1488   19.5160 H   0  0  0  0  0  0
  -26.4296  -20.0835   20.7882 H   0  0  0  0  0  0
  -30.2266  -21.0419   17.9124 H   0  0  0  0  0  0
  -30.5907  -25.6845   19.0873 H   0  0  0  0  0  0
  -32.1033  -24.3550   17.8245 H   0  0  0  0  0  0
  -31.4425  -23.1095   16.7711 H   0  0  0  0  0  0
  -31.8425  -22.7235   18.4516 H   0  0  0  0  0  0
  -27.9646  -23.1179   18.1791 H   0  0  0  0  0  0
  -28.8843  -22.8074   16.7340 H   0  0  0  0  0  0
  -27.8499  -24.7556   19.7486 H   0  0  0  0  0  0
  -27.9105  -25.7030   18.2495 H   0  0  0  0  0  0
  -29.1668  -15.0313   21.7012 H   0  0  0  0  0  0
  1 25  1  0  0  0
  1 30  2  0  0  0
  1 86  1  0  0  0
  2  3  1  0  0  0
  2 25  1  0  0  0
  2 87  1  0  0  0
  2 88  1  0  0  0
  3  4  1  0  0  0
  3 89  1  0  0  0
  3 90  1  0  0  0
  4  5  1  0  0  0
  4 91  1  0  0  0
  4 92  1  0  0  0
  5  6  1  0  0  0
  5 26  1  0  0  0
  5 93  1  0  0  0
  6 25  1  0  0  0
  6 94  1  0  0  0
  6 95  1  0  0  0
  7  8  2  0  0  0
  7 26  1  0  0  0
  7 29  1  0  0  0
  8  9  1  0  0  0
  8 22  1  0  0  0
  9 10  1  0  0  0
  9 27  2  0  0  0
 10 11  2  0  0  0
 10 15  1  0  0  0
 11 12  1  0  0  0
 11 96  1  0  0  0
 12 13  2  0  0  0
 12 97  1  0  0  0
 13 14  1  0  0  0
 13 31  1  0  0  0
 14 15  2  0  0  0
 14 98  1  0  0  0
 15 99  1  0  0  0
 16 17  2  0  0  0
 16 21  1  0  0  0
 16 31  1  0  0  0
 17 18  1  0  0  0
 17100  1  0  0  0
 18 19  2  0  0  0
 18101  1  0  0  0
 19 20  1  0  0  0
 19 24  1  0  0  0
 20 21  2  0  0  0
 20102  1  0  0  0
 21 23  1  0  0  0
 22 28  1  0  0  0
 22 32  2  0  0  0
 26 27  1  0  0  0
 28103  1  0  0  0
 28104  1  0  0  0
 29105  1  0  0  0
 29106  1  0  0  0
 33 34  1  0  0  0
 33 66  1  0  0  0
 33 70  2  0  0  0
 34 36  1  0  0  0
 34 59  1  0  0  0
 34107  1  0  0  0
 35 44  2  0  0  0
 35 45  1  0  0  0
 35 68  1  0  0  0
 36 56  1  0  0  0
 36108  1  0  0  0
 37 39  1  0  0  0
 37 47  1  0  0  0
 37 66  1  0  0  0
 37109  1  0  0  0
 38 43  2  0  0  0
 38 46  1  0  0  0
 38 47  1  0  0  0
 39 64  1  0  0  0
 39 67  2  0  0  0
 40 52  1  0  0  0
 40 53  2  0  0  0
 40 58  1  0  0  0
 41110  1  0  0  0
 41111  1  0  0  0
 41112  1  0  0  0
 41 48  1  0  0  0
 42 43  1  0  0  0
 42 66  1  0  0  0
 42113  1  0  0  0
 42114  1  0  0  0
 43 44  1  0  0  0
 44115  1  0  0  0
 45 46  2  0  0  0
 45116  1  0  0  0
 46117  1  0  0  0
 47118  1  0  0  0
 47119  1  0  0  0
 48 56  1  0  0  0
 48 65  1  0  0  0
 48120  1  0  0  0
 49 50  1  0  0  0
 49 53  1  0  0  0
 49 64  1  0  0  0
 49121  1  0  0  0
 50 51  1  0  0  0
 50122  1  0  0  0
 50123  1  0  0  0
 51 52  1  0  0  0
 51124  1  0  0  0
 51125  1  0  0  0
 52126  1  0  0  0
 52127  1  0  0  0
 53 54  1  0  0  0
 54 55  2  0  0  0
 54128  1  0  0  0
 55 57  1  0  0  0
 55129  1  0  0  0
 56 69  2  0  0  0
 57 58  2  0  0  0
 57130  1  0  0  0
 58131  1  0  0  0
 59 60  1  0  0  0
 59 61  1  0  0  0
 59 62  1  0  0  0
 60132  1  0  0  0
 60133  1  0  0  0
 60134  1  0  0  0
 61135  1  0  0  0
 61136  1  0  0  0
 61137  1  0  0  0
 62138  1  0  0  0
 62139  1  0  0  0
 62140  1  0  0  0
 63 65  1  0  0  0
 63141  1  0  0  0
 63142  1  0  0  0
 63143  1  0  0  0
 64144  1  0  0  0
 65145  1  0  0  0
 68 85  1  0  0  0
 71 72  2  0  0  0
 71 74  1  0  0  0
 71146  1  0  0  0
 72 76  1  0  0  0
 72147  1  0  0  0
 73 75  1  0  0  0
 73 76  2  0  0  0
 73148  1  0  0  0
 74 75  2  0  0  0
 74 78  1  0  0  0
 75 79  1  0  0  0
 76 86  1  0  0  0
 77 79  2  0  0  0
 77149  1  0  0  0
 77150  1  0  0  0
 78 80  2  0  0  0
 78151  1  0  0  0
 79152  1  0  0  0
 80 84  1  0  0  0
 80153  1  0  0  0
 81 82  2  0  0  0
 81 85  1  0  0  0
 81154  1  0  0  0
 82 83  1  0  0  0
 82 84  1  0  0  0
 83155  1  0  0  0
 83156  1  0  0  0
 83157  1  0  0  0
 84158  1  0  0  0
 84159  1  0  0  0
 85160  1  0  0  0
 85161  1  0  0  0
 86162  1  0  0  0
M  ISO  4   1 100  68 101  85 101  86 100
M  END
> <chiral flag>
0

> <version>
0

> <s_m_source_file>
/data/baiqing/PycharmProjects/Reinvent-master-3.2/result/LINK_invent/BTK/process_docking_weight1_custom_product_contain_oxygen_bond_distance_aromatic_linkinvent_7_9_3/rearranged_h_0120.sdf

> <i_m_source_file_index>
17

> <r_mmod_Potential_Energy-OPLS-2005>
-6.3741717338562

> <r_mmod_Stretch_Energy-OPLS-2005>
39.4066352844238

> <r_mmod_Bend_Energy-OPLS-2005>
100.943748474121

> <r_mmod_Torsional_Energy-OPLS-2005>
222.128173828125

> <r_mmod_Improper_Torsional_Energy-OPLS-2005>
5.38274526596069

> <r_mmod_Van_der_Waal_Energy-OPLS-2005>
175.606262207031

> <r_mmod_Electrostatic_Energy-OPLS-2005>
-367.042236328125

> <r_mmod_Solvation_Energy-OPLS-2005>
-195.208419799805

> <b_mmod_Minimization_Converged-OPLS-2005>
0

> <r_mmod_RMS_Derivative-OPLS-2005>
3.51341032981873

$$$$
17
                    3D
 Structure written by MMmdl.
156164  0  0  1  0            999 V2000
  -30.6161  -14.6565   20.5214 C   0  0  0  0  0  0
  -30.4407  -12.4084   19.4575 C   0  0  0  0  0  0
  -29.5114  -12.5192   18.2276 C   0  0  0  0  0  0
  -28.0326  -12.3547   18.6359 C   0  0  0  0  0  0
  -27.6522  -13.2216   19.8650 C   0  0  2  0  0  0
  -28.6957  -13.0729   20.9960 C   0  0  0  0  0  0
  -25.2506  -13.8182   20.5594 C   0  0  0  0  0  0
  -24.1812  -13.0452   20.9209 C   0  0  0  0  0  0
  -24.6388  -11.6924   20.8743 C   0  0  0  0  0  0
  -23.9060  -10.4297   21.0408 C   0  0  0  0  0  0
  -24.3601   -9.4210   21.9190 C   0  0  0  0  0  0
  -23.6281   -8.2242   22.0752 C   0  0  0  0  0  0
  -22.4263   -8.0278   21.3543 C   0  0  0  0  0  0
  -21.9906   -9.0260   20.4648 C   0  0  0  0  0  0
  -22.7236  -10.2140   20.3061 C   0  0  0  0  0  0
  -21.6859   -6.0719   22.5272 C   0  0  0  0  0  0
  -21.4014   -6.5620   23.8207 C   0  0  0  0  0  0
  -21.3652   -5.6784   24.9170 C   0  0  0  0  0  0
  -21.6047   -4.3048   24.7221 C   0  0  0  0  0  0
  -21.8821   -3.8135   23.4344 C   0  0  0  0  0  0
  -21.9197   -4.6944   22.3400 C   0  0  0  0  0  0
  -22.7827  -13.5244   21.1863 C   0  0  0  0  0  0
  -22.1670   -4.2126   21.0976 F   0  0  0  0  0  0
  -21.5620   -3.4538   25.7738 F   0  0  0  0  0  0
  -30.0113  -13.4255   20.4397 N   0  0  0  0  0  0
  -26.2967  -12.9379   20.3299 N   0  0  0  0  0  0
  -25.9320  -11.6533   20.5761 N   0  0  0  0  0  0
  -22.0466  -12.8249   22.0432 N   0  0  0  0  0  0
  -25.4136  -15.1884   20.3771 N   0  0  0  0  0  0
  -31.7705  -14.8227   20.1171 O   0  0  0  0  0  0
  -21.6639   -6.8863   21.4236 O   0  0  0  0  0  0
  -22.3507  -14.5539   20.6685 O   0  0  0  0  0  0
  -24.6274  -31.8608   23.2039 C   0  0  0  0  0  0
  -25.9110  -32.4785   23.8374 C   0  0  1  0  0  0
  -27.2203  -27.3134   20.1162 C   0  0  0  0  0  0
  -25.5912  -33.8582   24.2294 N   0  0  0  0  0  0
  -23.4210  -30.4868   21.5474 C   0  0  2  0  0  0
  -24.8671  -28.9479   20.1097 C   0  0  0  0  0  0
  -22.7489  -29.4625   22.4936 C   0  0  0  0  0  0
  -18.0284  -28.1380   22.8483 C   0  0  0  0  0  0
  -24.1471  -36.7281   23.2646 C   0  0  0  0  0  0
  -25.9644  -30.7919   21.3761 C   0  0  0  0  0  0
  -26.0378  -29.4195   20.7167 C   0  0  0  0  0  0
  -27.2176  -28.6144   20.7113 C   0  0  0  0  0  0
  -26.0243  -26.9042   19.4782 C   0  0  0  0  0  0
  -24.8638  -27.6968   19.4795 C   0  0  0  0  0  0
  -23.6364  -29.8293   20.1603 C   0  0  0  0  0  0
  -25.4095  -36.3086   24.0338 C   0  0  1  0  0  0
  -20.5893  -28.3681   23.1284 C   0  0  2  0  0  0
  -20.6770  -26.9399   22.5413 C   0  0  0  0  0  0
  -19.5745  -26.6385   21.5209 C   0  0  0  0  0  0
  -18.1923  -26.7920   22.1623 C   0  0  0  0  0  0
  -19.1541  -28.8844   23.2882 C   0  0  0  0  0  0
  -18.9459  -30.1443   23.8909 C   0  0  0  0  0  0
  -17.6461  -30.6579   24.0567 C   0  0  0  0  0  0
  -25.9039  -34.9456   23.5119 C   0  0  0  0  0  0
  -16.5352  -29.9084   23.6321 C   0  0  0  0  0  0
  -16.7274  -28.6500   23.0343 C   0  0  0  0  0  0
  -26.4486  -31.6584   25.0742 C   0  0  0  0  0  0
  -25.3707  -31.3716   26.1467 C   0  0  0  0  0  0
  -27.0306  -30.3001   24.6185 C   0  0  0  0  0  0
  -27.6066  -32.4299   25.7504 C   0  0  0  0  0  0
  -27.5558  -37.1793   24.8467 C   0  0  0  0  0  0
  -21.4205  -29.3023   22.3670 N   0  0  0  0  0  0
  -26.4268  -37.3778   23.9420 N   0  0  0  0  0  0
  -24.6901  -31.0626   22.0997 N   0  0  0  0  0  0
  -23.4210  -28.8159   23.3010 O   0  0  0  0  0  0
  -28.3219  -26.4395   20.1744 O   0  0  0  0  0  0
  -26.5619  -34.8927   22.4692 O   0  0  0  0  0  0
  -23.5432  -32.1404   23.7364 O   0  0  0  0  0  0
  -30.9562  -17.8679   20.2364 C   0  0  0  0  0  0
  -28.7844  -19.3919   21.1257 C   0  0  0  0  0  0
  -30.9643  -19.2930   20.1175 C   0  0  0  0  0  0
  -28.7961  -17.9676   21.2935 C   0  0  0  0  0  0
  -29.8764  -17.1561   20.8199 C   0  0  0  0  0  0
  -29.8637  -20.0992   20.5299 C   0  0  0  0  0  0
  -29.1537  -23.9457   20.3690 C   0  0  0  0  0  0
  -32.2049  -19.9517   19.5365 C   0  0  0  0  0  0
  -27.6261  -17.3426   22.0436 C   0  0  0  0  0  0
  -28.0174  -24.9893   20.0358 C   0  0  0  0  0  0
  -28.7872  -22.4032   20.4793 C   0  0  0  0  0  0
  -29.8163  -15.6895   20.9489 N   0  0  0  0  0  0
  -30.3185  -24.3266   20.5383 O   0  0  0  0  0  0
  -29.9418  -21.5029   20.3683 O   0  0  0  0  0  0
  -31.4819  -12.5349   19.1574 H   0  0  0  0  0  0
  -30.3761  -11.4114   19.8960 H   0  0  0  0  0  0
  -29.7803  -11.7704   17.4807 H   0  0  0  0  0  0
  -29.6532  -13.4901   17.7502 H   0  0  0  0  0  0
  -27.8655  -11.3018   18.8625 H   0  0  0  0  0  0
  -27.3818  -12.5918   17.7932 H   0  0  0  0  0  0
  -27.6739  -14.2579   19.5276 H   0  0  0  0  0  0
  -28.7128  -12.0468   21.3689 H   0  0  0  0  0  0
  -28.4348  -13.6935   21.8540 H   0  0  0  0  0  0
  -25.2739   -9.5695   22.4774 H   0  0  0  0  0  0
  -23.9987   -7.4637   22.7480 H   0  0  0  0  0  0
  -21.0838   -8.8785   19.8959 H   0  0  0  0  0  0
  -22.3695  -10.9667   19.6162 H   0  0  0  0  0  0
  -21.2018   -7.6132   23.9699 H   0  0  0  0  0  0
  -21.1466   -6.0511   25.9069 H   0  0  0  0  0  0
  -22.0606   -2.7596   23.2856 H   0  0  0  0  0  0
  -22.4061  -11.9913   22.4837 H   0  0  0  0  0  0
  -21.1065  -13.1253   22.2589 H   0  0  0  0  0  0
  -24.6356  -15.8337   20.4615 H   0  0  0  0  0  0
  -26.2320  -15.6157   19.9621 H   0  0  0  0  0  0
  -26.7191  -32.5454   23.1137 H   0  0  0  0  0  0
  -25.0023  -33.9719   25.0419 H   0  0  0  0  0  0
  -22.7135  -31.3069   21.4092 H   0  0  0  0  0  0
  -23.3727  -35.9620   23.3344 H   0  0  0  0  0  0
  -24.3547  -36.8858   22.2050 H   0  0  0  0  0  0
  -23.7235  -37.6503   23.6637 H   0  0  0  0  0  0
  -26.0944  -31.5539   20.6065 H   0  0  0  0  0  0
  -26.8457  -30.8418   22.0039 H   0  0  0  0  0  0
  -28.1129  -28.9697   21.2021 H   0  0  0  0  0  0
  -25.9478  -25.9520   18.9772 H   0  0  0  0  0  0
  -23.9686  -27.3327   18.9948 H   0  0  0  0  0  0
  -23.7621  -30.6110   19.4105 H   0  0  0  0  0  0
  -22.7552  -29.2640   19.8515 H   0  0  0  0  0  0
  -25.1269  -36.1935   25.0827 H   0  0  0  0  0  0
  -20.9981  -28.3252   24.1410 H   0  0  0  0  0  0
  -20.5667  -26.2283   23.3611 H   0  0  0  0  0  0
  -21.6641  -26.7425   22.1215 H   0  0  0  0  0  0
  -19.6911  -25.6298   21.1230 H   0  0  0  0  0  0
  -19.6686  -27.3212   20.6747 H   0  0  0  0  0  0
  -17.4192  -26.6665   21.4024 H   0  0  0  0  0  0
  -18.0334  -26.0067   22.9028 H   0  0  0  0  0  0
  -19.7934  -30.7244   24.2305 H   0  0  0  0  0  0
  -17.5016  -31.6251   24.5187 H   0  0  0  0  0  0
  -15.5354  -30.2985   23.7647 H   0  0  0  0  0  0
  -15.8671  -28.0823   22.7060 H   0  0  0  0  0  0
  -24.5879  -30.7081   25.7780 H   0  0  0  0  0  0
  -24.8903  -32.2873   26.4909 H   0  0  0  0  0  0
  -25.8020  -30.8868   27.0231 H   0  0  0  0  0  0
  -26.2856  -29.6767   24.1231 H   0  0  0  0  0  0
  -27.4015  -29.7248   25.4676 H   0  0  0  0  0  0
  -27.8731  -30.4274   23.9387 H   0  0  0  0  0  0
  -27.2699  -33.3596   26.2097 H   0  0  0  0  0  0
  -28.3860  -32.6849   25.0314 H   0  0  0  0  0  0
  -28.0754  -31.8406   26.5394 H   0  0  0  0  0  0
  -28.2603  -38.0066   24.7484 H   0  0  0  0  0  0
  -28.1017  -36.2590   24.6312 H   0  0  0  0  0  0
  -27.2276  -37.1489   25.8874 H   0  0  0  0  0  0
  -20.9394  -29.8709   21.6850 H   0  0  0  0  0  0
  -26.0147  -38.2852   24.1420 H   0  0  0  0  0  0
  -31.8160  -17.3225   19.8759 H   0  0  0  0  0  0
  -27.9355  -19.9497   21.4965 H   0  0  0  0  0  0
  -33.0998  -19.3998   19.8262 H   0  0  0  0  0  0
  -32.3291  -20.9754   19.8928 H   0  0  0  0  0  0
  -32.1557  -19.9706   18.4482 H   0  0  0  0  0  0
  -27.7999  -17.4051   23.1195 H   0  0  0  0  0  0
  -27.4682  -16.2939   21.7982 H   0  0  0  0  0  0
  -26.6945  -17.8683   21.8267 H   0  0  0  0  0  0
  -27.1603  -24.7451   20.6638 H   0  0  0  0  0  0
  -27.7234  -24.7963   19.0040 H   0  0  0  0  0  0
  -28.0679  -22.1577   19.6964 H   0  0  0  0  0  0
  -28.2896  -22.2407   21.4352 H   0  0  0  0  0  0
  -28.9372  -15.3518   21.3070 H   0  0  0  0  0  0
  1 25  1  0  0  0
  1 30  2  0  0  0
  1 82  1  0  0  0
  2  3  1  0  0  0
  2 25  1  0  0  0
  2 85  1  0  0  0
  2 86  1  0  0  0
  3  4  1  0  0  0
  3 87  1  0  0  0
  3 88  1  0  0  0
  4  5  1  0  0  0
  4 89  1  0  0  0
  4 90  1  0  0  0
  5  6  1  0  0  0
  5 26  1  0  0  0
  5 91  1  0  0  0
  6 25  1  0  0  0
  6 92  1  0  0  0
  6 93  1  0  0  0
  7  8  2  0  0  0
  7 26  1  0  0  0
  7 29  1  0  0  0
  8  9  1  0  0  0
  8 22  1  0  0  0
  9 10  1  0  0  0
  9 27  2  0  0  0
 10 11  2  0  0  0
 10 15  1  0  0  0
 11 12  1  0  0  0
 11 94  1  0  0  0
 12 13  2  0  0  0
 12 95  1  0  0  0
 13 14  1  0  0  0
 13 31  1  0  0  0
 14 15  2  0  0  0
 14 96  1  0  0  0
 15 97  1  0  0  0
 16 17  2  0  0  0
 16 21  1  0  0  0
 16 31  1  0  0  0
 17 18  1  0  0  0
 17 98  1  0  0  0
 18 19  2  0  0  0
 18 99  1  0  0  0
 19 20  1  0  0  0
 19 24  1  0  0  0
 20 21  2  0  0  0
 20100  1  0  0  0
 21 23  1  0  0  0
 22 28  1  0  0  0
 22 32  2  0  0  0
 26 27  1  0  0  0
 28101  1  0  0  0
 28102  1  0  0  0
 29103  1  0  0  0
 29104  1  0  0  0
 33 34  1  0  0  0
 33 66  1  0  0  0
 33 70  2  0  0  0
 34 36  1  0  0  0
 34 59  1  0  0  0
 34105  1  0  0  0
 35 44  2  0  0  0
 35 45  1  0  0  0
 35 68  1  0  0  0
 36 56  1  0  0  0
 36106  1  0  0  0
 37 39  1  0  0  0
 37 47  1  0  0  0
 37 66  1  0  0  0
 37107  1  0  0  0
 38 43  2  0  0  0
 38 46  1  0  0  0
 38 47  1  0  0  0
 39 64  1  0  0  0
 39 67  2  0  0  0
 40 52  1  0  0  0
 40 53  2  0  0  0
 40 58  1  0  0  0
 41108  1  0  0  0
 41109  1  0  0  0
 41110  1  0  0  0
 41 48  1  0  0  0
 42 43  1  0  0  0
 42 66  1  0  0  0
 42111  1  0  0  0
 42112  1  0  0  0
 43 44  1  0  0  0
 44113  1  0  0  0
 45 46  2  0  0  0
 45114  1  0  0  0
 46115  1  0  0  0
 47116  1  0  0  0
 47117  1  0  0  0
 48 56  1  0  0  0
 48 65  1  0  0  0
 48118  1  0  0  0
 49 50  1  0  0  0
 49 53  1  0  0  0
 49 64  1  0  0  0
 49119  1  0  0  0
 50 51  1  0  0  0
 50120  1  0  0  0
 50121  1  0  0  0
 51 52  1  0  0  0
 51122  1  0  0  0
 51123  1  0  0  0
 52124  1  0  0  0
 52125  1  0  0  0
 53 54  1  0  0  0
 54 55  2  0  0  0
 54126  1  0  0  0
 55 57  1  0  0  0
 55127  1  0  0  0
 56 69  2  0  0  0
 57 58  2  0  0  0
 57128  1  0  0  0
 58129  1  0  0  0
 59 60  1  0  0  0
 59 61  1  0  0  0
 59 62  1  0  0  0
 60130  1  0  0  0
 60131  1  0  0  0
 60132  1  0  0  0
 61133  1  0  0  0
 61134  1  0  0  0
 61135  1  0  0  0
 62136  1  0  0  0
 62137  1  0  0  0
 62138  1  0  0  0
 63 65  1  0  0  0
 63139  1  0  0  0
 63140  1  0  0  0
 63141  1  0  0  0
 64142  1  0  0  0
 65143  1  0  0  0
 68 80  1  0  0  0
 71 73  2  0  0  0
 71 75  1  0  0  0
 71144  1  0  0  0
 72 74  1  0  0  0
 72 76  2  0  0  0
 72145  1  0  0  0
 73 76  1  0  0  0
 73 78  1  0  0  0
 74 75  2  0  0  0
 74 79  1  0  0  0
 75 82  1  0  0  0
 76 84  1  0  0  0
 77 80  1  0  0  0
 77 81  1  0  0  0
 77 83  2  0  0  0
 78146  1  0  0  0
 78147  1  0  0  0
 78148  1  0  0  0
 79149  1  0  0  0
 79150  1  0  0  0
 79151  1  0  0  0
 80152  1  0  0  0
 80153  1  0  0  0
 81 84  1  0  0  0
 81154  1  0  0  0
 81155  1  0  0  0
 82156  1  0  0  0
M  ISO  4   1 100  68 101  80 101  82 100
M  END
> <chiral flag>
0

> <version>
0

> <s_m_source_file>
/data/baiqing/PycharmProjects/Reinvent-master-3.2/result/LINK_invent/BTK/process_docking_weight1_custom_product_contain_oxygen_bond_distance_aromatic_linkinvent_7_9_3/rearranged_h_0120.sdf

> <i_m_source_file_index>
18

> <r_mmod_Potential_Energy-OPLS-2005>
45.2642250061035

> <r_mmod_Stretch_Energy-OPLS-2005>
86.7859420776367

> <r_mmod_Bend_Energy-OPLS-2005>
144.843475341797

> <r_mmod_Torsional_Energy-OPLS-2005>
210.396011352539

> <r_mmod_Improper_Torsional_Energy-OPLS-2005>
3.96345186233521

> <r_mmod_Van_der_Waal_Energy-OPLS-2005>
145.739700317383

> <r_mmod_Electrostatic_Energy-OPLS-2005>
-359.184997558594

> <r_mmod_Solvation_Energy-OPLS-2005>
-241.015090942383

> <b_mmod_Minimization_Converged-OPLS-2005>
0

> <r_mmod_RMS_Derivative-OPLS-2005>
2.46341967582703

$$$$
18
                    3D
 Structure written by MMmdl.
156164  0  0  1  0            999 V2000
  -30.7470  -14.4562   20.5372 C   0  0  0  0  0  0
  -30.4033  -12.2895   19.4187 C   0  0  0  0  0  0
  -29.4846  -12.4896   18.1977 C   0  0  0  0  0  0
  -28.0066  -12.3646   18.6164 C   0  0  0  0  0  0
  -27.6583  -13.2154   19.8689 C   0  0  2  0  0  0
  -28.7071  -13.0349   20.9907 C   0  0  0  0  0  0
  -25.2589  -13.8189   20.5699 C   0  0  0  0  0  0
  -24.1846  -13.0452   20.9191 C   0  0  0  0  0  0
  -24.6417  -11.6921   20.8756 C   0  0  0  0  0  0
  -23.9095  -10.4306   21.0429 C   0  0  0  0  0  0
  -24.3641   -9.4211   21.9203 C   0  0  0  0  0  0
  -23.6310   -8.2248   22.0764 C   0  0  0  0  0  0
  -22.4288   -8.0299   21.3560 C   0  0  0  0  0  0
  -21.9939   -9.0273   20.4656 C   0  0  0  0  0  0
  -22.7272  -10.2150   20.3077 C   0  0  0  0  0  0
  -21.6858   -6.0756   22.5285 C   0  0  0  0  0  0
  -21.4011   -6.5655   23.8215 C   0  0  0  0  0  0
  -21.3655   -5.6804   24.9179 C   0  0  0  0  0  0
  -21.6045   -4.3069   24.7221 C   0  0  0  0  0  0
  -21.8816   -3.8167   23.4342 C   0  0  0  0  0  0
  -21.9188   -4.6987   22.3407 C   0  0  0  0  0  0
  -22.7869  -13.5247   21.1843 C   0  0  0  0  0  0
  -22.1661   -4.2170   21.0978 F   0  0  0  0  0  0
  -21.5627   -3.4550   25.7739 F   0  0  0  0  0  0
  -30.0343  -13.3041   20.4170 N   0  0  0  0  0  0
  -26.3025  -12.9370   20.3382 N   0  0  0  0  0  0
  -25.9352  -11.6522   20.5813 N   0  0  0  0  0  0
  -22.0510  -12.8228   22.0394 N   0  0  0  0  0  0
  -25.4280  -15.1908   20.4072 N   0  0  0  0  0  0
  -31.8905  -14.5710   20.0903 O   0  0  0  0  0  0
  -21.6648   -6.8899   21.4250 O   0  0  0  0  0  0
  -22.3559  -14.5557   20.6702 O   0  0  0  0  0  0
  -24.6189  -31.8667   23.2107 C   0  0  0  0  0  0
  -25.9074  -32.4816   23.8393 C   0  0  1  0  0  0
  -27.2237  -27.4029   20.0854 C   0  0  0  0  0  0
  -25.5936  -33.8610   24.2330 N   0  0  0  0  0  0
  -23.4055  -30.4953   21.5536 C   0  0  2  0  0  0
  -24.8473  -28.9662   20.1090 C   0  0  0  0  0  0
  -22.7419  -29.4671   22.4983 C   0  0  0  0  0  0
  -18.0265  -28.1380   22.8489 C   0  0  0  0  0  0
  -24.1494  -36.7298   23.2632 C   0  0  0  0  0  0
  -25.9393  -30.8196   21.3705 C   0  0  0  0  0  0
  -26.0123  -29.4548   20.7129 C   0  0  0  0  0  0
  -27.2009  -28.6804   20.7029 C   0  0  0  0  0  0
  -26.0361  -26.9548   19.4540 C   0  0  0  0  0  0
  -24.8567  -27.7169   19.4754 C   0  0  0  0  0  0
  -23.6116  -29.8367   20.1654 C   0  0  0  0  0  0
  -25.4114  -36.3102   24.0335 C   0  0  1  0  0  0
  -20.5865  -28.3677   23.1309 C   0  0  2  0  0  0
  -20.6772  -26.9418   22.5407 C   0  0  0  0  0  0
  -19.5738  -26.6391   21.5221 C   0  0  0  0  0  0
  -18.1910  -26.7928   22.1625 C   0  0  0  0  0  0
  -19.1520  -28.8837   23.2900 C   0  0  0  0  0  0
  -18.9455  -30.1444   23.8916 C   0  0  0  0  0  0
  -17.6460  -30.6592   24.0567 C   0  0  0  0  0  0
  -25.9055  -34.9470   23.5129 C   0  0  0  0  0  0
  -16.5346  -29.9090   23.6338 C   0  0  0  0  0  0
  -16.7262  -28.6506   23.0361 C   0  0  0  0  0  0
  -26.4512  -31.6580   25.0711 C   0  0  0  0  0  0
  -25.3772  -31.3658   26.1449 C   0  0  0  0  0  0
  -27.0344  -30.3026   24.6078 C   0  0  0  0  0  0
  -27.6089  -32.4291   25.7465 C   0  0  0  0  0  0
  -27.5585  -37.1791   24.8458 C   0  0  0  0  0  0
  -21.4155  -29.3037   22.3711 N   0  0  0  0  0  0
  -26.4290  -37.3794   23.9430 N   0  0  0  0  0  0
  -24.6732  -31.0735   22.1035 N   0  0  0  0  0  0
  -23.4181  -28.8198   23.3027 O   0  0  0  0  0  0
  -28.3744  -26.6213   20.1250 O   0  0  0  0  0  0
  -26.5601  -34.8920   22.4686 O   0  0  0  0  0  0
  -23.5382  -32.1433   23.7509 O   0  0  0  0  0  0
  -31.6715  -19.4560   21.4970 C   0  0  0  0  0  0
  -29.8797  -17.9878   20.7432 C   0  0  0  0  0  0
  -31.8793  -17.0382   21.7638 C   0  0  0  0  0  0
  -30.4024  -19.3012   20.8916 C   0  0  0  0  0  0
  -32.4074  -18.3331   21.9310 C   0  0  0  0  0  0
  -30.6141  -16.8484   21.1628 C   0  0  0  0  0  0
  -29.6460  -20.4626   20.3551 C   0  0  0  0  0  0
  -30.0638  -21.7466   20.2271 C   0  0  0  0  0  0
  -29.2892  -24.2592   20.2027 C   0  0  0  0  0  0
  -33.7789  -18.5149   22.5557 C   0  0  0  0  0  0
  -29.2209  -22.8483   19.5743 C   0  0  0  0  0  0
  -28.2259  -25.2495   19.6813 C   0  0  0  0  0  0
  -30.0755  -15.5322   20.9944 N   0  0  0  0  0  0
  -30.1271  -24.5682   21.0573 O   0  0  0  0  0  0
  -31.4524  -12.3416   19.1212 H   0  0  0  0  0  0
  -30.2653  -11.2903   19.8356 H   0  0  0  0  0  0
  -29.7150  -11.7514   17.4286 H   0  0  0  0  0  0
  -29.6625  -13.4678   17.7467 H   0  0  0  0  0  0
  -27.8105  -11.3100   18.8164 H   0  0  0  0  0  0
  -27.3556  -12.6383   17.7849 H   0  0  0  0  0  0
  -27.6908  -14.2588   19.5534 H   0  0  0  0  0  0
  -28.6783  -12.0187   21.3853 H   0  0  0  0  0  0
  -28.4853  -13.6863   21.8371 H   0  0  0  0  0  0
  -25.2784   -9.5684   22.4779 H   0  0  0  0  0  0
  -24.0018   -7.4641   22.7484 H   0  0  0  0  0  0
  -21.0873   -8.8802   19.8956 H   0  0  0  0  0  0
  -22.3745  -10.9698   19.6189 H   0  0  0  0  0  0
  -21.2003   -7.6160   23.9729 H   0  0  0  0  0  0
  -21.1479   -6.0533   25.9077 H   0  0  0  0  0  0
  -22.0599   -2.7627   23.2838 H   0  0  0  0  0  0
  -22.4114  -11.9867   22.4751 H   0  0  0  0  0  0
  -21.1137  -13.1264   22.2617 H   0  0  0  0  0  0
  -24.6579  -15.8431   20.5093 H   0  0  0  0  0  0
  -26.2747  -15.6306   20.0702 H   0  0  0  0  0  0
  -26.7126  -32.5518   23.1129 H   0  0  0  0  0  0
  -25.0108  -33.9779   25.0493 H   0  0  0  0  0  0
  -22.6971  -31.3154   21.4198 H   0  0  0  0  0  0
  -23.3762  -35.9624   23.3307 H   0  0  0  0  0  0
  -24.3580  -36.8917   22.2043 H   0  0  0  0  0  0
  -23.7254  -37.6509   23.6640 H   0  0  0  0  0  0
  -26.0547  -31.5854   20.6025 H   0  0  0  0  0  0
  -26.8289  -30.8702   21.9874 H   0  0  0  0  0  0
  -28.0936  -29.0494   21.1865 H   0  0  0  0  0  0
  -25.9823  -26.0150   18.9246 H   0  0  0  0  0  0
  -23.9646  -27.3441   18.9907 H   0  0  0  0  0  0
  -23.7175  -30.6172   19.4106 H   0  0  0  0  0  0
  -22.7338  -29.2596   19.8679 H   0  0  0  0  0  0
  -25.1293  -36.1946   25.0827 H   0  0  0  0  0  0
  -20.9965  -28.3246   24.1425 H   0  0  0  0  0  0
  -20.5718  -26.2291   23.3600 H   0  0  0  0  0  0
  -21.6637  -26.7472   22.1175 H   0  0  0  0  0  0
  -19.6926  -25.6308   21.1223 H   0  0  0  0  0  0
  -19.6686  -27.3223   20.6765 H   0  0  0  0  0  0
  -17.4203  -26.6695   21.4011 H   0  0  0  0  0  0
  -18.0314  -26.0048   22.9002 H   0  0  0  0  0  0
  -19.7934  -30.7256   24.2297 H   0  0  0  0  0  0
  -17.5012  -31.6276   24.5164 H   0  0  0  0  0  0
  -15.5355  -30.3007   23.7654 H   0  0  0  0  0  0
  -15.8658  -28.0836   22.7086 H   0  0  0  0  0  0
  -24.5964  -30.6998   25.7770 H   0  0  0  0  0  0
  -24.8935  -32.2790   26.4915 H   0  0  0  0  0  0
  -25.8116  -30.8803   27.0194 H   0  0  0  0  0  0
  -26.2862  -29.6766   24.1199 H   0  0  0  0  0  0
  -27.4208  -29.7290   25.4515 H   0  0  0  0  0  0
  -27.8666  -30.4373   23.9164 H   0  0  0  0  0  0
  -27.2724  -33.3593   26.2053 H   0  0  0  0  0  0
  -28.3883  -32.6853   25.0272 H   0  0  0  0  0  0
  -28.0764  -31.8399   26.5367 H   0  0  0  0  0  0
  -28.2573  -38.0115   24.7550 H   0  0  0  0  0  0
  -28.1116  -36.2656   24.6225 H   0  0  0  0  0  0
  -27.2293  -37.1355   25.8851 H   0  0  0  0  0  0
  -20.9327  -29.8760   21.6927 H   0  0  0  0  0  0
  -26.0178  -38.2868   24.1458 H   0  0  0  0  0  0
  -32.0978  -20.4407   21.6264 H   0  0  0  0  0  0
  -28.9208  -17.8504   20.2637 H   0  0  0  0  0  0
  -32.4583  -16.1838   22.0900 H   0  0  0  0  0  0
  -28.6452  -20.2336   20.0129 H   0  0  0  0  0  0
  -31.0521  -22.0424   20.5492 H   0  0  0  0  0  0
  -33.8115  -19.4087   23.1791 H   0  0  0  0  0  0
  -34.5399  -18.6117   21.7807 H   0  0  0  0  0  0
  -34.0450  -17.6637   23.1826 H   0  0  0  0  0  0
  -28.1777  -22.5330   19.5428 H   0  0  0  0  0  0
  -29.5429  -22.9393   18.5364 H   0  0  0  0  0  0
  -27.2798  -24.8350   20.0279 H   0  0  0  0  0  0
  -28.2214  -25.2210   18.5914 H   0  0  0  0  0  0
  -29.0843  -15.4126   21.1350 H   0  0  0  0  0  0
  1 25  1  0  0  0
  1 30  2  0  0  0
  1 83  1  0  0  0
  2  3  1  0  0  0
  2 25  1  0  0  0
  2 85  1  0  0  0
  2 86  1  0  0  0
  3  4  1  0  0  0
  3 87  1  0  0  0
  3 88  1  0  0  0
  4  5  1  0  0  0
  4 89  1  0  0  0
  4 90  1  0  0  0
  5  6  1  0  0  0
  5 26  1  0  0  0
  5 91  1  0  0  0
  6 25  1  0  0  0
  6 92  1  0  0  0
  6 93  1  0  0  0
  7  8  2  0  0  0
  7 26  1  0  0  0
  7 29  1  0  0  0
  8  9  1  0  0  0
  8 22  1  0  0  0
  9 10  1  0  0  0
  9 27  2  0  0  0
 10 11  2  0  0  0
 10 15  1  0  0  0
 11 12  1  0  0  0
 11 94  1  0  0  0
 12 13  2  0  0  0
 12 95  1  0  0  0
 13 14  1  0  0  0
 13 31  1  0  0  0
 14 15  2  0  0  0
 14 96  1  0  0  0
 15 97  1  0  0  0
 16 17  2  0  0  0
 16 21  1  0  0  0
 16 31  1  0  0  0
 17 18  1  0  0  0
 17 98  1  0  0  0
 18 19  2  0  0  0
 18 99  1  0  0  0
 19 20  1  0  0  0
 19 24  1  0  0  0
 20 21  2  0  0  0
 20100  1  0  0  0
 21 23  1  0  0  0
 22 28  1  0  0  0
 22 32  2  0  0  0
 26 27  1  0  0  0
 28101  1  0  0  0
 28102  1  0  0  0
 29103  1  0  0  0
 29104  1  0  0  0
 33 34  1  0  0  0
 33 66  1  0  0  0
 33 70  2  0  0  0
 34 36  1  0  0  0
 34 59  1  0  0  0
 34105  1  0  0  0
 35 44  2  0  0  0
 35 45  1  0  0  0
 35 68  1  0  0  0
 36 56  1  0  0  0
 36106  1  0  0  0
 37 39  1  0  0  0
 37 47  1  0  0  0
 37 66  1  0  0  0
 37107  1  0  0  0
 38 43  2  0  0  0
 38 46  1  0  0  0
 38 47  1  0  0  0
 39 64  1  0  0  0
 39 67  2  0  0  0
 40 52  1  0  0  0
 40 53  2  0  0  0
 40 58  1  0  0  0
 41108  1  0  0  0
 41109  1  0  0  0
 41110  1  0  0  0
 41 48  1  0  0  0
 42 43  1  0  0  0
 42 66  1  0  0  0
 42111  1  0  0  0
 42112  1  0  0  0
 43 44  1  0  0  0
 44113  1  0  0  0
 45 46  2  0  0  0
 45114  1  0  0  0
 46115  1  0  0  0
 47116  1  0  0  0
 47117  1  0  0  0
 48 56  1  0  0  0
 48 65  1  0  0  0
 48118  1  0  0  0
 49 50  1  0  0  0
 49 53  1  0  0  0
 49 64  1  0  0  0
 49119  1  0  0  0
 50 51  1  0  0  0
 50120  1  0  0  0
 50121  1  0  0  0
 51 52  1  0  0  0
 51122  1  0  0  0
 51123  1  0  0  0
 52124  1  0  0  0
 52125  1  0  0  0
 53 54  1  0  0  0
 54 55  2  0  0  0
 54126  1  0  0  0
 55 57  1  0  0  0
 55127  1  0  0  0
 56 69  2  0  0  0
 57 58  2  0  0  0
 57128  1  0  0  0
 58129  1  0  0  0
 59 60  1  0  0  0
 59 61  1  0  0  0
 59 62  1  0  0  0
 60130  1  0  0  0
 60131  1  0  0  0
 60132  1  0  0  0
 61133  1  0  0  0
 61134  1  0  0  0
 61135  1  0  0  0
 62136  1  0  0  0
 62137  1  0  0  0
 62138  1  0  0  0
 63 65  1  0  0  0
 63139  1  0  0  0
 63140  1  0  0  0
 63141  1  0  0  0
 64142  1  0  0  0
 65143  1  0  0  0
 68 82  1  0  0  0
 71 74  2  0  0  0
 71 75  1  0  0  0
 71144  1  0  0  0
 72 74  1  0  0  0
 72 76  2  0  0  0
 72145  1  0  0  0
 73 75  2  0  0  0
 73 76  1  0  0  0
 73146  1  0  0  0
 74 77  1  0  0  0
 75 80  1  0  0  0
 76 83  1  0  0  0
 77 78  2  0  0  0
 77147  1  0  0  0
 78 81  1  0  0  0
 78148  1  0  0  0
 79 81  1  0  0  0
 79 82  1  0  0  0
 79 84  2  0  0  0
 80149  1  0  0  0
 80150  1  0  0  0
 80151  1  0  0  0
 81152  1  0  0  0
 81153  1  0  0  0
 82154  1  0  0  0
 82155  1  0  0  0
 83156  1  0  0  0
M  ISO  4   1 100  68 101  82 101  83 100
M  END
> <chiral flag>
0

> <version>
0

> <s_m_source_file>
/data/baiqing/PycharmProjects/Reinvent-master-3.2/result/LINK_invent/BTK/process_docking_weight1_custom_product_contain_oxygen_bond_distance_aromatic_linkinvent_7_9_3/rearranged_h_0120.sdf

> <i_m_source_file_index>
19

> <r_mmod_Potential_Energy-OPLS-2005>
-11.5453224182129

> <r_mmod_Stretch_Energy-OPLS-2005>
41.1779747009277

> <r_mmod_Bend_Energy-OPLS-2005>
102.096420288086

> <r_mmod_Torsional_Energy-OPLS-2005>
212.873336791992

> <r_mmod_Improper_Torsional_Energy-OPLS-2005>
4.60834646224976

> <r_mmod_Van_der_Waal_Energy-OPLS-2005>
161.993469238281

> <r_mmod_Electrostatic_Energy-OPLS-2005>
-322.513458251953

> <r_mmod_Solvation_Energy-OPLS-2005>
-230.898284912109

> <b_mmod_Minimization_Converged-OPLS-2005>
0

> <r_mmod_RMS_Derivative-OPLS-2005>
2.53947138786316

$$$$
19
                    3D
 Structure written by MMmdl.
153161  0  0  1  0            999 V2000
  -30.6095  -14.7408   20.4566 C   0  0  0  0  0  0
  -30.4329  -12.4522   19.4622 C   0  0  0  0  0  0
  -29.5081  -12.4995   18.2271 C   0  0  0  0  0  0
  -28.0350  -12.3208   18.6449 C   0  0  0  0  0  0
  -27.6390  -13.2275   19.8408 C   0  0  2  0  0  0
  -28.6851  -13.1667   20.9744 C   0  0  0  0  0  0
  -25.2499  -13.8179   20.5673 C   0  0  0  0  0  0
  -24.1796  -13.0430   20.9211 C   0  0  0  0  0  0
  -24.6389  -11.6910   20.8755 C   0  0  0  0  0  0
  -23.9066  -10.4287   21.0411 C   0  0  0  0  0  0
  -24.3619   -9.4203   21.9185 C   0  0  0  0  0  0
  -23.6294   -8.2243   22.0757 C   0  0  0  0  0  0
  -22.4274   -8.0281   21.3548 C   0  0  0  0  0  0
  -21.9909   -9.0255   20.4650 C   0  0  0  0  0  0
  -22.7242  -10.2134   20.3057 C   0  0  0  0  0  0
  -21.6849   -6.0738   22.5282 C   0  0  0  0  0  0
  -21.4011   -6.5641   23.8216 C   0  0  0  0  0  0
  -21.3658   -5.6792   24.9177 C   0  0  0  0  0  0
  -21.6041   -4.3056   24.7225 C   0  0  0  0  0  0
  -21.8820   -3.8149   23.4346 C   0  0  0  0  0  0
  -21.9191   -4.6966   22.3402 C   0  0  0  0  0  0
  -22.7818  -13.5220   21.1867 C   0  0  0  0  0  0
  -22.1661   -4.2158   21.0978 F   0  0  0  0  0  0
  -21.5630   -3.4536   25.7733 F   0  0  0  0  0  0
  -29.9829  -13.5178   20.3850 N   0  0  0  0  0  0
  -26.2922  -12.9383   20.3230 N   0  0  0  0  0  0
  -25.9311  -11.6533   20.5730 N   0  0  0  0  0  0
  -22.0458  -12.8223   22.0425 N   0  0  0  0  0  0
  -25.4158  -15.1903   20.4084 N   0  0  0  0  0  0
  -31.8107  -14.8274   20.1840 O   0  0  0  0  0  0
  -21.6636   -6.8882   21.4244 O   0  0  0  0  0  0
  -22.3505  -14.5519   20.6699 O   0  0  0  0  0  0
  -24.6300  -31.8559   23.1963 C   0  0  0  0  0  0
  -25.9124  -32.4759   23.8318 C   0  0  1  0  0  0
  -27.2253  -27.2724   20.1352 C   0  0  0  0  0  0
  -25.5914  -33.8559   24.2244 N   0  0  0  0  0  0
  -23.4268  -30.4761   21.5398 C   0  0  2  0  0  0
  -24.8752  -28.9144   20.1176 C   0  0  0  0  0  0
  -22.7490  -29.4615   22.4920 C   0  0  0  0  0  0
  -18.0289  -28.1397   22.8488 C   0  0  0  0  0  0
  -24.1485  -36.7281   23.2641 C   0  0  0  0  0  0
  -25.9704  -30.7717   21.3727 C   0  0  0  0  0  0
  -26.0467  -29.3920   20.7208 C   0  0  0  0  0  0
  -27.2288  -28.5852   20.7127 C   0  0  0  0  0  0
  -26.0327  -26.8494   19.5153 C   0  0  0  0  0  0
  -24.8724  -27.6508   19.5030 C   0  0  0  0  0  0
  -23.6455  -29.8018   20.1590 C   0  0  0  0  0  0
  -25.4113  -36.3067   24.0324 C   0  0  1  0  0  0
  -20.5890  -28.3701   23.1273 C   0  0  2  0  0  0
  -20.6778  -26.9419   22.5409 C   0  0  0  0  0  0
  -19.5752  -26.6388   21.5214 C   0  0  0  0  0  0
  -18.1935  -26.7936   22.1627 C   0  0  0  0  0  0
  -19.1542  -28.8868   23.2877 C   0  0  0  0  0  0
  -18.9464  -30.1469   23.8891 C   0  0  0  0  0  0
  -17.6463  -30.6594   24.0568 C   0  0  0  0  0  0
  -25.9054  -34.9442   23.5091 C   0  0  0  0  0  0
  -16.5356  -29.9091   23.6338 C   0  0  0  0  0  0
  -16.7274  -28.6513   23.0353 C   0  0  0  0  0  0
  -26.4493  -31.6585   25.0709 C   0  0  0  0  0  0
  -25.3709  -31.3747   26.1426 C   0  0  0  0  0  0
  -27.0342  -30.3001   24.6190 C   0  0  0  0  0  0
  -27.6049  -32.4327   25.7478 C   0  0  0  0  0  0
  -27.5576  -37.1794   24.8461 C   0  0  0  0  0  0
  -21.4199  -29.3048   22.3661 N   0  0  0  0  0  0
  -26.4286  -37.3766   23.9407 N   0  0  0  0  0  0
  -24.6949  -31.0524   22.0932 N   0  0  0  0  0  0
  -23.4190  -28.8175   23.3035 O   0  0  0  0  0  0
  -28.3296  -26.3989   20.1178 O   0  0  0  0  0  0
  -26.5630  -34.8919   22.4660 O   0  0  0  0  0  0
  -23.5448  -32.1372   23.7266 O   0  0  0  0  0  0
  -31.6737  -18.9479   21.7895 C   0  0  0  0  0  0
  -30.8965  -20.0349   21.3456 C   0  0  0  0  0  0
  -31.3187  -17.6187   21.4955 C   0  0  0  0  0  0
  -29.7316  -19.8521   20.5695 C   0  0  0  0  0  0
  -29.3650  -18.4597   20.2983 C   0  0  0  0  0  0
  -30.1599  -17.3127   20.7497 C   0  0  0  0  0  0
  -29.0070  -21.1396   20.0860 C   0  0  0  0  0  0
  -29.0968  -22.4491   20.5505 C   0  0  0  0  0  0
  -28.4635  -23.7210   19.9370 C   0  0  0  0  0  0
  -28.1070  -18.2045   19.4848 C   0  0  0  0  0  0
  -28.2066  -25.0585   20.7831 C   0  0  0  0  0  0
  -29.8133  -15.8772   20.5605 N   0  0  0  0  0  0
  -28.1165  -23.7290   18.7518 O   0  0  0  0  0  0
  -31.4727  -12.5820   19.1571 H   0  0  0  0  0  0
  -30.3817  -11.4773   19.9496 H   0  0  0  0  0  0
  -29.7931  -11.7252   17.5137 H   0  0  0  0  0  0
  -29.6326  -13.4522   17.7098 H   0  0  0  0  0  0
  -27.8985  -11.2739   18.9178 H   0  0  0  0  0  0
  -27.3756  -12.5014   17.7954 H   0  0  0  0  0  0
  -27.6294  -14.2460   19.4520 H   0  0  0  0  0  0
  -28.7216  -12.1712   21.4190 H   0  0  0  0  0  0
  -28.4224  -13.8546   21.7799 H   0  0  0  0  0  0
  -25.2765   -9.5677   22.4758 H   0  0  0  0  0  0
  -24.0003   -7.4629   22.7471 H   0  0  0  0  0  0
  -21.0842   -8.8773   19.8953 H   0  0  0  0  0  0
  -22.3699  -10.9673   19.6166 H   0  0  0  0  0  0
  -21.2002   -7.6150   23.9723 H   0  0  0  0  0  0
  -21.1478   -6.0520   25.9080 H   0  0  0  0  0  0
  -22.0599   -2.7613   23.2838 H   0  0  0  0  0  0
  -22.4072  -11.9892   22.4828 H   0  0  0  0  0  0
  -21.1076  -13.1255   22.2619 H   0  0  0  0  0  0
  -24.6405  -15.8356   20.5135 H   0  0  0  0  0  0
  -26.2501  -15.6327   20.0500 H   0  0  0  0  0  0
  -26.7198  -32.5413   23.1068 H   0  0  0  0  0  0
  -25.0051  -33.9694   25.0382 H   0  0  0  0  0  0
  -22.7235  -31.2980   21.3908 H   0  0  0  0  0  0
  -23.3748  -35.9613   23.3296 H   0  0  0  0  0  0
  -24.3579  -36.8904   22.2057 H   0  0  0  0  0  0
  -23.7240  -37.6479   23.6673 H   0  0  0  0  0  0
  -26.1033  -31.5284   20.5990 H   0  0  0  0  0  0
  -26.8495  -30.8269   22.0030 H   0  0  0  0  0  0
  -28.1325  -28.9516   21.1808 H   0  0  0  0  0  0
  -25.9968  -25.8794   19.0396 H   0  0  0  0  0  0
  -23.9764  -27.2810   19.0236 H   0  0  0  0  0  0
  -23.7701  -30.5731   19.3978 H   0  0  0  0  0  0
  -22.7642  -29.2323   19.8584 H   0  0  0  0  0  0
  -25.1305  -36.1907   25.0817 H   0  0  0  0  0  0
  -20.9993  -28.3278   24.1391 H   0  0  0  0  0  0
  -20.5676  -26.2317   23.3617 H   0  0  0  0  0  0
  -21.6654  -26.7448   22.1215 H   0  0  0  0  0  0
  -19.6904  -25.6298   21.1251 H   0  0  0  0  0  0
  -19.6683  -27.3203   20.6747 H   0  0  0  0  0  0
  -17.4208  -26.6689   21.4022 H   0  0  0  0  0  0
  -18.0325  -26.0083   22.9027 H   0  0  0  0  0  0
  -19.7939  -30.7292   24.2254 H   0  0  0  0  0  0
  -17.5018  -31.6272   24.5175 H   0  0  0  0  0  0
  -15.5357  -30.2991   23.7667 H   0  0  0  0  0  0
  -15.8678  -28.0833   22.7059 H   0  0  0  0  0  0
  -24.5880  -30.7102   25.7746 H   0  0  0  0  0  0
  -24.8910  -32.2930   26.4824 H   0  0  0  0  0  0
  -25.8015  -30.8935   27.0215 H   0  0  0  0  0  0
  -26.2929  -29.6743   24.1210 H   0  0  0  0  0  0
  -27.4018  -29.7271   25.4709 H   0  0  0  0  0  0
  -27.8801  -30.4275   23.9436 H   0  0  0  0  0  0
  -27.2659  -33.3631   26.2052 H   0  0  0  0  0  0
  -28.3862  -32.6882   25.0306 H   0  0  0  0  0  0
  -28.0721  -31.8455   26.5395 H   0  0  0  0  0  0
  -28.2599  -38.0088   24.7521 H   0  0  0  0  0  0
  -28.1070  -36.2624   24.6279 H   0  0  0  0  0  0
  -27.2301  -37.1435   25.8865 H   0  0  0  0  0  0
  -20.9385  -29.8749   21.6849 H   0  0  0  0  0  0
  -26.0156  -38.2832   24.1419 H   0  0  0  0  0  0
  -32.5652  -19.1403   22.3693 H   0  0  0  0  0  0
  -31.2384  -21.0304   21.5901 H   0  0  0  0  0  0
  -31.9489  -16.8285   21.8789 H   0  0  0  0  0  0
  -28.3766  -20.9911   19.2201 H   0  0  0  0  0  0
  -29.6953  -22.6355   21.4293 H   0  0  0  0  0  0
  -27.2865  -18.8324   19.8335 H   0  0  0  0  0  0
  -27.7741  -17.1703   19.5482 H   0  0  0  0  0  0
  -28.2898  -18.4326   18.4346 H   0  0  0  0  0  0
  -28.9001  -25.0508   21.6243 H   0  0  0  0  0  0
  -27.2125  -24.9751   21.2230 H   0  0  0  0  0  0
  -28.8263  -15.6790   20.5279 H   0  0  0  0  0  0
  1 25  1  0  0  0
  1 30  2  0  0  0
  1 82  1  0  0  0
  2  3  1  0  0  0
  2 25  1  0  0  0
  2 84  1  0  0  0
  2 85  1  0  0  0
  3  4  1  0  0  0
  3 86  1  0  0  0
  3 87  1  0  0  0
  4  5  1  0  0  0
  4 88  1  0  0  0
  4 89  1  0  0  0
  5  6  1  0  0  0
  5 26  1  0  0  0
  5 90  1  0  0  0
  6 25  1  0  0  0
  6 91  1  0  0  0
  6 92  1  0  0  0
  7  8  2  0  0  0
  7 26  1  0  0  0
  7 29  1  0  0  0
  8  9  1  0  0  0
  8 22  1  0  0  0
  9 10  1  0  0  0
  9 27  2  0  0  0
 10 11  2  0  0  0
 10 15  1  0  0  0
 11 12  1  0  0  0
 11 93  1  0  0  0
 12 13  2  0  0  0
 12 94  1  0  0  0
 13 14  1  0  0  0
 13 31  1  0  0  0
 14 15  2  0  0  0
 14 95  1  0  0  0
 15 96  1  0  0  0
 16 17  2  0  0  0
 16 21  1  0  0  0
 16 31  1  0  0  0
 17 18  1  0  0  0
 17 97  1  0  0  0
 18 19  2  0  0  0
 18 98  1  0  0  0
 19 20  1  0  0  0
 19 24  1  0  0  0
 20 21  2  0  0  0
 20 99  1  0  0  0
 21 23  1  0  0  0
 22 28  1  0  0  0
 22 32  2  0  0  0
 26 27  1  0  0  0
 28100  1  0  0  0
 28101  1  0  0  0
 29102  1  0  0  0
 29103  1  0  0  0
 33 34  1  0  0  0
 33 66  1  0  0  0
 33 70  2  0  0  0
 34 36  1  0  0  0
 34 59  1  0  0  0
 34104  1  0  0  0
 35 44  2  0  0  0
 35 45  1  0  0  0
 35 68  1  0  0  0
 36 56  1  0  0  0
 36105  1  0  0  0
 37 39  1  0  0  0
 37 47  1  0  0  0
 37 66  1  0  0  0
 37106  1  0  0  0
 38 43  2  0  0  0
 38 46  1  0  0  0
 38 47  1  0  0  0
 39 64  1  0  0  0
 39 67  2  0  0  0
 40 52  1  0  0  0
 40 53  2  0  0  0
 40 58  1  0  0  0
 41107  1  0  0  0
 41108  1  0  0  0
 41109  1  0  0  0
 41 48  1  0  0  0
 42 43  1  0  0  0
 42 66  1  0  0  0
 42110  1  0  0  0
 42111  1  0  0  0
 43 44  1  0  0  0
 44112  1  0  0  0
 45 46  2  0  0  0
 45113  1  0  0  0
 46114  1  0  0  0
 47115  1  0  0  0
 47116  1  0  0  0
 48 56  1  0  0  0
 48 65  1  0  0  0
 48117  1  0  0  0
 49 50  1  0  0  0
 49 53  1  0  0  0
 49 64  1  0  0  0
 49118  1  0  0  0
 50 51  1  0  0  0
 50119  1  0  0  0
 50120  1  0  0  0
 51 52  1  0  0  0
 51121  1  0  0  0
 51122  1  0  0  0
 52123  1  0  0  0
 52124  1  0  0  0
 53 54  1  0  0  0
 54 55  2  0  0  0
 54125  1  0  0  0
 55 57  1  0  0  0
 55126  1  0  0  0
 56 69  2  0  0  0
 57 58  2  0  0  0
 57127  1  0  0  0
 58128  1  0  0  0
 59 60  1  0  0  0
 59 61  1  0  0  0
 59 62  1  0  0  0
 60129  1  0  0  0
 60130  1  0  0  0
 60131  1  0  0  0
 61132  1  0  0  0
 61133  1  0  0  0
 61134  1  0  0  0
 62135  1  0  0  0
 62136  1  0  0  0
 62137  1  0  0  0
 63 65  1  0  0  0
 63138  1  0  0  0
 63139  1  0  0  0
 63140  1  0  0  0
 64141  1  0  0  0
 65142  1  0  0  0
 68 81  1  0  0  0
 71 72  2  0  0  0
 71 73  1  0  0  0
 71143  1  0  0  0
 72 74  1  0  0  0
 72144  1  0  0  0
 73 76  2  0  0  0
 73145  1  0  0  0
 74 75  2  0  0  0
 74 77  1  0  0  0
 75 76  1  0  0  0
 75 80  1  0  0  0
 76 82  1  0  0  0
 77 78  2  0  0  0
 77146  1  0  0  0
 78 79  1  0  0  0
 78147  1  0  0  0
 79 81  1  0  0  0
 79 83  2  0  0  0
 80148  1  0  0  0
 80149  1  0  0  0
 80150  1  0  0  0
 81151  1  0  0  0
 81152  1  0  0  0
 82153  1  0  0  0
M  ISO  4   1 100  68 101  81 101  82 100
M  END
> <chiral flag>
0

> <version>
0

> <s_m_source_file>
/data/baiqing/PycharmProjects/Reinvent-master-3.2/result/LINK_invent/BTK/process_docking_weight1_custom_product_contain_oxygen_bond_distance_aromatic_linkinvent_7_9_3/rearranged_h_0120.sdf

> <i_m_source_file_index>
20

> <r_mmod_Potential_Energy-OPLS-2005>
150.431167602539

> <r_mmod_Stretch_Energy-OPLS-2005>
124.066390991211

> <r_mmod_Bend_Energy-OPLS-2005>
148.735092163086

> <r_mmod_Torsional_Energy-OPLS-2005>
249.472274780273

> <r_mmod_Improper_Torsional_Energy-OPLS-2005>
7.14438390731812

> <r_mmod_Van_der_Waal_Energy-OPLS-2005>
133.61686706543

> <r_mmod_Electrostatic_Energy-OPLS-2005>
-366.263641357422

> <r_mmod_Solvation_Energy-OPLS-2005>
-227.055801391602

> <b_mmod_Minimization_Converged-OPLS-2005>
0

> <r_mmod_RMS_Derivative-OPLS-2005>
1.21190392971039

$$$$
20
                    3D
 Structure written by MMmdl.
155163  0  0  1  0            999 V2000
  -30.8002  -14.4071   20.4970 C   0  0  0  0  0  0
  -30.3747  -12.2437   19.4519 C   0  0  0  0  0  0
  -29.4859  -12.4708   18.2158 C   0  0  0  0  0  0
  -28.0041  -12.3643   18.6170 C   0  0  0  0  0  0
  -27.6513  -13.2270   19.8603 C   0  0  2  0  0  0
  -28.6913  -13.0718   20.9922 C   0  0  0  0  0  0
  -25.2535  -13.8221   20.5694 C   0  0  0  0  0  0
  -24.1810  -13.0470   20.9186 C   0  0  0  0  0  0
  -24.6385  -11.6942   20.8736 C   0  0  0  0  0  0
  -23.9064  -10.4313   21.0403 C   0  0  0  0  0  0
  -24.3614   -9.4228   21.9182 C   0  0  0  0  0  0
  -23.6290   -8.2258   22.0758 C   0  0  0  0  0  0
  -22.4271   -8.0290   21.3546 C   0  0  0  0  0  0
  -21.9904   -9.0265   20.4653 C   0  0  0  0  0  0
  -22.7235  -10.2145   20.3058 C   0  0  0  0  0  0
  -21.6859   -6.0736   22.5276 C   0  0  0  0  0  0
  -21.4023   -6.5638   23.8209 C   0  0  0  0  0  0
  -21.3661   -5.6790   24.9172 C   0  0  0  0  0  0
  -21.6039   -4.3051   24.7223 C   0  0  0  0  0  0
  -21.8818   -3.8146   23.4344 C   0  0  0  0  0  0
  -21.9195   -4.6965   22.3399 C   0  0  0  0  0  0
  -22.7830  -13.5250   21.1842 C   0  0  0  0  0  0
  -22.1663   -4.2153   21.0979 F   0  0  0  0  0  0
  -21.5624   -3.4534   25.7735 F   0  0  0  0  0  0
  -30.0289  -13.2898   20.4300 N   0  0  0  0  0  0
  -26.2976  -12.9433   20.3319 N   0  0  0  0  0  0
  -25.9315  -11.6568   20.5757 N   0  0  0  0  0  0
  -22.0464  -12.8253   22.0405 N   0  0  0  0  0  0
  -25.4247  -15.1939   20.4128 N   0  0  0  0  0  0
  -31.9782  -14.3595   20.1400 O   0  0  0  0  0  0
  -21.6643   -6.8878   21.4237 O   0  0  0  0  0  0
  -22.3511  -14.5550   20.6685 O   0  0  0  0  0  0
  -24.6097  -31.8723   23.2149 C   0  0  0  0  0  0
  -25.9010  -32.4844   23.8426 C   0  0  1  0  0  0
  -27.2191  -27.4806   20.0892 C   0  0  0  0  0  0
  -25.5880  -33.8642   24.2353 N   0  0  0  0  0  0
  -23.3939  -30.4987   21.5551 C   0  0  2  0  0  0
  -24.8370  -28.9765   20.1105 C   0  0  0  0  0  0
  -22.7382  -29.4675   22.5010 C   0  0  0  0  0  0
  -18.0265  -28.1367   22.8494 C   0  0  0  0  0  0
  -24.1483  -36.7333   23.2636 C   0  0  0  0  0  0
  -25.9191  -30.8535   21.3607 C   0  0  0  0  0  0
  -25.9963  -29.4949   20.7021 C   0  0  0  0  0  0
  -27.1952  -28.7546   20.6868 C   0  0  0  0  0  0
  -26.0496  -26.9694   19.4848 C   0  0  0  0  0  0
  -24.8566  -27.7122   19.4976 C   0  0  0  0  0  0
  -23.5975  -29.8376   20.1662 C   0  0  0  0  0  0
  -25.4098  -36.3129   24.0342 C   0  0  1  0  0  0
  -20.5851  -28.3644   23.1335 C   0  0  2  0  0  0
  -20.6753  -26.9386   22.5420 C   0  0  0  0  0  0
  -19.5733  -26.6379   21.5210 C   0  0  0  0  0  0
  -18.1912  -26.7915   22.1623 C   0  0  0  0  0  0
  -19.1512  -28.8823   23.2912 C   0  0  0  0  0  0
  -18.9445  -30.1432   23.8915 C   0  0  0  0  0  0
  -17.6448  -30.6580   24.0566 C   0  0  0  0  0  0
  -25.9024  -34.9489   23.5145 C   0  0  0  0  0  0
  -16.5339  -29.9084   23.6322 C   0  0  0  0  0  0
  -16.7256  -28.6500   23.0343 C   0  0  0  0  0  0
  -26.4458  -31.6608   25.0734 C   0  0  0  0  0  0
  -25.3745  -31.3703   26.1502 C   0  0  0  0  0  0
  -27.0279  -30.3058   24.6073 C   0  0  0  0  0  0
  -27.6046  -32.4321   25.7484 C   0  0  0  0  0  0
  -27.5587  -37.1811   24.8457 C   0  0  0  0  0  0
  -21.4117  -29.3025   22.3756 N   0  0  0  0  0  0
  -26.4291  -37.3807   23.9415 N   0  0  0  0  0  0
  -24.6590  -31.0868   22.1027 N   0  0  0  0  0  0
  -23.4182  -28.8205   23.3019 O   0  0  0  0  0  0
  -28.3648  -26.7370   20.1337 O   0  0  0  0  0  0
  -26.5592  -34.8936   22.4711 O   0  0  0  0  0  0
  -23.5305  -32.1452   23.7580 O   0  0  0  0  0  0
  -29.5235  -20.2125   21.3560 C   0  0  0  0  0  0
  -29.6523  -18.8080   21.2707 C   0  0  0  0  0  0
  -31.4115  -20.4788   19.8509 C   0  0  0  0  0  0
  -30.4310  -21.0526   20.6716 C   0  0  0  0  0  0
  -30.6809  -18.2343   20.4911 C   0  0  0  0  0  0
  -31.5351  -19.0870   19.7377 C   0  0  0  0  0  0
  -30.3821  -22.5146   20.6911 C   0  0  0  0  0  0
  -30.9119  -16.7856   20.4202 C   0  0  0  0  0  0
  -29.3414  -23.2743   21.0619 C   0  0  0  0  0  0
  -30.1698  -15.7025   20.7672 C   0  0  0  0  0  0
  -29.4389  -24.7341   20.9810 C   0  0  0  0  0  0
  -32.6034  -18.5599   18.7857 C   0  0  0  0  0  0
  -28.1297  -25.4697   20.7421 C   0  0  0  0  0  0
  -30.5034  -25.3574   21.0752 O   0  0  0  0  0  0
  -31.4271  -12.2362   19.1630 H   0  0  0  0  0  0
  -30.1862  -11.2578   19.8788 H   0  0  0  0  0  0
  -29.7172  -11.7357   17.4440 H   0  0  0  0  0  0
  -29.6895  -13.4506   17.7806 H   0  0  0  0  0  0
  -27.7958  -11.3140   18.8219 H   0  0  0  0  0  0
  -27.3665  -12.6398   17.7761 H   0  0  0  0  0  0
  -27.6808  -14.2667   19.5331 H   0  0  0  0  0  0
  -28.6384  -12.0716   21.4240 H   0  0  0  0  0  0
  -28.4806  -13.7601   21.8117 H   0  0  0  0  0  0
  -25.2754   -9.5709   22.4762 H   0  0  0  0  0  0
  -24.0002   -7.4652   22.7476 H   0  0  0  0  0  0
  -21.0835   -8.8781   19.8956 H   0  0  0  0  0  0
  -22.3684  -10.9681   19.6169 H   0  0  0  0  0  0
  -21.2019   -7.6147   23.9713 H   0  0  0  0  0  0
  -21.1483   -6.0522   25.9073 H   0  0  0  0  0  0
  -22.0594   -2.7609   23.2844 H   0  0  0  0  0  0
  -22.4075  -11.9922   22.4807 H   0  0  0  0  0  0
  -21.1083  -13.1297   22.2593 H   0  0  0  0  0  0
  -24.6605  -15.8518   20.5248 H   0  0  0  0  0  0
  -26.2832  -15.6333   20.1043 H   0  0  0  0  0  0
  -26.7085  -32.5569   23.1200 H   0  0  0  0  0  0
  -25.0021  -33.9812   25.0491 H   0  0  0  0  0  0
  -22.6795  -31.3138   21.4229 H   0  0  0  0  0  0
  -23.3743  -35.9669   23.3301 H   0  0  0  0  0  0
  -24.3587  -36.8946   22.2052 H   0  0  0  0  0  0
  -23.7238  -37.6541   23.6647 H   0  0  0  0  0  0
  -26.0276  -31.6252   20.5974 H   0  0  0  0  0  0
  -26.8085  -30.9024   21.9771 H   0  0  0  0  0  0
  -28.0905  -29.1444   21.1510 H   0  0  0  0  0  0
  -26.0507  -26.0018   19.0037 H   0  0  0  0  0  0
  -23.9656  -27.3090   19.0362 H   0  0  0  0  0  0
  -23.7011  -30.6170   19.4101 H   0  0  0  0  0  0
  -22.7218  -29.2565   19.8712 H   0  0  0  0  0  0
  -25.1269  -36.2004   25.0835 H   0  0  0  0  0  0
  -20.9938  -28.3199   24.1456 H   0  0  0  0  0  0
  -20.5651  -26.2244   23.3595 H   0  0  0  0  0  0
  -21.6625  -26.7431   22.1215 H   0  0  0  0  0  0
  -19.6892  -25.6294   21.1226 H   0  0  0  0  0  0
  -19.6676  -27.3200   20.6749 H   0  0  0  0  0  0
  -17.4180  -26.6666   21.4028 H   0  0  0  0  0  0
  -18.0315  -26.0050   22.9012 H   0  0  0  0  0  0
  -19.7923  -30.7243   24.2285 H   0  0  0  0  0  0
  -17.5009  -31.6263   24.5161 H   0  0  0  0  0  0
  -15.5340  -30.2994   23.7636 H   0  0  0  0  0  0
  -15.8655  -28.0831   22.7042 H   0  0  0  0  0  0
  -24.5881  -30.7092   25.7846 H   0  0  0  0  0  0
  -24.8982  -32.2859   26.5018 H   0  0  0  0  0  0
  -25.8110  -30.8817   27.0221 H   0  0  0  0  0  0
  -26.2807  -29.6829   24.1140 H   0  0  0  0  0  0
  -27.4086  -29.7280   25.4506 H   0  0  0  0  0  0
  -27.8629  -30.4395   23.9189 H   0  0  0  0  0  0
  -27.2663  -33.3591   26.2130 H   0  0  0  0  0  0
  -28.3812  -32.6933   25.0282 H   0  0  0  0  0  0
  -28.0766  -31.8409   26.5343 H   0  0  0  0  0  0
  -28.2588  -38.0125   24.7537 H   0  0  0  0  0  0
  -28.1097  -36.2662   24.6228 H   0  0  0  0  0  0
  -27.2318  -37.1404   25.8862 H   0  0  0  0  0  0
  -20.9253  -29.8775   21.7022 H   0  0  0  0  0  0
  -26.0188  -38.2886   24.1428 H   0  0  0  0  0  0
  -28.7405  -20.6320   21.9712 H   0  0  0  0  0  0
  -28.9749  -18.1788   21.8302 H   0  0  0  0  0  0
  -32.0759  -21.1199   19.2876 H   0  0  0  0  0  0
  -31.2873  -23.0111   20.3649 H   0  0  0  0  0  0
  -31.8926  -16.5902   20.0225 H   0  0  0  0  0  0
  -28.4099  -22.8430   21.3976 H   0  0  0  0  0  0
  -29.1828  -15.7978   21.1918 H   0  0  0  0  0  0
  -33.0327  -19.3574   18.1781 H   0  0  0  0  0  0
  -32.1804  -17.8275   18.0968 H   0  0  0  0  0  0
  -33.4210  -18.0942   19.3363 H   0  0  0  0  0  0
  -27.6208  -25.5977   21.6988 H   0  0  0  0  0  0
  -27.4977  -24.8460   20.1100 H   0  0  0  0  0  0
  1 25  1  0  0  0
  1 30  2  0  0  0
  1 80  1  0  0  0
  2  3  1  0  0  0
  2 25  1  0  0  0
  2 85  1  0  0  0
  2 86  1  0  0  0
  3  4  1  0  0  0
  3 87  1  0  0  0
  3 88  1  0  0  0
  4  5  1  0  0  0
  4 89  1  0  0  0
  4 90  1  0  0  0
  5  6  1  0  0  0
  5 26  1  0  0  0
  5 91  1  0  0  0
  6 25  1  0  0  0
  6 92  1  0  0  0
  6 93  1  0  0  0
  7  8  2  0  0  0
  7 26  1  0  0  0
  7 29  1  0  0  0
  8  9  1  0  0  0
  8 22  1  0  0  0
  9 10  1  0  0  0
  9 27  2  0  0  0
 10 11  2  0  0  0
 10 15  1  0  0  0
 11 12  1  0  0  0
 11 94  1  0  0  0
 12 13  2  0  0  0
 12 95  1  0  0  0
 13 14  1  0  0  0
 13 31  1  0  0  0
 14 15  2  0  0  0
 14 96  1  0  0  0
 15 97  1  0  0  0
 16 17  2  0  0  0
 16 21  1  0  0  0
 16 31  1  0  0  0
 17 18  1  0  0  0
 17 98  1  0  0  0
 18 19  2  0  0  0
 18 99  1  0  0  0
 19 20  1  0  0  0
 19 24  1  0  0  0
 20 21  2  0  0  0
 20100  1  0  0  0
 21 23  1  0  0  0
 22 28  1  0  0  0
 22 32  2  0  0  0
 26 27  1  0  0  0
 28101  1  0  0  0
 28102  1  0  0  0
 29103  1  0  0  0
 29104  1  0  0  0
 33 34  1  0  0  0
 33 66  1  0  0  0
 33 70  2  0  0  0
 34 36  1  0  0  0
 34 59  1  0  0  0
 34105  1  0  0  0
 35 44  2  0  0  0
 35 45  1  0  0  0
 35 68  1  0  0  0
 36 56  1  0  0  0
 36106  1  0  0  0
 37 39  1  0  0  0
 37 47  1  0  0  0
 37 66  1  0  0  0
 37107  1  0  0  0
 38 43  2  0  0  0
 38 46  1  0  0  0
 38 47  1  0  0  0
 39 64  1  0  0  0
 39 67  2  0  0  0
 40 52  1  0  0  0
 40 53  2  0  0  0
 40 58  1  0  0  0
 41108  1  0  0  0
 41109  1  0  0  0
 41110  1  0  0  0
 41 48  1  0  0  0
 42 43  1  0  0  0
 42 66  1  0  0  0
 42111  1  0  0  0
 42112  1  0  0  0
 43 44  1  0  0  0
 44113  1  0  0  0
 45 46  2  0  0  0
 45114  1  0  0  0
 46115  1  0  0  0
 47116  1  0  0  0
 47117  1  0  0  0
 48 56  1  0  0  0
 48 65  1  0  0  0
 48118  1  0  0  0
 49 50  1  0  0  0
 49 53  1  0  0  0
 49 64  1  0  0  0
 49119  1  0  0  0
 50 51  1  0  0  0
 50120  1  0  0  0
 50121  1  0  0  0
 51 52  1  0  0  0
 51122  1  0  0  0
 51123  1  0  0  0
 52124  1  0  0  0
 52125  1  0  0  0
 53 54  1  0  0  0
 54 55  2  0  0  0
 54126  1  0  0  0
 55 57  1  0  0  0
 55127  1  0  0  0
 56 69  2  0  0  0
 57 58  2  0  0  0
 57128  1  0  0  0
 58129  1  0  0  0
 59 60  1  0  0  0
 59 61  1  0  0  0
 59 62  1  0  0  0
 60130  1  0  0  0
 60131  1  0  0  0
 60132  1  0  0  0
 61133  1  0  0  0
 61134  1  0  0  0
 61135  1  0  0  0
 62136  1  0  0  0
 62137  1  0  0  0
 62138  1  0  0  0
 63 65  1  0  0  0
 63139  1  0  0  0
 63140  1  0  0  0
 63141  1  0  0  0
 64142  1  0  0  0
 65143  1  0  0  0
 68 83  1  0  0  0
 71 72  2  0  0  0
 71 74  1  0  0  0
 71144  1  0  0  0
 72 75  1  0  0  0
 72145  1  0  0  0
 73 74  2  0  0  0
 73 76  1  0  0  0
 73146  1  0  0  0
 74 77  1  0  0  0
 75 76  2  0  0  0
 75 78  1  0  0  0
 76 82  1  0  0  0
 77 79  2  0  0  0
 77147  1  0  0  0
 78 80  2  0  0  0
 78148  1  0  0  0
 79 81  1  0  0  0
 79149  1  0  0  0
 80150  1  0  0  0
 81 83  1  0  0  0
 81 84  2  0  0  0
 82151  1  0  0  0
 82152  1  0  0  0
 82153  1  0  0  0
 83154  1  0  0  0
 83155  1  0  0  0
M  ISO  4   1 100  68 101  80 100  83 101
M  END
> <chiral flag>
0

> <version>
0

> <s_m_source_file>
/data/baiqing/PycharmProjects/Reinvent-master-3.2/result/LINK_invent/BTK/process_docking_weight1_custom_product_contain_oxygen_bond_distance_aromatic_linkinvent_7_9_3/rearranged_h_0120.sdf

> <i_m_source_file_index>
21

> <r_mmod_Potential_Energy-OPLS-2005>
20.0497512817383

> <r_mmod_Stretch_Energy-OPLS-2005>
32.1937065124512

> <r_mmod_Bend_Energy-OPLS-2005>
109.478408813477

> <r_mmod_Torsional_Energy-OPLS-2005>
209.366653442383

> <r_mmod_Improper_Torsional_Energy-OPLS-2005>
5.19498300552368

> <r_mmod_Van_der_Waal_Energy-OPLS-2005>
181.977462768555

> <r_mmod_Electrostatic_Energy-OPLS-2005>
-333.136260986328

> <r_mmod_Solvation_Energy-OPLS-2005>
-213.854568481445

> <b_mmod_Minimization_Converged-OPLS-2005>
0

> <r_mmod_RMS_Derivative-OPLS-2005>
0.951142311096191

$$$$
21
                    3D
 Structure written by MMmdl.
162170  0  0  1  0            999 V2000
  -30.6945  -14.5920   20.4350 C   0  0  0  0  0  0
  -30.4087  -12.3535   19.4221 C   0  0  0  0  0  0
  -29.4707  -12.4455   18.1961 C   0  0  0  0  0  0
  -28.0051  -12.2491   18.6247 C   0  0  0  0  0  0
  -27.6196  -13.1540   19.8153 C   0  0  2  0  0  0
  -28.6798  -13.1255   20.9429 C   0  0  0  0  0  0
  -25.2587  -13.7994   20.5656 C   0  0  0  0  0  0
  -24.1792  -13.0369   20.9225 C   0  0  0  0  0  0
  -24.6256  -11.6812   20.8824 C   0  0  0  0  0  0
  -23.8917  -10.4244   21.0509 C   0  0  0  0  0  0
  -24.3488   -9.4163   21.9264 C   0  0  0  0  0  0
  -23.6194   -8.2199   22.0802 C   0  0  0  0  0  0
  -22.4199   -8.0237   21.3562 C   0  0  0  0  0  0
  -21.9822   -9.0195   20.4656 C   0  0  0  0  0  0
  -22.7125  -10.2093   20.3121 C   0  0  0  0  0  0
  -21.6799   -6.0704   22.5270 C   0  0  0  0  0  0
  -21.3968   -6.5601   23.8207 C   0  0  0  0  0  0
  -21.3679   -5.6754   24.9173 C   0  0  0  0  0  0
  -21.6065   -4.3025   24.7225 C   0  0  0  0  0  0
  -21.8812   -3.8128   23.4339 C   0  0  0  0  0  0
  -21.9171   -4.6942   22.3389 C   0  0  0  0  0  0
  -22.7857  -13.5271   21.1863 C   0  0  0  0  0  0
  -22.1645   -4.2121   21.0959 F   0  0  0  0  0  0
  -21.5661   -3.4525   25.7748 F   0  0  0  0  0  0
  -30.0027  -13.4096   20.3641 N   0  0  0  0  0  0
  -26.2825  -12.8976   20.3205 N   0  0  0  0  0  0
  -25.9149  -11.6231   20.5829 N   0  0  0  0  0  0
  -22.0412  -12.8269   22.0360 N   0  0  0  0  0  0
  -25.4565  -15.1683   20.4022 N   0  0  0  0  0  0
  -31.9092  -14.6494   20.2311 O   0  0  0  0  0  0
  -21.6574   -6.8841   21.4238 O   0  0  0  0  0  0
  -22.3614  -14.5614   20.6735 O   0  0  0  0  0  0
  -24.6089  -31.8681   23.2093 C   0  0  0  0  0  0
  -25.8978  -32.4832   23.8408 C   0  0  1  0  0  0
  -27.2487  -27.4426   20.1150 C   0  0  0  0  0  0
  -25.5865  -33.8633   24.2352 N   0  0  0  0  0  0
  -23.4019  -30.4868   21.5477 C   0  0  2  0  0  0
  -24.8569  -28.9489   20.1177 C   0  0  0  0  0  0
  -22.7401  -29.4646   22.4994 C   0  0  0  0  0  0
  -18.0282  -28.1341   22.8479 C   0  0  0  0  0  0
  -24.1489  -36.7325   23.2652 C   0  0  0  0  0  0
  -25.9292  -30.8333   21.3667 C   0  0  0  0  0  0
  -26.0118  -29.4671   20.7181 C   0  0  0  0  0  0
  -27.2128  -28.7209   20.7169 C   0  0  0  0  0  0
  -26.0841  -26.9366   19.5015 C   0  0  0  0  0  0
  -24.8876  -27.6817   19.5065 C   0  0  0  0  0  0
  -23.6141  -29.8113   20.1658 C   0  0  0  0  0  0
  -25.4113  -36.3136   24.0348 C   0  0  1  0  0  0
  -20.5872  -28.3634   23.1308 C   0  0  2  0  0  0
  -20.6771  -26.9368   22.5415 C   0  0  0  0  0  0
  -19.5769  -26.6357   21.5190 C   0  0  0  0  0  0
  -18.1931  -26.7901   22.1578 C   0  0  0  0  0  0
  -19.1532  -28.8799   23.2893 C   0  0  0  0  0  0
  -18.9466  -30.1413   23.8898 C   0  0  0  0  0  0
  -17.6468  -30.6555   24.0557 C   0  0  0  0  0  0
  -25.9030  -34.9484   23.5162 C   0  0  0  0  0  0
  -16.5359  -29.9050   23.6341 C   0  0  0  0  0  0
  -16.7274  -28.6477   23.0341 C   0  0  0  0  0  0
  -26.4432  -31.6594   25.0719 C   0  0  0  0  0  0
  -25.3699  -31.3602   26.1452 C   0  0  0  0  0  0
  -27.0294  -30.3068   24.6052 C   0  0  0  0  0  0
  -27.5962  -32.4313   25.7516 C   0  0  0  0  0  0
  -27.5588  -37.1849   24.8466 C   0  0  0  0  0  0
  -21.4133  -29.3005   22.3717 N   0  0  0  0  0  0
  -26.4317  -37.3806   23.9403 N   0  0  0  0  0  0
  -24.6639  -31.0770   22.0998 N   0  0  0  0  0  0
  -23.4168  -28.8213   23.3060 O   0  0  0  0  0  0
  -28.3952  -26.6826   20.1142 O   0  0  0  0  0  0
  -26.5610  -34.8921   22.4734 O   0  0  0  0  0  0
  -23.5292  -32.1425   23.7490 O   0  0  0  0  0  0
  -29.9699  -17.6306   22.1421 C   0  0  0  0  0  0
  -30.0301  -18.9917   22.5220 C   0  0  0  0  0  0
  -31.1477  -19.5112   20.4402 C   0  0  0  0  0  0
  -30.4239  -17.2014   20.8736 C   0  0  0  0  0  0
  -31.0745  -18.1573   20.0374 C   0  0  0  0  0  0
  -30.5383  -19.9610   21.6319 C   0  0  0  0  0  0
  -29.4883  -24.6497   20.9626 C   0  0  0  0  0  0
  -29.2329  -23.3325   21.1177 C   0  0  0  0  0  0
  -29.8785  -15.9158   20.3394 C   0  0  0  0  0  0
  -31.3727  -18.2633   16.1460 C   0  0  0  0  0  0
  -31.6066  -17.8277   18.6470 C   0  0  0  0  0  0
  -28.4768  -25.7673   21.2172 C   0  0  0  0  0  0
  -30.1969  -22.1920   20.8115 C   0  0  0  0  0  0
  -30.7203  -18.4000   17.5290 C   0  0  0  0  0  0
  -28.7788  -16.0557   19.7322 N   0  0  0  0  0  0
  -30.3673  -21.3029   21.9266 O   0  0  0  0  0  0
  -31.4471  -12.4549   19.1022 H   0  0  0  0  0  0
  -30.3313  -11.3708   19.8911 H   0  0  0  0  0  0
  -29.7385  -11.6863   17.4584 H   0  0  0  0  0  0
  -29.5854  -13.4097   17.7005 H   0  0  0  0  0  0
  -27.8670  -11.2011   18.8924 H   0  0  0  0  0  0
  -27.3387  -12.4336   17.7798 H   0  0  0  0  0  0
  -27.5512  -14.1211   19.3452 H   0  0  0  0  0  0
  -28.6865  -12.1490   21.4280 H   0  0  0  0  0  0
  -28.4274  -13.8491   21.7187 H   0  0  0  0  0  0
  -25.2628   -9.5618   22.4851 H   0  0  0  0  0  0
  -23.9891   -7.4569   22.7499 H   0  0  0  0  0  0
  -21.0815   -8.8700   19.8897 H   0  0  0  0  0  0
  -22.3635  -10.9637   19.6241 H   0  0  0  0  0  0
  -21.1916   -7.6101   23.9728 H   0  0  0  0  0  0
  -21.1529   -6.0481   25.9090 H   0  0  0  0  0  0
  -22.0573   -2.7581   23.2830 H   0  0  0  0  0  0
  -22.3942  -11.9861   22.4696 H   0  0  0  0  0  0
  -21.1055  -13.1370   22.2587 H   0  0  0  0  0  0
  -24.7144  -15.8496   20.5163 H   0  0  0  0  0  0
  -26.3460  -15.5714   20.1184 H   0  0  0  0  0  0
  -26.7040  -32.5567   23.1167 H   0  0  0  0  0  0
  -25.0027  -33.9795   25.0504 H   0  0  0  0  0  0
  -22.6907  -31.3028   21.4014 H   0  0  0  0  0  0
  -23.3766  -35.9637   23.3276 H   0  0  0  0  0  0
  -24.3596  -36.8984   22.2080 H   0  0  0  0  0  0
  -23.7192  -37.6493   23.6692 H   0  0  0  0  0  0
  -26.0435  -31.5969   20.5970 H   0  0  0  0  0  0
  -26.8138  -30.8870   21.9893 H   0  0  0  0  0  0
  -28.1054  -29.1160   21.1805 H   0  0  0  0  0  0
  -26.1075  -25.9636   19.0309 H   0  0  0  0  0  0
  -24.0016  -27.2711   19.0418 H   0  0  0  0  0  0
  -23.7198  -30.5816   19.4013 H   0  0  0  0  0  0
  -22.7396  -29.2276   19.8722 H   0  0  0  0  0  0
  -25.1289  -36.2044   25.0844 H   0  0  0  0  0  0
  -20.9962  -28.3182   24.1426 H   0  0  0  0  0  0
  -20.5669  -26.2228   23.3590 H   0  0  0  0  0  0
  -21.6642  -26.7394   22.1229 H   0  0  0  0  0  0
  -19.6950  -25.6271   21.1203 H   0  0  0  0  0  0
  -19.6736  -27.3179   20.6730 H   0  0  0  0  0  0
  -17.4228  -26.6687   21.3943 H   0  0  0  0  0  0
  -18.0297  -25.9995   22.8926 H   0  0  0  0  0  0
  -19.7929  -30.7233   24.2260 H   0  0  0  0  0  0
  -17.5015  -31.6235   24.5149 H   0  0  0  0  0  0
  -15.5365  -30.2958   23.7654 H   0  0  0  0  0  0
  -15.8664  -28.0813   22.7033 H   0  0  0  0  0  0
  -24.5935  -30.6893   25.7772 H   0  0  0  0  0  0
  -24.8819  -32.2706   26.4939 H   0  0  0  0  0  0
  -25.8098  -30.8772   27.0191 H   0  0  0  0  0  0
  -26.2868  -29.6825   24.1088 H   0  0  0  0  0  0
  -27.4092  -29.7290   25.4489 H   0  0  0  0  0  0
  -27.8665  -30.4447   23.9195 H   0  0  0  0  0  0
  -27.2566  -33.3620   26.2074 H   0  0  0  0  0  0
  -28.3813  -32.6862   25.0379 H   0  0  0  0  0  0
  -28.0571  -31.8432   26.5469 H   0  0  0  0  0  0
  -28.2591  -38.0157   24.7513 H   0  0  0  0  0  0
  -28.1107  -36.2682   24.6320 H   0  0  0  0  0  0
  -27.2303  -37.1532   25.8867 H   0  0  0  0  0  0
  -20.9286  -29.8739   21.6942 H   0  0  0  0  0  0
  -26.0212  -38.2898   24.1348 H   0  0  0  0  0  0
  -29.4462  -16.9386   22.7871 H   0  0  0  0  0  0
  -29.5940  -19.3005   23.4625 H   0  0  0  0  0  0
  -31.5980  -20.2219   19.7628 H   0  0  0  0  0  0
  -30.4694  -24.9646   20.6370 H   0  0  0  0  0  0
  -28.2575  -23.0215   21.4663 H   0  0  0  0  0  0
  -30.7348  -18.6707   15.3622 H   0  0  0  0  0  0
  -31.5703  -17.2181   15.9037 H   0  0  0  0  0  0
  -32.3212  -18.8010   16.1063 H   0  0  0  0  0  0
  -31.7455  -16.7553   18.5100 H   0  0  0  0  0  0
  -32.6033  -18.2636   18.5693 H   0  0  0  0  0  0
  -28.7720  -26.3147   22.1131 H   0  0  0  0  0  0
  -27.5010  -25.3198   21.4213 H   0  0  0  0  0  0
  -31.1637  -22.5757   20.4858 H   0  0  0  0  0  0
  -29.7517  -21.6701   19.9607 H   0  0  0  0  0  0
  -29.7469  -17.9075   17.5381 H   0  0  0  0  0  0
  -30.5222  -19.4579   17.7141 H   0  0  0  0  0  0
  -28.5004  -17.0323   19.7441 H   0  0  0  0  0  0
  1 25  1  0  0  0
  1 30  2  0  0  0
  1 79  1  0  0  0
  2  3  1  0  0  0
  2 25  1  0  0  0
  2 87  1  0  0  0
  2 88  1  0  0  0
  3  4  1  0  0  0
  3 89  1  0  0  0
  3 90  1  0  0  0
  4  5  1  0  0  0
  4 91  1  0  0  0
  4 92  1  0  0  0
  5  6  1  0  0  0
  5 26  1  0  0  0
  5 93  1  0  0  0
  6 25  1  0  0  0
  6 94  1  0  0  0
  6 95  1  0  0  0
  7  8  2  0  0  0
  7 26  1  0  0  0
  7 29  1  0  0  0
  8  9  1  0  0  0
  8 22  1  0  0  0
  9 10  1  0  0  0
  9 27  2  0  0  0
 10 11  2  0  0  0
 10 15  1  0  0  0
 11 12  1  0  0  0
 11 96  1  0  0  0
 12 13  2  0  0  0
 12 97  1  0  0  0
 13 14  1  0  0  0
 13 31  1  0  0  0
 14 15  2  0  0  0
 14 98  1  0  0  0
 15 99  1  0  0  0
 16 17  2  0  0  0
 16 21  1  0  0  0
 16 31  1  0  0  0
 17 18  1  0  0  0
 17100  1  0  0  0
 18 19  2  0  0  0
 18101  1  0  0  0
 19 20  1  0  0  0
 19 24  1  0  0  0
 20 21  2  0  0  0
 20102  1  0  0  0
 21 23  1  0  0  0
 22 28  1  0  0  0
 22 32  2  0  0  0
 26 27  1  0  0  0
 28103  1  0  0  0
 28104  1  0  0  0
 29105  1  0  0  0
 29106  1  0  0  0
 33 34  1  0  0  0
 33 66  1  0  0  0
 33 70  2  0  0  0
 34 36  1  0  0  0
 34 59  1  0  0  0
 34107  1  0  0  0
 35 44  2  0  0  0
 35 45  1  0  0  0
 35 68  1  0  0  0
 36 56  1  0  0  0
 36108  1  0  0  0
 37 39  1  0  0  0
 37 47  1  0  0  0
 37 66  1  0  0  0
 37109  1  0  0  0
 38 43  2  0  0  0
 38 46  1  0  0  0
 38 47  1  0  0  0
 39 64  1  0  0  0
 39 67  2  0  0  0
 40 52  1  0  0  0
 40 53  2  0  0  0
 40 58  1  0  0  0
 41110  1  0  0  0
 41111  1  0  0  0
 41112  1  0  0  0
 41 48  1  0  0  0
 42 43  1  0  0  0
 42 66  1  0  0  0
 42113  1  0  0  0
 42114  1  0  0  0
 43 44  1  0  0  0
 44115  1  0  0  0
 45 46  2  0  0  0
 45116  1  0  0  0
 46117  1  0  0  0
 47118  1  0  0  0
 47119  1  0  0  0
 48 56  1  0  0  0
 48 65  1  0  0  0
 48120  1  0  0  0
 49 50  1  0  0  0
 49 53  1  0  0  0
 49 64  1  0  0  0
 49121  1  0  0  0
 50 51  1  0  0  0
 50122  1  0  0  0
 50123  1  0  0  0
 51 52  1  0  0  0
 51124  1  0  0  0
 51125  1  0  0  0
 52126  1  0  0  0
 52127  1  0  0  0
 53 54  1  0  0  0
 54 55  2  0  0  0
 54128  1  0  0  0
 55 57  1  0  0  0
 55129  1  0  0  0
 56 69  2  0  0  0
 57 58  2  0  0  0
 57130  1  0  0  0
 58131  1  0  0  0
 59 60  1  0  0  0
 59 61  1  0  0  0
 59 62  1  0  0  0
 60132  1  0  0  0
 60133  1  0  0  0
 60134  1  0  0  0
 61135  1  0  0  0
 61136  1  0  0  0
 61137  1  0  0  0
 62138  1  0  0  0
 62139  1  0  0  0
 62140  1  0  0  0
 63 65  1  0  0  0
 63141  1  0  0  0
 63142  1  0  0  0
 63143  1  0  0  0
 64144  1  0  0  0
 65145  1  0  0  0
 68 82  1  0  0  0
 71 72  2  0  0  0
 71 74  1  0  0  0
 71146  1  0  0  0
 72 76  1  0  0  0
 72147  1  0  0  0
 73 75  1  0  0  0
 73 76  2  0  0  0
 73148  1  0  0  0
 74 75  2  0  0  0
 74 79  1  0  0  0
 75 81  1  0  0  0
 76 86  1  0  0  0
 77 78  2  0  0  0
 77 82  1  0  0  0
 77149  1  0  0  0
 78 83  1  0  0  0
 78150  1  0  0  0
 79 85  2  0  0  0
 80 84  1  0  0  0
 80151  1  0  0  0
 80152  1  0  0  0
 80153  1  0  0  0
 81 84  1  0  0  0
 81154  1  0  0  0
 81155  1  0  0  0
 82156  1  0  0  0
 82157  1  0  0  0
 83 86  1  0  0  0
 83158  1  0  0  0
 83159  1  0  0  0
 84160  1  0  0  0
 84161  1  0  0  0
 85162  1  0  0  0
M  ISO  4   1 100  68 101  79 100  82 101
M  END
> <chiral flag>
0

> <version>
0

> <s_m_source_file>
/data/baiqing/PycharmProjects/Reinvent-master-3.2/result/LINK_invent/BTK/process_docking_weight1_custom_product_contain_oxygen_bond_distance_aromatic_linkinvent_7_9_3/rearranged_h_0120.sdf

> <i_m_source_file_index>
22

> <r_mmod_Potential_Energy-OPLS-2005>
230.012069702148

> <r_mmod_Stretch_Energy-OPLS-2005>
44.0650024414062

> <r_mmod_Bend_Energy-OPLS-2005>
113.219886779785

> <r_mmod_Torsional_Energy-OPLS-2005>
274.269561767578

> <r_mmod_Improper_Torsional_Energy-OPLS-2005>
14.388090133667

> <r_mmod_Van_der_Waal_Energy-OPLS-2005>
154.685638427734

> <r_mmod_Electrostatic_Energy-OPLS-2005>
-224.458755493164

> <r_mmod_Solvation_Energy-OPLS-2005>
-184.183929443359

> <b_mmod_Minimization_Converged-OPLS-2005>
0

> <r_mmod_RMS_Derivative-OPLS-2005>
4.50776863098145

$$$$
22
                    3D
 Structure written by MMmdl.
163171  0  0  1  0            999 V2000
  -30.6685  -14.5004   20.3524 C   0  0  0  0  0  0
  -30.4297  -12.2579   19.4439 C   0  0  0  0  0  0
  -29.5010  -12.3930   18.2150 C   0  0  0  0  0  0
  -28.0144  -12.3091   18.6281 C   0  0  0  0  0  0
  -27.6451  -13.1860   19.8564 C   0  0  2  0  0  0
  -28.7090  -13.0658   20.9758 C   0  0  0  0  0  0
  -25.2575  -13.8079   20.5731 C   0  0  0  0  0  0
  -24.1804  -13.0388   20.9230 C   0  0  0  0  0  0
  -24.6353  -11.6845   20.8790 C   0  0  0  0  0  0
  -23.9023  -10.4245   21.0441 C   0  0  0  0  0  0
  -24.3572   -9.4151   21.9206 C   0  0  0  0  0  0
  -23.6251   -8.2189   22.0753 C   0  0  0  0  0  0
  -22.4243   -8.0251   21.3528 C   0  0  0  0  0  0
  -21.9878   -9.0235   20.4641 C   0  0  0  0  0  0
  -22.7211  -10.2107   20.3076 C   0  0  0  0  0  0
  -21.6823   -6.0702   22.5279 C   0  0  0  0  0  0
  -21.3986   -6.5611   23.8214 C   0  0  0  0  0  0
  -21.3662   -5.6776   24.9187 C   0  0  0  0  0  0
  -21.6054   -4.3040   24.7244 C   0  0  0  0  0  0
  -21.8814   -3.8118   23.4369 C   0  0  0  0  0  0
  -21.9177   -4.6927   22.3415 C   0  0  0  0  0  0
  -22.7824  -13.5217   21.1887 C   0  0  0  0  0  0
  -22.1645   -4.2095   21.0998 F   0  0  0  0  0  0
  -21.5650   -3.4537   25.7767 F   0  0  0  0  0  0
  -30.0534  -13.2909   20.4150 N   0  0  0  0  0  0
  -26.2960  -12.9177   20.3382 N   0  0  0  0  0  0
  -25.9263  -11.6366   20.5836 N   0  0  0  0  0  0
  -22.0435  -12.8225   22.0433 N   0  0  0  0  0  0
  -25.4333  -15.1793   20.4119 N   0  0  0  0  0  0
  -31.8909  -14.6372   20.3062 O   0  0  0  0  0  0
  -21.6603   -6.8846   21.4234 O   0  0  0  0  0  0
  -22.3542  -14.5536   20.6752 O   0  0  0  0  0  0
  -24.6097  -31.8684   23.2118 C   0  0  0  0  0  0
  -25.9008  -32.4815   23.8415 C   0  0  1  0  0  0
  -27.2499  -27.4707   20.0995 C   0  0  0  0  0  0
  -25.5889  -33.8628   24.2341 N   0  0  0  0  0  0
  -23.3988  -30.4901   21.5481 C   0  0  2  0  0  0
  -24.8530  -28.9573   20.1124 C   0  0  0  0  0  0
  -22.7391  -29.4665   22.4987 C   0  0  0  0  0  0
  -18.0262  -28.1375   22.8476 C   0  0  0  0  0  0
  -24.1491  -36.7339   23.2641 C   0  0  0  0  0  0
  -25.9233  -30.8425   21.3649 C   0  0  0  0  0  0
  -26.0046  -29.4777   20.7161 C   0  0  0  0  0  0
  -27.2028  -28.7347   20.7183 C   0  0  0  0  0  0
  -26.0880  -26.9503   19.4922 C   0  0  0  0  0  0
  -24.8872  -27.6894   19.4998 C   0  0  0  0  0  0
  -23.6099  -29.8182   20.1625 C   0  0  0  0  0  0
  -25.4109  -36.3129   24.0339 C   0  0  1  0  0  0
  -20.5855  -28.3667   23.1309 C   0  0  2  0  0  0
  -20.6766  -26.9397   22.5427 C   0  0  0  0  0  0
  -19.5753  -26.6378   21.5216 C   0  0  0  0  0  0
  -18.1923  -26.7920   22.1612 C   0  0  0  0  0  0
  -19.1509  -28.8835   23.2891 C   0  0  0  0  0  0
  -18.9440  -30.1438   23.8901 C   0  0  0  0  0  0
  -17.6446  -30.6583   24.0559 C   0  0  0  0  0  0
  -25.9021  -34.9481   23.5139 C   0  0  0  0  0  0
  -16.5334  -29.9086   23.6319 C   0  0  0  0  0  0
  -16.7252  -28.6504   23.0333 C   0  0  0  0  0  0
  -26.4442  -31.6589   25.0735 C   0  0  0  0  0  0
  -25.3717  -31.3696   26.1485 C   0  0  0  0  0  0
  -27.0270  -30.3026   24.6118 C   0  0  0  0  0  0
  -27.6011  -32.4310   25.7507 C   0  0  0  0  0  0
  -27.5587  -37.1837   24.8462 C   0  0  0  0  0  0
  -21.4125  -29.3032   22.3713 N   0  0  0  0  0  0
  -26.4311  -37.3799   23.9386 N   0  0  0  0  0  0
  -24.6614  -31.0818   22.0996 N   0  0  0  0  0  0
  -23.4172  -28.8232   23.3036 O   0  0  0  0  0  0
  -28.4129  -26.7437   20.1351 O   0  0  0  0  0  0
  -26.5584  -34.8909   22.4700 O   0  0  0  0  0  0
  -23.5300  -32.1435   23.7536 O   0  0  0  0  0  0
  -31.5837  -18.6971   22.4686 C   0  0  0  0  0  0
  -31.0949  -17.6207   21.7053 C   0  0  0  0  0  0
  -31.0105  -19.9742   22.3381 C   0  0  0  0  0  0
  -30.0097  -17.8041   20.8196 C   0  0  0  0  0  0
  -29.8919  -20.1712   21.5056 C   0  0  0  0  0  0
  -29.3491  -19.0683   20.7945 C   0  0  0  0  0  0
  -29.5680  -16.7617   19.8638 C   0  0  0  0  0  0
  -29.3237  -21.5158   21.3170 C   0  0  0  0  0  0
  -29.8180  -15.4540   19.6589 C   0  0  0  0  0  0
  -29.9850  -22.5381   20.7446 C   0  0  0  0  0  0
  -29.0733  -25.2741   18.2843 C   0  0  0  0  0  0
  -29.1607  -24.0715   18.8922 C   0  0  0  0  0  0
  -28.0878  -19.2708   19.9469 C   0  0  0  0  0  0
  -29.0768  -22.8056   18.0489 C   0  0  0  0  0  0
  -29.3568  -23.8834   20.4039 C   0  0  0  0  0  0
  -29.1246  -26.6563   18.9086 C   0  0  0  0  0  0
  -31.4759  -12.3413   19.1444 H   0  0  0  0  0  0
  -30.3229  -11.2716   19.8991 H   0  0  0  0  0  0
  -29.7194  -11.5921   17.5096 H   0  0  0  0  0  0
  -29.7080  -13.3095   17.6662 H   0  0  0  0  0  0
  -27.8119  -11.2636   18.8594 H   0  0  0  0  0  0
  -27.3740  -12.5554   17.7801 H   0  0  0  0  0  0
  -27.6075  -14.2093   19.5062 H   0  0  0  0  0  0
  -28.6695  -12.0773   21.4337 H   0  0  0  0  0  0
  -28.5062  -13.7839   21.7728 H   0  0  0  0  0  0
  -25.2720   -9.5609   22.4783 H   0  0  0  0  0  0
  -23.9944   -7.4560   22.7463 H   0  0  0  0  0  0
  -21.0812   -8.8803   19.8925 H   0  0  0  0  0  0
  -22.3720  -10.9675   19.6194 H   0  0  0  0  0  0
  -21.1957   -7.6113   23.9717 H   0  0  0  0  0  0
  -21.1502   -6.0499   25.9093 H   0  0  0  0  0  0
  -22.0589   -2.7573   23.2908 H   0  0  0  0  0  0
  -22.4018  -11.9894   22.4874 H   0  0  0  0  0  0
  -21.1059  -13.1263   22.2633 H   0  0  0  0  0  0
  -24.6790  -15.8467   20.5326 H   0  0  0  0  0  0
  -26.3053  -15.6132   20.1349 H   0  0  0  0  0  0
  -26.7093  -32.5521   23.1195 H   0  0  0  0  0  0
  -25.0063  -33.9795   25.0505 H   0  0  0  0  0  0
  -22.6838  -31.3054   21.4070 H   0  0  0  0  0  0
  -23.3740  -35.9689   23.3318 H   0  0  0  0  0  0
  -24.3597  -36.8931   22.2056 H   0  0  0  0  0  0
  -23.7252  -37.6556   23.6632 H   0  0  0  0  0  0
  -26.0371  -31.6112   20.5997 H   0  0  0  0  0  0
  -26.8119  -30.8941   21.9840 H   0  0  0  0  0  0
  -28.0923  -29.1284   21.1912 H   0  0  0  0  0  0
  -26.1119  -25.9737   19.0281 H   0  0  0  0  0  0
  -24.0018  -27.2808   19.0323 H   0  0  0  0  0  0
  -23.7115  -30.5916   19.4011 H   0  0  0  0  0  0
  -22.7365  -29.2337   19.8680 H   0  0  0  0  0  0
  -25.1283  -36.2026   25.0838 H   0  0  0  0  0  0
  -20.9935  -28.3262   24.1432 H   0  0  0  0  0  0
  -20.5675  -26.2276   23.3626 H   0  0  0  0  0  0
  -21.6638  -26.7449   22.1213 H   0  0  0  0  0  0
  -19.6919  -25.6292   21.1241 H   0  0  0  0  0  0
  -19.6698  -27.3190   20.6750 H   0  0  0  0  0  0
  -17.4196  -26.6648   21.4014 H   0  0  0  0  0  0
  -18.0329  -26.0052   22.8998 H   0  0  0  0  0  0
  -19.7912  -30.7251   24.2278 H   0  0  0  0  0  0
  -17.4993  -31.6255   24.5173 H   0  0  0  0  0  0
  -15.5334  -30.2993   23.7636 H   0  0  0  0  0  0
  -15.8649  -28.0837   22.7040 H   0  0  0  0  0  0
  -24.5880  -30.7047   25.7822 H   0  0  0  0  0  0
  -24.8906  -32.2850   26.4946 H   0  0  0  0  0  0
  -25.8076  -30.8856   27.0236 H   0  0  0  0  0  0
  -26.2824  -29.6811   24.1113 H   0  0  0  0  0  0
  -27.3965  -29.7228   25.4590 H   0  0  0  0  0  0
  -27.8696  -30.4316   23.9320 H   0  0  0  0  0  0
  -27.2611  -33.3589   26.2127 H   0  0  0  0  0  0
  -28.3812  -32.6906   25.0339 H   0  0  0  0  0  0
  -28.0688  -31.8405   26.5399 H   0  0  0  0  0  0
  -28.2615  -38.0123   24.7479 H   0  0  0  0  0  0
  -28.1071  -36.2652   24.6320 H   0  0  0  0  0  0
  -27.2298  -37.1521   25.8864 H   0  0  0  0  0  0
  -20.9303  -29.8727   21.6902 H   0  0  0  0  0  0
  -26.0217  -38.2894   24.1342 H   0  0  0  0  0  0
  -32.4310  -18.5559   23.1262 H   0  0  0  0  0  0
  -31.6021  -16.6717   21.7788 H   0  0  0  0  0  0
  -31.4335  -20.8067   22.8843 H   0  0  0  0  0  0
  -28.9056  -17.1259   19.0967 H   0  0  0  0  0  0
  -28.2994  -21.6572   21.6308 H   0  0  0  0  0  0
  -29.3228  -15.0749   18.7818 H   0  0  0  0  0  0
  -31.0179  -22.4034   20.4549 H   0  0  0  0  0  0
  -28.9627  -25.2945   17.2093 H   0  0  0  0  0  0
  -27.4314  -18.4021   20.0011 H   0  0  0  0  0  0
  -28.3585  -19.4359   18.9027 H   0  0  0  0  0  0
  -27.4679  -20.1048   20.2712 H   0  0  0  0  0  0
  -28.7581  -23.0143   17.0267 H   0  0  0  0  0  0
  -28.3596  -22.1041   18.4744 H   0  0  0  0  0  0
  -30.0528  -22.3190   17.9941 H   0  0  0  0  0  0
  -29.9659  -24.6859   20.8226 H   0  0  0  0  0  0
  -28.3758  -23.9508   20.8752 H   0  0  0  0  0  0
  -30.1687  -26.9200   19.0803 H   0  0  0  0  0  0
  -28.7437  -27.3772   18.1823 H   0  0  0  0  0  0
  1 25  1  0  0  0
  1 30  2  0  0  0
  1 79  1  0  0  0
  2  3  1  0  0  0
  2 25  1  0  0  0
  2 87  1  0  0  0
  2 88  1  0  0  0
  3  4  1  0  0  0
  3 89  1  0  0  0
  3 90  1  0  0  0
  4  5  1  0  0  0
  4 91  1  0  0  0
  4 92  1  0  0  0
  5  6  1  0  0  0
  5 26  1  0  0  0
  5 93  1  0  0  0
  6 25  1  0  0  0
  6 94  1  0  0  0
  6 95  1  0  0  0
  7  8  2  0  0  0
  7 26  1  0  0  0
  7 29  1  0  0  0
  8  9  1  0  0  0
  8 22  1  0  0  0
  9 10  1  0  0  0
  9 27  2  0  0  0
 10 11  2  0  0  0
 10 15  1  0  0  0
 11 12  1  0  0  0
 11 96  1  0  0  0
 12 13  2  0  0  0
 12 97  1  0  0  0
 13 14  1  0  0  0
 13 31  1  0  0  0
 14 15  2  0  0  0
 14 98  1  0  0  0
 15 99  1  0  0  0
 16 17  2  0  0  0
 16 21  1  0  0  0
 16 31  1  0  0  0
 17 18  1  0  0  0
 17100  1  0  0  0
 18 19  2  0  0  0
 18101  1  0  0  0
 19 20  1  0  0  0
 19 24  1  0  0  0
 20 21  2  0  0  0
 20102  1  0  0  0
 21 23  1  0  0  0
 22 28  1  0  0  0
 22 32  2  0  0  0
 26 27  1  0  0  0
 28103  1  0  0  0
 28104  1  0  0  0
 29105  1  0  0  0
 29106  1  0  0  0
 33 34  1  0  0  0
 33 66  1  0  0  0
 33 70  2  0  0  0
 34 36  1  0  0  0
 34 59  1  0  0  0
 34107  1  0  0  0
 35 44  2  0  0  0
 35 45  1  0  0  0
 35 68  1  0  0  0
 36 56  1  0  0  0
 36108  1  0  0  0
 37 39  1  0  0  0
 37 47  1  0  0  0
 37 66  1  0  0  0
 37109  1  0  0  0
 38 43  2  0  0  0
 38 46  1  0  0  0
 38 47  1  0  0  0
 39 64  1  0  0  0
 39 67  2  0  0  0
 40 52  1  0  0  0
 40 53  2  0  0  0
 40 58  1  0  0  0
 41110  1  0  0  0
 41111  1  0  0  0
 41112  1  0  0  0
 41 48  1  0  0  0
 42 43  1  0  0  0
 42 66  1  0  0  0
 42113  1  0  0  0
 42114  1  0  0  0
 43 44  1  0  0  0
 44115  1  0  0  0
 45 46  2  0  0  0
 45116  1  0  0  0
 46117  1  0  0  0
 47118  1  0  0  0
 47119  1  0  0  0
 48 56  1  0  0  0
 48 65  1  0  0  0
 48120  1  0  0  0
 49 50  1  0  0  0
 49 53  1  0  0  0
 49 64  1  0  0  0
 49121  1  0  0  0
 50 51  1  0  0  0
 50122  1  0  0  0
 50123  1  0  0  0
 51 52  1  0  0  0
 51124  1  0  0  0
 51125  1  0  0  0
 52126  1  0  0  0
 52127  1  0  0  0
 53 54  1  0  0  0
 54 55  2  0  0  0
 54128  1  0  0  0
 55 57  1  0  0  0
 55129  1  0  0  0
 56 69  2  0  0  0
 57 58  2  0  0  0
 57130  1  0  0  0
 58131  1  0  0  0
 59 60  1  0  0  0
 59 61  1  0  0  0
 59 62  1  0  0  0
 60132  1  0  0  0
 60133  1  0  0  0
 60134  1  0  0  0
 61135  1  0  0  0
 61136  1  0  0  0
 61137  1  0  0  0
 62138  1  0  0  0
 62139  1  0  0  0
 62140  1  0  0  0
 63 65  1  0  0  0
 63141  1  0  0  0
 63142  1  0  0  0
 63143  1  0  0  0
 64144  1  0  0  0
 65145  1  0  0  0
 68 86  1  0  0  0
 71 72  2  0  0  0
 71 73  1  0  0  0
 71146  1  0  0  0
 72 74  1  0  0  0
 72147  1  0  0  0
 73 75  2  0  0  0
 73148  1  0  0  0
 74 76  2  0  0  0
 74 77  1  0  0  0
 75 76  1  0  0  0
 75 78  1  0  0  0
 76 83  1  0  0  0
 77 79  2  0  0  0
 77149  1  0  0  0
 78 80  2  0  0  0
 78150  1  0  0  0
 79151  1  0  0  0
 80 85  1  0  0  0
 80152  1  0  0  0
 81 82  2  0  0  0
 81 86  1  0  0  0
 81153  1  0  0  0
 82 84  1  0  0  0
 82 85  1  0  0  0
 83154  1  0  0  0
 83155  1  0  0  0
 83156  1  0  0  0
 84157  1  0  0  0
 84158  1  0  0  0
 84159  1  0  0  0
 85160  1  0  0  0
 85161  1  0  0  0
 86162  1  0  0  0
 86163  1  0  0  0
M  ISO  4   1 100  68 101  79 100  86 101
M  END
> <chiral flag>
0

> <version>
0

> <s_m_source_file>
/data/baiqing/PycharmProjects/Reinvent-master-3.2/result/LINK_invent/BTK/process_docking_weight1_custom_product_contain_oxygen_bond_distance_aromatic_linkinvent_7_9_3/rearranged_h_0120.sdf

> <i_m_source_file_index>
23

> <r_mmod_Potential_Energy-OPLS-2005>
145.980560302734

> <r_mmod_Stretch_Energy-OPLS-2005>
35.2252616882324

> <r_mmod_Bend_Energy-OPLS-2005>
128.84391784668

> <r_mmod_Torsional_Energy-OPLS-2005>
287.132751464844

> <r_mmod_Improper_Torsional_Energy-OPLS-2005>
24.6371269226074

> <r_mmod_Van_der_Waal_Energy-OPLS-2005>
167.431915283203

> <r_mmod_Electrostatic_Energy-OPLS-2005>
-342.319519042969

> <r_mmod_Solvation_Energy-OPLS-2005>
-188.352005004883

> <b_mmod_Minimization_Converged-OPLS-2005>
0

> <r_mmod_RMS_Derivative-OPLS-2005>
3.18563866615295

$$$$
23
                    3D
 Structure written by MMmdl.
153161  0  0  1  0            999 V2000
  -30.6876  -14.5723   20.4829 C   0  0  0  0  0  0
  -30.4181  -12.3418   19.4628 C   0  0  0  0  0  0
  -29.5032  -12.4873   18.2273 C   0  0  0  0  0  0
  -28.0227  -12.3517   18.6320 C   0  0  0  0  0  0
  -27.6538  -13.2222   19.8637 C   0  0  2  0  0  0
  -28.6949  -13.0754   20.9950 C   0  0  0  0  0  0
  -25.2563  -13.8195   20.5689 C   0  0  0  0  0  0
  -24.1831  -13.0451   20.9181 C   0  0  0  0  0  0
  -24.6403  -11.6924   20.8739 C   0  0  0  0  0  0
  -23.9082  -10.4298   21.0400 C   0  0  0  0  0  0
  -24.3630   -9.4217   21.9180 C   0  0  0  0  0  0
  -23.6304   -8.2249   22.0753 C   0  0  0  0  0  0
  -22.4282   -8.0283   21.3545 C   0  0  0  0  0  0
  -21.9919   -9.0262   20.4649 C   0  0  0  0  0  0
  -22.7251  -10.2141   20.3059 C   0  0  0  0  0  0
  -21.6861   -6.0738   22.5277 C   0  0  0  0  0  0
  -21.4013   -6.5643   23.8209 C   0  0  0  0  0  0
  -21.3662   -5.6799   24.9172 C   0  0  0  0  0  0
  -21.6045   -4.3060   24.7227 C   0  0  0  0  0  0
  -21.8825   -3.8150   23.4348 C   0  0  0  0  0  0
  -21.9196   -4.6962   22.3401 C   0  0  0  0  0  0
  -22.7856  -13.5235   21.1855 C   0  0  0  0  0  0
  -22.1664   -4.2148   21.0982 F   0  0  0  0  0  0
  -21.5633   -3.4545   25.7742 F   0  0  0  0  0  0
  -30.0193  -13.3785   20.4360 N   0  0  0  0  0  0
  -26.2998  -12.9387   20.3329 N   0  0  0  0  0  0
  -25.9337  -11.6536   20.5766 N   0  0  0  0  0  0
  -22.0512  -12.8212   22.0408 N   0  0  0  0  0  0
  -25.4288  -15.1913   20.4120 N   0  0  0  0  0  0
  -31.8607  -14.6414   20.1074 O   0  0  0  0  0  0
  -21.6649   -6.8882   21.4238 O   0  0  0  0  0  0
  -22.3540  -14.5549   20.6719 O   0  0  0  0  0  0
  -24.6202  -31.8633   23.2084 C   0  0  0  0  0  0
  -25.9078  -32.4797   23.8381 C   0  0  1  0  0  0
  -27.2265  -27.3710   20.1108 C   0  0  0  0  0  0
  -25.5925  -33.8599   24.2312 N   0  0  0  0  0  0
  -23.4115  -30.4884   21.5492 C   0  0  2  0  0  0
  -24.8576  -28.9511   20.1122 C   0  0  0  0  0  0
  -22.7437  -29.4639   22.4966 C   0  0  0  0  0  0
  -18.0274  -28.1390   22.8485 C   0  0  0  0  0  0
  -24.1490  -36.7293   23.2641 C   0  0  0  0  0  0
  -25.9474  -30.8092   21.3738 C   0  0  0  0  0  0
  -26.0220  -29.4416   20.7158 C   0  0  0  0  0  0
  -27.2086  -28.6614   20.7087 C   0  0  0  0  0  0
  -26.0412  -26.9208   19.4822 C   0  0  0  0  0  0
  -24.8660  -27.6930   19.4897 C   0  0  0  0  0  0
  -23.6237  -29.8248   20.1626 C   0  0  0  0  0  0
  -25.4117  -36.3095   24.0333 C   0  0  1  0  0  0
  -20.5870  -28.3680   23.1304 C   0  0  2  0  0  0
  -20.6776  -26.9412   22.5421 C   0  0  0  0  0  0
  -19.5756  -26.6392   21.5219 C   0  0  0  0  0  0
  -18.1930  -26.7935   22.1620 C   0  0  0  0  0  0
  -19.1524  -28.8852   23.2887 C   0  0  0  0  0  0
  -18.9452  -30.1460   23.8898 C   0  0  0  0  0  0
  -17.6453  -30.6594   24.0569 C   0  0  0  0  0  0
  -25.9045  -34.9461   23.5119 C   0  0  0  0  0  0
  -16.5344  -29.9094   23.6339 C   0  0  0  0  0  0
  -16.7260  -28.6513   23.0349 C   0  0  0  0  0  0
  -26.4503  -31.6592   25.0725 C   0  0  0  0  0  0
  -25.3772  -31.3686   26.1469 C   0  0  0  0  0  0
  -27.0349  -30.3028   24.6149 C   0  0  0  0  0  0
  -27.6072  -32.4324   25.7484 C   0  0  0  0  0  0
  -27.5580  -37.1807   24.8469 C   0  0  0  0  0  0
  -21.4157  -29.3032   22.3698 N   0  0  0  0  0  0
  -26.4300  -37.3784   23.9407 N   0  0  0  0  0  0
  -24.6780  -31.0690   22.1012 N   0  0  0  0  0  0
  -23.4180  -28.8177   23.3026 O   0  0  0  0  0  0
  -28.3673  -26.5718   20.1650 O   0  0  0  0  0  0
  -26.5596  -34.8918   22.4675 O   0  0  0  0  0  0
  -23.5381  -32.1410   23.7445 O   0  0  0  0  0  0
  -31.5843  -18.7097   18.9143 C   0  0  0  0  0  0
  -31.5952  -20.1254   18.8151 C   0  0  0  0  0  0
  -30.6405  -18.3467   19.8286 C   0  0  0  0  0  0
  -30.6458  -20.5853   19.6906 C   0  0  0  0  0  0
  -30.3797  -16.9742   20.2542 C   0  0  0  0  0  0
  -30.3366  -21.9855   19.9575 C   0  0  0  0  0  0
  -29.9226  -15.8018   20.7946 C   0  0  0  0  0  0
  -29.2906  -22.7266   20.4032 C   0  0  0  0  0  0
  -32.4997  -20.9442   17.9286 C   0  0  0  0  0  0
  -29.3572  -24.2661   20.6102 C   0  0  0  0  0  0
  -28.2072  -25.1288   19.9938 C   0  0  0  0  0  0
  -30.0108  -19.5029   20.3017 O   0  0  0  0  0  0
  -31.4660  -12.4148   19.1670 H   0  0  0  0  0  0
  -30.3087  -11.3508   19.9058 H   0  0  0  0  0  0
  -29.7541  -11.7294   17.4841 H   0  0  0  0  0  0
  -29.6718  -13.4534   17.7496 H   0  0  0  0  0  0
  -27.8405  -11.2997   18.8562 H   0  0  0  0  0  0
  -27.3763  -12.5998   17.7892 H   0  0  0  0  0  0
  -27.6771  -14.2591   19.5282 H   0  0  0  0  0  0
  -28.6870  -12.0592   21.3909 H   0  0  0  0  0  0
  -28.4503  -13.7172   21.8411 H   0  0  0  0  0  0
  -25.2774   -9.5691   22.4760 H   0  0  0  0  0  0
  -24.0013   -7.4644   22.7474 H   0  0  0  0  0  0
  -21.0853   -8.8789   19.8960 H   0  0  0  0  0  0
  -22.3707  -10.9684   19.6174 H   0  0  0  0  0  0
  -21.1995   -7.6150   23.9710 H   0  0  0  0  0  0
  -21.1481   -6.0529   25.9078 H   0  0  0  0  0  0
  -22.0599   -2.7608   23.2851 H   0  0  0  0  0  0
  -22.4140  -11.9859   22.4761 H   0  0  0  0  0  0
  -21.1135  -13.1232   22.2652 H   0  0  0  0  0  0
  -24.6670  -15.8507   20.5283 H   0  0  0  0  0  0
  -26.2887  -15.6291   20.1048 H   0  0  0  0  0  0
  -26.7136  -32.5485   23.1123 H   0  0  0  0  0  0
  -25.0121  -33.9758   25.0490 H   0  0  0  0  0  0
  -22.7029  -31.3074   21.4098 H   0  0  0  0  0  0
  -23.3754  -35.9625   23.3320 H   0  0  0  0  0  0
  -24.3574  -36.8892   22.2050 H   0  0  0  0  0  0
  -23.7239  -37.6502   23.6644 H   0  0  0  0  0  0
  -26.0766  -31.5770   20.6093 H   0  0  0  0  0  0
  -26.8284  -30.8534   22.0026 H   0  0  0  0  0  0
  -28.1022  -29.0323   21.1918 H   0  0  0  0  0  0
  -25.9997  -25.9638   18.9838 H   0  0  0  0  0  0
  -23.9735  -27.3119   19.0125 H   0  0  0  0  0  0
  -23.7420  -30.6031   19.4079 H   0  0  0  0  0  0
  -22.7457  -29.2521   19.8590 H   0  0  0  0  0  0
  -25.1301  -36.1960   25.0827 H   0  0  0  0  0  0
  -20.9952  -28.3258   24.1429 H   0  0  0  0  0  0
  -20.5706  -26.2280   23.3608 H   0  0  0  0  0  0
  -21.6643  -26.7479   22.1199 H   0  0  0  0  0  0
  -19.6927  -25.6306   21.1245 H   0  0  0  0  0  0
  -19.6709  -27.3207   20.6755 H   0  0  0  0  0  0
  -17.4206  -26.6674   21.4017 H   0  0  0  0  0  0
  -18.0331  -26.0082   22.9020 H   0  0  0  0  0  0
  -19.7927  -30.7278   24.2264 H   0  0  0  0  0  0
  -17.5010  -31.6273   24.5169 H   0  0  0  0  0  0
  -15.5344  -30.2995   23.7679 H   0  0  0  0  0  0
  -15.8654  -28.0844   22.7061 H   0  0  0  0  0  0
  -24.5955  -30.7026   25.7796 H   0  0  0  0  0  0
  -24.8958  -32.2830   26.4944 H   0  0  0  0  0  0
  -25.8140  -30.8836   27.0209 H   0  0  0  0  0  0
  -26.2902  -29.6759   24.1231 H   0  0  0  0  0  0
  -27.4120  -29.7301   25.4632 H   0  0  0  0  0  0
  -27.8743  -30.4321   23.9312 H   0  0  0  0  0  0
  -27.2692  -33.3622   26.2070 H   0  0  0  0  0  0
  -28.3877  -32.6889   25.0308 H   0  0  0  0  0  0
  -28.0750  -31.8449   26.5393 H   0  0  0  0  0  0
  -28.2616  -38.0089   24.7511 H   0  0  0  0  0  0
  -28.1062  -36.2621   24.6318 H   0  0  0  0  0  0
  -27.2289  -37.1481   25.8871 H   0  0  0  0  0  0
  -20.9331  -29.8725   21.6892 H   0  0  0  0  0  0
  -26.0186  -38.2863   24.1408 H   0  0  0  0  0  0
  -32.2211  -18.0181   18.3797 H   0  0  0  0  0  0
  -29.5262  -17.4114   20.7486 H   0  0  0  0  0  0
  -31.2081  -22.5928   19.7561 H   0  0  0  0  0  0
  -29.0448  -15.7419   21.4272 H   0  0  0  0  0  0
  -28.3577  -22.2389   20.6495 H   0  0  0  0  0  0
  -33.1221  -20.2984   17.3083 H   0  0  0  0  0  0
  -33.1562  -21.5745   18.5289 H   0  0  0  0  0  0
  -31.9124  -21.5856   17.2711 H   0  0  0  0  0  0
  -30.3110  -24.6350   20.2308 H   0  0  0  0  0  0
  -29.3772  -24.4423   21.6861 H   0  0  0  0  0  0
  -27.2789  -24.7962   20.4614 H   0  0  0  0  0  0
  -28.1222  -24.9136   18.9282 H   0  0  0  0  0  0
  1 25  1  0  0  0
  1 30  2  0  0  0
  1 77  1  0  0  0
  2  3  1  0  0  0
  2 25  1  0  0  0
  2 83  1  0  0  0
  2 84  1  0  0  0
  3  4  1  0  0  0
  3 85  1  0  0  0
  3 86  1  0  0  0
  4  5  1  0  0  0
  4 87  1  0  0  0
  4 88  1  0  0  0
  5  6  1  0  0  0
  5 26  1  0  0  0
  5 89  1  0  0  0
  6 25  1  0  0  0
  6 90  1  0  0  0
  6 91  1  0  0  0
  7  8  2  0  0  0
  7 26  1  0  0  0
  7 29  1  0  0  0
  8  9  1  0  0  0
  8 22  1  0  0  0
  9 10  1  0  0  0
  9 27  2  0  0  0
 10 11  2  0  0  0
 10 15  1  0  0  0
 11 12  1  0  0  0
 11 92  1  0  0  0
 12 13  2  0  0  0
 12 93  1  0  0  0
 13 14  1  0  0  0
 13 31  1  0  0  0
 14 15  2  0  0  0
 14 94  1  0  0  0
 15 95  1  0  0  0
 16 17  2  0  0  0
 16 21  1  0  0  0
 16 31  1  0  0  0
 17 18  1  0  0  0
 17 96  1  0  0  0
 18 19  2  0  0  0
 18 97  1  0  0  0
 19 20  1  0  0  0
 19 24  1  0  0  0
 20 21  2  0  0  0
 20 98  1  0  0  0
 21 23  1  0  0  0
 22 28  1  0  0  0
 22 32  2  0  0  0
 26 27  1  0  0  0
 28 99  1  0  0  0
 28100  1  0  0  0
 29101  1  0  0  0
 29102  1  0  0  0
 33 34  1  0  0  0
 33 66  1  0  0  0
 33 70  2  0  0  0
 34 36  1  0  0  0
 34 59  1  0  0  0
 34103  1  0  0  0
 35 44  2  0  0  0
 35 45  1  0  0  0
 35 68  1  0  0  0
 36 56  1  0  0  0
 36104  1  0  0  0
 37 39  1  0  0  0
 37 47  1  0  0  0
 37 66  1  0  0  0
 37105  1  0  0  0
 38 43  2  0  0  0
 38 46  1  0  0  0
 38 47  1  0  0  0
 39 64  1  0  0  0
 39 67  2  0  0  0
 40 52  1  0  0  0
 40 53  2  0  0  0
 40 58  1  0  0  0
 41106  1  0  0  0
 41107  1  0  0  0
 41108  1  0  0  0
 41 48  1  0  0  0
 42 43  1  0  0  0
 42 66  1  0  0  0
 42109  1  0  0  0
 42110  1  0  0  0
 43 44  1  0  0  0
 44111  1  0  0  0
 45 46  2  0  0  0
 45112  1  0  0  0
 46113  1  0  0  0
 47114  1  0  0  0
 47115  1  0  0  0
 48 56  1  0  0  0
 48 65  1  0  0  0
 48116  1  0  0  0
 49 50  1  0  0  0
 49 53  1  0  0  0
 49 64  1  0  0  0
 49117  1  0  0  0
 50 51  1  0  0  0
 50118  1  0  0  0
 50119  1  0  0  0
 51 52  1  0  0  0
 51120  1  0  0  0
 51121  1  0  0  0
 52122  1  0  0  0
 52123  1  0  0  0
 53 54  1  0  0  0
 54 55  2  0  0  0
 54124  1  0  0  0
 55 57  1  0  0  0
 55125  1  0  0  0
 56 69  2  0  0  0
 57 58  2  0  0  0
 57126  1  0  0  0
 58127  1  0  0  0
 59 60  1  0  0  0
 59 61  1  0  0  0
 59 62  1  0  0  0
 60128  1  0  0  0
 60129  1  0  0  0
 60130  1  0  0  0
 61131  1  0  0  0
 61132  1  0  0  0
 61133  1  0  0  0
 62134  1  0  0  0
 62135  1  0  0  0
 62136  1  0  0  0
 63 65  1  0  0  0
 63137  1  0  0  0
 63138  1  0  0  0
 63139  1  0  0  0
 64140  1  0  0  0
 65141  1  0  0  0
 68 81  1  0  0  0
 71 72  1  0  0  0
 71 73  2  0  0  0
 71142  1  0  0  0
 72 74  2  0  0  0
 72 79  1  0  0  0
 73 75  1  0  0  0
 73 82  1  0  0  0
 74 76  1  0  0  0
 74 82  1  0  0  0
 75 77  2  0  0  0
 75143  1  0  0  0
 76 78  2  0  0  0
 76144  1  0  0  0
 77145  1  0  0  0
 78 80  1  0  0  0
 78146  1  0  0  0
 79147  1  0  0  0
 79148  1  0  0  0
 79149  1  0  0  0
 80 81  1  0  0  0
 80150  1  0  0  0
 80151  1  0  0  0
 81152  1  0  0  0
 81153  1  0  0  0
M  ISO  4   1 100  68 101  77 100  81 101
M  END
> <chiral flag>
0

> <version>
0

> <s_m_source_file>
/data/baiqing/PycharmProjects/Reinvent-master-3.2/result/LINK_invent/BTK/process_docking_weight1_custom_product_contain_oxygen_bond_distance_aromatic_linkinvent_7_9_3/rearranged_h_0120.sdf

> <i_m_source_file_index>
24

> <r_mmod_Potential_Energy-OPLS-2005>
237.657638549805

> <r_mmod_Stretch_Energy-OPLS-2005>
54.672290802002

> <r_mmod_Bend_Energy-OPLS-2005>
361.810638427734

> <r_mmod_Torsional_Energy-OPLS-2005>
184.032562255859

> <r_mmod_Improper_Torsional_Energy-OPLS-2005>
4.27151966094971

> <r_mmod_Van_der_Waal_Energy-OPLS-2005>
137.933609008789

> <r_mmod_Electrostatic_Energy-OPLS-2005>
-337.182403564453

> <r_mmod_Solvation_Energy-OPLS-2005>
-199.66455078125

> <b_mmod_Minimization_Converged-OPLS-2005>
0

> <r_mmod_RMS_Derivative-OPLS-2005>
1.45029127597809

$$$$
24
                    3D
 Structure written by MMmdl.
154162  0  0  1  0            999 V2000
  -30.5927  -14.7590   20.4614 C   0  0  0  0  0  0
  -30.4466  -12.4803   19.4265 C   0  0  0  0  0  0
  -29.5050  -12.4853   18.2037 C   0  0  0  0  0  0
  -28.0328  -12.3076   18.6340 C   0  0  0  0  0  0
  -27.6361  -13.2196   19.8268 C   0  0  2  0  0  0
  -28.6895  -13.1551   20.9485 C   0  0  0  0  0  0
  -25.2523  -13.8149   20.5656 C   0  0  0  0  0  0
  -24.1811  -13.0401   20.9189 C   0  0  0  0  0  0
  -24.6395  -11.6875   20.8727 C   0  0  0  0  0  0
  -23.9079  -10.4266   21.0405 C   0  0  0  0  0  0
  -24.3629   -9.4192   21.9192 C   0  0  0  0  0  0
  -23.6311   -8.2224   22.0765 C   0  0  0  0  0  0
  -22.4286   -8.0266   21.3557 C   0  0  0  0  0  0
  -21.9919   -9.0233   20.4649 C   0  0  0  0  0  0
  -22.7248  -10.2119   20.3056 C   0  0  0  0  0  0
  -21.6826   -6.0742   22.5290 C   0  0  0  0  0  0
  -21.4001   -6.5647   23.8229 C   0  0  0  0  0  0
  -21.3661   -5.6790   24.9176 C   0  0  0  0  0  0
  -21.6044   -4.3055   24.7218 C   0  0  0  0  0  0
  -21.8818   -3.8156   23.4331 C   0  0  0  0  0  0
  -21.9203   -4.6978   22.3395 C   0  0  0  0  0  0
  -22.7842  -13.5211   21.1870 C   0  0  0  0  0  0
  -22.1662   -4.2173   21.0968 F   0  0  0  0  0  0
  -21.5641   -3.4530   25.7726 F   0  0  0  0  0  0
  -29.9700  -13.5388   20.3429 N   0  0  0  0  0  0
  -26.2920  -12.9338   20.3169 N   0  0  0  0  0  0
  -25.9307  -11.6487   20.5662 N   0  0  0  0  0  0
  -22.0462  -12.8211   22.0410 N   0  0  0  0  0  0
  -25.4141  -15.1885   20.4125 N   0  0  0  0  0  0
  -31.8081  -14.8463   20.2721 O   0  0  0  0  0  0
  -21.6638   -6.8878   21.4251 O   0  0  0  0  0  0
  -22.3556  -14.5525   20.6722 O   0  0  0  0  0  0
  -24.6354  -31.8523   23.1934 C   0  0  0  0  0  0
  -25.9183  -32.4725   23.8303 C   0  0  1  0  0  0
  -27.2072  -27.2172   20.1292 C   0  0  0  0  0  0
  -25.5972  -33.8545   24.2209 N   0  0  0  0  0  0
  -23.4328  -30.4748   21.5377 C   0  0  2  0  0  0
  -24.8785  -28.9166   20.1101 C   0  0  0  0  0  0
  -22.7521  -29.4582   22.4866 C   0  0  0  0  0  0
  -18.0319  -28.1376   22.8476 C   0  0  0  0  0  0
  -24.1505  -36.7274   23.2636 C   0  0  0  0  0  0
  -25.9857  -30.7443   21.3901 C   0  0  0  0  0  0
  -26.0525  -29.3657   20.7272 C   0  0  0  0  0  0
  -27.2218  -28.5295   20.7241 C   0  0  0  0  0  0
  -26.0173  -26.8620   19.4574 C   0  0  0  0  0  0
  -24.8684  -27.6751   19.4613 C   0  0  0  0  0  0
  -23.6521  -29.8074   20.1554 C   0  0  0  0  0  0
  -25.4144  -36.3045   24.0303 C   0  0  1  0  0  0
  -20.5937  -28.3716   23.1216 C   0  0  2  0  0  0
  -20.6821  -26.9429   22.5376 C   0  0  0  0  0  0
  -19.5780  -26.6348   21.5208 C   0  0  0  0  0  0
  -18.1952  -26.7899   22.1637 C   0  0  0  0  0  0
  -19.1578  -28.8863   23.2835 C   0  0  0  0  0  0
  -18.9512  -30.1446   23.8857 C   0  0  0  0  0  0
  -17.6513  -30.6576   24.0543 C   0  0  0  0  0  0
  -25.9095  -34.9422   23.5064 C   0  0  0  0  0  0
  -16.5394  -29.9080   23.6338 C   0  0  0  0  0  0
  -16.7306  -28.6480   23.0367 C   0  0  0  0  0  0
  -26.4529  -31.6586   25.0736 C   0  0  0  0  0  0
  -25.3712  -31.3779   26.1427 C   0  0  0  0  0  0
  -27.0408  -30.2972   24.6334 C   0  0  0  0  0  0
  -27.6045  -32.4348   25.7528 C   0  0  0  0  0  0
  -27.5586  -37.1793   24.8465 C   0  0  0  0  0  0
  -21.4225  -29.3062   22.3589 N   0  0  0  0  0  0
  -26.4309  -37.3743   23.9391 N   0  0  0  0  0  0
  -24.7024  -31.0447   22.0937 N   0  0  0  0  0  0
  -23.4181  -28.8114   23.2986 O   0  0  0  0  0  0
  -28.2786  -26.2809   20.1643 O   0  0  0  0  0  0
  -26.5660  -34.8905   22.4623 O   0  0  0  0  0  0
  -23.5499  -32.1367   23.7211 O   0  0  0  0  0  0
  -29.6496  -16.3851   22.7834 C   0  0  0  0  0  0
  -29.4175  -17.1334   23.9424 C   0  0  0  0  0  0
  -29.2090  -19.1230   22.5835 C   0  0  0  0  0  0
  -29.4572  -18.4298   21.3710 C   0  0  0  0  0  0
  -29.6816  -16.9582   21.4828 C   0  0  0  0  0  0
  -29.1924  -18.5049   23.8411 C   0  0  0  0  0  0
  -29.4846  -19.3738   20.1548 C   0  0  0  0  0  0
  -29.2054  -20.7266   19.8728 C   0  0  0  0  0  0
  -28.6116  -22.0273   20.6078 C   0  0  0  0  0  0
  -29.0022  -23.5610   20.1573 C   0  0  0  0  0  0
  -27.9805  -24.8094   20.4406 C   0  0  0  0  0  0
  -29.8040  -15.9112   20.4494 N   0  0  0  0  0  0
  -28.9621  -19.2377   24.9565 F   0  0  0  0  0  0
  -31.4721  -12.6532   19.0934 H   0  0  0  0  0  0
  -30.4462  -11.5106   19.9239 H   0  0  0  0  0  0
  -29.7852  -11.6902   17.5107 H   0  0  0  0  0  0
  -29.6166  -13.4208   17.6515 H   0  0  0  0  0  0
  -27.8999  -11.2616   18.9169 H   0  0  0  0  0  0
  -27.3697  -12.4818   17.7857 H   0  0  0  0  0  0
  -27.6260  -14.2395   19.4447 H   0  0  0  0  0  0
  -28.7462  -12.1483   21.3652 H   0  0  0  0  0  0
  -28.4130  -13.8167   21.7697 H   0  0  0  0  0  0
  -25.2768   -9.5671   22.4773 H   0  0  0  0  0  0
  -24.0014   -7.4616   22.7467 H   0  0  0  0  0  0
  -21.0865   -8.8742   19.8952 H   0  0  0  0  0  0
  -22.3697  -10.9661   19.6172 H   0  0  0  0  0  0
  -21.1953   -7.6142   23.9728 H   0  0  0  0  0  0
  -21.1497   -6.0510   25.9084 H   0  0  0  0  0  0
  -22.0603   -2.7622   23.2809 H   0  0  0  0  0  0
  -22.4088  -11.9919   22.4882 H   0  0  0  0  0  0
  -21.1062  -13.1224   22.2536 H   0  0  0  0  0  0
  -24.6351  -15.8243   20.5396 H   0  0  0  0  0  0
  -26.2572  -15.6546   20.1073 H   0  0  0  0  0  0
  -26.7256  -32.5316   23.1041 H   0  0  0  0  0  0
  -25.0152  -33.9695   25.0382 H   0  0  0  0  0  0
  -22.7347  -31.3008   21.3889 H   0  0  0  0  0  0
  -23.3754  -35.9610   23.3302 H   0  0  0  0  0  0
  -24.3585  -36.8901   22.2046 H   0  0  0  0  0  0
  -23.7286  -37.6478   23.6680 H   0  0  0  0  0  0
  -26.1558  -31.5049   20.6262 H   0  0  0  0  0  0
  -26.8504  -30.7715   22.0411 H   0  0  0  0  0  0
  -28.1202  -28.8699   21.2182 H   0  0  0  0  0  0
  -25.9453  -25.9361   18.9081 H   0  0  0  0  0  0
  -23.9766  -27.3378   18.9489 H   0  0  0  0  0  0
  -23.7794  -30.5782   19.3955 H   0  0  0  0  0  0
  -22.7684  -29.2429   19.8499 H   0  0  0  0  0  0
  -25.1329  -36.1878   25.0788 H   0  0  0  0  0  0
  -21.0008  -28.3328   24.1342 H   0  0  0  0  0  0
  -20.5729  -26.2332   23.3588 H   0  0  0  0  0  0
  -21.6695  -26.7438   22.1186 H   0  0  0  0  0  0
  -19.6960  -25.6259   21.1245 H   0  0  0  0  0  0
  -19.6746  -27.3121   20.6725 H   0  0  0  0  0  0
  -17.4182  -26.6566   21.4073 H   0  0  0  0  0  0
  -18.0419  -26.0096   22.9089 H   0  0  0  0  0  0
  -19.7990  -30.7271   24.2211 H   0  0  0  0  0  0
  -17.5094  -31.6256   24.5157 H   0  0  0  0  0  0
  -15.5397  -30.2984   23.7706 H   0  0  0  0  0  0
  -15.8706  -28.0781   22.7143 H   0  0  0  0  0  0
  -24.5884  -30.7141   25.7748 H   0  0  0  0  0  0
  -24.8925  -32.2966   26.4807 H   0  0  0  0  0  0
  -25.7995  -30.8976   27.0236 H   0  0  0  0  0  0
  -26.3042  -29.6663   24.1335 H   0  0  0  0  0  0
  -27.4005  -29.7304   25.4937 H   0  0  0  0  0  0
  -27.8956  -30.4191   23.9674 H   0  0  0  0  0  0
  -27.2621  -33.3647   26.2083 H   0  0  0  0  0  0
  -28.3880  -32.6912   25.0386 H   0  0  0  0  0  0
  -28.0690  -31.8498   26.5476 H   0  0  0  0  0  0
  -28.2594  -38.0093   24.7490 H   0  0  0  0  0  0
  -28.1091  -36.2622   24.6322 H   0  0  0  0  0  0
  -27.2299  -37.1467   25.8864 H   0  0  0  0  0  0
  -20.9437  -29.8707   21.6715 H   0  0  0  0  0  0
  -26.0182  -38.2813   24.1343 H   0  0  0  0  0  0
  -29.7792  -15.3231   22.9334 H   0  0  0  0  0  0
  -29.4012  -16.6442   24.9055 H   0  0  0  0  0  0
  -29.0449  -20.1811   22.5862 H   0  0  0  0  0  0
  -29.8384  -18.8387   19.2833 H   0  0  0  0  0  0
  -29.3975  -20.9665   18.8342 H   0  0  0  0  0  0
  -28.7507  -21.9660   21.6801 H   0  0  0  0  0  0
  -27.5370  -21.9311   20.4560 H   0  0  0  0  0  0
  -29.9505  -23.8011   20.6426 H   0  0  0  0  0  0
  -29.2268  -23.5528   19.0907 H   0  0  0  0  0  0
  -27.7486  -24.7691   21.5050 H   0  0  0  0  0  0
  -27.0525  -24.5113   19.9537 H   0  0  0  0  0  0
  -28.9421  -15.7598   19.9482 H   0  0  0  0  0  0
  1 25  1  0  0  0
  1 30  2  0  0  0
  1 82  1  0  0  0
  2  3  1  0  0  0
  2 25  1  0  0  0
  2 84  1  0  0  0
  2 85  1  0  0  0
  3  4  1  0  0  0
  3 86  1  0  0  0
  3 87  1  0  0  0
  4  5  1  0  0  0
  4 88  1  0  0  0
  4 89  1  0  0  0
  5  6  1  0  0  0
  5 26  1  0  0  0
  5 90  1  0  0  0
  6 25  1  0  0  0
  6 91  1  0  0  0
  6 92  1  0  0  0
  7  8  2  0  0  0
  7 26  1  0  0  0
  7 29  1  0  0  0
  8  9  1  0  0  0
  8 22  1  0  0  0
  9 10  1  0  0  0
  9 27  2  0  0  0
 10 11  2  0  0  0
 10 15  1  0  0  0
 11 12  1  0  0  0
 11 93  1  0  0  0
 12 13  2  0  0  0
 12 94  1  0  0  0
 13 14  1  0  0  0
 13 31  1  0  0  0
 14 15  2  0  0  0
 14 95  1  0  0  0
 15 96  1  0  0  0
 16 17  2  0  0  0
 16 21  1  0  0  0
 16 31  1  0  0  0
 17 18  1  0  0  0
 17 97  1  0  0  0
 18 19  2  0  0  0
 18 98  1  0  0  0
 19 20  1  0  0  0
 19 24  1  0  0  0
 20 21  2  0  0  0
 20 99  1  0  0  0
 21 23  1  0  0  0
 22 28  1  0  0  0
 22 32  2  0  0  0
 26 27  1  0  0  0
 28100  1  0  0  0
 28101  1  0  0  0
 29102  1  0  0  0
 29103  1  0  0  0
 33 34  1  0  0  0
 33 66  1  0  0  0
 33 70  2  0  0  0
 34 36  1  0  0  0
 34 59  1  0  0  0
 34104  1  0  0  0
 35 44  2  0  0  0
 35 45  1  0  0  0
 35 68  1  0  0  0
 36 56  1  0  0  0
 36105  1  0  0  0
 37 39  1  0  0  0
 37 47  1  0  0  0
 37 66  1  0  0  0
 37106  1  0  0  0
 38 43  2  0  0  0
 38 46  1  0  0  0
 38 47  1  0  0  0
 39 64  1  0  0  0
 39 67  2  0  0  0
 40 52  1  0  0  0
 40 53  2  0  0  0
 40 58  1  0  0  0
 41107  1  0  0  0
 41108  1  0  0  0
 41109  1  0  0  0
 41 48  1  0  0  0
 42 43  1  0  0  0
 42 66  1  0  0  0
 42110  1  0  0  0
 42111  1  0  0  0
 43 44  1  0  0  0
 44112  1  0  0  0
 45 46  2  0  0  0
 45113  1  0  0  0
 46114  1  0  0  0
 47115  1  0  0  0
 47116  1  0  0  0
 48 56  1  0  0  0
 48 65  1  0  0  0
 48117  1  0  0  0
 49 50  1  0  0  0
 49 53  1  0  0  0
 49 64  1  0  0  0
 49118  1  0  0  0
 50 51  1  0  0  0
 50119  1  0  0  0
 50120  1  0  0  0
 51 52  1  0  0  0
 51121  1  0  0  0
 51122  1  0  0  0
 52123  1  0  0  0
 52124  1  0  0  0
 53 54  1  0  0  0
 54 55  2  0  0  0
 54125  1  0  0  0
 55 57  1  0  0  0
 55126  1  0  0  0
 56 69  2  0  0  0
 57 58  2  0  0  0
 57127  1  0  0  0
 58128  1  0  0  0
 59 60  1  0  0  0
 59 61  1  0  0  0
 59 62  1  0  0  0
 60129  1  0  0  0
 60130  1  0  0  0
 60131  1  0  0  0
 61132  1  0  0  0
 61133  1  0  0  0
 61134  1  0  0  0
 62135  1  0  0  0
 62136  1  0  0  0
 62137  1  0  0  0
 63 65  1  0  0  0
 63138  1  0  0  0
 63139  1  0  0  0
 63140  1  0  0  0
 64141  1  0  0  0
 65142  1  0  0  0
 68 81  1  0  0  0
 71 72  2  0  0  0
 71 75  1  0  0  0
 71143  1  0  0  0
 72 76  1  0  0  0
 72144  1  0  0  0
 73 74  1  0  0  0
 73 76  2  0  0  0
 73145  1  0  0  0
 74 75  2  0  0  0
 74 77  1  0  0  0
 75 82  1  0  0  0
 76 83  1  0  0  0
 77 78  2  0  0  0
 77146  1  0  0  0
 78 79  1  0  0  0
 78147  1  0  0  0
 79 80  1  0  0  0
 79148  1  0  0  0
 79149  1  0  0  0
 80 81  1  0  0  0
 80150  1  0  0  0
 80151  1  0  0  0
 81152  1  0  0  0
 81153  1  0  0  0
 82154  1  0  0  0
M  ISO  4   1 100  68 101  81 101  82 100
M  END
> <chiral flag>
0

> <version>
0

> <s_m_source_file>
/data/baiqing/PycharmProjects/Reinvent-master-3.2/result/LINK_invent/BTK/process_docking_weight1_custom_product_contain_oxygen_bond_distance_aromatic_linkinvent_7_9_3/rearranged_h_0120.sdf

> <i_m_source_file_index>
25

> <r_mmod_Potential_Energy-OPLS-2005>
346.801055908203

> <r_mmod_Stretch_Energy-OPLS-2005>
159.049392700195

> <r_mmod_Bend_Energy-OPLS-2005>
236.49333190918

> <r_mmod_Torsional_Energy-OPLS-2005>
276.728118896484

> <r_mmod_Improper_Torsional_Energy-OPLS-2005>
11.587986946106

> <r_mmod_Van_der_Waal_Energy-OPLS-2005>
140.664260864258

> <r_mmod_Electrostatic_Energy-OPLS-2005>
-382.290710449219

> <r_mmod_Solvation_Energy-OPLS-2005>
-204.361968994141

> <b_mmod_Minimization_Converged-OPLS-2005>
0

> <r_mmod_RMS_Derivative-OPLS-2005>
4.12252950668335

$$$$
25
                    3D
 Structure written by MMmdl.
156164  0  0  1  0            999 V2000
  -30.7024  -14.4662   20.5865 C   0  0  0  0  0  0
  -30.4211  -12.3085   19.4207 C   0  0  0  0  0  0
  -29.4972  -12.5226   18.2030 C   0  0  0  0  0  0
  -28.0153  -12.3851   18.6069 C   0  0  0  0  0  0
  -27.6624  -13.2077   19.8768 C   0  0  2  0  0  0
  -28.7017  -12.9627   20.9929 C   0  0  0  0  0  0
  -25.2593  -13.8153   20.5680 C   0  0  0  0  0  0
  -24.1838  -13.0435   20.9162 C   0  0  0  0  0  0
  -24.6386  -11.6909   20.8706 C   0  0  0  0  0  0
  -23.9053  -10.4300   21.0386 C   0  0  0  0  0  0
  -24.3618   -9.4227   21.9158 C   0  0  0  0  0  0
  -23.6311   -8.2253   22.0749 C   0  0  0  0  0  0
  -22.4287   -8.0285   21.3554 C   0  0  0  0  0  0
  -21.9902   -9.0249   20.4647 C   0  0  0  0  0  0
  -22.7221  -10.2129   20.3047 C   0  0  0  0  0  0
  -21.6861   -6.0741   22.5295 C   0  0  0  0  0  0
  -21.4011   -6.5648   23.8227 C   0  0  0  0  0  0
  -21.3649   -5.6796   24.9187 C   0  0  0  0  0  0
  -21.6047   -4.3060   24.7248 C   0  0  0  0  0  0
  -21.8821   -3.8155   23.4367 C   0  0  0  0  0  0
  -21.9185   -4.6964   22.3413 C   0  0  0  0  0  0
  -22.7861  -13.5236   21.1829 C   0  0  0  0  0  0
  -22.1657   -4.2146   21.0995 F   0  0  0  0  0  0
  -21.5630   -3.4545   25.7757 F   0  0  0  0  0  0
  -30.0353  -13.2823   20.4569 N   0  0  0  0  0  0
  -26.3031  -12.9321   20.3367 N   0  0  0  0  0  0
  -25.9316  -11.6480   20.5728 N   0  0  0  0  0  0
  -22.0500  -12.8255   22.0394 N   0  0  0  0  0  0
  -25.4324  -15.1867   20.4136 N   0  0  0  0  0  0
  -31.8085  -14.6442   20.0647 O   0  0  0  0  0  0
  -21.6659   -6.8883   21.4262 O   0  0  0  0  0  0
  -22.3543  -14.5535   20.6663 O   0  0  0  0  0  0
  -24.6171  -31.8659   23.2074 C   0  0  0  0  0  0
  -25.9065  -32.4795   23.8372 C   0  0  1  0  0  0
  -27.2265  -27.4189   20.1060 C   0  0  0  0  0  0
  -25.5933  -33.8602   24.2304 N   0  0  0  0  0  0
  -23.4041  -30.4891   21.5482 C   0  0  2  0  0  0
  -24.8515  -28.9511   20.1129 C   0  0  0  0  0  0
  -22.7401  -29.4656   22.4983 C   0  0  0  0  0  0
  -18.0271  -28.1370   22.8481 C   0  0  0  0  0  0
  -24.1490  -36.7293   23.2625 C   0  0  0  0  0  0
  -25.9346  -30.8271   21.3623 C   0  0  0  0  0  0
  -26.0128  -29.4612   20.7086 C   0  0  0  0  0  0
  -27.2079  -28.7026   20.7003 C   0  0  0  0  0  0
  -26.0528  -26.9252   19.5017 C   0  0  0  0  0  0
  -24.8676  -27.6837   19.5034 C   0  0  0  0  0  0
  -23.6122  -29.8169   20.1646 C   0  0  0  0  0  0
  -25.4100  -36.3088   24.0341 C   0  0  1  0  0  0
  -20.5856  -28.3662   23.1314 C   0  0  2  0  0  0
  -20.6753  -26.9399   22.5422 C   0  0  0  0  0  0
  -19.5748  -26.6377   21.5202 C   0  0  0  0  0  0
  -18.1920  -26.7931   22.1598 C   0  0  0  0  0  0
  -19.1518  -28.8834   23.2891 C   0  0  0  0  0  0
  -18.9449  -30.1442   23.8888 C   0  0  0  0  0  0
  -17.6456  -30.6583   24.0547 C   0  0  0  0  0  0
  -25.9048  -34.9463   23.5105 C   0  0  0  0  0  0
  -16.5343  -29.9076   23.6334 C   0  0  0  0  0  0
  -16.7259  -28.6491   23.0350 C   0  0  0  0  0  0
  -26.4488  -31.6568   25.0700 C   0  0  0  0  0  0
  -25.3764  -31.3702   26.1460 C   0  0  0  0  0  0
  -27.0293  -30.2994   24.6077 C   0  0  0  0  0  0
  -27.6086  -32.4270   25.7456 C   0  0  0  0  0  0
  -27.5612  -37.1749   24.8421 C   0  0  0  0  0  0
  -21.4130  -29.3028   22.3716 N   0  0  0  0  0  0
  -26.4257  -37.3805   23.9469 N   0  0  0  0  0  0
  -24.6698  -31.0751   22.0974 N   0  0  0  0  0  0
  -23.4165  -28.8200   23.3031 O   0  0  0  0  0  0
  -28.3566  -26.6320   20.1231 O   0  0  0  0  0  0
  -26.5588  -34.8937   22.4653 O   0  0  0  0  0  0
  -23.5360  -32.1416   23.7467 O   0  0  0  0  0  0
  -28.9626  -18.0284   22.7001 C   0  0  0  0  0  0
  -28.3356  -20.3796   22.5784 C   0  0  0  0  0  0
  -29.4729  -18.0633   21.3839 C   0  0  0  0  0  0
  -29.3911  -19.2954   20.6547 C   0  0  0  0  0  0
  -28.8352  -20.4704   21.2561 C   0  0  0  0  0  0
  -28.4014  -19.1707   23.2912 C   0  0  0  0  0  0
  -29.2117  -19.9208   18.2341 C   0  0  0  0  0  0
  -30.0588  -16.8158   20.7982 C   0  0  0  0  0  0
  -29.8634  -19.3427   19.2563 C   0  0  0  0  0  0
  -30.0014  -15.5491   21.2846 C   0  0  0  0  0  0
  -28.5801  -24.1407   20.3384 C   0  0  0  0  0  0
  -28.2406  -25.4941   21.0085 C   0  0  0  0  0  0
  -28.3914  -22.8722   21.2077 C   0  0  0  0  0  0
  -28.9800  -24.0755   19.1696 O   0  0  0  0  0  0
  -28.8275  -21.6692   20.5431 O   0  0  0  0  0  0
  -27.8059  -19.0918   24.9091 Cl  0  0  0  0  0  0
  -31.4659  -12.4004   19.1200 H   0  0  0  0  0  0
  -30.3160  -11.2896   19.8002 H   0  0  0  0  0  0
  -29.7418  -11.8074   17.4165 H   0  0  0  0  0  0
  -29.6712  -13.5141   17.7791 H   0  0  0  0  0  0
  -27.8158  -11.3270   18.7833 H   0  0  0  0  0  0
  -27.3694  -12.6780   17.7784 H   0  0  0  0  0  0
  -27.7114  -14.2612   19.6001 H   0  0  0  0  0  0
  -28.6797  -11.9163   21.2978 H   0  0  0  0  0  0
  -28.4462  -13.5177   21.8933 H   0  0  0  0  0  0
  -25.2777   -9.5715   22.4705 H   0  0  0  0  0  0
  -24.0044   -7.4647   22.7458 H   0  0  0  0  0  0
  -21.0830   -8.8751   19.8962 H   0  0  0  0  0  0
  -22.3676  -10.9652   19.6148 H   0  0  0  0  0  0
  -21.2013   -7.6154   23.9732 H   0  0  0  0  0  0
  -21.1458   -6.0528   25.9084 H   0  0  0  0  0  0
  -22.0599   -2.7625   23.2867 H   0  0  0  0  0  0
  -22.4142  -11.9959   22.4856 H   0  0  0  0  0  0
  -21.1113  -13.1275   22.2546 H   0  0  0  0  0  0
  -24.6755  -15.8488   20.5380 H   0  0  0  0  0  0
  -26.3027  -15.6263   20.1413 H   0  0  0  0  0  0
  -26.7133  -32.5499   23.1135 H   0  0  0  0  0  0
  -25.0139  -33.9757   25.0486 H   0  0  0  0  0  0
  -22.6939  -31.3070   21.4075 H   0  0  0  0  0  0
  -23.3802  -35.9563   23.3150 H   0  0  0  0  0  0
  -24.3631  -36.9036   22.2067 H   0  0  0  0  0  0
  -23.7172  -37.6431   23.6717 H   0  0  0  0  0  0
  -26.0494  -31.5929   20.5943 H   0  0  0  0  0  0
  -26.8224  -30.8783   21.9810 H   0  0  0  0  0  0
  -28.1039  -29.0869   21.1669 H   0  0  0  0  0  0
  -26.0533  -25.9485   19.0373 H   0  0  0  0  0  0
  -23.9749  -27.2851   19.0410 H   0  0  0  0  0  0
  -23.7133  -30.5883   19.4008 H   0  0  0  0  0  0
  -22.7376  -29.2315   19.8742 H   0  0  0  0  0  0
  -25.1263  -36.1909   25.0827 H   0  0  0  0  0  0
  -20.9945  -28.3233   24.1436 H   0  0  0  0  0  0
  -20.5634  -26.2277   23.3607 H   0  0  0  0  0  0
  -21.6629  -26.7428   22.1237 H   0  0  0  0  0  0
  -19.6906  -25.6285   21.1241 H   0  0  0  0  0  0
  -19.6718  -27.3164   20.6717 H   0  0  0  0  0  0
  -17.4215  -26.6704   21.3975 H   0  0  0  0  0  0
  -18.0290  -26.0058   22.8968 H   0  0  0  0  0  0
  -19.7933  -30.7251   24.2246 H   0  0  0  0  0  0
  -17.5022  -31.6273   24.5133 H   0  0  0  0  0  0
  -15.5346  -30.2966   23.7680 H   0  0  0  0  0  0
  -15.8663  -28.0812   22.7063 H   0  0  0  0  0  0
  -24.5964  -30.6994   25.7826 H   0  0  0  0  0  0
  -24.8918  -32.2861   26.4854 H   0  0  0  0  0  0
  -25.8139  -30.8945   27.0244 H   0  0  0  0  0  0
  -26.2808  -29.6763   24.1159 H   0  0  0  0  0  0
  -27.4066  -29.7230   25.4532 H   0  0  0  0  0  0
  -27.8653  -30.4272   23.9198 H   0  0  0  0  0  0
  -27.2730  -33.3577   26.2040 H   0  0  0  0  0  0
  -28.3900  -32.6804   25.0280 H   0  0  0  0  0  0
  -28.0740  -31.8374   26.5360 H   0  0  0  0  0  0
  -28.2475  -38.0199   24.7720 H   0  0  0  0  0  0
  -28.1267  -36.2762   24.5905 H   0  0  0  0  0  0
  -27.2397  -37.0969   25.8823 H   0  0  0  0  0  0
  -20.9281  -29.8758   21.6951 H   0  0  0  0  0  0
  -26.0126  -38.2841   24.1625 H   0  0  0  0  0  0
  -29.0070  -17.1267   23.2899 H   0  0  0  0  0  0
  -27.8965  -21.2256   23.0842 H   0  0  0  0  0  0
  -29.6315  -19.9213   17.2388 H   0  0  0  0  0  0
  -28.2515  -20.3988   18.3712 H   0  0  0  0  0  0
  -30.6139  -16.9438   19.8814 H   0  0  0  0  0  0
  -30.8252  -18.8939   19.0532 H   0  0  0  0  0  0
  -29.4641  -15.3364   22.1937 H   0  0  0  0  0  0
  -28.9220  -25.6426   21.8458 H   0  0  0  0  0  0
  -27.2389  -25.4203   21.4352 H   0  0  0  0  0  0
  -27.3368  -22.7832   21.4692 H   0  0  0  0  0  0
  -28.9561  -23.0071   22.1296 H   0  0  0  0  0  0
  1 25  1  0  0  0
  1 30  2  0  0  0
  1 80  1  0  0  0
  2  3  1  0  0  0
  2 25  1  0  0  0
  2 87  1  0  0  0
  2 88  1  0  0  0
  3  4  1  0  0  0
  3 89  1  0  0  0
  3 90  1  0  0  0
  4  5  1  0  0  0
  4 91  1  0  0  0
  4 92  1  0  0  0
  5  6  1  0  0  0
  5 26  1  0  0  0
  5 93  1  0  0  0
  6 25  1  0  0  0
  6 94  1  0  0  0
  6 95  1  0  0  0
  7  8  2  0  0  0
  7 26  1  0  0  0
  7 29  1  0  0  0
  8  9  1  0  0  0
  8 22  1  0  0  0
  9 10  1  0  0  0
  9 27  2  0  0  0
 10 11  2  0  0  0
 10 15  1  0  0  0
 11 12  1  0  0  0
 11 96  1  0  0  0
 12 13  2  0  0  0
 12 97  1  0  0  0
 13 14  1  0  0  0
 13 31  1  0  0  0
 14 15  2  0  0  0
 14 98  1  0  0  0
 15 99  1  0  0  0
 16 17  2  0  0  0
 16 21  1  0  0  0
 16 31  1  0  0  0
 17 18  1  0  0  0
 17100  1  0  0  0
 18 19  2  0  0  0
 18101  1  0  0  0
 19 20  1  0  0  0
 19 24  1  0  0  0
 20 21  2  0  0  0
 20102  1  0  0  0
 21 23  1  0  0  0
 22 28  1  0  0  0
 22 32  2  0  0  0
 26 27  1  0  0  0
 28103  1  0  0  0
 28104  1  0  0  0
 29105  1  0  0  0
 29106  1  0  0  0
 33 34  1  0  0  0
 33 66  1  0  0  0
 33 70  2  0  0  0
 34 36  1  0  0  0
 34 59  1  0  0  0
 34107  1  0  0  0
 35 44  2  0  0  0
 35 45  1  0  0  0
 35 68  1  0  0  0
 36 56  1  0  0  0
 36108  1  0  0  0
 37 39  1  0  0  0
 37 47  1  0  0  0
 37 66  1  0  0  0
 37109  1  0  0  0
 38 43  2  0  0  0
 38 46  1  0  0  0
 38 47  1  0  0  0
 39 64  1  0  0  0
 39 67  2  0  0  0
 40 52  1  0  0  0
 40 53  2  0  0  0
 40 58  1  0  0  0
 41110  1  0  0  0
 41111  1  0  0  0
 41112  1  0  0  0
 41 48  1  0  0  0
 42 43  1  0  0  0
 42 66  1  0  0  0
 42113  1  0  0  0
 42114  1  0  0  0
 43 44  1  0  0  0
 44115  1  0  0  0
 45 46  2  0  0  0
 45116  1  0  0  0
 46117  1  0  0  0
 47118  1  0  0  0
 47119  1  0  0  0
 48 56  1  0  0  0
 48 65  1  0  0  0
 48120  1  0  0  0
 49 50  1  0  0  0
 49 53  1  0  0  0
 49 64  1  0  0  0
 49121  1  0  0  0
 50 51  1  0  0  0
 50122  1  0  0  0
 50123  1  0  0  0
 51 52  1  0  0  0
 51124  1  0  0  0
 51125  1  0  0  0
 52126  1  0  0  0
 52127  1  0  0  0
 53 54  1  0  0  0
 54 55  2  0  0  0
 54128  1  0  0  0
 55 57  1  0  0  0
 55129  1  0  0  0
 56 69  2  0  0  0
 57 58  2  0  0  0
 57130  1  0  0  0
 58131  1  0  0  0
 59 60  1  0  0  0
 59 61  1  0  0  0
 59 62  1  0  0  0
 60132  1  0  0  0
 60133  1  0  0  0
 60134  1  0  0  0
 61135  1  0  0  0
 61136  1  0  0  0
 61137  1  0  0  0
 62138  1  0  0  0
 62139  1  0  0  0
 62140  1  0  0  0
 63 65  1  0  0  0
 63141  1  0  0  0
 63142  1  0  0  0
 63143  1  0  0  0
 64144  1  0  0  0
 65145  1  0  0  0
 68 82  1  0  0  0
 71 73  2  0  0  0
 71 76  1  0  0  0
 71146  1  0  0  0
 72 75  1  0  0  0
 72 76  2  0  0  0
 72147  1  0  0  0
 73 74  1  0  0  0
 73 78  1  0  0  0
 74 75  2  0  0  0
 74 79  1  0  0  0
 75 85  1  0  0  0
 76 86  1  0  0  0
 77 79  2  0  0  0
 77148  1  0  0  0
 77149  1  0  0  0
 78 80  2  0  0  0
 78150  1  0  0  0
 79151  1  0  0  0
 80152  1  0  0  0
 81 82  1  0  0  0
 81 83  1  0  0  0
 81 84  2  0  0  0
 82153  1  0  0  0
 82154  1  0  0  0
 83 85  1  0  0  0
 83155  1  0  0  0
 83156  1  0  0  0
M  ISO  4   1 100  68 101  80 100  82 101
M  END
> <chiral flag>
0

> <version>
0

> <s_m_source_file>
/data/baiqing/PycharmProjects/Reinvent-master-3.2/result/LINK_invent/BTK/process_docking_weight1_custom_product_contain_oxygen_bond_distance_aromatic_linkinvent_7_9_3/rearranged_h_0120.sdf

> <i_m_source_file_index>
26

> <r_mmod_Potential_Energy-OPLS-2005>
39.6720581054688

> <r_mmod_Stretch_Energy-OPLS-2005>
46.5076065063477

> <r_mmod_Bend_Energy-OPLS-2005>
99.5956497192383

> <r_mmod_Torsional_Energy-OPLS-2005>
221.324737548828

> <r_mmod_Improper_Torsional_Energy-OPLS-2005>
2.73393702507019

> <r_mmod_Van_der_Waal_Energy-OPLS-2005>
160.272323608398

> <r_mmod_Electrostatic_Energy-OPLS-2005>
-280.222198486328

> <r_mmod_Solvation_Energy-OPLS-2005>
-224.267486572266

> <b_mmod_Minimization_Converged-OPLS-2005>
0

> <r_mmod_RMS_Derivative-OPLS-2005>
2.40319323539734

$$$$
26
                    3D
 Structure written by MMmdl.
159167  0  0  1  0            999 V2000
  -30.7436  -14.4571   20.4843 C   0  0  0  0  0  0
  -30.3972  -12.2702   19.4541 C   0  0  0  0  0  0
  -29.4949  -12.4717   18.2193 C   0  0  0  0  0  0
  -28.0126  -12.3520   18.6197 C   0  0  0  0  0  0
  -27.6514  -13.2195   19.8567 C   0  0  2  0  0  0
  -28.6895  -13.0654   20.9895 C   0  0  0  0  0  0
  -25.2557  -13.8196   20.5680 C   0  0  0  0  0  0
  -24.1825  -13.0455   20.9172 C   0  0  0  0  0  0
  -24.6395  -11.6928   20.8721 C   0  0  0  0  0  0
  -23.9071  -10.4307   21.0387 C   0  0  0  0  0  0
  -24.3629   -9.4221   21.9166 C   0  0  0  0  0  0
  -23.6305   -8.2254   22.0745 C   0  0  0  0  0  0
  -22.4284   -8.0284   21.3540 C   0  0  0  0  0  0
  -21.9915   -9.0255   20.4640 C   0  0  0  0  0  0
  -22.7240  -10.2137   20.3042 C   0  0  0  0  0  0
  -21.6856   -6.0741   22.5279 C   0  0  0  0  0  0
  -21.4014   -6.5641   23.8211 C   0  0  0  0  0  0
  -21.3662   -5.6794   24.9171 C   0  0  0  0  0  0
  -21.6046   -4.3057   24.7218 C   0  0  0  0  0  0
  -21.8821   -3.8148   23.4337 C   0  0  0  0  0  0
  -21.9195   -4.6970   22.3399 C   0  0  0  0  0  0
  -22.7847  -13.5239   21.1842 C   0  0  0  0  0  0
  -22.1662   -4.2154   21.0974 F   0  0  0  0  0  0
  -21.5631   -3.4539   25.7731 F   0  0  0  0  0  0
  -30.0265  -13.3036   20.4346 N   0  0  0  0  0  0
  -26.2978  -12.9391   20.3286 N   0  0  0  0  0  0
  -25.9317  -11.6540   20.5726 N   0  0  0  0  0  0
  -22.0509  -12.8226   22.0408 N   0  0  0  0  0  0
  -25.4293  -15.1914   20.4137 N   0  0  0  0  0  0
  -31.9420  -14.4758   20.1933 O   0  0  0  0  0  0
  -21.6648   -6.8880   21.4238 O   0  0  0  0  0  0
  -22.3524  -14.5543   20.6693 O   0  0  0  0  0  0
  -24.6121  -31.8709   23.2135 C   0  0  0  0  0  0
  -25.9024  -32.4838   23.8424 C   0  0  1  0  0  0
  -27.2263  -27.4530   20.1049 C   0  0  0  0  0  0
  -25.5895  -33.8638   24.2356 N   0  0  0  0  0  0
  -23.3994  -30.4945   21.5534 C   0  0  2  0  0  0
  -24.8459  -28.9622   20.1196 C   0  0  0  0  0  0
  -22.7397  -29.4673   22.5012 C   0  0  0  0  0  0
  -18.0271  -28.1371   22.8510 C   0  0  0  0  0  0
  -24.1486  -36.7321   23.2636 C   0  0  0  0  0  0
  -25.9259  -30.8413   21.3656 C   0  0  0  0  0  0
  -26.0035  -29.4745   20.7206 C   0  0  0  0  0  0
  -27.1998  -28.7237   20.7178 C   0  0  0  0  0  0
  -26.0617  -26.9561   19.4869 C   0  0  0  0  0  0
  -24.8672  -27.6991   19.5024 C   0  0  0  0  0  0
  -23.6076  -29.8270   20.1682 C   0  0  0  0  0  0
  -25.4108  -36.3129   24.0342 C   0  0  1  0  0  0
  -20.5859  -28.3656   23.1328 C   0  0  2  0  0  0
  -20.6761  -26.9394   22.5423 C   0  0  0  0  0  0
  -19.5733  -26.6386   21.5224 C   0  0  0  0  0  0
  -18.1915  -26.7920   22.1641 C   0  0  0  0  0  0
  -19.1519  -28.8831   23.2916 C   0  0  0  0  0  0
  -18.9449  -30.1442   23.8919 C   0  0  0  0  0  0
  -17.6450  -30.6580   24.0571 C   0  0  0  0  0  0
  -25.9035  -34.9485   23.5146 C   0  0  0  0  0  0
  -16.5341  -29.9089   23.6320 C   0  0  0  0  0  0
  -16.7260  -28.6500   23.0353 C   0  0  0  0  0  0
  -26.4461  -31.6599   25.0733 C   0  0  0  0  0  0
  -25.3745  -31.3689   26.1495 C   0  0  0  0  0  0
  -27.0278  -30.3046   24.6083 C   0  0  0  0  0  0
  -27.6064  -32.4291   25.7481 C   0  0  0  0  0  0
  -27.5584  -37.1814   24.8467 C   0  0  0  0  0  0
  -21.4129  -29.3026   22.3736 N   0  0  0  0  0  0
  -26.4298  -37.3809   23.9416 N   0  0  0  0  0  0
  -24.6637  -31.0829   22.1028 N   0  0  0  0  0  0
  -23.4174  -28.8220   23.3057 O   0  0  0  0  0  0
  -28.3755  -26.7066   20.0503 O   0  0  0  0  0  0
  -26.5599  -34.8924   22.4708 O   0  0  0  0  0  0
  -23.5314  -32.1455   23.7533 O   0  0  0  0  0  0
  -29.3443  -18.9161   20.5155 C   0  0  0  0  0  0
  -30.4578  -18.6819   18.3568 C   0  0  0  0  0  0
  -29.5819  -20.8375   19.0223 C   0  0  0  0  0  0
  -30.0375  -18.1095   19.5777 C   0  0  0  0  0  0
  -29.1262  -20.2946   20.2456 C   0  0  0  0  0  0
  -30.2374  -20.0380   18.0752 C   0  0  0  0  0  0
  -30.4139  -16.6961   19.7589 C   0  0  0  0  0  0
  -28.4821  -21.1940   21.2247 C   0  0  0  0  0  0
  -30.0048  -15.7173   20.6038 C   0  0  0  0  0  0
  -28.7152  -22.5229   21.2868 C   0  0  0  0  0  0
  -30.7153  -20.6458   16.7717 C   0  0  0  0  0  0
  -27.9980  -23.5239   22.1746 C   0  0  0  0  0  0
  -27.5270  -24.7536   21.3667 C   0  0  0  0  0  0
  -28.6123  -25.8402   21.1638 C   0  0  0  0  0  0
  -31.4487  -12.3085   19.1641 H   0  0  0  0  0  0
  -30.2472  -11.2777   19.8814 H   0  0  0  0  0  0
  -29.7349  -11.7333   17.4536 H   0  0  0  0  0  0
  -29.6812  -13.4493   17.7720 H   0  0  0  0  0  0
  -27.8160  -11.3004   18.8315 H   0  0  0  0  0  0
  -27.3713  -12.6124   17.7763 H   0  0  0  0  0  0
  -27.6781  -14.2571   19.5239 H   0  0  0  0  0  0
  -28.6464  -12.0615   21.4145 H   0  0  0  0  0  0
  -28.4708  -13.7476   21.8120 H   0  0  0  0  0  0
  -25.2777   -9.5703   22.4730 H   0  0  0  0  0  0
  -24.0019   -7.4650   22.7466 H   0  0  0  0  0  0
  -21.0843   -8.8769   19.8951 H   0  0  0  0  0  0
  -22.3688  -10.9672   19.6150 H   0  0  0  0  0  0
  -21.2005   -7.6151   23.9716 H   0  0  0  0  0  0
  -21.1481   -6.0521   25.9075 H   0  0  0  0  0  0
  -22.0600   -2.7611   23.2833 H   0  0  0  0  0  0
  -22.4148  -11.9895   22.4789 H   0  0  0  0  0  0
  -21.1119  -13.1230   22.2619 H   0  0  0  0  0  0
  -24.6713  -15.8531   20.5397 H   0  0  0  0  0  0
  -26.2948  -15.6306   20.1245 H   0  0  0  0  0  0
  -26.7101  -32.5568   23.1202 H   0  0  0  0  0  0
  -25.0038  -33.9815   25.0495 H   0  0  0  0  0  0
  -22.6874  -31.3106   21.4158 H   0  0  0  0  0  0
  -23.3741  -35.9661   23.3312 H   0  0  0  0  0  0
  -24.3585  -36.8923   22.2048 H   0  0  0  0  0  0
  -23.7231  -37.6530   23.6633 H   0  0  0  0  0  0
  -26.0318  -31.6033   20.5918 H   0  0  0  0  0  0
  -26.8158  -30.9010   21.9792 H   0  0  0  0  0  0
  -28.0969  -29.1158   21.1766 H   0  0  0  0  0  0
  -26.0791  -25.9939   18.9949 H   0  0  0  0  0  0
  -23.9790  -27.3002   19.0318 H   0  0  0  0  0  0
  -23.7163  -30.6020   19.4080 H   0  0  0  0  0  0
  -22.7325  -29.2466   19.8713 H   0  0  0  0  0  0
  -25.1277  -36.2010   25.0834 H   0  0  0  0  0  0
  -20.9961  -28.3215   24.1447 H   0  0  0  0  0  0
  -20.5668  -26.2263   23.3610 H   0  0  0  0  0  0
  -21.6630  -26.7443   22.1207 H   0  0  0  0  0  0
  -19.6889  -25.6303   21.1237 H   0  0  0  0  0  0
  -19.6667  -27.3213   20.6767 H   0  0  0  0  0  0
  -17.4191  -26.6680   21.4040 H   0  0  0  0  0  0
  -18.0306  -26.0047   22.9019 H   0  0  0  0  0  0
  -19.7925  -30.7252   24.2293 H   0  0  0  0  0  0
  -17.5007  -31.6265   24.5164 H   0  0  0  0  0  0
  -15.5342  -30.3002   23.7621 H   0  0  0  0  0  0
  -15.8663  -28.0824   22.7059 H   0  0  0  0  0  0
  -24.5906  -30.7056   25.7824 H   0  0  0  0  0  0
  -24.8948  -32.2837   26.4987 H   0  0  0  0  0  0
  -25.8109  -30.8818   27.0228 H   0  0  0  0  0  0
  -26.2810  -29.6819   24.1146 H   0  0  0  0  0  0
  -27.4065  -29.7270   25.4525 H   0  0  0  0  0  0
  -27.8641  -30.4367   23.9214 H   0  0  0  0  0  0
  -27.2720  -33.3583   26.2106 H   0  0  0  0  0  0
  -28.3847  -32.6862   25.0282 H   0  0  0  0  0  0
  -28.0762  -31.8379   26.5352 H   0  0  0  0  0  0
  -28.2609  -38.0105   24.7526 H   0  0  0  0  0  0
  -28.1074  -36.2641   24.6285 H   0  0  0  0  0  0
  -27.2308  -37.1457   25.8872 H   0  0  0  0  0  0
  -20.9281  -29.8742   21.6959 H   0  0  0  0  0  0
  -26.0189  -38.2890   24.1420 H   0  0  0  0  0  0
  -29.0223  -18.4928   21.4562 H   0  0  0  0  0  0
  -30.9800  -18.0778   17.6265 H   0  0  0  0  0  0
  -29.4184  -21.8792   18.7843 H   0  0  0  0  0  0
  -31.2034  -16.4257   19.0688 H   0  0  0  0  0  0
  -27.7544  -20.7473   21.8877 H   0  0  0  0  0  0
  -29.2116  -15.8632   21.3208 H   0  0  0  0  0  0
  -29.4704  -22.9589   20.6492 H   0  0  0  0  0  0
  -31.2325  -19.9126   16.1516 H   0  0  0  0  0  0
  -31.4046  -21.4679   16.9677 H   0  0  0  0  0  0
  -29.8720  -21.0373   16.2020 H   0  0  0  0  0  0
  -28.6549  -23.8330   22.9883 H   0  0  0  0  0  0
  -27.1399  -23.0315   22.6347 H   0  0  0  0  0  0
  -26.6711  -25.2084   21.8672 H   0  0  0  0  0  0
  -27.1553  -24.4130   20.3995 H   0  0  0  0  0  0
  -28.7401  -26.4245   22.0761 H   0  0  0  0  0  0
  -29.5740  -25.3625   20.9765 H   0  0  0  0  0  0
  1 25  1  0  0  0
  1 30  2  0  0  0
  1 79  1  0  0  0
  2  3  1  0  0  0
  2 25  1  0  0  0
  2 85  1  0  0  0
  2 86  1  0  0  0
  3  4  1  0  0  0
  3 87  1  0  0  0
  3 88  1  0  0  0
  4  5  1  0  0  0
  4 89  1  0  0  0
  4 90  1  0  0  0
  5  6  1  0  0  0
  5 26  1  0  0  0
  5 91  1  0  0  0
  6 25  1  0  0  0
  6 92  1  0  0  0
  6 93  1  0  0  0
  7  8  2  0  0  0
  7 26  1  0  0  0
  7 29  1  0  0  0
  8  9  1  0  0  0
  8 22  1  0  0  0
  9 10  1  0  0  0
  9 27  2  0  0  0
 10 11  2  0  0  0
 10 15  1  0  0  0
 11 12  1  0  0  0
 11 94  1  0  0  0
 12 13  2  0  0  0
 12 95  1  0  0  0
 13 14  1  0  0  0
 13 31  1  0  0  0
 14 15  2  0  0  0
 14 96  1  0  0  0
 15 97  1  0  0  0
 16 17  2  0  0  0
 16 21  1  0  0  0
 16 31  1  0  0  0
 17 18  1  0  0  0
 17 98  1  0  0  0
 18 19  2  0  0  0
 18 99  1  0  0  0
 19 20  1  0  0  0
 19 24  1  0  0  0
 20 21  2  0  0  0
 20100  1  0  0  0
 21 23  1  0  0  0
 22 28  1  0  0  0
 22 32  2  0  0  0
 26 27  1  0  0  0
 28101  1  0  0  0
 28102  1  0  0  0
 29103  1  0  0  0
 29104  1  0  0  0
 33 34  1  0  0  0
 33 66  1  0  0  0
 33 70  2  0  0  0
 34 36  1  0  0  0
 34 59  1  0  0  0
 34105  1  0  0  0
 35 44  2  0  0  0
 35 45  1  0  0  0
 35 68  1  0  0  0
 36 56  1  0  0  0
 36106  1  0  0  0
 37 39  1  0  0  0
 37 47  1  0  0  0
 37 66  1  0  0  0
 37107  1  0  0  0
 38 43  2  0  0  0
 38 46  1  0  0  0
 38 47  1  0  0  0
 39 64  1  0  0  0
 39 67  2  0  0  0
 40 52  1  0  0  0
 40 53  2  0  0  0
 40 58  1  0  0  0
 41108  1  0  0  0
 41109  1  0  0  0
 41110  1  0  0  0
 41 48  1  0  0  0
 42 43  1  0  0  0
 42 66  1  0  0  0
 42111  1  0  0  0
 42112  1  0  0  0
 43 44  1  0  0  0
 44113  1  0  0  0
 45 46  2  0  0  0
 45114  1  0  0  0
 46115  1  0  0  0
 47116  1  0  0  0
 47117  1  0  0  0
 48 56  1  0  0  0
 48 65  1  0  0  0
 48118  1  0  0  0
 49 50  1  0  0  0
 49 53  1  0  0  0
 49 64  1  0  0  0
 49119  1  0  0  0
 50 51  1  0  0  0
 50120  1  0  0  0
 50121  1  0  0  0
 51 52  1  0  0  0
 51122  1  0  0  0
 51123  1  0  0  0
 52124  1  0  0  0
 52125  1  0  0  0
 53 54  1  0  0  0
 54 55  2  0  0  0
 54126  1  0  0  0
 55 57  1  0  0  0
 55127  1  0  0  0
 56 69  2  0  0  0
 57 58  2  0  0  0
 57128  1  0  0  0
 58129  1  0  0  0
 59 60  1  0  0  0
 59 61  1  0  0  0
 59 62  1  0  0  0
 60130  1  0  0  0
 60131  1  0  0  0
 60132  1  0  0  0
 61133  1  0  0  0
 61134  1  0  0  0
 61135  1  0  0  0
 62136  1  0  0  0
 62137  1  0  0  0
 62138  1  0  0  0
 63 65  1  0  0  0
 63139  1  0  0  0
 63140  1  0  0  0
 63141  1  0  0  0
 64142  1  0  0  0
 65143  1  0  0  0
 68 84  1  0  0  0
 71 74  2  0  0  0
 71 75  1  0  0  0
 71144  1  0  0  0
 72 74  1  0  0  0
 72 76  2  0  0  0
 72145  1  0  0  0
 73 75  2  0  0  0
 73 76  1  0  0  0
 73146  1  0  0  0
 74 77  1  0  0  0
 75 78  1  0  0  0
 76 81  1  0  0  0
 77 79  2  0  0  0
 77147  1  0  0  0
 78 80  2  0  0  0
 78148  1  0  0  0
 79149  1  0  0  0
 80 82  1  0  0  0
 80150  1  0  0  0
 81151  1  0  0  0
 81152  1  0  0  0
 81153  1  0  0  0
 82 83  1  0  0  0
 82154  1  0  0  0
 82155  1  0  0  0
 83 84  1  0  0  0
 83156  1  0  0  0
 83157  1  0  0  0
 84158  1  0  0  0
 84159  1  0  0  0
M  ISO  4   1 100  68 101  79 100  84 101
M  END
> <chiral flag>
0

> <version>
0

> <s_m_source_file>
/data/baiqing/PycharmProjects/Reinvent-master-3.2/result/LINK_invent/BTK/process_docking_weight1_custom_product_contain_oxygen_bond_distance_aromatic_linkinvent_7_9_3/rearranged_h_0120.sdf

> <i_m_source_file_index>
27

> <r_mmod_Potential_Energy-OPLS-2005>
52.2339973449707

> <r_mmod_Stretch_Energy-OPLS-2005>
34.0548706054688

> <r_mmod_Bend_Energy-OPLS-2005>
109.834495544434

> <r_mmod_Torsional_Energy-OPLS-2005>
234.40446472168

> <r_mmod_Improper_Torsional_Energy-OPLS-2005>
6.93578195571899

> <r_mmod_Van_der_Waal_Energy-OPLS-2005>
158.522186279297

> <r_mmod_Electrostatic_Energy-OPLS-2005>
-327.914520263672

> <r_mmod_Solvation_Energy-OPLS-2005>
-186.187149047852

> <b_mmod_Minimization_Converged-OPLS-2005>
0

> <r_mmod_RMS_Derivative-OPLS-2005>
1.09331429004669

$$$$
27
                    3D
 Structure written by MMmdl.
158166  0  0  1  0            999 V2000
  -30.6946  -14.4578   20.5451 C   0  0  0  0  0  0
  -30.4180  -12.2837   19.4323 C   0  0  0  0  0  0
  -29.4967  -12.4994   18.2132 C   0  0  0  0  0  0
  -28.0157  -12.3668   18.6205 C   0  0  0  0  0  0
  -27.6628  -13.2050   19.8784 C   0  0  2  0  0  0
  -28.7017  -12.9809   21.0014 C   0  0  0  0  0  0
  -25.2593  -13.8159   20.5684 C   0  0  0  0  0  0
  -24.1835  -13.0441   20.9173 C   0  0  0  0  0  0
  -24.6387  -11.6903   20.8732 C   0  0  0  0  0  0
  -23.9052  -10.4290   21.0402 C   0  0  0  0  0  0
  -24.3607   -9.4206   21.9180 C   0  0  0  0  0  0
  -23.6288   -8.2239   22.0749 C   0  0  0  0  0  0
  -22.4272   -8.0273   21.3539 C   0  0  0  0  0  0
  -21.9901   -9.0245   20.4642 C   0  0  0  0  0  0
  -22.7225  -10.2128   20.3052 C   0  0  0  0  0  0
  -21.6853   -6.0731   22.5275 C   0  0  0  0  0  0
  -21.4015   -6.5635   23.8208 C   0  0  0  0  0  0
  -21.3663   -5.6788   24.9170 C   0  0  0  0  0  0
  -21.6047   -4.3051   24.7222 C   0  0  0  0  0  0
  -21.8819   -3.8143   23.4343 C   0  0  0  0  0  0
  -21.9192   -4.6959   22.3398 C   0  0  0  0  0  0
  -22.7863  -13.5237   21.1844 C   0  0  0  0  0  0
  -22.1661   -4.2145   21.0977 F   0  0  0  0  0  0
  -21.5631   -3.4536   25.7735 F   0  0  0  0  0  0
  -30.0376  -13.2712   20.4535 N   0  0  0  0  0  0
  -26.3027  -12.9322   20.3376 N   0  0  0  0  0  0
  -25.9313  -11.6484   20.5770 N   0  0  0  0  0  0
  -22.0508  -12.8227   22.0404 N   0  0  0  0  0  0
  -25.4343  -15.1872   20.4090 N   0  0  0  0  0  0
  -31.8356  -14.6246   20.1037 O   0  0  0  0  0  0
  -21.6636   -6.8870   21.4236 O   0  0  0  0  0  0
  -22.3547  -14.5548   20.6701 O   0  0  0  0  0  0
  -24.6135  -31.8679   23.2105 C   0  0  0  0  0  0
  -25.9030  -32.4820   23.8405 C   0  0  1  0  0  0
  -27.2371  -27.4438   20.1025 C   0  0  0  0  0  0
  -25.5895  -33.8621   24.2343 N   0  0  0  0  0  0
  -23.4006  -30.4907   21.5505 C   0  0  2  0  0  0
  -24.8474  -28.9548   20.1163 C   0  0  0  0  0  0
  -22.7399  -29.4664   22.5006 C   0  0  0  0  0  0
  -18.0269  -28.1377   22.8498 C   0  0  0  0  0  0
  -24.1487  -36.7322   23.2641 C   0  0  0  0  0  0
  -25.9266  -30.8394   21.3577 C   0  0  0  0  0  0
  -26.0061  -29.4733   20.7076 C   0  0  0  0  0  0
  -27.2049  -28.7268   20.6927 C   0  0  0  0  0  0
  -26.0622  -26.9354   19.5062 C   0  0  0  0  0  0
  -24.8699  -27.6851   19.5118 C   0  0  0  0  0  0
  -23.6074  -29.8191   20.1660 C   0  0  0  0  0  0
  -25.4102  -36.3113   24.0343 C   0  0  1  0  0  0
  -20.5860  -28.3663   23.1333 C   0  0  2  0  0  0
  -20.6766  -26.9404   22.5424 C   0  0  0  0  0  0
  -19.5748  -26.6388   21.5216 C   0  0  0  0  0  0
  -18.1922  -26.7923   22.1622 C   0  0  0  0  0  0
  -19.1516  -28.8837   23.2915 C   0  0  0  0  0  0
  -18.9444  -30.1441   23.8926 C   0  0  0  0  0  0
  -17.6447  -30.6587   24.0567 C   0  0  0  0  0  0
  -25.9030  -34.9474   23.5143 C   0  0  0  0  0  0
  -16.5341  -29.9089   23.6325 C   0  0  0  0  0  0
  -16.7258  -28.6503   23.0354 C   0  0  0  0  0  0
  -26.4471  -31.6586   25.0720 C   0  0  0  0  0  0
  -25.3757  -31.3658   26.1481 C   0  0  0  0  0  0
  -27.0291  -30.3037   24.6063 C   0  0  0  0  0  0
  -27.6064  -32.4295   25.7470 C   0  0  0  0  0  0
  -27.5579  -37.1811   24.8469 C   0  0  0  0  0  0
  -21.4131  -29.3032   22.3740 N   0  0  0  0  0  0
  -26.4292  -37.3792   23.9410 N   0  0  0  0  0  0
  -24.6655  -31.0798   22.0987 N   0  0  0  0  0  0
  -23.4176  -28.8216   23.3051 O   0  0  0  0  0  0
  -28.4115  -26.7228   20.1146 O   0  0  0  0  0  0
  -26.5589  -34.8922   22.4700 O   0  0  0  0  0  0
  -23.5332  -32.1417   23.7513 O   0  0  0  0  0  0
  -30.6043  -18.6594   19.1021 C   0  0  0  0  0  0
  -30.6588  -17.3062   19.4772 C   0  0  0  0  0  0
  -29.2912  -17.8076   21.4136 C   0  0  0  0  0  0
  -29.8927  -19.6150   19.8599 C   0  0  0  0  0  0
  -30.0016  -16.8579   20.6446 C   0  0  0  0  0  0
  -29.2323  -19.1844   21.0448 C   0  0  0  0  0  0
  -29.9330  -21.0107   19.3424 C   0  0  0  0  0  0
  -29.5845  -22.1785   19.9256 C   0  0  0  0  0  0
  -27.9488  -19.7275   23.0147 C   0  0  0  0  0  0
  -29.7222  -23.5313   19.2316 C   0  0  0  0  0  0
  -28.4468  -24.4050   19.2464 C   0  0  0  0  0  0
  -28.3126  -25.3362   20.4716 C   0  0  0  0  0  0
  -29.9655  -15.4793   21.0378 N   0  0  0  0  0  0
  -28.5349  -20.1206   21.7802 O   0  0  0  0  0  0
  -31.4659  -12.3649   19.1383 H   0  0  0  0  0  0
  -30.2993  -11.2737   19.8283 H   0  0  0  0  0  0
  -29.7343  -11.7791   17.4292 H   0  0  0  0  0  0
  -29.6739  -13.4878   17.7857 H   0  0  0  0  0  0
  -27.8201  -11.3113   18.8136 H   0  0  0  0  0  0
  -27.3684  -12.6458   17.7882 H   0  0  0  0  0  0
  -27.7090  -14.2535   19.5828 H   0  0  0  0  0  0
  -28.6682  -11.9468   21.3472 H   0  0  0  0  0  0
  -28.4675  -13.5871   21.8776 H   0  0  0  0  0  0
  -25.2751   -9.5680   22.4754 H   0  0  0  0  0  0
  -23.9996   -7.4627   22.7465 H   0  0  0  0  0  0
  -21.0830   -8.8755   19.8947 H   0  0  0  0  0  0
  -22.3676  -10.9663   19.6157 H   0  0  0  0  0  0
  -21.2009   -7.6143   23.9711 H   0  0  0  0  0  0
  -21.1492   -6.0519   25.9073 H   0  0  0  0  0  0
  -22.0601   -2.7606   23.2841 H   0  0  0  0  0  0
  -22.4125  -11.9877   22.4768 H   0  0  0  0  0  0
  -21.1133  -13.1256   22.2632 H   0  0  0  0  0  0
  -24.6714  -15.8466   20.5144 H   0  0  0  0  0  0
  -26.2912  -15.6207   20.0885 H   0  0  0  0  0  0
  -26.7101  -32.5543   23.1175 H   0  0  0  0  0  0
  -25.0065  -33.9787   25.0503 H   0  0  0  0  0  0
  -22.6895  -31.3076   21.4107 H   0  0  0  0  0  0
  -23.3739  -35.9667   23.3313 H   0  0  0  0  0  0
  -24.3594  -36.8921   22.2055 H   0  0  0  0  0  0
  -23.7243  -37.6534   23.6643 H   0  0  0  0  0  0
  -26.0321  -31.6042   20.5867 H   0  0  0  0  0  0
  -26.8168  -30.8975   21.9718 H   0  0  0  0  0  0
  -28.1005  -29.1244   21.1495 H   0  0  0  0  0  0
  -26.0646  -25.9639   19.0331 H   0  0  0  0  0  0
  -23.9794  -27.2801   19.0520 H   0  0  0  0  0  0
  -23.7121  -30.5920   19.4039 H   0  0  0  0  0  0
  -22.7319  -29.2364   19.8736 H   0  0  0  0  0  0
  -25.1270  -36.1995   25.0834 H   0  0  0  0  0  0
  -20.9949  -28.3229   24.1456 H   0  0  0  0  0  0
  -20.5682  -26.2270   23.3607 H   0  0  0  0  0  0
  -21.6638  -26.7461   22.1212 H   0  0  0  0  0  0
  -19.6913  -25.6303   21.1235 H   0  0  0  0  0  0
  -19.6693  -27.3212   20.6759 H   0  0  0  0  0  0
  -17.4197  -26.6686   21.4016 H   0  0  0  0  0  0
  -18.0321  -26.0056   22.9009 H   0  0  0  0  0  0
  -19.7921  -30.7249   24.2317 H   0  0  0  0  0  0
  -17.5001  -31.6269   24.5160 H   0  0  0  0  0  0
  -15.5343  -30.2998   23.7628 H   0  0  0  0  0  0
  -15.8659  -28.0821   22.7068 H   0  0  0  0  0  0
  -24.5952  -30.6974   25.7825 H   0  0  0  0  0  0
  -24.8920  -32.2789   26.4958 H   0  0  0  0  0  0
  -25.8141  -30.8822   27.0219 H   0  0  0  0  0  0
  -26.2806  -29.6798   24.1161 H   0  0  0  0  0  0
  -27.4119  -29.7272   25.4496 H   0  0  0  0  0  0
  -27.8619  -30.4371   23.9154 H   0  0  0  0  0  0
  -27.2704  -33.3590   26.2078 H   0  0  0  0  0  0
  -28.3851  -32.6855   25.0273 H   0  0  0  0  0  0
  -28.0750  -31.8390   26.5352 H   0  0  0  0  0  0
  -28.2603  -38.0101   24.7503 H   0  0  0  0  0  0
  -28.1062  -36.2631   24.6300 H   0  0  0  0  0  0
  -27.2302  -37.1471   25.8874 H   0  0  0  0  0  0
  -20.9294  -29.8744   21.6954 H   0  0  0  0  0  0
  -26.0188  -38.2875   24.1402 H   0  0  0  0  0  0
  -31.1212  -18.9598   18.2014 H   0  0  0  0  0  0
  -31.1992  -16.6271   18.8337 H   0  0  0  0  0  0
  -28.7811  -17.4509   22.2957 H   0  0  0  0  0  0
  -30.3032  -21.0882   18.3292 H   0  0  0  0  0  0
  -29.2076  -22.2088   20.9363 H   0  0  0  0  0  0
  -27.4833  -20.5937   23.4844 H   0  0  0  0  0  0
  -28.6981  -19.3434   23.7084 H   0  0  0  0  0  0
  -27.1703  -18.9779   22.8694 H   0  0  0  0  0  0
  -30.0065  -23.3562   18.1929 H   0  0  0  0  0  0
  -30.5579  -24.0744   19.6752 H   0  0  0  0  0  0
  -27.5624  -23.7721   19.1582 H   0  0  0  0  0  0
  -28.4441  -25.0238   18.3483 H   0  0  0  0  0  0
  -29.1079  -25.1292   21.1882 H   0  0  0  0  0  0
  -27.3887  -25.1228   21.0128 H   0  0  0  0  0  0
  -29.1539  -15.1966   21.5659 H   0  0  0  0  0  0
  1 25  1  0  0  0
  1 30  2  0  0  0
  1 83  1  0  0  0
  2  3  1  0  0  0
  2 25  1  0  0  0
  2 85  1  0  0  0
  2 86  1  0  0  0
  3  4  1  0  0  0
  3 87  1  0  0  0
  3 88  1  0  0  0
  4  5  1  0  0  0
  4 89  1  0  0  0
  4 90  1  0  0  0
  5  6  1  0  0  0
  5 26  1  0  0  0
  5 91  1  0  0  0
  6 25  1  0  0  0
  6 92  1  0  0  0
  6 93  1  0  0  0
  7  8  2  0  0  0
  7 26  1  0  0  0
  7 29  1  0  0  0
  8  9  1  0  0  0
  8 22  1  0  0  0
  9 10  1  0  0  0
  9 27  2  0  0  0
 10 11  2  0  0  0
 10 15  1  0  0  0
 11 12  1  0  0  0
 11 94  1  0  0  0
 12 13  2  0  0  0
 12 95  1  0  0  0
 13 14  1  0  0  0
 13 31  1  0  0  0
 14 15  2  0  0  0
 14 96  1  0  0  0
 15 97  1  0  0  0
 16 17  2  0  0  0
 16 21  1  0  0  0
 16 31  1  0  0  0
 17 18  1  0  0  0
 17 98  1  0  0  0
 18 19  2  0  0  0
 18 99  1  0  0  0
 19 20  1  0  0  0
 19 24  1  0  0  0
 20 21  2  0  0  0
 20100  1  0  0  0
 21 23  1  0  0  0
 22 28  1  0  0  0
 22 32  2  0  0  0
 26 27  1  0  0  0
 28101  1  0  0  0
 28102  1  0  0  0
 29103  1  0  0  0
 29104  1  0  0  0
 33 34  1  0  0  0
 33 66  1  0  0  0
 33 70  2  0  0  0
 34 36  1  0  0  0
 34 59  1  0  0  0
 34105  1  0  0  0
 35 44  2  0  0  0
 35 45  1  0  0  0
 35 68  1  0  0  0
 36 56  1  0  0  0
 36106  1  0  0  0
 37 39  1  0  0  0
 37 47  1  0  0  0
 37 66  1  0  0  0
 37107  1  0  0  0
 38 43  2  0  0  0
 38 46  1  0  0  0
 38 47  1  0  0  0
 39 64  1  0  0  0
 39 67  2  0  0  0
 40 52  1  0  0  0
 40 53  2  0  0  0
 40 58  1  0  0  0
 41108  1  0  0  0
 41109  1  0  0  0
 41110  1  0  0  0
 41 48  1  0  0  0
 42 43  1  0  0  0
 42 66  1  0  0  0
 42111  1  0  0  0
 42112  1  0  0  0
 43 44  1  0  0  0
 44113  1  0  0  0
 45 46  2  0  0  0
 45114  1  0  0  0
 46115  1  0  0  0
 47116  1  0  0  0
 47117  1  0  0  0
 48 56  1  0  0  0
 48 65  1  0  0  0
 48118  1  0  0  0
 49 50  1  0  0  0
 49 53  1  0  0  0
 49 64  1  0  0  0
 49119  1  0  0  0
 50 51  1  0  0  0
 50120  1  0  0  0
 50121  1  0  0  0
 51 52  1  0  0  0
 51122  1  0  0  0
 51123  1  0  0  0
 52124  1  0  0  0
 52125  1  0  0  0
 53 54  1  0  0  0
 54 55  2  0  0  0
 54126  1  0  0  0
 55 57  1  0  0  0
 55127  1  0  0  0
 56 69  2  0  0  0
 57 58  2  0  0  0
 57128  1  0  0  0
 58129  1  0  0  0
 59 60  1  0  0  0
 59 61  1  0  0  0
 59 62  1  0  0  0
 60130  1  0  0  0
 60131  1  0  0  0
 60132  1  0  0  0
 61133  1  0  0  0
 61134  1  0  0  0
 61135  1  0  0  0
 62136  1  0  0  0
 62137  1  0  0  0
 62138  1  0  0  0
 63 65  1  0  0  0
 63139  1  0  0  0
 63140  1  0  0  0
 63141  1  0  0  0
 64142  1  0  0  0
 65143  1  0  0  0
 68 82  1  0  0  0
 71 72  2  0  0  0
 71 74  1  0  0  0
 71144  1  0  0  0
 72 75  1  0  0  0
 72145  1  0  0  0
 73 75  2  0  0  0
 73 76  1  0  0  0
 73146  1  0  0  0
 74 76  2  0  0  0
 74 77  1  0  0  0
 75 83  1  0  0  0
 76 84  1  0  0  0
 77 78  2  0  0  0
 77147  1  0  0  0
 78 80  1  0  0  0
 78148  1  0  0  0
 79 84  1  0  0  0
 79149  1  0  0  0
 79150  1  0  0  0
 79151  1  0  0  0
 80 81  1  0  0  0
 80152  1  0  0  0
 80153  1  0  0  0
 81 82  1  0  0  0
 81154  1  0  0  0
 81155  1  0  0  0
 82156  1  0  0  0
 82157  1  0  0  0
 83158  1  0  0  0
M  ISO  4   1 100  68 101  82 101  83 100
M  END
> <chiral flag>
0

> <version>
0

> <s_m_source_file>
/data/baiqing/PycharmProjects/Reinvent-master-3.2/result/LINK_invent/BTK/process_docking_weight1_custom_product_contain_oxygen_bond_distance_aromatic_linkinvent_7_9_3/rearranged_h_0120.sdf

> <i_m_source_file_index>
28

> <r_mmod_Potential_Energy-OPLS-2005>
13.1820011138916

> <r_mmod_Stretch_Energy-OPLS-2005>
38.3668022155762

> <r_mmod_Bend_Energy-OPLS-2005>
108.346527099609

> <r_mmod_Torsional_Energy-OPLS-2005>
245.247741699219

> <r_mmod_Improper_Torsional_Energy-OPLS-2005>
4.02582168579102

> <r_mmod_Van_der_Waal_Energy-OPLS-2005>
165.822357177734

> <r_mmod_Electrostatic_Energy-OPLS-2005>
-353.770965576172

> <r_mmod_Solvation_Energy-OPLS-2005>
-207.04931640625

> <b_mmod_Minimization_Converged-OPLS-2005>
0

> <r_mmod_RMS_Derivative-OPLS-2005>
0.911781370639801

$$$$
28
                    3D
 Structure written by MMmdl.
160169  0  0  1  0            999 V2000
  -30.6811  -14.5318   20.5621 C   0  0  0  0  0  0
  -30.4249  -12.3467   19.4247 C   0  0  0  0  0  0
  -29.4914  -12.5045   18.2070 C   0  0  0  0  0  0
  -28.0153  -12.3570   18.6260 C   0  0  0  0  0  0
  -27.6553  -13.2117   19.8701 C   0  0  2  0  0  0
  -28.7004  -13.0240   20.9910 C   0  0  0  0  0  0
  -25.2567  -13.8173   20.5696 C   0  0  0  0  0  0
  -24.1827  -13.0441   20.9193 C   0  0  0  0  0  0
  -24.6389  -11.6912   20.8747 C   0  0  0  0  0  0
  -23.9059  -10.4295   21.0415 C   0  0  0  0  0  0
  -24.3613   -9.4211   21.9195 C   0  0  0  0  0  0
  -23.6289   -8.2245   22.0760 C   0  0  0  0  0  0
  -22.4272   -8.0280   21.3541 C   0  0  0  0  0  0
  -21.9909   -9.0256   20.4646 C   0  0  0  0  0  0
  -22.7239  -10.2138   20.3061 C   0  0  0  0  0  0
  -21.6847   -6.0738   22.5277 C   0  0  0  0  0  0
  -21.4014   -6.5640   23.8210 C   0  0  0  0  0  0
  -21.3655   -5.6792   24.9172 C   0  0  0  0  0  0
  -21.6046   -4.3053   24.7226 C   0  0  0  0  0  0
  -21.8818   -3.8144   23.4346 C   0  0  0  0  0  0
  -21.9194   -4.6963   22.3403 C   0  0  0  0  0  0
  -22.7852  -13.5237   21.1854 C   0  0  0  0  0  0
  -22.1661   -4.2149   21.0977 F   0  0  0  0  0  0
  -21.5633   -3.4537   25.7739 F   0  0  0  0  0  0
  -30.0191  -13.3472   20.4260 N   0  0  0  0  0  0
  -26.2992  -12.9347   20.3366 N   0  0  0  0  0  0
  -25.9316  -11.6499   20.5780 N   0  0  0  0  0  0
  -22.0496  -12.8222   22.0405 N   0  0  0  0  0  0
  -25.4288  -15.1893   20.4109 N   0  0  0  0  0  0
  -31.8284  -14.6938   20.1379 O   0  0  0  0  0  0
  -21.6631   -6.8882   21.4237 O   0  0  0  0  0  0
  -22.3537  -14.5541   20.6700 O   0  0  0  0  0  0
  -24.6187  -31.8642   23.2080 C   0  0  0  0  0  0
  -25.9063  -32.4801   23.8386 C   0  0  1  0  0  0
  -27.2293  -27.3921   20.0890 C   0  0  0  0  0  0
  -25.5908  -33.8607   24.2308 N   0  0  0  0  0  0
  -23.4089  -30.4896   21.5480 C   0  0  2  0  0  0
  -24.8553  -28.9534   20.1092 C   0  0  0  0  0  0
  -22.7421  -29.4656   22.4955 C   0  0  0  0  0  0
  -18.0263  -28.1356   22.8491 C   0  0  0  0  0  0
  -24.1487  -36.7306   23.2643 C   0  0  0  0  0  0
  -25.9443  -30.8130   21.3715 C   0  0  0  0  0  0
  -26.0198  -29.4467   20.7124 C   0  0  0  0  0  0
  -27.2096  -28.6717   20.7039 C   0  0  0  0  0  0
  -26.0404  -26.9232   19.4862 C   0  0  0  0  0  0
  -24.8621  -27.6920   19.4922 C   0  0  0  0  0  0
  -23.6199  -29.8251   20.1619 C   0  0  0  0  0  0
  -25.4109  -36.3094   24.0333 C   0  0  1  0  0  0
  -20.5860  -28.3671   23.1278 C   0  0  2  0  0  0
  -20.6752  -26.9401   22.5398 C   0  0  0  0  0  0
  -19.5737  -26.6368   21.5192 C   0  0  0  0  0  0
  -18.1911  -26.7900   22.1607 C   0  0  0  0  0  0
  -19.1517  -28.8825   23.2881 C   0  0  0  0  0  0
  -18.9455  -30.1427   23.8898 C   0  0  0  0  0  0
  -17.6462  -30.6575   24.0559 C   0  0  0  0  0  0
  -25.9048  -34.9460   23.5118 C   0  0  0  0  0  0
  -16.5347  -29.9077   23.6336 C   0  0  0  0  0  0
  -16.7254  -28.6484   23.0376 C   0  0  0  0  0  0
  -26.4476  -31.6595   25.0733 C   0  0  0  0  0  0
  -25.3739  -31.3689   26.1475 C   0  0  0  0  0  0
  -27.0338  -30.3032   24.6154 C   0  0  0  0  0  0
  -27.6024  -32.4353   25.7504 C   0  0  0  0  0  0
  -27.5575  -37.1796   24.8463 C   0  0  0  0  0  0
  -21.4143  -29.3047   22.3688 N   0  0  0  0  0  0
  -26.4281  -37.3790   23.9425 N   0  0  0  0  0  0
  -24.6757  -31.0710   22.0998 N   0  0  0  0  0  0
  -23.4171  -28.8196   23.3015 O   0  0  0  0  0  0
  -28.3495  -26.5738   20.1257 O   0  0  0  0  0  0
  -26.5617  -34.8909   22.4683 O   0  0  0  0  0  0
  -23.5366  -32.1420   23.7437 O   0  0  0  0  0  0
  -30.3771  -18.5245   19.5983 C   0  0  0  0  0  0
  -30.0953  -19.8018   19.0571 C   0  0  0  0  0  0
  -28.9548  -20.4297   21.0832 C   0  0  0  0  0  0
  -29.9773  -18.1772   20.9057 C   0  0  0  0  0  0
  -29.2194  -19.1412   21.6329 C   0  0  0  0  0  0
  -29.4061  -20.8023   19.7945 C   0  0  0  0  0  0
  -28.8339  -24.4646   18.9159 C   0  0  0  0  0  0
  -28.6273  -25.8079   19.0106 C   0  0  0  0  0  0
  -29.1304  -23.8259   17.5798 C   0  0  0  0  0  0
  -28.8128  -23.3411   19.9653 C   0  0  0  0  0  0
  -29.5994  -22.4030   17.8819 C   0  0  0  0  0  0
  -28.6917  -18.8338   23.0253 C   0  0  0  0  0  0
  -30.5128  -16.8644   21.5382 C   0  0  0  0  0  0
  -29.1730  -22.1000   19.2430 N   0  0  0  0  0  0
  -29.9726  -15.5620   21.0833 N   0  0  0  0  0  0
  -31.4662  -12.4597   19.1188 H   0  0  0  0  0  0
  -30.3455  -11.3423   19.8439 H   0  0  0  0  0  0
  -29.7374  -11.7640   17.4442 H   0  0  0  0  0  0
  -29.6459  -13.4822   17.7472 H   0  0  0  0  0  0
  -27.8387  -11.3026   18.8409 H   0  0  0  0  0  0
  -27.3591  -12.6111   17.7934 H   0  0  0  0  0  0
  -27.6891  -14.2549   19.5543 H   0  0  0  0  0  0
  -28.6950  -11.9927   21.3472 H   0  0  0  0  0  0
  -28.4600  -13.6364   21.8611 H   0  0  0  0  0  0
  -25.2752   -9.5685   22.4775 H   0  0  0  0  0  0
  -23.9993   -7.4636   22.7486 H   0  0  0  0  0  0
  -21.0840   -8.8781   19.8951 H   0  0  0  0  0  0
  -22.3698  -10.9682   19.6172 H   0  0  0  0  0  0
  -21.1999   -7.6143   23.9713 H   0  0  0  0  0  0
  -21.1481   -6.0522   25.9078 H   0  0  0  0  0  0
  -22.0600   -2.7609   23.2845 H   0  0  0  0  0  0
  -22.4114  -11.9876   22.4781 H   0  0  0  0  0  0
  -21.1126  -13.1266   22.2649 H   0  0  0  0  0  0
  -24.6631  -15.8456   20.5164 H   0  0  0  0  0  0
  -26.2822  -15.6275   20.0883 H   0  0  0  0  0  0
  -26.7133  -32.5494   23.1148 H   0  0  0  0  0  0
  -25.0064  -33.9781   25.0455 H   0  0  0  0  0  0
  -22.6988  -31.3074   21.4077 H   0  0  0  0  0  0
  -23.3747  -35.9643   23.3308 H   0  0  0  0  0  0
  -24.3574  -36.8930   22.2058 H   0  0  0  0  0  0
  -23.7250  -37.6505   23.6678 H   0  0  0  0  0  0
  -26.0682  -31.5801   20.6062 H   0  0  0  0  0  0
  -26.8272  -30.8609   21.9974 H   0  0  0  0  0  0
  -28.1053  -29.0434   21.1814 H   0  0  0  0  0  0
  -26.0122  -25.9453   19.0271 H   0  0  0  0  0  0
  -23.9658  -27.3016   19.0284 H   0  0  0  0  0  0
  -23.7329  -30.6022   19.4059 H   0  0  0  0  0  0
  -22.7416  -29.2500   19.8625 H   0  0  0  0  0  0
  -25.1288  -36.1938   25.0825 H   0  0  0  0  0  0
  -20.9942  -28.3242   24.1405 H   0  0  0  0  0  0
  -20.5636  -26.2292   23.3597 H   0  0  0  0  0  0
  -21.6633  -26.7425   22.1209 H   0  0  0  0  0  0
  -19.6916  -25.6272   21.1234 H   0  0  0  0  0  0
  -19.6669  -27.3173   20.6712 H   0  0  0  0  0  0
  -17.4182  -26.6640   21.4003 H   0  0  0  0  0  0
  -18.0326  -26.0020   22.8984 H   0  0  0  0  0  0
  -19.7938  -30.7231   24.2266 H   0  0  0  0  0  0
  -17.5032  -31.6262   24.5153 H   0  0  0  0  0  0
  -15.5354  -30.3002   23.7654 H   0  0  0  0  0  0
  -15.8640  -28.0806   22.7114 H   0  0  0  0  0  0
  -24.5913  -30.7035   25.7811 H   0  0  0  0  0  0
  -24.8927  -32.2829   26.4950 H   0  0  0  0  0  0
  -25.8095  -30.8839   27.0217 H   0  0  0  0  0  0
  -26.2892  -29.6755   24.1238 H   0  0  0  0  0  0
  -27.4120  -29.7310   25.4639 H   0  0  0  0  0  0
  -27.8722  -30.4351   23.9314 H   0  0  0  0  0  0
  -27.2615  -33.3663   26.2046 H   0  0  0  0  0  0
  -28.3834  -32.6901   25.0331 H   0  0  0  0  0  0
  -28.0684  -31.8508   26.5444 H   0  0  0  0  0  0
  -28.2563  -38.0119   24.7551 H   0  0  0  0  0  0
  -28.1097  -36.2648   24.6248 H   0  0  0  0  0  0
  -27.2295  -37.1399   25.8862 H   0  0  0  0  0  0
  -20.9299  -29.8794   21.6933 H   0  0  0  0  0  0
  -26.0152  -38.2855   24.1453 H   0  0  0  0  0  0
  -30.9545  -17.8209   19.0143 H   0  0  0  0  0  0
  -30.4590  -19.9980   18.0597 H   0  0  0  0  0  0
  -28.3966  -21.1435   21.6715 H   0  0  0  0  0  0
  -28.6735  -26.4319   18.1286 H   0  0  0  0  0  0
  -29.8676  -24.3917   17.0075 H   0  0  0  0  0  0
  -28.2069  -23.7978   17.0008 H   0  0  0  0  0  0
  -27.8166  -23.2576   20.4024 H   0  0  0  0  0  0
  -29.5233  -23.5520   20.7652 H   0  0  0  0  0  0
  -30.6879  -22.3469   17.8220 H   0  0  0  0  0  0
  -29.1807  -21.6984   17.1603 H   0  0  0  0  0  0
  -27.9269  -19.5502   23.3287 H   0  0  0  0  0  0
  -29.4953  -18.8715   23.7612 H   0  0  0  0  0  0
  -28.2336  -17.8448   23.0578 H   0  0  0  0  0  0
  -30.3946  -16.8945   22.6209 H   0  0  0  0  0  0
  -31.5948  -16.8797   21.3956 H   0  0  0  0  0  0
  -29.0183  -15.3603   21.3395 H   0  0  0  0  0  0
  1 25  1  0  0  0
  1 30  2  0  0  0
  1 85  1  0  0  0
  2  3  1  0  0  0
  2 25  1  0  0  0
  2 86  1  0  0  0
  2 87  1  0  0  0
  3  4  1  0  0  0
  3 88  1  0  0  0
  3 89  1  0  0  0
  4  5  1  0  0  0
  4 90  1  0  0  0
  4 91  1  0  0  0
  5  6  1  0  0  0
  5 26  1  0  0  0
  5 92  1  0  0  0
  6 25  1  0  0  0
  6 93  1  0  0  0
  6 94  1  0  0  0
  7  8  2  0  0  0
  7 26  1  0  0  0
  7 29  1  0  0  0
  8  9  1  0  0  0
  8 22  1  0  0  0
  9 10  1  0  0  0
  9 27  2  0  0  0
 10 11  2  0  0  0
 10 15  1  0  0  0
 11 12  1  0  0  0
 11 95  1  0  0  0
 12 13  2  0  0  0
 12 96  1  0  0  0
 13 14  1  0  0  0
 13 31  1  0  0  0
 14 15  2  0  0  0
 14 97  1  0  0  0
 15 98  1  0  0  0
 16 17  2  0  0  0
 16 21  1  0  0  0
 16 31  1  0  0  0
 17 18  1  0  0  0
 17 99  1  0  0  0
 18 19  2  0  0  0
 18100  1  0  0  0
 19 20  1  0  0  0
 19 24  1  0  0  0
 20 21  2  0  0  0
 20101  1  0  0  0
 21 23  1  0  0  0
 22 28  1  0  0  0
 22 32  2  0  0  0
 26 27  1  0  0  0
 28102  1  0  0  0
 28103  1  0  0  0
 29104  1  0  0  0
 29105  1  0  0  0
 33 34  1  0  0  0
 33 66  1  0  0  0
 33 70  2  0  0  0
 34 36  1  0  0  0
 34 59  1  0  0  0
 34106  1  0  0  0
 35 44  2  0  0  0
 35 45  1  0  0  0
 35 68  1  0  0  0
 36 56  1  0  0  0
 36107  1  0  0  0
 37 39  1  0  0  0
 37 47  1  0  0  0
 37 66  1  0  0  0
 37108  1  0  0  0
 38 43  2  0  0  0
 38 46  1  0  0  0
 38 47  1  0  0  0
 39 64  1  0  0  0
 39 67  2  0  0  0
 40 52  1  0  0  0
 40 53  2  0  0  0
 40 58  1  0  0  0
 41109  1  0  0  0
 41110  1  0  0  0
 41111  1  0  0  0
 41 48  1  0  0  0
 42 43  1  0  0  0
 42 66  1  0  0  0
 42112  1  0  0  0
 42113  1  0  0  0
 43 44  1  0  0  0
 44114  1  0  0  0
 45 46  2  0  0  0
 45115  1  0  0  0
 46116  1  0  0  0
 47117  1  0  0  0
 47118  1  0  0  0
 48 56  1  0  0  0
 48 65  1  0  0  0
 48119  1  0  0  0
 49 50  1  0  0  0
 49 53  1  0  0  0
 49 64  1  0  0  0
 49120  1  0  0  0
 50 51  1  0  0  0
 50121  1  0  0  0
 50122  1  0  0  0
 51 52  1  0  0  0
 51123  1  0  0  0
 51124  1  0  0  0
 52125  1  0  0  0
 52126  1  0  0  0
 53 54  1  0  0  0
 54 55  2  0  0  0
 54127  1  0  0  0
 55 57  1  0  0  0
 55128  1  0  0  0
 56 69  2  0  0  0
 57 58  2  0  0  0
 57129  1  0  0  0
 58130  1  0  0  0
 59 60  1  0  0  0
 59 61  1  0  0  0
 59 62  1  0  0  0
 60131  1  0  0  0
 60132  1  0  0  0
 60133  1  0  0  0
 61134  1  0  0  0
 61135  1  0  0  0
 61136  1  0  0  0
 62137  1  0  0  0
 62138  1  0  0  0
 62139  1  0  0  0
 63 65  1  0  0  0
 63140  1  0  0  0
 63141  1  0  0  0
 63142  1  0  0  0
 64143  1  0  0  0
 65144  1  0  0  0
 68 78  1  0  0  0
 71 72  2  0  0  0
 71 74  1  0  0  0
 71145  1  0  0  0
 72 76  1  0  0  0
 72146  1  0  0  0
 73 75  1  0  0  0
 73 76  2  0  0  0
 73147  1  0  0  0
 74 75  2  0  0  0
 74 83  1  0  0  0
 75 82  1  0  0  0
 76 84  1  0  0  0
 77 78  2  0  0  0
 77 79  1  0  0  0
 77 80  1  0  0  0
 78148  1  0  0  0
 79 81  1  0  0  0
 79149  1  0  0  0
 79150  1  0  0  0
 80 84  1  0  0  0
 80151  1  0  0  0
 80152  1  0  0  0
 81 84  1  0  0  0
 81153  1  0  0  0
 81154  1  0  0  0
 82155  1  0  0  0
 82156  1  0  0  0
 82157  1  0  0  0
 83 85  1  0  0  0
 83158  1  0  0  0
 83159  1  0  0  0
 85160  1  0  0  0
M  ISO  4   1 100  68 101  78 101  85 100
M  END
> <chiral flag>
0

> <version>
0

> <s_m_source_file>
/data/baiqing/PycharmProjects/Reinvent-master-3.2/result/LINK_invent/BTK/process_docking_weight1_custom_product_contain_oxygen_bond_distance_aromatic_linkinvent_7_9_3/rearranged_h_0120.sdf

> <i_m_source_file_index>
29

> <r_mmod_Potential_Energy-OPLS-2005>
-24.7734756469727

> <r_mmod_Stretch_Energy-OPLS-2005>
48.5858421325684

> <r_mmod_Bend_Energy-OPLS-2005>
157.974563598633

> <r_mmod_Torsional_Energy-OPLS-2005>
223.027694702148

> <r_mmod_Improper_Torsional_Energy-OPLS-2005>
4.23609781265259

> <r_mmod_Van_der_Waal_Energy-OPLS-2005>
149.644546508789

> <r_mmod_Electrostatic_Energy-OPLS-2005>
-406.628112792969

> <r_mmod_Solvation_Energy-OPLS-2005>
-225.056823730469

> <b_mmod_Minimization_Converged-OPLS-2005>
0

> <r_mmod_RMS_Derivative-OPLS-2005>
1.60319781303406

$$$$
29
                    3D
 Structure written by MMmdl.
159167  0  0  1  0            999 V2000
  -30.6968  -14.5190   20.5713 C   0  0  0  0  0  0
  -30.4205  -12.3371   19.4295 C   0  0  0  0  0  0
  -29.4990  -12.5215   18.2058 C   0  0  0  0  0  0
  -28.0206  -12.3752   18.6124 C   0  0  0  0  0  0
  -27.6585  -13.2171   19.8653 C   0  0  2  0  0  0
  -28.6986  -13.0272   20.9933 C   0  0  0  0  0  0
  -25.2574  -13.8186   20.5652 C   0  0  0  0  0  0
  -24.1835  -13.0464   20.9136 C   0  0  0  0  0  0
  -24.6393  -11.6939   20.8723 C   0  0  0  0  0  0
  -23.9053  -10.4326   21.0404 C   0  0  0  0  0  0
  -24.3621   -9.4246   21.9186 C   0  0  0  0  0  0
  -23.6299   -8.2275   22.0759 C   0  0  0  0  0  0
  -22.4286   -8.0291   21.3531 C   0  0  0  0  0  0
  -21.9906   -9.0266   20.4647 C   0  0  0  0  0  0
  -22.7232  -10.2150   20.3051 C   0  0  0  0  0  0
  -21.6852   -6.0748   22.5281 C   0  0  0  0  0  0
  -21.4023   -6.5647   23.8221 C   0  0  0  0  0  0
  -21.3664   -5.6797   24.9175 C   0  0  0  0  0  0
  -21.6040   -4.3054   24.7219 C   0  0  0  0  0  0
  -21.8818   -3.8151   23.4340 C   0  0  0  0  0  0
  -21.9202   -4.6973   22.3408 C   0  0  0  0  0  0
  -22.7855  -13.5257   21.1806 C   0  0  0  0  0  0
  -22.1658   -4.2170   21.0971 F   0  0  0  0  0  0
  -21.5633   -3.4536   25.7725 F   0  0  0  0  0  0
  -30.0291  -13.3351   20.4410 N   0  0  0  0  0  0
  -26.3008  -12.9376   20.3286 N   0  0  0  0  0  0
  -25.9315  -11.6542   20.5707 N   0  0  0  0  0  0
  -22.0480  -12.8274   22.0371 N   0  0  0  0  0  0
  -25.4343  -15.1913   20.4096 N   0  0  0  0  0  0
  -31.8519  -14.6635   20.1682 O   0  0  0  0  0  0
  -21.6645   -6.8892   21.4244 O   0  0  0  0  0  0
  -22.3574  -14.5595   20.6677 O   0  0  0  0  0  0
  -24.6221  -31.8693   23.2058 C   0  0  0  0  0  0
  -25.9094  -32.4830   23.8381 C   0  0  1  0  0  0
  -27.2252  -27.3898   20.1152 C   0  0  0  0  0  0
  -25.5930  -33.8624   24.2300 N   0  0  0  0  0  0
  -23.4086  -30.4939   21.5481 C   0  0  2  0  0  0
  -24.8512  -28.9550   20.1088 C   0  0  0  0  0  0
  -22.7434  -29.4686   22.4971 C   0  0  0  0  0  0
  -18.0270  -28.1395   22.8509 C   0  0  0  0  0  0
  -24.1473  -36.7283   23.2645 C   0  0  0  0  0  0
  -25.9433  -30.8195   21.3659 C   0  0  0  0  0  0
  -26.0147  -29.4521   20.7091 C   0  0  0  0  0  0
  -27.2061  -28.6827   20.6998 C   0  0  0  0  0  0
  -26.0443  -26.9274   19.4879 C   0  0  0  0  0  0
  -24.8652  -27.6940   19.4879 C   0  0  0  0  0  0
  -23.6149  -29.8270   20.1615 C   0  0  0  0  0  0
  -25.4100  -36.3108   24.0341 C   0  0  1  0  0  0
  -20.5874  -28.3680   23.1301 C   0  0  2  0  0  0
  -20.6765  -26.9414   22.5410 C   0  0  0  0  0  0
  -19.5728  -26.6398   21.5221 C   0  0  0  0  0  0
  -18.1914  -26.7951   22.1638 C   0  0  0  0  0  0
  -19.1527  -28.8853   23.2910 C   0  0  0  0  0  0
  -18.9458  -30.1459   23.8922 C   0  0  0  0  0  0
  -17.6462  -30.6596   24.0564 C   0  0  0  0  0  0
  -25.9043  -34.9490   23.5107 C   0  0  0  0  0  0
  -16.5346  -29.9086   23.6347 C   0  0  0  0  0  0
  -16.7263  -28.6501   23.0378 C   0  0  0  0  0  0
  -26.4494  -31.6649   25.0754 C   0  0  0  0  0  0
  -25.3755  -31.3793   26.1511 C   0  0  0  0  0  0
  -27.0322  -30.3081   24.6159 C   0  0  0  0  0  0
  -27.6035  -32.4407   25.7534 C   0  0  0  0  0  0
  -27.5571  -37.1813   24.8470 C   0  0  0  0  0  0
  -21.4163  -29.3047   22.3726 N   0  0  0  0  0  0
  -26.4270  -37.3809   23.9429 N   0  0  0  0  0  0
  -24.6767  -31.0756   22.0975 N   0  0  0  0  0  0
  -23.4200  -28.8255   23.3041 O   0  0  0  0  0  0
  -28.3703  -26.6068   20.1760 O   0  0  0  0  0  0
  -26.5581  -34.8952   22.4649 O   0  0  0  0  0  0
  -23.5410  -32.1437   23.7439 O   0  0  0  0  0  0
  -31.0011  -19.1905   20.3366 C   0  0  0  0  0  0
  -29.6993  -17.6549   22.2614 C   0  0  0  0  0  0
  -30.8129  -17.7958   20.1066 C   0  0  0  0  0  0
  -30.5498  -19.8364   21.5093 C   0  0  0  0  0  0
  -30.1965  -16.9859   21.1132 C   0  0  0  0  0  0
  -29.8678  -19.0458   22.4616 C   0  0  0  0  0  0
  -30.5965  -22.2928   21.6152 C   0  0  0  0  0  0
  -31.1546  -18.1449   17.5574 C   0  0  0  0  0  0
  -31.2927  -17.2168   18.7757 C   0  0  0  0  0  0
  -29.3726  -22.8438   20.8670 C   0  0  0  0  0  0
  -29.3692  -24.4217   20.8834 C   0  0  0  0  0  0
  -28.2000  -25.1631   20.1751 C   0  0  0  0  0  0
  -31.0470  -21.1118   21.8600 N   0  0  0  0  0  0
  -29.9494  -15.5566   21.0348 N   0  0  0  0  0  0
  -29.4314  -19.6050   23.6160 F   0  0  0  0  0  0
  -31.4669  -12.4325   19.1316 H   0  0  0  0  0  0
  -30.3162  -11.3278   19.8331 H   0  0  0  0  0  0
  -29.7509  -11.7974   17.4299 H   0  0  0  0  0  0
  -29.6604  -13.5051   17.7630 H   0  0  0  0  0  0
  -27.8333  -11.3198   18.8073 H   0  0  0  0  0  0
  -27.3701  -12.6475   17.7812 H   0  0  0  0  0  0
  -27.6922  -14.2608   19.5534 H   0  0  0  0  0  0
  -28.6773  -12.0017   21.3686 H   0  0  0  0  0  0
  -28.4489  -13.6567   21.8481 H   0  0  0  0  0  0
  -25.2774   -9.5740   22.4745 H   0  0  0  0  0  0
  -24.0017   -7.4691   22.7495 H   0  0  0  0  0  0
  -21.0832   -8.8800   19.8968 H   0  0  0  0  0  0
  -22.3700  -10.9688   19.6155 H   0  0  0  0  0  0
  -21.2011   -7.6162   23.9727 H   0  0  0  0  0  0
  -21.1478   -6.0521   25.9081 H   0  0  0  0  0  0
  -22.0594   -2.7614   23.2827 H   0  0  0  0  0  0
  -22.4042  -11.9886   22.4741 H   0  0  0  0  0  0
  -21.1119  -13.1380   22.2576 H   0  0  0  0  0  0
  -24.6809  -15.8583   20.5317 H   0  0  0  0  0  0
  -26.2967  -15.6243   20.1036 H   0  0  0  0  0  0
  -26.7165  -32.5499   23.1148 H   0  0  0  0  0  0
  -25.0235  -33.9751   25.0556 H   0  0  0  0  0  0
  -22.6997  -31.3132   21.4116 H   0  0  0  0  0  0
  -23.3761  -35.9599   23.3325 H   0  0  0  0  0  0
  -24.3557  -36.8874   22.2061 H   0  0  0  0  0  0
  -23.7200  -37.6492   23.6620 H   0  0  0  0  0  0
  -26.0664  -31.5826   20.5961 H   0  0  0  0  0  0
  -26.8266  -30.8634   21.9917 H   0  0  0  0  0  0
  -28.1010  -29.0633   21.1729 H   0  0  0  0  0  0
  -26.0159  -25.9662   18.9966 H   0  0  0  0  0  0
  -23.9747  -27.3115   19.0082 H   0  0  0  0  0  0
  -23.7251  -30.6025   19.4037 H   0  0  0  0  0  0
  -22.7335  -29.2533   19.8654 H   0  0  0  0  0  0
  -25.1291  -36.1985   25.0835 H   0  0  0  0  0  0
  -20.9961  -28.3256   24.1412 H   0  0  0  0  0  0
  -20.5696  -26.2298   23.3615 H   0  0  0  0  0  0
  -21.6638  -26.7475   22.1192 H   0  0  0  0  0  0
  -19.6872  -25.6303   21.1255 H   0  0  0  0  0  0
  -19.6657  -27.3209   20.6753 H   0  0  0  0  0  0
  -17.4196  -26.6746   21.4013 H   0  0  0  0  0  0
  -18.0267  -26.0059   22.9001 H   0  0  0  0  0  0
  -19.7924  -30.7271   24.2315 H   0  0  0  0  0  0
  -17.5000  -31.6271   24.5159 H   0  0  0  0  0  0
  -15.5342  -30.2989   23.7638 H   0  0  0  0  0  0
  -15.8677  -28.0802   22.7101 H   0  0  0  0  0  0
  -24.5896  -30.7135   25.7907 H   0  0  0  0  0  0
  -24.8984  -32.2973   26.4970 H   0  0  0  0  0  0
  -25.8142  -30.9017   27.0280 H   0  0  0  0  0  0
  -26.2871  -29.6870   24.1156 H   0  0  0  0  0  0
  -27.4028  -29.7305   25.4648 H   0  0  0  0  0  0
  -27.8746  -30.4417   23.9355 H   0  0  0  0  0  0
  -27.2595  -33.3695   26.2104 H   0  0  0  0  0  0
  -28.3859  -32.7008   25.0381 H   0  0  0  0  0  0
  -28.0675  -31.8559   26.5496 H   0  0  0  0  0  0
  -28.2636  -38.0094   24.7529 H   0  0  0  0  0  0
  -28.1040  -36.2618   24.6281 H   0  0  0  0  0  0
  -27.2278  -37.1438   25.8881 H   0  0  0  0  0  0
  -20.9353  -29.8766   21.6937 H   0  0  0  0  0  0
  -26.0170  -38.2895   24.1446 H   0  0  0  0  0  0
  -31.5637  -19.7749   19.6271 H   0  0  0  0  0  0
  -29.2035  -17.0958   23.0416 H   0  0  0  0  0  0
  -31.1871  -23.1223   22.0170 H   0  0  0  0  0  0
  -30.1256  -18.4911   17.4503 H   0  0  0  0  0  0
  -31.4272  -17.6130   16.6433 H   0  0  0  0  0  0
  -31.8049  -19.0165   17.6171 H   0  0  0  0  0  0
  -30.7139  -16.3263   18.5412 H   0  0  0  0  0  0
  -32.3331  -16.9068   18.8885 H   0  0  0  0  0  0
  -28.4710  -22.4467   21.3366 H   0  0  0  0  0  0
  -29.3980  -22.4849   19.8389 H   0  0  0  0  0  0
  -30.3010  -24.7807   20.4473 H   0  0  0  0  0  0
  -29.3838  -24.7569   21.9201 H   0  0  0  0  0  0
  -27.2767  -24.8904   20.6879 H   0  0  0  0  0  0
  -28.1120  -24.8178   19.1440 H   0  0  0  0  0  0
  -29.0742  -15.2522   21.4320 H   0  0  0  0  0  0
  1 25  1  0  0  0
  1 30  2  0  0  0
  1 84  1  0  0  0
  2  3  1  0  0  0
  2 25  1  0  0  0
  2 86  1  0  0  0
  2 87  1  0  0  0
  3  4  1  0  0  0
  3 88  1  0  0  0
  3 89  1  0  0  0
  4  5  1  0  0  0
  4 90  1  0  0  0
  4 91  1  0  0  0
  5  6  1  0  0  0
  5 26  1  0  0  0
  5 92  1  0  0  0
  6 25  1  0  0  0
  6 93  1  0  0  0
  6 94  1  0  0  0
  7  8  2  0  0  0
  7 26  1  0  0  0
  7 29  1  0  0  0
  8  9  1  0  0  0
  8 22  1  0  0  0
  9 10  1  0  0  0
  9 27  2  0  0  0
 10 11  2  0  0  0
 10 15  1  0  0  0
 11 12  1  0  0  0
 11 95  1  0  0  0
 12 13  2  0  0  0
 12 96  1  0  0  0
 13 14  1  0  0  0
 13 31  1  0  0  0
 14 15  2  0  0  0
 14 97  1  0  0  0
 15 98  1  0  0  0
 16 17  2  0  0  0
 16 21  1  0  0  0
 16 31  1  0  0  0
 17 18  1  0  0  0
 17 99  1  0  0  0
 18 19  2  0  0  0
 18100  1  0  0  0
 19 20  1  0  0  0
 19 24  1  0  0  0
 20 21  2  0  0  0
 20101  1  0  0  0
 21 23  1  0  0  0
 22 28  1  0  0  0
 22 32  2  0  0  0
 26 27  1  0  0  0
 28102  1  0  0  0
 28103  1  0  0  0
 29104  1  0  0  0
 29105  1  0  0  0
 33 34  1  0  0  0
 33 66  1  0  0  0
 33 70  2  0  0  0
 34 36  1  0  0  0
 34 59  1  0  0  0
 34106  1  0  0  0
 35 44  2  0  0  0
 35 45  1  0  0  0
 35 68  1  0  0  0
 36 56  1  0  0  0
 36107  1  0  0  0
 37 39  1  0  0  0
 37 47  1  0  0  0
 37 66  1  0  0  0
 37108  1  0  0  0
 38 43  2  0  0  0
 38 46  1  0  0  0
 38 47  1  0  0  0
 39 64  1  0  0  0
 39 67  2  0  0  0
 40 52  1  0  0  0
 40 53  2  0  0  0
 40 58  1  0  0  0
 41109  1  0  0  0
 41110  1  0  0  0
 41111  1  0  0  0
 41 48  1  0  0  0
 42 43  1  0  0  0
 42 66  1  0  0  0
 42112  1  0  0  0
 42113  1  0  0  0
 43 44  1  0  0  0
 44114  1  0  0  0
 45 46  2  0  0  0
 45115  1  0  0  0
 46116  1  0  0  0
 47117  1  0  0  0
 47118  1  0  0  0
 48 56  1  0  0  0
 48 65  1  0  0  0
 48119  1  0  0  0
 49 50  1  0  0  0
 49 53  1  0  0  0
 49 64  1  0  0  0
 49120  1  0  0  0
 50 51  1  0  0  0
 50121  1  0  0  0
 50122  1  0  0  0
 51 52  1  0  0  0
 51123  1  0  0  0
 51124  1  0  0  0
 52125  1  0  0  0
 52126  1  0  0  0
 53 54  1  0  0  0
 54 55  2  0  0  0
 54127  1  0  0  0
 55 57  1  0  0  0
 55128  1  0  0  0
 56 69  2  0  0  0
 57 58  2  0  0  0
 57129  1  0  0  0
 58130  1  0  0  0
 59 60  1  0  0  0
 59 61  1  0  0  0
 59 62  1  0  0  0
 60131  1  0  0  0
 60132  1  0  0  0
 60133  1  0  0  0
 61134  1  0  0  0
 61135  1  0  0  0
 61136  1  0  0  0
 62137  1  0  0  0
 62138  1  0  0  0
 62139  1  0  0  0
 63 65  1  0  0  0
 63140  1  0  0  0
 63141  1  0  0  0
 63142  1  0  0  0
 64143  1  0  0  0
 65144  1  0  0  0
 68 82  1  0  0  0
 71 73  2  0  0  0
 71 74  1  0  0  0
 71145  1  0  0  0
 72 75  2  0  0  0
 72 76  1  0  0  0
 72146  1  0  0  0
 73 75  1  0  0  0
 73 79  1  0  0  0
 74 76  2  0  0  0
 74 83  1  0  0  0
 75 84  1  0  0  0
 76 85  1  0  0  0
 77 80  1  0  0  0
 77 83  2  0  0  0
 77147  1  0  0  0
 78 79  1  0  0  0
 78148  1  0  0  0
 78149  1  0  0  0
 78150  1  0  0  0
 79151  1  0  0  0
 79152  1  0  0  0
 80 81  1  0  0  0
 80153  1  0  0  0
 80154  1  0  0  0
 81 82  1  0  0  0
 81155  1  0  0  0
 81156  1  0  0  0
 82157  1  0  0  0
 82158  1  0  0  0
 84159  1  0  0  0
M  ISO  4   1 100  68 101  82 101  84 100
M  END
> <chiral flag>
0

> <version>
0

> <s_m_source_file>
/data/baiqing/PycharmProjects/Reinvent-master-3.2/result/LINK_invent/BTK/process_docking_weight1_custom_product_contain_oxygen_bond_distance_aromatic_linkinvent_7_9_3/rearranged_h_0120.sdf

> <i_m_source_file_index>
30

> <r_mmod_Potential_Energy-OPLS-2005>
45.2364959716797

> <r_mmod_Stretch_Energy-OPLS-2005>
52.6028480529785

> <r_mmod_Bend_Energy-OPLS-2005>
150.944931030273

> <r_mmod_Torsional_Energy-OPLS-2005>
248.964645385742

> <r_mmod_Improper_Torsional_Energy-OPLS-2005>
6.0190577507019

> <r_mmod_Van_der_Waal_Energy-OPLS-2005>
151.742111206055

> <r_mmod_Electrostatic_Energy-OPLS-2005>
-379.827575683594

> <r_mmod_Solvation_Energy-OPLS-2005>
-208.100509643555

> <b_mmod_Minimization_Converged-OPLS-2005>
0

> <r_mmod_RMS_Derivative-OPLS-2005>
4.02989912033081

$$$$
30
                    3D
 Structure written by MMmdl.
156164  0  0  1  0            999 V2000
  -30.7119  -14.4871   20.6677 C   0  0  0  0  0  0
  -30.4309  -12.3534   19.4209 C   0  0  0  0  0  0
  -29.4966  -12.5531   18.2082 C   0  0  0  0  0  0
  -28.0211  -12.3796   18.6154 C   0  0  0  0  0  0
  -27.6644  -13.2059   19.8766 C   0  0  2  0  0  0
  -28.6985  -12.9555   20.9936 C   0  0  0  0  0  0
  -25.2594  -13.8160   20.5646 C   0  0  0  0  0  0
  -24.1841  -13.0432   20.9144 C   0  0  0  0  0  0
  -24.6405  -11.6904   20.8718 C   0  0  0  0  0  0
  -23.9079  -10.4292   21.0408 C   0  0  0  0  0  0
  -24.3625   -9.4206   21.9186 C   0  0  0  0  0  0
  -23.6293   -8.2243   22.0761 C   0  0  0  0  0  0
  -22.4278   -8.0286   21.3552 C   0  0  0  0  0  0
  -21.9917   -9.0266   20.4657 C   0  0  0  0  0  0
  -22.7255  -10.2138   20.3060 C   0  0  0  0  0  0
  -21.6864   -6.0740   22.5284 C   0  0  0  0  0  0
  -21.4022   -6.5647   23.8217 C   0  0  0  0  0  0
  -21.3655   -5.6795   24.9180 C   0  0  0  0  0  0
  -21.6044   -4.3058   24.7233 C   0  0  0  0  0  0
  -21.8816   -3.8151   23.4355 C   0  0  0  0  0  0
  -21.9193   -4.6965   22.3408 C   0  0  0  0  0  0
  -22.7871  -13.5236   21.1835 C   0  0  0  0  0  0
  -22.1659   -4.2150   21.0984 F   0  0  0  0  0  0
  -21.5622   -3.4540   25.7747 F   0  0  0  0  0  0
  -30.0361  -13.3096   20.4746 N   0  0  0  0  0  0
  -26.3027  -12.9324   20.3335 N   0  0  0  0  0  0
  -25.9325  -11.6486   20.5729 N   0  0  0  0  0  0
  -22.0524  -12.8229   22.0402 N   0  0  0  0  0  0
  -25.4329  -15.1876   20.4094 N   0  0  0  0  0  0
  -31.7541  -14.7260   20.0516 O   0  0  0  0  0  0
  -21.6641   -6.8882   21.4248 O   0  0  0  0  0  0
  -22.3551  -14.5548   20.6703 O   0  0  0  0  0  0
  -24.6185  -31.8673   23.2108 C   0  0  0  0  0  0
  -25.9059  -32.4809   23.8413 C   0  0  1  0  0  0
  -27.2320  -27.3970   20.0924 C   0  0  0  0  0  0
  -25.5908  -33.8607   24.2354 N   0  0  0  0  0  0
  -23.4083  -30.4910   21.5555 C   0  0  2  0  0  0
  -24.8529  -28.9593   20.1180 C   0  0  0  0  0  0
  -22.7432  -29.4649   22.5022 C   0  0  0  0  0  0
  -18.0265  -28.1388   22.8510 C   0  0  0  0  0  0
  -24.1499  -36.7312   23.2637 C   0  0  0  0  0  0
  -25.9428  -30.8210   21.3702 C   0  0  0  0  0  0
  -26.0198  -29.4553   20.7115 C   0  0  0  0  0  0
  -27.2122  -28.6850   20.6919 C   0  0  0  0  0  0
  -26.0354  -26.9317   19.4927 C   0  0  0  0  0  0
  -24.8583  -27.6976   19.5063 C   0  0  0  0  0  0
  -23.6174  -29.8295   20.1703 C   0  0  0  0  0  0
  -25.4111  -36.3099   24.0344 C   0  0  1  0  0  0
  -20.5864  -28.3676   23.1343 C   0  0  2  0  0  0
  -20.6764  -26.9413   22.5443 C   0  0  0  0  0  0
  -19.5745  -26.6400   21.5236 C   0  0  0  0  0  0
  -18.1922  -26.7941   22.1640 C   0  0  0  0  0  0
  -19.1516  -28.8851   23.2923 C   0  0  0  0  0  0
  -18.9435  -30.1458   23.8935 C   0  0  0  0  0  0
  -17.6436  -30.6597   24.0579 C   0  0  0  0  0  0
  -25.9035  -34.9461   23.5145 C   0  0  0  0  0  0
  -16.5330  -29.9103   23.6325 C   0  0  0  0  0  0
  -16.7251  -28.6516   23.0353 C   0  0  0  0  0  0
  -26.4478  -31.6556   25.0721 C   0  0  0  0  0  0
  -25.3737  -31.3641   26.1459 C   0  0  0  0  0  0
  -27.0284  -30.2994   24.6068 C   0  0  0  0  0  0
  -27.6074  -32.4239   25.7478 C   0  0  0  0  0  0
  -27.5591  -37.1816   24.8470 C   0  0  0  0  0  0
  -21.4157  -29.3031   22.3742 N   0  0  0  0  0  0
  -26.4306  -37.3777   23.9403 N   0  0  0  0  0  0
  -24.6756  -31.0733   22.1040 N   0  0  0  0  0  0
  -23.4182  -28.8182   23.3076 O   0  0  0  0  0  0
  -28.3912  -26.6250   20.1081 O   0  0  0  0  0  0
  -26.5599  -34.8908   22.4706 O   0  0  0  0  0  0
  -23.5372  -32.1459   23.7470 O   0  0  0  0  0  0
  -32.5575  -19.2327   20.1676 C   0  0  0  0  0  0
  -32.2503  -18.0010   20.8225 C   0  0  0  0  0  0
  -30.8982  -17.8313   21.0013 C   0  0  0  0  0  0
  -31.4823  -20.0361   19.8774 C   0  0  0  0  0  0
  -30.2095  -16.7723   21.7018 C   0  0  0  0  0  0
  -30.1176  -15.4140   21.6461 C   0  0  0  0  0  0
  -30.9866  -22.3874   19.1345 C   0  0  0  0  0  0
  -33.3285  -17.0574   21.2685 C   0  0  0  0  0  0
  -29.8530  -22.8097   20.1087 C   0  0  0  0  0  0
  -29.5847  -24.3772   20.2416 C   0  0  0  0  0  0
  -28.2351  -25.1846   19.9991 C   0  0  0  0  0  0
  -31.6011  -21.1865   19.1533 N   0  0  0  0  0  0
  -31.3928  -23.2019   18.3038 O   0  0  0  0  0  0
  -30.0129  -19.2520   20.4363 S   0  0  0  0  0  0
  -31.4707  -12.4739   19.1136 H   0  0  0  0  0  0
  -30.3552  -11.3328   19.7977 H   0  0  0  0  0  0
  -29.7509  -11.8554   17.4101 H   0  0  0  0  0  0
  -29.6452  -13.5532   17.7968 H   0  0  0  0  0  0
  -27.8482  -11.3197   18.8061 H   0  0  0  0  0  0
  -27.3654  -12.6529   17.7876 H   0  0  0  0  0  0
  -27.7187  -14.2598   19.6004 H   0  0  0  0  0  0
  -28.6925  -11.9042   21.2835 H   0  0  0  0  0  0
  -28.3860  -13.4798   21.8911 H   0  0  0  0  0  0
  -25.2769   -9.5676   22.4761 H   0  0  0  0  0  0
  -24.0005   -7.4640   22.7484 H   0  0  0  0  0  0
  -21.0843   -8.8804   19.8965 H   0  0  0  0  0  0
  -22.3727  -10.9683   19.6170 H   0  0  0  0  0  0
  -21.2018   -7.6154   23.9724 H   0  0  0  0  0  0
  -21.1476   -6.0525   25.9084 H   0  0  0  0  0  0
  -22.0591   -2.7614   23.2860 H   0  0  0  0  0  0
  -22.4146  -11.9865   22.4736 H   0  0  0  0  0  0
  -21.1168  -13.1288   22.2667 H   0  0  0  0  0  0
  -24.6714  -15.8477   20.5252 H   0  0  0  0  0  0
  -26.3012  -15.6296   20.1324 H   0  0  0  0  0  0
  -26.7126  -32.5523   23.1175 H   0  0  0  0  0  0
  -25.0038  -33.9770   25.0488 H   0  0  0  0  0  0
  -22.6980  -31.3090   21.4201 H   0  0  0  0  0  0
  -23.3742  -35.9662   23.3311 H   0  0  0  0  0  0
  -24.3617  -36.8910   22.2052 H   0  0  0  0  0  0
  -23.7270  -37.6526   23.6646 H   0  0  0  0  0  0
  -26.0584  -31.5882   20.6043 H   0  0  0  0  0  0
  -26.8299  -30.8752   21.9889 H   0  0  0  0  0  0
  -28.1113  -29.0656   21.1568 H   0  0  0  0  0  0
  -25.9729  -25.9723   19.0039 H   0  0  0  0  0  0
  -23.9620  -27.3093   19.0423 H   0  0  0  0  0  0
  -23.7273  -30.6098   19.4164 H   0  0  0  0  0  0
  -22.7401  -29.2532   19.8714 H   0  0  0  0  0  0
  -25.1284  -36.1986   25.0839 H   0  0  0  0  0  0
  -20.9949  -28.3238   24.1466 H   0  0  0  0  0  0
  -20.5698  -26.2271   23.3619 H   0  0  0  0  0  0
  -21.6631  -26.7480   22.1217 H   0  0  0  0  0  0
  -19.6913  -25.6317   21.1250 H   0  0  0  0  0  0
  -19.6693  -27.3230   20.6780 H   0  0  0  0  0  0
  -17.4197  -26.6707   21.4030 H   0  0  0  0  0  0
  -18.0310  -26.0071   22.9023 H   0  0  0  0  0  0
  -19.7897  -30.7275   24.2332 H   0  0  0  0  0  0
  -17.4973  -31.6276   24.5175 H   0  0  0  0  0  0
  -15.5331  -30.3013   23.7616 H   0  0  0  0  0  0
  -15.8653  -28.0840   22.7056 H   0  0  0  0  0  0
  -24.5968  -30.6923   25.7793 H   0  0  0  0  0  0
  -24.8852  -32.2769   26.4875 H   0  0  0  0  0  0
  -25.8090  -30.8850   27.0237 H   0  0  0  0  0  0
  -26.2824  -29.6785   24.1088 H   0  0  0  0  0  0
  -27.4027  -29.7188   25.4510 H   0  0  0  0  0  0
  -27.8676  -30.4300   23.9229 H   0  0  0  0  0  0
  -27.2730  -33.3550   26.2064 H   0  0  0  0  0  0
  -28.3866  -32.6760   25.0272 H   0  0  0  0  0  0
  -28.0742  -31.8330   26.5373 H   0  0  0  0  0  0
  -28.2604  -38.0115   24.7480 H   0  0  0  0  0  0
  -28.1094  -36.2636   24.6333 H   0  0  0  0  0  0
  -27.2312  -37.1503   25.8878 H   0  0  0  0  0  0
  -20.9327  -29.8727   21.6938 H   0  0  0  0  0  0
  -26.0199  -38.2863   24.1371 H   0  0  0  0  0  0
  -33.5816  -19.4878   19.9349 H   0  0  0  0  0  0
  -29.6490  -17.1797   22.5320 H   0  0  0  0  0  0
  -29.5383  -15.0002   22.4525 H   0  0  0  0  0  0
  -33.8029  -16.5820   20.4109 H   0  0  0  0  0  0
  -32.9490  -16.2700   21.9187 H   0  0  0  0  0  0
  -34.1090  -17.5811   21.8220 H   0  0  0  0  0  0
  -30.1319  -22.3840   21.0770 H   0  0  0  0  0  0
  -28.9382  -22.2965   19.8051 H   0  0  0  0  0  0
  -29.0458  -24.0311   21.1227 H   0  0  0  0  0  0
  -29.5332  -24.3457   19.1581 H   0  0  0  0  0  0
  -27.4416  -24.9012   20.7012 H   0  0  0  0  0  0
  -27.7908  -24.9582   19.0221 H   0  0  0  0  0  0
  -32.3816  -21.1735   18.5116 H   0  0  0  0  0  0
  1 25  1  0  0  0
  1 30  2  0  0  0
  1 76  1  0  0  0
  2  3  1  0  0  0
  2 25  1  0  0  0
  2 85  1  0  0  0
  2 86  1  0  0  0
  3  4  1  0  0  0
  3 87  1  0  0  0
  3 88  1  0  0  0
  4  5  1  0  0  0
  4 89  1  0  0  0
  4 90  1  0  0  0
  5  6  1  0  0  0
  5 26  1  0  0  0
  5 91  1  0  0  0
  6 25  1  0  0  0
  6 92  1  0  0  0
  6 93  1  0  0  0
  7  8  2  0  0  0
  7 26  1  0  0  0
  7 29  1  0  0  0
  8  9  1  0  0  0
  8 22  1  0  0  0
  9 10  1  0  0  0
  9 27  2  0  0  0
 10 11  2  0  0  0
 10 15  1  0  0  0
 11 12  1  0  0  0
 11 94  1  0  0  0
 12 13  2  0  0  0
 12 95  1  0  0  0
 13 14  1  0  0  0
 13 31  1  0  0  0
 14 15  2  0  0  0
 14 96  1  0  0  0
 15 97  1  0  0  0
 16 17  2  0  0  0
 16 21  1  0  0  0
 16 31  1  0  0  0
 17 18  1  0  0  0
 17 98  1  0  0  0
 18 19  2  0  0  0
 18 99  1  0  0  0
 19 20  1  0  0  0
 19 24  1  0  0  0
 20 21  2  0  0  0
 20100  1  0  0  0
 21 23  1  0  0  0
 22 28  1  0  0  0
 22 32  2  0  0  0
 26 27  1  0  0  0
 28101  1  0  0  0
 28102  1  0  0  0
 29103  1  0  0  0
 29104  1  0  0  0
 33 34  1  0  0  0
 33 66  1  0  0  0
 33 70  2  0  0  0
 34 36  1  0  0  0
 34 59  1  0  0  0
 34105  1  0  0  0
 35 44  2  0  0  0
 35 45  1  0  0  0
 35 68  1  0  0  0
 36 56  1  0  0  0
 36106  1  0  0  0
 37 39  1  0  0  0
 37 47  1  0  0  0
 37 66  1  0  0  0
 37107  1  0  0  0
 38 43  2  0  0  0
 38 46  1  0  0  0
 38 47  1  0  0  0
 39 64  1  0  0  0
 39 67  2  0  0  0
 40 52  1  0  0  0
 40 53  2  0  0  0
 40 58  1  0  0  0
 41108  1  0  0  0
 41109  1  0  0  0
 41110  1  0  0  0
 41 48  1  0  0  0
 42 43  1  0  0  0
 42 66  1  0  0  0
 42111  1  0  0  0
 42112  1  0  0  0
 43 44  1  0  0  0
 44113  1  0  0  0
 45 46  2  0  0  0
 45114  1  0  0  0
 46115  1  0  0  0
 47116  1  0  0  0
 47117  1  0  0  0
 48 56  1  0  0  0
 48 65  1  0  0  0
 48118  1  0  0  0
 49 50  1  0  0  0
 49 53  1  0  0  0
 49 64  1  0  0  0
 49119  1  0  0  0
 50 51  1  0  0  0
 50120  1  0  0  0
 50121  1  0  0  0
 51 52  1  0  0  0
 51122  1  0  0  0
 51123  1  0  0  0
 52124  1  0  0  0
 52125  1  0  0  0
 53 54  1  0  0  0
 54 55  2  0  0  0
 54126  1  0  0  0
 55 57  1  0  0  0
 55127  1  0  0  0
 56 69  2  0  0  0
 57 58  2  0  0  0
 57128  1  0  0  0
 58129  1  0  0  0
 59 60  1  0  0  0
 59 61  1  0  0  0
 59 62  1  0  0  0
 60130  1  0  0  0
 60131  1  0  0  0
 60132  1  0  0  0
 61133  1  0  0  0
 61134  1  0  0  0
 61135  1  0  0  0
 62136  1  0  0  0
 62137  1  0  0  0
 62138  1  0  0  0
 63 65  1  0  0  0
 63139  1  0  0  0
 63140  1  0  0  0
 63141  1  0  0  0
 64142  1  0  0  0
 65143  1  0  0  0
 68 81  1  0  0  0
 71 72  1  0  0  0
 71 74  2  0  0  0
 71144  1  0  0  0
 72 73  2  0  0  0
 72 78  1  0  0  0
 73 75  1  0  0  0
 73 84  1  0  0  0
 74 82  1  0  0  0
 74 84  1  0  0  0
 75 76  2  0  0  0
 75145  1  0  0  0
 76146  1  0  0  0
 77 79  1  0  0  0
 77 82  1  0  0  0
 77 83  2  0  0  0
 78147  1  0  0  0
 78148  1  0  0  0
 78149  1  0  0  0
 79 80  1  0  0  0
 79150  1  0  0  0
 79151  1  0  0  0
 80 81  1  0  0  0
 80152  1  0  0  0
 80153  1  0  0  0
 81154  1  0  0  0
 81155  1  0  0  0
 82156  1  0  0  0
M  ISO  4   1 100  68 101  76 100  81 101
M  END
> <chiral flag>
0

> <version>
0

> <s_m_source_file>
/data/baiqing/PycharmProjects/Reinvent-master-3.2/result/LINK_invent/BTK/process_docking_weight1_custom_product_contain_oxygen_bond_distance_aromatic_linkinvent_7_9_3/rearranged_h_0120.sdf

> <i_m_source_file_index>
31

> <r_mmod_Potential_Energy-OPLS-2005>
232.956649780273

> <r_mmod_Stretch_Energy-OPLS-2005>
52.3480567932129

> <r_mmod_Bend_Energy-OPLS-2005>
386.613739013672

> <r_mmod_Torsional_Energy-OPLS-2005>
219.742813110352

> <r_mmod_Improper_Torsional_Energy-OPLS-2005>
3.16443109512329

> <r_mmod_Van_der_Waal_Energy-OPLS-2005>
159.775817871094

> <r_mmod_Electrostatic_Energy-OPLS-2005>
-392.314422607422

> <r_mmod_Solvation_Energy-OPLS-2005>
-212.291320800781

> <b_mmod_Minimization_Converged-OPLS-2005>
0

> <r_mmod_RMS_Derivative-OPLS-2005>
1.99855029582977

$$$$
31
                    3D
 Structure written by MMmdl.
154162  0  0  1  0            999 V2000
  -30.6185  -14.7474   20.4758 C   0  0  0  0  0  0
  -30.4400  -12.4641   19.4633 C   0  0  0  0  0  0
  -29.5099  -12.5032   18.2316 C   0  0  0  0  0  0
  -28.0408  -12.3179   18.6545 C   0  0  0  0  0  0
  -27.6445  -13.2271   19.8484 C   0  0  2  0  0  0
  -28.6927  -13.1670   20.9806 C   0  0  0  0  0  0
  -25.2540  -13.8179   20.5686 C   0  0  0  0  0  0
  -24.1825  -13.0442   20.9214 C   0  0  0  0  0  0
  -24.6413  -11.6922   20.8773 C   0  0  0  0  0  0
  -23.9078  -10.4297   21.0427 C   0  0  0  0  0  0
  -24.3626   -9.4205   21.9198 C   0  0  0  0  0  0
  -23.6300   -8.2241   22.0761 C   0  0  0  0  0  0
  -22.4277   -8.0286   21.3541 C   0  0  0  0  0  0
  -21.9922   -9.0267   20.4641 C   0  0  0  0  0  0
  -22.7260  -10.2144   20.3069 C   0  0  0  0  0  0
  -21.6845   -6.0747   22.5278 C   0  0  0  0  0  0
  -21.4011   -6.5647   23.8215 C   0  0  0  0  0  0
  -21.3666   -5.6797   24.9172 C   0  0  0  0  0  0
  -21.6042   -4.3057   24.7213 C   0  0  0  0  0  0
  -21.8823   -3.8155   23.4330 C   0  0  0  0  0  0
  -21.9195   -4.6979   22.3395 C   0  0  0  0  0  0
  -22.7841  -13.5236   21.1860 C   0  0  0  0  0  0
  -22.1662   -4.2173   21.0967 F   0  0  0  0  0  0
  -21.5629   -3.4537   25.7725 F   0  0  0  0  0  0
  -29.9905  -13.5247   20.3927 N   0  0  0  0  0  0
  -26.2960  -12.9381   20.3275 N   0  0  0  0  0  0
  -25.9337  -11.6523   20.5761 N   0  0  0  0  0  0
  -22.0468  -12.8233   22.0397 N   0  0  0  0  0  0
  -25.4219  -15.1904   20.4083 N   0  0  0  0  0  0
  -31.8100  -14.8458   20.1669 O   0  0  0  0  0  0
  -21.6637   -6.8888   21.4235 O   0  0  0  0  0  0
  -22.3538  -14.5549   20.6710 O   0  0  0  0  0  0
  -24.6292  -31.8558   23.1966 C   0  0  0  0  0  0
  -25.9131  -32.4740   23.8323 C   0  0  1  0  0  0
  -27.2180  -27.2547   20.1226 C   0  0  0  0  0  0
  -25.5951  -33.8545   24.2231 N   0  0  0  0  0  0
  -23.4243  -30.4782   21.5394 C   0  0  2  0  0  0
  -24.8721  -28.9280   20.1121 C   0  0  0  0  0  0
  -22.7503  -29.4570   22.4891 C   0  0  0  0  0  0
  -18.0286  -28.1348   22.8430 C   0  0  0  0  0  0
  -24.1503  -36.7268   23.2644 C   0  0  0  0  0  0
  -25.9725  -30.7698   21.3737 C   0  0  0  0  0  0
  -26.0458  -29.3912   20.7180 C   0  0  0  0  0  0
  -27.2167  -28.5661   20.7141 C   0  0  0  0  0  0
  -26.0121  -26.8609   19.4952 C   0  0  0  0  0  0
  -24.8616  -27.6722   19.4938 C   0  0  0  0  0  0
  -23.6454  -29.8170   20.1554 C   0  0  0  0  0  0
  -25.4119  -36.3052   24.0332 C   0  0  1  0  0  0
  -20.5893  -28.3644   23.1255 C   0  0  2  0  0  0
  -20.6773  -26.9362   22.5384 C   0  0  0  0  0  0
  -19.5761  -26.6330   21.5165 C   0  0  0  0  0  0
  -18.1930  -26.7877   22.1572 C   0  0  0  0  0  0
  -19.1544  -28.8809   23.2834 C   0  0  0  0  0  0
  -18.9473  -30.1407   23.8857 C   0  0  0  0  0  0
  -17.6478  -30.6563   24.0513 C   0  0  0  0  0  0
  -25.9068  -34.9437   23.5059 C   0  0  0  0  0  0
  -16.5359  -29.9053   23.6318 C   0  0  0  0  0  0
  -16.7273  -28.6476   23.0314 C   0  0  0  0  0  0
  -26.4507  -31.6593   25.0723 C   0  0  0  0  0  0
  -25.3743  -31.3748   26.1451 C   0  0  0  0  0  0
  -27.0351  -30.3026   24.6170 C   0  0  0  0  0  0
  -27.6053  -32.4344   25.7489 C   0  0  0  0  0  0
  -27.5573  -37.1787   24.8471 C   0  0  0  0  0  0
  -21.4209  -29.3024   22.3691 N   0  0  0  0  0  0
  -26.4281  -37.3761   23.9417 N   0  0  0  0  0  0
  -24.6940  -31.0537   22.0923 N   0  0  0  0  0  0
  -23.4242  -28.8086   23.2940 O   0  0  0  0  0  0
  -28.3353  -26.3822   20.2055 O   0  0  0  0  0  0
  -26.5610  -34.8911   22.4618 O   0  0  0  0  0  0
  -23.5437  -32.1376   23.7259 O   0  0  0  0  0  0
  -29.3919  -18.3992   20.3114 C   0  0  0  0  0  0
  -31.1944  -19.0626   22.2864 C   0  0  0  0  0  0
  -29.5456  -19.8159   20.6273 C   0  0  0  0  0  0
  -31.0426  -17.6978   21.9479 C   0  0  0  0  0  0
  -30.1221  -17.3068   20.9362 C   0  0  0  0  0  0
  -30.4640  -20.0981   21.6664 C   0  0  0  0  0  0
  -28.7443  -20.8897   19.8518 C   0  0  0  0  0  0
  -28.4318  -22.2520   19.7783 C   0  0  0  0  0  0
  -31.8635  -16.6967   22.7458 C   0  0  0  0  0  0
  -28.6951  -23.6369   20.5117 C   0  0  0  0  0  0
  -28.3688  -24.9789   19.6492 C   0  0  0  0  0  0
  -29.8243  -15.8730   20.6664 N   0  0  0  0  0  0
  -30.7371  -21.6984   22.2450 Cl  0  0  0  0  0  0
  -31.4777  -12.6023   19.1539 H   0  0  0  0  0  0
  -30.3953  -11.4888   19.9516 H   0  0  0  0  0  0
  -29.7938  -11.7273   17.5206 H   0  0  0  0  0  0
  -29.6252  -13.4525   17.7068 H   0  0  0  0  0  0
  -27.9122  -11.2707   18.9322 H   0  0  0  0  0  0
  -27.3747  -12.4887   17.8082 H   0  0  0  0  0  0
  -27.6342  -14.2447   19.4578 H   0  0  0  0  0  0
  -28.7362  -12.1697   21.4204 H   0  0  0  0  0  0
  -28.4272  -13.8484   21.7898 H   0  0  0  0  0  0
  -25.2761   -9.5685   22.4778 H   0  0  0  0  0  0
  -24.0011   -7.4630   22.7486 H   0  0  0  0  0  0
  -21.0848   -8.8787   19.8944 H   0  0  0  0  0  0
  -22.3715  -10.9689   19.6184 H   0  0  0  0  0  0
  -21.2003   -7.6159   23.9723 H   0  0  0  0  0  0
  -21.1481   -6.0520   25.9073 H   0  0  0  0  0  0
  -22.0599   -2.7619   23.2817 H   0  0  0  0  0  0
  -22.4061  -11.9881   22.4782 H   0  0  0  0  0  0
  -21.1096  -13.1276   22.2613 H   0  0  0  0  0  0
  -24.6483  -15.8372   20.5100 H   0  0  0  0  0  0
  -26.2566  -15.6276   20.0410 H   0  0  0  0  0  0
  -26.7184  -32.5358   23.1061 H   0  0  0  0  0  0
  -25.0201  -33.9711   25.0445 H   0  0  0  0  0  0
  -22.7207  -31.3009   21.3919 H   0  0  0  0  0  0
  -23.3767  -35.9604   23.3303 H   0  0  0  0  0  0
  -24.3605  -36.8875   22.2061 H   0  0  0  0  0  0
  -23.7262  -37.6467   23.6669 H   0  0  0  0  0  0
  -26.1137  -31.5318   20.6048 H   0  0  0  0  0  0
  -26.8478  -30.8170   22.0085 H   0  0  0  0  0  0
  -28.1132  -28.9168   21.2084 H   0  0  0  0  0  0
  -25.8868  -25.9055   19.0169 H   0  0  0  0  0  0
  -23.9616  -27.3041   19.0219 H   0  0  0  0  0  0
  -23.7801  -30.5964   19.4042 H   0  0  0  0  0  0
  -22.7636  -29.2568   19.8371 H   0  0  0  0  0  0
  -25.1307  -36.1899   25.0827 H   0  0  0  0  0  0
  -20.9956  -28.3187   24.1381 H   0  0  0  0  0  0
  -20.5598  -26.2252   23.3584 H   0  0  0  0  0  0
  -21.6651  -26.7330   22.1214 H   0  0  0  0  0  0
  -19.6929  -25.6232   21.1202 H   0  0  0  0  0  0
  -19.6707  -27.3136   20.6703 H   0  0  0  0  0  0
  -17.4190  -26.6566   21.3998 H   0  0  0  0  0  0
  -18.0361  -26.0017   22.8983 H   0  0  0  0  0  0
  -19.7970  -30.7188   24.2223 H   0  0  0  0  0  0
  -17.5059  -31.6239   24.5105 H   0  0  0  0  0  0
  -15.5367  -30.2929   23.7697 H   0  0  0  0  0  0
  -15.8662  -28.0803   22.7036 H   0  0  0  0  0  0
  -24.5948  -30.7048   25.7827 H   0  0  0  0  0  0
  -24.8895  -32.2905   26.4839 H   0  0  0  0  0  0
  -25.8086  -30.8988   27.0255 H   0  0  0  0  0  0
  -26.2928  -29.6761   24.1201 H   0  0  0  0  0  0
  -27.4101  -29.7308   25.4668 H   0  0  0  0  0  0
  -27.8775  -30.4331   23.9371 H   0  0  0  0  0  0
  -27.2689  -33.3694   26.1988 H   0  0  0  0  0  0
  -28.3908  -32.6809   25.0342 H   0  0  0  0  0  0
  -28.0658  -31.8503   26.5461 H   0  0  0  0  0  0
  -28.2574  -38.0098   24.7497 H   0  0  0  0  0  0
  -28.1073  -36.2611   24.6311 H   0  0  0  0  0  0
  -27.2283  -37.1461   25.8875 H   0  0  0  0  0  0
  -20.9394  -29.8851   21.6987 H   0  0  0  0  0  0
  -26.0143  -38.2827   24.1435 H   0  0  0  0  0  0
  -28.6690  -18.1409   19.5506 H   0  0  0  0  0  0
  -31.8880  -19.3347   23.0700 H   0  0  0  0  0  0
  -28.2334  -20.3833   19.0428 H   0  0  0  0  0  0
  -27.7627  -22.4425   18.9515 H   0  0  0  0  0  0
  -32.1310  -17.1071   23.7200 H   0  0  0  0  0  0
  -32.7903  -16.4652   22.2174 H   0  0  0  0  0  0
  -31.3118  -15.7776   22.9384 H   0  0  0  0  0  0
  -29.7202  -23.6879   20.8684 H   0  0  0  0  0  0
  -28.0520  -23.6422   21.3926 H   0  0  0  0  0  0
  -27.4938  -24.7514   19.0539 H   0  0  0  0  0  0
  -29.1588  -25.0317   18.8996 H   0  0  0  0  0  0
  -28.8398  -15.6612   20.6397 H   0  0  0  0  0  0
  1 25  1  0  0  0
  1 30  2  0  0  0
  1 82  1  0  0  0
  2  3  1  0  0  0
  2 25  1  0  0  0
  2 84  1  0  0  0
  2 85  1  0  0  0
  3  4  1  0  0  0
  3 86  1  0  0  0
  3 87  1  0  0  0
  4  5  1  0  0  0
  4 88  1  0  0  0
  4 89  1  0  0  0
  5  6  1  0  0  0
  5 26  1  0  0  0
  5 90  1  0  0  0
  6 25  1  0  0  0
  6 91  1  0  0  0
  6 92  1  0  0  0
  7  8  2  0  0  0
  7 26  1  0  0  0
  7 29  1  0  0  0
  8  9  1  0  0  0
  8 22  1  0  0  0
  9 10  1  0  0  0
  9 27  2  0  0  0
 10 11  2  0  0  0
 10 15  1  0  0  0
 11 12  1  0  0  0
 11 93  1  0  0  0
 12 13  2  0  0  0
 12 94  1  0  0  0
 13 14  1  0  0  0
 13 31  1  0  0  0
 14 15  2  0  0  0
 14 95  1  0  0  0
 15 96  1  0  0  0
 16 17  2  0  0  0
 16 21  1  0  0  0
 16 31  1  0  0  0
 17 18  1  0  0  0
 17 97  1  0  0  0
 18 19  2  0  0  0
 18 98  1  0  0  0
 19 20  1  0  0  0
 19 24  1  0  0  0
 20 21  2  0  0  0
 20 99  1  0  0  0
 21 23  1  0  0  0
 22 28  1  0  0  0
 22 32  2  0  0  0
 26 27  1  0  0  0
 28100  1  0  0  0
 28101  1  0  0  0
 29102  1  0  0  0
 29103  1  0  0  0
 33 34  1  0  0  0
 33 66  1  0  0  0
 33 70  2  0  0  0
 34 36  1  0  0  0
 34 59  1  0  0  0
 34104  1  0  0  0
 35 44  2  0  0  0
 35 45  1  0  0  0
 35 68  1  0  0  0
 36 56  1  0  0  0
 36105  1  0  0  0
 37 39  1  0  0  0
 37 47  1  0  0  0
 37 66  1  0  0  0
 37106  1  0  0  0
 38 43  2  0  0  0
 38 46  1  0  0  0
 38 47  1  0  0  0
 39 64  1  0  0  0
 39 67  2  0  0  0
 40 52  1  0  0  0
 40 53  2  0  0  0
 40 58  1  0  0  0
 41107  1  0  0  0
 41108  1  0  0  0
 41109  1  0  0  0
 41 48  1  0  0  0
 42 43  1  0  0  0
 42 66  1  0  0  0
 42110  1  0  0  0
 42111  1  0  0  0
 43 44  1  0  0  0
 44112  1  0  0  0
 45 46  2  0  0  0
 45113  1  0  0  0
 46114  1  0  0  0
 47115  1  0  0  0
 47116  1  0  0  0
 48 56  1  0  0  0
 48 65  1  0  0  0
 48117  1  0  0  0
 49 50  1  0  0  0
 49 53  1  0  0  0
 49 64  1  0  0  0
 49118  1  0  0  0
 50 51  1  0  0  0
 50119  1  0  0  0
 50120  1  0  0  0
 51 52  1  0  0  0
 51121  1  0  0  0
 51122  1  0  0  0
 52123  1  0  0  0
 52124  1  0  0  0
 53 54  1  0  0  0
 54 55  2  0  0  0
 54125  1  0  0  0
 55 57  1  0  0  0
 55126  1  0  0  0
 56 69  2  0  0  0
 57 58  2  0  0  0
 57127  1  0  0  0
 58128  1  0  0  0
 59 60  1  0  0  0
 59 61  1  0  0  0
 59 62  1  0  0  0
 60129  1  0  0  0
 60130  1  0  0  0
 60131  1  0  0  0
 61132  1  0  0  0
 61133  1  0  0  0
 61134  1  0  0  0
 62135  1  0  0  0
 62136  1  0  0  0
 62137  1  0  0  0
 63 65  1  0  0  0
 63138  1  0  0  0
 63139  1  0  0  0
 63140  1  0  0  0
 64141  1  0  0  0
 65142  1  0  0  0
 68 81  1  0  0  0
 71 73  2  0  0  0
 71 75  1  0  0  0
 71143  1  0  0  0
 72 74  1  0  0  0
 72 76  2  0  0  0
 72144  1  0  0  0
 73 76  1  0  0  0
 73 77  1  0  0  0
 74 75  2  0  0  0
 74 79  1  0  0  0
 75 82  1  0  0  0
 76 83  1  0  0  0
 77 78  2  0  0  0
 77145  1  0  0  0
 78 80  1  0  0  0
 78146  1  0  0  0
 79147  1  0  0  0
 79148  1  0  0  0
 79149  1  0  0  0
 80 81  1  0  0  0
 80150  1  0  0  0
 80151  1  0  0  0
 81152  1  0  0  0
 81153  1  0  0  0
 82154  1  0  0  0
M  ISO  4   1 100  68 101  81 101  82 100
M  END
> <chiral flag>
0

> <version>
0

> <s_m_source_file>
/data/baiqing/PycharmProjects/Reinvent-master-3.2/result/LINK_invent/BTK/process_docking_weight1_custom_product_contain_oxygen_bond_distance_aromatic_linkinvent_7_9_3/rearranged_h_0120.sdf

> <i_m_source_file_index>
32

> <r_mmod_Potential_Energy-OPLS-2005>
272.072509765625

> <r_mmod_Stretch_Energy-OPLS-2005>
128.460647583008

> <r_mmod_Bend_Energy-OPLS-2005>
241.573013305664

> <r_mmod_Torsional_Energy-OPLS-2005>
227.186828613281

> <r_mmod_Improper_Torsional_Energy-OPLS-2005>
6.28728485107422

> <r_mmod_Van_der_Waal_Energy-OPLS-2005>
146.393737792969

> <r_mmod_Electrostatic_Energy-OPLS-2005>
-356.473510742188

> <r_mmod_Solvation_Energy-OPLS-2005>
-207.894744873047

> <b_mmod_Minimization_Converged-OPLS-2005>
0

> <r_mmod_RMS_Derivative-OPLS-2005>
3.35507321357727

$$$$
32
                    3D
 Structure written by MMmdl.
155163  0  0  1  0            999 V2000
  -29.7791  -15.3115   20.6937 C   0  0  0  0  0  0
  -30.3667  -12.9400   19.6148 C   0  0  0  0  0  0
  -29.5320  -12.6571   18.3310 C   0  0  0  0  0  0
  -28.0631  -12.3114   18.6711 C   0  0  0  0  0  0
  -27.5444  -13.2021   19.8276 C   0  0  2  0  0  0
  -28.4892  -13.2025   21.0205 C   0  0  0  0  0  0
  -25.2136  -13.8096   20.5815 C   0  0  0  0  0  0
  -24.1470  -13.0339   20.9226 C   0  0  0  0  0  0
  -24.6031  -11.6789   20.8678 C   0  0  0  0  0  0
  -23.8809  -10.4192   21.0411 C   0  0  0  0  0  0
  -24.3463   -9.4144   21.9172 C   0  0  0  0  0  0
  -23.6203   -8.2150   22.0753 C   0  0  0  0  0  0
  -22.4179   -8.0157   21.3543 C   0  0  0  0  0  0
  -21.9750   -9.0101   20.4654 C   0  0  0  0  0  0
  -22.7007  -10.2005   20.3066 C   0  0  0  0  0  0
  -21.6799   -6.0648   22.5275 C   0  0  0  0  0  0
  -21.3966   -6.5578   23.8198 C   0  0  0  0  0  0
  -21.3652   -5.6753   24.9178 C   0  0  0  0  0  0
  -21.6061   -4.3014   24.7244 C   0  0  0  0  0  0
  -21.8835   -3.8088   23.4367 C   0  0  0  0  0  0
  -21.9184   -4.6891   22.3414 C   0  0  0  0  0  0
  -22.7567  -13.5183   21.1920 C   0  0  0  0  0  0
  -22.1647   -4.2085   21.0990 F   0  0  0  0  0  0
  -21.5652   -3.4507   25.7767 F   0  0  0  0  0  0
  -29.6089  -13.9176   20.4980 N   0  0  0  0  0  0
  -26.2233  -12.9112   20.2902 N   0  0  0  0  0  0
  -25.8845  -11.6287   20.5433 N   0  0  0  0  0  0
  -22.0244  -12.8207   22.0492 N   0  0  0  0  0  0
  -25.3993  -15.1901   20.4735 N   0  0  0  0  0  0
  -30.9902  -15.5784   20.4668 O   0  0  0  0  0  0
  -21.6568   -6.8749   21.4220 O   0  0  0  0  0  0
  -22.3304  -14.5511   20.6763 O   0  0  0  0  0  0
  -24.6614  -31.9728   23.2207 C   0  0  0  0  0  0
  -25.9584  -32.5199   23.8618 C   0  0  1  0  0  0
  -25.3858  -27.2262   20.7604 C   0  0  0  0  0  0
  -25.6500  -33.8930   24.2644 N   0  0  0  0  0  0
  -23.4544  -30.6266   21.5824 C   0  0  2  0  0  0
  -24.8615  -29.4071   19.7252 C   0  0  0  0  0  0
  -23.1112  -29.5686   22.6681 C   0  0  0  0  0  0
  -18.8668  -27.7372   22.3272 C   0  0  0  0  0  0
  -24.1527  -36.7395   23.2588 C   0  0  0  0  0  0
  -25.9682  -30.8673   21.4118 C   0  0  0  0  0  0
  -25.8405  -29.5508   20.6963 C   0  0  0  0  0  0
  -26.2349  -28.3180   21.2153 C   0  0  0  0  0  0
  -25.6740  -27.1374   19.4011 C   0  0  0  0  0  0
  -24.9503  -28.2435   18.8879 C   0  0  0  0  0  0
  -23.5890  -30.1591   20.0593 C   0  0  0  0  0  0
  -25.4141  -36.3270   24.0341 C   0  0  1  0  0  0
  -21.4941  -28.0120   23.5087 C   0  0  2  0  0  0
  -22.6997  -26.4388   22.8499 C   0  0  0  0  0  0
  -21.0864  -25.4960   20.8886 C   0  0  0  0  0  0
  -19.3588  -26.5273   21.1337 C   0  0  0  0  0  0
  -19.8243  -28.4006   23.2467 C   0  0  0  0  0  0
  -19.3109  -29.6013   23.9364 C   0  0  0  0  0  0
  -17.9810  -30.1129   23.9286 C   0  0  0  0  0  0
  -25.9183  -34.9689   23.5171 C   0  0  0  0  0  0
  -17.0196  -29.3659   23.2456 C   0  0  0  0  0  0
  -17.4646  -28.2253   22.4823 C   0  0  0  0  0  0
  -26.4644  -31.6718   25.0912 C   0  0  0  0  0  0
  -25.3728  -31.3799   26.1467 C   0  0  0  0  0  0
  -27.0456  -30.3146   24.6327 C   0  0  0  0  0  0
  -27.6212  -32.4279   25.7835 C   0  0  0  0  0  0
  -27.5626  -37.1892   24.8438 C   0  0  0  0  0  0
  -21.8756  -29.3516   23.0234 N   0  0  0  0  0  0
  -26.4287  -37.3968   23.9475 N   0  0  0  0  0  0
  -24.7084  -31.2427   22.0767 N   0  0  0  0  0  0
  -23.9634  -28.9343   23.2689 O   0  0  0  0  0  0
  -23.8318  -27.0924   20.6723 O   0  0  0  0  0  0
  -26.5503  -34.9071   22.4585 O   0  0  0  0  0  0
  -23.5843  -32.2415   23.7761 O   0  0  0  0  0  0
  -26.5768  -18.5535   21.2648 C   0  0  0  0  0  0
  -26.1315  -19.2782   23.5002 C   0  0  0  0  0  0
  -27.8739  -17.4880   22.9822 C   0  0  0  0  0  0
  -25.7160  -19.5399   22.1741 C   0  0  0  0  0  0
  -27.6958  -17.4635   21.5805 C   0  0  0  0  0  0
  -27.1361  -18.3294   23.8745 C   0  0  0  0  0  0
  -22.3639  -23.0201   22.5706 C   0  0  0  0  0  0
  -23.3836  -21.9289   22.8660 C   0  0  0  0  0  0
  -21.2713  -24.2268   23.1951 C   0  0  0  0  0  0
  -20.6548  -25.7040   23.0333 C   0  0  0  0  0  0
  -24.4547  -20.8163   21.9685 C   0  0  0  0  0  0
  -21.9027  -27.5027   21.1544 C   0  0  0  0  0  0
  -24.2708  -21.0250   20.7382 N   0  0  0  0  0  0
  -28.5998  -16.3215   20.7130 N   0  0  0  0  0  0
  -27.4177  -18.2154   25.1941 F   0  0  0  0  0  0
  -31.3478  -13.3337   19.3465 H   0  0  0  0  0  0
  -30.5699  -12.0098   20.1487 H   0  0  0  0  0  0
  -29.9949  -11.8660   17.7404 H   0  0  0  0  0  0
  -29.5512  -13.5538   17.7107 H   0  0  0  0  0  0
  -28.0192  -11.2637   18.9697 H   0  0  0  0  0  0
  -27.4303  -12.4182   17.7879 H   0  0  0  0  0  0
  -27.4830  -14.2010   19.3998 H   0  0  0  0  0  0
  -28.7357  -12.1934   21.3600 H   0  0  0  0  0  0
  -28.0690  -13.7329   21.8744 H   0  0  0  0  0  0
  -25.2595   -9.5670   22.4741 H   0  0  0  0  0  0
  -23.9936   -7.4549   22.7475 H   0  0  0  0  0  0
  -21.0666   -8.8548   19.8995 H   0  0  0  0  0  0
  -22.3379  -10.9532   19.6213 H   0  0  0  0  0  0
  -21.1901   -7.6078   23.9665 H   0  0  0  0  0  0
  -21.1477   -6.0494   25.9078 H   0  0  0  0  0  0
  -22.0634   -2.7549   23.2884 H   0  0  0  0  0  0
  -22.3801  -11.9853   22.4871 H   0  0  0  0  0  0
  -21.0936  -13.1327   22.2820 H   0  0  0  0  0  0
  -24.6509  -15.8503   20.6599 H   0  0  0  0  0  0
  -26.2857  -15.6440   20.2978 H   0  0  0  0  0  0
  -26.7710  -32.5699   23.1395 H   0  0  0  0  0  0
  -25.0830  -34.0090   25.0917 H   0  0  0  0  0  0
  -22.6583  -31.3710   21.6006 H   0  0  0  0  0  0
  -23.3845  -35.9652   23.3160 H   0  0  0  0  0  0
  -24.3664  -36.9094   22.2018 H   0  0  0  0  0  0
  -23.7172  -37.6544   23.6622 H   0  0  0  0  0  0
  -26.2291  -31.6428   20.6904 H   0  0  0  0  0  0
  -26.8196  -30.7636   22.0750 H   0  0  0  0  0  0
  -26.7956  -28.2468   22.1351 H   0  0  0  0  0  0
  -25.4804  -26.2182   18.8671 H   0  0  0  0  0  0
  -24.2983  -28.1061   18.0357 H   0  0  0  0  0  0
  -23.6002  -31.0589   19.4424 H   0  0  0  0  0  0
  -22.7198  -29.6071   19.7100 H   0  0  0  0  0  0
  -25.1259  -36.2133   25.0814 H   0  0  0  0  0  0
  -21.6286  -28.0379   24.5899 H   0  0  0  0  0  0
  -22.8985  -25.8518   23.7542 H   0  0  0  0  0  0
  -23.7601  -26.6106   22.7243 H   0  0  0  0  0  0
  -20.8110  -24.4370   20.8587 H   0  0  0  0  0  0
  -21.5016  -25.5259   19.8757 H   0  0  0  0  0  0
  -19.1737  -27.0176   20.1773 H   0  0  0  0  0  0
  -18.5681  -25.7770   21.1667 H   0  0  0  0  0  0
  -20.0026  -30.1444   24.5652 H   0  0  0  0  0  0
  -17.7135  -30.9961   24.4931 H   0  0  0  0  0  0
  -15.9803  -29.6665   23.2432 H   0  0  0  0  0  0
  -16.7127  -27.7296   21.8839 H   0  0  0  0  0  0
  -24.5929  -30.7230   25.7598 H   0  0  0  0  0  0
  -24.8911  -32.2949   26.4918 H   0  0  0  0  0  0
  -25.7891  -30.8852   27.0250 H   0  0  0  0  0  0
  -26.3062  -29.7017   24.1198 H   0  0  0  0  0  0
  -27.3974  -29.7283   25.4830 H   0  0  0  0  0  0
  -27.9027  -30.4442   23.9710 H   0  0  0  0  0  0
  -27.2879  -33.3556   26.2501 H   0  0  0  0  0  0
  -28.4079  -32.6858   25.0729 H   0  0  0  0  0  0
  -28.0797  -31.8281   26.5711 H   0  0  0  0  0  0
  -28.2517  -38.0321   24.7716 H   0  0  0  0  0  0
  -28.1268  -36.2883   24.5968 H   0  0  0  0  0  0
  -27.2396  -37.1174   25.8840 H   0  0  0  0  0  0
  -21.1353  -29.9434   22.6704 H   0  0  0  0  0  0
  -26.0173  -38.3003   24.1630 H   0  0  0  0  0  0
  -26.3459  -18.6614   20.2155 H   0  0  0  0  0  0
  -25.6709  -19.8536   24.2892 H   0  0  0  0  0  0
  -28.6073  -16.8277   23.4189 H   0  0  0  0  0  0
  -22.3218  -22.9883   21.4817 H   0  0  0  0  0  0
  -23.5466  -21.7782   23.9225 H   0  0  0  0  0  0
  -22.0699  -24.4377   22.5544 H   0  0  0  0  0  0
  -19.8156  -25.9525   23.6630 H   0  0  0  0  0  0
  -21.4711  -28.4897   21.0258 H   0  0  0  0  0  0
  -21.5325  -27.5230   20.1207 H   0  0  0  0  0  0
  -24.8910  -20.4447   20.1839 H   0  0  0  0  0  0
  -28.3226  -16.3858   19.7426 H   0  0  0  0  0  0
  1 25  1  0  0  0
  1 30  2  0  0  0
  1 84  1  0  0  0
  2  3  1  0  0  0
  2 25  1  0  0  0
  2 86  1  0  0  0
  2 87  1  0  0  0
  3  4  1  0  0  0
  3 88  1  0  0  0
  3 89  1  0  0  0
  4  5  1  0  0  0
  4 90  1  0  0  0
  4 91  1  0  0  0
  5  6  1  0  0  0
  5 26  1  0  0  0
  5 92  1  0  0  0
  6 25  1  0  0  0
  6 93  1  0  0  0
  6 94  1  0  0  0
  7  8  2  0  0  0
  7 26  1  0  0  0
  7 29  1  0  0  0
  8  9  1  0  0  0
  8 22  1  0  0  0
  9 10  1  0  0  0
  9 27  2  0  0  0
 10 11  2  0  0  0
 10 15  1  0  0  0
 11 12  1  0  0  0
 11 95  1  0  0  0
 12 13  2  0  0  0
 12 96  1  0  0  0
 13 14  1  0  0  0
 13 31  1  0  0  0
 14 15  2  0  0  0
 14 97  1  0  0  0
 15 98  1  0  0  0
 16 17  2  0  0  0
 16 21  1  0  0  0
 16 31  1  0  0  0
 17 18  1  0  0  0
 17 99  1  0  0  0
 18 19  2  0  0  0
 18100  1  0  0  0
 19 20  1  0  0  0
 19 24  1  0  0  0
 20 21  2  0  0  0
 20101  1  0  0  0
 21 23  1  0  0  0
 22 28  1  0  0  0
 22 32  2  0  0  0
 26 27  1  0  0  0
 28102  1  0  0  0
 28103  1  0  0  0
 29104  1  0  0  0
 29105  1  0  0  0
 33 34  1  0  0  0
 33 66  1  0  0  0
 33 70  2  0  0  0
 34 36  1  0  0  0
 34 59  1  0  0  0
 34106  1  0  0  0
 35 44  2  0  0  0
 35 45  1  0  0  0
 35 68  1  0  0  0
 36 56  1  0  0  0
 36107  1  0  0  0
 37 39  1  0  0  0
 37 47  1  0  0  0
 37 66  1  0  0  0
 37108  1  0  0  0
 38 43  2  0  0  0
 38 46  1  0  0  0
 38 47  1  0  0  0
 39 64  1  0  0  0
 39 67  2  0  0  0
 40 52  1  0  0  0
 40 53  2  0  0  0
 40 58  1  0  0  0
 41109  1  0  0  0
 41110  1  0  0  0
 41111  1  0  0  0
 41 48  1  0  0  0
 42 43  1  0  0  0
 42 66  1  0  0  0
 42112  1  0  0  0
 42113  1  0  0  0
 43 44  1  0  0  0
 44114  1  0  0  0
 45 46  2  0  0  0
 45115  1  0  0  0
 46116  1  0  0  0
 47117  1  0  0  0
 47118  1  0  0  0
 48 56  1  0  0  0
 48 65  1  0  0  0
 48119  1  0  0  0
 49 50  1  0  0  0
 49 53  1  0  0  0
 49 64  1  0  0  0
 49120  1  0  0  0
 50 51  1  0  0  0
 50121  1  0  0  0
 50122  1  0  0  0
 51 52  1  0  0  0
 51123  1  0  0  0
 51124  1  0  0  0
 52125  1  0  0  0
 52126  1  0  0  0
 53 54  1  0  0  0
 54 55  2  0  0  0
 54127  1  0  0  0
 55 57  1  0  0  0
 55128  1  0  0  0
 56 69  2  0  0  0
 57 58  2  0  0  0
 57129  1  0  0  0
 58130  1  0  0  0
 59 60  1  0  0  0
 59 61  1  0  0  0
 59 62  1  0  0  0
 60131  1  0  0  0
 60132  1  0  0  0
 60133  1  0  0  0
 61134  1  0  0  0
 61135  1  0  0  0
 61136  1  0  0  0
 62137  1  0  0  0
 62138  1  0  0  0
 62139  1  0  0  0
 63 65  1  0  0  0
 63140  1  0  0  0
 63141  1  0  0  0
 63142  1  0  0  0
 64143  1  0  0  0
 65144  1  0  0  0
 68 82  1  0  0  0
 71 74  2  0  0  0
 71 75  1  0  0  0
 71145  1  0  0  0
 72 74  1  0  0  0
 72 76  2  0  0  0
 72146  1  0  0  0
 73 75  2  0  0  0
 73 76  1  0  0  0
 73147  1  0  0  0
 74 81  1  0  0  0
 75 84  1  0  0  0
 76 85  1  0  0  0
 77 78  2  0  0  0
 77 79  1  0  0  0
 77148  1  0  0  0
 78 81  1  0  0  0
 78149  1  0  0  0
 79 80  2  0  0  0
 79150  1  0  0  0
 80 82  1  0  0  0
 80151  1  0  0  0
 81 83  2  0  0  0
 82152  1  0  0  0
 82153  1  0  0  0
 83154  1  0  0  0
 84155  1  0  0  0
M  ISO  4   1 100  68 101  82 101  84 100
M  END
> <chiral flag>
0

> <version>
0

> <s_m_source_file>
/data/baiqing/PycharmProjects/Reinvent-master-3.2/result/LINK_invent/BTK/process_docking_weight1_custom_product_contain_oxygen_bond_distance_aromatic_linkinvent_7_9_3/rearranged_h_0120.sdf

> <i_m_source_file_index>
33

> <r_mmod_Potential_Energy-OPLS-2005>
15319.220703125

> <r_mmod_Stretch_Energy-OPLS-2005>
6600.49755859375

> <r_mmod_Bend_Energy-OPLS-2005>
1397.22607421875

> <r_mmod_Torsional_Energy-OPLS-2005>
629.551330566406

> <r_mmod_Improper_Torsional_Energy-OPLS-2005>
68.7107925415039

> <r_mmod_Van_der_Waal_Energy-OPLS-2005>
2130.87426757812

> <r_mmod_Electrostatic_Energy-OPLS-2005>
-403.7705078125

> <r_mmod_Solvation_Energy-OPLS-2005>
-204.230865478516

> <b_mmod_Minimization_Converged-OPLS-2005>
0

> <r_mmod_RMS_Derivative-OPLS-2005>
7.68989515304565

$$$$
33
                    3D
 Structure written by MMmdl.
158166  0  0  1  0            999 V2000
  -30.7231  -14.5092   20.4308 C   0  0  0  0  0  0
  -30.4127  -12.2905   19.4404 C   0  0  0  0  0  0
  -29.4934  -12.4578   18.2116 C   0  0  0  0  0  0
  -28.0141  -12.2992   18.6191 C   0  0  0  0  0  0
  -27.6378  -13.1902   19.8296 C   0  0  2  0  0  0
  -28.6920  -13.1046   20.9604 C   0  0  0  0  0  0
  -25.2550  -13.8110   20.5619 C   0  0  0  0  0  0
  -24.1789  -13.0403   20.9124 C   0  0  0  0  0  0
  -24.6342  -11.6875   20.8733 C   0  0  0  0  0  0
  -23.9036  -10.4258   21.0405 C   0  0  0  0  0  0
  -24.3615   -9.4216   21.9198 C   0  0  0  0  0  0
  -23.6275   -8.2277   22.0779 C   0  0  0  0  0  0
  -22.4275   -8.0287   21.3559 C   0  0  0  0  0  0
  -21.9904   -9.0262   20.4690 C   0  0  0  0  0  0
  -22.7214  -10.2126   20.3064 C   0  0  0  0  0  0
  -21.6897   -6.0729   22.5286 C   0  0  0  0  0  0
  -21.4042   -6.5645   23.8206 C   0  0  0  0  0  0
  -21.3640   -5.6804   24.9175 C   0  0  0  0  0  0
  -21.6012   -4.3058   24.7259 C   0  0  0  0  0  0
  -21.8822   -3.8149   23.4384 C   0  0  0  0  0  0
  -21.9194   -4.6950   22.3420 C   0  0  0  0  0  0
  -22.7838  -13.5254   21.1755 C   0  0  0  0  0  0
  -22.1653   -4.2129   21.1007 F   0  0  0  0  0  0
  -21.5625   -3.4553   25.7779 F   0  0  0  0  0  0
  -30.0318  -13.3361   20.4001 N   0  0  0  0  0  0
  -26.2912  -12.9207   20.3202 N   0  0  0  0  0  0
  -25.9241  -11.6400   20.5722 N   0  0  0  0  0  0
  -22.0493  -12.8275   22.0357 N   0  0  0  0  0  0
  -25.4331  -15.1815   20.4099 N   0  0  0  0  0  0
  -31.9425  -14.5511   20.2705 O   0  0  0  0  0  0
  -21.6662   -6.8875   21.4247 O   0  0  0  0  0  0
  -22.3522  -14.5538   20.6587 O   0  0  0  0  0  0
  -24.6172  -31.8659   23.2108 C   0  0  0  0  0  0
  -25.9077  -32.4811   23.8392 C   0  0  1  0  0  0
  -27.2291  -27.4207   20.0890 C   0  0  0  0  0  0
  -25.5924  -33.8613   24.2317 N   0  0  0  0  0  0
  -23.4052  -30.4920   21.5524 C   0  0  2  0  0  0
  -24.8484  -28.9665   20.1106 C   0  0  0  0  0  0
  -22.7426  -29.4624   22.4993 C   0  0  0  0  0  0
  -18.0265  -28.1358   22.8507 C   0  0  0  0  0  0
  -24.1489  -36.7322   23.2625 C   0  0  0  0  0  0
  -25.9378  -30.8270   21.3715 C   0  0  0  0  0  0
  -26.0103  -29.4624   20.7146 C   0  0  0  0  0  0
  -27.2005  -28.6954   20.7053 C   0  0  0  0  0  0
  -26.0416  -26.9518   19.4714 C   0  0  0  0  0  0
  -24.8604  -27.7108   19.4860 C   0  0  0  0  0  0
  -23.6113  -29.8325   20.1640 C   0  0  0  0  0  0
  -25.4109  -36.3106   24.0321 C   0  0  1  0  0  0
  -20.5867  -28.3631   23.1344 C   0  0  2  0  0  0
  -20.6767  -26.9379   22.5430 C   0  0  0  0  0  0
  -19.5735  -26.6381   21.5242 C   0  0  0  0  0  0
  -18.1911  -26.7904   22.1638 C   0  0  0  0  0  0
  -19.1509  -28.8814   23.2921 C   0  0  0  0  0  0
  -18.9435  -30.1438   23.8909 C   0  0  0  0  0  0
  -17.6437  -30.6577   24.0557 C   0  0  0  0  0  0
  -25.9034  -34.9471   23.5107 C   0  0  0  0  0  0
  -16.5337  -29.9074   23.6329 C   0  0  0  0  0  0
  -16.7270  -28.6491   23.0371 C   0  0  0  0  0  0
  -26.4484  -31.6583   25.0721 C   0  0  0  0  0  0
  -25.3741  -31.3742   26.1476 C   0  0  0  0  0  0
  -27.0306  -30.3005   24.6137 C   0  0  0  0  0  0
  -27.6042  -32.4305   25.7509 C   0  0  0  0  0  0
  -27.5592  -37.1794   24.8437 C   0  0  0  0  0  0
  -21.4142  -29.3024   22.3765 N   0  0  0  0  0  0
  -26.4294  -37.3796   23.9407 N   0  0  0  0  0  0
  -24.6724  -31.0750   22.1033 N   0  0  0  0  0  0
  -23.4192  -28.8163   23.3047 O   0  0  0  0  0  0
  -28.3891  -26.6630   20.1181 O   0  0  0  0  0  0
  -26.5595  -34.8934   22.4668 O   0  0  0  0  0  0
  -23.5357  -32.1442   23.7478 O   0  0  0  0  0  0
  -30.2660  -19.4736   19.9557 C   0  0  0  0  0  0
  -28.9764  -18.0152   18.5024 C   0  0  0  0  0  0
  -29.8813  -18.1624   19.5776 C   0  0  0  0  0  0
  -29.8421  -20.6067   19.2095 C   0  0  0  0  0  0
  -28.5966  -19.1128   17.7079 C   0  0  0  0  0  0
  -29.0863  -20.4050   18.0154 C   0  0  0  0  0  0
  -30.4765  -16.9509   20.1982 C   0  0  0  0  0  0
  -30.1488  -21.9759   19.7103 C   0  0  0  0  0  0
  -29.9300  -15.7105   20.1674 C   0  0  0  0  0  0
  -29.2206  -22.9598   19.7041 C   0  0  0  0  0  0
  -29.4169  -24.3670   20.1059 C   0  0  0  0  0  0
  -27.6907  -18.8617   16.5068 C   0  0  0  0  0  0
  -28.8329  -21.5442   17.0215 C   0  0  0  0  0  0
  -28.2081  -25.2667   19.8075 C   0  0  0  0  0  0
  -30.4456  -24.8092   20.6279 O   0  0  0  0  0  0
  -31.4546  -12.3565   19.1301 H   0  0  0  0  0  0
  -30.2906  -11.3011   19.8848 H   0  0  0  0  0  0
  -29.7512  -11.7312   17.4425 H   0  0  0  0  0  0
  -29.6453  -13.4372   17.7603 H   0  0  0  0  0  0
  -27.8456  -11.2486   18.8558 H   0  0  0  0  0  0
  -27.3667  -12.5236   17.7710 H   0  0  0  0  0  0
  -27.6029  -14.1905   19.4181 H   0  0  0  0  0  0
  -28.6628  -12.1214   21.4337 H   0  0  0  0  0  0
  -28.4669  -13.8236   21.7466 H   0  0  0  0  0  0
  -25.2774   -9.5708   22.4726 H   0  0  0  0  0  0
  -24.0002   -7.4719   22.7521 H   0  0  0  0  0  0
  -21.0836   -8.8772   19.9035 H   0  0  0  0  0  0
  -22.3683  -10.9646   19.6166 H   0  0  0  0  0  0
  -21.2049   -7.6148   23.9701 H   0  0  0  0  0  0
  -21.1455   -6.0542   25.9056 H   0  0  0  0  0  0
  -22.0607   -2.7613   23.2905 H   0  0  0  0  0  0
  -22.4165  -11.9933   22.4704 H   0  0  0  0  0  0
  -21.1131  -13.1325   22.2593 H   0  0  0  0  0  0
  -24.6796  -15.8468   20.5407 H   0  0  0  0  0  0
  -26.3007  -15.6302   20.1437 H   0  0  0  0  0  0
  -26.7143  -32.5521   23.1141 H   0  0  0  0  0  0
  -25.0089  -33.9772   25.0474 H   0  0  0  0  0  0
  -22.6926  -31.3099   21.4183 H   0  0  0  0  0  0
  -23.3744  -35.9652   23.3239 H   0  0  0  0  0  0
  -24.3604  -36.8998   22.2048 H   0  0  0  0  0  0
  -23.7253  -37.6514   23.6687 H   0  0  0  0  0  0
  -26.0555  -31.5914   20.6007 H   0  0  0  0  0  0
  -26.8246  -30.8739   21.9917 H   0  0  0  0  0  0
  -28.0959  -29.0711   21.1813 H   0  0  0  0  0  0
  -25.9888  -26.0013   18.9626 H   0  0  0  0  0  0
  -23.9687  -27.3278   19.0060 H   0  0  0  0  0  0
  -23.7171  -30.6121   19.4104 H   0  0  0  0  0  0
  -22.7363  -29.2530   19.8691 H   0  0  0  0  0  0
  -25.1275  -36.1937   25.0812 H   0  0  0  0  0  0
  -20.9945  -28.3191   24.1471 H   0  0  0  0  0  0
  -20.5731  -26.2219   23.3593 H   0  0  0  0  0  0
  -21.6623  -26.7465   22.1185 H   0  0  0  0  0  0
  -19.6892  -25.6302   21.1247 H   0  0  0  0  0  0
  -19.6691  -27.3218   20.6796 H   0  0  0  0  0  0
  -17.4193  -26.6697   21.4033 H   0  0  0  0  0  0
  -18.0283  -26.0065   22.9031 H   0  0  0  0  0  0
  -19.7911  -30.7279   24.2279 H   0  0  0  0  0  0
  -17.4986  -31.6270   24.5136 H   0  0  0  0  0  0
  -15.5335  -30.2979   23.7655 H   0  0  0  0  0  0
  -15.8664  -28.0839   22.7072 H   0  0  0  0  0  0
  -24.5849  -30.7172   25.7825 H   0  0  0  0  0  0
  -24.9040  -32.2946   26.4953 H   0  0  0  0  0  0
  -25.8078  -30.8868   27.0212 H   0  0  0  0  0  0
  -26.2874  -29.6781   24.1153 H   0  0  0  0  0  0
  -27.4000  -29.7241   25.4625 H   0  0  0  0  0  0
  -27.8744  -30.4292   23.9349 H   0  0  0  0  0  0
  -27.2627  -33.3570   26.2143 H   0  0  0  0  0  0
  -28.3840  -32.6926   25.0341 H   0  0  0  0  0  0
  -28.0720  -31.8399   26.5389 H   0  0  0  0  0  0
  -28.2521  -38.0175   24.7571 H   0  0  0  0  0  0
  -28.1175  -36.2705   24.6126 H   0  0  0  0  0  0
  -27.2326  -37.1275   25.8842 H   0  0  0  0  0  0
  -20.9271  -29.8751   21.7006 H   0  0  0  0  0  0
  -26.0149  -38.2848   24.1487 H   0  0  0  0  0  0
  -30.9086  -19.6105   20.8163 H   0  0  0  0  0  0
  -28.6283  -17.0360   18.2071 H   0  0  0  0  0  0
  -31.4751  -17.0780   20.5986 H   0  0  0  0  0  0
  -31.1539  -22.1700   20.0623 H   0  0  0  0  0  0
  -28.9180  -15.6277   19.8335 H   0  0  0  0  0  0
  -28.2236  -22.7143   19.3667 H   0  0  0  0  0  0
  -27.2084  -17.8859   16.5779 H   0  0  0  0  0  0
  -28.2660  -18.8813   15.5814 H   0  0  0  0  0  0
  -26.8997  -19.6112   16.4326 H   0  0  0  0  0  0
  -29.6424  -22.2744   17.0442 H   0  0  0  0  0  0
  -27.8843  -22.0418   17.2222 H   0  0  0  0  0  0
  -28.8031  -21.1900   15.9888 H   0  0  0  0  0  0
  -27.3668  -24.8667   20.3792 H   0  0  0  0  0  0
  -27.9741  -25.1553   18.7475 H   0  0  0  0  0  0
  1 25  1  0  0  0
  1 30  2  0  0  0
  1 79  1  0  0  0
  2  3  1  0  0  0
  2 25  1  0  0  0
  2 86  1  0  0  0
  2 87  1  0  0  0
  3  4  1  0  0  0
  3 88  1  0  0  0
  3 89  1  0  0  0
  4  5  1  0  0  0
  4 90  1  0  0  0
  4 91  1  0  0  0
  5  6  1  0  0  0
  5 26  1  0  0  0
  5 92  1  0  0  0
  6 25  1  0  0  0
  6 93  1  0  0  0
  6 94  1  0  0  0
  7  8  2  0  0  0
  7 26  1  0  0  0
  7 29  1  0  0  0
  8  9  1  0  0  0
  8 22  1  0  0  0
  9 10  1  0  0  0
  9 27  2  0  0  0
 10 11  2  0  0  0
 10 15  1  0  0  0
 11 12  1  0  0  0
 11 95  1  0  0  0
 12 13  2  0  0  0
 12 96  1  0  0  0
 13 14  1  0  0  0
 13 31  1  0  0  0
 14 15  2  0  0  0
 14 97  1  0  0  0
 15 98  1  0  0  0
 16 17  2  0  0  0
 16 21  1  0  0  0
 16 31  1  0  0  0
 17 18  1  0  0  0
 17 99  1  0  0  0
 18 19  2  0  0  0
 18100  1  0  0  0
 19 20  1  0  0  0
 19 24  1  0  0  0
 20 21  2  0  0  0
 20101  1  0  0  0
 21 23  1  0  0  0
 22 28  1  0  0  0
 22 32  2  0  0  0
 26 27  1  0  0  0
 28102  1  0  0  0
 28103  1  0  0  0
 29104  1  0  0  0
 29105  1  0  0  0
 33 34  1  0  0  0
 33 66  1  0  0  0
 33 70  2  0  0  0
 34 36  1  0  0  0
 34 59  1  0  0  0
 34106  1  0  0  0
 35 44  2  0  0  0
 35 45  1  0  0  0
 35 68  1  0  0  0
 36 56  1  0  0  0
 36107  1  0  0  0
 37 39  1  0  0  0
 37 47  1  0  0  0
 37 66  1  0  0  0
 37108  1  0  0  0
 38 43  2  0  0  0
 38 46  1  0  0  0
 38 47  1  0  0  0
 39 64  1  0  0  0
 39 67  2  0  0  0
 40 52  1  0  0  0
 40 53  2  0  0  0
 40 58  1  0  0  0
 41109  1  0  0  0
 41110  1  0  0  0
 41111  1  0  0  0
 41 48  1  0  0  0
 42 43  1  0  0  0
 42 66  1  0  0  0
 42112  1  0  0  0
 42113  1  0  0  0
 43 44  1  0  0  0
 44114  1  0  0  0
 45 46  2  0  0  0
 45115  1  0  0  0
 46116  1  0  0  0
 47117  1  0  0  0
 47118  1  0  0  0
 48 56  1  0  0  0
 48 65  1  0  0  0
 48119  1  0  0  0
 49 50  1  0  0  0
 49 53  1  0  0  0
 49 64  1  0  0  0
 49120  1  0  0  0
 50 51  1  0  0  0
 50121  1  0  0  0
 50122  1  0  0  0
 51 52  1  0  0  0
 51123  1  0  0  0
 51124  1  0  0  0
 52125  1  0  0  0
 52126  1  0  0  0
 53 54  1  0  0  0
 54 55  2  0  0  0
 54127  1  0  0  0
 55 57  1  0  0  0
 55128  1  0  0  0
 56 69  2  0  0  0
 57 58  2  0  0  0
 57129  1  0  0  0
 58130  1  0  0  0
 59 60  1  0  0  0
 59 61  1  0  0  0
 59 62  1  0  0  0
 60131  1  0  0  0
 60132  1  0  0  0
 60133  1  0  0  0
 61134  1  0  0  0
 61135  1  0  0  0
 61136  1  0  0  0
 62137  1  0  0  0
 62138  1  0  0  0
 62139  1  0  0  0
 63 65  1  0  0  0
 63140  1  0  0  0
 63141  1  0  0  0
 63142  1  0  0  0
 64143  1  0  0  0
 65144  1  0  0  0
 68 84  1  0  0  0
 71 73  2  0  0  0
 71 74  1  0  0  0
 71145  1  0  0  0
 72 73  1  0  0  0
 72 75  2  0  0  0
 72146  1  0  0  0
 73 77  1  0  0  0
 74 76  2  0  0  0
 74 78  1  0  0  0
 75 76  1  0  0  0
 75 82  1  0  0  0
 76 83  1  0  0  0
 77 79  2  0  0  0
 77147  1  0  0  0
 78 80  2  0  0  0
 78148  1  0  0  0
 79149  1  0  0  0
 80 81  1  0  0  0
 80150  1  0  0  0
 81 84  1  0  0  0
 81 85  2  0  0  0
 82151  1  0  0  0
 82152  1  0  0  0
 82153  1  0  0  0
 83154  1  0  0  0
 83155  1  0  0  0
 83156  1  0  0  0
 84157  1  0  0  0
 84158  1  0  0  0
M  ISO  4   1 100  68 101  79 100  84 101
M  END
> <chiral flag>
0

> <version>
0

> <s_m_source_file>
/data/baiqing/PycharmProjects/Reinvent-master-3.2/result/LINK_invent/BTK/process_docking_weight1_custom_product_contain_oxygen_bond_distance_aromatic_linkinvent_7_9_3/rearranged_h_0120.sdf

> <i_m_source_file_index>
34

> <r_mmod_Potential_Energy-OPLS-2005>
52.6883506774902

> <r_mmod_Stretch_Energy-OPLS-2005>
40.9053001403809

> <r_mmod_Bend_Energy-OPLS-2005>
102.561645507812

> <r_mmod_Torsional_Energy-OPLS-2005>
238.105133056641

> <r_mmod_Improper_Torsional_Energy-OPLS-2005>
17.3861618041992

> <r_mmod_Van_der_Waal_Energy-OPLS-2005>
172.079162597656

> <r_mmod_Electrostatic_Energy-OPLS-2005>
-331.878662109375

> <r_mmod_Solvation_Energy-OPLS-2005>
-219.958297729492

> <b_mmod_Minimization_Converged-OPLS-2005>
0

> <r_mmod_RMS_Derivative-OPLS-2005>
5.84987831115723

$$$$
34
                    3D
 Structure written by MMmdl.
153161  0  0  1  0            999 V2000
  -30.6228  -14.6841   20.5023 C   0  0  0  0  0  0
  -30.4342  -12.4261   19.4686 C   0  0  0  0  0  0
  -29.5095  -12.5302   18.2325 C   0  0  0  0  0  0
  -28.0256  -12.3772   18.6295 C   0  0  0  0  0  0
  -27.6480  -13.2287   19.8723 C   0  0  2  0  0  0
  -28.6911  -13.0565   20.9941 C   0  0  0  0  0  0
  -25.2495  -13.8190   20.5725 C   0  0  0  0  0  0
  -24.1791  -13.0432   20.9208 C   0  0  0  0  0  0
  -24.6392  -11.6905   20.8750 C   0  0  0  0  0  0
  -23.9076  -10.4281   21.0401 C   0  0  0  0  0  0
  -24.3615   -9.4200   21.9180 C   0  0  0  0  0  0
  -23.6288   -8.2247   22.0765 C   0  0  0  0  0  0
  -22.4266   -8.0283   21.3562 C   0  0  0  0  0  0
  -21.9904   -9.0259   20.4664 C   0  0  0  0  0  0
  -22.7243  -10.2126   20.3066 C   0  0  0  0  0  0
  -21.6861   -6.0731   22.5278 C   0  0  0  0  0  0
  -21.4024   -6.5642   23.8216 C   0  0  0  0  0  0
  -21.3670   -5.6795   24.9176 C   0  0  0  0  0  0
  -21.6054   -4.3054   24.7218 C   0  0  0  0  0  0
  -21.8821   -3.8148   23.4340 C   0  0  0  0  0  0
  -21.9197   -4.6962   22.3400 C   0  0  0  0  0  0
  -22.7808  -13.5199   21.1862 C   0  0  0  0  0  0
  -22.1655   -4.2156   21.0978 F   0  0  0  0  0  0
  -21.5628   -3.4529   25.7730 F   0  0  0  0  0  0
  -30.0005  -13.4513   20.4499 N   0  0  0  0  0  0
  -26.2955  -12.9409   20.3379 N   0  0  0  0  0  0
  -25.9324  -11.6538   20.5769 N   0  0  0  0  0  0
  -22.0470  -12.8189   22.0426 N   0  0  0  0  0  0
  -25.4167  -15.1915   20.4090 N   0  0  0  0  0  0
  -31.7761  -14.8077   20.0713 O   0  0  0  0  0  0
  -21.6648   -6.8874   21.4241 O   0  0  0  0  0  0
  -22.3475  -14.5504   20.6707 O   0  0  0  0  0  0
  -24.6268  -31.8581   23.2018 C   0  0  0  0  0  0
  -25.9094  -32.4779   23.8362 C   0  0  1  0  0  0
  -27.2089  -27.2706   20.1156 C   0  0  0  0  0  0
  -25.5908  -33.8583   24.2280 N   0  0  0  0  0  0
  -23.4238  -30.4817   21.5441 C   0  0  2  0  0  0
  -24.8715  -28.9402   20.1079 C   0  0  0  0  0  0
  -22.7490  -29.4600   22.4911 C   0  0  0  0  0  0
  -18.0295  -28.1355   22.8493 C   0  0  0  0  0  0
  -24.1492  -36.7288   23.2643 C   0  0  0  0  0  0
  -25.9713  -30.7720   21.3859 C   0  0  0  0  0  0
  -26.0422  -29.3952   20.7271 C   0  0  0  0  0  0
  -27.2109  -28.5668   20.7326 C   0  0  0  0  0  0
  -26.0197  -26.9015   19.4430 C   0  0  0  0  0  0
  -24.8636  -27.6995   19.4590 C   0  0  0  0  0  0
  -23.6424  -29.8236   20.1572 C   0  0  0  0  0  0
  -25.4117  -36.3078   24.0325 C   0  0  1  0  0  0
  -20.5902  -28.3663   23.1281 C   0  0  2  0  0  0
  -20.6774  -26.9375   22.5424 C   0  0  0  0  0  0
  -19.5754  -26.6355   21.5216 C   0  0  0  0  0  0
  -18.1928  -26.7905   22.1615 C   0  0  0  0  0  0
  -19.1548  -28.8828   23.2881 C   0  0  0  0  0  0
  -18.9467  -30.1432   23.8891 C   0  0  0  0  0  0
  -17.6467  -30.6561   24.0548 C   0  0  0  0  0  0
  -25.9055  -34.9448   23.5108 C   0  0  0  0  0  0
  -16.5361  -29.9054   23.6317 C   0  0  0  0  0  0
  -16.7284  -28.6468   23.0355 C   0  0  0  0  0  0
  -26.4493  -31.6592   25.0733 C   0  0  0  0  0  0
  -25.3732  -31.3742   26.1468 C   0  0  0  0  0  0
  -27.0334  -30.3007   24.6205 C   0  0  0  0  0  0
  -27.6057  -32.4329   25.7494 C   0  0  0  0  0  0
  -27.5589  -37.1790   24.8457 C   0  0  0  0  0  0
  -21.4203  -29.3014   22.3671 N   0  0  0  0  0  0
  -26.4293  -37.3770   23.9421 N   0  0  0  0  0  0
  -24.6928  -31.0548   22.0997 N   0  0  0  0  0  0
  -23.4211  -28.8125   23.2977 O   0  0  0  0  0  0
  -28.2928  -26.3627   20.1904 O   0  0  0  0  0  0
  -26.5625  -34.8910   22.4678 O   0  0  0  0  0  0
  -23.5414  -32.1411   23.7299 O   0  0  0  0  0  0
  -29.5461  -18.6368   20.7563 C   0  0  0  0  0  0
  -30.3553  -17.3368   18.8796 C   0  0  0  0  0  0
  -30.0184  -19.7618   18.6633 C   0  0  0  0  0  0
  -29.9309  -17.3345   20.2277 C   0  0  0  0  0  0
  -29.5735  -19.8767   20.0024 C   0  0  0  0  0  0
  -30.4044  -18.5209   18.1202 C   0  0  0  0  0  0
  -29.7125  -23.9693   21.4860 C   0  0  0  0  0  0
  -29.8355  -15.9883   21.0047 C   0  0  0  0  0  0
  -28.9344  -23.7588   20.4137 C   0  0  0  0  0  0
  -28.0593  -24.9283   19.8084 C   0  0  0  0  0  0
  -28.8865  -22.3287   19.7371 C   0  0  0  0  0  0
  -29.1436  -15.9691   22.0670 N   0  0  0  0  0  0
  -29.2214  -21.1365   20.5677 O   0  0  0  0  0  0
  -30.8332  -18.4617   16.8363 F   0  0  0  0  0  0
  -31.4756  -12.5501   19.1651 H   0  0  0  0  0  0
  -30.3798  -11.4292   19.9071 H   0  0  0  0  0  0
  -29.7783  -11.7732   17.4960 H   0  0  0  0  0  0
  -29.6588  -13.4938   17.7441 H   0  0  0  0  0  0
  -27.8403  -11.3222   18.8328 H   0  0  0  0  0  0
  -27.3831  -12.6398   17.7886 H   0  0  0  0  0  0
  -27.6677  -14.2718   19.5584 H   0  0  0  0  0  0
  -28.7151  -12.0145   21.3164 H   0  0  0  0  0  0
  -28.4160  -13.6072   21.8893 H   0  0  0  0  0  0
  -25.2749   -9.5669   22.4762 H   0  0  0  0  0  0
  -24.0013   -7.4626   22.7460 H   0  0  0  0  0  0
  -21.0855   -8.8764   19.8947 H   0  0  0  0  0  0
  -22.3707  -10.9660   19.6176 H   0  0  0  0  0  0
  -21.2028   -7.6152   23.9723 H   0  0  0  0  0  0
  -21.1496   -6.0518   25.9076 H   0  0  0  0  0  0
  -22.0597   -2.7605   23.2838 H   0  0  0  0  0  0
  -22.4067  -11.9837   22.4802 H   0  0  0  0  0  0
  -21.1109  -13.1257   22.2686 H   0  0  0  0  0  0
  -24.6527  -15.8492   20.5155 H   0  0  0  0  0  0
  -26.2820  -15.6316   20.1243 H   0  0  0  0  0  0
  -26.7163  -32.5442   23.1109 H   0  0  0  0  0  0
  -25.0044  -33.9752   25.0417 H   0  0  0  0  0  0
  -22.7172  -31.3016   21.3995 H   0  0  0  0  0  0
  -23.3763  -35.9608   23.3276 H   0  0  0  0  0  0
  -24.3594  -36.8946   22.2066 H   0  0  0  0  0  0
  -23.7235  -37.6471   23.6697 H   0  0  0  0  0  0
  -26.1100  -31.5361   20.6191 H   0  0  0  0  0  0
  -26.8483  -30.8218   22.0189 H   0  0  0  0  0  0
  -28.0998  -28.8968   21.2513 H   0  0  0  0  0  0
  -25.9403  -25.9725   18.8990 H   0  0  0  0  0  0
  -23.9696  -27.3520   18.9590 H   0  0  0  0  0  0
  -23.7655  -30.6019   19.4031 H   0  0  0  0  0  0
  -22.7622  -29.2549   19.8516 H   0  0  0  0  0  0
  -25.1305  -36.1924   25.0815 H   0  0  0  0  0  0
  -21.0000  -28.3221   24.1396 H   0  0  0  0  0  0
  -20.5638  -26.2262   23.3621 H   0  0  0  0  0  0
  -21.6641  -26.7365   22.1237 H   0  0  0  0  0  0
  -19.6902  -25.6262   21.1242 H   0  0  0  0  0  0
  -19.6696  -27.3168   20.6748 H   0  0  0  0  0  0
  -17.4204  -26.6676   21.4004 H   0  0  0  0  0  0
  -18.0300  -26.0037   22.8996 H   0  0  0  0  0  0
  -19.7942  -30.7259   24.2248 H   0  0  0  0  0  0
  -17.5012  -31.6247   24.5134 H   0  0  0  0  0  0
  -15.5355  -30.2953   23.7634 H   0  0  0  0  0  0
  -15.8685  -28.0782   22.7073 H   0  0  0  0  0  0
  -24.5868  -30.7142   25.7798 H   0  0  0  0  0  0
  -24.8976  -32.2915   26.4939 H   0  0  0  0  0  0
  -25.8050  -30.8873   27.0218 H   0  0  0  0  0  0
  -26.2908  -29.6752   24.1236 H   0  0  0  0  0  0
  -27.4035  -29.7275   25.4716 H   0  0  0  0  0  0
  -27.8783  -30.4294   23.9437 H   0  0  0  0  0  0
  -27.2679  -33.3637   26.2061 H   0  0  0  0  0  0
  -28.3863  -32.6870   25.0313 H   0  0  0  0  0  0
  -28.0723  -31.8455   26.5414 H   0  0  0  0  0  0
  -28.2575  -38.0116   24.7531 H   0  0  0  0  0  0
  -28.1115  -36.2646   24.6241 H   0  0  0  0  0  0
  -27.2317  -37.1387   25.8859 H   0  0  0  0  0  0
  -20.9352  -29.8786   21.6948 H   0  0  0  0  0  0
  -26.0166  -38.2836   24.1439 H   0  0  0  0  0  0
  -29.2105  -18.6925   21.7819 H   0  0  0  0  0  0
  -30.6491  -16.4194   18.3919 H   0  0  0  0  0  0
  -30.0995  -20.6169   18.0140 H   0  0  0  0  0  0
  -29.7624  -24.9396   21.9569 H   0  0  0  0  0  0
  -30.3111  -23.1722   21.9040 H   0  0  0  0  0  0
  -27.0443  -24.6314   20.0734 H   0  0  0  0  0  0
  -28.1363  -24.8652   18.7216 H   0  0  0  0  0  0
  -29.5378  -22.4069   18.8698 H   0  0  0  0  0  0
  -27.8779  -22.1776   19.3461 H   0  0  0  0  0  0
  -28.7298  -16.8754   22.2467 H   0  0  0  0  0  0
  1 25  1  0  0  0
  1 30  2  0  0  0
  1 78  1  0  0  0
  2  3  1  0  0  0
  2 25  1  0  0  0
  2 85  1  0  0  0
  2 86  1  0  0  0
  3  4  1  0  0  0
  3 87  1  0  0  0
  3 88  1  0  0  0
  4  5  1  0  0  0
  4 89  1  0  0  0
  4 90  1  0  0  0
  5  6  1  0  0  0
  5 26  1  0  0  0
  5 91  1  0  0  0
  6 25  1  0  0  0
  6 92  1  0  0  0
  6 93  1  0  0  0
  7  8  2  0  0  0
  7 26  1  0  0  0
  7 29  1  0  0  0
  8  9  1  0  0  0
  8 22  1  0  0  0
  9 10  1  0  0  0
  9 27  2  0  0  0
 10 11  2  0  0  0
 10 15  1  0  0  0
 11 12  1  0  0  0
 11 94  1  0  0  0
 12 13  2  0  0  0
 12 95  1  0  0  0
 13 14  1  0  0  0
 13 31  1  0  0  0
 14 15  2  0  0  0
 14 96  1  0  0  0
 15 97  1  0  0  0
 16 17  2  0  0  0
 16 21  1  0  0  0
 16 31  1  0  0  0
 17 18  1  0  0  0
 17 98  1  0  0  0
 18 19  2  0  0  0
 18 99  1  0  0  0
 19 20  1  0  0  0
 19 24  1  0  0  0
 20 21  2  0  0  0
 20100  1  0  0  0
 21 23  1  0  0  0
 22 28  1  0  0  0
 22 32  2  0  0  0
 26 27  1  0  0  0
 28101  1  0  0  0
 28102  1  0  0  0
 29103  1  0  0  0
 29104  1  0  0  0
 33 34  1  0  0  0
 33 66  1  0  0  0
 33 70  2  0  0  0
 34 36  1  0  0  0
 34 59  1  0  0  0
 34105  1  0  0  0
 35 44  2  0  0  0
 35 45  1  0  0  0
 35 68  1  0  0  0
 36 56  1  0  0  0
 36106  1  0  0  0
 37 39  1  0  0  0
 37 47  1  0  0  0
 37 66  1  0  0  0
 37107  1  0  0  0
 38 43  2  0  0  0
 38 46  1  0  0  0
 38 47  1  0  0  0
 39 64  1  0  0  0
 39 67  2  0  0  0
 40 52  1  0  0  0
 40 53  2  0  0  0
 40 58  1  0  0  0
 41108  1  0  0  0
 41109  1  0  0  0
 41110  1  0  0  0
 41 48  1  0  0  0
 42 43  1  0  0  0
 42 66  1  0  0  0
 42111  1  0  0  0
 42112  1  0  0  0
 43 44  1  0  0  0
 44113  1  0  0  0
 45 46  2  0  0  0
 45114  1  0  0  0
 46115  1  0  0  0
 47116  1  0  0  0
 47117  1  0  0  0
 48 56  1  0  0  0
 48 65  1  0  0  0
 48118  1  0  0  0
 49 50  1  0  0  0
 49 53  1  0  0  0
 49 64  1  0  0  0
 49119  1  0  0  0
 50 51  1  0  0  0
 50120  1  0  0  0
 50121  1  0  0  0
 51 52  1  0  0  0
 51122  1  0  0  0
 51123  1  0  0  0
 52124  1  0  0  0
 52125  1  0  0  0
 53 54  1  0  0  0
 54 55  2  0  0  0
 54126  1  0  0  0
 55 57  1  0  0  0
 55127  1  0  0  0
 56 69  2  0  0  0
 57 58  2  0  0  0
 57128  1  0  0  0
 58129  1  0  0  0
 59 60  1  0  0  0
 59 61  1  0  0  0
 59 62  1  0  0  0
 60130  1  0  0  0
 60131  1  0  0  0
 60132  1  0  0  0
 61133  1  0  0  0
 61134  1  0  0  0
 61135  1  0  0  0
 62136  1  0  0  0
 62137  1  0  0  0
 62138  1  0  0  0
 63 65  1  0  0  0
 63139  1  0  0  0
 63140  1  0  0  0
 63141  1  0  0  0
 64142  1  0  0  0
 65143  1  0  0  0
 68 80  1  0  0  0
 71 74  2  0  0  0
 71 75  1  0  0  0
 71144  1  0  0  0
 72 74  1  0  0  0
 72 76  2  0  0  0
 72145  1  0  0  0
 73 75  2  0  0  0
 73 76  1  0  0  0
 73146  1  0  0  0
 74 78  1  0  0  0
 75 83  1  0  0  0
 76 84  1  0  0  0
 77 79  2  0  0  0
 77147  1  0  0  0
 77148  1  0  0  0
 78 82  2  0  0  0
 79 80  1  0  0  0
 79 81  1  0  0  0
 80149  1  0  0  0
 80150  1  0  0  0
 81 83  1  0  0  0
 81151  1  0  0  0
 81152  1  0  0  0
 82153  1  0  0  0
M  ISO  4   1 100  68 101  78 100  80 101
M  END
> <chiral flag>
0

> <version>
0

> <s_m_source_file>
/data/baiqing/PycharmProjects/Reinvent-master-3.2/result/LINK_invent/BTK/process_docking_weight1_custom_product_contain_oxygen_bond_distance_aromatic_linkinvent_7_9_3/rearranged_h_0120.sdf

> <i_m_source_file_index>
35

> <r_mmod_Potential_Energy-OPLS-2005>
258.427520751953

> <r_mmod_Stretch_Energy-OPLS-2005>
124.26099395752

> <r_mmod_Bend_Energy-OPLS-2005>
160.744125366211

> <r_mmod_Torsional_Energy-OPLS-2005>
194.668197631836

> <r_mmod_Improper_Torsional_Energy-OPLS-2005>
2.91998052597046

> <r_mmod_Van_der_Waal_Energy-OPLS-2005>
156.65705871582

> <r_mmod_Electrostatic_Energy-OPLS-2005>
-250.175201416016

> <r_mmod_Solvation_Energy-OPLS-2005>
-198.733261108398

> <b_mmod_Minimization_Converged-OPLS-2005>
0

> <r_mmod_RMS_Derivative-OPLS-2005>
2.76724815368652

$$$$
35
                    3D
 Structure written by MMmdl.
155163  0  0  1  0            999 V2000
  -30.7631  -14.4297   20.5155 C   0  0  0  0  0  0
  -30.3929  -12.2603   19.4459 C   0  0  0  0  0  0
  -29.4943  -12.4847   18.2145 C   0  0  0  0  0  0
  -28.0109  -12.3701   18.6141 C   0  0  0  0  0  0
  -27.6572  -13.2187   19.8666 C   0  0  2  0  0  0
  -28.6953  -13.0320   20.9956 C   0  0  0  0  0  0
  -25.2560  -13.8192   20.5673 C   0  0  0  0  0  0
  -24.1825  -13.0449   20.9168 C   0  0  0  0  0  0
  -24.6387  -11.6920   20.8718 C   0  0  0  0  0  0
  -23.9054  -10.4300   21.0394 C   0  0  0  0  0  0
  -24.3610   -9.4223   21.9171 C   0  0  0  0  0  0
  -23.6299   -8.2252   22.0748 C   0  0  0  0  0  0
  -22.4280   -8.0278   21.3548 C   0  0  0  0  0  0
  -21.9908   -9.0246   20.4647 C   0  0  0  0  0  0
  -22.7227  -10.2131   20.3049 C   0  0  0  0  0  0
  -21.6859   -6.0732   22.5283 C   0  0  0  0  0  0
  -21.4006   -6.5635   23.8214 C   0  0  0  0  0  0
  -21.3664   -5.6784   24.9174 C   0  0  0  0  0  0
  -21.6053   -4.3048   24.7229 C   0  0  0  0  0  0
  -21.8815   -3.8145   23.4345 C   0  0  0  0  0  0
  -21.9189   -4.6959   22.3399 C   0  0  0  0  0  0
  -22.7846  -13.5240   21.1843 C   0  0  0  0  0  0
  -22.1661   -4.2142   21.0980 F   0  0  0  0  0  0
  -21.5639   -3.4536   25.7740 F   0  0  0  0  0  0
  -30.0320  -13.2844   20.4413 N   0  0  0  0  0  0
  -26.3000  -12.9385   20.3317 N   0  0  0  0  0  0
  -25.9315  -11.6534   20.5726 N   0  0  0  0  0  0
  -22.0482  -12.8240   22.0400 N   0  0  0  0  0  0
  -25.4282  -15.1911   20.4126 N   0  0  0  0  0  0
  -31.9234  -14.4647   20.0981 O   0  0  0  0  0  0
  -21.6647   -6.8874   21.4247 O   0  0  0  0  0  0
  -22.3529  -14.5547   20.6695 O   0  0  0  0  0  0
  -24.6122  -31.8702   23.2125 C   0  0  0  0  0  0
  -25.9030  -32.4830   23.8409 C   0  0  1  0  0  0
  -27.2230  -27.4578   20.0918 C   0  0  0  0  0  0
  -25.5901  -33.8629   24.2345 N   0  0  0  0  0  0
  -23.3966  -30.4973   21.5520 C   0  0  2  0  0  0
  -24.8389  -28.9699   20.1112 C   0  0  0  0  0  0
  -22.7390  -29.4674   22.4981 C   0  0  0  0  0  0
  -18.0270  -28.1386   22.8477 C   0  0  0  0  0  0
  -24.1484  -36.7326   23.2632 C   0  0  0  0  0  0
  -25.9224  -30.8454   21.3588 C   0  0  0  0  0  0
  -25.9975  -29.4819   20.7073 C   0  0  0  0  0  0
  -27.1923  -28.7328   20.6946 C   0  0  0  0  0  0
  -26.0483  -26.9600   19.4795 C   0  0  0  0  0  0
  -24.8581  -27.7084   19.4936 C   0  0  0  0  0  0
  -23.6022  -29.8354   20.1635 C   0  0  0  0  0  0
  -25.4098  -36.3116   24.0340 C   0  0  1  0  0  0
  -20.5856  -28.3666   23.1323 C   0  0  2  0  0  0
  -20.6764  -26.9406   22.5419 C   0  0  0  0  0  0
  -19.5751  -26.6391   21.5207 C   0  0  0  0  0  0
  -18.1924  -26.7932   22.1612 C   0  0  0  0  0  0
  -19.1516  -28.8839   23.2902 C   0  0  0  0  0  0
  -18.9449  -30.1444   23.8914 C   0  0  0  0  0  0
  -17.6452  -30.6590   24.0567 C   0  0  0  0  0  0
  -25.9029  -34.9481   23.5133 C   0  0  0  0  0  0
  -16.5343  -29.9095   23.6321 C   0  0  0  0  0  0
  -16.7258  -28.6519   23.0326 C   0  0  0  0  0  0
  -26.4477  -31.6595   25.0720 C   0  0  0  0  0  0
  -25.3756  -31.3689   26.1477 C   0  0  0  0  0  0
  -27.0299  -30.3046   24.6056 C   0  0  0  0  0  0
  -27.6072  -32.4288   25.7482 C   0  0  0  0  0  0
  -27.5587  -37.1799   24.8451 C   0  0  0  0  0  0
  -21.4121  -29.3038   22.3731 N   0  0  0  0  0  0
  -26.4281  -37.3805   23.9426 N   0  0  0  0  0  0
  -24.6621  -31.0843   22.1004 N   0  0  0  0  0  0
  -23.4183  -28.8201   23.2996 O   0  0  0  0  0  0
  -28.4004  -26.7470   20.1218 O   0  0  0  0  0  0
  -26.5586  -34.8930   22.4690 O   0  0  0  0  0  0
  -23.5326  -32.1434   23.7548 O   0  0  0  0  0  0
  -29.1690  -18.6057   21.4783 C   0  0  0  0  0  0
  -28.8961  -19.9684   21.7277 C   0  0  0  0  0  0
  -30.7821  -20.5981   20.3410 C   0  0  0  0  0  0
  -30.2479  -18.2255   20.6500 C   0  0  0  0  0  0
  -31.0551  -19.2445   20.0742 C   0  0  0  0  0  0
  -29.6936  -20.9821   21.1565 C   0  0  0  0  0  0
  -30.5944  -16.8108   20.4113 C   0  0  0  0  0  0
  -30.0957  -15.6633   20.9346 C   0  0  0  0  0  0
  -29.5759  -23.2061   20.5437 C   0  0  0  0  0  0
  -32.2408  -18.9377   19.1668 C   0  0  0  0  0  0
  -29.4840  -24.6979   20.7711 C   0  0  0  0  0  0
  -28.3097  -25.3265   20.0152 C   0  0  0  0  0  0
  -29.4273  -22.3267   21.4564 N   0  0  0  0  0  0
  -31.4451  -12.2831   19.1589 H   0  0  0  0  0  0
  -30.2281  -11.2639   19.8584 H   0  0  0  0  0  0
  -29.7303  -11.7553   17.4382 H   0  0  0  0  0  0
  -29.6910  -13.4672   17.7825 H   0  0  0  0  0  0
  -27.8050  -11.3164   18.8089 H   0  0  0  0  0  0
  -27.3736  -12.6531   17.7763 H   0  0  0  0  0  0
  -27.6949  -14.2634   19.5566 H   0  0  0  0  0  0
  -28.6527  -12.0139   21.3850 H   0  0  0  0  0  0
  -28.4701  -13.6740   21.8459 H   0  0  0  0  0  0
  -25.2754   -9.5715   22.4737 H   0  0  0  0  0  0
  -24.0023   -7.4645   22.7461 H   0  0  0  0  0  0
  -21.0839   -8.8758   19.8956 H   0  0  0  0  0  0
  -22.3680  -10.9659   19.6155 H   0  0  0  0  0  0
  -21.1991   -7.6139   23.9712 H   0  0  0  0  0  0
  -21.1495   -6.0515   25.9075 H   0  0  0  0  0  0
  -22.0590   -2.7607   23.2840 H   0  0  0  0  0  0
  -22.4103  -11.9919   22.4818 H   0  0  0  0  0  0
  -21.1093  -13.1268   22.2583 H   0  0  0  0  0  0
  -24.6674  -15.8507   20.5334 H   0  0  0  0  0  0
  -26.2911  -15.6317   20.1169 H   0  0  0  0  0  0
  -26.7099  -32.5556   23.1179 H   0  0  0  0  0  0
  -25.0065  -33.9795   25.0499 H   0  0  0  0  0  0
  -22.6834  -31.3132   21.4180 H   0  0  0  0  0  0
  -23.3748  -35.9655   23.3267 H   0  0  0  0  0  0
  -24.3594  -36.8966   22.2054 H   0  0  0  0  0  0
  -23.7230  -37.6522   23.6660 H   0  0  0  0  0  0
  -26.0257  -31.6092   20.5871 H   0  0  0  0  0  0
  -26.8149  -30.9028   21.9697 H   0  0  0  0  0  0
  -28.0870  -29.1233   21.1591 H   0  0  0  0  0  0
  -26.0339  -26.0012   18.9818 H   0  0  0  0  0  0
  -23.9685  -27.3139   19.0220 H   0  0  0  0  0  0
  -23.7111  -30.6136   19.4070 H   0  0  0  0  0  0
  -22.7261  -29.2566   19.8654 H   0  0  0  0  0  0
  -25.1265  -36.1976   25.0830 H   0  0  0  0  0  0
  -20.9949  -28.3231   24.1442 H   0  0  0  0  0  0
  -20.5669  -26.2270   23.3598 H   0  0  0  0  0  0
  -21.6638  -26.7455   22.1212 H   0  0  0  0  0  0
  -19.6917  -25.6302   21.1234 H   0  0  0  0  0  0
  -19.6707  -27.3201   20.6736 H   0  0  0  0  0  0
  -17.4198  -26.6662   21.4013 H   0  0  0  0  0  0
  -18.0338  -26.0082   22.9019 H   0  0  0  0  0  0
  -19.7925  -30.7250   24.2295 H   0  0  0  0  0  0
  -17.5013  -31.6268   24.5170 H   0  0  0  0  0  0
  -15.5347  -30.3005   23.7646 H   0  0  0  0  0  0
  -15.8657  -28.0861   22.7011 H   0  0  0  0  0  0
  -24.5931  -30.7032   25.7818 H   0  0  0  0  0  0
  -24.8945  -32.2840   26.4940 H   0  0  0  0  0  0
  -25.8123  -30.8853   27.0224 H   0  0  0  0  0  0
  -26.2821  -29.6807   24.1142 H   0  0  0  0  0  0
  -27.4129  -29.7278   25.4487 H   0  0  0  0  0  0
  -27.8631  -30.4385   23.9151 H   0  0  0  0  0  0
  -27.2718  -33.3579   26.2102 H   0  0  0  0  0  0
  -28.3872  -32.6846   25.0298 H   0  0  0  0  0  0
  -28.0750  -31.8370   26.5363 H   0  0  0  0  0  0
  -28.2561  -38.0139   24.7560 H   0  0  0  0  0  0
  -28.1121  -36.2673   24.6178 H   0  0  0  0  0  0
  -27.2323  -37.1338   25.8856 H   0  0  0  0  0  0
  -20.9266  -29.8780   21.6982 H   0  0  0  0  0  0
  -26.0165  -38.2871   24.1470 H   0  0  0  0  0  0
  -28.5417  -17.8554   21.9374 H   0  0  0  0  0  0
  -28.0682  -20.2324   22.3712 H   0  0  0  0  0  0
  -31.4367  -21.3466   19.9160 H   0  0  0  0  0  0
  -31.3897  -16.6950   19.6929 H   0  0  0  0  0  0
  -29.2771  -15.6699   21.6357 H   0  0  0  0  0  0
  -29.8003  -22.9422   19.5060 H   0  0  0  0  0  0
  -32.7612  -19.8447   18.8575 H   0  0  0  0  0  0
  -31.9087  -18.4295   18.2603 H   0  0  0  0  0  0
  -32.9685  -18.3071   19.6782 H   0  0  0  0  0  0
  -30.4195  -25.1466   20.4370 H   0  0  0  0  0  0
  -29.3986  -24.9045   21.8381 H   0  0  0  0  0  0
  -27.3858  -24.9400   20.4512 H   0  0  0  0  0  0
  -28.3245  -25.0481   18.9599 H   0  0  0  0  0  0
  1 25  1  0  0  0
  1 30  2  0  0  0
  1 78  1  0  0  0
  2  3  1  0  0  0
  2 25  1  0  0  0
  2 84  1  0  0  0
  2 85  1  0  0  0
  3  4  1  0  0  0
  3 86  1  0  0  0
  3 87  1  0  0  0
  4  5  1  0  0  0
  4 88  1  0  0  0
  4 89  1  0  0  0
  5  6  1  0  0  0
  5 26  1  0  0  0
  5 90  1  0  0  0
  6 25  1  0  0  0
  6 91  1  0  0  0
  6 92  1  0  0  0
  7  8  2  0  0  0
  7 26  1  0  0  0
  7 29  1  0  0  0
  8  9  1  0  0  0
  8 22  1  0  0  0
  9 10  1  0  0  0
  9 27  2  0  0  0
 10 11  2  0  0  0
 10 15  1  0  0  0
 11 12  1  0  0  0
 11 93  1  0  0  0
 12 13  2  0  0  0
 12 94  1  0  0  0
 13 14  1  0  0  0
 13 31  1  0  0  0
 14 15  2  0  0  0
 14 95  1  0  0  0
 15 96  1  0  0  0
 16 17  2  0  0  0
 16 21  1  0  0  0
 16 31  1  0  0  0
 17 18  1  0  0  0
 17 97  1  0  0  0
 18 19  2  0  0  0
 18 98  1  0  0  0
 19 20  1  0  0  0
 19 24  1  0  0  0
 20 21  2  0  0  0
 20 99  1  0  0  0
 21 23  1  0  0  0
 22 28  1  0  0  0
 22 32  2  0  0  0
 26 27  1  0  0  0
 28100  1  0  0  0
 28101  1  0  0  0
 29102  1  0  0  0
 29103  1  0  0  0
 33 34  1  0  0  0
 33 66  1  0  0  0
 33 70  2  0  0  0
 34 36  1  0  0  0
 34 59  1  0  0  0
 34104  1  0  0  0
 35 44  2  0  0  0
 35 45  1  0  0  0
 35 68  1  0  0  0
 36 56  1  0  0  0
 36105  1  0  0  0
 37 39  1  0  0  0
 37 47  1  0  0  0
 37 66  1  0  0  0
 37106  1  0  0  0
 38 43  2  0  0  0
 38 46  1  0  0  0
 38 47  1  0  0  0
 39 64  1  0  0  0
 39 67  2  0  0  0
 40 52  1  0  0  0
 40 53  2  0  0  0
 40 58  1  0  0  0
 41107  1  0  0  0
 41108  1  0  0  0
 41109  1  0  0  0
 41 48  1  0  0  0
 42 43  1  0  0  0
 42 66  1  0  0  0
 42110  1  0  0  0
 42111  1  0  0  0
 43 44  1  0  0  0
 44112  1  0  0  0
 45 46  2  0  0  0
 45113  1  0  0  0
 46114  1  0  0  0
 47115  1  0  0  0
 47116  1  0  0  0
 48 56  1  0  0  0
 48 65  1  0  0  0
 48117  1  0  0  0
 49 50  1  0  0  0
 49 53  1  0  0  0
 49 64  1  0  0  0
 49118  1  0  0  0
 50 51  1  0  0  0
 50119  1  0  0  0
 50120  1  0  0  0
 51 52  1  0  0  0
 51121  1  0  0  0
 51122  1  0  0  0
 52123  1  0  0  0
 52124  1  0  0  0
 53 54  1  0  0  0
 54 55  2  0  0  0
 54125  1  0  0  0
 55 57  1  0  0  0
 55126  1  0  0  0
 56 69  2  0  0  0
 57 58  2  0  0  0
 57127  1  0  0  0
 58128  1  0  0  0
 59 60  1  0  0  0
 59 61  1  0  0  0
 59 62  1  0  0  0
 60129  1  0  0  0
 60130  1  0  0  0
 60131  1  0  0  0
 61132  1  0  0  0
 61133  1  0  0  0
 61134  1  0  0  0
 62135  1  0  0  0
 62136  1  0  0  0
 62137  1  0  0  0
 63 65  1  0  0  0
 63138  1  0  0  0
 63139  1  0  0  0
 63140  1  0  0  0
 64141  1  0  0  0
 65142  1  0  0  0
 68 82  1  0  0  0
 71 72  2  0  0  0
 71 74  1  0  0  0
 71143  1  0  0  0
 72 76  1  0  0  0
 72144  1  0  0  0
 73 75  1  0  0  0
 73 76  2  0  0  0
 73145  1  0  0  0
 74 75  2  0  0  0
 74 77  1  0  0  0
 75 80  1  0  0  0
 76 83  1  0  0  0
 77 78  2  0  0  0
 77146  1  0  0  0
 78147  1  0  0  0
 79 81  1  0  0  0
 79 83  2  0  0  0
 79148  1  0  0  0
 80149  1  0  0  0
 80150  1  0  0  0
 80151  1  0  0  0
 81 82  1  0  0  0
 81152  1  0  0  0
 81153  1  0  0  0
 82154  1  0  0  0
 82155  1  0  0  0
M  ISO  4   1 100  68 101  78 100  82 101
M  END
> <chiral flag>
0

> <version>
0

> <s_m_source_file>
/data/baiqing/PycharmProjects/Reinvent-master-3.2/result/LINK_invent/BTK/process_docking_weight1_custom_product_contain_oxygen_bond_distance_aromatic_linkinvent_7_9_3/rearranged_h_0120.sdf

> <i_m_source_file_index>
36

> <r_mmod_Potential_Energy-OPLS-2005>
-37.9115982055664

> <r_mmod_Stretch_Energy-OPLS-2005>
34.2394523620605

> <r_mmod_Bend_Energy-OPLS-2005>
105.405670166016

> <r_mmod_Torsional_Energy-OPLS-2005>
188.769165039062

> <r_mmod_Improper_Torsional_Energy-OPLS-2005>
3.79256582260132

> <r_mmod_Van_der_Waal_Energy-OPLS-2005>
183.081253051758

> <r_mmod_Electrostatic_Energy-OPLS-2005>
-371.507415771484

> <r_mmod_Solvation_Energy-OPLS-2005>
-200.793487548828

> <b_mmod_Minimization_Converged-OPLS-2005>
0

> <r_mmod_RMS_Derivative-OPLS-2005>
1.34600174427032

$$$$
36
                    3D
 Structure written by MMmdl.
157165  0  0  1  0            999 V2000
  -30.6808  -14.5171   20.4799 C   0  0  0  0  0  0
  -30.4202  -12.2996   19.4266 C   0  0  0  0  0  0
  -29.4968  -12.4732   18.2032 C   0  0  0  0  0  0
  -28.0138  -12.3418   18.6087 C   0  0  0  0  0  0
  -27.6536  -13.2050   19.8479 C   0  0  2  0  0  0
  -28.7025  -13.0384   20.9727 C   0  0  0  0  0  0
  -25.2579  -13.8162   20.5662 C   0  0  0  0  0  0
  -24.1858  -13.0463   20.9233 C   0  0  0  0  0  0
  -24.6408  -11.6916   20.8754 C   0  0  0  0  0  0
  -23.9063  -10.4312   21.0393 C   0  0  0  0  0  0
  -24.3614   -9.4219   21.9153 C   0  0  0  0  0  0
  -23.6313   -8.2239   22.0722 C   0  0  0  0  0  0
  -22.4283   -8.0278   21.3527 C   0  0  0  0  0  0
  -21.9920   -9.0246   20.4613 C   0  0  0  0  0  0
  -22.7242  -10.2137   20.3036 C   0  0  0  0  0  0
  -21.6848   -6.0752   22.5291 C   0  0  0  0  0  0
  -21.4007   -6.5654   23.8228 C   0  0  0  0  0  0
  -21.3666   -5.6794   24.9183 C   0  0  0  0  0  0
  -21.6054   -4.3059   24.7225 C   0  0  0  0  0  0
  -21.8821   -3.8159   23.4348 C   0  0  0  0  0  0
  -21.9204   -4.6981   22.3411 C   0  0  0  0  0  0
  -22.7864  -13.5243   21.1866 C   0  0  0  0  0  0
  -22.1665   -4.2175   21.0977 F   0  0  0  0  0  0
  -21.5631   -3.4538   25.7731 F   0  0  0  0  0  0
  -30.0245  -13.3249   20.3997 N   0  0  0  0  0  0
  -26.2983  -12.9328   20.3223 N   0  0  0  0  0  0
  -25.9321  -11.6500   20.5723 N   0  0  0  0  0  0
  -22.0503  -12.8235   22.0404 N   0  0  0  0  0  0
  -25.4288  -15.1887   20.4014 N   0  0  0  0  0  0
  -31.8610  -14.6398   20.1476 O   0  0  0  0  0  0
  -21.6644   -6.8883   21.4239 O   0  0  0  0  0  0
  -22.3549  -14.5555   20.6705 O   0  0  0  0  0  0
  -24.6183  -31.8598   23.1946 C   0  0  0  0  0  0
  -25.9044  -32.4755   23.8271 C   0  0  1  0  0  0
  -27.2805  -27.4034   20.0901 C   0  0  0  0  0  0
  -25.5845  -33.8542   24.2232 N   0  0  0  0  0  0
  -23.4120  -30.4746   21.5342 C   0  0  2  0  0  0
  -24.8711  -28.9243   20.1110 C   0  0  0  0  0  0
  -22.7425  -29.4596   22.4895 C   0  0  0  0  0  0
  -18.0275  -28.1349   22.8470 C   0  0  0  0  0  0
  -24.1498  -36.7301   23.2654 C   0  0  0  0  0  0
  -25.9427  -30.8171   21.3459 C   0  0  0  0  0  0
  -26.0271  -29.4437   20.7029 C   0  0  0  0  0  0
  -27.2263  -28.6900   20.6878 C   0  0  0  0  0  0
  -26.0967  -26.8955   19.5075 C   0  0  0  0  0  0
  -24.9029  -27.6505   19.5118 C   0  0  0  0  0  0
  -23.6259  -29.7864   20.1566 C   0  0  0  0  0  0
  -25.4122  -36.3064   24.0356 C   0  0  1  0  0  0
  -20.5875  -28.3630   23.1281 C   0  0  2  0  0  0
  -20.6765  -26.9335   22.5426 C   0  0  0  0  0  0
  -19.5744  -26.6340   21.5221 C   0  0  0  0  0  0
  -18.1904  -26.7882   22.1617 C   0  0  0  0  0  0
  -19.1525  -28.8805   23.2868 C   0  0  0  0  0  0
  -18.9467  -30.1414   23.8855 C   0  0  0  0  0  0
  -17.6465  -30.6554   24.0533 C   0  0  0  0  0  0
  -25.9059  -34.9431   23.5129 C   0  0  0  0  0  0
  -16.5350  -29.9072   23.6322 C   0  0  0  0  0  0
  -16.7261  -28.6510   23.0317 C   0  0  0  0  0  0
  -26.4472  -31.6548   25.0593 C   0  0  0  0  0  0
  -25.3756  -31.3655   26.1357 C   0  0  0  0  0  0
  -27.0338  -30.3007   24.5956 C   0  0  0  0  0  0
  -27.6009  -32.4318   25.7335 C   0  0  0  0  0  0
  -27.5578  -37.1801   24.8465 C   0  0  0  0  0  0
  -21.4142  -29.3001   22.3674 N   0  0  0  0  0  0
  -26.4291  -37.3772   23.9430 N   0  0  0  0  0  0
  -24.6755  -31.0678   22.0840 N   0  0  0  0  0  0
  -23.4188  -28.8147   23.2948 O   0  0  0  0  0  0
  -28.4910  -26.7168   20.1152 O   0  0  0  0  0  0
  -26.5657  -34.8899   22.4705 O   0  0  0  0  0  0
  -23.5380  -32.1336   23.7360 O   0  0  0  0  0  0
  -30.7359  -19.7754   21.1183 C   0  0  0  0  0  0
  -29.2089  -17.9683   20.5739 C   0  0  0  0  0  0
  -31.4895  -17.4432   21.2145 C   0  0  0  0  0  0
  -29.4467  -19.3681   20.7188 C   0  0  0  0  0  0
  -31.7456  -18.8222   21.3790 C   0  0  0  0  0  0
  -30.2139  -16.9909   20.8089 C   0  0  0  0  0  0
  -28.3154  -20.3098   20.4523 C   0  0  0  0  0  0
  -28.1688  -21.6456   20.2237 C   0  0  0  0  0  0
  -33.1145  -19.2773   21.8429 C   0  0  0  0  0  0
  -29.1441  -22.8240   20.0715 C   0  0  0  0  0  0
  -28.5574  -24.2167   20.5162 C   0  0  0  0  0  0
  -28.7015  -25.4110   19.5168 C   0  0  0  0  0  0
  -29.8792  -15.5914   20.6836 N   0  0  0  0  0  0
  -31.4657  -12.3848   19.1271 H   0  0  0  0  0  0
  -30.3151  -11.3033   19.8635 H   0  0  0  0  0  0
  -29.7433  -11.7365   17.4374 H   0  0  0  0  0  0
  -29.6645  -13.4529   17.7540 H   0  0  0  0  0  0
  -27.8159  -11.2903   18.8186 H   0  0  0  0  0  0
  -27.3748  -12.6072   17.7646 H   0  0  0  0  0  0
  -27.6809  -14.2382   19.5005 H   0  0  0  0  0  0
  -28.6831  -12.0238   21.3757 H   0  0  0  0  0  0
  -28.4802  -13.7010   21.8100 H   0  0  0  0  0  0
  -25.2757   -9.5732   22.4720 H   0  0  0  0  0  0
  -24.0049   -7.4650   22.7453 H   0  0  0  0  0  0
  -21.0854   -8.8780   19.8916 H   0  0  0  0  0  0
  -22.3694  -10.9678   19.6150 H   0  0  0  0  0  0
  -21.1973   -7.6149   23.9752 H   0  0  0  0  0  0
  -21.1474   -6.0502   25.9095 H   0  0  0  0  0  0
  -22.0587   -2.7627   23.2840 H   0  0  0  0  0  0
  -22.4110  -11.9901   22.4804 H   0  0  0  0  0  0
  -21.1085  -13.1189   22.2543 H   0  0  0  0  0  0
  -24.6638  -15.8421   20.5318 H   0  0  0  0  0  0
  -26.2501  -15.6219   20.0018 H   0  0  0  0  0  0
  -26.7109  -32.5443   23.1025 H   0  0  0  0  0  0
  -24.9753  -33.9637   25.0210 H   0  0  0  0  0  0
  -22.7056  -31.2925   21.3820 H   0  0  0  0  0  0
  -23.3719  -35.9665   23.3302 H   0  0  0  0  0  0
  -24.3537  -36.8933   22.2055 H   0  0  0  0  0  0
  -23.7330  -37.6541   23.6678 H   0  0  0  0  0  0
  -26.0559  -31.5720   20.5651 H   0  0  0  0  0  0
  -26.8318  -30.8766   21.9628 H   0  0  0  0  0  0
  -28.1199  -29.0941   21.1439 H   0  0  0  0  0  0
  -26.0776  -25.9127   19.0585 H   0  0  0  0  0  0
  -24.0138  -27.2316   19.0619 H   0  0  0  0  0  0
  -23.7230  -30.5538   19.3865 H   0  0  0  0  0  0
  -22.7583  -29.1871   19.8690 H   0  0  0  0  0  0
  -25.1310  -36.1884   25.0857 H   0  0  0  0  0  0
  -20.9960  -28.3196   24.1410 H   0  0  0  0  0  0
  -20.5686  -26.2199   23.3616 H   0  0  0  0  0  0
  -21.6624  -26.7349   22.1192 H   0  0  0  0  0  0
  -19.6887  -25.6276   21.1199 H   0  0  0  0  0  0
  -19.6701  -27.3182   20.6776 H   0  0  0  0  0  0
  -17.4188  -26.6618   21.4001 H   0  0  0  0  0  0
  -18.0288  -26.0031   22.9021 H   0  0  0  0  0  0
  -19.7964  -30.7221   24.2190 H   0  0  0  0  0  0
  -17.5056  -31.6244   24.5119 H   0  0  0  0  0  0
  -15.5362  -30.2968   23.7704 H   0  0  0  0  0  0
  -15.8642  -28.0856   22.7004 H   0  0  0  0  0  0
  -24.5902  -30.7032   25.7724 H   0  0  0  0  0  0
  -24.8951  -32.2791   26.4843 H   0  0  0  0  0  0
  -25.8123  -30.8809   27.0091 H   0  0  0  0  0  0
  -26.2886  -29.6679   24.1131 H   0  0  0  0  0  0
  -27.4266  -29.7324   25.4390 H   0  0  0  0  0  0
  -27.8604  -30.4303   23.8956 H   0  0  0  0  0  0
  -27.2584  -33.3629   26.1859 H   0  0  0  0  0  0
  -28.3792  -32.6874   25.0146 H   0  0  0  0  0  0
  -28.0669  -31.8476   26.5271 H   0  0  0  0  0  0
  -28.2599  -38.0095   24.7495 H   0  0  0  0  0  0
  -28.1067  -36.2618   24.6296 H   0  0  0  0  0  0
  -27.2256  -37.1460   25.8856 H   0  0  0  0  0  0
  -20.9317  -29.8695   21.6857 H   0  0  0  0  0  0
  -26.0157  -38.2839   24.1448 H   0  0  0  0  0  0
  -30.9561  -20.8197   21.2691 H   0  0  0  0  0  0
  -28.2294  -17.6351   20.2687 H   0  0  0  0  0  0
  -32.2841  -16.7415   21.4230 H   0  0  0  0  0  0
  -27.3666  -19.7887   20.4531 H   0  0  0  0  0  0
  -27.1406  -21.9479   20.0815 H   0  0  0  0  0  0
  -33.0921  -20.3082   22.2022 H   0  0  0  0  0  0
  -33.8217  -19.2164   21.0157 H   0  0  0  0  0  0
  -33.4792  -18.6501   22.6571 H   0  0  0  0  0  0
  -30.0692  -22.6258   20.6058 H   0  0  0  0  0  0
  -29.4055  -22.8759   19.0140 H   0  0  0  0  0  0
  -29.0491  -24.4954   21.4495 H   0  0  0  0  0  0
  -27.4989  -24.1226   20.7558 H   0  0  0  0  0  0
  -29.7331  -25.4181   19.1575 H   0  0  0  0  0  0
  -28.1099  -25.2581   18.6161 H   0  0  0  0  0  0
  -28.8954  -15.3714   20.6940 H   0  0  0  0  0  0
  1 25  1  0  0  0
  1 30  2  0  0  0
  1 83  1  0  0  0
  2  3  1  0  0  0
  2 25  1  0  0  0
  2 84  1  0  0  0
  2 85  1  0  0  0
  3  4  1  0  0  0
  3 86  1  0  0  0
  3 87  1  0  0  0
  4  5  1  0  0  0
  4 88  1  0  0  0
  4 89  1  0  0  0
  5  6  1  0  0  0
  5 26  1  0  0  0
  5 90  1  0  0  0
  6 25  1  0  0  0
  6 91  1  0  0  0
  6 92  1  0  0  0
  7  8  2  0  0  0
  7 26  1  0  0  0
  7 29  1  0  0  0
  8  9  1  0  0  0
  8 22  1  0  0  0
  9 10  1  0  0  0
  9 27  2  0  0  0
 10 11  2  0  0  0
 10 15  1  0  0  0
 11 12  1  0  0  0
 11 93  1  0  0  0
 12 13  2  0  0  0
 12 94  1  0  0  0
 13 14  1  0  0  0
 13 31  1  0  0  0
 14 15  2  0  0  0
 14 95  1  0  0  0
 15 96  1  0  0  0
 16 17  2  0  0  0
 16 21  1  0  0  0
 16 31  1  0  0  0
 17 18  1  0  0  0
 17 97  1  0  0  0
 18 19  2  0  0  0
 18 98  1  0  0  0
 19 20  1  0  0  0
 19 24  1  0  0  0
 20 21  2  0  0  0
 20 99  1  0  0  0
 21 23  1  0  0  0
 22 28  1  0  0  0
 22 32  2  0  0  0
 26 27  1  0  0  0
 28100  1  0  0  0
 28101  1  0  0  0
 29102  1  0  0  0
 29103  1  0  0  0
 33 34  1  0  0  0
 33 66  1  0  0  0
 33 70  2  0  0  0
 34 36  1  0  0  0
 34 59  1  0  0  0
 34104  1  0  0  0
 35 44  2  0  0  0
 35 45  1  0  0  0
 35 68  1  0  0  0
 36 56  1  0  0  0
 36105  1  0  0  0
 37 39  1  0  0  0
 37 47  1  0  0  0
 37 66  1  0  0  0
 37106  1  0  0  0
 38 43  2  0  0  0
 38 46  1  0  0  0
 38 47  1  0  0  0
 39 64  1  0  0  0
 39 67  2  0  0  0
 40 52  1  0  0  0
 40 53  2  0  0  0
 40 58  1  0  0  0
 41107  1  0  0  0
 41108  1  0  0  0
 41109  1  0  0  0
 41 48  1  0  0  0
 42 43  1  0  0  0
 42 66  1  0  0  0
 42110  1  0  0  0
 42111  1  0  0  0
 43 44  1  0  0  0
 44112  1  0  0  0
 45 46  2  0  0  0
 45113  1  0  0  0
 46114  1  0  0  0
 47115  1  0  0  0
 47116  1  0  0  0
 48 56  1  0  0  0
 48 65  1  0  0  0
 48117  1  0  0  0
 49 50  1  0  0  0
 49 53  1  0  0  0
 49 64  1  0  0  0
 49118  1  0  0  0
 50 51  1  0  0  0
 50119  1  0  0  0
 50120  1  0  0  0
 51 52  1  0  0  0
 51121  1  0  0  0
 51122  1  0  0  0
 52123  1  0  0  0
 52124  1  0  0  0
 53 54  1  0  0  0
 54 55  2  0  0  0
 54125  1  0  0  0
 55 57  1  0  0  0
 55126  1  0  0  0
 56 69  2  0  0  0
 57 58  2  0  0  0
 57127  1  0  0  0
 58128  1  0  0  0
 59 60  1  0  0  0
 59 61  1  0  0  0
 59 62  1  0  0  0
 60129  1  0  0  0
 60130  1  0  0  0
 60131  1  0  0  0
 61132  1  0  0  0
 61133  1  0  0  0
 61134  1  0  0  0
 62135  1  0  0  0
 62136  1  0  0  0
 62137  1  0  0  0
 63 65  1  0  0  0
 63138  1  0  0  0
 63139  1  0  0  0
 63140  1  0  0  0
 64141  1  0  0  0
 65142  1  0  0  0
 68 82  1  0  0  0
 71 74  2  0  0  0
 71 75  1  0  0  0
 71143  1  0  0  0
 72 74  1  0  0  0
 72 76  2  0  0  0
 72144  1  0  0  0
 73 75  2  0  0  0
 73 76  1  0  0  0
 73145  1  0  0  0
 74 77  1  0  0  0
 75 79  1  0  0  0
 76 83  1  0  0  0
 77 78  2  0  0  0
 77146  1  0  0  0
 78 80  1  0  0  0
 78147  1  0  0  0
 79148  1  0  0  0
 79149  1  0  0  0
 79150  1  0  0  0
 80 81  1  0  0  0
 80151  1  0  0  0
 80152  1  0  0  0
 81 82  1  0  0  0
 81153  1  0  0  0
 81154  1  0  0  0
 82155  1  0  0  0
 82156  1  0  0  0
 83157  1  0  0  0
M  ISO  4   1 100  68 101  82 101  83 100
M  END
> <chiral flag>
0

> <version>
0

> <s_m_source_file>
/data/baiqing/PycharmProjects/Reinvent-master-3.2/result/LINK_invent/BTK/process_docking_weight1_custom_product_contain_oxygen_bond_distance_aromatic_linkinvent_7_9_3/rearranged_h_0120.sdf

> <i_m_source_file_index>
37

> <r_mmod_Potential_Energy-OPLS-2005>
45.8922233581543

> <r_mmod_Stretch_Energy-OPLS-2005>
49.5810089111328

> <r_mmod_Bend_Energy-OPLS-2005>
146.673873901367

> <r_mmod_Torsional_Energy-OPLS-2005>
220.816741943359

> <r_mmod_Improper_Torsional_Energy-OPLS-2005>
6.86763572692871

> <r_mmod_Van_der_Waal_Energy-OPLS-2005>
146.279846191406

> <r_mmod_Electrostatic_Energy-OPLS-2005>
-344.738891601562

> <r_mmod_Solvation_Energy-OPLS-2005>
-203.217987060547

> <b_mmod_Minimization_Converged-OPLS-2005>
0

> <r_mmod_RMS_Derivative-OPLS-2005>
4.87523412704468

$$$$
37
                    3D
 Structure written by MMmdl.
164172  0  0  1  0            999 V2000
  -30.6674  -14.5874   20.4353 C   0  0  0  0  0  0
  -30.4247  -12.3324   19.4396 C   0  0  0  0  0  0
  -29.4807  -12.3788   18.2157 C   0  0  0  0  0  0
  -28.0113  -12.2706   18.6580 C   0  0  0  0  0  0
  -27.6515  -13.1946   19.8500 C   0  0  2  0  0  0
  -28.7037  -13.0816   20.9766 C   0  0  0  0  0  0
  -25.2600  -13.8152   20.5716 C   0  0  0  0  0  0
  -24.1806  -13.0453   20.9214 C   0  0  0  0  0  0
  -24.6330  -11.6915   20.8788 C   0  0  0  0  0  0
  -23.8988  -10.4298   21.0387 C   0  0  0  0  0  0
  -24.3573   -9.4221   21.9151 C   0  0  0  0  0  0
  -23.6297   -8.2225   22.0703 C   0  0  0  0  0  0
  -22.4280   -8.0255   21.3500 C   0  0  0  0  0  0
  -21.9876   -9.0214   20.4606 C   0  0  0  0  0  0
  -22.7154  -10.2131   20.3024 C   0  0  0  0  0  0
  -21.6840   -6.0727   22.5266 C   0  0  0  0  0  0
  -21.4017   -6.5623   23.8210 C   0  0  0  0  0  0
  -21.3673   -5.6762   24.9161 C   0  0  0  0  0  0
  -21.6067   -4.3035   24.7195 C   0  0  0  0  0  0
  -21.8826   -3.8134   23.4308 C   0  0  0  0  0  0
  -21.9201   -4.6959   22.3381 C   0  0  0  0  0  0
  -22.7834  -13.5289   21.1850 C   0  0  0  0  0  0
  -22.1654   -4.2155   21.0956 F   0  0  0  0  0  0
  -21.5663   -3.4517   25.7699 F   0  0  0  0  0  0
  -30.0165  -13.3846   20.3918 N   0  0  0  0  0  0
  -26.2985  -12.9295   20.3358 N   0  0  0  0  0  0
  -25.9280  -11.6485   20.5860 N   0  0  0  0  0  0
  -22.0470  -12.8304   22.0428 N   0  0  0  0  0  0
  -25.4480  -15.1851   20.4121 N   0  0  0  0  0  0
  -31.8591  -14.6876   20.1431 O   0  0  0  0  0  0
  -21.6643   -6.8859   21.4213 O   0  0  0  0  0  0
  -22.3531  -14.5581   20.6667 O   0  0  0  0  0  0
  -24.6199  -31.8660   23.2114 C   0  0  0  0  0  0
  -25.9099  -32.4825   23.8432 C   0  0  1  0  0  0
  -27.2184  -27.3887   20.1323 C   0  0  0  0  0  0
  -25.5966  -33.8616   24.2372 N   0  0  0  0  0  0
  -23.4094  -30.4932   21.5503 C   0  0  2  0  0  0
  -24.8559  -28.9604   20.1114 C   0  0  0  0  0  0
  -22.7452  -29.4664   22.4984 C   0  0  0  0  0  0
  -18.0275  -28.1364   22.8491 C   0  0  0  0  0  0
  -24.1480  -36.7306   23.2629 C   0  0  0  0  0  0
  -25.9425  -30.8263   21.3691 C   0  0  0  0  0  0
  -26.0202  -29.4593   20.7093 C   0  0  0  0  0  0
  -27.2088  -28.6847   20.7076 C   0  0  0  0  0  0
  -26.0412  -26.9264   19.5000 C   0  0  0  0  0  0
  -24.8656  -27.6969   19.4967 C   0  0  0  0  0  0
  -23.6197  -29.8314   20.1627 C   0  0  0  0  0  0
  -25.4100  -36.3116   24.0347 C   0  0  1  0  0  0
  -20.5880  -28.3653   23.1304 C   0  0  2  0  0  0
  -20.6767  -26.9389   22.5423 C   0  0  0  0  0  0
  -19.5749  -26.6357   21.5229 C   0  0  0  0  0  0
  -18.1920  -26.7916   22.1615 C   0  0  0  0  0  0
  -19.1528  -28.8813   23.2891 C   0  0  0  0  0  0
  -18.9457  -30.1440   23.8871 C   0  0  0  0  0  0
  -17.6457  -30.6569   24.0543 C   0  0  0  0  0  0
  -25.9046  -34.9480   23.5153 C   0  0  0  0  0  0
  -16.5346  -29.9065   23.6335 C   0  0  0  0  0  0
  -16.7271  -28.6487   23.0352 C   0  0  0  0  0  0
  -26.4502  -31.6584   25.0767 C   0  0  0  0  0  0
  -25.3751  -31.3742   26.1525 C   0  0  0  0  0  0
  -27.0248  -30.2966   24.6181 C   0  0  0  0  0  0
  -27.6100  -32.4268   25.7507 C   0  0  0  0  0  0
  -27.5588  -37.1809   24.8474 C   0  0  0  0  0  0
  -21.4173  -29.3032   22.3722 N   0  0  0  0  0  0
  -26.4292  -37.3817   23.9424 N   0  0  0  0  0  0
  -24.6758  -31.0748   22.1025 N   0  0  0  0  0  0
  -23.4226  -28.8224   23.3034 O   0  0  0  0  0  0
  -28.3248  -26.5563   20.2190 O   0  0  0  0  0  0
  -26.5564  -34.8951   22.4695 O   0  0  0  0  0  0
  -23.5388  -32.1410   23.7499 O   0  0  0  0  0  0
  -30.4276  -18.4400   18.0180 C   0  0  0  0  0  0
  -30.0127  -18.2162   20.7624 C   0  0  0  0  0  0
  -30.4801  -19.6074   18.8052 C   0  0  0  0  0  0
  -30.1871  -17.1689   18.5746 C   0  0  0  0  0  0
  -30.0704  -17.0108   19.9879 C   0  0  0  0  0  0
  -30.1572  -19.5243   20.1831 C   0  0  0  0  0  0
  -30.6299  -21.2337   16.8927 C   0  0  0  0  0  0
  -30.8703  -20.8792   18.1684 C   0  0  0  0  0  0
  -31.2618  -15.5335   16.9146 C   0  0  0  0  0  0
  -29.9736  -16.0394   17.5856 C   0  0  0  0  0  0
  -29.2567  -24.3422   21.1580 C   0  0  0  0  0  0
  -29.6205  -23.1285   20.2188 C   0  0  0  0  0  0
  -28.0316  -25.2494   20.7951 C   0  0  0  0  0  0
  -29.0677  -21.6979   20.6143 C   0  0  0  0  0  0
  -29.8883  -15.6994   20.6028 N   0  0  0  0  0  0
  -30.0483  -20.6761   20.9699 O   0  0  0  0  0  0
  -31.4591  -12.4382   19.1128 H   0  0  0  0  0  0
  -30.3694  -11.3521   19.9143 H   0  0  0  0  0  0
  -29.7135  -11.5554   17.5382 H   0  0  0  0  0  0
  -29.6402  -13.2671   17.6199 H   0  0  0  0  0  0
  -27.8666  -11.2343   18.9666 H   0  0  0  0  0  0
  -27.3335  -12.4324   17.8182 H   0  0  0  0  0  0
  -27.6668  -14.2146   19.4670 H   0  0  0  0  0  0
  -28.7100  -12.0735   21.3977 H   0  0  0  0  0  0
  -28.4676  -13.7537   21.8031 H   0  0  0  0  0  0
  -25.2698   -9.5756   22.4738 H   0  0  0  0  0  0
  -24.0060   -7.4609   22.7391 H   0  0  0  0  0  0
  -21.0819   -8.8664   19.8908 H   0  0  0  0  0  0
  -22.3537  -10.9662   19.6164 H   0  0  0  0  0  0
  -21.1991   -7.6119   23.9719 H   0  0  0  0  0  0
  -21.1511   -6.0474   25.9076 H   0  0  0  0  0  0
  -22.0616   -2.7598   23.2767 H   0  0  0  0  0  0
  -22.4038  -12.0012   22.4929 H   0  0  0  0  0  0
  -21.1077  -13.1327   22.2558 H   0  0  0  0  0  0
  -24.7045  -15.8655   20.5211 H   0  0  0  0  0  0
  -26.3327  -15.6049   20.1552 H   0  0  0  0  0  0
  -26.7196  -32.5531   23.1210 H   0  0  0  0  0  0
  -25.0179  -33.9754   25.0564 H   0  0  0  0  0  0
  -22.7005  -31.3106   21.4121 H   0  0  0  0  0  0
  -23.3779  -35.9601   23.3258 H   0  0  0  0  0  0
  -24.3596  -36.8938   22.2056 H   0  0  0  0  0  0
  -23.7181  -37.6488   23.6639 H   0  0  0  0  0  0
  -26.0675  -31.6021   20.6105 H   0  0  0  0  0  0
  -26.8240  -30.8677   21.9992 H   0  0  0  0  0  0
  -28.1046  -29.0624   21.1811 H   0  0  0  0  0  0
  -26.0161  -25.9581   19.0215 H   0  0  0  0  0  0
  -23.9744  -27.2993   19.0336 H   0  0  0  0  0  0
  -23.7358  -30.6098   19.4079 H   0  0  0  0  0  0
  -22.7407  -29.2601   19.8637 H   0  0  0  0  0  0
  -25.1276  -36.2022   25.0842 H   0  0  0  0  0  0
  -20.9959  -28.3211   24.1429 H   0  0  0  0  0  0
  -20.5647  -26.2279   23.3620 H   0  0  0  0  0  0
  -21.6628  -26.7389   22.1224 H   0  0  0  0  0  0
  -19.6890  -25.6264   21.1265 H   0  0  0  0  0  0
  -19.6705  -27.3152   20.6758 H   0  0  0  0  0  0
  -17.4224  -26.6730   21.3992 H   0  0  0  0  0  0
  -18.0226  -26.0043   22.8971 H   0  0  0  0  0  0
  -19.7949  -30.7280   24.2194 H   0  0  0  0  0  0
  -17.5024  -31.6264   24.5124 H   0  0  0  0  0  0
  -15.5350  -30.2955   23.7650 H   0  0  0  0  0  0
  -15.8695  -28.0807   22.7038 H   0  0  0  0  0  0
  -24.5979  -30.6994   25.7932 H   0  0  0  0  0  0
  -24.8864  -32.2887   26.4870 H   0  0  0  0  0  0
  -25.8077  -30.9053   27.0363 H   0  0  0  0  0  0
  -26.2760  -29.6821   24.1151 H   0  0  0  0  0  0
  -27.3836  -29.7150   25.4689 H   0  0  0  0  0  0
  -27.8727  -30.4184   23.9427 H   0  0  0  0  0  0
  -27.2746  -33.3582   26.2064 H   0  0  0  0  0  0
  -28.3890  -32.6769   25.0300 H   0  0  0  0  0  0
  -28.0784  -31.8413   26.5422 H   0  0  0  0  0  0
  -28.2610  -38.0116   24.7525 H   0  0  0  0  0  0
  -28.1065  -36.2629   24.6260 H   0  0  0  0  0  0
  -27.2307  -37.1441   25.8887 H   0  0  0  0  0  0
  -20.9329  -29.8814   21.6996 H   0  0  0  0  0  0
  -26.0202  -38.2895   24.1448 H   0  0  0  0  0  0
  -30.5911  -18.5092   16.9544 H   0  0  0  0  0  0
  -29.8442  -18.1400   21.8264 H   0  0  0  0  0  0
  -30.9957  -22.1739   16.5013 H   0  0  0  0  0  0
  -30.0680  -20.6044   16.2164 H   0  0  0  0  0  0
  -31.4458  -21.5548   18.7831 H   0  0  0  0  0  0
  -31.0597  -14.6580   16.2944 H   0  0  0  0  0  0
  -32.0216  -15.2514   17.6418 H   0  0  0  0  0  0
  -31.6899  -16.3013   16.2684 H   0  0  0  0  0  0
  -29.3013  -16.3967   16.8066 H   0  0  0  0  0  0
  -29.4146  -15.2515   18.0716 H   0  0  0  0  0  0
  -30.1266  -24.9888   21.2784 H   0  0  0  0  0  0
  -29.0987  -23.9520   22.1632 H   0  0  0  0  0  0
  -30.7123  -23.0748   20.1708 H   0  0  0  0  0  0
  -29.3185  -23.3652   19.1919 H   0  0  0  0  0  0
  -27.4834  -25.4471   21.7233 H   0  0  0  0  0  0
  -27.3434  -24.6745   20.1772 H   0  0  0  0  0  0
  -28.4038  -21.3249   19.8317 H   0  0  0  0  0  0
  -28.4118  -21.8052   21.4806 H   0  0  0  0  0  0
  -28.9808  -15.5258   21.0088 H   0  0  0  0  0  0
  1 25  1  0  0  0
  1 30  2  0  0  0
  1 85  1  0  0  0
  2  3  1  0  0  0
  2 25  1  0  0  0
  2 87  1  0  0  0
  2 88  1  0  0  0
  3  4  1  0  0  0
  3 89  1  0  0  0
  3 90  1  0  0  0
  4  5  1  0  0  0
  4 91  1  0  0  0
  4 92  1  0  0  0
  5  6  1  0  0  0
  5 26  1  0  0  0
  5 93  1  0  0  0
  6 25  1  0  0  0
  6 94  1  0  0  0
  6 95  1  0  0  0
  7  8  2  0  0  0
  7 26  1  0  0  0
  7 29  1  0  0  0
  8  9  1  0  0  0
  8 22  1  0  0  0
  9 10  1  0  0  0
  9 27  2  0  0  0
 10 11  2  0  0  0
 10 15  1  0  0  0
 11 12  1  0  0  0
 11 96  1  0  0  0
 12 13  2  0  0  0
 12 97  1  0  0  0
 13 14  1  0  0  0
 13 31  1  0  0  0
 14 15  2  0  0  0
 14 98  1  0  0  0
 15 99  1  0  0  0
 16 17  2  0  0  0
 16 21  1  0  0  0
 16 31  1  0  0  0
 17 18  1  0  0  0
 17100  1  0  0  0
 18 19  2  0  0  0
 18101  1  0  0  0
 19 20  1  0  0  0
 19 24  1  0  0  0
 20 21  2  0  0  0
 20102  1  0  0  0
 21 23  1  0  0  0
 22 28  1  0  0  0
 22 32  2  0  0  0
 26 27  1  0  0  0
 28103  1  0  0  0
 28104  1  0  0  0
 29105  1  0  0  0
 29106  1  0  0  0
 33 34  1  0  0  0
 33 66  1  0  0  0
 33 70  2  0  0  0
 34 36  1  0  0  0
 34 59  1  0  0  0
 34107  1  0  0  0
 35 44  2  0  0  0
 35 45  1  0  0  0
 35 68  1  0  0  0
 36 56  1  0  0  0
 36108  1  0  0  0
 37 39  1  0  0  0
 37 47  1  0  0  0
 37 66  1  0  0  0
 37109  1  0  0  0
 38 43  2  0  0  0
 38 46  1  0  0  0
 38 47  1  0  0  0
 39 64  1  0  0  0
 39 67  2  0  0  0
 40 52  1  0  0  0
 40 53  2  0  0  0
 40 58  1  0  0  0
 41110  1  0  0  0
 41111  1  0  0  0
 41112  1  0  0  0
 41 48  1  0  0  0
 42 43  1  0  0  0
 42 66  1  0  0  0
 42113  1  0  0  0
 42114  1  0  0  0
 43 44  1  0  0  0
 44115  1  0  0  0
 45 46  2  0  0  0
 45116  1  0  0  0
 46117  1  0  0  0
 47118  1  0  0  0
 47119  1  0  0  0
 48 56  1  0  0  0
 48 65  1  0  0  0
 48120  1  0  0  0
 49 50  1  0  0  0
 49 53  1  0  0  0
 49 64  1  0  0  0
 49121  1  0  0  0
 50 51  1  0  0  0
 50122  1  0  0  0
 50123  1  0  0  0
 51 52  1  0  0  0
 51124  1  0  0  0
 51125  1  0  0  0
 52126  1  0  0  0
 52127  1  0  0  0
 53 54  1  0  0  0
 54 55  2  0  0  0
 54128  1  0  0  0
 55 57  1  0  0  0
 55129  1  0  0  0
 56 69  2  0  0  0
 57 58  2  0  0  0
 57130  1  0  0  0
 58131  1  0  0  0
 59 60  1  0  0  0
 59 61  1  0  0  0
 59 62  1  0  0  0
 60132  1  0  0  0
 60133  1  0  0  0
 60134  1  0  0  0
 61135  1  0  0  0
 61136  1  0  0  0
 61137  1  0  0  0
 62138  1  0  0  0
 62139  1  0  0  0
 62140  1  0  0  0
 63 65  1  0  0  0
 63141  1  0  0  0
 63142  1  0  0  0
 63143  1  0  0  0
 64144  1  0  0  0
 65145  1  0  0  0
 68 83  1  0  0  0
 71 73  2  0  0  0
 71 74  1  0  0  0
 71146  1  0  0  0
 72 75  1  0  0  0
 72 76  2  0  0  0
 72147  1  0  0  0
 73 76  1  0  0  0
 73 78  1  0  0  0
 74 75  2  0  0  0
 74 80  1  0  0  0
 75 85  1  0  0  0
 76 86  1  0  0  0
 77 78  2  0  0  0
 77148  1  0  0  0
 77149  1  0  0  0
 78150  1  0  0  0
 79 80  1  0  0  0
 79151  1  0  0  0
 79152  1  0  0  0
 79153  1  0  0  0
 80154  1  0  0  0
 80155  1  0  0  0
 81 82  1  0  0  0
 81 83  1  0  0  0
 81156  1  0  0  0
 81157  1  0  0  0
 82 84  1  0  0  0
 82158  1  0  0  0
 82159  1  0  0  0
 83160  1  0  0  0
 83161  1  0  0  0
 84 86  1  0  0  0
 84162  1  0  0  0
 84163  1  0  0  0
 85164  1  0  0  0
M  ISO  4   1 100  68 101  83 101  85 100
M  END
> <chiral flag>
0

> <version>
0

> <s_m_source_file>
/data/baiqing/PycharmProjects/Reinvent-master-3.2/result/LINK_invent/BTK/process_docking_weight1_custom_product_contain_oxygen_bond_distance_aromatic_linkinvent_7_9_3/rearranged_h_0120.sdf

> <i_m_source_file_index>
38

> <r_mmod_Potential_Energy-OPLS-2005>
130.769577026367

> <r_mmod_Stretch_Energy-OPLS-2005>
64.0640411376953

> <r_mmod_Bend_Energy-OPLS-2005>
120.834365844727

> <r_mmod_Torsional_Energy-OPLS-2005>
334.224945068359

> <r_mmod_Improper_Torsional_Energy-OPLS-2005>
6.28562068939209

> <r_mmod_Van_der_Waal_Energy-OPLS-2005>
147.742553710938

> <r_mmod_Electrostatic_Energy-OPLS-2005>
-375.799530029297

> <r_mmod_Solvation_Energy-OPLS-2005>
-207.651611328125

> <b_mmod_Minimization_Converged-OPLS-2005>
0

> <r_mmod_RMS_Derivative-OPLS-2005>
5.7078161239624

$$$$
38
                    3D
 Structure written by MMmdl.
157165  0  0  1  0            999 V2000
  -30.6718  -14.4963   20.5557 C   0  0  0  0  0  0
  -30.4335  -12.3186   19.4181 C   0  0  0  0  0  0
  -29.4963  -12.5061   18.2058 C   0  0  0  0  0  0
  -28.0176  -12.3585   18.6204 C   0  0  0  0  0  0
  -27.6613  -13.1954   19.8775 C   0  0  2  0  0  0
  -28.7074  -12.9758   20.9941 C   0  0  0  0  0  0
  -25.2582  -13.8104   20.5711 C   0  0  0  0  0  0
  -24.1823  -13.0396   20.9179 C   0  0  0  0  0  0
  -24.6377  -11.6867   20.8736 C   0  0  0  0  0  0
  -23.9043  -10.4267   21.0406 C   0  0  0  0  0  0
  -24.3602   -9.4188   21.9184 C   0  0  0  0  0  0
  -23.6279   -8.2225   22.0753 C   0  0  0  0  0  0
  -22.4260   -8.0268   21.3544 C   0  0  0  0  0  0
  -21.9892   -9.0239   20.4646 C   0  0  0  0  0  0
  -22.7220  -10.2116   20.3054 C   0  0  0  0  0  0
  -21.6847   -6.0728   22.5280 C   0  0  0  0  0  0
  -21.4008   -6.5634   23.8213 C   0  0  0  0  0  0
  -21.3657   -5.6788   24.9175 C   0  0  0  0  0  0
  -21.6046   -4.3052   24.7226 C   0  0  0  0  0  0
  -21.8820   -3.8142   23.4349 C   0  0  0  0  0  0
  -21.9191   -4.6957   22.3405 C   0  0  0  0  0  0
  -22.7853  -13.5215   21.1846 C   0  0  0  0  0  0
  -22.1660   -4.2145   21.0982 F   0  0  0  0  0  0
  -21.5631   -3.4537   25.7740 F   0  0  0  0  0  0
  -30.0361  -13.2973   20.4408 N   0  0  0  0  0  0
  -26.3020  -12.9264   20.3393 N   0  0  0  0  0  0
  -25.9302  -11.6435   20.5774 N   0  0  0  0  0  0
  -22.0487  -12.8218   22.0406 N   0  0  0  0  0  0
  -25.4268  -15.1823   20.4184 N   0  0  0  0  0  0
  -31.8078  -14.7029   20.1183 O   0  0  0  0  0  0
  -21.6628   -6.8866   21.4240 O   0  0  0  0  0  0
  -22.3549  -14.5530   20.6701 O   0  0  0  0  0  0
  -24.6147  -31.8674   23.2098 C   0  0  0  0  0  0
  -25.9041  -32.4818   23.8393 C   0  0  1  0  0  0
  -27.2430  -27.4300   20.0844 C   0  0  0  0  0  0
  -25.5898  -33.8619   24.2323 N   0  0  0  0  0  0
  -23.4031  -30.4903   21.5498 C   0  0  2  0  0  0
  -24.8497  -28.9529   20.1153 C   0  0  0  0  0  0
  -22.7407  -29.4657   22.4987 C   0  0  0  0  0  0
  -18.0272  -28.1378   22.8495 C   0  0  0  0  0  0
  -24.1486  -36.7313   23.2637 C   0  0  0  0  0  0
  -25.9324  -30.8269   21.3667 C   0  0  0  0  0  0
  -26.0080  -29.4593   20.7166 C   0  0  0  0  0  0
  -27.2009  -28.6998   20.7086 C   0  0  0  0  0  0
  -26.0599  -26.9356   19.4869 C   0  0  0  0  0  0
  -24.8697  -27.6879   19.5029 C   0  0  0  0  0  0
  -23.6122  -29.8211   20.1646 C   0  0  0  0  0  0
  -25.4108  -36.3112   24.0336 C   0  0  1  0  0  0
  -20.5862  -28.3667   23.1318 C   0  0  2  0  0  0
  -20.6762  -26.9401   22.5422 C   0  0  0  0  0  0
  -19.5741  -26.6388   21.5215 C   0  0  0  0  0  0
  -18.1918  -26.7927   22.1622 C   0  0  0  0  0  0
  -19.1522  -28.8838   23.2906 C   0  0  0  0  0  0
  -18.9450  -30.1443   23.8920 C   0  0  0  0  0  0
  -17.6453  -30.6584   24.0570 C   0  0  0  0  0  0
  -25.9036  -34.9476   23.5128 C   0  0  0  0  0  0
  -16.5345  -29.9090   23.6325 C   0  0  0  0  0  0
  -16.7263  -28.6504   23.0350 C   0  0  0  0  0  0
  -26.4468  -31.6602   25.0725 C   0  0  0  0  0  0
  -25.3736  -31.3716   26.1477 C   0  0  0  0  0  0
  -27.0287  -30.3038   24.6109 C   0  0  0  0  0  0
  -27.6056  -32.4314   25.7477 C   0  0  0  0  0  0
  -27.5585  -37.1807   24.8462 C   0  0  0  0  0  0
  -21.4135  -29.3035   22.3724 N   0  0  0  0  0  0
  -26.4294  -37.3797   23.9412 N   0  0  0  0  0  0
  -24.6681  -31.0765   22.1003 N   0  0  0  0  0  0
  -23.4174  -28.8201   23.3036 O   0  0  0  0  0  0
  -28.4301  -26.7175   20.0974 O   0  0  0  0  0  0
  -26.5602  -34.8928   22.4692 O   0  0  0  0  0  0
  -23.5339  -32.1433   23.7487 O   0  0  0  0  0  0
  -29.3103  -19.0142   19.8790 C   0  0  0  0  0  0
  -30.8500  -17.6400   21.7822 C   0  0  0  0  0  0
  -29.3030  -17.5992   19.9057 C   0  0  0  0  0  0
  -30.0574  -16.8959   20.8808 C   0  0  0  0  0  0
  -30.0805  -19.7666   20.8002 C   0  0  0  0  0  0
  -30.8685  -19.0533   21.7345 C   0  0  0  0  0  0
  -28.4671  -16.8665   18.8723 C   0  0  0  0  0  0
  -28.2669  -24.2622   19.4799 C   0  0  0  0  0  0
  -29.3425  -23.4287   20.2287 C   0  0  0  0  0  0
  -28.6638  -25.7144   19.0970 C   0  0  0  0  0  0
  -29.1311  -21.8971   20.0971 C   0  0  0  0  0  0
  -29.9013  -15.4851   21.0520 N   0  0  0  0  0  0
  -30.1104  -21.1564   20.8383 O   0  0  0  0  0  0
  -31.6310  -19.7352   22.6240 F   0  0  0  0  0  0
  -31.4752  -12.4358   19.1141 H   0  0  0  0  0  0
  -30.3514  -11.3059   19.8156 H   0  0  0  0  0  0
  -29.7390  -11.7814   17.4275 H   0  0  0  0  0  0
  -29.6566  -13.4914   17.7653 H   0  0  0  0  0  0
  -27.8338  -11.3016   18.8173 H   0  0  0  0  0  0
  -27.3644  -12.6295   17.7902 H   0  0  0  0  0  0
  -27.6995  -14.2403   19.5798 H   0  0  0  0  0  0
  -28.6923  -11.9365   21.3255 H   0  0  0  0  0  0
  -28.4669  -13.5631   21.8816 H   0  0  0  0  0  0
  -25.2750   -9.5666   22.4756 H   0  0  0  0  0  0
  -23.9991   -7.4616   22.7471 H   0  0  0  0  0  0
  -21.0823   -8.8756   19.8954 H   0  0  0  0  0  0
  -22.3681  -10.9655   19.6162 H   0  0  0  0  0  0
  -21.1994   -7.6141   23.9714 H   0  0  0  0  0  0
  -21.1482   -6.0519   25.9078 H   0  0  0  0  0  0
  -22.0601   -2.7605   23.2851 H   0  0  0  0  0  0
  -22.4090  -11.9872   22.4790 H   0  0  0  0  0  0
  -21.1113  -13.1261   22.2619 H   0  0  0  0  0  0
  -24.6590  -15.8346   20.5356 H   0  0  0  0  0  0
  -26.2848  -15.6296   20.1279 H   0  0  0  0  0  0
  -26.7113  -32.5524   23.1157 H   0  0  0  0  0  0
  -25.0052  -33.9782   25.0470 H   0  0  0  0  0  0
  -22.6925  -31.3074   21.4097 H   0  0  0  0  0  0
  -23.3750  -35.9642   23.3299 H   0  0  0  0  0  0
  -24.3584  -36.8928   22.2052 H   0  0  0  0  0  0
  -23.7231  -37.6514   23.6652 H   0  0  0  0  0  0
  -26.0479  -31.5909   20.5965 H   0  0  0  0  0  0
  -26.8193  -30.8803   21.9863 H   0  0  0  0  0  0
  -28.0951  -29.0888   21.1751 H   0  0  0  0  0  0
  -26.0360  -25.9658   19.0126 H   0  0  0  0  0  0
  -23.9773  -27.2885   19.0410 H   0  0  0  0  0  0
  -23.7215  -30.5952   19.4041 H   0  0  0  0  0  0
  -22.7358  -29.2417   19.8686 H   0  0  0  0  0  0
  -25.1284  -36.1977   25.0829 H   0  0  0  0  0  0
  -20.9956  -28.3234   24.1438 H   0  0  0  0  0  0
  -20.5664  -26.2275   23.3611 H   0  0  0  0  0  0
  -21.6633  -26.7443   22.1216 H   0  0  0  0  0  0
  -19.6903  -25.6302   21.1235 H   0  0  0  0  0  0
  -19.6681  -27.3209   20.6754 H   0  0  0  0  0  0
  -17.4190  -26.6685   21.4020 H   0  0  0  0  0  0
  -18.0313  -26.0062   22.9009 H   0  0  0  0  0  0
  -19.7926  -30.7254   24.2300 H   0  0  0  0  0  0
  -17.5008  -31.6268   24.5166 H   0  0  0  0  0  0
  -15.5347  -30.3002   23.7633 H   0  0  0  0  0  0
  -15.8661  -28.0831   22.7057 H   0  0  0  0  0  0
  -24.5909  -30.7060   25.7819 H   0  0  0  0  0  0
  -24.8928  -32.2872   26.4930 H   0  0  0  0  0  0
  -25.8091  -30.8884   27.0232 H   0  0  0  0  0  0
  -26.2823  -29.6808   24.1164 H   0  0  0  0  0  0
  -27.4045  -29.7270   25.4571 H   0  0  0  0  0  0
  -27.8670  -30.4346   23.9261 H   0  0  0  0  0  0
  -27.2695  -33.3613   26.2074 H   0  0  0  0  0  0
  -28.3852  -32.6869   25.0288 H   0  0  0  0  0  0
  -28.0737  -31.8421   26.5372 H   0  0  0  0  0  0
  -28.2603  -38.0105   24.7518 H   0  0  0  0  0  0
  -28.1078  -36.2639   24.6270 H   0  0  0  0  0  0
  -27.2308  -37.1436   25.8866 H   0  0  0  0  0  0
  -20.9296  -29.8756   21.6945 H   0  0  0  0  0  0
  -26.0183  -38.2873   24.1421 H   0  0  0  0  0  0
  -28.7047  -19.5094   19.1355 H   0  0  0  0  0  0
  -31.4262  -17.1341   22.5428 H   0  0  0  0  0  0
  -28.2907  -17.4916   17.9963 H   0  0  0  0  0  0
  -27.4987  -16.6015   19.2896 H   0  0  0  0  0  0
  -28.9663  -15.9626   18.5236 H   0  0  0  0  0  0
  -27.3283  -24.2518   20.0342 H   0  0  0  0  0  0
  -28.0541  -23.7459   18.5428 H   0  0  0  0  0  0
  -29.3593  -23.7184   21.2798 H   0  0  0  0  0  0
  -30.3297  -23.6677   19.8320 H   0  0  0  0  0  0
  -28.1708  -25.9992   18.1660 H   0  0  0  0  0  0
  -29.7258  -25.7398   18.8520 H   0  0  0  0  0  0
  -29.1924  -21.6364   19.0399 H   0  0  0  0  0  0
  -28.1328  -21.6290   20.4471 H   0  0  0  0  0  0
  -28.9830  -15.1782   21.3337 H   0  0  0  0  0  0
  1 25  1  0  0  0
  1 30  2  0  0  0
  1 82  1  0  0  0
  2  3  1  0  0  0
  2 25  1  0  0  0
  2 85  1  0  0  0
  2 86  1  0  0  0
  3  4  1  0  0  0
  3 87  1  0  0  0
  3 88  1  0  0  0
  4  5  1  0  0  0
  4 89  1  0  0  0
  4 90  1  0  0  0
  5  6  1  0  0  0
  5 26  1  0  0  0
  5 91  1  0  0  0
  6 25  1  0  0  0
  6 92  1  0  0  0
  6 93  1  0  0  0
  7  8  2  0  0  0
  7 26  1  0  0  0
  7 29  1  0  0  0
  8  9  1  0  0  0
  8 22  1  0  0  0
  9 10  1  0  0  0
  9 27  2  0  0  0
 10 11  2  0  0  0
 10 15  1  0  0  0
 11 12  1  0  0  0
 11 94  1  0  0  0
 12 13  2  0  0  0
 12 95  1  0  0  0
 13 14  1  0  0  0
 13 31  1  0  0  0
 14 15  2  0  0  0
 14 96  1  0  0  0
 15 97  1  0  0  0
 16 17  2  0  0  0
 16 21  1  0  0  0
 16 31  1  0  0  0
 17 18  1  0  0  0
 17 98  1  0  0  0
 18 19  2  0  0  0
 18 99  1  0  0  0
 19 20  1  0  0  0
 19 24  1  0  0  0
 20 21  2  0  0  0
 20100  1  0  0  0
 21 23  1  0  0  0
 22 28  1  0  0  0
 22 32  2  0  0  0
 26 27  1  0  0  0
 28101  1  0  0  0
 28102  1  0  0  0
 29103  1  0  0  0
 29104  1  0  0  0
 33 34  1  0  0  0
 33 66  1  0  0  0
 33 70  2  0  0  0
 34 36  1  0  0  0
 34 59  1  0  0  0
 34105  1  0  0  0
 35 44  2  0  0  0
 35 45  1  0  0  0
 35 68  1  0  0  0
 36 56  1  0  0  0
 36106  1  0  0  0
 37 39  1  0  0  0
 37 47  1  0  0  0
 37 66  1  0  0  0
 37107  1  0  0  0
 38 43  2  0  0  0
 38 46  1  0  0  0
 38 47  1  0  0  0
 39 64  1  0  0  0
 39 67  2  0  0  0
 40 52  1  0  0  0
 40 53  2  0  0  0
 40 58  1  0  0  0
 41108  1  0  0  0
 41109  1  0  0  0
 41110  1  0  0  0
 41 48  1  0  0  0
 42 43  1  0  0  0
 42 66  1  0  0  0
 42111  1  0  0  0
 42112  1  0  0  0
 43 44  1  0  0  0
 44113  1  0  0  0
 45 46  2  0  0  0
 45114  1  0  0  0
 46115  1  0  0  0
 47116  1  0  0  0
 47117  1  0  0  0
 48 56  1  0  0  0
 48 65  1  0  0  0
 48118  1  0  0  0
 49 50  1  0  0  0
 49 53  1  0  0  0
 49 64  1  0  0  0
 49119  1  0  0  0
 50 51  1  0  0  0
 50120  1  0  0  0
 50121  1  0  0  0
 51 52  1  0  0  0
 51122  1  0  0  0
 51123  1  0  0  0
 52124  1  0  0  0
 52125  1  0  0  0
 53 54  1  0  0  0
 54 55  2  0  0  0
 54126  1  0  0  0
 55 57  1  0  0  0
 55127  1  0  0  0
 56 69  2  0  0  0
 57 58  2  0  0  0
 57128  1  0  0  0
 58129  1  0  0  0
 59 60  1  0  0  0
 59 61  1  0  0  0
 59 62  1  0  0  0
 60130  1  0  0  0
 60131  1  0  0  0
 60132  1  0  0  0
 61133  1  0  0  0
 61134  1  0  0  0
 61135  1  0  0  0
 62136  1  0  0  0
 62137  1  0  0  0
 62138  1  0  0  0
 63 65  1  0  0  0
 63139  1  0  0  0
 63140  1  0  0  0
 63141  1  0  0  0
 64142  1  0  0  0
 65143  1  0  0  0
 68 80  1  0  0  0
 71 73  2  0  0  0
 71 75  1  0  0  0
 71144  1  0  0  0
 72 74  2  0  0  0
 72 76  1  0  0  0
 72145  1  0  0  0
 73 74  1  0  0  0
 73 77  1  0  0  0
 74 82  1  0  0  0
 75 76  2  0  0  0
 75 83  1  0  0  0
 76 84  1  0  0  0
 77146  1  0  0  0
 77147  1  0  0  0
 77148  1  0  0  0
 78 79  1  0  0  0
 78 80  1  0  0  0
 78149  1  0  0  0
 78150  1  0  0  0
 79 81  1  0  0  0
 79151  1  0  0  0
 79152  1  0  0  0
 80153  1  0  0  0
 80154  1  0  0  0
 81 83  1  0  0  0
 81155  1  0  0  0
 81156  1  0  0  0
 82157  1  0  0  0
M  ISO  4   1 100  68 101  80 101  82 100
M  END
> <chiral flag>
0

> <version>
0

> <s_m_source_file>
/data/baiqing/PycharmProjects/Reinvent-master-3.2/result/LINK_invent/BTK/process_docking_weight1_custom_product_contain_oxygen_bond_distance_aromatic_linkinvent_7_9_3/rearranged_h_0120.sdf

> <i_m_source_file_index>
39

> <r_mmod_Potential_Energy-OPLS-2005>
-17.9449729919434

> <r_mmod_Stretch_Energy-OPLS-2005>
39.570140838623

> <r_mmod_Bend_Energy-OPLS-2005>
106.970413208008

> <r_mmod_Torsional_Energy-OPLS-2005>
240.215179443359

> <r_mmod_Improper_Torsional_Energy-OPLS-2005>
4.78149223327637

> <r_mmod_Van_der_Waal_Energy-OPLS-2005>
150.127136230469

> <r_mmod_Electrostatic_Energy-OPLS-2005>
-359.981384277344

> <r_mmod_Solvation_Energy-OPLS-2005>
-214.199127197266

> <b_mmod_Minimization_Converged-OPLS-2005>
0

> <r_mmod_RMS_Derivative-OPLS-2005>
0.321707993745804

$$$$
39
                    3D
 Structure written by MMmdl.
166174  0  0  1  0            999 V2000
  -30.7548  -14.4741   20.5493 C   0  0  0  0  0  0
  -30.4000  -12.3029   19.4366 C   0  0  0  0  0  0
  -29.4812  -12.4943   18.2148 C   0  0  0  0  0  0
  -28.0052  -12.3644   18.6308 C   0  0  0  0  0  0
  -27.6578  -13.2175   19.8803 C   0  0  2  0  0  0
  -28.7053  -13.0423   21.0050 C   0  0  0  0  0  0
  -25.2566  -13.8199   20.5730 C   0  0  0  0  0  0
  -24.1830  -13.0438   20.9179 C   0  0  0  0  0  0
  -24.6415  -11.6925   20.8746 C   0  0  0  0  0  0
  -23.9091  -10.4302   21.0414 C   0  0  0  0  0  0
  -24.3641   -9.4220   21.9191 C   0  0  0  0  0  0
  -23.6317   -8.2256   22.0769 C   0  0  0  0  0  0
  -22.4304   -8.0288   21.3553 C   0  0  0  0  0  0
  -21.9935   -9.0267   20.4656 C   0  0  0  0  0  0
  -22.7259  -10.2147   20.3072 C   0  0  0  0  0  0
  -21.6863   -6.0748   22.5280 C   0  0  0  0  0  0
  -21.4020   -6.5653   23.8204 C   0  0  0  0  0  0
  -21.3663   -5.6804   24.9166 C   0  0  0  0  0  0
  -21.6048   -4.3071   24.7212 C   0  0  0  0  0  0
  -21.8816   -3.8158   23.4337 C   0  0  0  0  0  0
  -21.9204   -4.6982   22.3391 C   0  0  0  0  0  0
  -22.7851  -13.5226   21.1801 C   0  0  0  0  0  0
  -22.1675   -4.2175   21.0968 F   0  0  0  0  0  0
  -21.5624   -3.4552   25.7723 F   0  0  0  0  0  0
  -30.0312  -13.3237   20.4337 N   0  0  0  0  0  0
  -26.3020  -12.9395   20.3449 N   0  0  0  0  0  0
  -25.9350  -11.6546   20.5838 N   0  0  0  0  0  0
  -22.0522  -12.8210   22.0371 N   0  0  0  0  0  0
  -25.4207  -15.1910   20.4140 N   0  0  0  0  0  0
  -31.8727  -14.5760   20.0410 O   0  0  0  0  0  0
  -21.6659   -6.8898   21.4245 O   0  0  0  0  0  0
  -22.3520  -14.5513   20.6638 O   0  0  0  0  0  0
  -24.6161  -31.8694   23.2112 C   0  0  0  0  0  0
  -25.9030  -32.4852   23.8407 C   0  0  1  0  0  0
  -27.2153  -27.3960   20.0790 C   0  0  0  0  0  0
  -25.5862  -33.8651   24.2323 N   0  0  0  0  0  0
  -23.4055  -30.4971   21.5586 C   0  0  2  0  0  0
  -24.8434  -28.9673   20.1195 C   0  0  0  0  0  0
  -22.7424  -29.4670   22.5024 C   0  0  0  0  0  0
  -18.0277  -28.1370   22.8508 C   0  0  0  0  0  0
  -24.1497  -36.7330   23.2645 C   0  0  0  0  0  0
  -25.9436  -30.8192   21.3770 C   0  0  0  0  0  0
  -26.0149  -29.4570   20.7100 C   0  0  0  0  0  0
  -27.2054  -28.6812   20.6827 C   0  0  0  0  0  0
  -26.0094  -26.9402   19.4843 C   0  0  0  0  0  0
  -24.8366  -27.7093   19.5066 C   0  0  0  0  0  0
  -23.6097  -29.8382   20.1733 C   0  0  0  0  0  0
  -25.4124  -36.3154   24.0349 C   0  0  1  0  0  0
  -20.5865  -28.3662   23.1324 C   0  0  2  0  0  0
  -20.6774  -26.9404   22.5419 C   0  0  0  0  0  0
  -19.5763  -26.6384   21.5210 C   0  0  0  0  0  0
  -18.1932  -26.7925   22.1624 C   0  0  0  0  0  0
  -19.1525  -28.8838   23.2919 C   0  0  0  0  0  0
  -18.9447  -30.1453   23.8912 C   0  0  0  0  0  0
  -17.6455  -30.6598   24.0551 C   0  0  0  0  0  0
  -25.9037  -34.9506   23.5143 C   0  0  0  0  0  0
  -16.5337  -29.9078   23.6347 C   0  0  0  0  0  0
  -16.7259  -28.6493   23.0375 C   0  0  0  0  0  0
  -26.4416  -31.6648   25.0761 C   0  0  0  0  0  0
  -25.3618  -31.3753   26.1461 C   0  0  0  0  0  0
  -27.0254  -30.3080   24.6188 C   0  0  0  0  0  0
  -27.6015  -32.4362   25.7484 C   0  0  0  0  0  0
  -27.5621  -37.1830   24.8468 C   0  0  0  0  0  0
  -21.4153  -29.3032   22.3746 N   0  0  0  0  0  0
  -26.4328  -37.3828   23.9402 N   0  0  0  0  0  0
  -24.6739  -31.0754   22.1048 N   0  0  0  0  0  0
  -23.4183  -28.8181   23.3053 O   0  0  0  0  0  0
  -28.3651  -26.6062   20.0954 O   0  0  0  0  0  0
  -26.5636  -34.8942   22.4727 O   0  0  0  0  0  0
  -23.5339  -32.1465   23.7476 O   0  0  0  0  0  0
  -29.9312  -18.0357   21.0681 C   0  0  0  0  0  0
  -32.0955  -17.0433   21.5151 C   0  0  0  0  0  0
  -30.5015  -19.3419   21.1186 C   0  0  0  0  0  0
  -32.6917  -18.3155   21.5728 C   0  0  0  0  0  0
  -31.9031  -19.4824   21.3645 C   0  0  0  0  0  0
  -30.7240  -16.8693   21.2273 C   0  0  0  0  0  0
  -29.5856  -20.5078   20.9628 C   0  0  0  0  0  0
  -29.6945  -21.5615   20.1166 C   0  0  0  0  0  0
  -35.0308  -18.3228   20.5730 C   0  0  0  0  0  0
  -32.3034  -21.5522   22.8163 C   0  0  0  0  0  0
  -34.1919  -18.3575   21.8590 C   0  0  0  0  0  0
  -32.5564  -20.8652   21.4657 C   0  0  0  0  0  0
  -28.7057  -22.7244   20.0403 C   0  0  0  0  0  0
  -29.2797  -24.1720   20.1323 C   0  0  0  0  0  0
  -28.1393  -25.1919   19.8750 C   0  0  0  0  0  0
  -30.1522  -15.5485   21.1150 N   0  0  0  0  0  0
  -31.4477  -12.3528   19.1347 H   0  0  0  0  0  0
  -30.2636  -11.3082   19.8658 H   0  0  0  0  0  0
  -29.7151  -11.7526   17.4509 H   0  0  0  0  0  0
  -29.6525  -13.4717   17.7617 H   0  0  0  0  0  0
  -27.8083  -11.3097   18.8284 H   0  0  0  0  0  0
  -27.3554  -12.6430   17.7995 H   0  0  0  0  0  0
  -27.6923  -14.2595   19.5647 H   0  0  0  0  0  0
  -28.6843  -12.0228   21.3944 H   0  0  0  0  0  0
  -28.4795  -13.6854   21.8560 H   0  0  0  0  0  0
  -25.2798   -9.5705   22.4750 H   0  0  0  0  0  0
  -24.0044   -7.4662   22.7494 H   0  0  0  0  0  0
  -21.0875   -8.8789   19.8948 H   0  0  0  0  0  0
  -22.3733  -10.9694   19.6185 H   0  0  0  0  0  0
  -21.2026   -7.6163   23.9707 H   0  0  0  0  0  0
  -21.1476   -6.0540   25.9062 H   0  0  0  0  0  0
  -22.0599   -2.7628   23.2820 H   0  0  0  0  0  0
  -22.4218  -11.9906   22.4747 H   0  0  0  0  0  0
  -21.1142  -13.1216   22.2596 H   0  0  0  0  0  0
  -24.6464  -15.8376   20.5246 H   0  0  0  0  0  0
  -26.2656  -15.6401   20.0834 H   0  0  0  0  0  0
  -26.7092  -32.5521   23.1161 H   0  0  0  0  0  0
  -24.9918  -33.9796   25.0405 H   0  0  0  0  0  0
  -22.6973  -31.3171   21.4250 H   0  0  0  0  0  0
  -23.3788  -35.9634   23.3319 H   0  0  0  0  0  0
  -24.3570  -36.8919   22.2051 H   0  0  0  0  0  0
  -23.7211  -37.6528   23.6632 H   0  0  0  0  0  0
  -26.0763  -31.5904   20.6167 H   0  0  0  0  0  0
  -26.8238  -30.8534   22.0093 H   0  0  0  0  0  0
  -28.1123  -29.0507   21.1389 H   0  0  0  0  0  0
  -25.9221  -25.9812   18.9960 H   0  0  0  0  0  0
  -23.9298  -27.3278   19.0555 H   0  0  0  0  0  0
  -23.7158  -30.6136   19.4136 H   0  0  0  0  0  0
  -22.7273  -29.2641   19.8860 H   0  0  0  0  0  0
  -25.1309  -36.2033   25.0848 H   0  0  0  0  0  0
  -20.9969  -28.3209   24.1439 H   0  0  0  0  0  0
  -20.5678  -26.2262   23.3592 H   0  0  0  0  0  0
  -21.6640  -26.7453   22.1209 H   0  0  0  0  0  0
  -19.6923  -25.6286   21.1274 H   0  0  0  0  0  0
  -19.6705  -27.3167   20.6707 H   0  0  0  0  0  0
  -17.4204  -26.6669   21.4026 H   0  0  0  0  0  0
  -18.0332  -26.0047   22.9002 H   0  0  0  0  0  0
  -19.7916  -30.7274   24.2289 H   0  0  0  0  0  0
  -17.4996  -31.6283   24.5139 H   0  0  0  0  0  0
  -15.5346  -30.2970   23.7689 H   0  0  0  0  0  0
  -15.8654  -28.0810   22.7103 H   0  0  0  0  0  0
  -24.5795  -30.7122   25.7754 H   0  0  0  0  0  0
  -24.8779  -32.2891   26.4925 H   0  0  0  0  0  0
  -25.7881  -30.8882   27.0232 H   0  0  0  0  0  0
  -26.2833  -29.6863   24.1175 H   0  0  0  0  0  0
  -27.3914  -29.7313   25.4691 H   0  0  0  0  0  0
  -27.8702  -30.4413   23.9425 H   0  0  0  0  0  0
  -27.2698  -33.3679   26.2084 H   0  0  0  0  0  0
  -28.3779  -32.6903   25.0252 H   0  0  0  0  0  0
  -28.0725  -31.8474   26.5360 H   0  0  0  0  0  0
  -28.2670  -38.0121   24.7554 H   0  0  0  0  0  0
  -28.1113  -36.2654   24.6272 H   0  0  0  0  0  0
  -27.2332  -37.1452   25.8876 H   0  0  0  0  0  0
  -20.9307  -29.8742   21.6971 H   0  0  0  0  0  0
  -26.0254  -38.2937   24.1342 H   0  0  0  0  0  0
  -28.8704  -17.9344   20.8811 H   0  0  0  0  0  0
  -32.7312  -16.1846   21.6828 H   0  0  0  0  0  0
  -28.7438  -20.4980   21.6425 H   0  0  0  0  0  0
  -30.5058  -21.6041   19.4032 H   0  0  0  0  0  0
  -36.0969  -18.3655   20.8016 H   0  0  0  0  0  0
  -34.7897  -19.1595   19.9187 H   0  0  0  0  0  0
  -34.8544  -17.4065   20.0081 H   0  0  0  0  0  0
  -32.8086  -22.5176   22.8589 H   0  0  0  0  0  0
  -32.6760  -20.9485   23.6443 H   0  0  0  0  0  0
  -31.2411  -21.7371   22.9809 H   0  0  0  0  0  0
  -34.4642  -17.4950   22.4699 H   0  0  0  0  0  0
  -34.4543  -19.2162   22.4777 H   0  0  0  0  0  0
  -32.2267  -21.5051   20.6537 H   0  0  0  0  0  0
  -33.6285  -20.8078   21.2931 H   0  0  0  0  0  0
  -27.9552  -22.5964   20.8221 H   0  0  0  0  0  0
  -28.1756  -22.6167   19.0937 H   0  0  0  0  0  0
  -30.0774  -24.3147   19.4000 H   0  0  0  0  0  0
  -29.7126  -24.3371   21.1190 H   0  0  0  0  0  0
  -27.3033  -24.8882   20.5076 H   0  0  0  0  0  0
  -27.8357  -25.0497   18.8390 H   0  0  0  0  0  0
  -29.1858  -15.4357   21.3781 H   0  0  0  0  0  0
  1 25  1  0  0  0
  1 30  2  0  0  0
  1 86  1  0  0  0
  2  3  1  0  0  0
  2 25  1  0  0  0
  2 87  1  0  0  0
  2 88  1  0  0  0
  3  4  1  0  0  0
  3 89  1  0  0  0
  3 90  1  0  0  0
  4  5  1  0  0  0
  4 91  1  0  0  0
  4 92  1  0  0  0
  5  6  1  0  0  0
  5 26  1  0  0  0
  5 93  1  0  0  0
  6 25  1  0  0  0
  6 94  1  0  0  0
  6 95  1  0  0  0
  7  8  2  0  0  0
  7 26  1  0  0  0
  7 29  1  0  0  0
  8  9  1  0  0  0
  8 22  1  0  0  0
  9 10  1  0  0  0
  9 27  2  0  0  0
 10 11  2  0  0  0
 10 15  1  0  0  0
 11 12  1  0  0  0
 11 96  1  0  0  0
 12 13  2  0  0  0
 12 97  1  0  0  0
 13 14  1  0  0  0
 13 31  1  0  0  0
 14 15  2  0  0  0
 14 98  1  0  0  0
 15 99  1  0  0  0
 16 17  2  0  0  0
 16 21  1  0  0  0
 16 31  1  0  0  0
 17 18  1  0  0  0
 17100  1  0  0  0
 18 19  2  0  0  0
 18101  1  0  0  0
 19 20  1  0  0  0
 19 24  1  0  0  0
 20 21  2  0  0  0
 20102  1  0  0  0
 21 23  1  0  0  0
 22 28  1  0  0  0
 22 32  2  0  0  0
 26 27  1  0  0  0
 28103  1  0  0  0
 28104  1  0  0  0
 29105  1  0  0  0
 29106  1  0  0  0
 33 34  1  0  0  0
 33 66  1  0  0  0
 33 70  2  0  0  0
 34 36  1  0  0  0
 34 59  1  0  0  0
 34107  1  0  0  0
 35 44  2  0  0  0
 35 45  1  0  0  0
 35 68  1  0  0  0
 36 56  1  0  0  0
 36108  1  0  0  0
 37 39  1  0  0  0
 37 47  1  0  0  0
 37 66  1  0  0  0
 37109  1  0  0  0
 38 43  2  0  0  0
 38 46  1  0  0  0
 38 47  1  0  0  0
 39 64  1  0  0  0
 39 67  2  0  0  0
 40 52  1  0  0  0
 40 53  2  0  0  0
 40 58  1  0  0  0
 41110  1  0  0  0
 41111  1  0  0  0
 41112  1  0  0  0
 41 48  1  0  0  0
 42 43  1  0  0  0
 42 66  1  0  0  0
 42113  1  0  0  0
 42114  1  0  0  0
 43 44  1  0  0  0
 44115  1  0  0  0
 45 46  2  0  0  0
 45116  1  0  0  0
 46117  1  0  0  0
 47118  1  0  0  0
 47119  1  0  0  0
 48 56  1  0  0  0
 48 65  1  0  0  0
 48120  1  0  0  0
 49 50  1  0  0  0
 49 53  1  0  0  0
 49 64  1  0  0  0
 49121  1  0  0  0
 50 51  1  0  0  0
 50122  1  0  0  0
 50123  1  0  0  0
 51 52  1  0  0  0
 51124  1  0  0  0
 51125  1  0  0  0
 52126  1  0  0  0
 52127  1  0  0  0
 53 54  1  0  0  0
 54 55  2  0  0  0
 54128  1  0  0  0
 55 57  1  0  0  0
 55129  1  0  0  0
 56 69  2  0  0  0
 57 58  2  0  0  0
 57130  1  0  0  0
 58131  1  0  0  0
 59 60  1  0  0  0
 59 61  1  0  0  0
 59 62  1  0  0  0
 60132  1  0  0  0
 60133  1  0  0  0
 60134  1  0  0  0
 61135  1  0  0  0
 61136  1  0  0  0
 61137  1  0  0  0
 62138  1  0  0  0
 62139  1  0  0  0
 62140  1  0  0  0
 63 65  1  0  0  0
 63141  1  0  0  0
 63142  1  0  0  0
 63143  1  0  0  0
 64144  1  0  0  0
 65145  1  0  0  0
 68 85  1  0  0  0
 71 73  2  0  0  0
 71 76  1  0  0  0
 71146  1  0  0  0
 72 74  1  0  0  0
 72 76  2  0  0  0
 72147  1  0  0  0
 73 75  1  0  0  0
 73 77  1  0  0  0
 74 75  2  0  0  0
 74 81  1  0  0  0
 75 82  1  0  0  0
 76 86  1  0  0  0
 77 78  2  0  0  0
 77148  1  0  0  0
 78 83  1  0  0  0
 78149  1  0  0  0
 79 81  1  0  0  0
 79150  1  0  0  0
 79151  1  0  0  0
 79152  1  0  0  0
 80 82  1  0  0  0
 80153  1  0  0  0
 80154  1  0  0  0
 80155  1  0  0  0
 81156  1  0  0  0
 81157  1  0  0  0
 82158  1  0  0  0
 82159  1  0  0  0
 83 84  1  0  0  0
 83160  1  0  0  0
 83161  1  0  0  0
 84 85  1  0  0  0
 84162  1  0  0  0
 84163  1  0  0  0
 85164  1  0  0  0
 85165  1  0  0  0
 86166  1  0  0  0
M  ISO  4   1 100  68 101  85 101  86 100
M  END
> <chiral flag>
0

> <version>
0

> <s_m_source_file>
/data/baiqing/PycharmProjects/Reinvent-master-3.2/result/LINK_invent/BTK/process_docking_weight1_custom_product_contain_oxygen_bond_distance_aromatic_linkinvent_7_9_3/rearranged_h_0120.sdf

> <i_m_source_file_index>
40

> <r_mmod_Potential_Energy-OPLS-2005>
17.8271560668945

> <r_mmod_Stretch_Energy-OPLS-2005>
47.9302825927734

> <r_mmod_Bend_Energy-OPLS-2005>
111.335655212402

> <r_mmod_Torsional_Energy-OPLS-2005>
228.502532958984

> <r_mmod_Improper_Torsional_Energy-OPLS-2005>
3.50747990608215

> <r_mmod_Van_der_Waal_Energy-OPLS-2005>
171.837371826172

> <r_mmod_Electrostatic_Energy-OPLS-2005>
-368.51171875

> <r_mmod_Solvation_Energy-OPLS-2005>
-196.845977783203

> <b_mmod_Minimization_Converged-OPLS-2005>
0

> <r_mmod_RMS_Derivative-OPLS-2005>
3.20873141288757

$$$$
40
                    3D
 Structure written by MMmdl.
161169  0  0  1  0            999 V2000
  -30.6896  -14.5808   20.5143 C   0  0  0  0  0  0
  -30.4230  -12.3670   19.4411 C   0  0  0  0  0  0
  -29.4955  -12.4900   18.2162 C   0  0  0  0  0  0
  -28.0199  -12.3500   18.6357 C   0  0  0  0  0  0
  -27.6520  -13.2231   19.8664 C   0  0  2  0  0  0
  -28.6997  -13.0925   20.9953 C   0  0  0  0  0  0
  -25.2503  -13.8147   20.5642 C   0  0  0  0  0  0
  -24.1795  -13.0429   20.9169 C   0  0  0  0  0  0
  -24.6382  -11.6904   20.8728 C   0  0  0  0  0  0
  -23.9048  -10.4290   21.0391 C   0  0  0  0  0  0
  -24.3601   -9.4211   21.9182 C   0  0  0  0  0  0
  -23.6276   -8.2252   22.0755 C   0  0  0  0  0  0
  -22.4262   -8.0278   21.3539 C   0  0  0  0  0  0
  -21.9891   -9.0254   20.4651 C   0  0  0  0  0  0
  -22.7210  -10.2139   20.3050 C   0  0  0  0  0  0
  -21.6848   -6.0722   22.5279 C   0  0  0  0  0  0
  -21.4010   -6.5629   23.8208 C   0  0  0  0  0  0
  -21.3655   -5.6781   24.9177 C   0  0  0  0  0  0
  -21.6030   -4.3041   24.7220 C   0  0  0  0  0  0
  -21.8813   -3.8129   23.4341 C   0  0  0  0  0  0
  -21.9190   -4.6950   22.3403 C   0  0  0  0  0  0
  -22.7822  -13.5226   21.1866 C   0  0  0  0  0  0
  -22.1665   -4.2133   21.0980 F   0  0  0  0  0  0
  -21.5622   -3.4536   25.7739 F   0  0  0  0  0  0
  -30.0133  -13.3987   20.4144 N   0  0  0  0  0  0
  -26.2987  -12.9380   20.3362 N   0  0  0  0  0  0
  -25.9322  -11.6520   20.5785 N   0  0  0  0  0  0
  -22.0474  -12.8236   22.0428 N   0  0  0  0  0  0
  -25.4116  -15.1855   20.4003 N   0  0  0  0  0  0
  -31.8605  -14.6773   20.1398 O   0  0  0  0  0  0
  -21.6629   -6.8876   21.4241 O   0  0  0  0  0  0
  -22.3525  -14.5564   20.6753 O   0  0  0  0  0  0
  -24.6213  -31.8641   23.2048 C   0  0  0  0  0  0
  -25.9088  -32.4796   23.8345 C   0  0  1  0  0  0
  -27.2274  -27.3712   20.1166 C   0  0  0  0  0  0
  -25.5927  -33.8597   24.2285 N   0  0  0  0  0  0
  -23.4104  -30.4861   21.5474 C   0  0  2  0  0  0
  -24.8586  -28.9427   20.1130 C   0  0  0  0  0  0
  -22.7432  -29.4646   22.4974 C   0  0  0  0  0  0
  -18.0293  -28.1346   22.8472 C   0  0  0  0  0  0
  -24.1487  -36.7298   23.2631 C   0  0  0  0  0  0
  -25.9452  -30.8108   21.3645 C   0  0  0  0  0  0
  -26.0235  -29.4407   20.7114 C   0  0  0  0  0  0
  -27.2156  -28.6668   20.7024 C   0  0  0  0  0  0
  -26.0478  -26.9050   19.5008 C   0  0  0  0  0  0
  -24.8693  -27.6785   19.4974 C   0  0  0  0  0  0
  -23.6206  -29.8154   20.1629 C   0  0  0  0  0  0
  -25.4111  -36.3100   24.0326 C   0  0  1  0  0  0
  -20.5881  -28.3663   23.1293 C   0  0  2  0  0  0
  -20.6794  -26.9395   22.5413 C   0  0  0  0  0  0
  -19.5769  -26.6365   21.5203 C   0  0  0  0  0  0
  -18.1947  -26.7905   22.1585 C   0  0  0  0  0  0
  -19.1533  -28.8817   23.2873 C   0  0  0  0  0  0
  -18.9454  -30.1420   23.8897 C   0  0  0  0  0  0
  -17.6458  -30.6548   24.0538 C   0  0  0  0  0  0
  -25.9048  -34.9467   23.5105 C   0  0  0  0  0  0
  -16.5351  -29.9043   23.6294 C   0  0  0  0  0  0
  -16.7274  -28.6454   23.0328 C   0  0  0  0  0  0
  -26.4491  -31.6589   25.0688 C   0  0  0  0  0  0
  -25.3719  -31.3743   26.1409 C   0  0  0  0  0  0
  -27.0323  -30.3019   24.6099 C   0  0  0  0  0  0
  -27.6060  -32.4302   25.7468 C   0  0  0  0  0  0
  -27.5583  -37.1808   24.8468 C   0  0  0  0  0  0
  -21.4152  -29.3046   22.3715 N   0  0  0  0  0  0
  -26.4302  -37.3789   23.9411 N   0  0  0  0  0  0
  -24.6773  -31.0694   22.0968 N   0  0  0  0  0  0
  -23.4175  -28.8191   23.3033 O   0  0  0  0  0  0
  -28.3474  -26.5482   20.1346 O   0  0  0  0  0  0
  -26.5620  -34.8936   22.4673 O   0  0  0  0  0  0
  -23.5404  -32.1430   23.7398 O   0  0  0  0  0  0
  -28.2439  -20.0292   20.7379 C   0  0  0  0  0  0
  -28.3783  -18.5995   20.8387 C   0  0  0  0  0  0
  -29.5028  -20.5688   20.7163 C   0  0  0  0  0  0
  -29.7190  -18.3147   20.8657 C   0  0  0  0  0  0
  -30.0983  -21.8983   20.6137 C   0  0  0  0  0  0
  -29.7425  -23.2032   20.3993 C   0  0  0  0  0  0
  -26.1061  -16.7742   24.3399 C   0  0  0  0  0  0
  -30.6008  -17.0602   20.9733 C   0  0  0  0  0  0
  -28.3989  -23.9126   20.1322 C   0  0  0  0  0  0
  -27.0159  -16.7904   23.1063 C   0  0  0  0  0  0
  -28.2021  -25.2932   20.8753 C   0  0  0  0  0  0
  -26.5364  -17.7896   22.0439 C   0  0  0  0  0  0
  -29.9946  -15.6965   20.8728 N   0  0  0  0  0  0
  -30.3957  -19.5161   20.7992 O   0  0  0  0  0  0
  -27.3584  -17.6854   20.8863 O   0  0  0  0  0  0
  -31.4622  -12.4705   19.1254 H   0  0  0  0  0  0
  -30.3497  -11.3755   19.8863 H   0  0  0  0  0  0
  -29.7452  -11.7262   17.4786 H   0  0  0  0  0  0
  -29.6559  -13.4507   17.7230 H   0  0  0  0  0  0
  -27.8369  -11.2989   18.8606 H   0  0  0  0  0  0
  -27.3723  -12.5973   17.7944 H   0  0  0  0  0  0
  -27.6694  -14.2590   19.5258 H   0  0  0  0  0  0
  -28.7038  -12.0856   21.4169 H   0  0  0  0  0  0
  -28.4641  -13.7601   21.8256 H   0  0  0  0  0  0
  -25.2761   -9.5676   22.4747 H   0  0  0  0  0  0
  -23.9957   -7.4638   22.7483 H   0  0  0  0  0  0
  -21.0815   -8.8763   19.8978 H   0  0  0  0  0  0
  -22.3656  -10.9664   19.6143 H   0  0  0  0  0  0
  -21.2006   -7.6137   23.9711 H   0  0  0  0  0  0
  -21.1487   -6.0519   25.9079 H   0  0  0  0  0  0
  -22.0604   -2.7591   23.2849 H   0  0  0  0  0  0
  -22.4045  -11.9877   22.4801 H   0  0  0  0  0  0
  -21.1099  -13.1277   22.2627 H   0  0  0  0  0  0
  -24.6501  -15.8316   20.5704 H   0  0  0  0  0  0
  -26.2767  -15.6567   20.1655 H   0  0  0  0  0  0
  -26.7143  -32.5492   23.1091 H   0  0  0  0  0  0
  -25.0084  -33.9748   25.0432 H   0  0  0  0  0  0
  -22.7026  -31.3057   21.4051 H   0  0  0  0  0  0
  -23.3749  -35.9634   23.3313 H   0  0  0  0  0  0
  -24.3572  -36.8904   22.2045 H   0  0  0  0  0  0
  -23.7250  -37.6504   23.6642 H   0  0  0  0  0  0
  -26.0645  -31.5711   20.5914 H   0  0  0  0  0  0
  -26.8304  -30.8664   21.9870 H   0  0  0  0  0  0
  -28.1130  -29.0446   21.1736 H   0  0  0  0  0  0
  -26.0405  -25.9304   19.0321 H   0  0  0  0  0  0
  -23.9777  -27.2906   19.0222 H   0  0  0  0  0  0
  -23.7276  -30.5884   19.4013 H   0  0  0  0  0  0
  -22.7425  -29.2363   19.8702 H   0  0  0  0  0  0
  -25.1294  -36.1952   25.0821 H   0  0  0  0  0  0
  -20.9972  -28.3236   24.1411 H   0  0  0  0  0  0
  -20.5706  -26.2291   23.3622 H   0  0  0  0  0  0
  -21.6683  -26.7448   22.1216 H   0  0  0  0  0  0
  -19.6953  -25.6282   21.1229 H   0  0  0  0  0  0
  -19.6734  -27.3193   20.6741 H   0  0  0  0  0  0
  -17.4247  -26.6658   21.3968 H   0  0  0  0  0  0
  -18.0311  -26.0015   22.8951 H   0  0  0  0  0  0
  -19.7925  -30.7235   24.2291 H   0  0  0  0  0  0
  -17.4995  -31.6238   24.5107 H   0  0  0  0  0  0
  -15.5340  -30.2929   23.7603 H   0  0  0  0  0  0
  -15.8686  -28.0765   22.7039 H   0  0  0  0  0  0
  -24.5871  -30.7126   25.7743 H   0  0  0  0  0  0
  -24.8914  -32.2916   26.4824 H   0  0  0  0  0  0
  -25.8011  -30.8917   27.0191 H   0  0  0  0  0  0
  -26.2887  -29.6784   24.1112 H   0  0  0  0  0  0
  -27.4053  -29.7270   25.4590 H   0  0  0  0  0  0
  -27.8745  -30.4338   23.9293 H   0  0  0  0  0  0
  -27.2674  -33.3591   26.2068 H   0  0  0  0  0  0
  -28.3859  -32.6871   25.0289 H   0  0  0  0  0  0
  -28.0719  -31.8387   26.5363 H   0  0  0  0  0  0
  -28.2611  -38.0086   24.7499 H   0  0  0  0  0  0
  -28.1058  -36.2630   24.6305 H   0  0  0  0  0  0
  -27.2296  -37.1476   25.8863 H   0  0  0  0  0  0
  -20.9300  -29.8814   21.6980 H   0  0  0  0  0  0
  -26.0185  -38.2871   24.1389 H   0  0  0  0  0  0
  -27.3243  -20.5934   20.6951 H   0  0  0  0  0  0
  -31.1676  -21.8178   20.7553 H   0  0  0  0  0  0
  -30.5677  -23.9028   20.3926 H   0  0  0  0  0  0
  -26.5071  -16.1201   25.1145 H   0  0  0  0  0  0
  -25.1057  -16.4193   24.0852 H   0  0  0  0  0  0
  -26.0088  -17.7739   24.7679 H   0  0  0  0  0  0
  -31.1281  -17.0993   21.9266 H   0  0  0  0  0  0
  -31.3838  -17.1559   20.2197 H   0  0  0  0  0  0
  -27.6036  -23.2266   20.4230 H   0  0  0  0  0  0
  -28.2869  -24.0601   19.0575 H   0  0  0  0  0  0
  -27.0633  -15.7875   22.6816 H   0  0  0  0  0  0
  -28.0329  -17.0441   23.4047 H   0  0  0  0  0  0
  -28.8996  -25.3443   21.7141 H   0  0  0  0  0  0
  -27.2184  -25.2656   21.3498 H   0  0  0  0  0  0
  -26.5276  -18.7992   22.4598 H   0  0  0  0  0  0
  -25.5071  -17.5730   21.7570 H   0  0  0  0  0  0
  -29.0149  -15.6016   21.0925 H   0  0  0  0  0  0
  1 25  1  0  0  0
  1 30  2  0  0  0
  1 83  1  0  0  0
  2  3  1  0  0  0
  2 25  1  0  0  0
  2 86  1  0  0  0
  2 87  1  0  0  0
  3  4  1  0  0  0
  3 88  1  0  0  0
  3 89  1  0  0  0
  4  5  1  0  0  0
  4 90  1  0  0  0
  4 91  1  0  0  0
  5  6  1  0  0  0
  5 26  1  0  0  0
  5 92  1  0  0  0
  6 25  1  0  0  0
  6 93  1  0  0  0
  6 94  1  0  0  0
  7  8  2  0  0  0
  7 26  1  0  0  0
  7 29  1  0  0  0
  8  9  1  0  0  0
  8 22  1  0  0  0
  9 10  1  0  0  0
  9 27  2  0  0  0
 10 11  2  0  0  0
 10 15  1  0  0  0
 11 12  1  0  0  0
 11 95  1  0  0  0
 12 13  2  0  0  0
 12 96  1  0  0  0
 13 14  1  0  0  0
 13 31  1  0  0  0
 14 15  2  0  0  0
 14 97  1  0  0  0
 15 98  1  0  0  0
 16 17  2  0  0  0
 16 21  1  0  0  0
 16 31  1  0  0  0
 17 18  1  0  0  0
 17 99  1  0  0  0
 18 19  2  0  0  0
 18100  1  0  0  0
 19 20  1  0  0  0
 19 24  1  0  0  0
 20 21  2  0  0  0
 20101  1  0  0  0
 21 23  1  0  0  0
 22 28  1  0  0  0
 22 32  2  0  0  0
 26 27  1  0  0  0
 28102  1  0  0  0
 28103  1  0  0  0
 29104  1  0  0  0
 29105  1  0  0  0
 33 34  1  0  0  0
 33 66  1  0  0  0
 33 70  2  0  0  0
 34 36  1  0  0  0
 34 59  1  0  0  0
 34106  1  0  0  0
 35 44  2  0  0  0
 35 45  1  0  0  0
 35 68  1  0  0  0
 36 56  1  0  0  0
 36107  1  0  0  0
 37 39  1  0  0  0
 37 47  1  0  0  0
 37 66  1  0  0  0
 37108  1  0  0  0
 38 43  2  0  0  0
 38 46  1  0  0  0
 38 47  1  0  0  0
 39 64  1  0  0  0
 39 67  2  0  0  0
 40 52  1  0  0  0
 40 53  2  0  0  0
 40 58  1  0  0  0
 41109  1  0  0  0
 41110  1  0  0  0
 41111  1  0  0  0
 41 48  1  0  0  0
 42 43  1  0  0  0
 42 66  1  0  0  0
 42112  1  0  0  0
 42113  1  0  0  0
 43 44  1  0  0  0
 44114  1  0  0  0
 45 46  2  0  0  0
 45115  1  0  0  0
 46116  1  0  0  0
 47117  1  0  0  0
 47118  1  0  0  0
 48 56  1  0  0  0
 48 65  1  0  0  0
 48119  1  0  0  0
 49 50  1  0  0  0
 49 53  1  0  0  0
 49 64  1  0  0  0
 49120  1  0  0  0
 50 51  1  0  0  0
 50121  1  0  0  0
 50122  1  0  0  0
 51 52  1  0  0  0
 51123  1  0  0  0
 51124  1  0  0  0
 52125  1  0  0  0
 52126  1  0  0  0
 53 54  1  0  0  0
 54 55  2  0  0  0
 54127  1  0  0  0
 55 57  1  0  0  0
 55128  1  0  0  0
 56 69  2  0  0  0
 57 58  2  0  0  0
 57129  1  0  0  0
 58130  1  0  0  0
 59 60  1  0  0  0
 59 61  1  0  0  0
 59 62  1  0  0  0
 60131  1  0  0  0
 60132  1  0  0  0
 60133  1  0  0  0
 61134  1  0  0  0
 61135  1  0  0  0
 61136  1  0  0  0
 62137  1  0  0  0
 62138  1  0  0  0
 62139  1  0  0  0
 63 65  1  0  0  0
 63140  1  0  0  0
 63141  1  0  0  0
 63142  1  0  0  0
 64143  1  0  0  0
 65144  1  0  0  0
 68 81  1  0  0  0
 71 72  1  0  0  0
 71 73  2  0  0  0
 71145  1  0  0  0
 72 74  2  0  0  0
 72 85  1  0  0  0
 73 75  1  0  0  0
 73 84  1  0  0  0
 74 78  1  0  0  0
 74 84  1  0  0  0
 75 76  2  0  0  0
 75146  1  0  0  0
 76 79  1  0  0  0
 76147  1  0  0  0
 77 80  1  0  0  0
 77148  1  0  0  0
 77149  1  0  0  0
 77150  1  0  0  0
 78 83  1  0  0  0
 78151  1  0  0  0
 78152  1  0  0  0
 79 81  1  0  0  0
 79153  1  0  0  0
 79154  1  0  0  0
 80 82  1  0  0  0
 80155  1  0  0  0
 80156  1  0  0  0
 81157  1  0  0  0
 81158  1  0  0  0
 82 85  1  0  0  0
 82159  1  0  0  0
 82160  1  0  0  0
 83161  1  0  0  0
M  ISO  4   1 100  68 101  81 101  83 100
M  END
> <chiral flag>
0

> <version>
0

> <s_m_source_file>
/data/baiqing/PycharmProjects/Reinvent-master-3.2/result/LINK_invent/BTK/process_docking_weight1_custom_product_contain_oxygen_bond_distance_aromatic_linkinvent_7_9_3/rearranged_h_0120.sdf

> <i_m_source_file_index>
41

> <r_mmod_Potential_Energy-OPLS-2005>
-30.6925983428955

> <r_mmod_Stretch_Energy-OPLS-2005>
54.9992294311523

> <r_mmod_Bend_Energy-OPLS-2005>
140.680313110352

> <r_mmod_Torsional_Energy-OPLS-2005>
239.781433105469

> <r_mmod_Improper_Torsional_Energy-OPLS-2005>
3.55669498443604

> <r_mmod_Van_der_Waal_Energy-OPLS-2005>
110.244956970215

> <r_mmod_Electrostatic_Energy-OPLS-2005>
-414.767669677734

> <r_mmod_Solvation_Energy-OPLS-2005>
-198.185958862305

> <b_mmod_Minimization_Converged-OPLS-2005>
0

> <r_mmod_RMS_Derivative-OPLS-2005>
3.21610832214355

$$$$
41
                    3D
 Structure written by MMmdl.
154162  0  0  1  0            999 V2000
  -30.5994  -14.6519   20.4441 C   0  0  0  0  0  0
  -30.4467  -12.3898   19.4468 C   0  0  0  0  0  0
  -29.5150  -12.4974   18.2192 C   0  0  0  0  0  0
  -28.0369  -12.3318   18.6313 C   0  0  0  0  0  0
  -27.6510  -13.2037   19.8567 C   0  0  2  0  0  0
  -28.7016  -13.0774   20.9821 C   0  0  0  0  0  0
  -25.2570  -13.8119   20.5681 C   0  0  0  0  0  0
  -24.1826  -13.0402   20.9189 C   0  0  0  0  0  0
  -24.6383  -11.6870   20.8746 C   0  0  0  0  0  0
  -23.9043  -10.4259   21.0415 C   0  0  0  0  0  0
  -24.3593   -9.4185   21.9204 C   0  0  0  0  0  0
  -23.6259   -8.2225   22.0771 C   0  0  0  0  0  0
  -22.4250   -8.0265   21.3550 C   0  0  0  0  0  0
  -21.9879   -9.0235   20.4655 C   0  0  0  0  0  0
  -22.7211  -10.2109   20.3071 C   0  0  0  0  0  0
  -21.6841   -6.0706   22.5281 C   0  0  0  0  0  0
  -21.4014   -6.5624   23.8208 C   0  0  0  0  0  0
  -21.3675   -5.6782   24.9175 C   0  0  0  0  0  0
  -21.6048   -4.3041   24.7230 C   0  0  0  0  0  0
  -21.8812   -3.8118   23.4354 C   0  0  0  0  0  0
  -21.9182   -4.6932   22.3405 C   0  0  0  0  0  0
  -22.7853  -13.5227   21.1831 C   0  0  0  0  0  0
  -22.1648   -4.2114   21.0983 F   0  0  0  0  0  0
  -21.5629   -3.4536   25.7747 F   0  0  0  0  0  0
  -30.0127  -13.4167   20.4066 N   0  0  0  0  0  0
  -26.2980  -12.9269   20.3285 N   0  0  0  0  0  0
  -25.9308  -11.6448   20.5745 N   0  0  0  0  0  0
  -22.0457  -12.8272   22.0387 N   0  0  0  0  0  0
  -25.4245  -15.1849   20.4119 N   0  0  0  0  0  0
  -31.7930  -14.8146   20.1715 O   0  0  0  0  0  0
  -21.6626   -6.8851   21.4242 O   0  0  0  0  0  0
  -22.3580  -14.5534   20.6650 O   0  0  0  0  0  0
  -24.6255  -31.8608   23.2053 C   0  0  0  0  0  0
  -25.9108  -32.4779   23.8382 C   0  0  1  0  0  0
  -27.2290  -27.3377   20.0965 C   0  0  0  0  0  0
  -25.5931  -33.8576   24.2301 N   0  0  0  0  0  0
  -23.4200  -30.4855   21.5463 C   0  0  2  0  0  0
  -24.8663  -28.9466   20.1120 C   0  0  0  0  0  0
  -22.7481  -29.4616   22.4926 C   0  0  0  0  0  0
  -18.0296  -28.1377   22.8477 C   0  0  0  0  0  0
  -24.1496  -36.7291   23.2638 C   0  0  0  0  0  0
  -25.9612  -30.7947   21.3791 C   0  0  0  0  0  0
  -26.0345  -29.4252   20.7174 C   0  0  0  0  0  0
  -27.2181  -28.6290   20.7075 C   0  0  0  0  0  0
  -26.0344  -26.9147   19.4656 C   0  0  0  0  0  0
  -24.8657  -27.6950   19.4813 C   0  0  0  0  0  0
  -23.6346  -29.8243   20.1600 C   0  0  0  0  0  0
  -25.4110  -36.3069   24.0333 C   0  0  1  0  0  0
  -20.5895  -28.3682   23.1264 C   0  0  2  0  0  0
  -20.6786  -26.9404   22.5398 C   0  0  0  0  0  0
  -19.5763  -26.6378   21.5197 C   0  0  0  0  0  0
  -18.1943  -26.7923   22.1606 C   0  0  0  0  0  0
  -19.1547  -28.8844   23.2871 C   0  0  0  0  0  0
  -18.9467  -30.1437   23.8898 C   0  0  0  0  0  0
  -17.6471  -30.6576   24.0554 C   0  0  0  0  0  0
  -25.9046  -34.9441   23.5113 C   0  0  0  0  0  0
  -16.5363  -29.9075   23.6321 C   0  0  0  0  0  0
  -16.7288  -28.6489   23.0357 C   0  0  0  0  0  0
  -26.4498  -31.6581   25.0741 C   0  0  0  0  0  0
  -25.3742  -31.3712   26.1469 C   0  0  0  0  0  0
  -27.0345  -30.3009   24.6191 C   0  0  0  0  0  0
  -27.6074  -32.4302   25.7500 C   0  0  0  0  0  0
  -27.5579  -37.1788   24.8447 C   0  0  0  0  0  0
  -21.4197  -29.3040   22.3662 N   0  0  0  0  0  0
  -26.4283  -37.3762   23.9407 N   0  0  0  0  0  0
  -24.6875  -31.0632   22.1001 N   0  0  0  0  0  0
  -23.4207  -28.8160   23.3008 O   0  0  0  0  0  0
  -28.3536  -26.4983   20.1342 O   0  0  0  0  0  0
  -26.5602  -34.8895   22.4669 O   0  0  0  0  0  0
  -23.5416  -32.1394   23.7388 O   0  0  0  0  0  0
  -28.8890  -19.3370   19.6962 C   0  0  0  0  0  0
  -30.8331  -17.8799   21.0890 C   0  0  0  0  0  0
  -28.8873  -17.9046   19.6486 C   0  0  0  0  0  0
  -29.8517  -20.0776   20.4297 C   0  0  0  0  0  0
  -29.8488  -17.1416   20.3881 C   0  0  0  0  0  0
  -30.8380  -19.3038   21.1019 C   0  0  0  0  0  0
  -26.6777  -17.7155   18.4469 C   0  0  0  0  0  0
  -27.8608  -17.2112   18.8417 C   0  0  0  0  0  0
  -29.8759  -21.5960   20.5410 C   0  0  0  0  0  0
  -29.0363  -22.5644   20.0524 C   0  0  0  0  0  0
  -29.2291  -24.0546   20.2902 C   0  0  0  0  0  0
  -28.1576  -25.0780   19.7683 C   0  0  0  0  0  0
  -29.7137  -15.6909   20.5200 N   0  0  0  0  0  0
  -30.2147  -24.4939   20.8937 O   0  0  0  0  0  0
  -31.8090  -19.9349   21.8038 F   0  0  0  0  0  0
  -31.4886  -12.5250   19.1475 H   0  0  0  0  0  0
  -30.3863  -11.3988   19.9005 H   0  0  0  0  0  0
  -29.7830  -11.7470   17.4742 H   0  0  0  0  0  0
  -29.6547  -13.4682   17.7386 H   0  0  0  0  0  0
  -27.8771  -11.2773   18.8633 H   0  0  0  0  0  0
  -27.3876  -12.5563   17.7856 H   0  0  0  0  0  0
  -27.6542  -14.2315   19.5041 H   0  0  0  0  0  0
  -28.7178  -12.0622   21.3796 H   0  0  0  0  0  0
  -28.4561  -13.7251   21.8253 H   0  0  0  0  0  0
  -25.2745   -9.5635   22.4785 H   0  0  0  0  0  0
  -23.9939   -7.4616   22.7503 H   0  0  0  0  0  0
  -21.0796   -8.8763   19.8970 H   0  0  0  0  0  0
  -22.3686  -10.9650   19.6169 H   0  0  0  0  0  0
  -21.2026   -7.6139   23.9706 H   0  0  0  0  0  0
  -21.1517   -6.0520   25.9078 H   0  0  0  0  0  0
  -22.0584   -2.7572   23.2878 H   0  0  0  0  0  0
  -22.4024  -11.9936   22.4826 H   0  0  0  0  0  0
  -21.1086  -13.1364   22.2538 H   0  0  0  0  0  0
  -24.6429  -15.8229   20.5094 H   0  0  0  0  0  0
  -26.2469  -15.6377   20.0347 H   0  0  0  0  0  0
  -26.7188  -32.5460   23.1144 H   0  0  0  0  0  0
  -25.0088  -33.9726   25.0453 H   0  0  0  0  0  0
  -22.7135  -31.3055   21.4049 H   0  0  0  0  0  0
  -23.3740  -35.9644   23.3300 H   0  0  0  0  0  0
  -24.3599  -36.8905   22.2055 H   0  0  0  0  0  0
  -23.7270  -37.6502   23.6660 H   0  0  0  0  0  0
  -26.0988  -31.5626   20.6160 H   0  0  0  0  0  0
  -26.8387  -30.8376   22.0124 H   0  0  0  0  0  0
  -28.1144  -28.9859   21.1956 H   0  0  0  0  0  0
  -25.9659  -25.9694   18.9483 H   0  0  0  0  0  0
  -23.9714  -27.3249   18.9987 H   0  0  0  0  0  0
  -23.7546  -30.6025   19.4053 H   0  0  0  0  0  0
  -22.7556  -29.2540   19.8560 H   0  0  0  0  0  0
  -25.1285  -36.1930   25.0826 H   0  0  0  0  0  0
  -20.9983  -28.3266   24.1385 H   0  0  0  0  0  0
  -20.5675  -26.2295   23.3600 H   0  0  0  0  0  0
  -21.6657  -26.7429   22.1197 H   0  0  0  0  0  0
  -19.6922  -25.6288   21.1230 H   0  0  0  0  0  0
  -19.6697  -27.3180   20.6720 H   0  0  0  0  0  0
  -17.4208  -26.6664   21.4015 H   0  0  0  0  0  0
  -18.0341  -26.0062   22.8995 H   0  0  0  0  0  0
  -19.7939  -30.7247   24.2285 H   0  0  0  0  0  0
  -17.5022  -31.6257   24.5158 H   0  0  0  0  0  0
  -15.5364  -30.2984   23.7629 H   0  0  0  0  0  0
  -15.8685  -28.0799   22.7088 H   0  0  0  0  0  0
  -24.5921  -30.7051   25.7800 H   0  0  0  0  0  0
  -24.8931  -32.2875   26.4908 H   0  0  0  0  0  0
  -25.8070  -30.8885   27.0236 H   0  0  0  0  0  0
  -26.2913  -29.6747   24.1237 H   0  0  0  0  0  0
  -27.4069  -29.7279   25.4691 H   0  0  0  0  0  0
  -27.8775  -30.4304   23.9400 H   0  0  0  0  0  0
  -27.2704  -33.3597   26.2098 H   0  0  0  0  0  0
  -28.3870  -32.6852   25.0313 H   0  0  0  0  0  0
  -28.0750  -31.8411   26.5394 H   0  0  0  0  0  0
  -28.2560  -38.0121   24.7526 H   0  0  0  0  0  0
  -28.1106  -36.2650   24.6215 H   0  0  0  0  0  0
  -27.2300  -37.1366   25.8848 H   0  0  0  0  0  0
  -20.9376  -29.8785   21.6881 H   0  0  0  0  0  0
  -26.0157  -38.2827   24.1429 H   0  0  0  0  0  0
  -28.1433  -19.8868   19.1434 H   0  0  0  0  0  0
  -31.5826  -17.3592   21.6647 H   0  0  0  0  0  0
  -26.0098  -17.1278   17.8328 H   0  0  0  0  0  0
  -26.3427  -18.7051   18.7217 H   0  0  0  0  0  0
  -28.1053  -16.2148   18.5041 H   0  0  0  0  0  0
  -30.7127  -21.9630   21.1200 H   0  0  0  0  0  0
  -28.1766  -22.2815   19.4636 H   0  0  0  0  0  0
  -27.2027  -24.7256   20.1589 H   0  0  0  0  0  0
  -28.1128  -25.0006   18.6811 H   0  0  0  0  0  0
  -28.7601  -15.3702   20.5654 H   0  0  0  0  0  0
  1 25  1  0  0  0
  1 30  2  0  0  0
  1 83  1  0  0  0
  2  3  1  0  0  0
  2 25  1  0  0  0
  2 86  1  0  0  0
  2 87  1  0  0  0
  3  4  1  0  0  0
  3 88  1  0  0  0
  3 89  1  0  0  0
  4  5  1  0  0  0
  4 90  1  0  0  0
  4 91  1  0  0  0
  5  6  1  0  0  0
  5 26  1  0  0  0
  5 92  1  0  0  0
  6 25  1  0  0  0
  6 93  1  0  0  0
  6 94  1  0  0  0
  7  8  2  0  0  0
  7 26  1  0  0  0
  7 29  1  0  0  0
  8  9  1  0  0  0
  8 22  1  0  0  0
  9 10  1  0  0  0
  9 27  2  0  0  0
 10 11  2  0  0  0
 10 15  1  0  0  0
 11 12  1  0  0  0
 11 95  1  0  0  0
 12 13  2  0  0  0
 12 96  1  0  0  0
 13 14  1  0  0  0
 13 31  1  0  0  0
 14 15  2  0  0  0
 14 97  1  0  0  0
 15 98  1  0  0  0
 16 17  2  0  0  0
 16 21  1  0  0  0
 16 31  1  0  0  0
 17 18  1  0  0  0
 17 99  1  0  0  0
 18 19  2  0  0  0
 18100  1  0  0  0
 19 20  1  0  0  0
 19 24  1  0  0  0
 20 21  2  0  0  0
 20101  1  0  0  0
 21 23  1  0  0  0
 22 28  1  0  0  0
 22 32  2  0  0  0
 26 27  1  0  0  0
 28102  1  0  0  0
 28103  1  0  0  0
 29104  1  0  0  0
 29105  1  0  0  0
 33 34  1  0  0  0
 33 66  1  0  0  0
 33 70  2  0  0  0
 34 36  1  0  0  0
 34 59  1  0  0  0
 34106  1  0  0  0
 35 44  2  0  0  0
 35 45  1  0  0  0
 35 68  1  0  0  0
 36 56  1  0  0  0
 36107  1  0  0  0
 37 39  1  0  0  0
 37 47  1  0  0  0
 37 66  1  0  0  0
 37108  1  0  0  0
 38 43  2  0  0  0
 38 46  1  0  0  0
 38 47  1  0  0  0
 39 64  1  0  0  0
 39 67  2  0  0  0
 40 52  1  0  0  0
 40 53  2  0  0  0
 40 58  1  0  0  0
 41109  1  0  0  0
 41110  1  0  0  0
 41111  1  0  0  0
 41 48  1  0  0  0
 42 43  1  0  0  0
 42 66  1  0  0  0
 42112  1  0  0  0
 42113  1  0  0  0
 43 44  1  0  0  0
 44114  1  0  0  0
 45 46  2  0  0  0
 45115  1  0  0  0
 46116  1  0  0  0
 47117  1  0  0  0
 47118  1  0  0  0
 48 56  1  0  0  0
 48 65  1  0  0  0
 48119  1  0  0  0
 49 50  1  0  0  0
 49 53  1  0  0  0
 49 64  1  0  0  0
 49120  1  0  0  0
 50 51  1  0  0  0
 50121  1  0  0  0
 50122  1  0  0  0
 51 52  1  0  0  0
 51123  1  0  0  0
 51124  1  0  0  0
 52125  1  0  0  0
 52126  1  0  0  0
 53 54  1  0  0  0
 54 55  2  0  0  0
 54127  1  0  0  0
 55 57  1  0  0  0
 55128  1  0  0  0
 56 69  2  0  0  0
 57 58  2  0  0  0
 57129  1  0  0  0
 58130  1  0  0  0
 59 60  1  0  0  0
 59 61  1  0  0  0
 59 62  1  0  0  0
 60131  1  0  0  0
 60132  1  0  0  0
 60133  1  0  0  0
 61134  1  0  0  0
 61135  1  0  0  0
 61136  1  0  0  0
 62137  1  0  0  0
 62138  1  0  0  0
 62139  1  0  0  0
 63 65  1  0  0  0
 63140  1  0  0  0
 63141  1  0  0  0
 63142  1  0  0  0
 64143  1  0  0  0
 65144  1  0  0  0
 68 82  1  0  0  0
 71 73  2  0  0  0
 71 74  1  0  0  0
 71145  1  0  0  0
 72 75  2  0  0  0
 72 76  1  0  0  0
 72146  1  0  0  0
 73 75  1  0  0  0
 73 78  1  0  0  0
 74 76  2  0  0  0
 74 79  1  0  0  0
 75 83  1  0  0  0
 76 85  1  0  0  0
 77 78  2  0  0  0
 77147  1  0  0  0
 77148  1  0  0  0
 78149  1  0  0  0
 79 80  2  0  0  0
 79150  1  0  0  0
 80 81  1  0  0  0
 80151  1  0  0  0
 81 82  1  0  0  0
 81 84  2  0  0  0
 82152  1  0  0  0
 82153  1  0  0  0
 83154  1  0  0  0
M  ISO  4   1 100  68 101  82 101  83 100
M  END
> <chiral flag>
0

> <version>
0

> <s_m_source_file>
/data/baiqing/PycharmProjects/Reinvent-master-3.2/result/LINK_invent/BTK/process_docking_weight1_custom_product_contain_oxygen_bond_distance_aromatic_linkinvent_7_9_3/rearranged_h_0120.sdf

> <i_m_source_file_index>
42

> <r_mmod_Potential_Energy-OPLS-2005>
54.1322555541992

> <r_mmod_Stretch_Energy-OPLS-2005>
73.6981201171875

> <r_mmod_Bend_Energy-OPLS-2005>
125.454139709473

> <r_mmod_Torsional_Energy-OPLS-2005>
231.892440795898

> <r_mmod_Improper_Torsional_Energy-OPLS-2005>
7.96489191055298

> <r_mmod_Van_der_Waal_Energy-OPLS-2005>
147.683868408203

> <r_mmod_Electrostatic_Energy-OPLS-2005>
-351.533630371094

> <r_mmod_Solvation_Energy-OPLS-2005>
-231.65251159668

> <b_mmod_Minimization_Converged-OPLS-2005>
0

> <r_mmod_RMS_Derivative-OPLS-2005>
2.81935358047485

$$$$
42
                    3D
 Structure written by MMmdl.
153161  0  0  1  0            999 V2000
  -30.6716  -14.6199   20.4869 C   0  0  0  0  0  0
  -30.4230  -12.3753   19.4662 C   0  0  0  0  0  0
  -29.5045  -12.4908   18.2301 C   0  0  0  0  0  0
  -28.0275  -12.3316   18.6388 C   0  0  0  0  0  0
  -27.6462  -13.2204   19.8508 C   0  0  2  0  0  0
  -28.6882  -13.1142   20.9856 C   0  0  0  0  0  0
  -25.2529  -13.8183   20.5664 C   0  0  0  0  0  0
  -24.1812  -13.0436   20.9198 C   0  0  0  0  0  0
  -24.6405  -11.6913   20.8756 C   0  0  0  0  0  0
  -23.9081  -10.4290   21.0420 C   0  0  0  0  0  0
  -24.3634   -9.4200   21.9193 C   0  0  0  0  0  0
  -23.6301   -8.2240   22.0758 C   0  0  0  0  0  0
  -22.4283   -8.0282   21.3541 C   0  0  0  0  0  0
  -21.9926   -9.0266   20.4644 C   0  0  0  0  0  0
  -22.7259  -10.2143   20.3056 C   0  0  0  0  0  0
  -21.6852   -6.0743   22.5284 C   0  0  0  0  0  0
  -21.4011   -6.5649   23.8216 C   0  0  0  0  0  0
  -21.3654   -5.6805   24.9179 C   0  0  0  0  0  0
  -21.6039   -4.3068   24.7229 C   0  0  0  0  0  0
  -21.8820   -3.8155   23.4355 C   0  0  0  0  0  0
  -21.9188   -4.6969   22.3409 C   0  0  0  0  0  0
  -22.7828  -13.5216   21.1854 C   0  0  0  0  0  0
  -22.1653   -4.2152   21.0988 F   0  0  0  0  0  0
  -21.5627   -3.4552   25.7743 F   0  0  0  0  0  0
  -30.0083  -13.4221   20.4225 N   0  0  0  0  0  0
  -26.2955  -12.9373   20.3270 N   0  0  0  0  0  0
  -25.9323  -11.6528   20.5755 N   0  0  0  0  0  0
  -22.0485  -12.8201   22.0420 N   0  0  0  0  0  0
  -25.4232  -15.1898   20.4036 N   0  0  0  0  0  0
  -31.8639  -14.6782   20.1746 O   0  0  0  0  0  0
  -21.6636   -6.8886   21.4243 O   0  0  0  0  0  0
  -22.3493  -14.5503   20.6685 O   0  0  0  0  0  0
  -24.6255  -31.8639   23.2075 C   0  0  0  0  0  0
  -25.9120  -32.4795   23.8383 C   0  0  1  0  0  0
  -27.2081  -27.3269   20.1054 C   0  0  0  0  0  0
  -25.5949  -33.8593   24.2310 N   0  0  0  0  0  0
  -23.4150  -30.4934   21.5508 C   0  0  2  0  0  0
  -24.8547  -28.9572   20.1107 C   0  0  0  0  0  0
  -22.7465  -29.4657   22.4946 C   0  0  0  0  0  0
  -18.0288  -28.1389   22.8497 C   0  0  0  0  0  0
  -24.1485  -36.7293   23.2640 C   0  0  0  0  0  0
  -25.9577  -30.7956   21.3786 C   0  0  0  0  0  0
  -26.0251  -29.4266   20.7173 C   0  0  0  0  0  0
  -27.2009  -28.6207   20.7113 C   0  0  0  0  0  0
  -26.0040  -26.9102   19.4836 C   0  0  0  0  0  0
  -24.8455  -27.7035   19.4897 C   0  0  0  0  0  0
  -23.6256  -29.8384   20.1626 C   0  0  0  0  0  0
  -25.4114  -36.3090   24.0329 C   0  0  1  0  0  0
  -20.5889  -28.3699   23.1288 C   0  0  2  0  0  0
  -20.6778  -26.9423   22.5413 C   0  0  0  0  0  0
  -19.5753  -26.6391   21.5216 C   0  0  0  0  0  0
  -18.1930  -26.7938   22.1623 C   0  0  0  0  0  0
  -19.1541  -28.8858   23.2889 C   0  0  0  0  0  0
  -18.9462  -30.1463   23.8902 C   0  0  0  0  0  0
  -17.6460  -30.6596   24.0570 C   0  0  0  0  0  0
  -25.9051  -34.9457   23.5114 C   0  0  0  0  0  0
  -16.5352  -29.9096   23.6332 C   0  0  0  0  0  0
  -16.7273  -28.6509   23.0358 C   0  0  0  0  0  0
  -26.4501  -31.6601   25.0756 C   0  0  0  0  0  0
  -25.3733  -31.3771   26.1497 C   0  0  0  0  0  0
  -27.0322  -30.3010   24.6218 C   0  0  0  0  0  0
  -27.6083  -32.4319   25.7507 C   0  0  0  0  0  0
  -27.5572  -37.1819   24.8470 C   0  0  0  0  0  0
  -21.4182  -29.3058   22.3685 N   0  0  0  0  0  0
  -26.4296  -37.3781   23.9397 N   0  0  0  0  0  0
  -24.6849  -31.0669   22.1020 N   0  0  0  0  0  0
  -23.4205  -28.8187   23.3006 O   0  0  0  0  0  0
  -28.3421  -26.5020   20.1826 O   0  0  0  0  0  0
  -26.5604  -34.8916   22.4672 O   0  0  0  0  0  0
  -23.5427  -32.1434   23.7417 O   0  0  0  0  0  0
  -28.6226  -18.8354   20.2294 C   0  0  0  0  0  0
  -28.2241  -20.1924   20.0678 C   0  0  0  0  0  0
  -30.6901  -19.5936   21.1758 C   0  0  0  0  0  0
  -29.8984  -18.5003   20.7354 C   0  0  0  0  0  0
  -29.0537  -21.2970   20.4086 C   0  0  0  0  0  0
  -30.2942  -20.9583   21.0255 C   0  0  0  0  0  0
  -30.4650  -17.0959   20.7557 C   0  0  0  0  0  0
  -28.5682  -22.6833   20.0052 C   0  0  0  0  0  0
  -29.8677  -15.8650   20.6617 C   0  0  0  0  0  0
  -29.0057  -23.9666   20.2128 C   0  0  0  0  0  0
  -31.2650  -22.0293   21.4892 C   0  0  0  0  0  0
  -28.4055  -25.2076   19.4831 C   0  0  0  0  0  0
  -31.4673  -12.4688   19.1642 H   0  0  0  0  0  0
  -30.3324  -11.3889   19.9241 H   0  0  0  0  0  0
  -29.7701  -11.7349   17.4895 H   0  0  0  0  0  0
  -29.6513  -13.4583   17.7476 H   0  0  0  0  0  0
  -27.8678  -11.2819   18.8867 H   0  0  0  0  0  0
  -27.3742  -12.5449   17.7929 H   0  0  0  0  0  0
  -27.6524  -14.2456   19.4820 H   0  0  0  0  0  0
  -28.6927  -12.1105   21.4131 H   0  0  0  0  0  0
  -28.4414  -13.7890   21.8063 H   0  0  0  0  0  0
  -25.2786   -9.5666   22.4760 H   0  0  0  0  0  0
  -24.0009   -7.4630   22.7485 H   0  0  0  0  0  0
  -21.0853   -8.8795   19.8950 H   0  0  0  0  0  0
  -22.3731  -10.9685   19.6159 H   0  0  0  0  0  0
  -21.2015   -7.6160   23.9713 H   0  0  0  0  0  0
  -21.1464   -6.0541   25.9079 H   0  0  0  0  0  0
  -22.0600   -2.7616   23.2862 H   0  0  0  0  0  0
  -22.4116  -11.9864   22.4803 H   0  0  0  0  0  0
  -21.1090  -13.1193   22.2618 H   0  0  0  0  0  0
  -24.6585  -15.8472   20.5052 H   0  0  0  0  0  0
  -26.2731  -15.6229   20.0665 H   0  0  0  0  0  0
  -26.7186  -32.5462   23.1129 H   0  0  0  0  0  0
  -25.0127  -33.9736   25.0474 H   0  0  0  0  0  0
  -22.7081  -31.3150   21.4163 H   0  0  0  0  0  0
  -23.3760  -35.9615   23.3291 H   0  0  0  0  0  0
  -24.3563  -36.8931   22.2055 H   0  0  0  0  0  0
  -23.7223  -37.6482   23.6674 H   0  0  0  0  0  0
  -26.0912  -31.5611   20.6134 H   0  0  0  0  0  0
  -26.8378  -30.8379   22.0081 H   0  0  0  0  0  0
  -28.0978  -28.9744   21.2004 H   0  0  0  0  0  0
  -25.8737  -25.9600   18.9983 H   0  0  0  0  0  0
  -23.9443  -27.3339   19.0195 H   0  0  0  0  0  0
  -23.7471  -30.6200   19.4120 H   0  0  0  0  0  0
  -22.7434  -29.2728   19.8576 H   0  0  0  0  0  0
  -25.1296  -36.1951   25.0822 H   0  0  0  0  0  0
  -20.9984  -28.3280   24.1408 H   0  0  0  0  0  0
  -20.5683  -26.2310   23.3616 H   0  0  0  0  0  0
  -21.6651  -26.7461   22.1209 H   0  0  0  0  0  0
  -19.6912  -25.6303   21.1240 H   0  0  0  0  0  0
  -19.6689  -27.3203   20.6747 H   0  0  0  0  0  0
  -17.4211  -26.6717   21.4007 H   0  0  0  0  0  0
  -18.0308  -26.0065   22.9001 H   0  0  0  0  0  0
  -19.7937  -30.7280   24.2271 H   0  0  0  0  0  0
  -17.5017  -31.6268   24.5191 H   0  0  0  0  0  0
  -15.5352  -30.2996   23.7652 H   0  0  0  0  0  0
  -15.8676  -28.0821   22.7075 H   0  0  0  0  0  0
  -24.5861  -30.7173   25.7832 H   0  0  0  0  0  0
  -24.8990  -32.2964   26.4946 H   0  0  0  0  0  0
  -25.8050  -30.8915   27.0259 H   0  0  0  0  0  0
  -26.2888  -29.6768   24.1253 H   0  0  0  0  0  0
  -27.4010  -29.7274   25.4732 H   0  0  0  0  0  0
  -27.8770  -30.4275   23.9444 H   0  0  0  0  0  0
  -27.2749  -33.3685   26.1990 H   0  0  0  0  0  0
  -28.3944  -32.6757   25.0347 H   0  0  0  0  0  0
  -28.0678  -31.8482   26.5497 H   0  0  0  0  0  0
  -28.2636  -38.0069   24.7462 H   0  0  0  0  0  0
  -28.1024  -36.2603   24.6377 H   0  0  0  0  0  0
  -27.2282  -37.1572   25.8873 H   0  0  0  0  0  0
  -20.9351  -29.8798   21.6916 H   0  0  0  0  0  0
  -26.0183  -38.2866   24.1368 H   0  0  0  0  0  0
  -27.9587  -18.0533   19.8905 H   0  0  0  0  0  0
  -27.2597  -20.3805   19.6152 H   0  0  0  0  0  0
  -31.6610  -19.3798   21.6017 H   0  0  0  0  0  0
  -31.5465  -17.0926   20.7895 H   0  0  0  0  0  0
  -27.7050  -22.6268   19.3562 H   0  0  0  0  0  0
  -28.7912  -15.8151   20.6562 H   0  0  0  0  0  0
  -29.8448  -24.1722   20.8575 H   0  0  0  0  0  0
  -32.1817  -21.5949   21.8882 H   0  0  0  0  0  0
  -30.8206  -22.6335   22.2806 H   0  0  0  0  0  0
  -31.5490  -22.6770   20.6600 H   0  0  0  0  0  0
  -27.4775  -24.8592   19.0512 H   0  0  0  0  0  0
  -29.0499  -25.3838   18.6223 H   0  0  0  0  0  0
  1 25  1  0  0  0
  1 30  2  0  0  0
  1 79  1  0  0  0
  2  3  1  0  0  0
  2 25  1  0  0  0
  2 83  1  0  0  0
  2 84  1  0  0  0
  3  4  1  0  0  0
  3 85  1  0  0  0
  3 86  1  0  0  0
  4  5  1  0  0  0
  4 87  1  0  0  0
  4 88  1  0  0  0
  5  6  1  0  0  0
  5 26  1  0  0  0
  5 89  1  0  0  0
  6 25  1  0  0  0
  6 90  1  0  0  0
  6 91  1  0  0  0
  7  8  2  0  0  0
  7 26  1  0  0  0
  7 29  1  0  0  0
  8  9  1  0  0  0
  8 22  1  0  0  0
  9 10  1  0  0  0
  9 27  2  0  0  0
 10 11  2  0  0  0
 10 15  1  0  0  0
 11 12  1  0  0  0
 11 92  1  0  0  0
 12 13  2  0  0  0
 12 93  1  0  0  0
 13 14  1  0  0  0
 13 31  1  0  0  0
 14 15  2  0  0  0
 14 94  1  0  0  0
 15 95  1  0  0  0
 16 17  2  0  0  0
 16 21  1  0  0  0
 16 31  1  0  0  0
 17 18  1  0  0  0
 17 96  1  0  0  0
 18 19  2  0  0  0
 18 97  1  0  0  0
 19 20  1  0  0  0
 19 24  1  0  0  0
 20 21  2  0  0  0
 20 98  1  0  0  0
 21 23  1  0  0  0
 22 28  1  0  0  0
 22 32  2  0  0  0
 26 27  1  0  0  0
 28 99  1  0  0  0
 28100  1  0  0  0
 29101  1  0  0  0
 29102  1  0  0  0
 33 34  1  0  0  0
 33 66  1  0  0  0
 33 70  2  0  0  0
 34 36  1  0  0  0
 34 59  1  0  0  0
 34103  1  0  0  0
 35 44  2  0  0  0
 35 45  1  0  0  0
 35 68  1  0  0  0
 36 56  1  0  0  0
 36104  1  0  0  0
 37 39  1  0  0  0
 37 47  1  0  0  0
 37 66  1  0  0  0
 37105  1  0  0  0
 38 43  2  0  0  0
 38 46  1  0  0  0
 38 47  1  0  0  0
 39 64  1  0  0  0
 39 67  2  0  0  0
 40 52  1  0  0  0
 40 53  2  0  0  0
 40 58  1  0  0  0
 41106  1  0  0  0
 41107  1  0  0  0
 41108  1  0  0  0
 41 48  1  0  0  0
 42 43  1  0  0  0
 42 66  1  0  0  0
 42109  1  0  0  0
 42110  1  0  0  0
 43 44  1  0  0  0
 44111  1  0  0  0
 45 46  2  0  0  0
 45112  1  0  0  0
 46113  1  0  0  0
 47114  1  0  0  0
 47115  1  0  0  0
 48 56  1  0  0  0
 48 65  1  0  0  0
 48116  1  0  0  0
 49 50  1  0  0  0
 49 53  1  0  0  0
 49 64  1  0  0  0
 49117  1  0  0  0
 50 51  1  0  0  0
 50118  1  0  0  0
 50119  1  0  0  0
 51 52  1  0  0  0
 51120  1  0  0  0
 51121  1  0  0  0
 52122  1  0  0  0
 52123  1  0  0  0
 53 54  1  0  0  0
 54 55  2  0  0  0
 54124  1  0  0  0
 55 57  1  0  0  0
 55125  1  0  0  0
 56 69  2  0  0  0
 57 58  2  0  0  0
 57126  1  0  0  0
 58127  1  0  0  0
 59 60  1  0  0  0
 59 61  1  0  0  0
 59 62  1  0  0  0
 60128  1  0  0  0
 60129  1  0  0  0
 60130  1  0  0  0
 61131  1  0  0  0
 61132  1  0  0  0
 61133  1  0  0  0
 62134  1  0  0  0
 62135  1  0  0  0
 62136  1  0  0  0
 63 65  1  0  0  0
 63137  1  0  0  0
 63138  1  0  0  0
 63139  1  0  0  0
 64140  1  0  0  0
 65141  1  0  0  0
 68 82  1  0  0  0
 71 72  2  0  0  0
 71 74  1  0  0  0
 71142  1  0  0  0
 72 75  1  0  0  0
 72143  1  0  0  0
 73 74  2  0  0  0
 73 76  1  0  0  0
 73144  1  0  0  0
 74 77  1  0  0  0
 75 76  2  0  0  0
 75 78  1  0  0  0
 76 81  1  0  0  0
 77 79  2  0  0  0
 77145  1  0  0  0
 78 80  2  0  0  0
 78146  1  0  0  0
 79147  1  0  0  0
 80 82  1  0  0  0
 80148  1  0  0  0
 81149  1  0  0  0
 81150  1  0  0  0
 81151  1  0  0  0
 82152  1  0  0  0
 82153  1  0  0  0
M  ISO  4   1 100  68 101  79 100  82 101
M  END
> <chiral flag>
0

> <version>
0

> <s_m_source_file>
/data/baiqing/PycharmProjects/Reinvent-master-3.2/result/LINK_invent/BTK/process_docking_weight1_custom_product_contain_oxygen_bond_distance_aromatic_linkinvent_7_9_3/rearranged_h_0120.sdf

> <i_m_source_file_index>
43

> <r_mmod_Potential_Energy-OPLS-2005>
86.3290481567383

> <r_mmod_Stretch_Energy-OPLS-2005>
69.5463943481445

> <r_mmod_Bend_Energy-OPLS-2005>
147.025848388672

> <r_mmod_Torsional_Energy-OPLS-2005>
190.390838623047

> <r_mmod_Improper_Torsional_Energy-OPLS-2005>
8.45553588867188

> <r_mmod_Van_der_Waal_Energy-OPLS-2005>
158.528274536133

> <r_mmod_Electrostatic_Energy-OPLS-2005>
-339.855102539062

> <r_mmod_Solvation_Energy-OPLS-2005>
-195.107269287109

> <b_mmod_Minimization_Converged-OPLS-2005>
0

> <r_mmod_RMS_Derivative-OPLS-2005>
1.2965612411499

$$$$
43
                    3D
 Structure written by MMmdl.
156164  0  0  1  0            999 V2000
  -30.7142  -14.4407   20.5732 C   0  0  0  0  0  0
  -30.4200  -12.2859   19.4182 C   0  0  0  0  0  0
  -29.4928  -12.5032   18.2046 C   0  0  0  0  0  0
  -28.0129  -12.3713   18.6158 C   0  0  0  0  0  0
  -27.6647  -13.2052   19.8782 C   0  0  2  0  0  0
  -28.7060  -12.9700   20.9968 C   0  0  0  0  0  0
  -25.2603  -13.8156   20.5686 C   0  0  0  0  0  0
  -24.1844  -13.0434   20.9171 C   0  0  0  0  0  0
  -24.6389  -11.6898   20.8716 C   0  0  0  0  0  0
  -23.9051  -10.4288   21.0386 C   0  0  0  0  0  0
  -24.3605   -9.4208   21.9171 C   0  0  0  0  0  0
  -23.6286   -8.2241   22.0741 C   0  0  0  0  0  0
  -22.4271   -8.0271   21.3539 C   0  0  0  0  0  0
  -21.9904   -9.0243   20.4638 C   0  0  0  0  0  0
  -22.7222  -10.2127   20.3039 C   0  0  0  0  0  0
  -21.6856   -6.0727   22.5276 C   0  0  0  0  0  0
  -21.4007   -6.5623   23.8208 C   0  0  0  0  0  0
  -21.3654   -5.6777   24.9171 C   0  0  0  0  0  0
  -21.6042   -4.3042   24.7220 C   0  0  0  0  0  0
  -21.8823   -3.8137   23.4340 C   0  0  0  0  0  0
  -21.9195   -4.6958   22.3397 C   0  0  0  0  0  0
  -22.7870  -13.5241   21.1839 C   0  0  0  0  0  0
  -22.1671   -4.2142   21.0975 F   0  0  0  0  0  0
  -21.5627   -3.4519   25.7731 F   0  0  0  0  0  0
  -30.0426  -13.2644   20.4497 N   0  0  0  0  0  0
  -26.3043  -12.9325   20.3381 N   0  0  0  0  0  0
  -25.9321  -11.6485   20.5765 N   0  0  0  0  0  0
  -22.0508  -12.8229   22.0391 N   0  0  0  0  0  0
  -25.4322  -15.1873   20.4112 N   0  0  0  0  0  0
  -31.8335  -14.6219   20.0858 O   0  0  0  0  0  0
  -21.6635   -6.8868   21.4240 O   0  0  0  0  0  0
  -22.3560  -14.5554   20.6688 O   0  0  0  0  0  0
  -24.6119  -31.8686   23.2116 C   0  0  0  0  0  0
  -25.9018  -32.4825   23.8408 C   0  0  1  0  0  0
  -27.2371  -27.4571   20.0927 C   0  0  0  0  0  0
  -25.5892  -33.8621   24.2338 N   0  0  0  0  0  0
  -23.4005  -30.4911   21.5501 C   0  0  2  0  0  0
  -24.8495  -28.9566   20.1169 C   0  0  0  0  0  0
  -22.7403  -29.4653   22.4993 C   0  0  0  0  0  0
  -18.0268  -28.1384   22.8487 C   0  0  0  0  0  0
  -24.1475  -36.7299   23.2640 C   0  0  0  0  0  0
  -25.9267  -30.8405   21.3624 C   0  0  0  0  0  0
  -26.0069  -29.4751   20.7123 C   0  0  0  0  0  0
  -27.2074  -28.7315   20.6987 C   0  0  0  0  0  0
  -26.0682  -26.9430   19.4981 C   0  0  0  0  0  0
  -24.8733  -27.6882   19.5081 C   0  0  0  0  0  0
  -23.6098  -29.8207   20.1655 C   0  0  0  0  0  0
  -25.4097  -36.3113   24.0348 C   0  0  1  0  0  0
  -20.5858  -28.3655   23.1333 C   0  0  2  0  0  0
  -20.6750  -26.9392   22.5435 C   0  0  0  0  0  0
  -19.5744  -26.6389   21.5213 C   0  0  0  0  0  0
  -18.1912  -26.7940   22.1602 C   0  0  0  0  0  0
  -19.1518  -28.8835   23.2908 C   0  0  0  0  0  0
  -18.9448  -30.1444   23.8914 C   0  0  0  0  0  0
  -17.6451  -30.6588   24.0562 C   0  0  0  0  0  0
  -25.9026  -34.9479   23.5139 C   0  0  0  0  0  0
  -16.5339  -29.9092   23.6330 C   0  0  0  0  0  0
  -16.7257  -28.6512   23.0344 C   0  0  0  0  0  0
  -26.4455  -31.6601   25.0726 C   0  0  0  0  0  0
  -25.3737  -31.3729   26.1493 C   0  0  0  0  0  0
  -27.0248  -30.3034   24.6085 C   0  0  0  0  0  0
  -27.6061  -32.4298   25.7463 C   0  0  0  0  0  0
  -27.5583  -37.1791   24.8458 C   0  0  0  0  0  0
  -21.4132  -29.3021   22.3737 N   0  0  0  0  0  0
  -26.4282  -37.3801   23.9429 N   0  0  0  0  0  0
  -24.6641  -31.0805   22.1002 N   0  0  0  0  0  0
  -23.4184  -28.8194   23.3024 O   0  0  0  0  0  0
  -28.3904  -26.7162   20.0591 O   0  0  0  0  0  0
  -26.5580  -34.8934   22.4696 O   0  0  0  0  0  0
  -23.5317  -32.1424   23.7524 O   0  0  0  0  0  0
  -29.6378  -19.0644   21.9394 C   0  0  0  0  0  0
  -29.5424  -17.6592   22.0187 C   0  0  0  0  0  0
  -30.9139  -17.4632   20.0278 C   0  0  0  0  0  0
  -30.3907  -19.6921   20.9196 C   0  0  0  0  0  0
  -31.0135  -18.8711   19.9446 C   0  0  0  0  0  0
  -30.1924  -16.8386   21.0748 C   0  0  0  0  0  0
  -30.5142  -21.1695   20.8697 C   0  0  0  0  0  0
  -29.6683  -22.0687   21.4121 C   0  0  0  0  0  0
  -28.9795  -24.3796   20.5167 C   0  0  0  0  0  0
  -31.7972  -19.4749   18.7891 C   0  0  0  0  0  0
  -29.9095  -23.5745   21.4349 C   0  0  0  0  0  0
  -28.4455  -25.7088   21.0748 C   0  0  0  0  0  0
  -30.0340  -15.4229   21.1941 N   0  0  0  0  0  0
  -28.6855  -23.9845   19.3837 O   0  0  0  0  0  0
  -31.4658  -12.3737   19.1165 H   0  0  0  0  0  0
  -30.3085  -11.2728   19.8067 H   0  0  0  0  0  0
  -29.7257  -11.7843   17.4179 H   0  0  0  0  0  0
  -29.6695  -13.4920   17.7771 H   0  0  0  0  0  0
  -27.8142  -11.3157   18.8055 H   0  0  0  0  0  0
  -27.3646  -12.6566   17.7862 H   0  0  0  0  0  0
  -27.7152  -14.2553   19.5898 H   0  0  0  0  0  0
  -28.6733  -11.9321   21.3309 H   0  0  0  0  0  0
  -28.4695  -13.5631   21.8813 H   0  0  0  0  0  0
  -25.2750   -9.5685   22.4743 H   0  0  0  0  0  0
  -23.9994   -7.4631   22.7459 H   0  0  0  0  0  0
  -21.0833   -8.8749   19.8953 H   0  0  0  0  0  0
  -22.3667  -10.9653   19.6137 H   0  0  0  0  0  0
  -21.1990   -7.6132   23.9705 H   0  0  0  0  0  0
  -21.1471   -6.0506   25.9076 H   0  0  0  0  0  0
  -22.0605   -2.7600   23.2831 H   0  0  0  0  0  0
  -22.4112  -11.9879   22.4765 H   0  0  0  0  0  0
  -21.1126  -13.1269   22.2598 H   0  0  0  0  0  0
  -24.6666  -15.8429   20.5232 H   0  0  0  0  0  0
  -26.2908  -15.6288   20.1057 H   0  0  0  0  0  0
  -26.7092  -32.5554   23.1180 H   0  0  0  0  0  0
  -25.0072  -33.9787   25.0504 H   0  0  0  0  0  0
  -22.6878  -31.3066   21.4103 H   0  0  0  0  0  0
  -23.3767  -35.9601   23.3281 H   0  0  0  0  0  0
  -24.3579  -36.8927   22.2062 H   0  0  0  0  0  0
  -23.7190  -37.6484   23.6656 H   0  0  0  0  0  0
  -26.0375  -31.6066   20.5940 H   0  0  0  0  0  0
  -26.8161  -30.8947   21.9789 H   0  0  0  0  0  0
  -28.1043  -29.1301   21.1520 H   0  0  0  0  0  0
  -26.0874  -25.9702   19.0264 H   0  0  0  0  0  0
  -23.9832  -27.2834   19.0458 H   0  0  0  0  0  0
  -23.7155  -30.5935   19.4027 H   0  0  0  0  0  0
  -22.7362  -29.2355   19.8729 H   0  0  0  0  0  0
  -25.1272  -36.1975   25.0837 H   0  0  0  0  0  0
  -20.9951  -28.3218   24.1455 H   0  0  0  0  0  0
  -20.5640  -26.2263   23.3621 H   0  0  0  0  0  0
  -21.6620  -26.7429   22.1238 H   0  0  0  0  0  0
  -19.6899  -25.6305   21.1236 H   0  0  0  0  0  0
  -19.6712  -27.3202   20.6751 H   0  0  0  0  0  0
  -17.4206  -26.6732   21.3972 H   0  0  0  0  0  0
  -18.0269  -26.0070   22.8978 H   0  0  0  0  0  0
  -19.7921  -30.7248   24.2295 H   0  0  0  0  0  0
  -17.5012  -31.6269   24.5164 H   0  0  0  0  0  0
  -15.5341  -30.2993   23.7656 H   0  0  0  0  0  0
  -15.8658  -28.0842   22.7044 H   0  0  0  0  0  0
  -24.5910  -30.7053   25.7869 H   0  0  0  0  0  0
  -24.8915  -32.2888   26.4921 H   0  0  0  0  0  0
  -25.8109  -30.8940   27.0262 H   0  0  0  0  0  0
  -26.2759  -29.6823   24.1153 H   0  0  0  0  0  0
  -27.4023  -29.7250   25.4527 H   0  0  0  0  0  0
  -27.8605  -30.4338   23.9207 H   0  0  0  0  0  0
  -27.2723  -33.3618   26.2038 H   0  0  0  0  0  0
  -28.3862  -32.6817   25.0266 H   0  0  0  0  0  0
  -28.0727  -31.8409   26.5370 H   0  0  0  0  0  0
  -28.2597  -38.0095   24.7530 H   0  0  0  0  0  0
  -28.1076  -36.2628   24.6225 H   0  0  0  0  0  0
  -27.2320  -37.1386   25.8867 H   0  0  0  0  0  0
  -20.9292  -29.8742   21.6958 H   0  0  0  0  0  0
  -26.0171  -38.2875   24.1468 H   0  0  0  0  0  0
  -29.1455  -19.6561   22.6969 H   0  0  0  0  0  0
  -28.9687  -17.2178   22.8215 H   0  0  0  0  0  0
  -31.3954  -16.8730   19.2622 H   0  0  0  0  0  0
  -31.4023  -21.5527   20.3864 H   0  0  0  0  0  0
  -28.7553  -21.7383   21.8860 H   0  0  0  0  0  0
  -32.0233  -18.7281   18.0273 H   0  0  0  0  0  0
  -32.7425  -19.8872   19.1420 H   0  0  0  0  0  0
  -31.2316  -20.2716   18.3050 H   0  0  0  0  0  0
  -30.9364  -23.7832   21.1371 H   0  0  0  0  0  0
  -29.8006  -23.9276   22.4600 H   0  0  0  0  0  0
  -29.0925  -26.0542   21.8811 H   0  0  0  0  0  0
  -27.4607  -25.5255   21.5077 H   0  0  0  0  0  0
  -29.2175  -15.1124   21.6973 H   0  0  0  0  0  0
  1 25  1  0  0  0
  1 30  2  0  0  0
  1 83  1  0  0  0
  2  3  1  0  0  0
  2 25  1  0  0  0
  2 85  1  0  0  0
  2 86  1  0  0  0
  3  4  1  0  0  0
  3 87  1  0  0  0
  3 88  1  0  0  0
  4  5  1  0  0  0
  4 89  1  0  0  0
  4 90  1  0  0  0
  5  6  1  0  0  0
  5 26  1  0  0  0
  5 91  1  0  0  0
  6 25  1  0  0  0
  6 92  1  0  0  0
  6 93  1  0  0  0
  7  8  2  0  0  0
  7 26  1  0  0  0
  7 29  1  0  0  0
  8  9  1  0  0  0
  8 22  1  0  0  0
  9 10  1  0  0  0
  9 27  2  0  0  0
 10 11  2  0  0  0
 10 15  1  0  0  0
 11 12  1  0  0  0
 11 94  1  0  0  0
 12 13  2  0  0  0
 12 95  1  0  0  0
 13 14  1  0  0  0
 13 31  1  0  0  0
 14 15  2  0  0  0
 14 96  1  0  0  0
 15 97  1  0  0  0
 16 17  2  0  0  0
 16 21  1  0  0  0
 16 31  1  0  0  0
 17 18  1  0  0  0
 17 98  1  0  0  0
 18 19  2  0  0  0
 18 99  1  0  0  0
 19 20  1  0  0  0
 19 24  1  0  0  0
 20 21  2  0  0  0
 20100  1  0  0  0
 21 23  1  0  0  0
 22 28  1  0  0  0
 22 32  2  0  0  0
 26 27  1  0  0  0
 28101  1  0  0  0
 28102  1  0  0  0
 29103  1  0  0  0
 29104  1  0  0  0
 33 34  1  0  0  0
 33 66  1  0  0  0
 33 70  2  0  0  0
 34 36  1  0  0  0
 34 59  1  0  0  0
 34105  1  0  0  0
 35 44  2  0  0  0
 35 45  1  0  0  0
 35 68  1  0  0  0
 36 56  1  0  0  0
 36106  1  0  0  0
 37 39  1  0  0  0
 37 47  1  0  0  0
 37 66  1  0  0  0
 37107  1  0  0  0
 38 43  2  0  0  0
 38 46  1  0  0  0
 38 47  1  0  0  0
 39 64  1  0  0  0
 39 67  2  0  0  0
 40 52  1  0  0  0
 40 53  2  0  0  0
 40 58  1  0  0  0
 41108  1  0  0  0
 41109  1  0  0  0
 41110  1  0  0  0
 41 48  1  0  0  0
 42 43  1  0  0  0
 42 66  1  0  0  0
 42111  1  0  0  0
 42112  1  0  0  0
 43 44  1  0  0  0
 44113  1  0  0  0
 45 46  2  0  0  0
 45114  1  0  0  0
 46115  1  0  0  0
 47116  1  0  0  0
 47117  1  0  0  0
 48 56  1  0  0  0
 48 65  1  0  0  0
 48118  1  0  0  0
 49 50  1  0  0  0
 49 53  1  0  0  0
 49 64  1  0  0  0
 49119  1  0  0  0
 50 51  1  0  0  0
 50120  1  0  0  0
 50121  1  0  0  0
 51 52  1  0  0  0
 51122  1  0  0  0
 51123  1  0  0  0
 52124  1  0  0  0
 52125  1  0  0  0
 53 54  1  0  0  0
 54 55  2  0  0  0
 54126  1  0  0  0
 55 57  1  0  0  0
 55127  1  0  0  0
 56 69  2  0  0  0
 57 58  2  0  0  0
 57128  1  0  0  0
 58129  1  0  0  0
 59 60  1  0  0  0
 59 61  1  0  0  0
 59 62  1  0  0  0
 60130  1  0  0  0
 60131  1  0  0  0
 60132  1  0  0  0
 61133  1  0  0  0
 61134  1  0  0  0
 61135  1  0  0  0
 62136  1  0  0  0
 62137  1  0  0  0
 62138  1  0  0  0
 63 65  1  0  0  0
 63139  1  0  0  0
 63140  1  0  0  0
 63141  1  0  0  0
 64142  1  0  0  0
 65143  1  0  0  0
 68 82  1  0  0  0
 71 72  2  0  0  0
 71 74  1  0  0  0
 71144  1  0  0  0
 72 76  1  0  0  0
 72145  1  0  0  0
 73 75  1  0  0  0
 73 76  2  0  0  0
 73146  1  0  0  0
 74 75  2  0  0  0
 74 77  1  0  0  0
 75 80  1  0  0  0
 76 83  1  0  0  0
 77 78  2  0  0  0
 77147  1  0  0  0
 78 81  1  0  0  0
 78148  1  0  0  0
 79 81  1  0  0  0
 79 82  1  0  0  0
 79 84  2  0  0  0
 80149  1  0  0  0
 80150  1  0  0  0
 80151  1  0  0  0
 81152  1  0  0  0
 81153  1  0  0  0
 82154  1  0  0  0
 82155  1  0  0  0
 83156  1  0  0  0
M  ISO  4   1 100  68 101  82 101  83 100
M  END
> <chiral flag>
0

> <version>
0

> <s_m_source_file>
/data/baiqing/PycharmProjects/Reinvent-master-3.2/result/LINK_invent/BTK/process_docking_weight1_custom_product_contain_oxygen_bond_distance_aromatic_linkinvent_7_9_3/rearranged_h_0120.sdf

> <i_m_source_file_index>
44

> <r_mmod_Potential_Energy-OPLS-2005>
-36.4604911804199

> <r_mmod_Stretch_Energy-OPLS-2005>
35.0620384216309

> <r_mmod_Bend_Energy-OPLS-2005>
91.1471252441406

> <r_mmod_Torsional_Energy-OPLS-2005>
243.594009399414

> <r_mmod_Improper_Torsional_Energy-OPLS-2005>
3.08827567100525

> <r_mmod_Van_der_Waal_Energy-OPLS-2005>
154.925064086914

> <r_mmod_Electrostatic_Energy-OPLS-2005>
-351.747985839844

> <r_mmod_Solvation_Energy-OPLS-2005>
-222.149353027344

> <b_mmod_Minimization_Converged-OPLS-2005>
0

> <r_mmod_RMS_Derivative-OPLS-2005>
1.26484453678131

$$$$
44
                    3D
 Structure written by MMmdl.
166174  0  0  1  0            999 V2000
  -30.9488  -14.1313   20.7999 C   0  0  0  0  0  0
  -30.4047  -12.2300   19.3445 C   0  0  0  0  0  0
  -29.4655  -12.5443   18.1713 C   0  0  0  0  0  0
  -27.9977  -12.3895   18.5943 C   0  0  0  0  0  0
  -27.6726  -13.1840   19.8795 C   0  0  2  0  0  0
  -28.7290  -12.9120   20.9889 C   0  0  0  0  0  0
  -25.2686  -13.8106   20.5693 C   0  0  0  0  0  0
  -24.1881  -13.0393   20.9162 C   0  0  0  0  0  0
  -24.6435  -11.6867   20.8761 C   0  0  0  0  0  0
  -23.9077  -10.4274   21.0438 C   0  0  0  0  0  0
  -24.3616   -9.4163   21.9215 C   0  0  0  0  0  0
  -23.6277   -8.2210   22.0785 C   0  0  0  0  0  0
  -22.4250   -8.0298   21.3567 C   0  0  0  0  0  0
  -21.9900   -9.0279   20.4667 C   0  0  0  0  0  0
  -22.7250  -10.2153   20.3098 C   0  0  0  0  0  0
  -21.6820   -6.0727   22.5271 C   0  0  0  0  0  0
  -21.3982   -6.5631   23.8208 C   0  0  0  0  0  0
  -21.3667   -5.6790   24.9175 C   0  0  0  0  0  0
  -21.6071   -4.3052   24.7228 C   0  0  0  0  0  0
  -21.8799   -3.8143   23.4347 C   0  0  0  0  0  0
  -21.9171   -4.6959   22.3393 C   0  0  0  0  0  0
  -22.7910  -13.5240   21.1787 C   0  0  0  0  0  0
  -22.1666   -4.2152   21.0973 F   0  0  0  0  0  0
  -21.5648   -3.4515   25.7728 F   0  0  0  0  0  0
  -30.0951  -13.1298   20.4610 N   0  0  0  0  0  0
  -26.3117  -12.9225   20.3427 N   0  0  0  0  0  0
  -25.9370  -11.6412   20.5802 N   0  0  0  0  0  0
  -22.0534  -12.8296   22.0393 N   0  0  0  0  0  0
  -25.4355  -15.1816   20.4133 N   0  0  0  0  0  0
  -31.8958  -14.4784   20.0896 O   0  0  0  0  0  0
  -21.6639   -6.8877   21.4236 O   0  0  0  0  0  0
  -22.3588  -14.5521   20.6618 O   0  0  0  0  0  0
  -24.6124  -31.8779   23.2176 C   0  0  0  0  0  0
  -25.9107  -32.4824   23.8412 C   0  0  1  0  0  0
  -27.2231  -27.5086   20.0464 C   0  0  0  0  0  0
  -25.6031  -33.8630   24.2351 N   0  0  0  0  0  0
  -23.3881  -30.5085   21.5617 C   0  0  2  0  0  0
  -24.8229  -28.9797   20.1190 C   0  0  0  0  0  0
  -22.7356  -29.4799   22.5099 C   0  0  0  0  0  0
  -18.0310  -28.1323   22.8513 C   0  0  0  0  0  0
  -24.1544  -36.7309   23.2608 C   0  0  0  0  0  0
  -25.9123  -30.8506   21.3664 C   0  0  0  0  0  0
  -25.9821  -29.4953   20.7088 C   0  0  0  0  0  0
  -27.1799  -28.7591   20.6886 C   0  0  0  0  0  0
  -26.0417  -26.9958   19.4540 C   0  0  0  0  0  0
  -24.8415  -27.7202   19.5032 C   0  0  0  0  0  0
  -23.5841  -29.8399   20.1760 C   0  0  0  0  0  0
  -25.4143  -36.3083   24.0307 C   0  0  1  0  0  0
  -20.5853  -28.3737   23.1384 C   0  0  2  0  0  0
  -20.6885  -26.9534   22.5413 C   0  0  0  0  0  0
  -19.5880  -26.6493   21.5202 C   0  0  0  0  0  0
  -18.2078  -26.7901   22.1615 C   0  0  0  0  0  0
  -19.1497  -28.8849   23.2927 C   0  0  0  0  0  0
  -18.9335  -30.1472   23.8897 C   0  0  0  0  0  0
  -17.6297  -30.6594   24.0414 C   0  0  0  0  0  0
  -25.9061  -34.9455   23.5088 C   0  0  0  0  0  0
  -16.5251  -29.8977   23.6244 C   0  0  0  0  0  0
  -16.7264  -28.6354   23.0369 C   0  0  0  0  0  0
  -26.4533  -31.6576   25.0717 C   0  0  0  0  0  0
  -25.3820  -31.3720   26.1472 C   0  0  0  0  0  0
  -27.0301  -30.3000   24.6049 C   0  0  0  0  0  0
  -27.6113  -32.4269   25.7493 C   0  0  0  0  0  0
  -27.5589  -37.1813   24.8444 C   0  0  0  0  0  0
  -21.4081  -29.3160   22.3857 N   0  0  0  0  0  0
  -26.4323  -37.3761   23.9362 N   0  0  0  0  0  0
  -24.6562  -31.0919   22.1067 N   0  0  0  0  0  0
  -23.4177  -28.8329   23.3095 O   0  0  0  0  0  0
  -28.4254  -26.8464   20.0335 O   0  0  0  0  0  0
  -26.5551  -34.8919   22.4606 O   0  0  0  0  0  0
  -23.5359  -32.1574   23.7588 O   0  0  0  0  0  0
  -27.5475  -20.3474   20.7263 C   0  0  0  0  0  0
  -28.7917  -20.7564   18.6611 C   0  0  0  0  0  0
  -27.9287  -21.1951   19.6727 C   0  0  0  0  0  0
  -28.0848  -19.0487   20.8288 C   0  0  0  0  0  0
  -28.9680  -18.6190   19.7926 C   0  0  0  0  0  0
  -29.3137  -19.4683   18.7261 C   0  0  0  0  0  0
  -27.6339  -22.6030   19.7360 C   0  0  0  0  0  0
  -27.7900  -23.2832   20.8782 C   0  0  0  0  0  0
  -26.9920  -19.2303   24.0027 C   0  0  0  0  0  0
  -27.6716  -24.7674   20.9776 C   0  0  0  0  0  0
  -30.7207  -14.9368   22.0764 C   0  0  0  0  0  0
  -30.2302  -16.3360   21.6978 C   0  0  0  0  0  0
  -26.6550  -18.4664   22.7160 C   0  0  0  0  0  0
  -28.3886  -25.4561   19.8015 C   0  0  0  0  0  0
  -29.1933  -16.3647   20.5531 C   0  0  0  0  0  0
  -27.8196  -18.2517   21.9262 O   0  0  0  0  0  0
  -29.5570  -17.3957   19.6863 O   0  0  0  0  0  0
  -30.1777  -19.0498   17.7669 F   0  0  0  0  0  0
  -31.4414  -12.2945   19.0104 H   0  0  0  0  0  0
  -30.2754  -11.1965   19.6646 H   0  0  0  0  0  0
  -29.6773  -11.8877   17.3251 H   0  0  0  0  0  0
  -29.6473  -13.5627   17.8251 H   0  0  0  0  0  0
  -27.7939  -11.3296   18.7443 H   0  0  0  0  0  0
  -27.3461  -12.7224   17.7848 H   0  0  0  0  0  0
  -27.6999  -14.2278   19.5909 H   0  0  0  0  0  0
  -28.6572  -11.8796   21.3256 H   0  0  0  0  0  0
  -28.4821  -13.5116   21.8617 H   0  0  0  0  0  0
  -25.2781   -9.5607   22.4758 H   0  0  0  0  0  0
  -23.9965   -7.4589   22.7520 H   0  0  0  0  0  0
  -21.0819   -8.8821   19.8984 H   0  0  0  0  0  0
  -22.3737  -10.9700   19.6191 H   0  0  0  0  0  0
  -21.1969   -7.6133   23.9689 H   0  0  0  0  0  0
  -21.1525   -6.0537   25.9067 H   0  0  0  0  0  0
  -22.0584   -2.7608   23.2844 H   0  0  0  0  0  0
  -22.4150  -11.9965   22.4792 H   0  0  0  0  0  0
  -21.1177  -13.1421   22.2623 H   0  0  0  0  0  0
  -24.6652  -15.8281   20.5391 H   0  0  0  0  0  0
  -26.2820  -15.6318   20.0909 H   0  0  0  0  0  0
  -26.7154  -32.5531   23.1152 H   0  0  0  0  0  0
  -25.0396  -33.9821   25.0626 H   0  0  0  0  0  0
  -22.6764  -31.3239   21.4268 H   0  0  0  0  0  0
  -23.3784  -35.9666   23.3277 H   0  0  0  0  0  0
  -24.3670  -36.8906   22.2024 H   0  0  0  0  0  0
  -23.7346  -37.6540   23.6616 H   0  0  0  0  0  0
  -26.0371  -31.6194   20.6019 H   0  0  0  0  0  0
  -26.8009  -30.8884   21.9829 H   0  0  0  0  0  0
  -28.0757  -29.1462   21.1576 H   0  0  0  0  0  0
  -26.0086  -26.0453   18.9452 H   0  0  0  0  0  0
  -23.9472  -27.3152   19.0512 H   0  0  0  0  0  0
  -23.6765  -30.6159   19.4164 H   0  0  0  0  0  0
  -22.7087  -29.2534   19.8866 H   0  0  0  0  0  0
  -25.1317  -36.1944   25.0798 H   0  0  0  0  0  0
  -20.9888  -28.3310   24.1526 H   0  0  0  0  0  0
  -20.5980  -26.2320   23.3538 H   0  0  0  0  0  0
  -21.6734  -26.7773   22.1067 H   0  0  0  0  0  0
  -19.7140  -25.6427   21.1169 H   0  0  0  0  0  0
  -19.6829  -27.3367   20.6778 H   0  0  0  0  0  0
  -17.4335  -26.6576   21.4021 H   0  0  0  0  0  0
  -18.0599  -25.9947   22.8950 H   0  0  0  0  0  0
  -19.7744  -30.7357   24.2297 H   0  0  0  0  0  0
  -17.4765  -31.6354   24.4823 H   0  0  0  0  0  0
  -15.5217  -30.2845   23.7420 H   0  0  0  0  0  0
  -15.8726  -28.0538   22.7146 H   0  0  0  0  0  0
  -24.6014  -30.7016   25.7868 H   0  0  0  0  0  0
  -24.9008  -32.2887   26.4882 H   0  0  0  0  0  0
  -25.8215  -30.8972   27.0249 H   0  0  0  0  0  0
  -26.2814  -29.6836   24.1060 H   0  0  0  0  0  0
  -27.4013  -29.7149   25.4482 H   0  0  0  0  0  0
  -27.8699  -30.4270   23.9210 H   0  0  0  0  0  0
  -27.2720  -33.3528   26.2152 H   0  0  0  0  0  0
  -28.3911  -32.6916   25.0334 H   0  0  0  0  0  0
  -28.0814  -31.8367   26.5357 H   0  0  0  0  0  0
  -28.2573  -38.0142   24.7448 H   0  0  0  0  0  0
  -28.1120  -36.2647   24.6300 H   0  0  0  0  0  0
  -27.2295  -37.1468   25.8854 H   0  0  0  0  0  0
  -20.9196  -29.8907   21.7125 H   0  0  0  0  0  0
  -26.0200  -38.2842   24.1349 H   0  0  0  0  0  0
  -26.8917  -20.7385   21.4888 H   0  0  0  0  0  0
  -29.1256  -21.4147   17.8726 H   0  0  0  0  0  0
  -27.3133  -23.0824   18.8226 H   0  0  0  0  0  0
  -28.0673  -22.7755   21.7941 H   0  0  0  0  0  0
  -26.0829  -19.5022   24.5387 H   0  0  0  0  0  0
  -27.5237  -20.1591   23.7999 H   0  0  0  0  0  0
  -27.6052  -18.6271   24.6745 H   0  0  0  0  0  0
  -28.1618  -25.0767   21.8981 H   0  0  0  0  0  0
  -26.6172  -25.0222   21.0783 H   0  0  0  0  0  0
  -30.0644  -14.4501   22.7904 H   0  0  0  0  0  0
  -31.6764  -15.0221   22.5956 H   0  0  0  0  0  0
  -31.1031  -16.9129   21.3794 H   0  0  0  0  0  0
  -29.8270  -16.8363   22.5771 H   0  0  0  0  0  0
  -25.8522  -18.9532   22.1661 H   0  0  0  0  0  0
  -26.2638  -17.4823   22.9733 H   0  0  0  0  0  0
  -29.4210  -25.1081   19.7505 H   0  0  0  0  0  0
  -27.9642  -25.2336   18.8218 H   0  0  0  0  0  0
  -28.1594  -16.2971   20.8754 H   0  0  0  0  0  0
  -29.2562  -15.5611   19.8400 H   0  0  0  0  0  0
  1 25  1  0  0  0
  1 30  2  0  0  0
  1 81  1  0  0  0
  2  3  1  0  0  0
  2 25  1  0  0  0
  2 89  1  0  0  0
  2 90  1  0  0  0
  3  4  1  0  0  0
  3 91  1  0  0  0
  3 92  1  0  0  0
  4  5  1  0  0  0
  4 93  1  0  0  0
  4 94  1  0  0  0
  5  6  1  0  0  0
  5 26  1  0  0  0
  5 95  1  0  0  0
  6 25  1  0  0  0
  6 96  1  0  0  0
  6 97  1  0  0  0
  7  8  2  0  0  0
  7 26  1  0  0  0
  7 29  1  0  0  0
  8  9  1  0  0  0
  8 22  1  0  0  0
  9 10  1  0  0  0
  9 27  2  0  0  0
 10 11  2  0  0  0
 10 15  1  0  0  0
 11 12  1  0  0  0
 11 98  1  0  0  0
 12 13  2  0  0  0
 12 99  1  0  0  0
 13 14  1  0  0  0
 13 31  1  0  0  0
 14 15  2  0  0  0
 14100  1  0  0  0
 15101  1  0  0  0
 16 17  2  0  0  0
 16 21  1  0  0  0
 16 31  1  0  0  0
 17 18  1  0  0  0
 17102  1  0  0  0
 18 19  2  0  0  0
 18103  1  0  0  0
 19 20  1  0  0  0
 19 24  1  0  0  0
 20 21  2  0  0  0
 20104  1  0  0  0
 21 23  1  0  0  0
 22 28  1  0  0  0
 22 32  2  0  0  0
 26 27  1  0  0  0
 28105  1  0  0  0
 28106  1  0  0  0
 29107  1  0  0  0
 29108  1  0  0  0
 33 34  1  0  0  0
 33 66  1  0  0  0
 33 70  2  0  0  0
 34 36  1  0  0  0
 34 59  1  0  0  0
 34109  1  0  0  0
 35 44  2  0  0  0
 35 45  1  0  0  0
 35 68  1  0  0  0
 36 56  1  0  0  0
 36110  1  0  0  0
 37 39  1  0  0  0
 37 47  1  0  0  0
 37 66  1  0  0  0
 37111  1  0  0  0
 38 43  2  0  0  0
 38 46  1  0  0  0
 38 47  1  0  0  0
 39 64  1  0  0  0
 39 67  2  0  0  0
 40 52  1  0  0  0
 40 53  2  0  0  0
 40 58  1  0  0  0
 41112  1  0  0  0
 41113  1  0  0  0
 41114  1  0  0  0
 41 48  1  0  0  0
 42 43  1  0  0  0
 42 66  1  0  0  0
 42115  1  0  0  0
 42116  1  0  0  0
 43 44  1  0  0  0
 44117  1  0  0  0
 45 46  2  0  0  0
 45118  1  0  0  0
 46119  1  0  0  0
 47120  1  0  0  0
 47121  1  0  0  0
 48 56  1  0  0  0
 48 65  1  0  0  0
 48122  1  0  0  0
 49 50  1  0  0  0
 49 53  1  0  0  0
 49 64  1  0  0  0
 49123  1  0  0  0
 50 51  1  0  0  0
 50124  1  0  0  0
 50125  1  0  0  0
 51 52  1  0  0  0
 51126  1  0  0  0
 51127  1  0  0  0
 52128  1  0  0  0
 52129  1  0  0  0
 53 54  1  0  0  0
 54 55  2  0  0  0
 54130  1  0  0  0
 55 57  1  0  0  0
 55131  1  0  0  0
 56 69  2  0  0  0
 57 58  2  0  0  0
 57132  1  0  0  0
 58133  1  0  0  0
 59 60  1  0  0  0
 59 61  1  0  0  0
 59 62  1  0  0  0
 60134  1  0  0  0
 60135  1  0  0  0
 60136  1  0  0  0
 61137  1  0  0  0
 61138  1  0  0  0
 61139  1  0  0  0
 62140  1  0  0  0
 62141  1  0  0  0
 62142  1  0  0  0
 63 65  1  0  0  0
 63143  1  0  0  0
 63144  1  0  0  0
 63145  1  0  0  0
 64146  1  0  0  0
 65147  1  0  0  0
 68 84  1  0  0  0
 71 73  2  0  0  0
 71 74  1  0  0  0
 71148  1  0  0  0
 72 73  1  0  0  0
 72 76  2  0  0  0
 72149  1  0  0  0
 73 77  1  0  0  0
 74 75  2  0  0  0
 74 86  1  0  0  0
 75 76  1  0  0  0
 75 87  1  0  0  0
 76 88  1  0  0  0
 77 78  2  0  0  0
 77150  1  0  0  0
 78 80  1  0  0  0
 78151  1  0  0  0
 79 83  1  0  0  0
 79152  1  0  0  0
 79153  1  0  0  0
 79154  1  0  0  0
 80 84  1  0  0  0
 80155  1  0  0  0
 80156  1  0  0  0
 81 82  1  0  0  0
 81157  1  0  0  0
 81158  1  0  0  0
 82 85  1  0  0  0
 82159  1  0  0  0
 82160  1  0  0  0
 83 86  1  0  0  0
 83161  1  0  0  0
 83162  1  0  0  0
 84163  1  0  0  0
 84164  1  0  0  0
 85 87  1  0  0  0
 85165  1  0  0  0
 85166  1  0  0  0
M  ISO  4   1 100  68 101  81 100  84 101
M  END
> <chiral flag>
0

> <version>
0

> <s_m_source_file>
/data/baiqing/PycharmProjects/Reinvent-master-3.2/result/LINK_invent/BTK/process_docking_weight1_custom_product_contain_oxygen_bond_distance_aromatic_linkinvent_7_9_3/rearranged_h_0120.sdf

> <i_m_source_file_index>
45

> <r_mmod_Potential_Energy-OPLS-2005>
84.2507476806641

> <r_mmod_Stretch_Energy-OPLS-2005>
32.6659927368164

> <r_mmod_Bend_Energy-OPLS-2005>
134.732345581055

> <r_mmod_Torsional_Energy-OPLS-2005>
204.205184936523

> <r_mmod_Improper_Torsional_Energy-OPLS-2005>
3.49605369567871

> <r_mmod_Van_der_Waal_Energy-OPLS-2005>
202.975357055664

> <r_mmod_Electrostatic_Energy-OPLS-2005>
-327.701721191406

> <r_mmod_Solvation_Energy-OPLS-2005>
-192.19059753418

> <b_mmod_Minimization_Converged-OPLS-2005>
0

> <r_mmod_RMS_Derivative-OPLS-2005>
5.81013488769531

$$$$
45
                    3D
 Structure written by MMmdl.
152160  0  0  1  0            999 V2000
  -30.5189  -14.8765   20.4754 C   0  0  0  0  0  0
  -30.4662  -12.5486   19.4771 C   0  0  0  0  0  0
  -29.5249  -12.5443   18.2437 C   0  0  0  0  0  0
  -28.0506  -12.3310   18.6501 C   0  0  0  0  0  0
  -27.6483  -13.2122   19.8599 C   0  0  2  0  0  0
  -28.7018  -13.0909   20.9828 C   0  0  0  0  0  0
  -25.2566  -13.8131   20.5708 C   0  0  0  0  0  0
  -24.1806  -13.0401   20.9148 C   0  0  0  0  0  0
  -24.6396  -11.6880   20.8711 C   0  0  0  0  0  0
  -23.9075  -10.4272   21.0407 C   0  0  0  0  0  0
  -24.3628   -9.4197   21.9189 C   0  0  0  0  0  0
  -23.6302   -8.2238   22.0774 C   0  0  0  0  0  0
  -22.4281   -8.0281   21.3568 C   0  0  0  0  0  0
  -21.9917   -9.0245   20.4656 C   0  0  0  0  0  0
  -22.7256  -10.2117   20.3052 C   0  0  0  0  0  0
  -21.6856   -6.0748   22.5303 C   0  0  0  0  0  0
  -21.4018   -6.5655   23.8237 C   0  0  0  0  0  0
  -21.3646   -5.6807   24.9195 C   0  0  0  0  0  0
  -21.6031   -4.3071   24.7245 C   0  0  0  0  0  0
  -21.8822   -3.8166   23.4369 C   0  0  0  0  0  0
  -21.9197   -4.6977   22.3423 C   0  0  0  0  0  0
  -22.7832  -13.5200   21.1824 C   0  0  0  0  0  0
  -22.1663   -4.2163   21.0999 F   0  0  0  0  0  0
  -21.5609   -3.4550   25.7758 F   0  0  0  0  0  0
  -29.9771  -13.5856   20.4296 N   0  0  0  0  0  0
  -26.2971  -12.9289   20.3321 N   0  0  0  0  0  0
  -25.9319  -11.6453   20.5716 N   0  0  0  0  0  0
  -22.0490  -12.8185   22.0388 N   0  0  0  0  0  0
  -25.4372  -15.1842   20.4246 N   0  0  0  0  0  0
  -31.6920  -15.0228   20.1066 O   0  0  0  0  0  0
  -21.6642   -6.8887   21.4264 O   0  0  0  0  0  0
  -22.3498  -14.5503   20.6691 O   0  0  0  0  0  0
  -24.6369  -31.8517   23.1921 C   0  0  0  0  0  0
  -25.9166  -32.4749   23.8300 C   0  0  1  0  0  0
  -27.2324  -27.2044   20.1501 C   0  0  0  0  0  0
  -25.5933  -33.8547   24.2228 N   0  0  0  0  0  0
  -23.4394  -30.4684   21.5373 C   0  0  2  0  0  0
  -24.8920  -28.9026   20.1160 C   0  0  0  0  0  0
  -22.7546  -29.4581   22.4898 C   0  0  0  0  0  0
  -18.0305  -28.1415   22.8493 C   0  0  0  0  0  0
  -24.1484  -36.7257   23.2644 C   0  0  0  0  0  0
  -25.9896  -30.7460   21.3820 C   0  0  0  0  0  0
  -26.0666  -29.3620   20.7267 C   0  0  0  0  0  0
  -27.2408  -28.5288   20.7269 C   0  0  0  0  0  0
  -26.0349  -26.8305   19.5015 C   0  0  0  0  0  0
  -24.8851  -27.6477   19.4894 C   0  0  0  0  0  0
  -23.6638  -29.7958   20.1581 C   0  0  0  0  0  0
  -25.4123  -36.3058   24.0321 C   0  0  1  0  0  0
  -20.5911  -28.3733   23.1266 C   0  0  2  0  0  0
  -20.6793  -26.9448   22.5416 C   0  0  0  0  0  0
  -19.5762  -26.6407   21.5222 C   0  0  0  0  0  0
  -18.1941  -26.7964   22.1622 C   0  0  0  0  0  0
  -19.1557  -28.8890   23.2869 C   0  0  0  0  0  0
  -18.9476  -30.1483   23.8899 C   0  0  0  0  0  0
  -17.6474  -30.6610   24.0571 C   0  0  0  0  0  0
  -25.9060  -34.9438   23.5081 C   0  0  0  0  0  0
  -16.5363  -29.9103   23.6349 C   0  0  0  0  0  0
  -16.7289  -28.6515   23.0381 C   0  0  0  0  0  0
  -26.4515  -31.6595   25.0711 C   0  0  0  0  0  0
  -25.3700  -31.3731   26.1388 C   0  0  0  0  0  0
  -27.0420  -30.3025   24.6245 C   0  0  0  0  0  0
  -27.6052  -32.4355   25.7494 C   0  0  0  0  0  0
  -27.5582  -37.1782   24.8472 C   0  0  0  0  0  0
  -21.4246  -29.3055   22.3628 N   0  0  0  0  0  0
  -26.4292  -37.3767   23.9418 N   0  0  0  0  0  0
  -24.7079  -31.0408   22.0934 N   0  0  0  0  0  0
  -23.4200  -28.8143   23.3043 O   0  0  0  0  0  0
  -28.3048  -26.2598   20.1746 O   0  0  0  0  0  0
  -26.5642  -34.8925   22.4659 O   0  0  0  0  0  0
  -23.5497  -32.1364   23.7168 O   0  0  0  0  0  0
  -29.5693  -19.9848   21.9090 C   0  0  0  0  0  0
  -29.7923  -18.5632   21.8926 C   0  0  0  0  0  0
  -29.5050  -20.0155   19.5567 C   0  0  0  0  0  0
  -29.3501  -20.7934   20.7522 C   0  0  0  0  0  0
  -29.8280  -17.7499   20.7156 C   0  0  0  0  0  0
  -29.7200  -18.5692   19.5272 C   0  0  0  0  0  0
  -28.9191  -22.3070   20.9427 C   0  0  0  0  0  0
  -28.7073  -23.4721   20.1885 C   0  0  0  0  0  0
  -29.5689  -16.1783   20.8690 C   0  0  0  0  0  0
  -29.7585  -17.9112   18.1566 C   0  0  0  0  0  0
  -28.0346  -24.8548   20.7141 C   0  0  0  0  0  0
  -28.4322  -15.9901   21.3922 N   0  0  0  0  0  0
  -31.4924  -12.7366   19.1591 H   0  0  0  0  0  0
  -30.4887  -11.5656   19.9506 H   0  0  0  0  0  0
  -29.8338  -11.7735   17.5369 H   0  0  0  0  0  0
  -29.6209  -13.4950   17.7171 H   0  0  0  0  0  0
  -27.9202  -11.2776   18.9008 H   0  0  0  0  0  0
  -27.3902  -12.5248   17.8037 H   0  0  0  0  0  0
  -27.6492  -14.2375   19.4927 H   0  0  0  0  0  0
  -28.7929  -12.0476   21.2899 H   0  0  0  0  0  0
  -28.4061  -13.6043   21.8954 H   0  0  0  0  0  0
  -25.2778   -9.5664   22.4754 H   0  0  0  0  0  0
  -24.0015   -7.4630   22.7496 H   0  0  0  0  0  0
  -21.0856   -8.8768   19.8951 H   0  0  0  0  0  0
  -22.3741  -10.9653   19.6145 H   0  0  0  0  0  0
  -21.2025   -7.6166   23.9750 H   0  0  0  0  0  0
  -21.1446   -6.0535   25.9098 H   0  0  0  0  0  0
  -22.0613   -2.7625   23.2882 H   0  0  0  0  0  0
  -22.4116  -11.9838   22.4742 H   0  0  0  0  0  0
  -21.1104  -13.1205   22.2581 H   0  0  0  0  0  0
  -24.7175  -15.8581   20.6602 H   0  0  0  0  0  0
  -26.3686  -15.5889   20.3840 H   0  0  0  0  0  0
  -26.7225  -32.5394   23.1025 H   0  0  0  0  0  0
  -25.0081  -33.9676   25.0369 H   0  0  0  0  0  0
  -22.7387  -31.2916   21.3848 H   0  0  0  0  0  0
  -23.3780  -35.9553   23.3286 H   0  0  0  0  0  0
  -24.3566  -36.8914   22.2067 H   0  0  0  0  0  0
  -23.7184  -37.6422   23.6695 H   0  0  0  0  0  0
  -26.1363  -31.5044   20.6114 H   0  0  0  0  0  0
  -26.8616  -30.7982   22.0224 H   0  0  0  0  0  0
  -28.1397  -28.8791   21.2152 H   0  0  0  0  0  0
  -25.9754  -25.8697   19.0095 H   0  0  0  0  0  0
  -23.9885  -27.2940   18.9988 H   0  0  0  0  0  0
  -23.7921  -30.5689   19.3994 H   0  0  0  0  0  0
  -22.7817  -29.2298   19.8530 H   0  0  0  0  0  0
  -25.1305  -36.1908   25.0812 H   0  0  0  0  0  0
  -21.0005  -28.3327   24.1387 H   0  0  0  0  0  0
  -20.5733  -26.2342   23.3624 H   0  0  0  0  0  0
  -21.6654  -26.7489   22.1193 H   0  0  0  0  0  0
  -19.6929  -25.6315   21.1270 H   0  0  0  0  0  0
  -19.6704  -27.3202   20.6746 H   0  0  0  0  0  0
  -17.4225  -26.6751   21.4008 H   0  0  0  0  0  0
  -18.0301  -26.0093   22.9009 H   0  0  0  0  0  0
  -19.7944  -30.7303   24.2281 H   0  0  0  0  0  0
  -17.5028  -31.6296   24.5174 H   0  0  0  0  0  0
  -15.5364  -30.3014   23.7674 H   0  0  0  0  0  0
  -15.8690  -28.0827   22.7127 H   0  0  0  0  0  0
  -24.5938  -30.7020   25.7687 H   0  0  0  0  0  0
  -24.8800  -32.2885   26.4718 H   0  0  0  0  0  0
  -25.7981  -30.8979   27.0225 H   0  0  0  0  0  0
  -26.3053  -29.6717   24.1264 H   0  0  0  0  0  0
  -27.4111  -29.7338   25.4795 H   0  0  0  0  0  0
  -27.8910  -30.4325   23.9527 H   0  0  0  0  0  0
  -27.2667  -33.3694   26.1993 H   0  0  0  0  0  0
  -28.3895  -32.6853   25.0336 H   0  0  0  0  0  0
  -28.0684  -31.8532   26.5465 H   0  0  0  0  0  0
  -28.2585  -38.0099   24.7568 H   0  0  0  0  0  0
  -28.1096  -36.2632   24.6255 H   0  0  0  0  0  0
  -27.2298  -37.1379   25.8872 H   0  0  0  0  0  0
  -20.9460  -29.8730   21.6773 H   0  0  0  0  0  0
  -26.0173  -38.2837   24.1448 H   0  0  0  0  0  0
  -29.5009  -20.4559   22.8802 H   0  0  0  0  0  0
  -29.8415  -18.0665   22.8517 H   0  0  0  0  0  0
  -29.3801  -20.5341   18.6167 H   0  0  0  0  0  0
  -28.6571  -22.4763   21.9785 H   0  0  0  0  0  0
  -28.9362  -23.4518   19.1330 H   0  0  0  0  0  0
  -29.0682  -18.4036   17.4715 H   0  0  0  0  0  0
  -29.4835  -16.8574   18.1885 H   0  0  0  0  0  0
  -30.7620  -17.9873   17.7340 H   0  0  0  0  0  0
  -28.2231  -24.9052   21.7867 H   0  0  0  0  0  0
  -26.9647  -24.6627   20.6478 H   0  0  0  0  0  0
  -27.9872  -16.8799   21.5844 H   0  0  0  0  0  0
  1 25  1  0  0  0
  1 30  2  0  0  0
  1 79  1  0  0  0
  2  3  1  0  0  0
  2 25  1  0  0  0
  2 83  1  0  0  0
  2 84  1  0  0  0
  3  4  1  0  0  0
  3 85  1  0  0  0
  3 86  1  0  0  0
  4  5  1  0  0  0
  4 87  1  0  0  0
  4 88  1  0  0  0
  5  6  1  0  0  0
  5 26  1  0  0  0
  5 89  1  0  0  0
  6 25  1  0  0  0
  6 90  1  0  0  0
  6 91  1  0  0  0
  7  8  2  0  0  0
  7 26  1  0  0  0
  7 29  1  0  0  0
  8  9  1  0  0  0
  8 22  1  0  0  0
  9 10  1  0  0  0
  9 27  2  0  0  0
 10 11  2  0  0  0
 10 15  1  0  0  0
 11 12  1  0  0  0
 11 92  1  0  0  0
 12 13  2  0  0  0
 12 93  1  0  0  0
 13 14  1  0  0  0
 13 31  1  0  0  0
 14 15  2  0  0  0
 14 94  1  0  0  0
 15 95  1  0  0  0
 16 17  2  0  0  0
 16 21  1  0  0  0
 16 31  1  0  0  0
 17 18  1  0  0  0
 17 96  1  0  0  0
 18 19  2  0  0  0
 18 97  1  0  0  0
 19 20  1  0  0  0
 19 24  1  0  0  0
 20 21  2  0  0  0
 20 98  1  0  0  0
 21 23  1  0  0  0
 22 28  1  0  0  0
 22 32  2  0  0  0
 26 27  1  0  0  0
 28 99  1  0  0  0
 28100  1  0  0  0
 29101  1  0  0  0
 29102  1  0  0  0
 33 34  1  0  0  0
 33 66  1  0  0  0
 33 70  2  0  0  0
 34 36  1  0  0  0
 34 59  1  0  0  0
 34103  1  0  0  0
 35 44  2  0  0  0
 35 45  1  0  0  0
 35 68  1  0  0  0
 36 56  1  0  0  0
 36104  1  0  0  0
 37 39  1  0  0  0
 37 47  1  0  0  0
 37 66  1  0  0  0
 37105  1  0  0  0
 38 43  2  0  0  0
 38 46  1  0  0  0
 38 47  1  0  0  0
 39 64  1  0  0  0
 39 67  2  0  0  0
 40 52  1  0  0  0
 40 53  2  0  0  0
 40 58  1  0  0  0
 41106  1  0  0  0
 41107  1  0  0  0
 41108  1  0  0  0
 41 48  1  0  0  0
 42 43  1  0  0  0
 42 66  1  0  0  0
 42109  1  0  0  0
 42110  1  0  0  0
 43 44  1  0  0  0
 44111  1  0  0  0
 45 46  2  0  0  0
 45112  1  0  0  0
 46113  1  0  0  0
 47114  1  0  0  0
 47115  1  0  0  0
 48 56  1  0  0  0
 48 65  1  0  0  0
 48116  1  0  0  0
 49 50  1  0  0  0
 49 53  1  0  0  0
 49 64  1  0  0  0
 49117  1  0  0  0
 50 51  1  0  0  0
 50118  1  0  0  0
 50119  1  0  0  0
 51 52  1  0  0  0
 51120  1  0  0  0
 51121  1  0  0  0
 52122  1  0  0  0
 52123  1  0  0  0
 53 54  1  0  0  0
 54 55  2  0  0  0
 54124  1  0  0  0
 55 57  1  0  0  0
 55125  1  0  0  0
 56 69  2  0  0  0
 57 58  2  0  0  0
 57126  1  0  0  0
 58127  1  0  0  0
 59 60  1  0  0  0
 59 61  1  0  0  0
 59 62  1  0  0  0
 60128  1  0  0  0
 60129  1  0  0  0
 60130  1  0  0  0
 61131  1  0  0  0
 61132  1  0  0  0
 61133  1  0  0  0
 62134  1  0  0  0
 62135  1  0  0  0
 62136  1  0  0  0
 63 65  1  0  0  0
 63137  1  0  0  0
 63138  1  0  0  0
 63139  1  0  0  0
 64140  1  0  0  0
 65141  1  0  0  0
 68 81  1  0  0  0
 71 72  2  0  0  0
 71 74  1  0  0  0
 71142  1  0  0  0
 72 75  1  0  0  0
 72143  1  0  0  0
 73 74  2  0  0  0
 73 76  1  0  0  0
 73144  1  0  0  0
 74 77  1  0  0  0
 75 76  2  0  0  0
 75 79  1  0  0  0
 76 80  1  0  0  0
 77 78  2  0  0  0
 77145  1  0  0  0
 78 81  1  0  0  0
 78146  1  0  0  0
 79 82  2  0  0  0
 80147  1  0  0  0
 80148  1  0  0  0
 80149  1  0  0  0
 81150  1  0  0  0
 81151  1  0  0  0
 82152  1  0  0  0
M  ISO  4   1 100  68 101  79 100  81 101
M  END
> <chiral flag>
0

> <version>
0

> <s_m_source_file>
/data/baiqing/PycharmProjects/Reinvent-master-3.2/result/LINK_invent/BTK/process_docking_weight1_custom_product_contain_oxygen_bond_distance_aromatic_linkinvent_7_9_3/rearranged_h_0120.sdf

> <i_m_source_file_index>
46

> <r_mmod_Potential_Energy-OPLS-2005>
571.028503417969

> <r_mmod_Stretch_Energy-OPLS-2005>
201.017044067383

> <r_mmod_Bend_Energy-OPLS-2005>
252.815505981445

> <r_mmod_Torsional_Energy-OPLS-2005>
236.540176391602

> <r_mmod_Improper_Torsional_Energy-OPLS-2005>
9.15411853790283

> <r_mmod_Van_der_Waal_Energy-OPLS-2005>
146.594192504883

> <r_mmod_Electrostatic_Energy-OPLS-2005>
-221.967178344727

> <r_mmod_Solvation_Energy-OPLS-2005>
-188.272048950195

> <b_mmod_Minimization_Converged-OPLS-2005>
0

> <r_mmod_RMS_Derivative-OPLS-2005>
2.03442597389221

$$$$
46
                    3D
 Structure written by MMmdl.
167175  0  0  1  0            999 V2000
  -28.3414  -16.7890   20.4196 C   0  0  0  0  0  0
  -29.8499  -14.2284   19.6303 C   0  0  0  0  0  0
  -29.4394  -13.1193   18.5369 C   0  0  0  0  0  0
  -28.1935  -12.3370   18.9523 C   0  0  0  0  0  0
  -27.3891  -13.3124   19.8052 C   0  0  2  0  0  0
  -28.1163  -13.9862   20.9724 C   0  0  0  0  0  0
  -25.1199  -13.7989   20.5564 C   0  0  0  0  0  0
  -24.0904  -13.0127   20.9395 C   0  0  0  0  0  0
  -24.5776  -11.6687   20.8882 C   0  0  0  0  0  0
  -23.8707  -10.4093   21.0533 C   0  0  0  0  0  0
  -24.3422   -9.4067   21.9255 C   0  0  0  0  0  0
  -23.6182   -8.2072   22.0770 C   0  0  0  0  0  0
  -22.4164   -8.0120   21.3549 C   0  0  0  0  0  0
  -21.9731   -9.0044   20.4642 C   0  0  0  0  0  0
  -22.6970  -10.1944   20.3092 C   0  0  0  0  0  0
  -21.6797   -6.0648   22.5293 C   0  0  0  0  0  0
  -21.3974   -6.5596   23.8212 C   0  0  0  0  0  0
  -21.3642   -5.6771   24.9189 C   0  0  0  0  0  0
  -21.6041   -4.3032   24.7253 C   0  0  0  0  0  0
  -21.8827   -3.8101   23.4384 C   0  0  0  0  0  0
  -21.9180   -4.6895   22.3429 C   0  0  0  0  0  0
  -22.7060  -13.4949   21.2108 C   0  0  0  0  0  0
  -22.1655   -4.2099   21.1001 F   0  0  0  0  0  0
  -21.5633   -3.4521   25.7768 F   0  0  0  0  0  0
  -28.6915  -15.1908   20.3306 N   0  0  0  0  0  0
  -26.1337  -12.9156   20.2777 N   0  0  0  0  0  0
  -25.8577  -11.6311   20.5541 N   0  0  0  0  0  0
  -21.9813  -12.7984   22.0731 N   0  0  0  0  0  0
  -25.2730  -15.1758   20.3871 N   0  0  0  0  0  0
  -29.6389  -16.8945   20.2402 O   0  0  0  0  0  0
  -21.6557   -6.8729   21.4234 O   0  0  0  0  0  0
  -22.2844  -14.5294   20.6946 O   0  0  0  0  0  0
  -24.6567  -31.9712   23.1426 C   0  0  0  0  0  0
  -25.9345  -32.5308   23.8332 C   0  0  1  0  0  0
  -26.9565  -27.3838   20.5795 C   0  0  0  0  0  0
  -25.6137  -33.8969   24.2413 N   0  0  0  0  0  0
  -23.4944  -30.6323   21.4125 C   0  0  2  0  0  0
  -24.9065  -29.1062   19.9675 C   0  0  0  0  0  0
  -23.1592  -29.4765   22.3118 C   0  0  0  0  0  0
  -18.3910  -26.6742   22.7125 C   0  0  0  0  0  0
  -24.1486  -36.7480   23.2604 C   0  0  0  0  0  0
  -25.9962  -30.9629   21.2761 C   0  0  0  0  0  0
  -26.0458  -29.5906   20.6257 C   0  0  0  0  0  0
  -27.1537  -28.7529   20.8141 C   0  0  0  0  0  0
  -25.9690  -26.9445   19.6795 C   0  0  0  0  0  0
  -24.8883  -27.8057   19.4180 C   0  0  0  0  0  0
  -23.7106  -30.0319   19.9879 C   0  0  0  0  0  0
  -25.4099  -36.3328   24.0332 C   0  0  1  0  0  0
  -21.9175  -27.6051   22.8127 C   0  0  2  0  0  0
  -22.3511  -25.5148   22.8398 C   0  0  0  0  0  0
  -20.5078  -24.0738   22.7025 C   0  0  0  0  0  0
  -18.6327  -24.9327   22.5196 C   0  0  0  0  0  0
  -20.3648  -28.2118   22.7881 C   0  0  0  0  0  0
  -19.8326  -29.9135   23.0552 C   0  0  0  0  0  0
  -18.1715  -30.3479   23.1783 C   0  0  0  0  0  0
  -25.9070  -34.9758   23.5103 C   0  0  0  0  0  0
  -16.8396  -29.3071   23.1033 C   0  0  0  0  0  0
  -16.8673  -27.6015   22.9037 C   0  0  0  0  0  0
  -26.4419  -31.6969   25.0708 C   0  0  0  0  0  0
  -25.3565  -31.4027   26.1320 C   0  0  0  0  0  0
  -27.0224  -30.3552   24.6044 C   0  0  0  0  0  0
  -27.6040  -32.4465   25.7637 C   0  0  0  0  0  0
  -27.5596  -37.1921   24.8448 C   0  0  0  0  0  0
  -22.2838  -28.6068   21.8979 N   0  0  0  0  0  0
  -26.4287  -37.3991   23.9437 N   0  0  0  0  0  0
  -24.7280  -31.2530   21.9789 N   0  0  0  0  0  0
  -23.7898  -29.2765   23.3363 O   0  0  0  0  0  0
  -27.1297  -26.5615   21.6768 O   0  0  0  0  0  0
  -26.5514  -34.9169   22.4595 O   0  0  0  0  0  0
  -23.5665  -32.2071   23.6880 O   0  0  0  0  0  0
  -18.5874  -28.5283   21.6001 C   0  0  0  0  0  0
  -19.6029  -27.2750   20.7495 C   0  0  0  0  0  0
  -20.3465  -26.1014   23.7178 C   0  0  0  0  0  0
  -19.7871  -27.0833   24.7861 C   0  0  0  0  0  0
  -18.7092  -28.2427   24.2237 C   0  0  0  0  0  0
  -20.5659  -26.0178   21.5304 C   0  0  0  0  0  0
  -22.5935  -26.5326   25.4842 C   0  0  0  0  0  0
  -23.8742  -26.9710   24.9560 C   0  0  0  0  0  0
  -21.1180  -27.2445   25.7965 C   0  0  0  0  0  0
  -18.1347  -28.9542   25.5026 C   0  0  0  0  0  0
  -27.5323  -27.2931   23.9087 C   0  0  0  0  0  0
  -25.1692  -26.2522   24.0948 C   0  0  0  0  0  0
  -26.6224  -18.5627   20.7636 C   0  0  0  0  0  0
  -25.0442  -20.7047   20.5039 C   0  0  0  0  0  0
  -23.3092  -22.6738   21.0212 C   0  0  0  0  0  0
  -26.3215  -26.9905   23.0118 C   0  0  2  0  0  0
  -21.0207  -27.9678   26.7897 O   0  0  0  0  0  0
  -21.8226  -24.5086   20.7840 O   0  0  0  0  0  0
  -30.5427  -14.8962   19.1168 H   0  0  0  0  0  0
  -30.4958  -13.7795   20.3875 H   0  0  0  0  0  0
  -30.2712  -12.4464   18.3241 H   0  0  0  0  0  0
  -29.2207  -13.6375   17.6018 H   0  0  0  0  0  0
  -28.4748  -11.4671   19.5479 H   0  0  0  0  0  0
  -27.6293  -11.9804   18.0898 H   0  0  0  0  0  0
  -27.1258  -14.0685   19.0601 H   0  0  0  0  0  0
  -28.7870  -13.3148   21.5145 H   0  0  0  0  0  0
  -27.4396  -14.3576   21.7430 H   0  0  0  0  0  0
  -25.2547   -9.5622   22.4836 H   0  0  0  0  0  0
  -23.9920   -7.4459   22.7473 H   0  0  0  0  0  0
  -21.0669   -8.8514   19.8945 H   0  0  0  0  0  0
  -22.3405  -10.9498   19.6228 H   0  0  0  0  0  0
  -21.1956   -7.6106   23.9699 H   0  0  0  0  0  0
  -21.1459   -6.0507   25.9090 H   0  0  0  0  0  0
  -22.0631   -2.7566   23.2893 H   0  0  0  0  0  0
  -22.3462  -11.9640   22.5082 H   0  0  0  0  0  0
  -21.0475  -13.1052   22.3053 H   0  0  0  0  0  0
  -24.4706  -15.7919   20.4561 H   0  0  0  0  0  0
  -26.0311  -15.5692   19.8494 H   0  0  0  0  0  0
  -26.7662  -32.6041   23.1384 H   0  0  0  0  0  0
  -25.0455  -34.0083   25.0681 H   0  0  0  0  0  0
  -22.6686  -31.3445   21.4002 H   0  0  0  0  0  0
  -23.3769  -35.9789   23.3263 H   0  0  0  0  0  0
  -24.3596  -36.9097   22.2019 H   0  0  0  0  0  0
  -23.7212  -37.6677   23.6609 H   0  0  0  0  0  0
  -26.1463  -31.7236   20.5089 H   0  0  0  0  0  0
  -26.8678  -31.0052   21.9175 H   0  0  0  0  0  0
  -27.9436  -29.0765   21.4748 H   0  0  0  0  0  0
  -25.8388  -25.8915   19.4764 H   0  0  0  0  0  0
  -24.0131  -27.4354   18.9013 H   0  0  0  0  0  0
  -23.9046  -30.8458   19.2875 H   0  0  0  0  0  0
  -22.8242  -29.5318   19.5940 H   0  0  0  0  0  0
  -25.1268  -36.2175   25.0823 H   0  0  0  0  0  0
  -22.0668  -28.0324   23.7676 H   0  0  0  0  0  0
  -22.8572  -25.0590   23.6667 H   0  0  0  0  0  0
  -23.1890  -25.4041   22.1517 H   0  0  0  0  0  0
  -20.4893  -23.5061   23.6392 H   0  0  0  0  0  0
  -20.5833  -23.2061   22.0441 H   0  0  0  0  0  0
  -18.2285  -24.6676   21.5422 H   0  0  0  0  0  0
  -17.9678  -24.4421   23.2296 H   0  0  0  0  0  0
  -20.5729  -30.6931   23.1556 H   0  0  0  0  0  0
  -17.9523  -31.3947   23.3253 H   0  0  0  0  0  0
  -15.8639  -29.7606   23.2040 H   0  0  0  0  0  0
  -15.9293  -27.0659   22.8894 H   0  0  0  0  0  0
  -24.5571  -30.7705   25.7436 H   0  0  0  0  0  0
  -24.8988  -32.3217   26.4996 H   0  0  0  0  0  0
  -25.7755  -30.8864   26.9967 H   0  0  0  0  0  0
  -26.2670  -29.7571   24.1002 H   0  0  0  0  0  0
  -27.3854  -29.7799   25.4561 H   0  0  0  0  0  0
  -27.8640  -30.4865   23.9236 H   0  0  0  0  0  0
  -27.2813  -33.3888   26.2077 H   0  0  0  0  0  0
  -28.4053  -32.6766   25.0599 H   0  0  0  0  0  0
  -28.0418  -31.8543   26.5685 H   0  0  0  0  0  0
  -28.2589  -38.0249   24.7597 H   0  0  0  0  0  0
  -28.1129  -36.2803   24.6148 H   0  0  0  0  0  0
  -27.2342  -37.1432   25.8852 H   0  0  0  0  0  0
  -21.7620  -28.7248   21.0425 H   0  0  0  0  0  0
  -26.0201  -38.3062   24.1516 H   0  0  0  0  0  0
  -18.0371  -29.2454   20.9994 H   0  0  0  0  0  0
  -19.6212  -27.3130   19.6685 H   0  0  0  0  0  0
  -20.7609  -25.3832   24.4178 H   0  0  0  0  0  0
  -22.5040  -25.4622   25.5859 H   0  0  0  0  0  0
  -24.0311  -28.0218   25.1027 H   0  0  0  0  0  0
  -17.0481  -29.0154   25.5398 H   0  0  0  0  0  0
  -18.5566  -29.9481   25.6511 H   0  0  0  0  0  0
  -18.4059  -28.3869   26.3935 H   0  0  0  0  0  0
  -27.2257  -27.6234   24.9003 H   0  0  0  0  0  0
  -28.1773  -28.0595   23.4842 H   0  0  0  0  0  0
  -28.1431  -26.4022   24.0496 H   0  0  0  0  0  0
  -24.8520  -25.3543   23.5812 H   0  0  0  0  0  0
  -25.7589  -25.8027   24.8932 H   0  0  0  0  0  0
  -25.8555  -17.8744   21.1195 H   0  0  0  0  0  0
  -27.1093  -18.9161   21.6722 H   0  0  0  0  0  0
  -24.4547  -20.2770   19.6924 H   0  0  0  0  0  0
  -25.7821  -21.3296   20.0007 H   0  0  0  0  0  0
  -23.9278  -23.1652   21.7711 H   0  0  0  0  0  0
  -22.6084  -22.0663   21.5960 H   0  0  0  0  0  0
  -25.8304  -27.9300   22.7846 H   0  0  0  0  0  0
  1 25  1  0  0  0
  1 30  2  0  0  0
  1 83  1  0  0  0
  2  3  1  0  0  0
  2 25  1  0  0  0
  2 89  1  0  0  0
  2 90  1  0  0  0
  3  4  1  0  0  0
  3 91  1  0  0  0
  3 92  1  0  0  0
  4  5  1  0  0  0
  4 93  1  0  0  0
  4 94  1  0  0  0
  5  6  1  0  0  0
  5 26  1  0  0  0
  5 95  1  0  0  0
  6 25  1  0  0  0
  6 96  1  0  0  0
  6 97  1  0  0  0
  7  8  2  0  0  0
  7 26  1  0  0  0
  7 29  1  0  0  0
  8  9  1  0  0  0
  8 22  1  0  0  0
  9 10  1  0  0  0
  9 27  2  0  0  0
 10 11  2  0  0  0
 10 15  1  0  0  0
 11 12  1  0  0  0
 11 98  1  0  0  0
 12 13  2  0  0  0
 12 99  1  0  0  0
 13 14  1  0  0  0
 13 31  1  0  0  0
 14 15  2  0  0  0
 14100  1  0  0  0
 15101  1  0  0  0
 16 17  2  0  0  0
 16 21  1  0  0  0
 16 31  1  0  0  0
 17 18  1  0  0  0
 17102  1  0  0  0
 18 19  2  0  0  0
 18103  1  0  0  0
 19 20  1  0  0  0
 19 24  1  0  0  0
 20 21  2  0  0  0
 20104  1  0  0  0
 21 23  1  0  0  0
 22 28  1  0  0  0
 22 32  2  0  0  0
 26 27  1  0  0  0
 28105  1  0  0  0
 28106  1  0  0  0
 29107  1  0  0  0
 29108  1  0  0  0
 33 34  1  0  0  0
 33 66  1  0  0  0
 33 70  2  0  0  0
 34 36  1  0  0  0
 34 59  1  0  0  0
 34109  1  0  0  0
 35 44  2  0  0  0
 35 45  1  0  0  0
 35 68  1  0  0  0
 36 56  1  0  0  0
 36110  1  0  0  0
 37 39  1  0  0  0
 37 47  1  0  0  0
 37 66  1  0  0  0
 37111  1  0  0  0
 38 43  2  0  0  0
 38 46  1  0  0  0
 38 47  1  0  0  0
 39 64  1  0  0  0
 39 67  2  0  0  0
 40 52  1  0  0  0
 40 53  2  0  0  0
 40 58  1  0  0  0
 41112  1  0  0  0
 41113  1  0  0  0
 41114  1  0  0  0
 41 48  1  0  0  0
 42 43  1  0  0  0
 42 66  1  0  0  0
 42115  1  0  0  0
 42116  1  0  0  0
 43 44  1  0  0  0
 44117  1  0  0  0
 45 46  2  0  0  0
 45118  1  0  0  0
 46119  1  0  0  0
 47120  1  0  0  0
 47121  1  0  0  0
 48 56  1  0  0  0
 48 65  1  0  0  0
 48122  1  0  0  0
 49 50  1  0  0  0
 49 53  1  0  0  0
 49 64  1  0  0  0
 49123  1  0  0  0
 50 51  1  0  0  0
 50124  1  0  0  0
 50125  1  0  0  0
 51 52  1  0  0  0
 51126  1  0  0  0
 51127  1  0  0  0
 52128  1  0  0  0
 52129  1  0  0  0
 53 54  1  0  0  0
 54 55  2  0  0  0
 54130  1  0  0  0
 55 57  1  0  0  0
 55131  1  0  0  0
 56 69  2  0  0  0
 57 58  2  0  0  0
 57132  1  0  0  0
 58133  1  0  0  0
 59 60  1  0  0  0
 59 61  1  0  0  0
 59 62  1  0  0  0
 60134  1  0  0  0
 60135  1  0  0  0
 60136  1  0  0  0
 61137  1  0  0  0
 61138  1  0  0  0
 61139  1  0  0  0
 62140  1  0  0  0
 62141  1  0  0  0
 62142  1  0  0  0
 63 65  1  0  0  0
 63143  1  0  0  0
 63144  1  0  0  0
 63145  1  0  0  0
 64146  1  0  0  0
 65147  1  0  0  0
 68 86  1  0  0  0
 71 72  2  0  0  0
 71 75  1  0  0  0
 71148  1  0  0  0
 72 76  1  0  0  0
 72149  1  0  0  0
 73 74  1  0  0  0
 73 76  2  0  0  0
 73150  1  0  0  0
 74 75  2  0  0  0
 74 79  1  0  0  0
 75 80  1  0  0  0
 76 88  1  0  0  0
 77 78  2  0  0  0
 77 79  1  0  0  0
 77151  1  0  0  0
 78 82  1  0  0  0
 78152  1  0  0  0
 79 87  2  0  0  0
 80153  1  0  0  0
 80154  1  0  0  0
 80155  1  0  0  0
 81156  1  0  0  0
 81157  1  0  0  0
 81158  1  0  0  0
 81 86  1  0  0  0
 82 86  1  0  0  0
 82159  1  0  0  0
 82160  1  0  0  0
 83 84  1  0  0  0
 83161  1  0  0  0
 83162  1  0  0  0
 84 85  1  0  0  0
 84163  1  0  0  0
 84164  1  0  0  0
 85 88  1  0  0  0
 85165  1  0  0  0
 85166  1  0  0  0
 86167  1  0  0  0
M  ISO  4   1 100  68 101  83 100  86 101
M  END
> <chiral flag>
0

> <version>
0

> <s_m_source_file>
/data/baiqing/PycharmProjects/Reinvent-master-3.2/result/LINK_invent/BTK/process_docking_weight1_custom_product_contain_oxygen_bond_distance_aromatic_linkinvent_7_9_3/rearranged_h_0120.sdf

> <i_m_source_file_index>
47

> <r_mmod_Potential_Energy-OPLS-2005>
31610.255859375

> <r_mmod_Stretch_Energy-OPLS-2005>
17362.767578125

> <r_mmod_Bend_Energy-OPLS-2005>
1907.1083984375

> <r_mmod_Torsional_Energy-OPLS-2005>
491.711700439453

> <r_mmod_Improper_Torsional_Energy-OPLS-2005>
38.2375946044922

> <r_mmod_Van_der_Waal_Energy-OPLS-2005>
5302.638671875

> <r_mmod_Electrostatic_Energy-OPLS-2005>
-316.875793457031

> <r_mmod_Solvation_Energy-OPLS-2005>
-193.693817138672

> <b_mmod_Minimization_Converged-OPLS-2005>
0

> <r_mmod_RMS_Derivative-OPLS-2005>
4.68685483932495

$$$$
47
                    3D
 Structure written by MMmdl.
152161  0  0  1  0            999 V2000
  -30.6340  -14.7839   20.4547 C   0  0  0  0  0  0
  -30.4214  -12.4847   19.4778 C   0  0  0  0  0  0
  -29.5044  -12.5098   18.2367 C   0  0  0  0  0  0
  -28.0326  -12.3319   18.6535 C   0  0  0  0  0  0
  -27.6348  -13.2411   19.8478 C   0  0  2  0  0  0
  -28.6820  -13.2027   20.9816 C   0  0  0  0  0  0
  -25.2469  -13.8215   20.5701 C   0  0  0  0  0  0
  -24.1780  -13.0443   20.9224 C   0  0  0  0  0  0
  -24.6390  -11.6927   20.8763 C   0  0  0  0  0  0
  -23.9075  -10.4296   21.0411 C   0  0  0  0  0  0
  -24.3625   -9.4209   21.9187 C   0  0  0  0  0  0
  -23.6299   -8.2244   22.0754 C   0  0  0  0  0  0
  -22.4281   -8.0282   21.3544 C   0  0  0  0  0  0
  -21.9918   -9.0257   20.4647 C   0  0  0  0  0  0
  -22.7248  -10.2137   20.3058 C   0  0  0  0  0  0
  -21.6855   -6.0737   22.5279 C   0  0  0  0  0  0
  -21.4015   -6.5641   23.8212 C   0  0  0  0  0  0
  -21.3661   -5.6794   24.9174 C   0  0  0  0  0  0
  -21.6044   -4.3056   24.7224 C   0  0  0  0  0  0
  -21.8819   -3.8148   23.4345 C   0  0  0  0  0  0
  -21.9193   -4.6965   22.3402 C   0  0  0  0  0  0
  -22.7800  -13.5216   21.1876 C   0  0  0  0  0  0
  -22.1661   -4.2150   21.0979 F   0  0  0  0  0  0
  -21.5629   -3.4539   25.7737 F   0  0  0  0  0  0
  -29.9683  -13.5730   20.3823 N   0  0  0  0  0  0
  -26.2905  -12.9443   20.3294 N   0  0  0  0  0  0
  -25.9324  -11.6576   20.5774 N   0  0  0  0  0  0
  -22.0451  -12.8205   22.0432 N   0  0  0  0  0  0
  -25.4119  -15.1936   20.4079 N   0  0  0  0  0  0
  -31.8328  -14.7938   20.1529 O   0  0  0  0  0  0
  -21.6643   -6.8881   21.4241 O   0  0  0  0  0  0
  -22.3481  -14.5518   20.6718 O   0  0  0  0  0  0
  -24.6339  -31.8521   23.1954 C   0  0  0  0  0  0
  -25.9153  -32.4735   23.8310 C   0  0  1  0  0  0
  -27.2192  -27.2332   20.1235 C   0  0  0  0  0  0
  -25.5938  -33.8539   24.2232 N   0  0  0  0  0  0
  -23.4313  -30.4743   21.5395 C   0  0  2  0  0  0
  -24.8770  -28.9164   20.1070 C   0  0  0  0  0  0
  -22.7514  -29.4587   22.4899 C   0  0  0  0  0  0
  -18.0293  -28.1388   22.8483 C   0  0  0  0  0  0
  -24.1490  -36.7276   23.2641 C   0  0  0  0  0  0
  -25.9791  -30.7559   21.3785 C   0  0  0  0  0  0
  -26.0493  -29.3764   20.7184 C   0  0  0  0  0  0
  -27.2184  -28.5461   20.7168 C   0  0  0  0  0  0
  -26.0158  -26.8416   19.4944 C   0  0  0  0  0  0
  -24.8671  -27.6585   19.4856 C   0  0  0  0  0  0
  -23.6496  -29.8071   20.1558 C   0  0  0  0  0  0
  -25.4119  -36.3057   24.0321 C   0  0  1  0  0  0
  -20.5899  -28.3702   23.1263 C   0  0  2  0  0  0
  -20.6779  -26.9416   22.5408 C   0  0  0  0  0  0
  -19.5754  -26.6382   21.5213 C   0  0  0  0  0  0
  -18.1936  -26.7929   22.1625 C   0  0  0  0  0  0
  -19.1548  -28.8863   23.2866 C   0  0  0  0  0  0
  -18.9467  -30.1463   23.8886 C   0  0  0  0  0  0
  -17.6465  -30.6588   24.0562 C   0  0  0  0  0  0
  -25.9063  -34.9428   23.5082 C   0  0  0  0  0  0
  -16.5356  -29.9084   23.6332 C   0  0  0  0  0  0
  -16.7279  -28.6503   23.0353 C   0  0  0  0  0  0
  -26.4508  -31.6575   25.0716 C   0  0  0  0  0  0
  -25.3718  -31.3738   26.1428 C   0  0  0  0  0  0
  -27.0362  -30.2986   24.6232 C   0  0  0  0  0  0
  -27.6052  -32.4326   25.7495 C   0  0  0  0  0  0
  -27.5577  -37.1795   24.8465 C   0  0  0  0  0  0
  -21.4218  -29.3043   22.3647 N   0  0  0  0  0  0
  -26.4290  -37.3760   23.9406 N   0  0  0  0  0  0
  -24.7008  -31.0464   22.0938 N   0  0  0  0  0  0
  -23.4203  -28.8132   23.3011 O   0  0  0  0  0  0
  -28.3215  -26.3418   20.2178 O   0  0  0  0  0  0
  -26.5642  -34.8911   22.4655 O   0  0  0  0  0  0
  -23.5484  -32.1357   23.7235 O   0  0  0  0  0  0
  -28.1374  -20.4605   21.4101 C   0  0  0  0  0  0
  -28.0830  -19.0865   21.8182 C   0  0  0  0  0  0
  -29.7603  -19.8754   19.7205 C   0  0  0  0  0  0
  -28.9627  -20.9193   20.3405 C   0  0  0  0  0  0
  -28.8705  -18.1023   21.1679 C   0  0  0  0  0  0
  -29.7015  -18.4920   20.1434 C   0  0  0  0  0  0
  -28.9766  -22.4029   19.8518 C   0  0  0  0  0  0
  -28.3600  -23.5879   20.2590 C   0  0  0  0  0  0
  -28.9672  -16.5730   21.4035 C   0  0  0  0  0  0
  -30.4323  -17.2193   19.6483 C   0  0  0  0  0  0
  -28.4156  -25.0078   19.5119 C   0  0  0  0  0  0
  -29.9349  -16.0042   20.4110 N   0  0  0  0  0  0
  -31.4624  -12.5957   19.1703 H   0  0  0  0  0  0
  -30.3653  -11.5181   19.9812 H   0  0  0  0  0  0
  -29.7926  -11.7253   17.5357 H   0  0  0  0  0  0
  -29.6257  -13.4557   17.7062 H   0  0  0  0  0  0
  -27.8953  -11.2848   18.9261 H   0  0  0  0  0  0
  -27.3731  -12.5122   17.8037 H   0  0  0  0  0  0
  -27.6197  -14.2583   19.4557 H   0  0  0  0  0  0
  -28.7351  -12.2092   21.4294 H   0  0  0  0  0  0
  -28.4133  -13.8838   21.7887 H   0  0  0  0  0  0
  -25.2765   -9.5686   22.4767 H   0  0  0  0  0  0
  -24.0007   -7.4635   22.7473 H   0  0  0  0  0  0
  -21.0850   -8.8777   19.8952 H   0  0  0  0  0  0
  -22.3703  -10.9679   19.6171 H   0  0  0  0  0  0
  -21.2007   -7.6149   23.9716 H   0  0  0  0  0  0
  -21.1483   -6.0523   25.9077 H   0  0  0  0  0  0
  -22.0597   -2.7610   23.2844 H   0  0  0  0  0  0
  -22.4075  -11.9871   22.4823 H   0  0  0  0  0  0
  -21.1066  -13.1222   22.2636 H   0  0  0  0  0  0
  -24.6394  -15.8424   20.5118 H   0  0  0  0  0  0
  -26.2513  -15.6328   20.0531 H   0  0  0  0  0  0
  -26.7217  -32.5369   23.1045 H   0  0  0  0  0  0
  -25.0068  -33.9668   25.0367 H   0  0  0  0  0  0
  -22.7290  -31.2974   21.3923 H   0  0  0  0  0  0
  -23.3752  -35.9608   23.3298 H   0  0  0  0  0  0
  -24.3579  -36.8908   22.2056 H   0  0  0  0  0  0
  -23.7246  -37.6475   23.6674 H   0  0  0  0  0  0
  -26.1230  -31.5161   20.6095 H   0  0  0  0  0  0
  -26.8548  -30.8031   22.0145 H   0  0  0  0  0  0
  -28.1143  -28.8926   21.2127 H   0  0  0  0  0  0
  -25.9099  -25.8701   19.0389 H   0  0  0  0  0  0
  -23.9650  -27.2959   19.0120 H   0  0  0  0  0  0
  -23.7760  -30.5830   19.3998 H   0  0  0  0  0  0
  -22.7666  -29.2428   19.8505 H   0  0  0  0  0  0
  -25.1305  -36.1896   25.0814 H   0  0  0  0  0  0
  -20.9992  -28.3282   24.1383 H   0  0  0  0  0  0
  -20.5676  -26.2314   23.3617 H   0  0  0  0  0  0
  -21.6647  -26.7435   22.1204 H   0  0  0  0  0  0
  -19.6916  -25.6291   21.1250 H   0  0  0  0  0  0
  -19.6691  -27.3186   20.6738 H   0  0  0  0  0  0
  -17.4205  -26.6674   21.4029 H   0  0  0  0  0  0
  -18.0336  -26.0074   22.9024 H   0  0  0  0  0  0
  -19.7942  -30.7283   24.2250 H   0  0  0  0  0  0
  -17.5018  -31.6267   24.5165 H   0  0  0  0  0  0
  -15.5356  -30.2982   23.7662 H   0  0  0  0  0  0
  -15.8679  -28.0818   22.7074 H   0  0  0  0  0  0
  -24.5900  -30.7081   25.7753 H   0  0  0  0  0  0
  -24.8903  -32.2910   26.4826 H   0  0  0  0  0  0
  -25.8023  -30.8933   27.0222 H   0  0  0  0  0  0
  -26.2957  -29.6723   24.1244 H   0  0  0  0  0  0
  -27.4014  -29.7263   25.4770 H   0  0  0  0  0  0
  -27.8845  -30.4248   23.9501 H   0  0  0  0  0  0
  -27.2653  -33.3634   26.2049 H   0  0  0  0  0  0
  -28.3876  -32.6876   25.0334 H   0  0  0  0  0  0
  -28.0706  -31.8469   26.5432 H   0  0  0  0  0  0
  -28.2593  -38.0093   24.7508 H   0  0  0  0  0  0
  -28.1075  -36.2624   24.6295 H   0  0  0  0  0  0
  -27.2295  -37.1447   25.8868 H   0  0  0  0  0  0
  -20.9409  -29.8761   21.6844 H   0  0  0  0  0  0
  -26.0163  -38.2832   24.1403 H   0  0  0  0  0  0
  -27.5097  -21.1738   21.9258 H   0  0  0  0  0  0
  -27.4256  -18.7970   22.6266 H   0  0  0  0  0  0
  -30.4158  -20.1370   18.9014 H   0  0  0  0  0  0
  -29.5880  -22.5218   18.9678 H   0  0  0  0  0  0
  -27.7295  -23.5631   21.1358 H   0  0  0  0  0  0
  -27.9838  -16.1229   21.2769 H   0  0  0  0  0  0
  -29.3042  -16.3711   22.4212 H   0  0  0  0  0  0
  -31.5063  -17.3507   19.7891 H   0  0  0  0  0  0
  -30.2534  -17.0804   18.5816 H   0  0  0  0  0  0
  -27.7235  -24.9588   18.6748 H   0  0  0  0  0  0
  -29.3876  -25.0288   19.0186 H   0  0  0  0  0  0
  1 25  1  0  0  0
  1 30  2  0  0  0
  1 82  1  0  0  0
  2  3  1  0  0  0
  2 25  1  0  0  0
  2 83  1  0  0  0
  2 84  1  0  0  0
  3  4  1  0  0  0
  3 85  1  0  0  0
  3 86  1  0  0  0
  4  5  1  0  0  0
  4 87  1  0  0  0
  4 88  1  0  0  0
  5  6  1  0  0  0
  5 26  1  0  0  0
  5 89  1  0  0  0
  6 25  1  0  0  0
  6 90  1  0  0  0
  6 91  1  0  0  0
  7  8  2  0  0  0
  7 26  1  0  0  0
  7 29  1  0  0  0
  8  9  1  0  0  0
  8 22  1  0  0  0
  9 10  1  0  0  0
  9 27  2  0  0  0
 10 11  2  0  0  0
 10 15  1  0  0  0
 11 12  1  0  0  0
 11 92  1  0  0  0
 12 13  2  0  0  0
 12 93  1  0  0  0
 13 14  1  0  0  0
 13 31  1  0  0  0
 14 15  2  0  0  0
 14 94  1  0  0  0
 15 95  1  0  0  0
 16 17  2  0  0  0
 16 21  1  0  0  0
 16 31  1  0  0  0
 17 18  1  0  0  0
 17 96  1  0  0  0
 18 19  2  0  0  0
 18 97  1  0  0  0
 19 20  1  0  0  0
 19 24  1  0  0  0
 20 21  2  0  0  0
 20 98  1  0  0  0
 21 23  1  0  0  0
 22 28  1  0  0  0
 22 32  2  0  0  0
 26 27  1  0  0  0
 28 99  1  0  0  0
 28100  1  0  0  0
 29101  1  0  0  0
 29102  1  0  0  0
 33 34  1  0  0  0
 33 66  1  0  0  0
 33 70  2  0  0  0
 34 36  1  0  0  0
 34 59  1  0  0  0
 34103  1  0  0  0
 35 44  2  0  0  0
 35 45  1  0  0  0
 35 68  1  0  0  0
 36 56  1  0  0  0
 36104  1  0  0  0
 37 39  1  0  0  0
 37 47  1  0  0  0
 37 66  1  0  0  0
 37105  1  0  0  0
 38 43  2  0  0  0
 38 46  1  0  0  0
 38 47  1  0  0  0
 39 64  1  0  0  0
 39 67  2  0  0  0
 40 52  1  0  0  0
 40 53  2  0  0  0
 40 58  1  0  0  0
 41106  1  0  0  0
 41107  1  0  0  0
 41108  1  0  0  0
 41 48  1  0  0  0
 42 43  1  0  0  0
 42 66  1  0  0  0
 42109  1  0  0  0
 42110  1  0  0  0
 43 44  1  0  0  0
 44111  1  0  0  0
 45 46  2  0  0  0
 45112  1  0  0  0
 46113  1  0  0  0
 47114  1  0  0  0
 47115  1  0  0  0
 48 56  1  0  0  0
 48 65  1  0  0  0
 48116  1  0  0  0
 49 50  1  0  0  0
 49 53  1  0  0  0
 49 64  1  0  0  0
 49117  1  0  0  0
 50 51  1  0  0  0
 50118  1  0  0  0
 50119  1  0  0  0
 51 52  1  0  0  0
 51120  1  0  0  0
 51121  1  0  0  0
 52122  1  0  0  0
 52123  1  0  0  0
 53 54  1  0  0  0
 54 55  2  0  0  0
 54124  1  0  0  0
 55 57  1  0  0  0
 55125  1  0  0  0
 56 69  2  0  0  0
 57 58  2  0  0  0
 57126  1  0  0  0
 58127  1  0  0  0
 59 60  1  0  0  0
 59 61  1  0  0  0
 59 62  1  0  0  0
 60128  1  0  0  0
 60129  1  0  0  0
 60130  1  0  0  0
 61131  1  0  0  0
 61132  1  0  0  0
 61133  1  0  0  0
 62134  1  0  0  0
 62135  1  0  0  0
 62136  1  0  0  0
 63 65  1  0  0  0
 63137  1  0  0  0
 63138  1  0  0  0
 63139  1  0  0  0
 64140  1  0  0  0
 65141  1  0  0  0
 68 81  1  0  0  0
 71 72  2  0  0  0
 71 74  1  0  0  0
 71142  1  0  0  0
 72 75  1  0  0  0
 72143  1  0  0  0
 73 74  2  0  0  0
 73 76  1  0  0  0
 73144  1  0  0  0
 74 77  1  0  0  0
 75 76  2  0  0  0
 75 79  1  0  0  0
 76 80  1  0  0  0
 77 78  2  0  0  0
 77145  1  0  0  0
 78 81  1  0  0  0
 78146  1  0  0  0
 79 82  1  0  0  0
 79147  1  0  0  0
 79148  1  0  0  0
 80 82  1  0  0  0
 80149  1  0  0  0
 80150  1  0  0  0
 81151  1  0  0  0
 81152  1  0  0  0
M  ISO  4   1 100  68 101  81 101  82 100
M  END
> <chiral flag>
0

> <version>
0

> <s_m_source_file>
/data/baiqing/PycharmProjects/Reinvent-master-3.2/result/LINK_invent/BTK/process_docking_weight1_custom_product_contain_oxygen_bond_distance_aromatic_linkinvent_7_9_3/rearranged_h_0120.sdf

> <i_m_source_file_index>
48

> <r_mmod_Potential_Energy-OPLS-2005>
322.209411621094

> <r_mmod_Stretch_Energy-OPLS-2005>
134.728561401367

> <r_mmod_Bend_Energy-OPLS-2005>
225.056167602539

> <r_mmod_Torsional_Energy-OPLS-2005>
243.820755004883

> <r_mmod_Improper_Torsional_Energy-OPLS-2005>
15.7999095916748

> <r_mmod_Van_der_Waal_Energy-OPLS-2005>
130.374130249023

> <r_mmod_Electrostatic_Energy-OPLS-2005>
-327.018341064453

> <r_mmod_Solvation_Energy-OPLS-2005>
-202.648208618164

> <b_mmod_Minimization_Converged-OPLS-2005>
0

> <r_mmod_RMS_Derivative-OPLS-2005>
0.201386645436287

$$$$
48
                    3D
 Structure written by MMmdl.
158166  0  0  1  0            999 V2000
  -30.7176  -14.4927   20.5781 C   0  0  0  0  0  0
  -30.4191  -12.3247   19.4273 C   0  0  0  0  0  0
  -29.4929  -12.5066   18.2084 C   0  0  0  0  0  0
  -28.0162  -12.3624   18.6237 C   0  0  0  0  0  0
  -27.6586  -13.2128   19.8721 C   0  0  2  0  0  0
  -28.7020  -13.0228   20.9964 C   0  0  0  0  0  0
  -25.2573  -13.8174   20.5685 C   0  0  0  0  0  0
  -24.1835  -13.0442   20.9193 C   0  0  0  0  0  0
  -24.6395  -11.6911   20.8745 C   0  0  0  0  0  0
  -23.9064  -10.4295   21.0412 C   0  0  0  0  0  0
  -24.3615   -9.4211   21.9192 C   0  0  0  0  0  0
  -23.6292   -8.2246   22.0759 C   0  0  0  0  0  0
  -22.4275   -8.0284   21.3546 C   0  0  0  0  0  0
  -21.9910   -9.0257   20.4647 C   0  0  0  0  0  0
  -22.7237  -10.2138   20.3059 C   0  0  0  0  0  0
  -21.6853   -6.0737   22.5280 C   0  0  0  0  0  0
  -21.4011   -6.5641   23.8213 C   0  0  0  0  0  0
  -21.3662   -5.6794   24.9176 C   0  0  0  0  0  0
  -21.6044   -4.3056   24.7226 C   0  0  0  0  0  0
  -21.8819   -3.8149   23.4346 C   0  0  0  0  0  0
  -21.9192   -4.6966   22.3403 C   0  0  0  0  0  0
  -22.7857  -13.5240   21.1850 C   0  0  0  0  0  0
  -22.1661   -4.2150   21.0980 F   0  0  0  0  0  0
  -21.5631   -3.4538   25.7739 F   0  0  0  0  0  0
  -30.0286  -13.3252   20.4356 N   0  0  0  0  0  0
  -26.3011  -12.9352   20.3361 N   0  0  0  0  0  0
  -25.9323  -11.6506   20.5770 N   0  0  0  0  0  0
  -22.0495  -12.8230   22.0403 N   0  0  0  0  0  0
  -25.4281  -15.1890   20.4072 N   0  0  0  0  0  0
  -31.8500  -14.6451   20.1118 O   0  0  0  0  0  0
  -21.6640   -6.8880   21.4242 O   0  0  0  0  0  0
  -22.3544  -14.5550   20.6706 O   0  0  0  0  0  0
  -24.6178  -31.8680   23.2120 C   0  0  0  0  0  0
  -25.9059  -32.4824   23.8413 C   0  0  1  0  0  0
  -27.2184  -27.3910   20.0875 C   0  0  0  0  0  0
  -25.5895  -33.8622   24.2326 N   0  0  0  0  0  0
  -23.4069  -30.4964   21.5544 C   0  0  2  0  0  0
  -24.8495  -28.9706   20.1111 C   0  0  0  0  0  0
  -22.7434  -29.4664   22.4980 C   0  0  0  0  0  0
  -18.0272  -28.1376   22.8501 C   0  0  0  0  0  0
  -24.1482  -36.7324   23.2641 C   0  0  0  0  0  0
  -25.9443  -30.8173   21.3770 C   0  0  0  0  0  0
  -26.0167  -29.4528   20.7159 C   0  0  0  0  0  0
  -27.2018  -28.6699   20.7071 C   0  0  0  0  0  0
  -26.0274  -26.9608   19.4471 C   0  0  0  0  0  0
  -24.8521  -27.7243   19.4744 C   0  0  0  0  0  0
  -23.6157  -29.8411   20.1664 C   0  0  0  0  0  0
  -25.4104  -36.3116   24.0337 C   0  0  1  0  0  0
  -20.5868  -28.3672   23.1308 C   0  0  2  0  0  0
  -20.6754  -26.9402   22.5417 C   0  0  0  0  0  0
  -19.5728  -26.6385   21.5216 C   0  0  0  0  0  0
  -18.1911  -26.7925   22.1630 C   0  0  0  0  0  0
  -19.1524  -28.8842   23.2901 C   0  0  0  0  0  0
  -18.9452  -30.1450   23.8911 C   0  0  0  0  0  0
  -17.6453  -30.6587   24.0567 C   0  0  0  0  0  0
  -25.9032  -34.9477   23.5127 C   0  0  0  0  0  0
  -16.5342  -29.9088   23.6330 C   0  0  0  0  0  0
  -16.7262  -28.6501   23.0356 C   0  0  0  0  0  0
  -26.4465  -31.6621   25.0760 C   0  0  0  0  0  0
  -25.3713  -31.3734   26.1497 C   0  0  0  0  0  0
  -27.0321  -30.3058   24.6186 C   0  0  0  0  0  0
  -27.6029  -32.4359   25.7525 C   0  0  0  0  0  0
  -27.5580  -37.1814   24.8462 C   0  0  0  0  0  0
  -21.4157  -29.3045   22.3725 N   0  0  0  0  0  0
  -26.4292  -37.3803   23.9408 N   0  0  0  0  0  0
  -24.6749  -31.0745   22.1051 N   0  0  0  0  0  0
  -23.4202  -28.8180   23.3006 O   0  0  0  0  0  0
  -28.3558  -26.5839   20.1335 O   0  0  0  0  0  0
  -26.5610  -34.8927   22.4699 O   0  0  0  0  0  0
  -23.5356  -32.1451   23.7483 O   0  0  0  0  0  0
  -32.2620  -18.2772   22.3496 C   0  0  0  0  0  0
  -31.7745  -17.0065   22.0161 C   0  0  0  0  0  0
  -30.2599  -19.3470   21.4058 C   0  0  0  0  0  0
  -31.5211  -19.4407   22.0654 C   0  0  0  0  0  0
  -29.7734  -18.0360   21.0663 C   0  0  0  0  0  0
  -30.5286  -16.8595   21.3742 C   0  0  0  0  0  0
  -29.4466  -20.5627   21.0521 C   0  0  0  0  0  0
  -29.8500  -21.8179   20.7229 C   0  0  0  0  0  0
  -28.9150  -22.9000   20.4133 C   0  0  0  0  0  0
  -29.2357  -24.1817   20.1019 C   0  0  0  0  0  0
  -32.1128  -20.7544   22.5548 C   0  0  0  0  0  0
  -28.4315  -17.8935   20.3517 C   0  0  0  0  0  0
  -28.1826  -25.2141   19.6851 C   0  0  0  0  0  0
  -30.0337  -15.5328   21.1115 N   0  0  0  0  0  0
  -31.4634  -12.4169   19.1237 H   0  0  0  0  0  0
  -30.3185  -11.3196   19.8389 H   0  0  0  0  0  0
  -29.7359  -11.7745   17.4370 H   0  0  0  0  0  0
  -29.6573  -13.4889   17.7624 H   0  0  0  0  0  0
  -27.8331  -11.3071   18.8296 H   0  0  0  0  0  0
  -27.3634  -12.6259   17.7908 H   0  0  0  0  0  0
  -27.6943  -14.2570   19.5598 H   0  0  0  0  0  0
  -28.6841  -11.9954   21.3629 H   0  0  0  0  0  0
  -28.4620  -13.6460   21.8590 H   0  0  0  0  0  0
  -25.2758   -9.5687   22.4766 H   0  0  0  0  0  0
  -24.0000   -7.4636   22.7477 H   0  0  0  0  0  0
  -21.0848   -8.8778   19.8949 H   0  0  0  0  0  0
  -22.3701  -10.9681   19.6168 H   0  0  0  0  0  0
  -21.2005   -7.6150   23.9716 H   0  0  0  0  0  0
  -21.1482   -6.0526   25.9078 H   0  0  0  0  0  0
  -22.0597   -2.7611   23.2848 H   0  0  0  0  0  0
  -22.4100  -11.9879   22.4776 H   0  0  0  0  0  0
  -21.1116  -13.1264   22.2616 H   0  0  0  0  0  0
  -24.6576  -15.8411   20.5057 H   0  0  0  0  0  0
  -26.2722  -15.6233   20.0586 H   0  0  0  0  0  0
  -26.7130  -32.5517   23.1174 H   0  0  0  0  0  0
  -25.0007  -33.9785   25.0441 H   0  0  0  0  0  0
  -22.6962  -31.3143   21.4189 H   0  0  0  0  0  0
  -23.3742  -35.9659   23.3311 H   0  0  0  0  0  0
  -24.3566  -36.8938   22.2053 H   0  0  0  0  0  0
  -23.7234  -37.6525   23.6661 H   0  0  0  0  0  0
  -26.0677  -31.5849   20.6117 H   0  0  0  0  0  0
  -26.8284  -30.8628   22.0016 H   0  0  0  0  0  0
  -28.0966  -29.0335   21.1926 H   0  0  0  0  0  0
  -25.9583  -26.0269   18.9105 H   0  0  0  0  0  0
  -23.9596  -27.3527   18.9897 H   0  0  0  0  0  0
  -23.7271  -30.6203   19.4120 H   0  0  0  0  0  0
  -22.7368  -29.2669   19.8674 H   0  0  0  0  0  0
  -25.1274  -36.1984   25.0831 H   0  0  0  0  0  0
  -20.9958  -28.3239   24.1429 H   0  0  0  0  0  0
  -20.5647  -26.2284   23.3610 H   0  0  0  0  0  0
  -21.6623  -26.7430   22.1214 H   0  0  0  0  0  0
  -19.6882  -25.6300   21.1236 H   0  0  0  0  0  0
  -19.6656  -27.3206   20.6753 H   0  0  0  0  0  0
  -17.4176  -26.6691   21.4035 H   0  0  0  0  0  0
  -18.0294  -26.0064   22.9019 H   0  0  0  0  0  0
  -19.7930  -30.7267   24.2279 H   0  0  0  0  0  0
  -17.5009  -31.6263   24.5175 H   0  0  0  0  0  0
  -15.5343  -30.2993   23.7650 H   0  0  0  0  0  0
  -15.8661  -28.0827   22.7062 H   0  0  0  0  0  0
  -24.5896  -30.7068   25.7842 H   0  0  0  0  0  0
  -24.8881  -32.2882   26.4932 H   0  0  0  0  0  0
  -25.8046  -30.8922   27.0274 H   0  0  0  0  0  0
  -26.2901  -29.6811   24.1200 H   0  0  0  0  0  0
  -27.4030  -29.7305   25.4680 H   0  0  0  0  0  0
  -27.8758  -30.4371   23.9409 H   0  0  0  0  0  0
  -27.2639  -33.3658   26.2109 H   0  0  0  0  0  0
  -28.3830  -32.6932   25.0349 H   0  0  0  0  0  0
  -28.0714  -31.8490   26.5434 H   0  0  0  0  0  0
  -28.2600  -38.0112   24.7519 H   0  0  0  0  0  0
  -28.1074  -36.2640   24.6282 H   0  0  0  0  0  0
  -27.2298  -37.1463   25.8867 H   0  0  0  0  0  0
  -20.9309  -29.8820   21.6999 H   0  0  0  0  0  0
  -26.0181  -38.2881   24.1416 H   0  0  0  0  0  0
  -33.2158  -18.3498   22.8542 H   0  0  0  0  0  0
  -32.3658  -16.1406   22.2797 H   0  0  0  0  0  0
  -28.3772  -20.4089   21.0927 H   0  0  0  0  0  0
  -30.9030  -22.0419   20.6611 H   0  0  0  0  0  0
  -27.8640  -22.6426   20.4058 H   0  0  0  0  0  0
  -30.2667  -24.5055   20.0928 H   0  0  0  0  0  0
  -32.8276  -20.5842   23.3607 H   0  0  0  0  0  0
  -31.3471  -21.4183   22.9559 H   0  0  0  0  0  0
  -32.6480  -21.2603   21.7514 H   0  0  0  0  0  0
  -28.3537  -18.6036   19.5284 H   0  0  0  0  0  0
  -27.6126  -18.0811   21.0464 H   0  0  0  0  0  0
  -28.2799  -16.9076   19.9155 H   0  0  0  0  0  0
  -27.2412  -24.8082   20.0572 H   0  0  0  0  0  0
  -28.1385  -25.2126   18.5947 H   0  0  0  0  0  0
  -29.0581  -15.3651   21.3025 H   0  0  0  0  0  0
  1 25  1  0  0  0
  1 30  2  0  0  0
  1 84  1  0  0  0
  2  3  1  0  0  0
  2 25  1  0  0  0
  2 85  1  0  0  0
  2 86  1  0  0  0
  3  4  1  0  0  0
  3 87  1  0  0  0
  3 88  1  0  0  0
  4  5  1  0  0  0
  4 89  1  0  0  0
  4 90  1  0  0  0
  5  6  1  0  0  0
  5 26  1  0  0  0
  5 91  1  0  0  0
  6 25  1  0  0  0
  6 92  1  0  0  0
  6 93  1  0  0  0
  7  8  2  0  0  0
  7 26  1  0  0  0
  7 29  1  0  0  0
  8  9  1  0  0  0
  8 22  1  0  0  0
  9 10  1  0  0  0
  9 27  2  0  0  0
 10 11  2  0  0  0
 10 15  1  0  0  0
 11 12  1  0  0  0
 11 94  1  0  0  0
 12 13  2  0  0  0
 12 95  1  0  0  0
 13 14  1  0  0  0
 13 31  1  0  0  0
 14 15  2  0  0  0
 14 96  1  0  0  0
 15 97  1  0  0  0
 16 17  2  0  0  0
 16 21  1  0  0  0
 16 31  1  0  0  0
 17 18  1  0  0  0
 17 98  1  0  0  0
 18 19  2  0  0  0
 18 99  1  0  0  0
 19 20  1  0  0  0
 19 24  1  0  0  0
 20 21  2  0  0  0
 20100  1  0  0  0
 21 23  1  0  0  0
 22 28  1  0  0  0
 22 32  2  0  0  0
 26 27  1  0  0  0
 28101  1  0  0  0
 28102  1  0  0  0
 29103  1  0  0  0
 29104  1  0  0  0
 33 34  1  0  0  0
 33 66  1  0  0  0
 33 70  2  0  0  0
 34 36  1  0  0  0
 34 59  1  0  0  0
 34105  1  0  0  0
 35 44  2  0  0  0
 35 45  1  0  0  0
 35 68  1  0  0  0
 36 56  1  0  0  0
 36106  1  0  0  0
 37 39  1  0  0  0
 37 47  1  0  0  0
 37 66  1  0  0  0
 37107  1  0  0  0
 38 43  2  0  0  0
 38 46  1  0  0  0
 38 47  1  0  0  0
 39 64  1  0  0  0
 39 67  2  0  0  0
 40 52  1  0  0  0
 40 53  2  0  0  0
 40 58  1  0  0  0
 41108  1  0  0  0
 41109  1  0  0  0
 41110  1  0  0  0
 41 48  1  0  0  0
 42 43  1  0  0  0
 42 66  1  0  0  0
 42111  1  0  0  0
 42112  1  0  0  0
 43 44  1  0  0  0
 44113  1  0  0  0
 45 46  2  0  0  0
 45114  1  0  0  0
 46115  1  0  0  0
 47116  1  0  0  0
 47117  1  0  0  0
 48 56  1  0  0  0
 48 65  1  0  0  0
 48118  1  0  0  0
 49 50  1  0  0  0
 49 53  1  0  0  0
 49 64  1  0  0  0
 49119  1  0  0  0
 50 51  1  0  0  0
 50120  1  0  0  0
 50121  1  0  0  0
 51 52  1  0  0  0
 51122  1  0  0  0
 51123  1  0  0  0
 52124  1  0  0  0
 52125  1  0  0  0
 53 54  1  0  0  0
 54 55  2  0  0  0
 54126  1  0  0  0
 55 57  1  0  0  0
 55127  1  0  0  0
 56 69  2  0  0  0
 57 58  2  0  0  0
 57128  1  0  0  0
 58129  1  0  0  0
 59 60  1  0  0  0
 59 61  1  0  0  0
 59 62  1  0  0  0
 60130  1  0  0  0
 60131  1  0  0  0
 60132  1  0  0  0
 61133  1  0  0  0
 61134  1  0  0  0
 61135  1  0  0  0
 62136  1  0  0  0
 62137  1  0  0  0
 62138  1  0  0  0
 63 65  1  0  0  0
 63139  1  0  0  0
 63140  1  0  0  0
 63141  1  0  0  0
 64142  1  0  0  0
 65143  1  0  0  0
 68 83  1  0  0  0
 71 72  2  0  0  0
 71 74  1  0  0  0
 71144  1  0  0  0
 72 76  1  0  0  0
 72145  1  0  0  0
 73 74  2  0  0  0
 73 75  1  0  0  0
 73 77  1  0  0  0
 74 81  1  0  0  0
 75 76  2  0  0  0
 75 82  1  0  0  0
 76 84  1  0  0  0
 77 78  2  0  0  0
 77146  1  0  0  0
 78 79  1  0  0  0
 78147  1  0  0  0
 79 80  2  0  0  0
 79148  1  0  0  0
 80 83  1  0  0  0
 80149  1  0  0  0
 81150  1  0  0  0
 81151  1  0  0  0
 81152  1  0  0  0
 82153  1  0  0  0
 82154  1  0  0  0
 82155  1  0  0  0
 83156  1  0  0  0
 83157  1  0  0  0
 84158  1  0  0  0
M  ISO  4   1 100  68 101  83 101  84 100
M  END
> <chiral flag>
0

> <version>
0

> <s_m_source_file>
/data/baiqing/PycharmProjects/Reinvent-master-3.2/result/LINK_invent/BTK/process_docking_weight1_custom_product_contain_oxygen_bond_distance_aromatic_linkinvent_7_9_3/rearranged_h_0120.sdf

> <i_m_source_file_index>
49

> <r_mmod_Potential_Energy-OPLS-2005>
-13.821310043335

> <r_mmod_Stretch_Energy-OPLS-2005>
50.2675704956055

> <r_mmod_Bend_Energy-OPLS-2005>
105.123474121094

> <r_mmod_Torsional_Energy-OPLS-2005>
217.359085083008

> <r_mmod_Improper_Torsional_Energy-OPLS-2005>
4.2603554725647

> <r_mmod_Van_der_Waal_Energy-OPLS-2005>
174.202713012695

> <r_mmod_Electrostatic_Energy-OPLS-2005>
-380.712951660156

> <r_mmod_Solvation_Energy-OPLS-2005>
-205.10595703125

> <b_mmod_Minimization_Converged-OPLS-2005>
0

> <r_mmod_RMS_Derivative-OPLS-2005>
0.894127666950226

$$$$
49
                    3D
 Structure written by MMmdl.
165173  0  0  1  0            999 V2000
  -30.5981  -14.6164   20.5080 C   0  0  0  0  0  0
  -30.4489  -12.3847   19.4267 C   0  0  0  0  0  0
  -29.5001  -12.5023   18.2114 C   0  0  0  0  0  0
  -28.0238  -12.3344   18.6313 C   0  0  0  0  0  0
  -27.6517  -13.2006   19.8627 C   0  0  2  0  0  0
  -28.7033  -13.0320   20.9818 C   0  0  0  0  0  0
  -25.2566  -13.8115   20.5727 C   0  0  0  0  0  0
  -24.1826  -13.0401   20.9227 C   0  0  0  0  0  0
  -24.6370  -11.6863   20.8735 C   0  0  0  0  0  0
  -23.9036  -10.4251   21.0404 C   0  0  0  0  0  0
  -24.3591   -9.4172   21.9189 C   0  0  0  0  0  0
  -23.6273   -8.2205   22.0761 C   0  0  0  0  0  0
  -22.4261   -8.0243   21.3533 C   0  0  0  0  0  0
  -21.9884   -9.0221   20.4645 C   0  0  0  0  0  0
  -22.7207  -10.2102   20.3063 C   0  0  0  0  0  0
  -21.6837   -6.0706   22.5274 C   0  0  0  0  0  0
  -21.4005   -6.5624   23.8201 C   0  0  0  0  0  0
  -21.3666   -5.6789   24.9168 C   0  0  0  0  0  0
  -21.6049   -4.3050   24.7224 C   0  0  0  0  0  0
  -21.8823   -3.8132   23.4347 C   0  0  0  0  0  0
  -21.9187   -4.6937   22.3397 C   0  0  0  0  0  0
  -22.7851  -13.5205   21.1889 C   0  0  0  0  0  0
  -22.1660   -4.2123   21.0976 F   0  0  0  0  0  0
  -21.5631   -3.4548   25.7738 F   0  0  0  0  0  0
  -30.0180  -13.3838   20.4175 N   0  0  0  0  0  0
  -26.2984  -12.9277   20.3338 N   0  0  0  0  0  0
  -25.9289  -11.6441   20.5756 N   0  0  0  0  0  0
  -22.0502  -12.8194   22.0441 N   0  0  0  0  0  0
  -25.4259  -15.1853   20.4162 N   0  0  0  0  0  0
  -31.7751  -14.8236   20.1949 O   0  0  0  0  0  0
  -21.6629   -6.8844   21.4228 O   0  0  0  0  0  0
  -22.3521  -14.5501   20.6718 O   0  0  0  0  0  0
  -24.6237  -31.8629   23.2010 C   0  0  0  0  0  0
  -25.9106  -32.4776   23.8334 C   0  0  1  0  0  0
  -27.2329  -27.3531   20.1051 C   0  0  0  0  0  0
  -25.5936  -33.8577   24.2287 N   0  0  0  0  0  0
  -23.4163  -30.4834   21.5447 C   0  0  2  0  0  0
  -24.8650  -28.9423   20.1109 C   0  0  0  0  0  0
  -22.7456  -29.4623   22.4957 C   0  0  0  0  0  0
  -18.0258  -28.1314   22.8448 C   0  0  0  0  0  0
  -24.1511  -36.7286   23.2659 C   0  0  0  0  0  0
  -25.9547  -30.8019   21.3707 C   0  0  0  0  0  0
  -26.0307  -29.4337   20.7102 C   0  0  0  0  0  0
  -27.2180  -28.6481   20.6978 C   0  0  0  0  0  0
  -26.0403  -26.8985   19.4961 C   0  0  0  0  0  0
  -24.8690  -27.6781   19.4981 C   0  0  0  0  0  0
  -23.6302  -29.8170   20.1607 C   0  0  0  0  0  0
  -25.4116  -36.3082   24.0359 C   0  0  1  0  0  0
  -20.5868  -28.3647   23.1282 C   0  0  2  0  0  0
  -20.6770  -26.9381   22.5404 C   0  0  0  0  0  0
  -19.5747  -26.6344   21.5193 C   0  0  0  0  0  0
  -18.1916  -26.7851   22.1588 C   0  0  0  0  0  0
  -19.1521  -28.8782   23.2844 C   0  0  0  0  0  0
  -18.9464  -30.1369   23.8880 C   0  0  0  0  0  0
  -17.6492  -30.6554   24.0531 C   0  0  0  0  0  0
  -25.9053  -34.9451   23.5112 C   0  0  0  0  0  0
  -16.5363  -29.9054   23.6329 C   0  0  0  0  0  0
  -16.7255  -28.6449   23.0358 C   0  0  0  0  0  0
  -26.4480  -31.6570   25.0699 C   0  0  0  0  0  0
  -25.3715  -31.3736   26.1445 C   0  0  0  0  0  0
  -27.0344  -30.3010   24.6111 C   0  0  0  0  0  0
  -27.6026  -32.4323   25.7454 C   0  0  0  0  0  0
  -27.5574  -37.1796   24.8458 C   0  0  0  0  0  0
  -21.4164  -29.3034   22.3710 N   0  0  0  0  0  0
  -26.4282  -37.3774   23.9413 N   0  0  0  0  0  0
  -24.6827  -31.0645   22.0967 N   0  0  0  0  0  0
  -23.4193  -28.8171   23.3028 O   0  0  0  0  0  0
  -28.3763  -26.5535   20.1371 O   0  0  0  0  0  0
  -26.5622  -34.8906   22.4677 O   0  0  0  0  0  0
  -23.5408  -32.1436   23.7350 O   0  0  0  0  0  0
  -29.1333  -19.5831   22.1216 C   0  0  0  0  0  0
  -29.7762  -18.1049   20.3082 C   0  0  0  0  0  0
  -29.0913  -18.4931   23.0213 C   0  0  0  0  0  0
  -29.4269  -17.1893   22.5525 C   0  0  0  0  0  0
  -29.7470  -16.9724   21.1838 C   0  0  0  0  0  0
  -29.4727  -19.4288   20.7591 C   0  0  0  0  0  0
  -28.2101  -19.8679   24.9679 C   0  0  0  0  0  0
  -28.6289  -18.7135   24.4182 C   0  0  0  0  0  0
  -29.5512  -24.3430   20.1788 C   0  0  0  0  0  0
  -29.8340  -23.0066   20.2976 C   0  0  0  0  0  0
  -29.3750  -16.0015   23.5095 C   0  0  0  0  0  0
  -31.4638  -22.2881   22.1090 C   0  0  0  0  0  0
  -28.2487  -25.1107   19.8991 C   0  0  0  0  0  0
  -31.2713  -22.6248   20.6251 C   0  0  0  0  0  0
  -28.8584  -21.8053   20.1361 C   0  0  0  0  0  0
  -29.6858  -15.6158   20.6770 N   0  0  0  0  0  0
  -29.4945  -20.5089   19.8605 O   0  0  0  0  0  0
  -31.4835  -12.5391   19.1140 H   0  0  0  0  0  0
  -30.4071  -11.3837   19.8591 H   0  0  0  0  0  0
  -29.7570  -11.7528   17.4621 H   0  0  0  0  0  0
  -29.6331  -13.4741   17.7312 H   0  0  0  0  0  0
  -27.8620  -11.2797   18.8597 H   0  0  0  0  0  0
  -27.3646  -12.5674   17.7931 H   0  0  0  0  0  0
  -27.6683  -14.2356   19.5239 H   0  0  0  0  0  0
  -28.7151  -12.0024   21.3428 H   0  0  0  0  0  0
  -28.4529  -13.6457   21.8473 H   0  0  0  0  0  0
  -25.2733   -9.5653   22.4761 H   0  0  0  0  0  0
  -23.9975   -7.4590   22.7477 H   0  0  0  0  0  0
  -21.0822   -8.8730   19.8946 H   0  0  0  0  0  0
  -22.3664  -10.9638   19.6178 H   0  0  0  0  0  0
  -21.1996   -7.6138   23.9692 H   0  0  0  0  0  0
  -21.1501   -6.0529   25.9069 H   0  0  0  0  0  0
  -22.0601   -2.7598   23.2862 H   0  0  0  0  0  0
  -22.4137  -11.9844   22.4797 H   0  0  0  0  0  0
  -21.1111  -13.1181   22.2634 H   0  0  0  0  0  0
  -24.6579  -15.8337   20.5531 H   0  0  0  0  0  0
  -26.2623  -15.6353   20.0696 H   0  0  0  0  0  0
  -26.7201  -32.5432   23.1099 H   0  0  0  0  0  0
  -25.0105  -33.9737   25.0451 H   0  0  0  0  0  0
  -22.7094  -31.3014   21.3973 H   0  0  0  0  0  0
  -23.3765  -35.9628   23.3301 H   0  0  0  0  0  0
  -24.3654  -36.8911   22.2081 H   0  0  0  0  0  0
  -23.7264  -37.6495   23.6667 H   0  0  0  0  0  0
  -26.0870  -31.5724   20.6100 H   0  0  0  0  0  0
  -26.8357  -30.8460   21.9985 H   0  0  0  0  0  0
  -28.1163  -29.0177   21.1738 H   0  0  0  0  0  0
  -25.9919  -25.9322   19.0169 H   0  0  0  0  0  0
  -23.9751  -27.2917   19.0280 H   0  0  0  0  0  0
  -23.7470  -30.5943   19.4050 H   0  0  0  0  0  0
  -22.7519  -29.2447   19.8586 H   0  0  0  0  0  0
  -25.1299  -36.1960   25.0858 H   0  0  0  0  0  0
  -20.9892  -28.3214   24.1424 H   0  0  0  0  0  0
  -20.5668  -26.2259   23.3605 H   0  0  0  0  0  0
  -21.6648  -26.7416   22.1209 H   0  0  0  0  0  0
  -19.6958  -25.6264   21.1206 H   0  0  0  0  0  0
  -19.6681  -27.3166   20.6735 H   0  0  0  0  0  0
  -17.4199  -26.6574   21.3986 H   0  0  0  0  0  0
  -18.0300  -25.9957   22.8945 H   0  0  0  0  0  0
  -19.7973  -30.7123   24.2267 H   0  0  0  0  0  0
  -17.5085  -31.6253   24.5108 H   0  0  0  0  0  0
  -15.5368  -30.2989   23.7661 H   0  0  0  0  0  0
  -15.8618  -28.0784   22.7111 H   0  0  0  0  0  0
  -24.5866  -30.7101   25.7805 H   0  0  0  0  0  0
  -24.8912  -32.2911   26.4847 H   0  0  0  0  0  0
  -25.8041  -30.8942   27.0229 H   0  0  0  0  0  0
  -26.2935  -29.6727   24.1164 H   0  0  0  0  0  0
  -27.4141  -29.7283   25.4576 H   0  0  0  0  0  0
  -27.8726  -30.4331   23.9273 H   0  0  0  0  0  0
  -27.2632  -33.3631   26.1991 H   0  0  0  0  0  0
  -28.3818  -32.6891   25.0272 H   0  0  0  0  0  0
  -28.0691  -31.8480   26.5376 H   0  0  0  0  0  0
  -28.2582  -38.0104   24.7530 H   0  0  0  0  0  0
  -28.1079  -36.2638   24.6255 H   0  0  0  0  0  0
  -27.2302  -37.1425   25.8865 H   0  0  0  0  0  0
  -20.9337  -29.8785   21.6954 H   0  0  0  0  0  0
  -26.0168  -38.2854   24.1398 H   0  0  0  0  0  0
  -28.9045  -20.5664   22.4943 H   0  0  0  0  0  0
  -29.9737  -17.9483   19.2569 H   0  0  0  0  0  0
  -27.8844  -19.8884   25.9991 H   0  0  0  0  0  0
  -28.1718  -20.8053   24.4335 H   0  0  0  0  0  0
  -28.6061  -17.8613   25.0796 H   0  0  0  0  0  0
  -30.3819  -25.0243   20.3040 H   0  0  0  0  0  0
  -29.7979  -16.2460   24.4821 H   0  0  0  0  0  0
  -29.9703  -15.1570   23.1692 H   0  0  0  0  0  0
  -28.3421  -15.6770   23.6393 H   0  0  0  0  0  0
  -30.9961  -21.3448   22.3747 H   0  0  0  0  0  0
  -31.0426  -23.0611   22.7525 H   0  0  0  0  0  0
  -32.5215  -22.1955   22.3540 H   0  0  0  0  0  0
  -27.4637  -24.6859   20.5278 H   0  0  0  0  0  0
  -27.9839  -24.9311   18.8551 H   0  0  0  0  0  0
  -31.9307  -23.4582   20.3792 H   0  0  0  0  0  0
  -31.6059  -21.8034   19.9908 H   0  0  0  0  0  0
  -28.2307  -22.0238   19.2704 H   0  0  0  0  0  0
  -28.1554  -21.7784   20.9672 H   0  0  0  0  0  0
  -28.7657  -15.2149   20.7594 H   0  0  0  0  0  0
  1 25  1  0  0  0
  1 30  2  0  0  0
  1 86  1  0  0  0
  2  3  1  0  0  0
  2 25  1  0  0  0
  2 88  1  0  0  0
  2 89  1  0  0  0
  3  4  1  0  0  0
  3 90  1  0  0  0
  3 91  1  0  0  0
  4  5  1  0  0  0
  4 92  1  0  0  0
  4 93  1  0  0  0
  5  6  1  0  0  0
  5 26  1  0  0  0
  5 94  1  0  0  0
  6 25  1  0  0  0
  6 95  1  0  0  0
  6 96  1  0  0  0
  7  8  2  0  0  0
  7 26  1  0  0  0
  7 29  1  0  0  0
  8  9  1  0  0  0
  8 22  1  0  0  0
  9 10  1  0  0  0
  9 27  2  0  0  0
 10 11  2  0  0  0
 10 15  1  0  0  0
 11 12  1  0  0  0
 11 97  1  0  0  0
 12 13  2  0  0  0
 12 98  1  0  0  0
 13 14  1  0  0  0
 13 31  1  0  0  0
 14 15  2  0  0  0
 14 99  1  0  0  0
 15100  1  0  0  0
 16 17  2  0  0  0
 16 21  1  0  0  0
 16 31  1  0  0  0
 17 18  1  0  0  0
 17101  1  0  0  0
 18 19  2  0  0  0
 18102  1  0  0  0
 19 20  1  0  0  0
 19 24  1  0  0  0
 20 21  2  0  0  0
 20103  1  0  0  0
 21 23  1  0  0  0
 22 28  1  0  0  0
 22 32  2  0  0  0
 26 27  1  0  0  0
 28104  1  0  0  0
 28105  1  0  0  0
 29106  1  0  0  0
 29107  1  0  0  0
 33 34  1  0  0  0
 33 66  1  0  0  0
 33 70  2  0  0  0
 34 36  1  0  0  0
 34 59  1  0  0  0
 34108  1  0  0  0
 35 44  2  0  0  0
 35 45  1  0  0  0
 35 68  1  0  0  0
 36 56  1  0  0  0
 36109  1  0  0  0
 37 39  1  0  0  0
 37 47  1  0  0  0
 37 66  1  0  0  0
 37110  1  0  0  0
 38 43  2  0  0  0
 38 46  1  0  0  0
 38 47  1  0  0  0
 39 64  1  0  0  0
 39 67  2  0  0  0
 40 52  1  0  0  0
 40 53  2  0  0  0
 40 58  1  0  0  0
 41111  1  0  0  0
 41112  1  0  0  0
 41113  1  0  0  0
 41 48  1  0  0  0
 42 43  1  0  0  0
 42 66  1  0  0  0
 42114  1  0  0  0
 42115  1  0  0  0
 43 44  1  0  0  0
 44116  1  0  0  0
 45 46  2  0  0  0
 45117  1  0  0  0
 46118  1  0  0  0
 47119  1  0  0  0
 47120  1  0  0  0
 48 56  1  0  0  0
 48 65  1  0  0  0
 48121  1  0  0  0
 49 50  1  0  0  0
 49 53  1  0  0  0
 49 64  1  0  0  0
 49122  1  0  0  0
 50 51  1  0  0  0
 50123  1  0  0  0
 50124  1  0  0  0
 51 52  1  0  0  0
 51125  1  0  0  0
 51126  1  0  0  0
 52127  1  0  0  0
 52128  1  0  0  0
 53 54  1  0  0  0
 54 55  2  0  0  0
 54129  1  0  0  0
 55 57  1  0  0  0
 55130  1  0  0  0
 56 69  2  0  0  0
 57 58  2  0  0  0
 57131  1  0  0  0
 58132  1  0  0  0
 59 60  1  0  0  0
 59 61  1  0  0  0
 59 62  1  0  0  0
 60133  1  0  0  0
 60134  1  0  0  0
 60135  1  0  0  0
 61136  1  0  0  0
 61137  1  0  0  0
 61138  1  0  0  0
 62139  1  0  0  0
 62140  1  0  0  0
 62141  1  0  0  0
 63 65  1  0  0  0
 63142  1  0  0  0
 63143  1  0  0  0
 63144  1  0  0  0
 64145  1  0  0  0
 65146  1  0  0  0
 68 83  1  0  0  0
 71 73  2  0  0  0
 71 76  1  0  0  0
 71147  1  0  0  0
 72 75  1  0  0  0
 72 76  2  0  0  0
 72148  1  0  0  0
 73 74  1  0  0  0
 73 78  1  0  0  0
 74 75  2  0  0  0
 74 81  1  0  0  0
 75 86  1  0  0  0
 76 87  1  0  0  0
 77 78  2  0  0  0
 77149  1  0  0  0
 77150  1  0  0  0
 78151  1  0  0  0
 79 80  2  0  0  0
 79 83  1  0  0  0
 79152  1  0  0  0
 80 84  1  0  0  0
 80 85  1  0  0  0
 81153  1  0  0  0
 81154  1  0  0  0
 81155  1  0  0  0
 82 84  1  0  0  0
 82156  1  0  0  0
 82157  1  0  0  0
 82158  1  0  0  0
 83159  1  0  0  0
 83160  1  0  0  0
 84161  1  0  0  0
 84162  1  0  0  0
 85 87  1  0  0  0
 85163  1  0  0  0
 85164  1  0  0  0
 86165  1  0  0  0
M  ISO  4   1 100  68 101  83 101  86 100
M  END
> <chiral flag>
0

> <version>
0

> <s_m_source_file>
/data/baiqing/PycharmProjects/Reinvent-master-3.2/result/LINK_invent/BTK/process_docking_weight1_custom_product_contain_oxygen_bond_distance_aromatic_linkinvent_7_9_3/rearranged_h_0120.sdf

> <i_m_source_file_index>
50

> <r_mmod_Potential_Energy-OPLS-2005>
110.494888305664

> <r_mmod_Stretch_Energy-OPLS-2005>
66.141960144043

> <r_mmod_Bend_Energy-OPLS-2005>
146.113327026367

> <r_mmod_Torsional_Energy-OPLS-2005>
258.743347167969

> <r_mmod_Improper_Torsional_Energy-OPLS-2005>
11.5159254074097

> <r_mmod_Van_der_Waal_Energy-OPLS-2005>
160.451019287109

> <r_mmod_Electrostatic_Energy-OPLS-2005>
-367.696044921875

> <r_mmod_Solvation_Energy-OPLS-2005>
-205.017837524414

> <b_mmod_Minimization_Converged-OPLS-2005>
0

> <r_mmod_RMS_Derivative-OPLS-2005>
3.36802792549133

$$$$
50
                    3D
 Structure written by MMmdl.
161169  0  0  1  0            999 V2000
  -29.9481  -12.9689   20.1653 C   0  0  0  0  0  0
  -30.9594  -12.2578   19.1526 C   0  0  0  0  0  0
  -30.0103  -13.2431   17.8402 C   0  0  0  0  0  0
  -28.5991  -14.1871   18.4981 C   0  0  0  0  0  0
  -27.7604  -13.8782   20.2038 C   0  0  2  0  0  0
  -28.8919  -12.9842   21.3575 C   0  0  0  0  0  0
  -25.1913  -13.9509   20.6618 C   0  0  0  0  0  0
  -24.1683  -13.0913   20.9374 C   0  0  0  0  0  0
  -24.7048  -11.7745   20.8833 C   0  0  0  0  0  0
  -23.9848  -10.4682   21.0224 C   0  0  0  0  0  0
  -24.4098   -9.4506   21.9099 C   0  0  0  0  0  0
  -23.6613   -8.2574   22.0750 C   0  0  0  0  0  0
  -22.4589   -8.0570   21.3551 C   0  0  0  0  0  0
  -22.0406   -9.0585   20.4604 C   0  0  0  0  0  0
  -22.7907  -10.2410   20.2950 C   0  0  0  0  0  0
  -21.6999   -6.0914   22.5263 C   0  0  0  0  0  0
  -21.4130   -6.5752   23.8214 C   0  0  0  0  0  0
  -21.3678   -5.6862   24.9150 C   0  0  0  0  0  0
  -21.6027   -4.3122   24.7177 C   0  0  0  0  0  0
  -21.8808   -3.8255   23.4284 C   0  0  0  0  0  0
  -21.9229   -4.7110   22.3361 C   0  0  0  0  0  0
  -22.7498  -13.5074   21.1829 C   0  0  0  0  0  0
  -22.1680   -4.2282   21.0938 F   0  0  0  0  0  0
  -21.5575   -3.4582   25.7671 F   0  0  0  0  0  0
  -30.3214  -12.2393   20.7704 N   0  0  0  0  0  0
  -26.3528  -13.2393   20.4638 N   0  0  0  0  0  0
  -26.0341  -11.8865   20.6859 N   0  0  0  0  0  0
  -22.0347  -12.7948   22.0444 N   0  0  0  0  0  0
  -25.2194  -15.3257   20.5866 N   0  0  0  0  0  0
  -30.5499  -14.2054   20.2213 O   0  0  0  0  0  0
  -21.6866   -6.9169   21.4271 O   0  0  0  0  0  0
  -22.2946  -14.5260   20.6638 O   0  0  0  0  0  0
  -24.6400  -31.8506   23.1962 C   0  0  0  0  0  0
  -25.9211  -32.4715   23.8297 C   0  0  1  0  0  0
  -27.1186  -27.1855   20.0424 C   0  0  0  0  0  0
  -25.5984  -33.8525   24.2219 N   0  0  0  0  0  0
  -23.4301  -30.4849   21.5478 C   0  0  2  0  0  0
  -24.8463  -28.9290   20.1020 C   0  0  0  0  0  0
  -22.7520  -29.4604   22.4906 C   0  0  0  0  0  0
  -18.0291  -28.1388   22.8482 C   0  0  0  0  0  0
  -24.1498  -36.7261   23.2639 C   0  0  0  0  0  0
  -25.9888  -30.7300   21.3857 C   0  0  0  0  0  0
  -26.0377  -29.3541   20.7052 C   0  0  0  0  0  0
  -27.1912  -28.4925   20.6611 C   0  0  0  0  0  0
  -25.9041  -26.8461   19.4317 C   0  0  0  0  0  0
  -24.7861  -27.6882   19.4599 C   0  0  0  0  0  0
  -23.6379  -29.8386   20.1583 C   0  0  0  0  0  0
  -25.4131  -36.3041   24.0313 C   0  0  1  0  0  0
  -20.5900  -28.3702   23.1261 C   0  0  2  0  0  0
  -20.6786  -26.9420   22.5401 C   0  0  0  0  0  0
  -19.5757  -26.6384   21.5211 C   0  0  0  0  0  0
  -18.1935  -26.7926   22.1624 C   0  0  0  0  0  0
  -19.1547  -28.8863   23.2862 C   0  0  0  0  0  0
  -18.9468  -30.1462   23.8881 C   0  0  0  0  0  0
  -17.6467  -30.6588   24.0559 C   0  0  0  0  0  0
  -25.9083  -34.9416   23.5065 C   0  0  0  0  0  0
  -16.5357  -29.9085   23.6336 C   0  0  0  0  0  0
  -16.7277  -28.6506   23.0353 C   0  0  0  0  0  0
  -26.4536  -31.6565   25.0726 C   0  0  0  0  0  0
  -25.3731  -31.3749   26.1425 C   0  0  0  0  0  0
  -27.0392  -30.2959   24.6299 C   0  0  0  0  0  0
  -27.6061  -32.4327   25.7514 C   0  0  0  0  0  0
  -27.5577  -37.1792   24.8465 C   0  0  0  0  0  0
  -21.4223  -29.3047   22.3650 N   0  0  0  0  0  0
  -26.4292  -37.3753   23.9404 N   0  0  0  0  0  0
  -24.7079  -31.0413   22.0974 N   0  0  0  0  0  0
  -23.4217  -28.8112   23.2983 O   0  0  0  0  0  0
  -28.1279  -26.1975   19.9732 O   0  0  0  0  0  0
  -26.5654  -34.8899   22.4638 O   0  0  0  0  0  0
  -23.5546  -32.1375   23.7236 O   0  0  0  0  0  0
  -26.5644  -16.6933   18.2763 C   0  0  0  0  0  0
  -26.1240  -18.2628   16.5171 C   0  0  0  0  0  0
  -25.7289  -15.8267   16.1836 C   0  0  0  0  0  0
  -26.5683  -18.0974   17.8472 C   0  0  0  0  0  0
  -26.1289  -15.5185   17.4978 C   0  0  0  0  0  0
  -25.7262  -17.1646   15.7114 C   0  0  0  0  0  0
  -27.0310  -20.9002   18.4010 C   0  0  0  0  0  0
  -28.7303  -11.7548   19.3745 C   0  0  0  0  0  0
  -27.4593  -21.9868   19.1917 C   0  0  0  0  0  0
  -27.0125  -19.3526   18.7270 C   0  0  0  0  0  0
  -27.6314  -11.7443   18.4072 C   0  0  0  0  0  0
  -27.5533  -23.5837   18.8968 C   0  0  0  0  0  0
  -26.6771  -12.8096   17.4857 C   0  0  0  0  0  0
  -27.7650  -24.7060   20.0959 C   0  0  0  0  0  0
  -27.4267  -19.0817   19.8908 N   0  0  0  0  0  0
  -27.1503  -10.5234   18.1188 O   0  0  0  0  0  0
  -26.0761  -14.1490   18.0118 O   0  0  0  0  0  0
  -25.3190  -17.4070   14.4421 F   0  0  0  0  0  0
  -32.0228  -12.5634   19.1382 H   0  0  0  0  0  0
  -31.0901  -11.2252   18.7954 H   0  0  0  0  0  0
  -29.7023  -12.5826   17.0271 H   0  0  0  0  0  0
  -30.6983  -13.9409   17.3611 H   0  0  0  0  0  0
  -28.2017  -14.6170   17.6059 H   0  0  0  0  0  0
  -29.0455  -15.1551   18.7316 H   0  0  0  0  0  0
  -27.6984  -14.8750   20.6411 H   0  0  0  0  0  0
  -28.3195  -12.2041   21.8777 H   0  0  0  0  0  0
  -29.0948  -13.6393   22.2263 H   0  0  0  0  0  0
  -25.3179   -9.5939   22.4793 H   0  0  0  0  0  0
  -24.0242   -7.5017   22.7576 H   0  0  0  0  0  0
  -21.1336   -8.9188   19.8890 H   0  0  0  0  0  0
  -22.4352  -10.9929   19.6044 H   0  0  0  0  0  0
  -21.2205   -7.6269   23.9771 H   0  0  0  0  0  0
  -21.1463   -6.0572   25.9056 H   0  0  0  0  0  0
  -22.0548   -2.7713   23.2738 H   0  0  0  0  0  0
  -22.4265  -11.9886   22.5077 H   0  0  0  0  0  0
  -21.0865  -13.0694   22.2572 H   0  0  0  0  0  0
  -24.3047  -15.7628   20.5437 H   0  0  0  0  0  0
  -25.8250  -15.6647   19.8541 H   0  0  0  0  0  0
  -26.7255  -32.5289   23.0992 H   0  0  0  0  0  0
  -25.0114  -33.9652   25.0353 H   0  0  0  0  0  0
  -22.7300  -31.3129   21.4142 H   0  0  0  0  0  0
  -23.3762  -35.9587   23.3289 H   0  0  0  0  0  0
  -24.3580  -36.8908   22.2053 H   0  0  0  0  0  0
  -23.7243  -37.6452   23.6685 H   0  0  0  0  0  0
  -26.1540  -31.4969   20.6276 H   0  0  0  0  0  0
  -26.8585  -30.7569   22.0313 H   0  0  0  0  0  0
  -28.1128  -28.8052   21.1317 H   0  0  0  0  0  0
  -25.7931  -25.9024   18.9208 H   0  0  0  0  0  0
  -23.8707  -27.3684   18.9802 H   0  0  0  0  0  0
  -23.7791  -30.6238   19.4141 H   0  0  0  0  0  0
  -22.7442  -29.2965   19.8439 H   0  0  0  0  0  0
  -25.1314  -36.1874   25.0804 H   0  0  0  0  0  0
  -20.9988  -28.3280   24.1383 H   0  0  0  0  0  0
  -20.5699  -26.2310   23.3606 H   0  0  0  0  0  0
  -21.6649  -26.7446   22.1184 H   0  0  0  0  0  0
  -19.6916  -25.6295   21.1243 H   0  0  0  0  0  0
  -19.6689  -27.3192   20.6741 H   0  0  0  0  0  0
  -17.4204  -26.6664   21.4031 H   0  0  0  0  0  0
  -18.0338  -26.0074   22.9031 H   0  0  0  0  0  0
  -19.7944  -30.7281   24.2243 H   0  0  0  0  0  0
  -17.5022  -31.6266   24.5164 H   0  0  0  0  0  0
  -15.5358  -30.2980   23.7672 H   0  0  0  0  0  0
  -15.8676  -28.0820   22.7076 H   0  0  0  0  0  0
  -24.5922  -30.7080   25.7751 H   0  0  0  0  0  0
  -24.8906  -32.2929   26.4791 H   0  0  0  0  0  0
  -25.8024  -30.8967   27.0237 H   0  0  0  0  0  0
  -26.2997  -29.6682   24.1313 H   0  0  0  0  0  0
  -27.4004  -29.7262   25.4870 H   0  0  0  0  0  0
  -27.8911  -30.4184   23.9607 H   0  0  0  0  0  0
  -27.2647  -33.3640   26.2044 H   0  0  0  0  0  0
  -28.3901  -32.6868   25.0369 H   0  0  0  0  0  0
  -28.0697  -31.8487   26.5475 H   0  0  0  0  0  0
  -28.2585  -38.0098   24.7510 H   0  0  0  0  0  0
  -28.1084  -36.2623   24.6299 H   0  0  0  0  0  0
  -27.2290  -37.1442   25.8868 H   0  0  0  0  0  0
  -20.9411  -29.8801   21.6879 H   0  0  0  0  0  0
  -26.0159  -38.2822   24.1409 H   0  0  0  0  0  0
  -26.9552  -16.5229   19.2639 H   0  0  0  0  0  0
  -26.0888  -19.2528   16.0875 H   0  0  0  0  0  0
  -25.3984  -15.0377   15.5246 H   0  0  0  0  0  0
  -26.6614  -21.1199   17.4105 H   0  0  0  0  0  0
  -28.9040  -10.7382   19.7107 H   0  0  0  0  0  0
  -27.8293  -21.7304   20.1741 H   0  0  0  0  0  0
  -26.6807  -23.8572   18.3041 H   0  0  0  0  0  0
  -28.3977  -23.6964   18.2181 H   0  0  0  0  0  0
  -25.7951  -12.2506   17.1723 H   0  0  0  0  0  0
  -27.1963  -12.9970   16.5436 H   0  0  0  0  0  0
  -28.5743  -24.3080   20.7070 H   0  0  0  0  0  0
  -26.8976  -24.6400   20.7545 H   0  0  0  0  0  0
  -27.4049  -18.0852   20.0712 H   0  0  0  0  0  0
  -26.4187  -10.6298   17.5252 H   0  0  0  0  0  0
  1 25  1  0  0  0
  1 30  2  0  0  0
  1 78  1  0  0  0
  2  3  1  0  0  0
  2 25  1  0  0  0
  2 89  1  0  0  0
  2 90  1  0  0  0
  3  4  1  0  0  0
  3 91  1  0  0  0
  3 92  1  0  0  0
  4  5  1  0  0  0
  4 93  1  0  0  0
  4 94  1  0  0  0
  5  6  1  0  0  0
  5 26  1  0  0  0
  5 95  1  0  0  0
  6 25  1  0  0  0
  6 96  1  0  0  0
  6 97  1  0  0  0
  7  8  2  0  0  0
  7 26  1  0  0  0
  7 29  1  0  0  0
  8  9  1  0  0  0
  8 22  1  0  0  0
  9 10  1  0  0  0
  9 27  2  0  0  0
 10 11  2  0  0  0
 10 15  1  0  0  0
 11 12  1  0  0  0
 11 98  1  0  0  0
 12 13  2  0  0  0
 12 99  1  0  0  0
 13 14  1  0  0  0
 13 31  1  0  0  0
 14 15  2  0  0  0
 14100  1  0  0  0
 15101  1  0  0  0
 16 17  2  0  0  0
 16 21  1  0  0  0
 16 31  1  0  0  0
 17 18  1  0  0  0
 17102  1  0  0  0
 18 19  2  0  0  0
 18103  1  0  0  0
 19 20  1  0  0  0
 19 24  1  0  0  0
 20 21  2  0  0  0
 20104  1  0  0  0
 21 23  1  0  0  0
 22 28  1  0  0  0
 22 32  2  0  0  0
 26 27  1  0  0  0
 28105  1  0  0  0
 28106  1  0  0  0
 29107  1  0  0  0
 29108  1  0  0  0
 33 34  1  0  0  0
 33 66  1  0  0  0
 33 70  2  0  0  0
 34 36  1  0  0  0
 34 59  1  0  0  0
 34109  1  0  0  0
 35 44  2  0  0  0
 35 45  1  0  0  0
 35 68  1  0  0  0
 36 56  1  0  0  0
 36110  1  0  0  0
 37 39  1  0  0  0
 37 47  1  0  0  0
 37 66  1  0  0  0
 37111  1  0  0  0
 38 43  2  0  0  0
 38 46  1  0  0  0
 38 47  1  0  0  0
 39 64  1  0  0  0
 39 67  2  0  0  0
 40 52  1  0  0  0
 40 53  2  0  0  0
 40 58  1  0  0  0
 41112  1  0  0  0
 41113  1  0  0  0
 41114  1  0  0  0
 41 48  1  0  0  0
 42 43  1  0  0  0
 42 66  1  0  0  0
 42115  1  0  0  0
 42116  1  0  0  0
 43 44  1  0  0  0
 44117  1  0  0  0
 45 46  2  0  0  0
 45118  1  0  0  0
 46119  1  0  0  0
 47120  1  0  0  0
 47121  1  0  0  0
 48 56  1  0  0  0
 48 65  1  0  0  0
 48122  1  0  0  0
 49 50  1  0  0  0
 49 53  1  0  0  0
 49 64  1  0  0  0
 49123  1  0  0  0
 50 51  1  0  0  0
 50124  1  0  0  0
 50125  1  0  0  0
 51 52  1  0  0  0
 51126  1  0  0  0
 51127  1  0  0  0
 52128  1  0  0  0
 52129  1  0  0  0
 53 54  1  0  0  0
 54 55  2  0  0  0
 54130  1  0  0  0
 55 57  1  0  0  0
 55131  1  0  0  0
 56 69  2  0  0  0
 57 58  2  0  0  0
 57132  1  0  0  0
 58133  1  0  0  0
 59 60  1  0  0  0
 59 61  1  0  0  0
 59 62  1  0  0  0
 60134  1  0  0  0
 60135  1  0  0  0
 60136  1  0  0  0
 61137  1  0  0  0
 61138  1  0  0  0
 61139  1  0  0  0
 62140  1  0  0  0
 62141  1  0  0  0
 62142  1  0  0  0
 63 65  1  0  0  0
 63143  1  0  0  0
 63144  1  0  0  0
 63145  1  0  0  0
 64146  1  0  0  0
 65147  1  0  0  0
 68 84  1  0  0  0
 71 74  2  0  0  0
 71 75  1  0  0  0
 71148  1  0  0  0
 72 74  1  0  0  0
 72 76  2  0  0  0
 72149  1  0  0  0
 73 75  2  0  0  0
 73 76  1  0  0  0
 73150  1  0  0  0
 74 80  1  0  0  0
 75 87  1  0  0  0
 76 88  1  0  0  0
 77 79  2  0  0  0
 77 80  1  0  0  0
 77151  1  0  0  0
 78 81  2  0  0  0
 78152  1  0  0  0
 79 82  1  0  0  0
 79153  1  0  0  0
 80 85  2  0  0  0
 81 83  1  0  0  0
 81 86  1  0  0  0
 82 84  1  0  0  0
 82154  1  0  0  0
 82155  1  0  0  0
 83 87  1  0  0  0
 83156  1  0  0  0
 83157  1  0  0  0
 84158  1  0  0  0
 84159  1  0  0  0
 85160  1  0  0  0
 86161  1  0  0  0
M  ISO  4   1 100  68 101  78 100  84 101
M  END
> <chiral flag>
0

> <version>
0

> <s_m_source_file>
/data/baiqing/PycharmProjects/Reinvent-master-3.2/result/LINK_invent/BTK/process_docking_weight1_custom_product_contain_oxygen_bond_distance_aromatic_linkinvent_7_9_3/rearranged_h_0120.sdf

> <i_m_source_file_index>
51

> <r_mmod_Potential_Energy-OPLS-2005>
4885.00634765625

> <r_mmod_Stretch_Energy-OPLS-2005>
1694.13500976562

> <r_mmod_Bend_Energy-OPLS-2005>
986.289733886719

> <r_mmod_Torsional_Energy-OPLS-2005>
330.114349365234

> <r_mmod_Improper_Torsional_Energy-OPLS-2005>
9.11925983428955

> <r_mmod_Van_der_Waal_Energy-OPLS-2005>
1200.54992675781

> <r_mmod_Electrostatic_Energy-OPLS-2005>
-344.96435546875

> <r_mmod_Solvation_Energy-OPLS-2005>
-225.592880249023

> <b_mmod_Minimization_Converged-OPLS-2005>
0

> <r_mmod_RMS_Derivative-OPLS-2005>
2.03481364250183

$$$$
51
                    3D
 Structure written by MMmdl.
161169  0  0  1  0            999 V2000
  -30.6338  -14.5592   20.4682 C   0  0  0  0  0  0
  -30.4418  -12.2995   19.4895 C   0  0  0  0  0  0
  -29.5324  -12.4021   18.2490 C   0  0  0  0  0  0
  -28.0347  -12.3425   18.6290 C   0  0  0  0  0  0
  -27.6629  -13.2067   19.8670 C   0  0  2  0  0  0
  -28.6979  -13.0318   21.0005 C   0  0  0  0  0  0
  -25.2615  -13.8167   20.5659 C   0  0  0  0  0  0
  -24.1862  -13.0449   20.9148 C   0  0  0  0  0  0
  -24.6408  -11.6915   20.8711 C   0  0  0  0  0  0
  -23.9067  -10.4303   21.0392 C   0  0  0  0  0  0
  -24.3616   -9.4214   21.9173 C   0  0  0  0  0  0
  -23.6283   -8.2253   22.0741 C   0  0  0  0  0  0
  -22.4260   -8.0300   21.3540 C   0  0  0  0  0  0
  -21.9901   -9.0276   20.4636 C   0  0  0  0  0  0
  -22.7239  -10.2152   20.3044 C   0  0  0  0  0  0
  -21.6856   -6.0743   22.5280 C   0  0  0  0  0  0
  -21.4021   -6.5638   23.8220 C   0  0  0  0  0  0
  -21.3651   -5.6786   24.9175 C   0  0  0  0  0  0
  -21.6037   -4.3052   24.7222 C   0  0  0  0  0  0
  -21.8821   -3.8152   23.4340 C   0  0  0  0  0  0
  -21.9192   -4.6971   22.3397 C   0  0  0  0  0  0
  -22.7893  -13.5253   21.1834 C   0  0  0  0  0  0
  -22.1664   -4.2163   21.0973 F   0  0  0  0  0  0
  -21.5620   -3.4531   25.7733 F   0  0  0  0  0  0
  -30.0246  -13.3392   20.4448 N   0  0  0  0  0  0
  -26.3039  -12.9324   20.3302 N   0  0  0  0  0  0
  -25.9329  -11.6493   20.5753 N   0  0  0  0  0  0
  -22.0548  -12.8227   22.0384 N   0  0  0  0  0  0
  -25.4362  -15.1892   20.4115 N   0  0  0  0  0  0
  -31.7908  -14.7289   20.0703 O   0  0  0  0  0  0
  -21.6634   -6.8890   21.4241 O   0  0  0  0  0  0
  -22.3580  -14.5584   20.6738 O   0  0  0  0  0  0
  -24.6167  -31.8656   23.2075 C   0  0  0  0  0  0
  -25.9053  -32.4807   23.8374 C   0  0  1  0  0  0
  -27.2310  -27.4026   20.1129 C   0  0  0  0  0  0
  -25.5904  -33.8605   24.2310 N   0  0  0  0  0  0
  -23.4061  -30.4893   21.5476 C   0  0  2  0  0  0
  -24.8532  -28.9525   20.1125 C   0  0  0  0  0  0
  -22.7423  -29.4653   22.4967 C   0  0  0  0  0  0
  -18.0279  -28.1375   22.8486 C   0  0  0  0  0  0
  -24.1490  -36.7307   23.2638 C   0  0  0  0  0  0
  -25.9374  -30.8245   21.3638 C   0  0  0  0  0  0
  -26.0150  -29.4575   20.7094 C   0  0  0  0  0  0
  -27.2081  -28.6927   20.6998 C   0  0  0  0  0  0
  -26.0506  -26.9238   19.4998 C   0  0  0  0  0  0
  -24.8677  -27.6874   19.5019 C   0  0  0  0  0  0
  -23.6162  -29.8221   20.1622 C   0  0  0  0  0  0
  -25.4114  -36.3100   24.0333 C   0  0  1  0  0  0
  -20.5869  -28.3669   23.1302 C   0  0  2  0  0  0
  -20.6773  -26.9400   22.5410 C   0  0  0  0  0  0
  -19.5753  -26.6379   21.5208 C   0  0  0  0  0  0
  -18.1927  -26.7921   22.1615 C   0  0  0  0  0  0
  -19.1529  -28.8838   23.2889 C   0  0  0  0  0  0
  -18.9455  -30.1445   23.8899 C   0  0  0  0  0  0
  -17.6460  -30.6582   24.0564 C   0  0  0  0  0  0
  -25.9042  -34.9466   23.5121 C   0  0  0  0  0  0
  -16.5350  -29.9086   23.6329 C   0  0  0  0  0  0
  -16.7270  -28.6504   23.0345 C   0  0  0  0  0  0
  -26.4475  -31.6586   25.0705 C   0  0  0  0  0  0
  -25.3741  -31.3685   26.1453 C   0  0  0  0  0  0
  -27.0310  -30.3029   24.6082 C   0  0  0  0  0  0
  -27.6042  -32.4307   25.7482 C   0  0  0  0  0  0
  -27.5585  -37.1804   24.8463 C   0  0  0  0  0  0
  -21.4147  -29.3037   22.3708 N   0  0  0  0  0  0
  -26.4296  -37.3785   23.9410 N   0  0  0  0  0  0
  -24.6715  -31.0747   22.0980 N   0  0  0  0  0  0
  -23.4180  -28.8197   23.3020 O   0  0  0  0  0  0
  -28.3826  -26.6314   20.1568 O   0  0  0  0  0  0
  -26.5604  -34.8921   22.4682 O   0  0  0  0  0  0
  -23.5353  -32.1416   23.7460 O   0  0  0  0  0  0
  -29.6188  -18.0931   20.8283 C   0  0  0  0  0  0
  -29.1013  -18.0931   18.0942 C   0  0  0  0  0  0
  -29.2993  -19.3355   20.1951 C   0  0  0  0  0  0
  -29.0303  -19.3080   18.7993 C   0  0  0  0  0  0
  -29.6722  -16.8534   20.1213 C   0  0  0  0  0  0
  -29.3869  -16.8626   18.7304 C   0  0  0  0  0  0
  -29.2441  -20.5904   21.0184 C   0  0  0  0  0  0
  -29.3973  -21.8874   20.6388 C   0  0  0  0  0  0
  -28.5746  -20.5230   18.0031 C   0  0  0  0  0  0
  -28.8173  -15.6681   16.7178 C   0  0  0  0  0  0
  -29.2477  -23.0953   21.5697 C   0  0  0  0  0  0
  -29.4480  -24.5159   20.9430 C   0  0  0  0  0  0
  -28.2047  -25.2004   20.3104 C   0  0  0  0  0  0
  -29.8476  -15.6042   20.8302 N   0  0  0  0  0  0
  -29.3401  -15.6664   18.0461 O   0  0  0  0  0  0
  -31.4904  -12.3977   19.2030 H   0  0  0  0  0  0
  -30.3528  -11.3150   19.9518 H   0  0  0  0  0  0
  -29.7622  -11.5940   17.5538 H   0  0  0  0  0  0
  -29.7749  -13.3139   17.7156 H   0  0  0  0  0  0
  -27.8002  -11.2969   18.8317 H   0  0  0  0  0  0
  -27.4196  -12.6268   17.7755 H   0  0  0  0  0  0
  -27.6897  -14.2471   19.5456 H   0  0  0  0  0  0
  -28.6822  -12.0089   21.3810 H   0  0  0  0  0  0
  -28.4577  -13.6653   21.8561 H   0  0  0  0  0  0
  -25.2772   -9.5672   22.4735 H   0  0  0  0  0  0
  -23.9989   -7.4628   22.7440 H   0  0  0  0  0  0
  -21.0836   -8.8790   19.8927 H   0  0  0  0  0  0
  -22.3702  -10.9681   19.6138 H   0  0  0  0  0  0
  -21.2030   -7.6147   23.9734 H   0  0  0  0  0  0
  -21.1460   -6.0512   25.9078 H   0  0  0  0  0  0
  -22.0608   -2.7617   23.2843 H   0  0  0  0  0  0
  -22.4153  -11.9842   22.4698 H   0  0  0  0  0  0
  -21.1204  -13.1295   22.2670 H   0  0  0  0  0  0
  -24.6829  -15.8521   20.5548 H   0  0  0  0  0  0
  -26.2990  -15.6303   20.1183 H   0  0  0  0  0  0
  -26.7123  -32.5517   23.1132 H   0  0  0  0  0  0
  -25.0057  -33.9765   25.0457 H   0  0  0  0  0  0
  -22.6957  -31.3067   21.4074 H   0  0  0  0  0  0
  -23.3751  -35.9641   23.3297 H   0  0  0  0  0  0
  -24.3580  -36.8930   22.2054 H   0  0  0  0  0  0
  -23.7245  -37.6508   23.6661 H   0  0  0  0  0  0
  -26.0533  -31.5907   20.5959 H   0  0  0  0  0  0
  -26.8234  -30.8770   21.9842 H   0  0  0  0  0  0
  -28.1029  -29.0758   21.1702 H   0  0  0  0  0  0
  -26.0294  -25.9556   19.0207 H   0  0  0  0  0  0
  -23.9750  -27.2937   19.0352 H   0  0  0  0  0  0
  -23.7264  -30.5972   19.4033 H   0  0  0  0  0  0
  -22.7394  -29.2438   19.8654 H   0  0  0  0  0  0
  -25.1293  -36.1957   25.0824 H   0  0  0  0  0  0
  -20.9962  -28.3238   24.1425 H   0  0  0  0  0  0
  -20.5682  -26.2275   23.3598 H   0  0  0  0  0  0
  -21.6643  -26.7444   22.1206 H   0  0  0  0  0  0
  -19.6918  -25.6292   21.1234 H   0  0  0  0  0  0
  -19.6699  -27.3193   20.6739 H   0  0  0  0  0  0
  -17.4201  -26.6672   21.4010 H   0  0  0  0  0  0
  -18.0326  -26.0058   22.9004 H   0  0  0  0  0  0
  -19.7936  -30.7262   24.2264 H   0  0  0  0  0  0
  -17.5018  -31.6265   24.5163 H   0  0  0  0  0  0
  -15.5353  -30.2992   23.7651 H   0  0  0  0  0  0
  -15.8664  -28.0833   22.7046 H   0  0  0  0  0  0
  -24.5918  -30.7029   25.7789 H   0  0  0  0  0  0
  -24.8933  -32.2842   26.4911 H   0  0  0  0  0  0
  -25.8103  -30.8849   27.0204 H   0  0  0  0  0  0
  -26.2854  -29.6783   24.1149 H   0  0  0  0  0  0
  -27.4098  -29.7267   25.4536 H   0  0  0  0  0  0
  -27.8680  -30.4346   23.9219 H   0  0  0  0  0  0
  -27.2648  -33.3593   26.2083 H   0  0  0  0  0  0
  -28.3848  -32.6886   25.0313 H   0  0  0  0  0  0
  -28.0709  -31.8412   26.5383 H   0  0  0  0  0  0
  -28.2591  -38.0112   24.7527 H   0  0  0  0  0  0
  -28.1094  -36.2644   24.6272 H   0  0  0  0  0  0
  -27.2301  -37.1437   25.8864 H   0  0  0  0  0  0
  -20.9303  -29.8761   21.6936 H   0  0  0  0  0  0
  -26.0181  -38.2859   24.1418 H   0  0  0  0  0  0
  -29.8002  -18.0871   21.8938 H   0  0  0  0  0  0
  -28.8812  -18.1278   17.0388 H   0  0  0  0  0  0
  -29.0177  -20.4237   22.0627 H   0  0  0  0  0  0
  -29.6512  -22.1377   19.6229 H   0  0  0  0  0  0
  -28.0609  -20.2285   17.0878 H   0  0  0  0  0  0
  -29.4277  -21.1326   17.7069 H   0  0  0  0  0  0
  -27.8645  -21.1300   18.5667 H   0  0  0  0  0  0
  -28.7327  -14.6510   16.3387 H   0  0  0  0  0  0
  -29.4707  -16.2093   16.0311 H   0  0  0  0  0  0
  -27.8164  -16.0998   16.6842 H   0  0  0  0  0  0
  -30.0014  -22.9663   22.3479 H   0  0  0  0  0  0
  -28.2872  -23.0397   22.0834 H   0  0  0  0  0  0
  -30.2797  -24.5118   20.2377 H   0  0  0  0  0  0
  -29.7670  -25.1677   21.7572 H   0  0  0  0  0  0
  -27.3465  -25.0087   20.9575 H   0  0  0  0  0  0
  -27.9844  -24.7425   19.3445 H   0  0  0  0  0  0
  -29.0368  -15.3223   21.3580 H   0  0  0  0  0  0
  1 25  1  0  0  0
  1 30  2  0  0  0
  1 84  1  0  0  0
  2  3  1  0  0  0
  2 25  1  0  0  0
  2 86  1  0  0  0
  2 87  1  0  0  0
  3  4  1  0  0  0
  3 88  1  0  0  0
  3 89  1  0  0  0
  4  5  1  0  0  0
  4 90  1  0  0  0
  4 91  1  0  0  0
  5  6  1  0  0  0
  5 26  1  0  0  0
  5 92  1  0  0  0
  6 25  1  0  0  0
  6 93  1  0  0  0
  6 94  1  0  0  0
  7  8  2  0  0  0
  7 26  1  0  0  0
  7 29  1  0  0  0
  8  9  1  0  0  0
  8 22  1  0  0  0
  9 10  1  0  0  0
  9 27  2  0  0  0
 10 11  2  0  0  0
 10 15  1  0  0  0
 11 12  1  0  0  0
 11 95  1  0  0  0
 12 13  2  0  0  0
 12 96  1  0  0  0
 13 14  1  0  0  0
 13 31  1  0  0  0
 14 15  2  0  0  0
 14 97  1  0  0  0
 15 98  1  0  0  0
 16 17  2  0  0  0
 16 21  1  0  0  0
 16 31  1  0  0  0
 17 18  1  0  0  0
 17 99  1  0  0  0
 18 19  2  0  0  0
 18100  1  0  0  0
 19 20  1  0  0  0
 19 24  1  0  0  0
 20 21  2  0  0  0
 20101  1  0  0  0
 21 23  1  0  0  0
 22 28  1  0  0  0
 22 32  2  0  0  0
 26 27  1  0  0  0
 28102  1  0  0  0
 28103  1  0  0  0
 29104  1  0  0  0
 29105  1  0  0  0
 33 34  1  0  0  0
 33 66  1  0  0  0
 33 70  2  0  0  0
 34 36  1  0  0  0
 34 59  1  0  0  0
 34106  1  0  0  0
 35 44  2  0  0  0
 35 45  1  0  0  0
 35 68  1  0  0  0
 36 56  1  0  0  0
 36107  1  0  0  0
 37 39  1  0  0  0
 37 47  1  0  0  0
 37 66  1  0  0  0
 37108  1  0  0  0
 38 43  2  0  0  0
 38 46  1  0  0  0
 38 47  1  0  0  0
 39 64  1  0  0  0
 39 67  2  0  0  0
 40 52  1  0  0  0
 40 53  2  0  0  0
 40 58  1  0  0  0
 41109  1  0  0  0
 41110  1  0  0  0
 41111  1  0  0  0
 41 48  1  0  0  0
 42 43  1  0  0  0
 42 66  1  0  0  0
 42112  1  0  0  0
 42113  1  0  0  0
 43 44  1  0  0  0
 44114  1  0  0  0
 45 46  2  0  0  0
 45115  1  0  0  0
 46116  1  0  0  0
 47117  1  0  0  0
 47118  1  0  0  0
 48 56  1  0  0  0
 48 65  1  0  0  0
 48119  1  0  0  0
 49 50  1  0  0  0
 49 53  1  0  0  0
 49 64  1  0  0  0
 49120  1  0  0  0
 50 51  1  0  0  0
 50121  1  0  0  0
 50122  1  0  0  0
 51 52  1  0  0  0
 51123  1  0  0  0
 51124  1  0  0  0
 52125  1  0  0  0
 52126  1  0  0  0
 53 54  1  0  0  0
 54 55  2  0  0  0
 54127  1  0  0  0
 55 57  1  0  0  0
 55128  1  0  0  0
 56 69  2  0  0  0
 57 58  2  0  0  0
 57129  1  0  0  0
 58130  1  0  0  0
 59 60  1  0  0  0
 59 61  1  0  0  0
 59 62  1  0  0  0
 60131  1  0  0  0
 60132  1  0  0  0
 60133  1  0  0  0
 61134  1  0  0  0
 61135  1  0  0  0
 61136  1  0  0  0
 62137  1  0  0  0
 62138  1  0  0  0
 62139  1  0  0  0
 63 65  1  0  0  0
 63140  1  0  0  0
 63141  1  0  0  0
 63142  1  0  0  0
 64143  1  0  0  0
 65144  1  0  0  0
 68 83  1  0  0  0
 71 73  2  0  0  0
 71 75  1  0  0  0
 71145  1  0  0  0
 72 74  2  0  0  0
 72 76  1  0  0  0
 72146  1  0  0  0
 73 74  1  0  0  0
 73 77  1  0  0  0
 74 79  1  0  0  0
 75 76  2  0  0  0
 75 84  1  0  0  0
 76 85  1  0  0  0
 77 78  2  0  0  0
 77147  1  0  0  0
 78 81  1  0  0  0
 78148  1  0  0  0
 79149  1  0  0  0
 79150  1  0  0  0
 79151  1  0  0  0
 80 85  1  0  0  0
 80152  1  0  0  0
 80153  1  0  0  0
 80154  1  0  0  0
 81 82  1  0  0  0
 81155  1  0  0  0
 81156  1  0  0  0
 82 83  1  0  0  0
 82157  1  0  0  0
 82158  1  0  0  0
 83159  1  0  0  0
 83160  1  0  0  0
 84161  1  0  0  0
M  ISO  4   1 100  68 101  83 101  84 100
M  END
> <chiral flag>
0

> <version>
0

> <s_m_source_file>
/data/baiqing/PycharmProjects/Reinvent-master-3.2/result/LINK_invent/BTK/process_docking_weight1_custom_product_contain_oxygen_bond_distance_aromatic_linkinvent_7_9_3/rearranged_h_0120.sdf

> <i_m_source_file_index>
52

> <r_mmod_Potential_Energy-OPLS-2005>
15.6047086715698

> <r_mmod_Stretch_Energy-OPLS-2005>
50.226978302002

> <r_mmod_Bend_Energy-OPLS-2005>
112.433837890625

> <r_mmod_Torsional_Energy-OPLS-2005>
270.991760253906

> <r_mmod_Improper_Torsional_Energy-OPLS-2005>
6.18802499771118

> <r_mmod_Van_der_Waal_Energy-OPLS-2005>
161.405776977539

> <r_mmod_Electrostatic_Energy-OPLS-2005>
-403.812591552734

> <r_mmod_Solvation_Energy-OPLS-2005>
-209.77522277832

> <b_mmod_Minimization_Converged-OPLS-2005>
0

> <r_mmod_RMS_Derivative-OPLS-2005>
1.59844613075256

$$$$
52
                    3D
 Structure written by MMmdl.
163171  0  0  1  0            999 V2000
  -30.7618  -14.4072   20.6001 C   0  0  0  0  0  0
  -30.4095  -12.2674   19.4321 C   0  0  0  0  0  0
  -29.4979  -12.4897   18.2074 C   0  0  0  0  0  0
  -28.0165  -12.3717   18.6142 C   0  0  0  0  0  0
  -27.6695  -13.2061   19.8759 C   0  0  2  0  0  0
  -28.7055  -12.9831   20.9998 C   0  0  0  0  0  0
  -25.2666  -13.8180   20.5702 C   0  0  0  0  0  0
  -24.1887  -13.0440   20.9168 C   0  0  0  0  0  0
  -24.6430  -11.6924   20.8717 C   0  0  0  0  0  0
  -23.9113  -10.4299   21.0379 C   0  0  0  0  0  0
  -24.3664   -9.4211   21.9153 C   0  0  0  0  0  0
  -23.6324   -8.2262   22.0747 C   0  0  0  0  0  0
  -22.4300   -8.0293   21.3547 C   0  0  0  0  0  0
  -21.9944   -9.0257   20.4642 C   0  0  0  0  0  0
  -22.7281  -10.2136   20.3046 C   0  0  0  0  0  0
  -21.6864   -6.0744   22.5271 C   0  0  0  0  0  0
  -21.4006   -6.5652   23.8203 C   0  0  0  0  0  0
  -21.3660   -5.6799   24.9163 C   0  0  0  0  0  0
  -21.6051   -4.3061   24.7218 C   0  0  0  0  0  0
  -21.8820   -3.8168   23.4337 C   0  0  0  0  0  0
  -21.9191   -4.6978   22.3391 C   0  0  0  0  0  0
  -22.7928  -13.5250   21.1807 C   0  0  0  0  0  0
  -22.1658   -4.2168   21.0967 F   0  0  0  0  0  0
  -21.5637   -3.4545   25.7735 F   0  0  0  0  0  0
  -30.0444  -13.2597   20.4586 N   0  0  0  0  0  0
  -26.3091  -12.9336   20.3378 N   0  0  0  0  0  0
  -25.9365  -11.6498   20.5789 N   0  0  0  0  0  0
  -22.0559  -12.8237   22.0359 N   0  0  0  0  0  0
  -25.4448  -15.1884   20.4160 N   0  0  0  0  0  0
  -31.8797  -14.5275   20.0886 O   0  0  0  0  0  0
  -21.6653   -6.8887   21.4243 O   0  0  0  0  0  0
  -22.3606  -14.5523   20.6616 O   0  0  0  0  0  0
  -24.6153  -31.8700   23.2115 C   0  0  0  0  0  0
  -25.9051  -32.4802   23.8420 C   0  0  1  0  0  0
  -27.2557  -27.4572   20.0741 C   0  0  0  0  0  0
  -25.5940  -33.8616   24.2338 N   0  0  0  0  0  0
  -23.4037  -30.4901   21.5564 C   0  0  2  0  0  0
  -24.8557  -28.9546   20.1244 C   0  0  0  0  0  0
  -22.7407  -29.4663   22.5060 C   0  0  0  0  0  0
  -18.0262  -28.1383   22.8513 C   0  0  0  0  0  0
  -24.1493  -36.7274   23.2635 C   0  0  0  0  0  0
  -25.9390  -30.8293   21.3786 C   0  0  0  0  0  0
  -26.0177  -29.4707   20.7143 C   0  0  0  0  0  0
  -27.2236  -28.7333   20.6874 C   0  0  0  0  0  0
  -26.0706  -26.9459   19.5084 C   0  0  0  0  0  0
  -24.8731  -27.6860   19.5237 C   0  0  0  0  0  0
  -23.6151  -29.8185   20.1744 C   0  0  0  0  0  0
  -25.4127  -36.3096   24.0331 C   0  0  1  0  0  0
  -20.5847  -28.3663   23.1318 C   0  0  2  0  0  0
  -20.6772  -26.9403   22.5416 C   0  0  0  0  0  0
  -19.5744  -26.6390   21.5228 C   0  0  0  0  0  0
  -18.1905  -26.7950   22.1608 C   0  0  0  0  0  0
  -19.1510  -28.8838   23.2912 C   0  0  0  0  0  0
  -18.9448  -30.1459   23.8893 C   0  0  0  0  0  0
  -17.6445  -30.6592   24.0549 C   0  0  0  0  0  0
  -25.9061  -34.9461   23.5128 C   0  0  0  0  0  0
  -16.5331  -29.9064   23.6350 C   0  0  0  0  0  0
  -16.7252  -28.6481   23.0368 C   0  0  0  0  0  0
  -26.4481  -31.6561   25.0754 C   0  0  0  0  0  0
  -25.3738  -31.3681   26.1482 C   0  0  0  0  0  0
  -27.0347  -30.2985   24.6198 C   0  0  0  0  0  0
  -27.6030  -32.4273   25.7562 C   0  0  0  0  0  0
  -27.5613  -37.1791   24.8454 C   0  0  0  0  0  0
  -21.4139  -29.3007   22.3727 N   0  0  0  0  0  0
  -26.4314  -37.3787   23.9406 N   0  0  0  0  0  0
  -24.6680  -31.0787   22.1035 N   0  0  0  0  0  0
  -23.4178  -28.8254   23.3142 O   0  0  0  0  0  0
  -28.3623  -26.6409   19.9839 O   0  0  0  0  0  0
  -26.5591  -34.8892   22.4671 O   0  0  0  0  0  0
  -23.5344  -32.1486   23.7490 O   0  0  0  0  0  0
  -29.3769  -18.4238   22.3382 C   0  0  0  0  0  0
  -29.2700  -20.3691   20.3287 C   0  0  0  0  0  0
  -29.8250  -18.0939   21.0415 C   0  0  0  0  0  0
  -28.9356  -19.7338   22.6510 C   0  0  0  0  0  0
  -29.7624  -19.0853   20.0338 C   0  0  0  0  0  0
  -28.8889  -20.7329   21.6394 C   0  0  0  0  0  0
  -30.3224  -16.7502   20.6828 C   0  0  0  0  0  0
  -30.1000  -15.5424   21.2430 C   0  0  0  0  0  0
  -29.8152  -23.7992   20.9062 C   0  0  0  0  0  0
  -30.7181  -26.0550   20.1287 C   0  0  0  0  0  0
  -28.5140  -20.0320   24.0812 C   0  0  0  0  0  0
  -30.2431  -18.8033   18.6168 C   0  0  0  0  0  0
  -28.4386  -22.1756   21.9404 C   0  0  0  0  0  0
  -30.2859  -24.6382   19.7282 C   0  0  0  0  0  0
  -29.6511  -27.1505   20.3001 C   0  0  0  0  0  0
  -28.7409  -23.1117   20.8586 N   0  0  0  0  0  0
  -31.9174  -26.3249   20.2543 O   0  0  0  0  0  0
  -31.4586  -12.3202   19.1397 H   0  0  0  0  0  0
  -30.2700  -11.2589   19.8272 H   0  0  0  0  0  0
  -29.7306  -11.7560   17.4332 H   0  0  0  0  0  0
  -29.6906  -13.4710   17.7698 H   0  0  0  0  0  0
  -27.8109  -11.3171   18.7991 H   0  0  0  0  0  0
  -27.3735  -12.6641   17.7839 H   0  0  0  0  0  0
  -27.7200  -14.2553   19.5844 H   0  0  0  0  0  0
  -28.6699  -11.9492   21.3492 H   0  0  0  0  0  0
  -28.4633  -13.5854   21.8723 H   0  0  0  0  0  0
  -25.2808   -9.5689   22.4722 H   0  0  0  0  0  0
  -24.0029   -7.4668   22.7492 H   0  0  0  0  0  0
  -21.0866   -8.8780   19.8962 H   0  0  0  0  0  0
  -22.3715  -10.9681   19.6175 H   0  0  0  0  0  0
  -21.1981   -7.6164   23.9710 H   0  0  0  0  0  0
  -21.1484   -6.0526   25.9052 H   0  0  0  0  0  0
  -22.0596   -2.7637   23.2831 H   0  0  0  0  0  0
  -22.4186  -11.9924   22.4794 H   0  0  0  0  0  0
  -21.1165  -13.1256   22.2511 H   0  0  0  0  0  0
  -24.6954  -15.8616   20.5435 H   0  0  0  0  0  0
  -26.3199  -15.6196   20.1388 H   0  0  0  0  0  0
  -26.7150  -32.5498   23.1208 H   0  0  0  0  0  0
  -25.0202  -33.9803   25.0557 H   0  0  0  0  0  0
  -22.6890  -31.3053   21.4136 H   0  0  0  0  0  0
  -23.3793  -35.9572   23.3280 H   0  0  0  0  0  0
  -24.3583  -36.8908   22.2051 H   0  0  0  0  0  0
  -23.7207  -37.6445   23.6689 H   0  0  0  0  0  0
  -26.0794  -31.6094   20.6302 H   0  0  0  0  0  0
  -26.8091  -30.8557   22.0229 H   0  0  0  0  0  0
  -28.1102  -29.1517   21.1376 H   0  0  0  0  0  0
  -26.0816  -25.9710   19.0400 H   0  0  0  0  0  0
  -23.9793  -27.2740   19.0730 H   0  0  0  0  0  0
  -23.7119  -30.5896   19.4103 H   0  0  0  0  0  0
  -22.7422  -29.2329   19.8870 H   0  0  0  0  0  0
  -25.1336  -36.1949   25.0836 H   0  0  0  0  0  0
  -20.9921  -28.3235   24.1452 H   0  0  0  0  0  0
  -20.5664  -26.2294   23.3621 H   0  0  0  0  0  0
  -21.6647  -26.7445   22.1202 H   0  0  0  0  0  0
  -19.6870  -25.6287   21.1276 H   0  0  0  0  0  0
  -19.6691  -27.3199   20.6759 H   0  0  0  0  0  0
  -17.4202  -26.6747   21.3981 H   0  0  0  0  0  0
  -18.0237  -26.0091   22.8976 H   0  0  0  0  0  0
  -19.7907  -30.7310   24.2257 H   0  0  0  0  0  0
  -17.4963  -31.6266   24.5144 H   0  0  0  0  0  0
  -15.5319  -30.2928   23.7711 H   0  0  0  0  0  0
  -15.8661  -28.0782   22.7095 H   0  0  0  0  0  0
  -24.5788  -30.7227   25.7749 H   0  0  0  0  0  0
  -24.9126  -32.2871   26.5107 H   0  0  0  0  0  0
  -25.8032  -30.8624   27.0129 H   0  0  0  0  0  0
  -26.2985  -29.6757   24.1112 H   0  0  0  0  0  0
  -27.3928  -29.7200   25.4724 H   0  0  0  0  0  0
  -27.8887  -30.4277   23.9544 H   0  0  0  0  0  0
  -27.2617  -33.3545   26.2173 H   0  0  0  0  0  0
  -28.3863  -32.6835   25.0423 H   0  0  0  0  0  0
  -28.0675  -31.8365   26.5477 H   0  0  0  0  0  0
  -28.2600  -38.0114   24.7539 H   0  0  0  0  0  0
  -28.1148  -36.2654   24.6251 H   0  0  0  0  0  0
  -27.2327  -37.1358   25.8847 H   0  0  0  0  0  0
  -20.9321  -29.8646   21.6850 H   0  0  0  0  0  0
  -26.0203  -38.2868   24.1401 H   0  0  0  0  0  0
  -29.4131  -17.6713   23.1152 H   0  0  0  0  0  0
  -29.2121  -21.0921   19.5284 H   0  0  0  0  0  0
  -30.9880  -16.7604   19.8295 H   0  0  0  0  0  0
  -29.4742  -15.4333   22.1137 H   0  0  0  0  0  0
  -30.4932  -23.7859   21.7649 H   0  0  0  0  0  0
  -28.7425  -19.1960   24.7431 H   0  0  0  0  0  0
  -27.4414  -20.2122   24.1359 H   0  0  0  0  0  0
  -29.0332  -20.9011   24.4829 H   0  0  0  0  0  0
  -29.9593  -19.5962   17.9250 H   0  0  0  0  0  0
  -29.8319  -17.8673   18.2367 H   0  0  0  0  0  0
  -31.3319  -18.7299   18.6056 H   0  0  0  0  0  0
  -28.8690  -22.5110   22.8852 H   0  0  0  0  0  0
  -27.3595  -22.1619   22.1027 H   0  0  0  0  0  0
  -29.5105  -24.6827   18.9646 H   0  0  0  0  0  0
  -31.1394  -24.1385   19.2684 H   0  0  0  0  0  0
  -29.9020  -27.9721   19.6270 H   0  0  0  0  0  0
  -29.6851  -27.5246   21.3225 H   0  0  0  0  0  0
  1 25  1  0  0  0
  1 30  2  0  0  0
  1 78  1  0  0  0
  2  3  1  0  0  0
  2 25  1  0  0  0
  2 88  1  0  0  0
  2 89  1  0  0  0
  3  4  1  0  0  0
  3 90  1  0  0  0
  3 91  1  0  0  0
  4  5  1  0  0  0
  4 92  1  0  0  0
  4 93  1  0  0  0
  5  6  1  0  0  0
  5 26  1  0  0  0
  5 94  1  0  0  0
  6 25  1  0  0  0
  6 95  1  0  0  0
  6 96  1  0  0  0
  7  8  2  0  0  0
  7 26  1  0  0  0
  7 29  1  0  0  0
  8  9  1  0  0  0
  8 22  1  0  0  0
  9 10  1  0  0  0
  9 27  2  0  0  0
 10 11  2  0  0  0
 10 15  1  0  0  0
 11 12  1  0  0  0
 11 97  1  0  0  0
 12 13  2  0  0  0
 12 98  1  0  0  0
 13 14  1  0  0  0
 13 31  1  0  0  0
 14 15  2  0  0  0
 14 99  1  0  0  0
 15100  1  0  0  0
 16 17  2  0  0  0
 16 21  1  0  0  0
 16 31  1  0  0  0
 17 18  1  0  0  0
 17101  1  0  0  0
 18 19  2  0  0  0
 18102  1  0  0  0
 19 20  1  0  0  0
 19 24  1  0  0  0
 20 21  2  0  0  0
 20103  1  0  0  0
 21 23  1  0  0  0
 22 28  1  0  0  0
 22 32  2  0  0  0
 26 27  1  0  0  0
 28104  1  0  0  0
 28105  1  0  0  0
 29106  1  0  0  0
 29107  1  0  0  0
 33 34  1  0  0  0
 33 66  1  0  0  0
 33 70  2  0  0  0
 34 36  1  0  0  0
 34 59  1  0  0  0
 34108  1  0  0  0
 35 44  2  0  0  0
 35 45  1  0  0  0
 35 68  1  0  0  0
 36 56  1  0  0  0
 36109  1  0  0  0
 37 39  1  0  0  0
 37 47  1  0  0  0
 37 66  1  0  0  0
 37110  1  0  0  0
 38 43  2  0  0  0
 38 46  1  0  0  0
 38 47  1  0  0  0
 39 64  1  0  0  0
 39 67  2  0  0  0
 40 52  1  0  0  0
 40 53  2  0  0  0
 40 58  1  0  0  0
 41111  1  0  0  0
 41112  1  0  0  0
 41113  1  0  0  0
 41 48  1  0  0  0
 42 43  1  0  0  0
 42 66  1  0  0  0
 42114  1  0  0  0
 42115  1  0  0  0
 43 44  1  0  0  0
 44116  1  0  0  0
 45 46  2  0  0  0
 45117  1  0  0  0
 46118  1  0  0  0
 47119  1  0  0  0
 47120  1  0  0  0
 48 56  1  0  0  0
 48 65  1  0  0  0
 48121  1  0  0  0
 49 50  1  0  0  0
 49 53  1  0  0  0
 49 64  1  0  0  0
 49122  1  0  0  0
 50 51  1  0  0  0
 50123  1  0  0  0
 50124  1  0  0  0
 51 52  1  0  0  0
 51125  1  0  0  0
 51126  1  0  0  0
 52127  1  0  0  0
 52128  1  0  0  0
 53 54  1  0  0  0
 54 55  2  0  0  0
 54129  1  0  0  0
 55 57  1  0  0  0
 55130  1  0  0  0
 56 69  2  0  0  0
 57 58  2  0  0  0
 57131  1  0  0  0
 58132  1  0  0  0
 59 60  1  0  0  0
 59 61  1  0  0  0
 59 62  1  0  0  0
 60133  1  0  0  0
 60134  1  0  0  0
 60135  1  0  0  0
 61136  1  0  0  0
 61137  1  0  0  0
 61138  1  0  0  0
 62139  1  0  0  0
 62140  1  0  0  0
 62141  1  0  0  0
 63 65  1  0  0  0
 63142  1  0  0  0
 63143  1  0  0  0
 63144  1  0  0  0
 64145  1  0  0  0
 65146  1  0  0  0
 68 85  1  0  0  0
 71 73  2  0  0  0
 71 74  1  0  0  0
 71147  1  0  0  0
 72 75  2  0  0  0
 72 76  1  0  0  0
 72148  1  0  0  0
 73 75  1  0  0  0
 73 77  1  0  0  0
 74 76  2  0  0  0
 74 81  1  0  0  0
 75 82  1  0  0  0
 76 83  1  0  0  0
 77 78  2  0  0  0
 77149  1  0  0  0
 78150  1  0  0  0
 79 84  1  0  0  0
 79 86  2  0  0  0
 79151  1  0  0  0
 80 84  1  0  0  0
 80 85  1  0  0  0
 80 87  2  0  0  0
 81152  1  0  0  0
 81153  1  0  0  0
 81154  1  0  0  0
 82155  1  0  0  0
 82156  1  0  0  0
 82157  1  0  0  0
 83 86  1  0  0  0
 83158  1  0  0  0
 83159  1  0  0  0
 84160  1  0  0  0
 84161  1  0  0  0
 85162  1  0  0  0
 85163  1  0  0  0
M  ISO  4   1 100  68 101  78 100  85 101
M  END
> <chiral flag>
0

> <version>
0

> <s_m_source_file>
/data/baiqing/PycharmProjects/Reinvent-master-3.2/result/LINK_invent/BTK/process_docking_weight1_custom_product_contain_oxygen_bond_distance_aromatic_linkinvent_7_9_3/rearranged_h_0120.sdf

> <i_m_source_file_index>
53

> <r_mmod_Potential_Energy-OPLS-2005>
-50.3582382202148

> <r_mmod_Stretch_Energy-OPLS-2005>
37.3943405151367

> <r_mmod_Bend_Energy-OPLS-2005>
113.099029541016

> <r_mmod_Torsional_Energy-OPLS-2005>
186.681106567383

> <r_mmod_Improper_Torsional_Energy-OPLS-2005>
3.61684346199036

> <r_mmod_Van_der_Waal_Energy-OPLS-2005>
171.321655273438

> <r_mmod_Electrostatic_Energy-OPLS-2005>
-362.909790039062

> <r_mmod_Solvation_Energy-OPLS-2005>
-212.038116455078

> <b_mmod_Minimization_Converged-OPLS-2005>
0

> <r_mmod_RMS_Derivative-OPLS-2005>
5.12604188919067

$$$$
53
                    3D
 Structure written by MMmdl.
162170  0  0  1  0            999 V2000
  -30.6832  -14.5564   20.5540 C   0  0  0  0  0  0
  -30.4271  -12.3580   19.4494 C   0  0  0  0  0  0
  -29.5038  -12.5222   18.2219 C   0  0  0  0  0  0
  -28.0221  -12.3691   18.6199 C   0  0  0  0  0  0
  -27.6539  -13.2144   19.8682 C   0  0  2  0  0  0
  -28.6909  -13.0036   20.9894 C   0  0  0  0  0  0
  -25.2546  -13.8161   20.5654 C   0  0  0  0  0  0
  -24.1815  -13.0434   20.9169 C   0  0  0  0  0  0
  -24.6387  -11.6908   20.8731 C   0  0  0  0  0  0
  -23.9060  -10.4294   21.0402 C   0  0  0  0  0  0
  -24.3615   -9.4205   21.9176 C   0  0  0  0  0  0
  -23.6287   -8.2242   22.0755 C   0  0  0  0  0  0
  -22.4271   -8.0278   21.3545 C   0  0  0  0  0  0
  -21.9906   -9.0253   20.4645 C   0  0  0  0  0  0
  -22.7237  -10.2130   20.3057 C   0  0  0  0  0  0
  -21.6850   -6.0732   22.5285 C   0  0  0  0  0  0
  -21.4015   -6.5642   23.8218 C   0  0  0  0  0  0
  -21.3660   -5.6793   24.9179 C   0  0  0  0  0  0
  -21.6045   -4.3057   24.7228 C   0  0  0  0  0  0
  -21.8818   -3.8147   23.4351 C   0  0  0  0  0  0
  -21.9194   -4.6961   22.3405 C   0  0  0  0  0  0
  -22.7839  -13.5233   21.1833 C   0  0  0  0  0  0
  -22.1665   -4.2148   21.0979 F   0  0  0  0  0  0
  -21.5624   -3.4545   25.7739 F   0  0  0  0  0  0
  -30.0164  -13.3593   20.4554 N   0  0  0  0  0  0
  -26.2981  -12.9343   20.3309 N   0  0  0  0  0  0
  -25.9313  -11.6496   20.5734 N   0  0  0  0  0  0
  -22.0480  -12.8231   22.0393 N   0  0  0  0  0  0
  -25.4241  -15.1882   20.4053 N   0  0  0  0  0  0
  -31.8341  -14.6814   20.1180 O   0  0  0  0  0  0
  -21.6632   -6.8879   21.4251 O   0  0  0  0  0  0
  -22.3525  -14.5538   20.6681 O   0  0  0  0  0  0
  -24.6184  -31.8647   23.2073 C   0  0  0  0  0  0
  -25.9060  -32.4804   23.8383 C   0  0  1  0  0  0
  -27.2351  -27.3924   20.0875 C   0  0  0  0  0  0
  -25.5899  -33.8605   24.2311 N   0  0  0  0  0  0
  -23.4095  -30.4870   21.5487 C   0  0  2  0  0  0
  -24.8557  -28.9481   20.1137 C   0  0  0  0  0  0
  -22.7435  -29.4638   22.4976 C   0  0  0  0  0  0
  -18.0273  -28.1376   22.8490 C   0  0  0  0  0  0
  -24.1482  -36.7313   23.2639 C   0  0  0  0  0  0
  -25.9431  -30.8127   21.3695 C   0  0  0  0  0  0
  -26.0186  -29.4434   20.7168 C   0  0  0  0  0  0
  -27.2080  -28.6692   20.7103 C   0  0  0  0  0  0
  -26.0428  -26.9154   19.4976 C   0  0  0  0  0  0
  -24.8640  -27.6831   19.5035 C   0  0  0  0  0  0
  -23.6201  -29.8203   20.1634 C   0  0  0  0  0  0
  -25.4105  -36.3104   24.0335 C   0  0  1  0  0  0
  -20.5866  -28.3674   23.1308 C   0  0  2  0  0  0
  -20.6761  -26.9403   22.5418 C   0  0  0  0  0  0
  -19.5736  -26.6379   21.5212 C   0  0  0  0  0  0
  -18.1917  -26.7923   22.1620 C   0  0  0  0  0  0
  -19.1526  -28.8840   23.2892 C   0  0  0  0  0  0
  -18.9453  -30.1447   23.8902 C   0  0  0  0  0  0
  -17.6457  -30.6584   24.0560 C   0  0  0  0  0  0
  -25.9039  -34.9468   23.5126 C   0  0  0  0  0  0
  -16.5345  -29.9086   23.6323 C   0  0  0  0  0  0
  -16.7265  -28.6498   23.0351 C   0  0  0  0  0  0
  -26.4481  -31.6592   25.0723 C   0  0  0  0  0  0
  -25.3743  -31.3700   26.1471 C   0  0  0  0  0  0
  -27.0320  -30.3032   24.6126 C   0  0  0  0  0  0
  -27.6046  -32.4321   25.7481 C   0  0  0  0  0  0
  -27.5587  -37.1799   24.8458 C   0  0  0  0  0  0
  -21.4155  -29.3042   22.3722 N   0  0  0  0  0  0
  -26.4288  -37.3795   23.9417 N   0  0  0  0  0  0
  -24.6753  -31.0707   22.0996 N   0  0  0  0  0  0
  -23.4187  -28.8179   23.3032 O   0  0  0  0  0  0
  -28.3783  -26.6025   20.1035 O   0  0  0  0  0  0
  -26.5615  -34.8928   22.4696 O   0  0  0  0  0  0
  -23.5365  -32.1425   23.7433 O   0  0  0  0  0  0
  -30.4276  -17.0450   18.9539 C   0  0  0  0  0  0
  -30.2840  -19.4325   18.6039 C   0  0  0  0  0  0
  -29.9397  -17.1356   20.2840 C   0  0  0  0  0  0
  -29.4866  -18.4629   20.7152 C   0  0  0  0  0  0
  -29.6973  -19.6298   19.8773 C   0  0  0  0  0  0
  -30.6118  -18.1605   18.1377 C   0  0  0  0  0  0
  -29.1169  -24.4478   18.8733 C   0  0  0  0  0  0
  -29.1798  -23.4687   19.8144 C   0  0  0  0  0  0
  -29.9407  -15.8207   21.1195 C   0  0  0  0  0  0
  -26.6731  -20.0057   21.5361 C   0  0  0  0  0  0
  -28.7903  -18.6158   22.0898 C   0  0  0  0  0  0
  -28.7377  -25.9472   18.8702 C   0  0  0  0  0  0
  -29.6802  -22.0577   19.4230 C   0  0  0  0  0  0
  -27.9244  -19.8535   22.4192 C   0  0  0  0  0  0
  -29.4361  -15.7537   22.2787 N   0  0  0  0  0  0
  -29.3400  -20.9323   20.2750 O   0  0  0  0  0  0
  -31.1288  -18.0089   16.8952 F   0  0  0  0  0  0
  -31.4711  -12.4627   19.1502 H   0  0  0  0  0  0
  -30.3419  -11.3513   19.8610 H   0  0  0  0  0  0
  -29.7614  -11.7918   17.4545 H   0  0  0  0  0  0
  -29.6613  -13.5041   17.7734 H   0  0  0  0  0  0
  -27.8408  -11.3131   18.8214 H   0  0  0  0  0  0
  -27.3777  -12.6332   17.7818 H   0  0  0  0  0  0
  -27.6923  -14.2611   19.5667 H   0  0  0  0  0  0
  -28.6931  -11.9591   21.3028 H   0  0  0  0  0  0
  -28.4135  -13.5492   21.8870 H   0  0  0  0  0  0
  -25.2758   -9.5669   22.4747 H   0  0  0  0  0  0
  -23.9984   -7.4632   22.7480 H   0  0  0  0  0  0
  -21.0836   -8.8788   19.8949 H   0  0  0  0  0  0
  -22.3703  -10.9672   19.6168 H   0  0  0  0  0  0
  -21.2022   -7.6152   23.9725 H   0  0  0  0  0  0
  -21.1474   -6.0522   25.9079 H   0  0  0  0  0  0
  -22.0597   -2.7609   23.2856 H   0  0  0  0  0  0
  -22.4122  -11.9917   22.4800 H   0  0  0  0  0  0
  -21.1103  -13.1258   22.2607 H   0  0  0  0  0  0
  -24.6585  -15.8440   20.5116 H   0  0  0  0  0  0
  -26.2805  -15.6256   20.0928 H   0  0  0  0  0  0
  -26.7126  -32.5504   23.1139 H   0  0  0  0  0  0
  -25.0024  -33.9758   25.0438 H   0  0  0  0  0  0
  -22.7006  -31.3057   21.4079 H   0  0  0  0  0  0
  -23.3752  -35.9638   23.3281 H   0  0  0  0  0  0
  -24.3583  -36.8957   22.2061 H   0  0  0  0  0  0
  -23.7220  -37.6501   23.6677 H   0  0  0  0  0  0
  -26.0636  -31.5767   20.6004 H   0  0  0  0  0  0
  -26.8274  -30.8655   21.9925 H   0  0  0  0  0  0
  -28.1032  -29.0452   21.1846 H   0  0  0  0  0  0
  -26.0089  -25.9328   19.0485 H   0  0  0  0  0  0
  -23.9666  -27.2900   19.0449 H   0  0  0  0  0  0
  -23.7327  -30.5956   19.4048 H   0  0  0  0  0  0
  -22.7421  -29.2440   19.8648 H   0  0  0  0  0  0
  -25.1275  -36.1966   25.0828 H   0  0  0  0  0  0
  -20.9951  -28.3233   24.1430 H   0  0  0  0  0  0
  -20.5653  -26.2282   23.3610 H   0  0  0  0  0  0
  -21.6630  -26.7435   22.1220 H   0  0  0  0  0  0
  -19.6900  -25.6292   21.1237 H   0  0  0  0  0  0
  -19.6669  -27.3194   20.6746 H   0  0  0  0  0  0
  -17.4189  -26.6683   21.4017 H   0  0  0  0  0  0
  -18.0307  -26.0057   22.9006 H   0  0  0  0  0  0
  -19.7930  -30.7258   24.2271 H   0  0  0  0  0  0
  -17.5013  -31.6263   24.5159 H   0  0  0  0  0  0
  -15.5350  -30.2993   23.7634 H   0  0  0  0  0  0
  -15.8664  -28.0819   22.7067 H   0  0  0  0  0  0
  -24.5900  -30.7069   25.7805 H   0  0  0  0  0  0
  -24.8959  -32.2858   26.4953 H   0  0  0  0  0  0
  -25.8098  -30.8837   27.0211 H   0  0  0  0  0  0
  -26.2876  -29.6775   24.1188 H   0  0  0  0  0  0
  -27.4092  -29.7281   25.4596 H   0  0  0  0  0  0
  -27.8712  -30.4341   23.9287 H   0  0  0  0  0  0
  -27.2651  -33.3593   26.2114 H   0  0  0  0  0  0
  -28.3823  -32.6934   25.0288 H   0  0  0  0  0  0
  -28.0765  -31.8424   26.5354 H   0  0  0  0  0  0
  -28.2583  -38.0118   24.7548 H   0  0  0  0  0  0
  -28.1103  -36.2656   24.6222 H   0  0  0  0  0  0
  -27.2320  -37.1378   25.8863 H   0  0  0  0  0  0
  -20.9326  -29.8791   21.6962 H   0  0  0  0  0  0
  -26.0174  -38.2869   24.1442 H   0  0  0  0  0  0
  -30.7127  -16.1086   18.5027 H   0  0  0  0  0  0
  -30.4879  -20.2383   17.9195 H   0  0  0  0  0  0
  -29.4151  -24.1416   17.8796 H   0  0  0  0  0  0
  -28.9159  -23.6563   20.8456 H   0  0  0  0  0  0
  -26.1362  -20.9231   21.7798 H   0  0  0  0  0  0
  -25.9846  -19.1711   21.6795 H   0  0  0  0  0  0
  -26.9226  -20.0477   20.4760 H   0  0  0  0  0  0
  -29.5481  -18.5055   22.8678 H   0  0  0  0  0  0
  -28.0874  -17.7933   22.2015 H   0  0  0  0  0  0
  -27.9994  -26.0889   18.0816 H   0  0  0  0  0  0
  -29.6159  -26.4783   18.5021 H   0  0  0  0  0  0
  -30.7670  -22.1108   19.3489 H   0  0  0  0  0  0
  -29.2853  -21.8839   18.4215 H   0  0  0  0  0  0
  -27.5847  -19.7511   23.4508 H   0  0  0  0  0  0
  -28.5168  -20.7672   22.4327 H   0  0  0  0  0  0
  -29.0224  -16.6341   22.5514 H   0  0  0  0  0  0
  1 25  1  0  0  0
  1 30  2  0  0  0
  1 79  1  0  0  0
  2  3  1  0  0  0
  2 25  1  0  0  0
  2 88  1  0  0  0
  2 89  1  0  0  0
  3  4  1  0  0  0
  3 90  1  0  0  0
  3 91  1  0  0  0
  4  5  1  0  0  0
  4 92  1  0  0  0
  4 93  1  0  0  0
  5  6  1  0  0  0
  5 26  1  0  0  0
  5 94  1  0  0  0
  6 25  1  0  0  0
  6 95  1  0  0  0
  6 96  1  0  0  0
  7  8  2  0  0  0
  7 26  1  0  0  0
  7 29  1  0  0  0
  8  9  1  0  0  0
  8 22  1  0  0  0
  9 10  1  0  0  0
  9 27  2  0  0  0
 10 11  2  0  0  0
 10 15  1  0  0  0
 11 12  1  0  0  0
 11 97  1  0  0  0
 12 13  2  0  0  0
 12 98  1  0  0  0
 13 14  1  0  0  0
 13 31  1  0  0  0
 14 15  2  0  0  0
 14 99  1  0  0  0
 15100  1  0  0  0
 16 17  2  0  0  0
 16 21  1  0  0  0
 16 31  1  0  0  0
 17 18  1  0  0  0
 17101  1  0  0  0
 18 19  2  0  0  0
 18102  1  0  0  0
 19 20  1  0  0  0
 19 24  1  0  0  0
 20 21  2  0  0  0
 20103  1  0  0  0
 21 23  1  0  0  0
 22 28  1  0  0  0
 22 32  2  0  0  0
 26 27  1  0  0  0
 28104  1  0  0  0
 28105  1  0  0  0
 29106  1  0  0  0
 29107  1  0  0  0
 33 34  1  0  0  0
 33 66  1  0  0  0
 33 70  2  0  0  0
 34 36  1  0  0  0
 34 59  1  0  0  0
 34108  1  0  0  0
 35 44  2  0  0  0
 35 45  1  0  0  0
 35 68  1  0  0  0
 36 56  1  0  0  0
 36109  1  0  0  0
 37 39  1  0  0  0
 37 47  1  0  0  0
 37 66  1  0  0  0
 37110  1  0  0  0
 38 43  2  0  0  0
 38 46  1  0  0  0
 38 47  1  0  0  0
 39 64  1  0  0  0
 39 67  2  0  0  0
 40 52  1  0  0  0
 40 53  2  0  0  0
 40 58  1  0  0  0
 41111  1  0  0  0
 41112  1  0  0  0
 41113  1  0  0  0
 41 48  1  0  0  0
 42 43  1  0  0  0
 42 66  1  0  0  0
 42114  1  0  0  0
 42115  1  0  0  0
 43 44  1  0  0  0
 44116  1  0  0  0
 45 46  2  0  0  0
 45117  1  0  0  0
 46118  1  0  0  0
 47119  1  0  0  0
 47120  1  0  0  0
 48 56  1  0  0  0
 48 65  1  0  0  0
 48121  1  0  0  0
 49 50  1  0  0  0
 49 53  1  0  0  0
 49 64  1  0  0  0
 49122  1  0  0  0
 50 51  1  0  0  0
 50123  1  0  0  0
 50124  1  0  0  0
 51 52  1  0  0  0
 51125  1  0  0  0
 51126  1  0  0  0
 52127  1  0  0  0
 52128  1  0  0  0
 53 54  1  0  0  0
 54 55  2  0  0  0
 54129  1  0  0  0
 55 57  1  0  0  0
 55130  1  0  0  0
 56 69  2  0  0  0
 57 58  2  0  0  0
 57131  1  0  0  0
 58132  1  0  0  0
 59 60  1  0  0  0
 59 61  1  0  0  0
 59 62  1  0  0  0
 60133  1  0  0  0
 60134  1  0  0  0
 60135  1  0  0  0
 61136  1  0  0  0
 61137  1  0  0  0
 61138  1  0  0  0
 62139  1  0  0  0
 62140  1  0  0  0
 62141  1  0  0  0
 63 65  1  0  0  0
 63142  1  0  0  0
 63143  1  0  0  0
 63144  1  0  0  0
 64145  1  0  0  0
 65146  1  0  0  0
 68 82  1  0  0  0
 71 73  2  0  0  0
 71 76  1  0  0  0
 71147  1  0  0  0
 72 75  1  0  0  0
 72 76  2  0  0  0
 72148  1  0  0  0
 73 74  1  0  0  0
 73 79  1  0  0  0
 74 75  2  0  0  0
 74 81  1  0  0  0
 75 86  1  0  0  0
 76 87  1  0  0  0
 77 78  2  0  0  0
 77 82  1  0  0  0
 77149  1  0  0  0
 78 83  1  0  0  0
 78150  1  0  0  0
 79 85  2  0  0  0
 80 84  1  0  0  0
 80151  1  0  0  0
 80152  1  0  0  0
 80153  1  0  0  0
 81 84  1  0  0  0
 81154  1  0  0  0
 81155  1  0  0  0
 82156  1  0  0  0
 82157  1  0  0  0
 83 86  1  0  0  0
 83158  1  0  0  0
 83159  1  0  0  0
 84160  1  0  0  0
 84161  1  0  0  0
 85162  1  0  0  0
M  ISO  4   1 100  68 101  79 100  82 101
M  END
> <chiral flag>
0

> <version>
0

> <s_m_source_file>
/data/baiqing/PycharmProjects/Reinvent-master-3.2/result/LINK_invent/BTK/process_docking_weight1_custom_product_contain_oxygen_bond_distance_aromatic_linkinvent_7_9_3/rearranged_h_0120.sdf

> <i_m_source_file_index>
54

> <r_mmod_Potential_Energy-OPLS-2005>
246.193374633789

> <r_mmod_Stretch_Energy-OPLS-2005>
82.7165222167969

> <r_mmod_Bend_Energy-OPLS-2005>
165.511306762695

> <r_mmod_Torsional_Energy-OPLS-2005>
216.22053527832

> <r_mmod_Improper_Torsional_Energy-OPLS-2005>
3.37808966636658

> <r_mmod_Van_der_Waal_Energy-OPLS-2005>
184.669387817383

> <r_mmod_Electrostatic_Energy-OPLS-2005>
-240.084701538086

> <r_mmod_Solvation_Energy-OPLS-2005>
-189.418869018555

> <b_mmod_Minimization_Converged-OPLS-2005>
0

> <r_mmod_RMS_Derivative-OPLS-2005>
1.56322693824768

$$$$
54
                    3D
 Structure written by MMmdl.
161169  0  0  1  0            999 V2000
  -30.6810  -14.4802   20.5508 C   0  0  0  0  0  0
  -30.4300  -12.3028   19.4244 C   0  0  0  0  0  0
  -29.5031  -12.5077   18.2065 C   0  0  0  0  0  0
  -28.0223  -12.3667   18.6154 C   0  0  0  0  0  0
  -27.6672  -13.2051   19.8745 C   0  0  2  0  0  0
  -28.7069  -12.9726   20.9951 C   0  0  0  0  0  0
  -25.2624  -13.8162   20.5684 C   0  0  0  0  0  0
  -24.1870  -13.0428   20.9173 C   0  0  0  0  0  0
  -24.6426  -11.6902   20.8728 C   0  0  0  0  0  0
  -23.9080  -10.4289   21.0395 C   0  0  0  0  0  0
  -24.3627   -9.4197   21.9166 C   0  0  0  0  0  0
  -23.6294   -8.2242   22.0753 C   0  0  0  0  0  0
  -22.4268   -8.0289   21.3547 C   0  0  0  0  0  0
  -21.9907   -9.0268   20.4641 C   0  0  0  0  0  0
  -22.7257  -10.2141   20.3038 C   0  0  0  0  0  0
  -21.6855   -6.0730   22.5272 C   0  0  0  0  0  0
  -21.4004   -6.5633   23.8200 C   0  0  0  0  0  0
  -21.3666   -5.6787   24.9166 C   0  0  0  0  0  0
  -21.6055   -4.3054   24.7213 C   0  0  0  0  0  0
  -21.8827   -3.8141   23.4339 C   0  0  0  0  0  0
  -21.9194   -4.6959   22.3391 C   0  0  0  0  0  0
  -22.7895  -13.5232   21.1841 C   0  0  0  0  0  0
  -22.1668   -4.2147   21.0969 F   0  0  0  0  0  0
  -21.5641   -3.4533   25.7728 F   0  0  0  0  0  0
  -30.0424  -13.2811   20.4534 N   0  0  0  0  0  0
  -26.3059  -12.9334   20.3349 N   0  0  0  0  0  0
  -25.9353  -11.6488   20.5724 N   0  0  0  0  0  0
  -22.0527  -12.8224   22.0401 N   0  0  0  0  0  0
  -25.4334  -15.1879   20.4139 N   0  0  0  0  0  0
  -31.7850  -14.6982   20.0426 O   0  0  0  0  0  0
  -21.6644   -6.8882   21.4233 O   0  0  0  0  0  0
  -22.3580  -14.5543   20.6707 O   0  0  0  0  0  0
  -24.6172  -31.8675   23.2092 C   0  0  0  0  0  0
  -25.9063  -32.4813   23.8391 C   0  0  1  0  0  0
  -27.2254  -27.4043   20.0831 C   0  0  0  0  0  0
  -25.5904  -33.8608   24.2318 N   0  0  0  0  0  0
  -23.4029  -30.4922   21.5535 C   0  0  2  0  0  0
  -24.8453  -28.9560   20.1154 C   0  0  0  0  0  0
  -22.7407  -29.4661   22.5002 C   0  0  0  0  0  0
  -18.0258  -28.1371   22.8490 C   0  0  0  0  0  0
  -24.1479  -36.7308   23.2637 C   0  0  0  0  0  0
  -25.9363  -30.8202   21.3683 C   0  0  0  0  0  0
  -26.0094  -29.4535   20.7120 C   0  0  0  0  0  0
  -27.1988  -28.6827   20.6980 C   0  0  0  0  0  0
  -26.0326  -26.9249   19.4924 C   0  0  0  0  0  0
  -24.8530  -27.6910   19.5061 C   0  0  0  0  0  0
  -23.6102  -29.8280   20.1674 C   0  0  0  0  0  0
  -25.4101  -36.3103   24.0333 C   0  0  1  0  0  0
  -20.5848  -28.3659   23.1326 C   0  0  2  0  0  0
  -20.6749  -26.9402   22.5414 C   0  0  0  0  0  0
  -19.5735  -26.6388   21.5205 C   0  0  0  0  0  0
  -18.1913  -26.7913   22.1622 C   0  0  0  0  0  0
  -19.1506  -28.8828   23.2902 C   0  0  0  0  0  0
  -18.9439  -30.1430   23.8924 C   0  0  0  0  0  0
  -17.6446  -30.6587   24.0556 C   0  0  0  0  0  0
  -25.9036  -34.9467   23.5122 C   0  0  0  0  0  0
  -16.5336  -29.9090   23.6326 C   0  0  0  0  0  0
  -16.7246  -28.6496   23.0362 C   0  0  0  0  0  0
  -26.4472  -31.6590   25.0728 C   0  0  0  0  0  0
  -25.3721  -31.3714   26.1467 C   0  0  0  0  0  0
  -27.0311  -30.3022   24.6140 C   0  0  0  0  0  0
  -27.6057  -32.4297   25.7495 C   0  0  0  0  0  0
  -27.5571  -37.1807   24.8467 C   0  0  0  0  0  0
  -21.4133  -29.3031   22.3739 N   0  0  0  0  0  0
  -26.4287  -37.3790   23.9406 N   0  0  0  0  0  0
  -24.6708  -31.0735   22.1023 N   0  0  0  0  0  0
  -23.4183  -28.8222   23.3058 O   0  0  0  0  0  0
  -28.3998  -26.6658   20.0955 O   0  0  0  0  0  0
  -26.5603  -34.8921   22.4691 O   0  0  0  0  0  0
  -23.5359  -32.1453   23.7462 O   0  0  0  0  0  0
  -29.6843  -19.1944   21.3363 C   0  0  0  0  0  0
  -29.8711  -17.8477   21.7203 C   0  0  0  0  0  0
  -29.6906  -17.1834   19.4040 C   0  0  0  0  0  0
  -29.4825  -19.5833   19.9852 C   0  0  0  0  0  0
  -29.8901  -16.8253   20.7557 C   0  0  0  0  0  0
  -29.4752  -18.5357   19.0043 C   0  0  0  0  0  0
  -29.5648  -22.1396   20.6384 C   0  0  0  0  0  0
  -29.0463  -23.3921   20.7709 C   0  0  0  0  0  0
  -29.3079  -21.0593   19.6394 C   0  0  0  0  0  0
  -27.6538  -17.2743   16.7774 C   0  0  0  0  0  0
  -27.9887  -24.1489   19.9575 C   0  0  0  0  0  0
  -29.0643  -17.8736   16.6837 C   0  0  0  0  0  0
  -28.5077  -25.4631   19.3025 C   0  0  0  0  0  0
  -29.0020  -21.4326   18.4702 N   0  0  0  0  0  0
  -29.9889  -15.4581   21.1682 N   0  0  0  0  0  0
  -29.2631  -18.8758   17.6778 O   0  0  0  0  0  0
  -31.4771  -12.4005   19.1295 H   0  0  0  0  0  0
  -30.3243  -11.2902   19.8160 H   0  0  0  0  0  0
  -29.7469  -11.7831   17.4277 H   0  0  0  0  0  0
  -29.6738  -13.4938   17.7683 H   0  0  0  0  0  0
  -27.8370  -11.3102   18.8097 H   0  0  0  0  0  0
  -27.3714  -12.6380   17.7824 H   0  0  0  0  0  0
  -27.7151  -14.2546   19.5838 H   0  0  0  0  0  0
  -28.6802  -11.9311   21.3200 H   0  0  0  0  0  0
  -28.4655  -13.5596   21.8818 H   0  0  0  0  0  0
  -25.2790   -9.5675   22.4703 H   0  0  0  0  0  0
  -24.0013   -7.4635   22.7478 H   0  0  0  0  0  0
  -21.0839   -8.8789   19.8953 H   0  0  0  0  0  0
  -22.3731  -10.9663   19.6125 H   0  0  0  0  0  0
  -21.1978   -7.6136   23.9699 H   0  0  0  0  0  0
  -21.1489   -6.0514   25.9067 H   0  0  0  0  0  0
  -22.0601   -2.7602   23.2829 H   0  0  0  0  0  0
  -22.4158  -11.9906   22.4807 H   0  0  0  0  0  0
  -21.1122  -13.1217   22.2560 H   0  0  0  0  0  0
  -24.6698  -15.8434   20.5347 H   0  0  0  0  0  0
  -26.2931  -15.6318   20.1173 H   0  0  0  0  0  0
  -26.7132  -32.5508   23.1150 H   0  0  0  0  0  0
  -25.0041  -33.9778   25.0453 H   0  0  0  0  0  0
  -22.6925  -31.3102   21.4172 H   0  0  0  0  0  0
  -23.3735  -35.9649   23.3325 H   0  0  0  0  0  0
  -24.3567  -36.8904   22.2047 H   0  0  0  0  0  0
  -23.7236  -37.6523   23.6637 H   0  0  0  0  0  0
  -26.0495  -31.5885   20.6025 H   0  0  0  0  0  0
  -26.8236  -30.8701   21.9878 H   0  0  0  0  0  0
  -28.0971  -29.0634   21.1649 H   0  0  0  0  0  0
  -25.9825  -25.9531   19.0249 H   0  0  0  0  0  0
  -23.9546  -27.2987   19.0491 H   0  0  0  0  0  0
  -23.7213  -30.6084   19.4135 H   0  0  0  0  0  0
  -22.7313  -29.2536   19.8684 H   0  0  0  0  0  0
  -25.1270  -36.1965   25.0822 H   0  0  0  0  0  0
  -20.9904  -28.3207   24.1460 H   0  0  0  0  0  0
  -20.5647  -26.2265   23.3592 H   0  0  0  0  0  0
  -21.6625  -26.7467   22.1212 H   0  0  0  0  0  0
  -19.6921  -25.6308   21.1227 H   0  0  0  0  0  0
  -19.6672  -27.3210   20.6744 H   0  0  0  0  0  0
  -17.4175  -26.6642   21.4035 H   0  0  0  0  0  0
  -18.0344  -26.0054   22.9025 H   0  0  0  0  0  0
  -19.7921  -30.7218   24.2335 H   0  0  0  0  0  0
  -17.5016  -31.6285   24.5125 H   0  0  0  0  0  0
  -15.5344  -30.3010   23.7637 H   0  0  0  0  0  0
  -15.8640  -28.0819   22.7099 H   0  0  0  0  0  0
  -24.5902  -30.7054   25.7796 H   0  0  0  0  0  0
  -24.8899  -32.2880   26.4878 H   0  0  0  0  0  0
  -25.8055  -30.8908   27.0250 H   0  0  0  0  0  0
  -26.2890  -29.6791   24.1142 H   0  0  0  0  0  0
  -27.4008  -29.7240   25.4620 H   0  0  0  0  0  0
  -27.8751  -30.4319   23.9361 H   0  0  0  0  0  0
  -27.2696  -33.3591   26.2106 H   0  0  0  0  0  0
  -28.3864  -32.6861   25.0318 H   0  0  0  0  0  0
  -28.0743  -31.8398   26.5388 H   0  0  0  0  0  0
  -28.2599  -38.0093   24.7490 H   0  0  0  0  0  0
  -28.1054  -36.2622   24.6315 H   0  0  0  0  0  0
  -27.2291  -37.1478   25.8874 H   0  0  0  0  0  0
  -20.9288  -29.8741   21.6959 H   0  0  0  0  0  0
  -26.0180  -38.2872   24.1403 H   0  0  0  0  0  0
  -29.6820  -19.9303   22.1249 H   0  0  0  0  0  0
  -30.0063  -17.6116   22.7671 H   0  0  0  0  0  0
  -29.6779  -16.3851   18.6798 H   0  0  0  0  0  0
  -30.3052  -21.8563   21.3690 H   0  0  0  0  0  0
  -29.4368  -23.9676   21.5972 H   0  0  0  0  0  0
  -27.4978  -16.5335   15.9922 H   0  0  0  0  0  0
  -26.8948  -18.0477   16.6559 H   0  0  0  0  0  0
  -27.4782  -16.7805   17.7337 H   0  0  0  0  0  0
  -27.1407  -24.3715   20.6063 H   0  0  0  0  0  0
  -27.5930  -23.4956   19.1822 H   0  0  0  0  0  0
  -29.1761  -18.3606   15.7132 H   0  0  0  0  0  0
  -29.8396  -17.1082   16.7069 H   0  0  0  0  0  0
  -28.0300  -25.6137   18.3343 H   0  0  0  0  0  0
  -29.5612  -25.3330   19.0546 H   0  0  0  0  0  0
  -28.9063  -20.6125   17.8738 H   0  0  0  0  0  0
  -29.2530  -15.1378   21.7800 H   0  0  0  0  0  0
  1 25  1  0  0  0
  1 30  2  0  0  0
  1 85  1  0  0  0
  2  3  1  0  0  0
  2 25  1  0  0  0
  2 87  1  0  0  0
  2 88  1  0  0  0
  3  4  1  0  0  0
  3 89  1  0  0  0
  3 90  1  0  0  0
  4  5  1  0  0  0
  4 91  1  0  0  0
  4 92  1  0  0  0
  5  6  1  0  0  0
  5 26  1  0  0  0
  5 93  1  0  0  0
  6 25  1  0  0  0
  6 94  1  0  0  0
  6 95  1  0  0  0
  7  8  2  0  0  0
  7 26  1  0  0  0
  7 29  1  0  0  0
  8  9  1  0  0  0
  8 22  1  0  0  0
  9 10  1  0  0  0
  9 27  2  0  0  0
 10 11  2  0  0  0
 10 15  1  0  0  0
 11 12  1  0  0  0
 11 96  1  0  0  0
 12 13  2  0  0  0
 12 97  1  0  0  0
 13 14  1  0  0  0
 13 31  1  0  0  0
 14 15  2  0  0  0
 14 98  1  0  0  0
 15 99  1  0  0  0
 16 17  2  0  0  0
 16 21  1  0  0  0
 16 31  1  0  0  0
 17 18  1  0  0  0
 17100  1  0  0  0
 18 19  2  0  0  0
 18101  1  0  0  0
 19 20  1  0  0  0
 19 24  1  0  0  0
 20 21  2  0  0  0
 20102  1  0  0  0
 21 23  1  0  0  0
 22 28  1  0  0  0
 22 32  2  0  0  0
 26 27  1  0  0  0
 28103  1  0  0  0
 28104  1  0  0  0
 29105  1  0  0  0
 29106  1  0  0  0
 33 34  1  0  0  0
 33 66  1  0  0  0
 33 70  2  0  0  0
 34 36  1  0  0  0
 34 59  1  0  0  0
 34107  1  0  0  0
 35 44  2  0  0  0
 35 45  1  0  0  0
 35 68  1  0  0  0
 36 56  1  0  0  0
 36108  1  0  0  0
 37 39  1  0  0  0
 37 47  1  0  0  0
 37 66  1  0  0  0
 37109  1  0  0  0
 38 43  2  0  0  0
 38 46  1  0  0  0
 38 47  1  0  0  0
 39 64  1  0  0  0
 39 67  2  0  0  0
 40 52  1  0  0  0
 40 53  2  0  0  0
 40 58  1  0  0  0
 41110  1  0  0  0
 41111  1  0  0  0
 41112  1  0  0  0
 41 48  1  0  0  0
 42 43  1  0  0  0
 42 66  1  0  0  0
 42113  1  0  0  0
 42114  1  0  0  0
 43 44  1  0  0  0
 44115  1  0  0  0
 45 46  2  0  0  0
 45116  1  0  0  0
 46117  1  0  0  0
 47118  1  0  0  0
 47119  1  0  0  0
 48 56  1  0  0  0
 48 65  1  0  0  0
 48120  1  0  0  0
 49 50  1  0  0  0
 49 53  1  0  0  0
 49 64  1  0  0  0
 49121  1  0  0  0
 50 51  1  0  0  0
 50122  1  0  0  0
 50123  1  0  0  0
 51 52  1  0  0  0
 51124  1  0  0  0
 51125  1  0  0  0
 52126  1  0  0  0
 52127  1  0  0  0
 53 54  1  0  0  0
 54 55  2  0  0  0
 54128  1  0  0  0
 55 57  1  0  0  0
 55129  1  0  0  0
 56 69  2  0  0  0
 57 58  2  0  0  0
 57130  1  0  0  0
 58131  1  0  0  0
 59 60  1  0  0  0
 59 61  1  0  0  0
 59 62  1  0  0  0
 60132  1  0  0  0
 60133  1  0  0  0
 60134  1  0  0  0
 61135  1  0  0  0
 61136  1  0  0  0
 61137  1  0  0  0
 62138  1  0  0  0
 62139  1  0  0  0
 62140  1  0  0  0
 63 65  1  0  0  0
 63141  1  0  0  0
 63142  1  0  0  0
 63143  1  0  0  0
 64144  1  0  0  0
 65145  1  0  0  0
 68 83  1  0  0  0
 71 72  2  0  0  0
 71 74  1  0  0  0
 71146  1  0  0  0
 72 75  1  0  0  0
 72147  1  0  0  0
 73 75  2  0  0  0
 73 76  1  0  0  0
 73148  1  0  0  0
 74 76  2  0  0  0
 74 79  1  0  0  0
 75 85  1  0  0  0
 76 86  1  0  0  0
 77 78  2  0  0  0
 77 79  1  0  0  0
 77149  1  0  0  0
 78 81  1  0  0  0
 78150  1  0  0  0
 79 84  2  0  0  0
 80 82  1  0  0  0
 80151  1  0  0  0
 80152  1  0  0  0
 80153  1  0  0  0
 81 83  1  0  0  0
 81154  1  0  0  0
 81155  1  0  0  0
 82 86  1  0  0  0
 82156  1  0  0  0
 82157  1  0  0  0
 83158  1  0  0  0
 83159  1  0  0  0
 84160  1  0  0  0
 85161  1  0  0  0
M  ISO  4   1 100  68 101  83 101  85 100
M  END
> <chiral flag>
0

> <version>
0

> <s_m_source_file>
/data/baiqing/PycharmProjects/Reinvent-master-3.2/result/LINK_invent/BTK/process_docking_weight1_custom_product_contain_oxygen_bond_distance_aromatic_linkinvent_7_9_3/rearranged_h_0120.sdf

> <i_m_source_file_index>
55

> <r_mmod_Potential_Energy-OPLS-2005>
52.8451309204102

> <r_mmod_Stretch_Energy-OPLS-2005>
49.8401222229004

> <r_mmod_Bend_Energy-OPLS-2005>
131.571685791016

> <r_mmod_Torsional_Energy-OPLS-2005>
237.398529052734

> <r_mmod_Improper_Torsional_Energy-OPLS-2005>
4.36518287658691

> <r_mmod_Van_der_Waal_Energy-OPLS-2005>
166.861694335938

> <r_mmod_Electrostatic_Energy-OPLS-2005>
-331.958984375

> <r_mmod_Solvation_Energy-OPLS-2005>
-220.186401367188

> <b_mmod_Minimization_Converged-OPLS-2005>
0

> <r_mmod_RMS_Derivative-OPLS-2005>
2.55276966094971

$$$$
55
                    3D
 Structure written by MMmdl.
155163  0  0  1  0            999 V2000
  -30.6159  -14.7367   20.5797 C   0  0  0  0  0  0
  -30.4460  -12.4870   19.4584 C   0  0  0  0  0  0
  -29.5035  -12.5600   18.2347 C   0  0  0  0  0  0
  -28.0317  -12.3726   18.6528 C   0  0  0  0  0  0
  -27.6568  -13.2305   19.8923 C   0  0  2  0  0  0
  -28.7174  -13.0521   21.0080 C   0  0  0  0  0  0
  -25.2435  -13.8144   20.5514 C   0  0  0  0  0  0
  -24.1775  -13.0398   20.9166 C   0  0  0  0  0  0
  -24.6407  -11.6898   20.8795 C   0  0  0  0  0  0
  -23.9081  -10.4275   21.0428 C   0  0  0  0  0  0
  -24.3618   -9.4187   21.9208 C   0  0  0  0  0  0
  -23.6280   -8.2229   22.0770 C   0  0  0  0  0  0
  -22.4266   -8.0275   21.3554 C   0  0  0  0  0  0
  -21.9909   -9.0254   20.4653 C   0  0  0  0  0  0
  -22.7252  -10.2127   20.3069 C   0  0  0  0  0  0
  -21.6845   -6.0723   22.5277 C   0  0  0  0  0  0
  -21.4010   -6.5630   23.8212 C   0  0  0  0  0  0
  -21.3659   -5.6784   24.9177 C   0  0  0  0  0  0
  -21.6047   -4.3047   24.7229 C   0  0  0  0  0  0
  -21.8820   -3.8134   23.4353 C   0  0  0  0  0  0
  -21.9186   -4.6950   22.3408 C   0  0  0  0  0  0
  -22.7795  -13.5183   21.1829 C   0  0  0  0  0  0
  -22.1652   -4.2133   21.0985 F   0  0  0  0  0  0
  -21.5638   -3.4533   25.7743 F   0  0  0  0  0  0
  -30.0039  -13.4957   20.4593 N   0  0  0  0  0  0
  -26.3003  -12.9405   20.3491 N   0  0  0  0  0  0
  -25.9376  -11.6546   20.5921 N   0  0  0  0  0  0
  -22.0461  -12.8197   22.0422 N   0  0  0  0  0  0
  -25.3886  -15.1816   20.3495 N   0  0  0  0  0  0
  -31.6940  -14.9245   20.0022 O   0  0  0  0  0  0
  -21.6631   -6.8870   21.4242 O   0  0  0  0  0  0
  -22.3460  -14.5481   20.6675 O   0  0  0  0  0  0
  -24.6326  -31.8547   23.1994 C   0  0  0  0  0  0
  -25.9143  -32.4752   23.8347 C   0  0  1  0  0  0
  -27.2341  -27.2588   20.1220 C   0  0  0  0  0  0
  -25.5935  -33.8555   24.2264 N   0  0  0  0  0  0
  -23.4313  -30.4760   21.5439 C   0  0  2  0  0  0
  -24.8822  -28.9248   20.1129 C   0  0  0  0  0  0
  -22.7511  -29.4591   22.4925 C   0  0  0  0  0  0
  -18.0289  -28.1388   22.8482 C   0  0  0  0  0  0
  -24.1484  -36.7277   23.2644 C   0  0  0  0  0  0
  -25.9792  -30.7649   21.3830 C   0  0  0  0  0  0
  -26.0551  -29.3879   20.7229 C   0  0  0  0  0  0
  -27.2325  -28.5685   20.7175 C   0  0  0  0  0  0
  -26.0343  -26.8729   19.4767 C   0  0  0  0  0  0
  -24.8776  -27.6748   19.4798 C   0  0  0  0  0  0
  -23.6511  -29.8091   20.1616 C   0  0  0  0  0  0
  -25.4115  -36.3065   24.0327 C   0  0  1  0  0  0
  -20.5895  -28.3701   23.1266 C   0  0  2  0  0  0
  -20.6780  -26.9422   22.5405 C   0  0  0  0  0  0
  -19.5757  -26.6388   21.5205 C   0  0  0  0  0  0
  -18.1934  -26.7932   22.1613 C   0  0  0  0  0  0
  -19.1547  -28.8859   23.2864 C   0  0  0  0  0  0
  -18.9460  -30.1458   23.8884 C   0  0  0  0  0  0
  -17.6466  -30.6594   24.0549 C   0  0  0  0  0  0
  -25.9054  -34.9434   23.5099 C   0  0  0  0  0  0
  -16.5353  -29.9086   23.6340 C   0  0  0  0  0  0
  -16.7280  -28.6500   23.0367 C   0  0  0  0  0  0
  -26.4514  -31.6583   25.0735 C   0  0  0  0  0  0
  -25.3730  -31.3706   26.1437 C   0  0  0  0  0  0
  -27.0394  -30.3004   24.6240 C   0  0  0  0  0  0
  -27.6060  -32.4346   25.7501 C   0  0  0  0  0  0
  -27.5585  -37.1787   24.8470 C   0  0  0  0  0  0
  -21.4218  -29.3042   22.3656 N   0  0  0  0  0  0
  -26.4290  -37.3765   23.9417 N   0  0  0  0  0  0
  -24.7002  -31.0492   22.0988 N   0  0  0  0  0  0
  -23.4197  -28.8133   23.3035 O   0  0  0  0  0  0
  -28.3235  -26.3482   20.1841 O   0  0  0  0  0  0
  -26.5633  -34.8910   22.4673 O   0  0  0  0  0  0
  -23.5467  -32.1386   23.7260 O   0  0  0  0  0  0
  -27.1363  -18.4028   21.6040 C   0  0  0  0  0  0
  -27.6514  -19.6001   21.1080 C   0  0  0  0  0  0
  -29.7860  -18.4801   20.8083 C   0  0  0  0  0  0
  -27.9222  -17.2440   21.7631 C   0  0  0  0  0  0
  -29.2722  -17.1829   21.2775 C   0  0  0  0  0  0
  -29.0103  -19.7299   20.7641 C   0  0  0  0  0  0
  -26.5057  -16.4025   23.6579 C   0  0  0  0  0  0
  -27.2929  -16.1925   22.5874 C   0  0  0  0  0  0
  -30.0972  -15.8658   21.6019 C   0  0  0  0  0  0
  -29.0793  -23.7328   20.3100 C   0  0  0  0  0  0
  -28.5514  -22.2230   20.4731 C   0  0  0  0  0  0
  -28.0216  -24.8873   19.9485 C   0  0  0  0  0  0
  -30.4057  -15.6827   22.8198 N   0  0  0  0  0  0
  -30.2763  -24.0007   20.4628 O   0  0  0  0  0  0
  -29.4983  -21.0451   20.4496 O   0  0  0  0  0  0
  -31.4781  -12.6420   19.1407 H   0  0  0  0  0  0
  -30.4309  -11.4862   19.8930 H   0  0  0  0  0  0
  -29.7819  -11.8081   17.4951 H   0  0  0  0  0  0
  -29.6208  -13.5280   17.7453 H   0  0  0  0  0  0
  -27.8835  -11.3160   18.8809 H   0  0  0  0  0  0
  -27.3672  -12.5978   17.8177 H   0  0  0  0  0  0
  -27.6783  -14.2733   19.5754 H   0  0  0  0  0  0
  -28.7710  -11.9996   21.2912 H   0  0  0  0  0  0
  -28.4892  -13.5533   21.9383 H   0  0  0  0  0  0
  -25.2756   -9.5656   22.4793 H   0  0  0  0  0  0
  -23.9979   -7.4619   22.7493 H   0  0  0  0  0  0
  -21.0842   -8.8782   19.8950 H   0  0  0  0  0  0
  -22.3719  -10.9671   19.6178 H   0  0  0  0  0  0
  -21.2002   -7.6137   23.9713 H   0  0  0  0  0  0
  -21.1485   -6.0511   25.9078 H   0  0  0  0  0  0
  -22.0602   -2.7592   23.2858 H   0  0  0  0  0  0
  -22.4064  -11.9862   22.4820 H   0  0  0  0  0  0
  -21.1092  -13.1255   22.2652 H   0  0  0  0  0  0
  -24.6161  -15.8253   20.4736 H   0  0  0  0  0  0
  -26.2432  -15.6425   20.0678 H   0  0  0  0  0  0
  -26.7203  -32.5404   23.1086 H   0  0  0  0  0  0
  -25.0064  -33.9691   25.0400 H   0  0  0  0  0  0
  -22.7278  -31.2978   21.3971 H   0  0  0  0  0  0
  -23.3747  -35.9610   23.3308 H   0  0  0  0  0  0
  -24.3566  -36.8912   22.2059 H   0  0  0  0  0  0
  -23.7236  -37.6475   23.6676 H   0  0  0  0  0  0
  -26.1204  -31.5246   20.6126 H   0  0  0  0  0  0
  -26.8546  -30.8140   22.0189 H   0  0  0  0  0  0
  -28.1288  -28.9187   21.2122 H   0  0  0  0  0  0
  -25.9519  -25.9244   18.9688 H   0  0  0  0  0  0
  -23.9813  -27.3151   18.9928 H   0  0  0  0  0  0
  -23.7733  -30.5847   19.4054 H   0  0  0  0  0  0
  -22.7703  -29.2399   19.8585 H   0  0  0  0  0  0
  -25.1291  -36.1917   25.0820 H   0  0  0  0  0  0
  -20.9971  -28.3284   24.1391 H   0  0  0  0  0  0
  -20.5695  -26.2309   23.3606 H   0  0  0  0  0  0
  -21.6651  -26.7460   22.1190 H   0  0  0  0  0  0
  -19.6916  -25.6294   21.1255 H   0  0  0  0  0  0
  -19.6693  -27.3175   20.6719 H   0  0  0  0  0  0
  -17.4209  -26.6675   21.4015 H   0  0  0  0  0  0
  -18.0326  -26.0076   22.9007 H   0  0  0  0  0  0
  -19.7936  -30.7270   24.2263 H   0  0  0  0  0  0
  -17.5021  -31.6277   24.5145 H   0  0  0  0  0  0
  -15.5349  -30.2978   23.7687 H   0  0  0  0  0  0
  -15.8673  -28.0816   22.7103 H   0  0  0  0  0  0
  -24.5921  -30.7051   25.7747 H   0  0  0  0  0  0
  -24.8883  -32.2850   26.4866 H   0  0  0  0  0  0
  -25.8030  -30.8878   27.0220 H   0  0  0  0  0  0
  -26.2995  -29.6705   24.1284 H   0  0  0  0  0  0
  -27.4108  -29.7316   25.4778 H   0  0  0  0  0  0
  -27.8856  -30.4302   23.9486 H   0  0  0  0  0  0
  -27.2687  -33.3684   26.2022 H   0  0  0  0  0  0
  -28.3879  -32.6860   25.0321 H   0  0  0  0  0  0
  -28.0716  -31.8513   26.5456 H   0  0  0  0  0  0
  -28.2582  -38.0105   24.7546 H   0  0  0  0  0  0
  -28.1104  -36.2636   24.6266 H   0  0  0  0  0  0
  -27.2300  -37.1396   25.8871 H   0  0  0  0  0  0
  -20.9416  -29.8759   21.6846 H   0  0  0  0  0  0
  -26.0171  -38.2840   24.1424 H   0  0  0  0  0  0
  -26.1052  -18.4036   21.9294 H   0  0  0  0  0  0
  -26.9611  -20.4285   21.0751 H   0  0  0  0  0  0
  -30.8329  -18.5318   20.5467 H   0  0  0  0  0  0
  -26.0656  -15.5721   24.1907 H   0  0  0  0  0  0
  -26.2853  -17.3945   24.0264 H   0  0  0  0  0  0
  -27.4384  -15.1787   22.2876 H   0  0  0  0  0  0
  -27.7909  -22.0636   19.7081 H   0  0  0  0  0  0
  -28.0344  -22.2197   21.4323 H   0  0  0  0  0  0
  -27.1007  -24.6356   20.4745 H   0  0  0  0  0  0
  -27.8151  -24.7692   18.8847 H   0  0  0  0  0  0
  -30.0464  -16.4319   23.3994 H   0  0  0  0  0  0
  1 25  1  0  0  0
  1 30  2  0  0  0
  1 79  1  0  0  0
  2  3  1  0  0  0
  2 25  1  0  0  0
  2 86  1  0  0  0
  2 87  1  0  0  0
  3  4  1  0  0  0
  3 88  1  0  0  0
  3 89  1  0  0  0
  4  5  1  0  0  0
  4 90  1  0  0  0
  4 91  1  0  0  0
  5  6  1  0  0  0
  5 26  1  0  0  0
  5 92  1  0  0  0
  6 25  1  0  0  0
  6 93  1  0  0  0
  6 94  1  0  0  0
  7  8  2  0  0  0
  7 26  1  0  0  0
  7 29  1  0  0  0
  8  9  1  0  0  0
  8 22  1  0  0  0
  9 10  1  0  0  0
  9 27  2  0  0  0
 10 11  2  0  0  0
 10 15  1  0  0  0
 11 12  1  0  0  0
 11 95  1  0  0  0
 12 13  2  0  0  0
 12 96  1  0  0  0
 13 14  1  0  0  0
 13 31  1  0  0  0
 14 15  2  0  0  0
 14 97  1  0  0  0
 15 98  1  0  0  0
 16 17  2  0  0  0
 16 21  1  0  0  0
 16 31  1  0  0  0
 17 18  1  0  0  0
 17 99  1  0  0  0
 18 19  2  0  0  0
 18100  1  0  0  0
 19 20  1  0  0  0
 19 24  1  0  0  0
 20 21  2  0  0  0
 20101  1  0  0  0
 21 23  1  0  0  0
 22 28  1  0  0  0
 22 32  2  0  0  0
 26 27  1  0  0  0
 28102  1  0  0  0
 28103  1  0  0  0
 29104  1  0  0  0
 29105  1  0  0  0
 33 34  1  0  0  0
 33 66  1  0  0  0
 33 70  2  0  0  0
 34 36  1  0  0  0
 34 59  1  0  0  0
 34106  1  0  0  0
 35 44  2  0  0  0
 35 45  1  0  0  0
 35 68  1  0  0  0
 36 56  1  0  0  0
 36107  1  0  0  0
 37 39  1  0  0  0
 37 47  1  0  0  0
 37 66  1  0  0  0
 37108  1  0  0  0
 38 43  2  0  0  0
 38 46  1  0  0  0
 38 47  1  0  0  0
 39 64  1  0  0  0
 39 67  2  0  0  0
 40 52  1  0  0  0
 40 53  2  0  0  0
 40 58  1  0  0  0
 41109  1  0  0  0
 41110  1  0  0  0
 41111  1  0  0  0
 41 48  1  0  0  0
 42 43  1  0  0  0
 42 66  1  0  0  0
 42112  1  0  0  0
 42113  1  0  0  0
 43 44  1  0  0  0
 44114  1  0  0  0
 45 46  2  0  0  0
 45115  1  0  0  0
 46116  1  0  0  0
 47117  1  0  0  0
 47118  1  0  0  0
 48 56  1  0  0  0
 48 65  1  0  0  0
 48119  1  0  0  0
 49 50  1  0  0  0
 49 53  1  0  0  0
 49 64  1  0  0  0
 49120  1  0  0  0
 50 51  1  0  0  0
 50121  1  0  0  0
 50122  1  0  0  0
 51 52  1  0  0  0
 51123  1  0  0  0
 51124  1  0  0  0
 52125  1  0  0  0
 52126  1  0  0  0
 53 54  1  0  0  0
 54 55  2  0  0  0
 54127  1  0  0  0
 55 57  1  0  0  0
 55128  1  0  0  0
 56 69  2  0  0  0
 57 58  2  0  0  0
 57129  1  0  0  0
 58130  1  0  0  0
 59 60  1  0  0  0
 59 61  1  0  0  0
 59 62  1  0  0  0
 60131  1  0  0  0
 60132  1  0  0  0
 60133  1  0  0  0
 61134  1  0  0  0
 61135  1  0  0  0
 61136  1  0  0  0
 62137  1  0  0  0
 62138  1  0  0  0
 62139  1  0  0  0
 63 65  1  0  0  0
 63140  1  0  0  0
 63141  1  0  0  0
 63142  1  0  0  0
 64143  1  0  0  0
 65144  1  0  0  0
 68 82  1  0  0  0
 71 72  2  0  0  0
 71 74  1  0  0  0
 71145  1  0  0  0
 72 76  1  0  0  0
 72146  1  0  0  0
 73 75  1  0  0  0
 73 76  2  0  0  0
 73147  1  0  0  0
 74 75  2  0  0  0
 74 78  1  0  0  0
 75 79  1  0  0  0
 76 85  1  0  0  0
 77 78  2  0  0  0
 77148  1  0  0  0
 77149  1  0  0  0
 78150  1  0  0  0
 79 83  2  0  0  0
 80 81  1  0  0  0
 80 82  1  0  0  0
 80 84  2  0  0  0
 81 85  1  0  0  0
 81151  1  0  0  0
 81152  1  0  0  0
 82153  1  0  0  0
 82154  1  0  0  0
 83155  1  0  0  0
M  ISO  4   1 100  68 101  79 100  82 101
M  END
> <chiral flag>
0

> <version>
0

> <s_m_source_file>
/data/baiqing/PycharmProjects/Reinvent-master-3.2/result/LINK_invent/BTK/process_docking_weight1_custom_product_contain_oxygen_bond_distance_aromatic_linkinvent_7_9_3/rearranged_h_0120.sdf

> <i_m_source_file_index>
56

> <r_mmod_Potential_Energy-OPLS-2005>
452.953643798828

> <r_mmod_Stretch_Energy-OPLS-2005>
165.125854492188

> <r_mmod_Bend_Energy-OPLS-2005>
214.975433349609

> <r_mmod_Torsional_Energy-OPLS-2005>
249.058212280273

> <r_mmod_Improper_Torsional_Energy-OPLS-2005>
7.11676740646362

> <r_mmod_Van_der_Waal_Energy-OPLS-2005>
153.723983764648

> <r_mmod_Electrostatic_Energy-OPLS-2005>
-184.602890014648

> <r_mmod_Solvation_Energy-OPLS-2005>
-235.201507568359

> <b_mmod_Minimization_Converged-OPLS-2005>
0

> <r_mmod_RMS_Derivative-OPLS-2005>
1.36232924461365

$$$$
56
                    3D
 Structure written by MMmdl.
156164  0  0  1  0            999 V2000
  -30.6534  -14.5340   20.4843 C   0  0  0  0  0  0
  -30.4315  -12.3174   19.4381 C   0  0  0  0  0  0
  -29.5018  -12.4889   18.2146 C   0  0  0  0  0  0
  -28.0202  -12.3390   18.6208 C   0  0  0  0  0  0
  -27.6539  -13.1940   19.8614 C   0  0  2  0  0  0
  -28.7000  -13.0013   20.9852 C   0  0  0  0  0  0
  -25.2561  -13.8091   20.5689 C   0  0  0  0  0  0
  -24.1809  -13.0388   20.9175 C   0  0  0  0  0  0
  -24.6361  -11.6863   20.8725 C   0  0  0  0  0  0
  -23.9033  -10.4265   21.0401 C   0  0  0  0  0  0
  -24.3598   -9.4191   21.9180 C   0  0  0  0  0  0
  -23.6279   -8.2227   22.0754 C   0  0  0  0  0  0
  -22.4260   -8.0265   21.3545 C   0  0  0  0  0  0
  -21.9887   -9.0235   20.4646 C   0  0  0  0  0  0
  -22.7209  -10.2114   20.3050 C   0  0  0  0  0  0
  -21.6852   -6.0723   22.5281 C   0  0  0  0  0  0
  -21.4011   -6.5631   23.8211 C   0  0  0  0  0  0
  -21.3657   -5.6789   24.9175 C   0  0  0  0  0  0
  -21.6047   -4.3051   24.7232 C   0  0  0  0  0  0
  -21.8823   -3.8140   23.4354 C   0  0  0  0  0  0
  -21.9195   -4.6952   22.3407 C   0  0  0  0  0  0
  -22.7844  -13.5212   21.1856 C   0  0  0  0  0  0
  -22.1665   -4.2134   21.0987 F   0  0  0  0  0  0
  -21.5631   -3.4538   25.7746 F   0  0  0  0  0  0
  -30.0300  -13.3193   20.4393 N   0  0  0  0  0  0
  -26.2978  -12.9246   20.3304 N   0  0  0  0  0  0
  -25.9277  -11.6423   20.5731 N   0  0  0  0  0  0
  -22.0491  -12.8211   22.0420 N   0  0  0  0  0  0
  -25.4255  -15.1805   20.4182 N   0  0  0  0  0  0
  -31.8391  -14.6668   20.1669 O   0  0  0  0  0  0
  -21.6635   -6.8860   21.4239 O   0  0  0  0  0  0
  -22.3537  -14.5529   20.6716 O   0  0  0  0  0  0
  -24.6153  -31.8672   23.2093 C   0  0  0  0  0  0
  -25.9043  -32.4816   23.8391 C   0  0  1  0  0  0
  -27.2402  -27.4204   20.0868 C   0  0  0  0  0  0
  -25.5896  -33.8617   24.2323 N   0  0  0  0  0  0
  -23.4034  -30.4908   21.5507 C   0  0  2  0  0  0
  -24.8484  -28.9539   20.1166 C   0  0  0  0  0  0
  -22.7413  -29.4656   22.4992 C   0  0  0  0  0  0
  -18.0272  -28.1372   22.8492 C   0  0  0  0  0  0
  -24.1486  -36.7313   23.2640 C   0  0  0  0  0  0
  -25.9339  -30.8266   21.3651 C   0  0  0  0  0  0
  -26.0089  -29.4594   20.7125 C   0  0  0  0  0  0
  -27.2016  -28.6986   20.6972 C   0  0  0  0  0  0
  -26.0478  -26.9248   19.5046 C   0  0  0  0  0  0
  -24.8631  -27.6855   19.5143 C   0  0  0  0  0  0
  -23.6119  -29.8229   20.1656 C   0  0  0  0  0  0
  -25.4109  -36.3110   24.0337 C   0  0  1  0  0  0
  -20.5863  -28.3662   23.1319 C   0  0  2  0  0  0
  -20.6762  -26.9399   22.5420 C   0  0  0  0  0  0
  -19.5744  -26.6387   21.5211 C   0  0  0  0  0  0
  -18.1922  -26.7919   22.1621 C   0  0  0  0  0  0
  -19.1520  -28.8833   23.2902 C   0  0  0  0  0  0
  -18.9447  -30.1438   23.8914 C   0  0  0  0  0  0
  -17.6450  -30.6579   24.0564 C   0  0  0  0  0  0
  -25.9036  -34.9474   23.5129 C   0  0  0  0  0  0
  -16.5343  -29.9081   23.6323 C   0  0  0  0  0  0
  -16.7261  -28.6496   23.0350 C   0  0  0  0  0  0
  -26.4469  -31.6598   25.0723 C   0  0  0  0  0  0
  -25.3736  -31.3705   26.1473 C   0  0  0  0  0  0
  -27.0300  -30.3040   24.6100 C   0  0  0  0  0  0
  -27.6047  -32.4320   25.7482 C   0  0  0  0  0  0
  -27.5581  -37.1813   24.8467 C   0  0  0  0  0  0
  -21.4142  -29.3030   22.3730 N   0  0  0  0  0  0
  -26.4297  -37.3793   23.9406 N   0  0  0  0  0  0
  -24.6691  -31.0765   22.0996 N   0  0  0  0  0  0
  -23.4186  -28.8199   23.3036 O   0  0  0  0  0  0
  -28.4380  -26.7217   20.1021 O   0  0  0  0  0  0
  -26.5602  -34.8925   22.4694 O   0  0  0  0  0  0
  -23.5343  -32.1431   23.7480 O   0  0  0  0  0  0
  -27.8018  -17.7478   19.6976 C   0  0  0  0  0  0
  -26.8588  -18.7518   19.4513 C   0  0  0  0  0  0
  -29.4297  -19.4388   20.2836 C   0  0  0  0  0  0
  -29.1109  -18.0660   20.0987 C   0  0  0  0  0  0
  -27.1801  -20.1188   19.5809 C   0  0  0  0  0  0
  -28.4930  -20.4877   20.0326 C   0  0  0  0  0  0
  -24.8123  -20.9171   19.6440 C   0  0  0  0  0  0
  -30.0853  -16.9500   20.2572 C   0  0  0  0  0  0
  -26.0838  -21.0405   19.2272 C   0  0  0  0  0  0
  -29.7441  -15.6842   20.6149 C   0  0  0  0  0  0
  -28.8312  -24.2726   20.2898 C   0  0  0  0  0  0
  -28.5908  -25.4885   19.3664 C   0  0  0  0  0  0
  -28.2062  -22.9345   19.8517 C   0  0  0  0  0  0
  -29.4890  -24.3703   21.3329 O   0  0  0  0  0  0
  -28.9575  -21.7825   20.2785 O   0  0  0  0  0  0
  -31.4754  -12.4219   19.1380 H   0  0  0  0  0  0
  -30.3398  -11.3118   19.8513 H   0  0  0  0  0  0
  -29.7522  -11.7556   17.4470 H   0  0  0  0  0  0
  -29.6612  -13.4694   17.7633 H   0  0  0  0  0  0
  -27.8407  -11.2846   18.8334 H   0  0  0  0  0  0
  -27.3708  -12.5935   17.7826 H   0  0  0  0  0  0
  -27.6762  -14.2285   19.5249 H   0  0  0  0  0  0
  -28.6866  -11.9684   21.3361 H   0  0  0  0  0  0
  -28.4644  -13.6031   21.8638 H   0  0  0  0  0  0
  -25.2746   -9.5677   22.4746 H   0  0  0  0  0  0
  -23.9997   -7.4622   22.7468 H   0  0  0  0  0  0
  -21.0821   -8.8747   19.8952 H   0  0  0  0  0  0
  -22.3668  -10.9652   19.6158 H   0  0  0  0  0  0
  -21.1999   -7.6140   23.9707 H   0  0  0  0  0  0
  -21.1476   -6.0521   25.9075 H   0  0  0  0  0  0
  -22.0604   -2.7600   23.2864 H   0  0  0  0  0  0
  -22.4103  -11.9859   22.4789 H   0  0  0  0  0  0
  -21.1114  -13.1241   22.2647 H   0  0  0  0  0  0
  -24.6628  -15.8360   20.5477 H   0  0  0  0  0  0
  -26.2909  -15.6256   20.1510 H   0  0  0  0  0  0
  -26.7113  -32.5523   23.1153 H   0  0  0  0  0  0
  -25.0045  -33.9780   25.0465 H   0  0  0  0  0  0
  -22.6922  -31.3076   21.4116 H   0  0  0  0  0  0
  -23.3741  -35.9653   23.3318 H   0  0  0  0  0  0
  -24.3579  -36.8912   22.2052 H   0  0  0  0  0  0
  -23.7244  -37.6526   23.6643 H   0  0  0  0  0  0
  -26.0493  -31.5913   20.5957 H   0  0  0  0  0  0
  -26.8209  -30.8790   21.9846 H   0  0  0  0  0  0
  -28.0981  -29.0909   21.1566 H   0  0  0  0  0  0
  -25.9855  -25.9507   19.0470 H   0  0  0  0  0  0
  -23.9658  -27.2856   19.0620 H   0  0  0  0  0  0
  -23.7216  -30.5973   19.4056 H   0  0  0  0  0  0
  -22.7348  -29.2445   19.8699 H   0  0  0  0  0  0
  -25.1284  -36.1981   25.0831 H   0  0  0  0  0  0
  -20.9952  -28.3225   24.1439 H   0  0  0  0  0  0
  -20.5660  -26.2269   23.3607 H   0  0  0  0  0  0
  -21.6635  -26.7442   22.1216 H   0  0  0  0  0  0
  -19.6910  -25.6304   21.1222 H   0  0  0  0  0  0
  -19.6682  -27.3213   20.6753 H   0  0  0  0  0  0
  -17.4195  -26.6668   21.4020 H   0  0  0  0  0  0
  -18.0322  -26.0054   22.9009 H   0  0  0  0  0  0
  -19.7925  -30.7245   24.2297 H   0  0  0  0  0  0
  -17.5008  -31.6262   24.5160 H   0  0  0  0  0  0
  -15.5343  -30.2990   23.7634 H   0  0  0  0  0  0
  -15.8661  -28.0817   22.7061 H   0  0  0  0  0  0
  -24.5903  -30.7057   25.7811 H   0  0  0  0  0  0
  -24.8931  -32.2860   26.4935 H   0  0  0  0  0  0
  -25.8090  -30.8863   27.0222 H   0  0  0  0  0  0
  -26.2842  -29.6806   24.1149 H   0  0  0  0  0  0
  -27.4067  -29.7272   25.4556 H   0  0  0  0  0  0
  -27.8679  -30.4362   23.9249 H   0  0  0  0  0  0
  -27.2663  -33.3606   26.2092 H   0  0  0  0  0  0
  -28.3834  -32.6905   25.0294 H   0  0  0  0  0  0
  -28.0737  -31.8424   26.5370 H   0  0  0  0  0  0
  -28.2613  -38.0096   24.7501 H   0  0  0  0  0  0
  -28.1060  -36.2628   24.6308 H   0  0  0  0  0  0
  -27.2297  -37.1484   25.8872 H   0  0  0  0  0  0
  -20.9305  -29.8754   21.6952 H   0  0  0  0  0  0
  -26.0186  -38.2874   24.1395 H   0  0  0  0  0  0
  -27.5177  -16.7250   19.5108 H   0  0  0  0  0  0
  -25.8761  -18.4557   19.1113 H   0  0  0  0  0  0
  -30.4267  -19.7011   20.6072 H   0  0  0  0  0  0
  -24.0514  -21.6128   19.3194 H   0  0  0  0  0  0
  -24.5089  -20.1243   20.3137 H   0  0  0  0  0  0
  -31.1056  -17.1664   19.9701 H   0  0  0  0  0  0
  -26.3099  -21.8405   18.5395 H   0  0  0  0  0  0
  -28.7336  -15.5352   20.9532 H   0  0  0  0  0  0
  -27.7928  -25.2755   18.6613 H   0  0  0  0  0  0
  -29.4843  -25.5965   18.7516 H   0  0  0  0  0  0
  -28.1134  -22.9322   18.7658 H   0  0  0  0  0  0
  -27.2141  -22.9221   20.2988 H   0  0  0  0  0  0
  1 25  1  0  0  0
  1 30  2  0  0  0
  1 80  1  0  0  0
  2  3  1  0  0  0
  2 25  1  0  0  0
  2 86  1  0  0  0
  2 87  1  0  0  0
  3  4  1  0  0  0
  3 88  1  0  0  0
  3 89  1  0  0  0
  4  5  1  0  0  0
  4 90  1  0  0  0
  4 91  1  0  0  0
  5  6  1  0  0  0
  5 26  1  0  0  0
  5 92  1  0  0  0
  6 25  1  0  0  0
  6 93  1  0  0  0
  6 94  1  0  0  0
  7  8  2  0  0  0
  7 26  1  0  0  0
  7 29  1  0  0  0
  8  9  1  0  0  0
  8 22  1  0  0  0
  9 10  1  0  0  0
  9 27  2  0  0  0
 10 11  2  0  0  0
 10 15  1  0  0  0
 11 12  1  0  0  0
 11 95  1  0  0  0
 12 13  2  0  0  0
 12 96  1  0  0  0
 13 14  1  0  0  0
 13 31  1  0  0  0
 14 15  2  0  0  0
 14 97  1  0  0  0
 15 98  1  0  0  0
 16 17  2  0  0  0
 16 21  1  0  0  0
 16 31  1  0  0  0
 17 18  1  0  0  0
 17 99  1  0  0  0
 18 19  2  0  0  0
 18100  1  0  0  0
 19 20  1  0  0  0
 19 24  1  0  0  0
 20 21  2  0  0  0
 20101  1  0  0  0
 21 23  1  0  0  0
 22 28  1  0  0  0
 22 32  2  0  0  0
 26 27  1  0  0  0
 28102  1  0  0  0
 28103  1  0  0  0
 29104  1  0  0  0
 29105  1  0  0  0
 33 34  1  0  0  0
 33 66  1  0  0  0
 33 70  2  0  0  0
 34 36  1  0  0  0
 34 59  1  0  0  0
 34106  1  0  0  0
 35 44  2  0  0  0
 35 45  1  0  0  0
 35 68  1  0  0  0
 36 56  1  0  0  0
 36107  1  0  0  0
 37 39  1  0  0  0
 37 47  1  0  0  0
 37 66  1  0  0  0
 37108  1  0  0  0
 38 43  2  0  0  0
 38 46  1  0  0  0
 38 47  1  0  0  0
 39 64  1  0  0  0
 39 67  2  0  0  0
 40 52  1  0  0  0
 40 53  2  0  0  0
 40 58  1  0  0  0
 41109  1  0  0  0
 41110  1  0  0  0
 41111  1  0  0  0
 41 48  1  0  0  0
 42 43  1  0  0  0
 42 66  1  0  0  0
 42112  1  0  0  0
 42113  1  0  0  0
 43 44  1  0  0  0
 44114  1  0  0  0
 45 46  2  0  0  0
 45115  1  0  0  0
 46116  1  0  0  0
 47117  1  0  0  0
 47118  1  0  0  0
 48 56  1  0  0  0
 48 65  1  0  0  0
 48119  1  0  0  0
 49 50  1  0  0  0
 49 53  1  0  0  0
 49 64  1  0  0  0
 49120  1  0  0  0
 50 51  1  0  0  0
 50121  1  0  0  0
 50122  1  0  0  0
 51 52  1  0  0  0
 51123  1  0  0  0
 51124  1  0  0  0
 52125  1  0  0  0
 52126  1  0  0  0
 53 54  1  0  0  0
 54 55  2  0  0  0
 54127  1  0  0  0
 55 57  1  0  0  0
 55128  1  0  0  0
 56 69  2  0  0  0
 57 58  2  0  0  0
 57129  1  0  0  0
 58130  1  0  0  0
 59 60  1  0  0  0
 59 61  1  0  0  0
 59 62  1  0  0  0
 60131  1  0  0  0
 60132  1  0  0  0
 60133  1  0  0  0
 61134  1  0  0  0
 61135  1  0  0  0
 61136  1  0  0  0
 62137  1  0  0  0
 62138  1  0  0  0
 62139  1  0  0  0
 63 65  1  0  0  0
 63140  1  0  0  0
 63141  1  0  0  0
 63142  1  0  0  0
 64143  1  0  0  0
 65144  1  0  0  0
 68 82  1  0  0  0
 71 72  2  0  0  0
 71 74  1  0  0  0
 71145  1  0  0  0
 72 75  1  0  0  0
 72146  1  0  0  0
 73 74  2  0  0  0
 73 76  1  0  0  0
 73147  1  0  0  0
 74 78  1  0  0  0
 75 76  2  0  0  0
 75 79  1  0  0  0
 76 85  1  0  0  0
 77 79  2  0  0  0
 77148  1  0  0  0
 77149  1  0  0  0
 78 80  2  0  0  0
 78150  1  0  0  0
 79151  1  0  0  0
 80152  1  0  0  0
 81 82  1  0  0  0
 81 83  1  0  0  0
 81 84  2  0  0  0
 82153  1  0  0  0
 82154  1  0  0  0
 83 85  1  0  0  0
 83155  1  0  0  0
 83156  1  0  0  0
M  ISO  4   1 100  68 101  80 100  82 101
M  END
> <chiral flag>
0

> <version>
0

> <s_m_source_file>
/data/baiqing/PycharmProjects/Reinvent-master-3.2/result/LINK_invent/BTK/process_docking_weight1_custom_product_contain_oxygen_bond_distance_aromatic_linkinvent_7_9_3/rearranged_h_0120.sdf

> <i_m_source_file_index>
57

> <r_mmod_Potential_Energy-OPLS-2005>
74.6138305664062

> <r_mmod_Stretch_Energy-OPLS-2005>
46.615348815918

> <r_mmod_Bend_Energy-OPLS-2005>
125.614097595215

> <r_mmod_Torsional_Energy-OPLS-2005>
218.293334960938

> <r_mmod_Improper_Torsional_Energy-OPLS-2005>
9.73469829559326

> <r_mmod_Van_der_Waal_Energy-OPLS-2005>
168.458374023438

> <r_mmod_Electrostatic_Energy-OPLS-2005>
-285.209869384766

> <r_mmod_Solvation_Energy-OPLS-2005>
-229.916885375977

> <b_mmod_Minimization_Converged-OPLS-2005>
0

> <r_mmod_RMS_Derivative-OPLS-2005>
0.65642923116684

$$$$
57
                    3D
 Structure written by MMmdl.
151159  0  0  1  0            999 V2000
  -30.7033  -14.4668   20.5029 C   0  0  0  0  0  0
  -30.4079  -12.2773   19.4491 C   0  0  0  0  0  0
  -29.4981  -12.4843   18.2186 C   0  0  0  0  0  0
  -28.0140  -12.3661   18.6174 C   0  0  0  0  0  0
  -27.6544  -13.2148   19.8676 C   0  0  2  0  0  0
  -28.6909  -13.0252   20.9964 C   0  0  0  0  0  0
  -25.2542  -13.8175   20.5661 C   0  0  0  0  0  0
  -24.1807  -13.0440   20.9163 C   0  0  0  0  0  0
  -24.6374  -11.6914   20.8719 C   0  0  0  0  0  0
  -23.9051  -10.4291   21.0389 C   0  0  0  0  0  0
  -24.3606   -9.4212   21.9173 C   0  0  0  0  0  0
  -23.6279   -8.2249   22.0755 C   0  0  0  0  0  0
  -22.4266   -8.0278   21.3544 C   0  0  0  0  0  0
  -21.9893   -9.0250   20.4645 C   0  0  0  0  0  0
  -22.7224  -10.2127   20.3044 C   0  0  0  0  0  0
  -21.6853   -6.0727   22.5275 C   0  0  0  0  0  0
  -21.4022   -6.5635   23.8205 C   0  0  0  0  0  0
  -21.3652   -5.6790   24.9173 C   0  0  0  0  0  0
  -21.6041   -4.3052   24.7231 C   0  0  0  0  0  0
  -21.8822   -3.8144   23.4353 C   0  0  0  0  0  0
  -21.9189   -4.6955   22.3405 C   0  0  0  0  0  0
  -22.7832  -13.5230   21.1842 C   0  0  0  0  0  0
  -22.1659   -4.2139   21.0983 F   0  0  0  0  0  0
  -21.5630   -3.4542   25.7748 F   0  0  0  0  0  0
  -30.0273  -13.2883   20.4481 N   0  0  0  0  0  0
  -26.2977  -12.9357   20.3320 N   0  0  0  0  0  0
  -25.9307  -11.6513   20.5755 N   0  0  0  0  0  0
  -22.0489  -12.8217   22.0403 N   0  0  0  0  0  0
  -25.4262  -15.1896   20.4087 N   0  0  0  0  0  0
  -31.8820  -14.5597   20.1492 O   0  0  0  0  0  0
  -21.6643   -6.8868   21.4238 O   0  0  0  0  0  0
  -22.3508  -14.5536   20.6699 O   0  0  0  0  0  0
  -24.6141  -31.8685   23.2106 C   0  0  0  0  0  0
  -25.9048  -32.4814   23.8395 C   0  0  1  0  0  0
  -27.2303  -27.4441   20.0983 C   0  0  0  0  0  0
  -25.5914  -33.8613   24.2334 N   0  0  0  0  0  0
  -23.4000  -30.4927   21.5502 C   0  0  2  0  0  0
  -24.8461  -28.9580   20.1149 C   0  0  0  0  0  0
  -22.7399  -29.4663   22.4989 C   0  0  0  0  0  0
  -18.0274  -28.1369   22.8494 C   0  0  0  0  0  0
  -24.1489  -36.7312   23.2639 C   0  0  0  0  0  0
  -25.9277  -30.8379   21.3605 C   0  0  0  0  0  0
  -26.0062  -29.4734   20.7075 C   0  0  0  0  0  0
  -27.2043  -28.7257   20.6910 C   0  0  0  0  0  0
  -26.0555  -26.9394   19.5007 C   0  0  0  0  0  0
  -24.8651  -27.6901   19.5080 C   0  0  0  0  0  0
  -23.6080  -29.8245   20.1645 C   0  0  0  0  0  0
  -25.4109  -36.3101   24.0336 C   0  0  1  0  0  0
  -20.5862  -28.3655   23.1323 C   0  0  2  0  0  0
  -20.6765  -26.9390   22.5420 C   0  0  0  0  0  0
  -19.5746  -26.6378   21.5214 C   0  0  0  0  0  0
  -18.1921  -26.7921   22.1613 C   0  0  0  0  0  0
  -19.1523  -28.8830   23.2905 C   0  0  0  0  0  0
  -18.9450  -30.1435   23.8913 C   0  0  0  0  0  0
  -17.6454  -30.6576   24.0565 C   0  0  0  0  0  0
  -25.9034  -34.9469   23.5127 C   0  0  0  0  0  0
  -16.5345  -29.9076   23.6324 C   0  0  0  0  0  0
  -16.7264  -28.6495   23.0342 C   0  0  0  0  0  0
  -26.4483  -31.6579   25.0712 C   0  0  0  0  0  0
  -25.3773  -31.3712   26.1490 C   0  0  0  0  0  0
  -27.0269  -30.3002   24.6081 C   0  0  0  0  0  0
  -27.6092  -32.4263   25.7455 C   0  0  0  0  0  0
  -27.5579  -37.1813   24.8466 C   0  0  0  0  0  0
  -21.4128  -29.3032   22.3734 N   0  0  0  0  0  0
  -26.4292  -37.3785   23.9406 N   0  0  0  0  0  0
  -24.6653  -31.0803   22.0991 N   0  0  0  0  0  0
  -23.4180  -28.8209   23.3030 O   0  0  0  0  0  0
  -28.3901  -26.7045   20.0997 O   0  0  0  0  0  0
  -26.5584  -34.8919   22.4681 O   0  0  0  0  0  0
  -23.5339  -32.1431   23.7518 O   0  0  0  0  0  0
  -29.2490  -18.4900   18.3146 C   0  0  0  0  0  0
  -28.8299  -19.8170   18.1470 C   0  0  0  0  0  0
  -29.0270  -18.7998   20.6921 C   0  0  0  0  0  0
  -29.3919  -17.9623   19.6123 C   0  0  0  0  0  0
  -28.5694  -20.5955   19.2808 C   0  0  0  0  0  0
  -29.9550  -16.5990   19.7247 C   0  0  0  0  0  0
  -29.9008  -15.6734   20.7123 C   0  0  0  0  0  0
  -28.3709  -24.2667   19.6590 C   0  0  0  0  0  0
  -28.2731  -25.3988   20.6957 C   0  0  0  0  0  0
  -28.2629  -22.8246   20.1850 C   0  0  0  0  0  0
  -28.6446  -20.0967   20.5379 N   0  0  0  0  0  0
  -28.5378  -24.5062   18.4556 O   0  0  0  0  0  0
  -28.2409  -21.9185   19.0811 O   0  0  0  0  0  0
  -31.4591  -12.3394   19.1615 H   0  0  0  0  0  0
  -30.2756  -11.2755   19.8617 H   0  0  0  0  0  0
  -29.7351  -11.7504   17.4472 H   0  0  0  0  0  0
  -29.6862  -13.4641   17.7769 H   0  0  0  0  0  0
  -27.8101  -11.3127   18.8120 H   0  0  0  0  0  0
  -27.3755  -12.6475   17.7791 H   0  0  0  0  0  0
  -27.6888  -14.2593   19.5591 H   0  0  0  0  0  0
  -28.6491  -12.0060   21.3841 H   0  0  0  0  0  0
  -28.4680  -13.6739   21.8441 H   0  0  0  0  0  0
  -25.2757   -9.5697   22.4737 H   0  0  0  0  0  0
  -23.9992   -7.4650   22.7477 H   0  0  0  0  0  0
  -21.0829   -8.8762   19.8952 H   0  0  0  0  0  0
  -22.3684  -10.9656   19.6144 H   0  0  0  0  0  0
  -21.2014   -7.6147   23.9706 H   0  0  0  0  0  0
  -21.1471   -6.0528   25.9068 H   0  0  0  0  0  0
  -22.0599   -2.7605   23.2864 H   0  0  0  0  0  0
  -22.4118  -11.9876   22.4785 H   0  0  0  0  0  0
  -21.1102  -13.1224   22.2618 H   0  0  0  0  0  0
  -24.6624  -15.8478   20.5142 H   0  0  0  0  0  0
  -26.2875  -15.6258   20.1028 H   0  0  0  0  0  0
  -26.7120  -32.5526   23.1161 H   0  0  0  0  0  0
  -25.0101  -33.9777   25.0498 H   0  0  0  0  0  0
  -22.6885  -31.3092   21.4113 H   0  0  0  0  0  0
  -23.3752  -35.9641   23.3285 H   0  0  0  0  0  0
  -24.3593  -36.8948   22.2059 H   0  0  0  0  0  0
  -23.7234  -37.6506   23.6667 H   0  0  0  0  0  0
  -26.0403  -31.6062   20.5943 H   0  0  0  0  0  0
  -26.8153  -30.8892   21.9794 H   0  0  0  0  0  0
  -28.1014  -29.1203   21.1472 H   0  0  0  0  0  0
  -26.0581  -25.9711   19.0214 H   0  0  0  0  0  0
  -23.9737  -27.2883   19.0466 H   0  0  0  0  0  0
  -23.7166  -30.5996   19.4047 H   0  0  0  0  0  0
  -22.7312  -29.2454   19.8679 H   0  0  0  0  0  0
  -25.1290  -36.1964   25.0828 H   0  0  0  0  0  0
  -20.9958  -28.3215   24.1443 H   0  0  0  0  0  0
  -20.5662  -26.2262   23.3605 H   0  0  0  0  0  0
  -21.6638  -26.7431   22.1218 H   0  0  0  0  0  0
  -19.6909  -25.6292   21.1237 H   0  0  0  0  0  0
  -19.6695  -27.3202   20.6755 H   0  0  0  0  0  0
  -17.4198  -26.6684   21.4004 H   0  0  0  0  0  0
  -18.0308  -26.0049   22.8993 H   0  0  0  0  0  0
  -19.7926  -30.7253   24.2279 H   0  0  0  0  0  0
  -17.5005  -31.6264   24.5158 H   0  0  0  0  0  0
  -15.5344  -30.2982   23.7640 H   0  0  0  0  0  0
  -15.8663  -28.0826   22.7036 H   0  0  0  0  0  0
  -24.5874  -30.7138   25.7838 H   0  0  0  0  0  0
  -24.9068  -32.2891   26.5023 H   0  0  0  0  0  0
  -25.8136  -30.8791   27.0193 H   0  0  0  0  0  0
  -26.2772  -29.6761   24.1196 H   0  0  0  0  0  0
  -27.4088  -29.7245   25.4526 H   0  0  0  0  0  0
  -27.8610  -30.4288   23.9174 H   0  0  0  0  0  0
  -27.2773  -33.3608   26.1990 H   0  0  0  0  0  0
  -28.3931  -32.6721   25.0276 H   0  0  0  0  0  0
  -28.0707  -31.8381   26.5397 H   0  0  0  0  0  0
  -28.2614  -38.0089   24.7475 H   0  0  0  0  0  0
  -28.1051  -36.2622   24.6327 H   0  0  0  0  0  0
  -27.2300  -37.1513   25.8870 H   0  0  0  0  0  0
  -20.9274  -29.8760   21.6970 H   0  0  0  0  0  0
  -26.0182  -38.2865   24.1387 H   0  0  0  0  0  0
  -29.4932  -17.8943   17.4467 H   0  0  0  0  0  0
  -28.7489  -20.2413   17.1565 H   0  0  0  0  0  0
  -29.1041  -18.4468   21.7099 H   0  0  0  0  0  0
  -30.5463  -16.3324   18.8565 H   0  0  0  0  0  0
  -29.3273  -15.8193   21.6157 H   0  0  0  0  0  0
  -29.0830  -25.2732   21.4146 H   0  0  0  0  0  0
  -27.3406  -25.2953   21.2526 H   0  0  0  0  0  0
  -27.3527  -22.7144   20.7746 H   0  0  0  0  0  0
  -29.1162  -22.6273   20.8346 H   0  0  0  0  0  0
  1 25  1  0  0  0
  1 30  2  0  0  0
  1 77  1  0  0  0
  2  3  1  0  0  0
  2 25  1  0  0  0
  2 84  1  0  0  0
  2 85  1  0  0  0
  3  4  1  0  0  0
  3 86  1  0  0  0
  3 87  1  0  0  0
  4  5  1  0  0  0
  4 88  1  0  0  0
  4 89  1  0  0  0
  5  6  1  0  0  0
  5 26  1  0  0  0
  5 90  1  0  0  0
  6 25  1  0  0  0
  6 91  1  0  0  0
  6 92  1  0  0  0
  7  8  2  0  0  0
  7 26  1  0  0  0
  7 29  1  0  0  0
  8  9  1  0  0  0
  8 22  1  0  0  0
  9 10  1  0  0  0
  9 27  2  0  0  0
 10 11  2  0  0  0
 10 15  1  0  0  0
 11 12  1  0  0  0
 11 93  1  0  0  0
 12 13  2  0  0  0
 12 94  1  0  0  0
 13 14  1  0  0  0
 13 31  1  0  0  0
 14 15  2  0  0  0
 14 95  1  0  0  0
 15 96  1  0  0  0
 16 17  2  0  0  0
 16 21  1  0  0  0
 16 31  1  0  0  0
 17 18  1  0  0  0
 17 97  1  0  0  0
 18 19  2  0  0  0
 18 98  1  0  0  0
 19 20  1  0  0  0
 19 24  1  0  0  0
 20 21  2  0  0  0
 20 99  1  0  0  0
 21 23  1  0  0  0
 22 28  1  0  0  0
 22 32  2  0  0  0
 26 27  1  0  0  0
 28100  1  0  0  0
 28101  1  0  0  0
 29102  1  0  0  0
 29103  1  0  0  0
 33 34  1  0  0  0
 33 66  1  0  0  0
 33 70  2  0  0  0
 34 36  1  0  0  0
 34 59  1  0  0  0
 34104  1  0  0  0
 35 44  2  0  0  0
 35 45  1  0  0  0
 35 68  1  0  0  0
 36 56  1  0  0  0
 36105  1  0  0  0
 37 39  1  0  0  0
 37 47  1  0  0  0
 37 66  1  0  0  0
 37106  1  0  0  0
 38 43  2  0  0  0
 38 46  1  0  0  0
 38 47  1  0  0  0
 39 64  1  0  0  0
 39 67  2  0  0  0
 40 52  1  0  0  0
 40 53  2  0  0  0
 40 58  1  0  0  0
 41107  1  0  0  0
 41108  1  0  0  0
 41109  1  0  0  0
 41 48  1  0  0  0
 42 43  1  0  0  0
 42 66  1  0  0  0
 42110  1  0  0  0
 42111  1  0  0  0
 43 44  1  0  0  0
 44112  1  0  0  0
 45 46  2  0  0  0
 45113  1  0  0  0
 46114  1  0  0  0
 47115  1  0  0  0
 47116  1  0  0  0
 48 56  1  0  0  0
 48 65  1  0  0  0
 48117  1  0  0  0
 49 50  1  0  0  0
 49 53  1  0  0  0
 49 64  1  0  0  0
 49118  1  0  0  0
 50 51  1  0  0  0
 50119  1  0  0  0
 50120  1  0  0  0
 51 52  1  0  0  0
 51121  1  0  0  0
 51122  1  0  0  0
 52123  1  0  0  0
 52124  1  0  0  0
 53 54  1  0  0  0
 54 55  2  0  0  0
 54125  1  0  0  0
 55 57  1  0  0  0
 55126  1  0  0  0
 56 69  2  0  0  0
 57 58  2  0  0  0
 57127  1  0  0  0
 58128  1  0  0  0
 59 60  1  0  0  0
 59 61  1  0  0  0
 59 62  1  0  0  0
 60129  1  0  0  0
 60130  1  0  0  0
 60131  1  0  0  0
 61132  1  0  0  0
 61133  1  0  0  0
 61134  1  0  0  0
 62135  1  0  0  0
 62136  1  0  0  0
 62137  1  0  0  0
 63 65  1  0  0  0
 63138  1  0  0  0
 63139  1  0  0  0
 63140  1  0  0  0
 64141  1  0  0  0
 65142  1  0  0  0
 68 79  1  0  0  0
 71 72  2  0  0  0
 71 74  1  0  0  0
 71143  1  0  0  0
 72 75  1  0  0  0
 72144  1  0  0  0
 73 74  2  0  0  0
 73 81  1  0  0  0
 73145  1  0  0  0
 74 76  1  0  0  0
 75 81  2  0  0  0
 75 83  1  0  0  0
 76 77  2  0  0  0
 76146  1  0  0  0
 77147  1  0  0  0
 78 79  1  0  0  0
 78 80  1  0  0  0
 78 82  2  0  0  0
 79148  1  0  0  0
 79149  1  0  0  0
 80 83  1  0  0  0
 80150  1  0  0  0
 80151  1  0  0  0
M  ISO  4   1 100  68 101  77 100  79 101
M  END
> <chiral flag>
0

> <version>
0

> <s_m_source_file>
/data/baiqing/PycharmProjects/Reinvent-master-3.2/result/LINK_invent/BTK/process_docking_weight1_custom_product_contain_oxygen_bond_distance_aromatic_linkinvent_7_9_3/rearranged_h_0120.sdf

> <i_m_source_file_index>
58

> <r_mmod_Potential_Energy-OPLS-2005>
-147.916015625

> <r_mmod_Stretch_Energy-OPLS-2005>
35.4672203063965

> <r_mmod_Bend_Energy-OPLS-2005>
107.804908752441

> <r_mmod_Torsional_Energy-OPLS-2005>
210.653564453125

> <r_mmod_Improper_Torsional_Energy-OPLS-2005>
6.98106145858765

> <r_mmod_Van_der_Waal_Energy-OPLS-2005>
157.457458496094

> <r_mmod_Electrostatic_Energy-OPLS-2005>
-458.178253173828

> <r_mmod_Solvation_Energy-OPLS-2005>
-225.058319091797

> <b_mmod_Minimization_Converged-OPLS-2005>
0

> <r_mmod_RMS_Derivative-OPLS-2005>
1.20644509792328

$$$$
58
                    3D
 Structure written by MMmdl.
161169  0  0  1  0            999 V2000
  -30.7113  -14.4381   20.5786 C   0  0  0  0  0  0
  -30.4292  -12.2898   19.3956 C   0  0  0  0  0  0
  -29.4980  -12.5279   18.1901 C   0  0  0  0  0  0
  -28.0181  -12.3954   18.6011 C   0  0  0  0  0  0
  -27.6733  -13.2034   19.8803 C   0  0  2  0  0  0
  -28.7192  -12.9386   20.9883 C   0  0  0  0  0  0
  -25.2672  -13.8145   20.5746 C   0  0  0  0  0  0
  -24.1886  -13.0436   20.9168 C   0  0  0  0  0  0
  -24.6425  -11.6896   20.8686 C   0  0  0  0  0  0
  -23.9069  -10.4291   21.0353 C   0  0  0  0  0  0
  -24.3594   -9.4206   21.9133 C   0  0  0  0  0  0
  -23.6260   -8.2250   22.0755 C   0  0  0  0  0  0
  -22.4235   -8.0298   21.3564 C   0  0  0  0  0  0
  -21.9877   -9.0268   20.4661 C   0  0  0  0  0  0
  -22.7230  -10.2125   20.3024 C   0  0  0  0  0  0
  -21.6860   -6.0720   22.5272 C   0  0  0  0  0  0
  -21.4027   -6.5625   23.8207 C   0  0  0  0  0  0
  -21.3662   -5.6778   24.9174 C   0  0  0  0  0  0
  -21.6044   -4.3043   24.7238 C   0  0  0  0  0  0
  -21.8816   -3.8140   23.4354 C   0  0  0  0  0  0
  -21.9195   -4.6949   22.3398 C   0  0  0  0  0  0
  -22.7909  -13.5251   21.1830 C   0  0  0  0  0  0
  -22.1660   -4.2134   21.0978 F   0  0  0  0  0  0
  -21.5623   -3.4524   25.7743 F   0  0  0  0  0  0
  -30.0596  -13.2489   20.4461 N   0  0  0  0  0  0
  -26.3101  -12.9310   20.3390 N   0  0  0  0  0  0
  -25.9348  -11.6469   20.5694 N   0  0  0  0  0  0
  -22.0521  -12.8256   22.0366 N   0  0  0  0  0  0
  -25.4409  -15.1869   20.4292 N   0  0  0  0  0  0
  -31.7826  -14.6960   20.0240 O   0  0  0  0  0  0
  -21.6651   -6.8870   21.4239 O   0  0  0  0  0  0
  -22.3585  -14.5563   20.6703 O   0  0  0  0  0  0
  -24.6141  -31.8676   23.2090 C   0  0  0  0  0  0
  -25.9022  -32.4826   23.8404 C   0  0  1  0  0  0
  -27.2510  -27.4530   20.1024 C   0  0  0  0  0  0
  -25.5887  -33.8622   24.2356 N   0  0  0  0  0  0
  -23.4029  -30.4893   21.5473 C   0  0  2  0  0  0
  -24.8549  -28.9487   20.1223 C   0  0  0  0  0  0
  -22.7407  -29.4675   22.4982 C   0  0  0  0  0  0
  -18.0281  -28.1416   22.8464 C   0  0  0  0  0  0
  -24.1481  -36.7325   23.2637 C   0  0  0  0  0  0
  -25.9262  -30.8424   21.3526 C   0  0  0  0  0  0
  -26.0114  -29.4708   20.7161 C   0  0  0  0  0  0
  -27.2130  -28.7287   20.7068 C   0  0  0  0  0  0
  -26.0809  -26.9369   19.5064 C   0  0  0  0  0  0
  -24.8817  -27.6786   19.5174 C   0  0  0  0  0  0
  -23.6151  -29.8127   20.1651 C   0  0  0  0  0  0
  -25.4090  -36.3120   24.0352 C   0  0  1  0  0  0
  -20.5865  -28.3707   23.1310 C   0  0  2  0  0  0
  -20.6779  -26.9444   22.5423 C   0  0  0  0  0  0
  -19.5770  -26.6416   21.5203 C   0  0  0  0  0  0
  -18.1939  -26.7961   22.1599 C   0  0  0  0  0  0
  -19.1522  -28.8874   23.2892 C   0  0  0  0  0  0
  -18.9461  -30.1464   23.8923 C   0  0  0  0  0  0
  -17.6462  -30.6605   24.0585 C   0  0  0  0  0  0
  -25.9015  -34.9475   23.5152 C   0  0  0  0  0  0
  -16.5359  -29.9120   23.6314 C   0  0  0  0  0  0
  -16.7266  -28.6551   23.0317 C   0  0  0  0  0  0
  -26.4489  -31.6575   25.0691 C   0  0  0  0  0  0
  -25.3822  -31.3623   26.1493 C   0  0  0  0  0  0
  -27.0276  -30.3039   24.5957 C   0  0  0  0  0  0
  -27.6099  -32.4267   25.7429 C   0  0  0  0  0  0
  -27.5571  -37.1825   24.8466 C   0  0  0  0  0  0
  -21.4136  -29.3066   22.3716 N   0  0  0  0  0  0
  -26.4287  -37.3796   23.9412 N   0  0  0  0  0  0
  -24.6662  -31.0796   22.0975 N   0  0  0  0  0  0
  -23.4172  -28.8217   23.3028 O   0  0  0  0  0  0
  -28.4198  -26.7271   20.0701 O   0  0  0  0  0  0
  -26.5575  -34.8923   22.4712 O   0  0  0  0  0  0
  -23.5334  -32.1414   23.7502 O   0  0  0  0  0  0
  -30.6807  -17.5939   20.4780 C   0  0  0  0  0  0
  -30.4877  -18.9941   20.5422 C   0  0  0  0  0  0
  -28.9711  -17.2767   22.1944 C   0  0  0  0  0  0
  -28.7714  -18.6766   22.2458 C   0  0  0  0  0  0
  -29.9401  -16.7270   21.3212 C   0  0  0  0  0  0
  -29.5498  -19.5468   21.4483 C   0  0  0  0  0  0
  -28.2258  -16.2524   24.3338 C   0  0  0  0  0  0
  -28.1331  -16.3727   23.0015 C   0  0  0  0  0  0
  -27.7001  -19.2536   23.1645 C   0  0  0  0  0  0
  -29.2889  -24.4382   20.3914 C   0  0  0  0  0  0
  -29.1404  -23.1719   21.2588 C   0  0  0  0  0  0
  -28.4389  -25.6010   20.9510 C   0  0  0  0  0  0
  -29.8836  -21.8968   20.7986 C   0  0  0  0  0  0
  -30.0775  -15.3077   21.3737 N   0  0  0  0  0  0
  -29.3340  -20.8934   21.6428 O   0  0  0  0  0  0
  -31.4756  -12.3805   19.0963 H   0  0  0  0  0  0
  -30.3114  -11.2702   19.7652 H   0  0  0  0  0  0
  -29.7270  -11.8233   17.3906 H   0  0  0  0  0  0
  -29.6795  -13.5215   17.7743 H   0  0  0  0  0  0
  -27.8078  -11.3370   18.7619 H   0  0  0  0  0  0
  -27.3745  -12.7073   17.7785 H   0  0  0  0  0  0
  -27.7301  -14.2595   19.6127 H   0  0  0  0  0  0
  -28.6890  -11.8925   21.2933 H   0  0  0  0  0  0
  -28.4700  -13.4953   21.8919 H   0  0  0  0  0  0
  -25.2726   -9.5689   22.4712 H   0  0  0  0  0  0
  -23.9978   -7.4649   22.7472 H   0  0  0  0  0  0
  -21.0796   -8.8786   19.8964 H   0  0  0  0  0  0
  -22.3673  -10.9660   19.6132 H   0  0  0  0  0  0
  -21.2032   -7.6126   23.9705 H   0  0  0  0  0  0
  -21.1473   -6.0516   25.9075 H   0  0  0  0  0  0
  -22.0584   -2.7599   23.2873 H   0  0  0  0  0  0
  -22.4098  -11.9920   22.4812 H   0  0  0  0  0  0
  -21.1142  -13.1321   22.2498 H   0  0  0  0  0  0
  -24.6885  -15.8468   20.5927 H   0  0  0  0  0  0
  -26.3085  -15.6360   20.1660 H   0  0  0  0  0  0
  -26.7088  -32.5569   23.1167 H   0  0  0  0  0  0
  -25.0083  -33.9787   25.0541 H   0  0  0  0  0  0
  -22.6908  -31.3048   21.4027 H   0  0  0  0  0  0
  -23.3723  -35.9680   23.3340 H   0  0  0  0  0  0
  -24.3577  -36.8897   22.2043 H   0  0  0  0  0  0
  -23.7266  -37.6557   23.6625 H   0  0  0  0  0  0
  -26.0119  -31.5932   20.5661 H   0  0  0  0  0  0
  -26.8252  -30.9249   21.9506 H   0  0  0  0  0  0
  -28.1081  -29.1281   21.1631 H   0  0  0  0  0  0
  -26.1031  -25.9653   19.0329 H   0  0  0  0  0  0
  -23.9923  -27.2709   19.0571 H   0  0  0  0  0  0
  -23.7279  -30.5826   19.4009 H   0  0  0  0  0  0
  -22.7419  -29.2295   19.8668 H   0  0  0  0  0  0
  -25.1266  -36.1988   25.0846 H   0  0  0  0  0  0
  -20.9950  -28.3306   24.1432 H   0  0  0  0  0  0
  -20.5690  -26.2322   23.3620 H   0  0  0  0  0  0
  -21.6664  -26.7510   22.1232 H   0  0  0  0  0  0
  -19.6950  -25.6324   21.1247 H   0  0  0  0  0  0
  -19.6722  -27.3216   20.6724 H   0  0  0  0  0  0
  -17.4220  -26.6699   21.3996 H   0  0  0  0  0  0
  -18.0346  -26.0110   22.8999 H   0  0  0  0  0  0
  -19.7939  -30.7265   24.2325 H   0  0  0  0  0  0
  -17.5030  -31.6274   24.5211 H   0  0  0  0  0  0
  -15.5364  -30.3046   23.7623 H   0  0  0  0  0  0
  -15.8668  -28.0885   22.7009 H   0  0  0  0  0  0
  -24.5955  -30.7010   25.7851 H   0  0  0  0  0  0
  -24.9062  -32.2746   26.5088 H   0  0  0  0  0  0
  -25.8249  -30.8693   27.0158 H   0  0  0  0  0  0
  -26.2728  -29.6796   24.1155 H   0  0  0  0  0  0
  -27.4257  -29.7265   25.4308 H   0  0  0  0  0  0
  -27.8484  -30.4396   23.8912 H   0  0  0  0  0  0
  -27.2762  -33.3564   26.2049 H   0  0  0  0  0  0
  -28.3876  -32.6828   25.0221 H   0  0  0  0  0  0
  -28.0805  -31.8356   26.5295 H   0  0  0  0  0  0
  -28.2628  -38.0083   24.7465 H   0  0  0  0  0  0
  -28.1036  -36.2622   24.6343 H   0  0  0  0  0  0
  -27.2311  -37.1557   25.8879 H   0  0  0  0  0  0
  -20.9313  -29.8756   21.6903 H   0  0  0  0  0  0
  -26.0179  -38.2883   24.1394 H   0  0  0  0  0  0
  -31.4089  -17.2039   19.7808 H   0  0  0  0  0  0
  -31.0797  -19.6337   19.9031 H   0  0  0  0  0  0
  -27.5806  -15.5778   24.8783 H   0  0  0  0  0  0
  -28.9491  -16.8237   24.8967 H   0  0  0  0  0  0
  -27.3970  -15.7913   22.4642 H   0  0  0  0  0  0
  -26.7626  -18.7130   23.0368 H   0  0  0  0  0  0
  -27.4813  -20.3028   22.9718 H   0  0  0  0  0  0
  -28.0080  -19.1657   24.2055 H   0  0  0  0  0  0
  -28.9628  -24.2131   19.3763 H   0  0  0  0  0  0
  -30.3370  -24.7336   20.3273 H   0  0  0  0  0  0
  -28.0759  -22.9360   21.3126 H   0  0  0  0  0  0
  -29.4442  -23.4013   22.2816 H   0  0  0  0  0  0
  -28.8433  -25.9235   21.9127 H   0  0  0  0  0  0
  -27.4282  -25.2378   21.1488 H   0  0  0  0  0  0
  -30.9610  -21.9895   20.9494 H   0  0  0  0  0  0
  -29.6927  -21.6803   19.7473 H   0  0  0  0  0  0
  -29.3740  -14.8619   21.9413 H   0  0  0  0  0  0
  1 25  1  0  0  0
  1 30  2  0  0  0
  1 84  1  0  0  0
  2  3  1  0  0  0
  2 25  1  0  0  0
  2 86  1  0  0  0
  2 87  1  0  0  0
  3  4  1  0  0  0
  3 88  1  0  0  0
  3 89  1  0  0  0
  4  5  1  0  0  0
  4 90  1  0  0  0
  4 91  1  0  0  0
  5  6  1  0  0  0
  5 26  1  0  0  0
  5 92  1  0  0  0
  6 25  1  0  0  0
  6 93  1  0  0  0
  6 94  1  0  0  0
  7  8  2  0  0  0
  7 26  1  0  0  0
  7 29  1  0  0  0
  8  9  1  0  0  0
  8 22  1  0  0  0
  9 10  1  0  0  0
  9 27  2  0  0  0
 10 11  2  0  0  0
 10 15  1  0  0  0
 11 12  1  0  0  0
 11 95  1  0  0  0
 12 13  2  0  0  0
 12 96  1  0  0  0
 13 14  1  0  0  0
 13 31  1  0  0  0
 14 15  2  0  0  0
 14 97  1  0  0  0
 15 98  1  0  0  0
 16 17  2  0  0  0
 16 21  1  0  0  0
 16 31  1  0  0  0
 17 18  1  0  0  0
 17 99  1  0  0  0
 18 19  2  0  0  0
 18100  1  0  0  0
 19 20  1  0  0  0
 19 24  1  0  0  0
 20 21  2  0  0  0
 20101  1  0  0  0
 21 23  1  0  0  0
 22 28  1  0  0  0
 22 32  2  0  0  0
 26 27  1  0  0  0
 28102  1  0  0  0
 28103  1  0  0  0
 29104  1  0  0  0
 29105  1  0  0  0
 33 34  1  0  0  0
 33 66  1  0  0  0
 33 70  2  0  0  0
 34 36  1  0  0  0
 34 59  1  0  0  0
 34106  1  0  0  0
 35 44  2  0  0  0
 35 45  1  0  0  0
 35 68  1  0  0  0
 36 56  1  0  0  0
 36107  1  0  0  0
 37 39  1  0  0  0
 37 47  1  0  0  0
 37 66  1  0  0  0
 37108  1  0  0  0
 38 43  2  0  0  0
 38 46  1  0  0  0
 38 47  1  0  0  0
 39 64  1  0  0  0
 39 67  2  0  0  0
 40 52  1  0  0  0
 40 53  2  0  0  0
 40 58  1  0  0  0
 41109  1  0  0  0
 41110  1  0  0  0
 41111  1  0  0  0
 41 48  1  0  0  0
 42 43  1  0  0  0
 42 66  1  0  0  0
 42112  1  0  0  0
 42113  1  0  0  0
 43 44  1  0  0  0
 44114  1  0  0  0
 45 46  2  0  0  0
 45115  1  0  0  0
 46116  1  0  0  0
 47117  1  0  0  0
 47118  1  0  0  0
 48 56  1  0  0  0
 48 65  1  0  0  0
 48119  1  0  0  0
 49 50  1  0  0  0
 49 53  1  0  0  0
 49 64  1  0  0  0
 49120  1  0  0  0
 50 51  1  0  0  0
 50121  1  0  0  0
 50122  1  0  0  0
 51 52  1  0  0  0
 51123  1  0  0  0
 51124  1  0  0  0
 52125  1  0  0  0
 52126  1  0  0  0
 53 54  1  0  0  0
 54 55  2  0  0  0
 54127  1  0  0  0
 55 57  1  0  0  0
 55128  1  0  0  0
 56 69  2  0  0  0
 57 58  2  0  0  0
 57129  1  0  0  0
 58130  1  0  0  0
 59 60  1  0  0  0
 59 61  1  0  0  0
 59 62  1  0  0  0
 60131  1  0  0  0
 60132  1  0  0  0
 60133  1  0  0  0
 61134  1  0  0  0
 61135  1  0  0  0
 61136  1  0  0  0
 62137  1  0  0  0
 62138  1  0  0  0
 62139  1  0  0  0
 63 65  1  0  0  0
 63140  1  0  0  0
 63141  1  0  0  0
 63142  1  0  0  0
 64143  1  0  0  0
 65144  1  0  0  0
 68 82  1  0  0  0
 71 72  2  0  0  0
 71 75  1  0  0  0
 71145  1  0  0  0
 72 76  1  0  0  0
 72146  1  0  0  0
 73 74  1  0  0  0
 73 75  2  0  0  0
 73 78  1  0  0  0
 74 76  2  0  0  0
 74 79  1  0  0  0
 75 84  1  0  0  0
 76 85  1  0  0  0
 77 78  2  0  0  0
 77147  1  0  0  0
 77148  1  0  0  0
 78149  1  0  0  0
 79150  1  0  0  0
 79151  1  0  0  0
 79152  1  0  0  0
 80 81  1  0  0  0
 80 82  1  0  0  0
 80153  1  0  0  0
 80154  1  0  0  0
 81 83  1  0  0  0
 81155  1  0  0  0
 81156  1  0  0  0
 82157  1  0  0  0
 82158  1  0  0  0
 83 85  1  0  0  0
 83159  1  0  0  0
 83160  1  0  0  0
 84161  1  0  0  0
M  ISO  4   1 100  68 101  82 101  84 100
M  END
> <chiral flag>
0

> <version>
0

> <s_m_source_file>
/data/baiqing/PycharmProjects/Reinvent-master-3.2/result/LINK_invent/BTK/process_docking_weight1_custom_product_contain_oxygen_bond_distance_aromatic_linkinvent_7_9_3/rearranged_h_0120.sdf

> <i_m_source_file_index>
59

> <r_mmod_Potential_Energy-OPLS-2005>
-29.6459732055664

> <r_mmod_Stretch_Energy-OPLS-2005>
36.0452842712402

> <r_mmod_Bend_Energy-OPLS-2005>
121.796691894531

> <r_mmod_Torsional_Energy-OPLS-2005>
264.880950927734

> <r_mmod_Improper_Torsional_Energy-OPLS-2005>
3.12218832969666

> <r_mmod_Van_der_Waal_Energy-OPLS-2005>
155.97135925293

> <r_mmod_Electrostatic_Energy-OPLS-2005>
-421.296447753906

> <r_mmod_Solvation_Energy-OPLS-2005>
-199.088455200195

> <b_mmod_Minimization_Converged-OPLS-2005>
0

> <r_mmod_RMS_Derivative-OPLS-2005>
3.25160098075867

$$$$
59
                    3D
 Structure written by MMmdl.
160168  0  0  1  0            999 V2000
  -28.7603  -16.6852   20.1082 C   0  0  0  0  0  0
  -29.8995  -14.2084   19.4116 C   0  0  0  0  0  0
  -29.4134  -13.0774   18.4372 C   0  0  0  0  0  0
  -28.2300  -12.2972   19.0120 C   0  0  0  0  0  0
  -27.4043  -13.2848   19.8082 C   0  0  2  0  0  0
  -28.1701  -14.0507   20.8889 C   0  0  0  0  0  0
  -25.1296  -13.7835   20.5818 C   0  0  0  0  0  0
  -24.0919  -13.0030   20.9456 C   0  0  0  0  0  0
  -24.5792  -11.6597   20.8947 C   0  0  0  0  0  0
  -23.8743  -10.4049   21.0554 C   0  0  0  0  0  0
  -24.3442   -9.4018   21.9274 C   0  0  0  0  0  0
  -23.6185   -8.2026   22.0796 C   0  0  0  0  0  0
  -22.4179   -8.0091   21.3531 C   0  0  0  0  0  0
  -21.9760   -9.0036   20.4618 C   0  0  0  0  0  0
  -22.7041  -10.1918   20.3079 C   0  0  0  0  0  0
  -21.6802   -6.0645   22.5297 C   0  0  0  0  0  0
  -21.3973   -6.5590   23.8218 C   0  0  0  0  0  0
  -21.3648   -5.6760   24.9189 C   0  0  0  0  0  0
  -21.6050   -4.3028   24.7251 C   0  0  0  0  0  0
  -21.8821   -3.8097   23.4383 C   0  0  0  0  0  0
  -21.9175   -4.6889   22.3427 C   0  0  0  0  0  0
  -22.7088  -13.4921   21.2083 C   0  0  0  0  0  0
  -22.1652   -4.2084   21.1002 F   0  0  0  0  0  0
  -21.5643   -3.4525   25.7773 F   0  0  0  0  0  0
  -28.8503  -15.1208   20.1187 N   0  0  0  0  0  0
  -26.1540  -12.8997   20.3212 N   0  0  0  0  0  0
  -25.8615  -11.6133   20.5693 N   0  0  0  0  0  0
  -21.9813  -12.7948   22.0669 N   0  0  0  0  0  0
  -25.2734  -15.1486   20.4011 N   0  0  0  0  0  0
  -30.0532  -16.7897   20.1763 O   0  0  0  0  0  0
  -21.6548   -6.8719   21.4236 O   0  0  0  0  0  0
  -22.2884  -14.5267   20.6932 O   0  0  0  0  0  0
  -24.5548  -31.8120   23.2583 C   0  0  0  0  0  0
  -25.8473  -32.4567   23.8285 C   0  0  1  0  0  0
  -27.1875  -27.5251   20.2150 C   0  0  0  0  0  0
  -25.5698  -33.8315   24.2215 N   0  0  0  0  0  0
  -23.3806  -30.3744   21.5695 C   0  0  2  0  0  0
  -24.8270  -29.0480   20.0003 C   0  0  0  0  0  0
  -22.7407  -29.3346   22.4775 C   0  0  0  0  0  0
  -17.8373  -28.1035   22.7368 C   0  0  0  0  0  0
  -24.1516  -36.7365   23.2600 C   0  0  0  0  0  0
  -25.8499  -30.8750   21.3548 C   0  0  0  0  0  0
  -25.9523  -29.5890   20.6335 C   0  0  0  0  0  0
  -27.1474  -28.8548   20.6865 C   0  0  0  0  0  0
  -26.0196  -27.0050   19.5779 C   0  0  0  0  0  0
  -24.8529  -27.7927   19.3954 C   0  0  0  0  0  0
  -23.5693  -29.8634   20.1253 C   0  0  0  0  0  0
  -25.4130  -36.2990   24.0311 C   0  0  1  0  0  0
  -20.3165  -28.2468   22.6449 C   0  0  2  0  0  0
  -20.5769  -26.7818   22.7771 C   0  0  0  0  0  0
  -19.2558  -26.1082   22.1637 C   0  0  0  0  0  0
  -17.8123  -26.8125   22.0041 C   0  0  0  0  0  0
  -19.0264  -28.8289   23.1051 C   0  0  0  0  0  0
  -18.8589  -30.1045   23.7082 C   0  0  0  0  0  0
  -17.5739  -30.6670   23.9621 C   0  0  0  0  0  0
  -25.8977  -34.9233   23.5085 C   0  0  0  0  0  0
  -16.4062  -29.9416   23.7032 C   0  0  0  0  0  0
  -16.6280  -28.7038   23.1376 C   0  0  0  0  0  0
  -26.4214  -31.6670   25.0528 C   0  0  0  0  0  0
  -25.3584  -31.3871   26.1433 C   0  0  0  0  0  0
  -27.0172  -30.3188   24.6125 C   0  0  0  0  0  0
  -27.5904  -32.4240   25.7458 C   0  0  0  0  0  0
  -27.5634  -37.1860   24.8474 C   0  0  0  0  0  0
  -21.4526  -29.0036   22.1878 N   0  0  0  0  0  0
  -26.4362  -37.3715   23.9393 N   0  0  0  0  0  0
  -24.6134  -31.0472   22.1151 N   0  0  0  0  0  0
  -23.4164  -28.7152   23.3404 O   0  0  0  0  0  0
  -27.8068  -26.6150   21.0224 O   0  0  0  0  0  0
  -26.5372  -34.8800   22.4530 O   0  0  0  0  0  0
  -23.4549  -32.0620   23.8359 O   0  0  0  0  0  0
  -25.6825  -20.8661   21.3710 C   0  0  0  0  0  0
  -24.0921  -22.7201   20.8429 C   0  0  0  0  0  0
  -26.0022  -20.1443   19.9745 C   0  0  0  0  0  0
  -24.3491  -22.5074   19.4915 C   0  0  0  0  0  0
  -25.1419  -21.1987   19.0995 C   0  0  0  0  0  0
  -24.8933  -22.1052   21.7514 C   0  0  0  0  0  0
  -27.0017  -18.2675   19.9307 C   0  0  0  0  0  0
  -25.9520  -25.5685   23.0650 C   0  0  0  0  0  0
  -23.7113  -23.8033   18.6084 C   0  0  0  0  0  0
  -23.4544  -21.7836   16.8442 C   0  0  0  0  0  0
  -24.9062  -21.3172   17.4355 C   0  0  0  0  0  0
  -26.8952  -26.6895   22.3292 C   0  0  0  0  0  0
  -24.8401  -24.5980   22.5036 C   0  0  0  0  0  0
  -25.8128  -17.8009   19.6601 N   0  0  0  0  0  0
  -26.3152  -25.4443   24.2250 O   0  0  0  0  0  0
  -25.3435  -23.1132   22.6553 O   0  0  0  0  0  0
  -30.3531  -14.9396   18.7587 H   0  0  0  0  0  0
  -30.5954  -13.9794   20.1890 H   0  0  0  0  0  0
  -30.2843  -12.4971   18.1929 H   0  0  0  0  0  0
  -29.0816  -13.5676   17.5123 H   0  0  0  0  0  0
  -28.6207  -11.5561   19.7009 H   0  0  0  0  0  0
  -27.6563  -11.7885   18.2321 H   0  0  0  0  0  0
  -27.0641  -13.9646   19.0149 H   0  0  0  0  0  0
  -28.8759  -13.4535   21.4559 H   0  0  0  0  0  0
  -27.5038  -14.4894   21.6402 H   0  0  0  0  0  0
  -25.2584   -9.5552   22.4841 H   0  0  0  0  0  0
  -23.9910   -7.4435   22.7550 H   0  0  0  0  0  0
  -21.0685   -8.8565   19.8908 H   0  0  0  0  0  0
  -22.3575  -10.9484   19.6178 H   0  0  0  0  0  0
  -21.1953   -7.6099   23.9703 H   0  0  0  0  0  0
  -21.1479   -6.0497   25.9089 H   0  0  0  0  0  0
  -22.0615   -2.7560   23.2918 H   0  0  0  0  0  0
  -22.3487  -11.9604   22.4994 H   0  0  0  0  0  0
  -21.0429  -13.0929   22.2947 H   0  0  0  0  0  0
  -24.4756  -15.7751   20.4459 H   0  0  0  0  0  0
  -26.0388  -15.5846   19.9034 H   0  0  0  0  0  0
  -26.6288  -32.5095   23.0764 H   0  0  0  0  0  0
  -25.0805  -33.9484   25.0905 H   0  0  0  0  0  0
  -22.4983  -31.0049   21.5618 H   0  0  0  0  0  0
  -23.3752  -35.9729   23.3195 H   0  0  0  0  0  0
  -24.3751  -36.9011   22.2065 H   0  0  0  0  0  0
  -23.7349  -37.6583   23.6624 H   0  0  0  0  0  0
  -25.8852  -31.7233   20.6864 H   0  0  0  0  0  0
  -26.7139  -30.8776   21.9983 H   0  0  0  0  0  0
  -27.9477  -29.2431   21.2681 H   0  0  0  0  0  0
  -25.9543  -25.9670   19.3234 H   0  0  0  0  0  0
  -24.0165  -27.4184   18.8335 H   0  0  0  0  0  0
  -23.6997  -30.8062   19.5983 H   0  0  0  0  0  0
  -22.7079  -29.4094   19.5756 H   0  0  0  0  0  0
  -25.1289  -36.1814   25.0793 H   0  0  0  0  0  0
  -20.1258  -28.3394   21.5471 H   0  0  0  0  0  0
  -21.6250  -26.6316   22.3038 H   0  0  0  0  0  0
  -20.7128  -26.5878   23.8923 H   0  0  0  0  0  0
  -18.9965  -25.6628   23.1812 H   0  0  0  0  0  0
  -19.2269  -25.3033   21.4316 H   0  0  0  0  0  0
  -17.1618  -27.0092   21.1894 H   0  0  0  0  0  0
  -17.0181  -26.3619   22.4843 H   0  0  0  0  0  0
  -19.7383  -30.7052   24.1173 H   0  0  0  0  0  0
  -17.6044  -31.6468   24.3955 H   0  0  0  0  0  0
  -15.4378  -30.3651   23.9752 H   0  0  0  0  0  0
  -15.6425  -28.1950   22.9793 H   0  0  0  0  0  0
  -24.5566  -30.7501   25.7753 H   0  0  0  0  0  0
  -24.9013  -32.3179   26.4902 H   0  0  0  0  0  0
  -25.7788  -30.8755   27.0202 H   0  0  0  0  0  0
  -26.2492  -29.7193   24.1437 H   0  0  0  0  0  0
  -27.4083  -29.7465   25.4602 H   0  0  0  0  0  0
  -27.8422  -30.4473   23.9163 H   0  0  0  0  0  0
  -27.2722  -33.3632   26.2269 H   0  0  0  0  0  0
  -28.4051  -32.6700   25.0488 H   0  0  0  0  0  0
  -28.0448  -31.8136   26.5486 H   0  0  0  0  0  0
  -28.2493  -38.0282   24.7547 H   0  0  0  0  0  0
  -28.1242  -36.2790   24.6206 H   0  0  0  0  0  0
  -27.2369  -37.1471   25.8873 H   0  0  0  0  0  0
  -21.1976  -28.8742   21.1849 H   0  0  0  0  0  0
  -26.0180  -38.2747   24.1394 H   0  0  0  0  0  0
  -26.2934  -20.5740   22.1898 H   0  0  0  0  0  0
  -23.3745  -23.5849   21.1439 H   0  0  0  0  0  0
  -24.3526  -24.3598   17.9254 H   0  0  0  0  0  0
  -23.4245  -24.6430   19.1978 H   0  0  0  0  0  0
  -22.6540  -23.7022   18.3116 H   0  0  0  0  0  0
  -23.4123  -22.8388   16.4862 H   0  0  0  0  0  0
  -22.4964  -21.7238   17.4090 H   0  0  0  0  0  0
  -23.2938  -21.3228   15.8942 H   0  0  0  0  0  0
  -25.4606  -22.2574   17.1941 H   0  0  0  0  0  0
  -25.2920  -20.4698   16.9361 H   0  0  0  0  0  0
  -27.0938  -27.5708   23.0050 H   0  0  0  0  0  0
  -25.9548  -27.0953   21.9267 H   0  0  0  0  0  0
  -24.0478  -24.9447   21.5640 H   0  0  0  0  0  0
  -23.9461  -24.6569   23.1761 H   0  0  0  0  0  0
  -25.1642  -18.5769   19.6430 H   0  0  0  0  0  0
  1 25  1  0  0  0
  1 30  2  0  0  0
  1 77  1  0  0  0
  2  3  1  0  0  0
  2 25  1  0  0  0
  2 87  1  0  0  0
  2 88  1  0  0  0
  3  4  1  0  0  0
  3 89  1  0  0  0
  3 90  1  0  0  0
  4  5  1  0  0  0
  4 91  1  0  0  0
  4 92  1  0  0  0
  5  6  1  0  0  0
  5 26  1  0  0  0
  5 93  1  0  0  0
  6 25  1  0  0  0
  6 94  1  0  0  0
  6 95  1  0  0  0
  7  8  2  0  0  0
  7 26  1  0  0  0
  7 29  1  0  0  0
  8  9  1  0  0  0
  8 22  1  0  0  0
  9 10  1  0  0  0
  9 27  2  0  0  0
 10 11  2  0  0  0
 10 15  1  0  0  0
 11 12  1  0  0  0
 11 96  1  0  0  0
 12 13  2  0  0  0
 12 97  1  0  0  0
 13 14  1  0  0  0
 13 31  1  0  0  0
 14 15  2  0  0  0
 14 98  1  0  0  0
 15 99  1  0  0  0
 16 17  2  0  0  0
 16 21  1  0  0  0
 16 31  1  0  0  0
 17 18  1  0  0  0
 17100  1  0  0  0
 18 19  2  0  0  0
 18101  1  0  0  0
 19 20  1  0  0  0
 19 24  1  0  0  0
 20 21  2  0  0  0
 20102  1  0  0  0
 21 23  1  0  0  0
 22 28  1  0  0  0
 22 32  2  0  0  0
 26 27  1  0  0  0
 28103  1  0  0  0
 28104  1  0  0  0
 29105  1  0  0  0
 29106  1  0  0  0
 33 34  1  0  0  0
 33 66  1  0  0  0
 33 70  2  0  0  0
 34 36  1  0  0  0
 34 59  1  0  0  0
 34107  1  0  0  0
 35 44  2  0  0  0
 35 45  1  0  0  0
 35 68  1  0  0  0
 36 56  1  0  0  0
 36108  1  0  0  0
 37 39  1  0  0  0
 37 47  1  0  0  0
 37 66  1  0  0  0
 37109  1  0  0  0
 38 43  2  0  0  0
 38 46  1  0  0  0
 38 47  1  0  0  0
 39 64  1  0  0  0
 39 67  2  0  0  0
 40 52  1  0  0  0
 40 53  2  0  0  0
 40 58  1  0  0  0
 41110  1  0  0  0
 41111  1  0  0  0
 41112  1  0  0  0
 41 48  1  0  0  0
 42 43  1  0  0  0
 42 66  1  0  0  0
 42113  1  0  0  0
 42114  1  0  0  0
 43 44  1  0  0  0
 44115  1  0  0  0
 45 46  2  0  0  0
 45116  1  0  0  0
 46117  1  0  0  0
 47118  1  0  0  0
 47119  1  0  0  0
 48 56  1  0  0  0
 48 65  1  0  0  0
 48120  1  0  0  0
 49 50  1  0  0  0
 49 53  1  0  0  0
 49 64  1  0  0  0
 49121  1  0  0  0
 50 51  1  0  0  0
 50122  1  0  0  0
 50123  1  0  0  0
 51 52  1  0  0  0
 51124  1  0  0  0
 51125  1  0  0  0
 52126  1  0  0  0
 52127  1  0  0  0
 53 54  1  0  0  0
 54 55  2  0  0  0
 54128  1  0  0  0
 55 57  1  0  0  0
 55129  1  0  0  0
 56 69  2  0  0  0
 57 58  2  0  0  0
 57130  1  0  0  0
 58131  1  0  0  0
 59 60  1  0  0  0
 59 61  1  0  0  0
 59 62  1  0  0  0
 60132  1  0  0  0
 60133  1  0  0  0
 60134  1  0  0  0
 61135  1  0  0  0
 61136  1  0  0  0
 61137  1  0  0  0
 62138  1  0  0  0
 62139  1  0  0  0
 62140  1  0  0  0
 63 65  1  0  0  0
 63141  1  0  0  0
 63142  1  0  0  0
 63143  1  0  0  0
 64144  1  0  0  0
 65145  1  0  0  0
 68 82  1  0  0  0
 71 73  2  0  0  0
 71 76  1  0  0  0
 71146  1  0  0  0
 72 74  1  0  0  0
 72 76  2  0  0  0
 72147  1  0  0  0
 73 75  1  0  0  0
 73 77  1  0  0  0
 74 75  2  0  0  0
 74 79  1  0  0  0
 75 81  1  0  0  0
 76 86  1  0  0  0
 77 84  2  0  0  0
 78 82  1  0  0  0
 78 83  1  0  0  0
 78 85  2  0  0  0
 79148  1  0  0  0
 79149  1  0  0  0
 79150  1  0  0  0
 80 81  1  0  0  0
 80151  1  0  0  0
 80152  1  0  0  0
 80153  1  0  0  0
 81154  1  0  0  0
 81155  1  0  0  0
 82156  1  0  0  0
 82157  1  0  0  0
 83 86  1  0  0  0
 83158  1  0  0  0
 83159  1  0  0  0
 84160  1  0  0  0
M  ISO  4   1 100  68 101  77 100  82 101
M  END
> <chiral flag>
0

> <version>
0

> <s_m_source_file>
/data/baiqing/PycharmProjects/Reinvent-master-3.2/result/LINK_invent/BTK/process_docking_weight1_custom_product_contain_oxygen_bond_distance_aromatic_linkinvent_7_9_3/rearranged_h_0120.sdf

> <i_m_source_file_index>
60

> <r_mmod_Potential_Energy-OPLS-2005>
7332.96630859375

> <r_mmod_Stretch_Energy-OPLS-2005>
2234.13061523438

> <r_mmod_Bend_Energy-OPLS-2005>
1499.03784179688

> <r_mmod_Torsional_Energy-OPLS-2005>
479.176330566406

> <r_mmod_Improper_Torsional_Energy-OPLS-2005>
36.9254913330078

> <r_mmod_Van_der_Waal_Energy-OPLS-2005>
323.470123291016

> <r_mmod_Electrostatic_Energy-OPLS-2005>
-220.619583129883

> <r_mmod_Solvation_Energy-OPLS-2005>
-231.720169067383

> <b_mmod_Minimization_Converged-OPLS-2005>
0

> <r_mmod_RMS_Derivative-OPLS-2005>
99.9990005493164

$$$$
60
                    3D
 Structure written by MMmdl.
158166  0  0  1  0            999 V2000
  -30.7194  -14.5574   20.3963 C   0  0  0  0  0  0
  -30.4278  -12.3344   19.4217 C   0  0  0  0  0  0
  -29.4964  -12.4326   18.1990 C   0  0  0  0  0  0
  -28.0144  -12.3431   18.6143 C   0  0  0  0  0  0
  -27.6512  -13.2255   19.8424 C   0  0  2  0  0  0
  -28.7114  -13.1162   20.9590 C   0  0  0  0  0  0
  -25.2567  -13.8174   20.5737 C   0  0  0  0  0  0
  -24.1854  -13.0459   20.9188 C   0  0  0  0  0  0
  -24.6456  -11.6923   20.8785 C   0  0  0  0  0  0
  -23.9172  -10.4303   21.0453 C   0  0  0  0  0  0
  -24.3709   -9.4174   21.9206 C   0  0  0  0  0  0
  -23.6355   -8.2229   22.0788 C   0  0  0  0  0  0
  -22.4318   -8.0311   21.3595 C   0  0  0  0  0  0
  -22.0009   -9.0290   20.4654 C   0  0  0  0  0  0
  -22.7369  -10.2149   20.3055 C   0  0  0  0  0  0
  -21.6844   -6.0768   22.5298 C   0  0  0  0  0  0
  -21.4017   -6.5671   23.8219 C   0  0  0  0  0  0
  -21.3650   -5.6826   24.9184 C   0  0  0  0  0  0
  -21.6019   -4.3082   24.7216 C   0  0  0  0  0  0
  -21.8817   -3.8175   23.4341 C   0  0  0  0  0  0
  -21.9184   -4.6996   22.3401 C   0  0  0  0  0  0
  -22.7870  -13.5214   21.1873 C   0  0  0  0  0  0
  -22.1671   -4.2183   21.0995 F   0  0  0  0  0  0
  -21.5587   -3.4556   25.7732 F   0  0  0  0  0  0
  -30.0201  -13.3923   20.3527 N   0  0  0  0  0  0
  -26.3035  -12.9397   20.3325 N   0  0  0  0  0  0
  -25.9396  -11.6545   20.5844 N   0  0  0  0  0  0
  -22.0544  -12.8151   22.0383 N   0  0  0  0  0  0
  -25.4227  -15.1928   20.4262 N   0  0  0  0  0  0
  -31.9402  -14.5704   20.4686 O   0  0  0  0  0  0
  -21.6647   -6.8934   21.4285 O   0  0  0  0  0  0
  -22.3531  -14.5539   20.6756 O   0  0  0  0  0  0
  -24.6172  -31.8740   23.2159 C   0  0  0  0  0  0
  -25.9068  -32.4861   23.8447 C   0  0  1  0  0  0
  -27.2088  -27.3998   20.0680 C   0  0  0  0  0  0
  -25.5942  -33.8654   24.2385 N   0  0  0  0  0  0
  -23.4050  -30.5100   21.5635 C   0  0  2  0  0  0
  -24.8371  -28.9851   20.1189 C   0  0  0  0  0  0
  -22.7416  -29.4708   22.4979 C   0  0  0  0  0  0
  -18.0283  -28.1408   22.8514 C   0  0  0  0  0  0
  -24.1479  -36.7278   23.2642 C   0  0  0  0  0  0
  -25.9457  -30.8308   21.3763 C   0  0  0  0  0  0
  -26.0139  -29.4698   20.7032 C   0  0  0  0  0  0
  -27.1992  -28.6908   20.6672 C   0  0  0  0  0  0
  -25.9866  -26.9354   19.5149 C   0  0  0  0  0  0
  -24.8187  -27.7142   19.5317 C   0  0  0  0  0  0
  -23.6125  -29.8708   20.1713 C   0  0  0  0  0  0
  -25.4112  -36.3127   24.0349 C   0  0  1  0  0  0
  -20.5889  -28.3673   23.1330 C   0  0  2  0  0  0
  -20.6800  -26.9427   22.5421 C   0  0  0  0  0  0
  -19.5768  -26.6416   21.5240 C   0  0  0  0  0  0
  -18.1934  -26.7965   22.1646 C   0  0  0  0  0  0
  -19.1538  -28.8847   23.2933 C   0  0  0  0  0  0
  -18.9455  -30.1463   23.8935 C   0  0  0  0  0  0
  -17.6457  -30.6611   24.0589 C   0  0  0  0  0  0
  -25.9046  -34.9492   23.5153 C   0  0  0  0  0  0
  -16.5355  -29.9118   23.6344 C   0  0  0  0  0  0
  -16.7282  -28.6546   23.0357 C   0  0  0  0  0  0
  -26.4476  -31.6629   25.0775 C   0  0  0  0  0  0
  -25.3707  -31.3713   26.1495 C   0  0  0  0  0  0
  -27.0325  -30.3079   24.6148 C   0  0  0  0  0  0
  -27.6042  -32.4334   25.7548 C   0  0  0  0  0  0
  -27.5592  -37.1814   24.8459 C   0  0  0  0  0  0
  -21.4138  -29.3056   22.3716 N   0  0  0  0  0  0
  -26.4277  -37.3827   23.9433 N   0  0  0  0  0  0
  -24.6768  -31.0811   22.1100 N   0  0  0  0  0  0
  -23.4181  -28.8209   23.2991 O   0  0  0  0  0  0
  -28.3641  -26.6171   20.0805 O   0  0  0  0  0  0
  -26.5590  -34.8926   22.4706 O   0  0  0  0  0  0
  -23.5351  -32.1488   23.7547 O   0  0  0  0  0  0
  -30.0450  -18.1754   19.8087 C   0  0  0  0  0  0
  -32.0359  -18.1214   17.8808 C   0  0  0  0  0  0
  -30.4331  -19.4120   19.1968 C   0  0  0  0  0  0
  -31.4792  -19.3595   18.2362 C   0  0  0  0  0  0
  -31.6003  -16.8983   18.4157 C   0  0  0  0  0  0
  -30.6013  -16.9008   19.4401 C   0  0  0  0  0  0
  -29.6478  -20.6739   19.4384 C   0  0  0  0  0  0
  -30.0634  -21.9653   19.5536 C   0  0  0  0  0  0
  -29.1342  -23.0985   19.4871 C   0  0  0  0  0  0
  -29.4739  -24.4109   19.4465 C   0  0  0  0  0  0
  -31.9782  -20.5421   17.4148 C   0  0  0  0  0  0
  -32.1988  -15.6625   17.7311 C   0  0  0  0  0  0
  -28.4989  -25.5473   19.1054 C   0  0  0  0  0  0
  -30.0551  -15.6818   20.0204 N   0  0  0  0  0  0
  -31.4664  -12.4459   19.0988 H   0  0  0  0  0  0
  -30.3521  -11.3567   19.8973 H   0  0  0  0  0  0
  -29.7278  -11.6284   17.4976 H   0  0  0  0  0  0
  -29.6823  -13.3649   17.6629 H   0  0  0  0  0  0
  -27.8063  -11.2976   18.8392 H   0  0  0  0  0  0
  -27.3767  -12.6020   17.7677 H   0  0  0  0  0  0
  -27.6545  -14.2564   19.4932 H   0  0  0  0  0  0
  -28.7055  -12.1148   21.3918 H   0  0  0  0  0  0
  -28.5064  -13.8053   21.7816 H   0  0  0  0  0  0
  -25.2882   -9.5588   22.4764 H   0  0  0  0  0  0
  -23.9994   -7.4619   22.7530 H   0  0  0  0  0  0
  -21.0934   -8.8885   19.8951 H   0  0  0  0  0  0
  -22.3912  -10.9720   19.6138 H   0  0  0  0  0  0
  -21.2052   -7.6170   23.9730 H   0  0  0  0  0  0
  -21.1472   -6.0558   25.9081 H   0  0  0  0  0  0
  -22.0603   -2.7647   23.2834 H   0  0  0  0  0  0
  -22.4222  -11.9783   22.4677 H   0  0  0  0  0  0
  -21.1133  -13.1069   22.2634 H   0  0  0  0  0  0
  -24.6638  -15.8434   20.5939 H   0  0  0  0  0  0
  -26.2866  -15.6609   20.1865 H   0  0  0  0  0  0
  -26.7152  -32.5554   23.1214 H   0  0  0  0  0  0
  -25.0124  -33.9847   25.0553 H   0  0  0  0  0  0
  -22.6964  -31.3310   21.4392 H   0  0  0  0  0  0
  -23.3777  -35.9561   23.3274 H   0  0  0  0  0  0
  -24.3595  -36.8912   22.2057 H   0  0  0  0  0  0
  -23.7154  -37.6443   23.6675 H   0  0  0  0  0  0
  -26.0818  -31.6124   20.6267 H   0  0  0  0  0  0
  -26.8245  -30.8605   22.0092 H   0  0  0  0  0  0
  -28.1055  -29.0804   21.1094 H   0  0  0  0  0  0
  -25.8571  -25.9542   19.0948 H   0  0  0  0  0  0
  -23.8970  -27.3247   19.1184 H   0  0  0  0  0  0
  -23.7492  -30.6705   19.4406 H   0  0  0  0  0  0
  -22.7239  -29.3271   19.8462 H   0  0  0  0  0  0
  -25.1284  -36.2009   25.0838 H   0  0  0  0  0  0
  -21.0014  -28.3250   24.1439 H   0  0  0  0  0  0
  -20.5758  -26.2271   23.3603 H   0  0  0  0  0  0
  -21.6655  -26.7507   22.1184 H   0  0  0  0  0  0
  -19.6932  -25.6327   21.1254 H   0  0  0  0  0  0
  -19.6701  -27.3234   20.6787 H   0  0  0  0  0  0
  -17.4220  -26.6746   21.4020 H   0  0  0  0  0  0
  -18.0288  -26.0087   22.9016 H   0  0  0  0  0  0
  -19.7931  -30.7295   24.2311 H   0  0  0  0  0  0
  -17.5019  -31.6294   24.5191 H   0  0  0  0  0  0
  -15.5365  -30.3044   23.7639 H   0  0  0  0  0  0
  -15.8690  -28.0897   22.7030 H   0  0  0  0  0  0
  -24.5881  -30.7070   25.7802 H   0  0  0  0  0  0
  -24.8877  -32.2858   26.4942 H   0  0  0  0  0  0
  -25.8031  -30.8864   27.0254 H   0  0  0  0  0  0
  -26.2916  -29.6861   24.1106 H   0  0  0  0  0  0
  -27.4015  -29.7287   25.4615 H   0  0  0  0  0  0
  -27.8770  -30.4418   23.9388 H   0  0  0  0  0  0
  -27.2677  -33.3622   26.2168 H   0  0  0  0  0  0
  -28.3849  -32.6912   25.0376 H   0  0  0  0  0  0
  -28.0718  -31.8414   26.5437 H   0  0  0  0  0  0
  -28.2587  -38.0152   24.7624 H   0  0  0  0  0  0
  -28.1149  -36.2692   24.6177 H   0  0  0  0  0  0
  -27.2328  -37.1318   25.8868 H   0  0  0  0  0  0
  -20.9258  -29.8765   21.6952 H   0  0  0  0  0  0
  -26.0168  -38.2886   24.1497 H   0  0  0  0  0  0
  -29.2629  -18.2123   20.5552 H   0  0  0  0  0  0
  -32.7764  -18.1101   17.0949 H   0  0  0  0  0  0
  -28.5787  -20.5203   19.4212 H   0  0  0  0  0  0
  -31.1198  -22.1917   19.6330 H   0  0  0  0  0  0
  -28.0846  -22.8538   19.3966 H   0  0  0  0  0  0
  -30.5032  -24.7100   19.5779 H   0  0  0  0  0  0
  -33.0309  -20.4028   17.1717 H   0  0  0  0  0  0
  -31.9074  -21.5183   17.8763 H   0  0  0  0  0  0
  -31.4302  -20.5740   16.4729 H   0  0  0  0  0  0
  -32.7781  -15.0028   18.3716 H   0  0  0  0  0  0
  -32.9171  -15.9610   16.9668 H   0  0  0  0  0  0
  -31.4279  -15.0918   17.2197 H   0  0  0  0  0  0
  -27.5841  -25.0495   18.8011 H   0  0  0  0  0  0
  -28.8792  -26.0162   18.1977 H   0  0  0  0  0  0
  -29.0497  -15.5964   19.9926 H   0  0  0  0  0  0
  1 25  1  0  0  0
  1 30  2  0  0  0
  1 84  1  0  0  0
  2  3  1  0  0  0
  2 25  1  0  0  0
  2 85  1  0  0  0
  2 86  1  0  0  0
  3  4  1  0  0  0
  3 87  1  0  0  0
  3 88  1  0  0  0
  4  5  1  0  0  0
  4 89  1  0  0  0
  4 90  1  0  0  0
  5  6  1  0  0  0
  5 26  1  0  0  0
  5 91  1  0  0  0
  6 25  1  0  0  0
  6 92  1  0  0  0
  6 93  1  0  0  0
  7  8  2  0  0  0
  7 26  1  0  0  0
  7 29  1  0  0  0
  8  9  1  0  0  0
  8 22  1  0  0  0
  9 10  1  0  0  0
  9 27  2  0  0  0
 10 11  2  0  0  0
 10 15  1  0  0  0
 11 12  1  0  0  0
 11 94  1  0  0  0
 12 13  2  0  0  0
 12 95  1  0  0  0
 13 14  1  0  0  0
 13 31  1  0  0  0
 14 15  2  0  0  0
 14 96  1  0  0  0
 15 97  1  0  0  0
 16 17  2  0  0  0
 16 21  1  0  0  0
 16 31  1  0  0  0
 17 18  1  0  0  0
 17 98  1  0  0  0
 18 19  2  0  0  0
 18 99  1  0  0  0
 19 20  1  0  0  0
 19 24  1  0  0  0
 20 21  2  0  0  0
 20100  1  0  0  0
 21 23  1  0  0  0
 22 28  1  0  0  0
 22 32  2  0  0  0
 26 27  1  0  0  0
 28101  1  0  0  0
 28102  1  0  0  0
 29103  1  0  0  0
 29104  1  0  0  0
 33 34  1  0  0  0
 33 66  1  0  0  0
 33 70  2  0  0  0
 34 36  1  0  0  0
 34 59  1  0  0  0
 34105  1  0  0  0
 35 44  2  0  0  0
 35 45  1  0  0  0
 35 68  1  0  0  0
 36 56  1  0  0  0
 36106  1  0  0  0
 37 39  1  0  0  0
 37 47  1  0  0  0
 37 66  1  0  0  0
 37107  1  0  0  0
 38 43  2  0  0  0
 38 46  1  0  0  0
 38 47  1  0  0  0
 39 64  1  0  0  0
 39 67  2  0  0  0
 40 52  1  0  0  0
 40 53  2  0  0  0
 40 58  1  0  0  0
 41108  1  0  0  0
 41109  1  0  0  0
 41110  1  0  0  0
 41 48  1  0  0  0
 42 43  1  0  0  0
 42 66  1  0  0  0
 42111  1  0  0  0
 42112  1  0  0  0
 43 44  1  0  0  0
 44113  1  0  0  0
 45 46  2  0  0  0
 45114  1  0  0  0
 46115  1  0  0  0
 47116  1  0  0  0
 47117  1  0  0  0
 48 56  1  0  0  0
 48 65  1  0  0  0
 48118  1  0  0  0
 49 50  1  0  0  0
 49 53  1  0  0  0
 49 64  1  0  0  0
 49119  1  0  0  0
 50 51  1  0  0  0
 50120  1  0  0  0
 50121  1  0  0  0
 51 52  1  0  0  0
 51122  1  0  0  0
 51123  1  0  0  0
 52124  1  0  0  0
 52125  1  0  0  0
 53 54  1  0  0  0
 54 55  2  0  0  0
 54126  1  0  0  0
 55 57  1  0  0  0
 55127  1  0  0  0
 56 69  2  0  0  0
 57 58  2  0  0  0
 57128  1  0  0  0
 58129  1  0  0  0
 59 60  1  0  0  0
 59 61  1  0  0  0
 59 62  1  0  0  0
 60130  1  0  0  0
 60131  1  0  0  0
 60132  1  0  0  0
 61133  1  0  0  0
 61134  1  0  0  0
 61135  1  0  0  0
 62136  1  0  0  0
 62137  1  0  0  0
 62138  1  0  0  0
 63 65  1  0  0  0
 63139  1  0  0  0
 63140  1  0  0  0
 63141  1  0  0  0
 64142  1  0  0  0
 65143  1  0  0  0
 68 83  1  0  0  0
 71 73  2  0  0  0
 71 76  1  0  0  0
 71144  1  0  0  0
 72 74  2  0  0  0
 72 75  1  0  0  0
 72145  1  0  0  0
 73 74  1  0  0  0
 73 77  1  0  0  0
 74 81  1  0  0  0
 75 76  2  0  0  0
 75 82  1  0  0  0
 76 84  1  0  0  0
 77 78  2  0  0  0
 77146  1  0  0  0
 78 79  1  0  0  0
 78147  1  0  0  0
 79 80  2  0  0  0
 79148  1  0  0  0
 80 83  1  0  0  0
 80149  1  0  0  0
 81150  1  0  0  0
 81151  1  0  0  0
 81152  1  0  0  0
 82153  1  0  0  0
 82154  1  0  0  0
 82155  1  0  0  0
 83156  1  0  0  0
 83157  1  0  0  0
 84158  1  0  0  0
M  ISO  4   1 100  68 101  83 101  84 100
M  END
> <chiral flag>
0

> <version>
0

> <s_m_source_file>
/data/baiqing/PycharmProjects/Reinvent-master-3.2/result/LINK_invent/BTK/process_docking_weight1_custom_product_contain_oxygen_bond_distance_aromatic_linkinvent_7_9_3/rearranged_h_0120.sdf

> <i_m_source_file_index>
61

> <r_mmod_Potential_Energy-OPLS-2005>
116.649726867676

> <r_mmod_Stretch_Energy-OPLS-2005>
55.11328125

> <r_mmod_Bend_Energy-OPLS-2005>
132.104064941406

> <r_mmod_Torsional_Energy-OPLS-2005>
274.328338623047

> <r_mmod_Improper_Torsional_Energy-OPLS-2005>
13.3616762161255

> <r_mmod_Van_der_Waal_Energy-OPLS-2005>
168.110855102539

> <r_mmod_Electrostatic_Energy-OPLS-2005>
-376.044158935547

> <r_mmod_Solvation_Energy-OPLS-2005>
-205.294189453125

> <b_mmod_Minimization_Converged-OPLS-2005>
0

> <r_mmod_RMS_Derivative-OPLS-2005>
6.84768676757812

$$$$
61
                    3D
 Structure written by MMmdl.
157165  0  0  1  0            999 V2000
  -30.6701  -14.5122   20.5500 C   0  0  0  0  0  0
  -30.4281  -12.3272   19.4182 C   0  0  0  0  0  0
  -29.4964  -12.5047   18.2020 C   0  0  0  0  0  0
  -28.0173  -12.3549   18.6165 C   0  0  0  0  0  0
  -27.6556  -13.2050   19.8635 C   0  0  2  0  0  0
  -28.7011  -13.0085   20.9837 C   0  0  0  0  0  0
  -25.2584  -13.8155   20.5656 C   0  0  0  0  0  0
  -24.1842  -13.0438   20.9190 C   0  0  0  0  0  0
  -24.6390  -11.6903   20.8726 C   0  0  0  0  0  0
  -23.9052  -10.4291   21.0382 C   0  0  0  0  0  0
  -24.3613   -9.4212   21.9168 C   0  0  0  0  0  0
  -23.6291   -8.2253   22.0749 C   0  0  0  0  0  0
  -22.4270   -8.0282   21.3547 C   0  0  0  0  0  0
  -21.9895   -9.0250   20.4651 C   0  0  0  0  0  0
  -22.7222  -10.2131   20.3043 C   0  0  0  0  0  0
  -21.6866   -6.0735   22.5279 C   0  0  0  0  0  0
  -21.4028   -6.5640   23.8209 C   0  0  0  0  0  0
  -21.3659   -5.6790   24.9170 C   0  0  0  0  0  0
  -21.6044   -4.3056   24.7222 C   0  0  0  0  0  0
  -21.8827   -3.8150   23.4342 C   0  0  0  0  0  0
  -21.9202   -4.6964   22.3403 C   0  0  0  0  0  0
  -22.7860  -13.5230   21.1847 C   0  0  0  0  0  0
  -22.1664   -4.2158   21.0979 F   0  0  0  0  0  0
  -21.5624   -3.4537   25.7730 F   0  0  0  0  0  0
  -30.0218  -13.3239   20.4196 N   0  0  0  0  0  0
  -26.3005  -12.9319   20.3317 N   0  0  0  0  0  0
  -25.9320  -11.6491   20.5756 N   0  0  0  0  0  0
  -22.0509  -12.8221   22.0405 N   0  0  0  0  0  0
  -25.4286  -15.1877   20.4027 N   0  0  0  0  0  0
  -31.8336  -14.6811   20.1741 O   0  0  0  0  0  0
  -21.6648   -6.8870   21.4236 O   0  0  0  0  0  0
  -22.3540  -14.5530   20.6688 O   0  0  0  0  0  0
  -24.6173  -31.8666   23.2090 C   0  0  0  0  0  0
  -25.9054  -32.4823   23.8388 C   0  0  1  0  0  0
  -27.2300  -27.4060   20.0865 C   0  0  0  0  0  0
  -25.5895  -33.8617   24.2315 N   0  0  0  0  0  0
  -23.4044  -30.4937   21.5505 C   0  0  2  0  0  0
  -24.8454  -28.9538   20.1174 C   0  0  0  0  0  0
  -22.7408  -29.4672   22.4972 C   0  0  0  0  0  0
  -18.0279  -28.1373   22.8488 C   0  0  0  0  0  0
  -24.1485  -36.7323   23.2636 C   0  0  0  0  0  0
  -25.9376  -30.8219   21.3659 C   0  0  0  0  0  0
  -26.0093  -29.4556   20.7102 C   0  0  0  0  0  0
  -27.1999  -28.6888   20.6911 C   0  0  0  0  0  0
  -26.0308  -26.9166   19.5136 C   0  0  0  0  0  0
  -24.8515  -27.6838   19.5211 C   0  0  0  0  0  0
  -23.6123  -29.8278   20.1653 C   0  0  0  0  0  0
  -25.4109  -36.3118   24.0336 C   0  0  1  0  0  0
  -20.5870  -28.3668   23.1299 C   0  0  2  0  0  0
  -20.6768  -26.9402   22.5403 C   0  0  0  0  0  0
  -19.5752  -26.6383   21.5197 C   0  0  0  0  0  0
  -18.1931  -26.7922   22.1611 C   0  0  0  0  0  0
  -19.1524  -28.8834   23.2899 C   0  0  0  0  0  0
  -18.9452  -30.1436   23.8919 C   0  0  0  0  0  0
  -17.6456  -30.6583   24.0563 C   0  0  0  0  0  0
  -25.9033  -34.9479   23.5129 C   0  0  0  0  0  0
  -16.5349  -29.9082   23.6324 C   0  0  0  0  0  0
  -16.7265  -28.6497   23.0347 C   0  0  0  0  0  0
  -26.4460  -31.6614   25.0735 C   0  0  0  0  0  0
  -25.3714  -31.3738   26.1480 C   0  0  0  0  0  0
  -27.0286  -30.3051   24.6133 C   0  0  0  0  0  0
  -27.6034  -32.4333   25.7501 C   0  0  0  0  0  0
  -27.5594  -37.1814   24.8455 C   0  0  0  0  0  0
  -21.4131  -29.3050   22.3705 N   0  0  0  0  0  0
  -26.4298  -37.3805   23.9413 N   0  0  0  0  0  0
  -24.6719  -31.0757   22.0996 N   0  0  0  0  0  0
  -23.4172  -28.8199   23.3008 O   0  0  0  0  0  0
  -28.4247  -26.6985   20.0924 O   0  0  0  0  0  0
  -26.5599  -34.8936   22.4691 O   0  0  0  0  0  0
  -23.5363  -32.1408   23.7488 O   0  0  0  0  0  0
  -31.2881  -17.0562   22.2295 C   0  0  0  0  0  0
  -31.5487  -18.3334   22.7573 C   0  0  0  0  0  0
  -29.4946  -18.0074   20.8799 C   0  0  0  0  0  0
  -29.7632  -19.3116   21.3864 C   0  0  0  0  0  0
  -30.2463  -16.8726   21.2969 C   0  0  0  0  0  0
  -30.7890  -19.4498   22.3572 C   0  0  0  0  0  0
  -29.5486  -21.7311   20.2940 C   0  0  0  0  0  0
  -28.8758  -20.5146   20.9687 C   0  0  0  0  0  0
  -28.6303  -22.8239   19.7219 C   0  0  0  0  0  0
  -28.7116  -24.2222   20.4139 C   0  0  0  0  0  0
  -28.5586  -25.4181   19.4355 C   0  0  0  0  0  0
  -30.8040  -21.8386   20.1740 N   0  0  0  0  0  0
  -29.8741  -15.5552   20.8803 N   0  0  0  0  0  0
  -31.0581  -20.6492   22.9511 O   0  0  0  0  0  0
  -31.4712  -12.4430   19.1176 H   0  0  0  0  0  0
  -30.3417  -11.3195   19.8276 H   0  0  0  0  0  0
  -29.7452  -11.7783   17.4265 H   0  0  0  0  0  0
  -29.6556  -13.4899   17.7599 H   0  0  0  0  0  0
  -27.8376  -11.2993   18.8224 H   0  0  0  0  0  0
  -27.3656  -12.6155   17.7820 H   0  0  0  0  0  0
  -27.6865  -14.2479   19.5488 H   0  0  0  0  0  0
  -28.6917  -11.9773   21.3396 H   0  0  0  0  0  0
  -28.4678  -13.6235   21.8545 H   0  0  0  0  0  0
  -25.2764   -9.5715   22.4729 H   0  0  0  0  0  0
  -24.0034   -7.4648   22.7456 H   0  0  0  0  0  0
  -21.0836   -8.8745   19.8942 H   0  0  0  0  0  0
  -22.3666  -10.9660   19.6147 H   0  0  0  0  0  0
  -21.2019   -7.6147   23.9714 H   0  0  0  0  0  0
  -21.1470   -6.0518   25.9072 H   0  0  0  0  0  0
  -22.0604   -2.7614   23.2837 H   0  0  0  0  0  0
  -22.4145  -11.9900   22.4806 H   0  0  0  0  0  0
  -21.1117  -13.1232   22.2593 H   0  0  0  0  0  0
  -24.6576  -15.8387   20.5071 H   0  0  0  0  0  0
  -26.2689  -15.6264   20.0485 H   0  0  0  0  0  0
  -26.7130  -32.5509   23.1149 H   0  0  0  0  0  0
  -25.0057  -33.9768   25.0466 H   0  0  0  0  0  0
  -22.6964  -31.3129   21.4121 H   0  0  0  0  0  0
  -23.3755  -35.9648   23.3282 H   0  0  0  0  0  0
  -24.3589  -36.8954   22.2057 H   0  0  0  0  0  0
  -23.7223  -37.6517   23.6656 H   0  0  0  0  0  0
  -26.0578  -31.5883   20.5993 H   0  0  0  0  0  0
  -26.8233  -30.8692   21.9881 H   0  0  0  0  0  0
  -28.1004  -29.0778   21.1451 H   0  0  0  0  0  0
  -25.9544  -25.9408   19.0626 H   0  0  0  0  0  0
  -23.9506  -27.2832   19.0773 H   0  0  0  0  0  0
  -23.7277  -30.6031   19.4071 H   0  0  0  0  0  0
  -22.7328  -29.2556   19.8654 H   0  0  0  0  0  0
  -25.1290  -36.1988   25.0831 H   0  0  0  0  0  0
  -20.9972  -28.3234   24.1411 H   0  0  0  0  0  0
  -20.5655  -26.2275   23.3589 H   0  0  0  0  0  0
  -21.6641  -26.7430   22.1204 H   0  0  0  0  0  0
  -19.6911  -25.6288   21.1237 H   0  0  0  0  0  0
  -19.6705  -27.3182   20.6722 H   0  0  0  0  0  0
  -17.4195  -26.6655   21.4022 H   0  0  0  0  0  0
  -18.0351  -26.0058   22.9006 H   0  0  0  0  0  0
  -19.7930  -30.7242   24.2302 H   0  0  0  0  0  0
  -17.5015  -31.6270   24.5153 H   0  0  0  0  0  0
  -15.5349  -30.2995   23.7640 H   0  0  0  0  0  0
  -15.8661  -28.0827   22.7053 H   0  0  0  0  0  0
  -24.5864  -30.7111   25.7815 H   0  0  0  0  0  0
  -24.8929  -32.2903   26.4949 H   0  0  0  0  0  0
  -25.8053  -30.8883   27.0228 H   0  0  0  0  0  0
  -26.2835  -29.6837   24.1150 H   0  0  0  0  0  0
  -27.3996  -29.7284   25.4615 H   0  0  0  0  0  0
  -27.8702  -30.4371   23.9327 H   0  0  0  0  0  0
  -27.2647  -33.3618   26.2114 H   0  0  0  0  0  0
  -28.3828  -32.6916   25.0318 H   0  0  0  0  0  0
  -28.0711  -31.8428   26.5389 H   0  0  0  0  0  0
  -28.2594  -38.0132   24.7545 H   0  0  0  0  0  0
  -28.1110  -36.2668   24.6228 H   0  0  0  0  0  0
  -27.2315  -37.1405   25.8856 H   0  0  0  0  0  0
  -20.9268  -29.8800   21.6964 H   0  0  0  0  0  0
  -26.0191  -38.2884   24.1418 H   0  0  0  0  0  0
  -31.8697  -16.2157   22.5824 H   0  0  0  0  0  0
  -32.3279  -18.4451   23.4982 H   0  0  0  0  0  0
  -28.6832  -17.8739   20.1781 H   0  0  0  0  0  0
  -28.3687  -20.8728   21.8653 H   0  0  0  0  0  0
  -28.0812  -20.1586   20.3125 H   0  0  0  0  0  0
  -27.5959  -22.4754   19.7217 H   0  0  0  0  0  0
  -28.8930  -22.9353   18.6696 H   0  0  0  0  0  0
  -29.6643  -24.3358   20.9333 H   0  0  0  0  0  0
  -27.9435  -24.2797   21.1847 H   0  0  0  0  0  0
  -27.7954  -25.2111   18.6912 H   0  0  0  0  0  0
  -29.4747  -25.4753   18.8461 H   0  0  0  0  0  0
  -31.2895  -21.0323   20.5541 H   0  0  0  0  0  0
  -28.8876  -15.3488   20.8897 H   0  0  0  0  0  0
  -30.6258  -21.3889   22.5371 H   0  0  0  0  0  0
  1 25  1  0  0  0
  1 30  2  0  0  0
  1 83  1  0  0  0
  2  3  1  0  0  0
  2 25  1  0  0  0
  2 85  1  0  0  0
  2 86  1  0  0  0
  3  4  1  0  0  0
  3 87  1  0  0  0
  3 88  1  0  0  0
  4  5  1  0  0  0
  4 89  1  0  0  0
  4 90  1  0  0  0
  5  6  1  0  0  0
  5 26  1  0  0  0
  5 91  1  0  0  0
  6 25  1  0  0  0
  6 92  1  0  0  0
  6 93  1  0  0  0
  7  8  2  0  0  0
  7 26  1  0  0  0
  7 29  1  0  0  0
  8  9  1  0  0  0
  8 22  1  0  0  0
  9 10  1  0  0  0
  9 27  2  0  0  0
 10 11  2  0  0  0
 10 15  1  0  0  0
 11 12  1  0  0  0
 11 94  1  0  0  0
 12 13  2  0  0  0
 12 95  1  0  0  0
 13 14  1  0  0  0
 13 31  1  0  0  0
 14 15  2  0  0  0
 14 96  1  0  0  0
 15 97  1  0  0  0
 16 17  2  0  0  0
 16 21  1  0  0  0
 16 31  1  0  0  0
 17 18  1  0  0  0
 17 98  1  0  0  0
 18 19  2  0  0  0
 18 99  1  0  0  0
 19 20  1  0  0  0
 19 24  1  0  0  0
 20 21  2  0  0  0
 20100  1  0  0  0
 21 23  1  0  0  0
 22 28  1  0  0  0
 22 32  2  0  0  0
 26 27  1  0  0  0
 28101  1  0  0  0
 28102  1  0  0  0
 29103  1  0  0  0
 29104  1  0  0  0
 33 34  1  0  0  0
 33 66  1  0  0  0
 33 70  2  0  0  0
 34 36  1  0  0  0
 34 59  1  0  0  0
 34105  1  0  0  0
 35 44  2  0  0  0
 35 45  1  0  0  0
 35 68  1  0  0  0
 36 56  1  0  0  0
 36106  1  0  0  0
 37 39  1  0  0  0
 37 47  1  0  0  0
 37 66  1  0  0  0
 37107  1  0  0  0
 38 43  2  0  0  0
 38 46  1  0  0  0
 38 47  1  0  0  0
 39 64  1  0  0  0
 39 67  2  0  0  0
 40 52  1  0  0  0
 40 53  2  0  0  0
 40 58  1  0  0  0
 41108  1  0  0  0
 41109  1  0  0  0
 41110  1  0  0  0
 41 48  1  0  0  0
 42 43  1  0  0  0
 42 66  1  0  0  0
 42111  1  0  0  0
 42112  1  0  0  0
 43 44  1  0  0  0
 44113  1  0  0  0
 45 46  2  0  0  0
 45114  1  0  0  0
 46115  1  0  0  0
 47116  1  0  0  0
 47117  1  0  0  0
 48 56  1  0  0  0
 48 65  1  0  0  0
 48118  1  0  0  0
 49 50  1  0  0  0
 49 53  1  0  0  0
 49 64  1  0  0  0
 49119  1  0  0  0
 50 51  1  0  0  0
 50120  1  0  0  0
 50121  1  0  0  0
 51 52  1  0  0  0
 51122  1  0  0  0
 51123  1  0  0  0
 52124  1  0  0  0
 52125  1  0  0  0
 53 54  1  0  0  0
 54 55  2  0  0  0
 54126  1  0  0  0
 55 57  1  0  0  0
 55127  1  0  0  0
 56 69  2  0  0  0
 57 58  2  0  0  0
 57128  1  0  0  0
 58129  1  0  0  0
 59 60  1  0  0  0
 59 61  1  0  0  0
 59 62  1  0  0  0
 60130  1  0  0  0
 60131  1  0  0  0
 60132  1  0  0  0
 61133  1  0  0  0
 61134  1  0  0  0
 61135  1  0  0  0
 62136  1  0  0  0
 62137  1  0  0  0
 62138  1  0  0  0
 63 65  1  0  0  0
 63139  1  0  0  0
 63140  1  0  0  0
 63141  1  0  0  0
 64142  1  0  0  0
 65143  1  0  0  0
 68 81  1  0  0  0
 71 72  2  0  0  0
 71 75  1  0  0  0
 71144  1  0  0  0
 72 76  1  0  0  0
 72145  1  0  0  0
 73 74  1  0  0  0
 73 75  2  0  0  0
 73146  1  0  0  0
 74 76  2  0  0  0
 74 78  1  0  0  0
 75 83  1  0  0  0
 76 84  1  0  0  0
 77 78  1  0  0  0
 77 79  1  0  0  0
 77 82  2  0  0  0
 78147  1  0  0  0
 78148  1  0  0  0
 79 80  1  0  0  0
 79149  1  0  0  0
 79150  1  0  0  0
 80 81  1  0  0  0
 80151  1  0  0  0
 80152  1  0  0  0
 81153  1  0  0  0
 81154  1  0  0  0
 82155  1  0  0  0
 83156  1  0  0  0
 84157  1  0  0  0
M  ISO  4   1 100  68 101  81 101  83 100
M  END
> <chiral flag>
0

> <version>
0

> <s_m_source_file>
/data/baiqing/PycharmProjects/Reinvent-master-3.2/result/LINK_invent/BTK/process_docking_weight1_custom_product_contain_oxygen_bond_distance_aromatic_linkinvent_7_9_3/rearranged_h_0120.sdf

> <i_m_source_file_index>
62

> <r_mmod_Potential_Energy-OPLS-2005>
-96.8955535888672

> <r_mmod_Stretch_Energy-OPLS-2005>
44.50732421875

> <r_mmod_Bend_Energy-OPLS-2005>
110.088264465332

> <r_mmod_Torsional_Energy-OPLS-2005>
229.06396484375

> <r_mmod_Improper_Torsional_Energy-OPLS-2005>
6.4973726272583

> <r_mmod_Van_der_Waal_Energy-OPLS-2005>
156.032257080078

> <r_mmod_Electrostatic_Energy-OPLS-2005>
-426.728942871094

> <r_mmod_Solvation_Energy-OPLS-2005>
-235.236587524414

> <b_mmod_Minimization_Converged-OPLS-2005>
0

> <r_mmod_RMS_Derivative-OPLS-2005>
1.95296728610992

$$$$
62
                    3D
 Structure written by MMmdl.
166174  0  0  1  0            999 V2000
  -29.4249  -17.0999   20.3180 C   0  0  0  0  0  0
  -30.1650  -14.2209   19.5871 C   0  0  0  0  0  0
  -29.5633  -13.1830   18.5083 C   0  0  0  0  0  0
  -28.2932  -12.4777   18.9820 C   0  0  0  0  0  0
  -27.5340  -13.4996   19.8307 C   0  0  2  0  0  0
  -28.3656  -14.3475   20.8784 C   0  0  0  0  0  0
  -25.1875  -13.8571   20.5920 C   0  0  0  0  0  0
  -24.1518  -13.0451   20.9347 C   0  0  0  0  0  0
  -24.6519  -11.7058   20.8722 C   0  0  0  0  0  0
  -23.9286  -10.4316   21.0321 C   0  0  0  0  0  0
  -24.3765   -9.4237   21.9143 C   0  0  0  0  0  0
  -23.6385   -8.2295   22.0749 C   0  0  0  0  0  0
  -22.4357   -8.0330   21.3547 C   0  0  0  0  0  0
  -22.0033   -9.0306   20.4632 C   0  0  0  0  0  0
  -22.7420  -10.2153   20.3007 C   0  0  0  0  0  0
  -21.6885   -6.0775   22.5281 C   0  0  0  0  0  0
  -21.4037   -6.5664   23.8219 C   0  0  0  0  0  0
  -21.3664   -5.6806   24.9173 C   0  0  0  0  0  0
  -21.6040   -4.3069   24.7214 C   0  0  0  0  0  0
  -21.8816   -3.8171   23.4332 C   0  0  0  0  0  0
  -21.9204   -4.6997   22.3395 C   0  0  0  0  0  0
  -22.7500  -13.5029   21.1957 C   0  0  0  0  0  0
  -22.1667   -4.2180   21.0972 F   0  0  0  0  0  0
  -21.5620   -3.4545   25.7723 F   0  0  0  0  0  0
  -29.2435  -15.4430   20.2159 N   0  0  0  0  0  0
  -26.2574  -13.0298   20.3447 N   0  0  0  0  0  0
  -25.9533  -11.7147   20.5589 N   0  0  0  0  0  0
  -22.0243  -12.7972   22.0526 N   0  0  0  0  0  0
  -25.3061  -15.2349   20.4314 N   0  0  0  0  0  0
  -30.6987  -16.8802   20.2499 O   0  0  0  0  0  0
  -21.6689   -6.8937   21.4251 O   0  0  0  0  0  0
  -22.3126  -14.5317   20.6805 O   0  0  0  0  0  0
  -24.7500  -31.6699   23.2483 C   0  0  0  0  0  0
  -25.9697  -32.4213   23.8628 C   0  0  1  0  0  0
  -28.2760  -26.3898   19.3135 C   0  0  0  0  0  0
  -25.5768  -33.8155   24.1630 N   0  0  0  0  0  0
  -23.3430  -29.9556   21.6985 C   0  0  2  0  0  0
  -24.7889  -27.4069   19.8835 C   0  0  0  0  0  0
  -22.4667  -29.4714   22.7541 C   0  0  0  0  0  0
  -17.9419  -28.1270   22.8402 C   0  0  0  0  0  0
  -24.1518  -36.7059   23.2559 C   0  0  0  0  0  0
  -26.6233  -29.9628   21.9742 C   0  0  0  0  0  0
  -26.8628  -28.2937   20.8903 C   0  0  0  0  0  0
  -28.2203  -27.6858   20.3993 C   0  0  0  0  0  0
  -26.8196  -25.6242   18.4028 C   0  0  0  0  0  0
  -25.0875  -26.1549   18.7259 C   0  0  0  0  0  0
  -23.2004  -28.4249   20.3772 C   0  0  0  0  0  0
  -25.4174  -36.2724   24.0126 C   0  0  1  0  0  0
  -20.4462  -28.3070   23.2019 C   0  0  2  0  0  0
  -20.5610  -26.8795   22.6287 C   0  0  0  0  0  0
  -19.5226  -26.6146   21.5407 C   0  0  0  0  0  0
  -18.1174  -26.7902   22.1321 C   0  0  0  0  0  0
  -19.0515  -28.8528   23.3215 C   0  0  0  0  0  0
  -18.8768  -30.1200   23.9156 C   0  0  0  0  0  0
  -17.5891  -30.6577   24.0590 C   0  0  0  0  0  0
  -25.9161  -34.9126   23.4757 C   0  0  0  0  0  0
  -16.4763  -29.9204   23.6180 C   0  0  0  0  0  0
  -16.6523  -28.6616   23.0125 C   0  0  0  0  0  0
  -26.4864  -31.7753   25.2084 C   0  0  0  0  0  0
  -25.3508  -31.5074   26.2242 C   0  0  0  0  0  0
  -27.1832  -30.4494   25.0347 C   0  0  0  0  0  0
  -27.5834  -32.6464   25.8439 C   0  0  0  0  0  0
  -27.5523  -37.1644   24.8453 C   0  0  0  0  0  0
  -21.2251  -29.2255   22.4177 N   0  0  0  0  0  0
  -26.4264  -37.3529   23.9342 N   0  0  0  0  0  0
  -24.9225  -30.5828   22.4164 N   0  0  0  0  0  0
  -22.9421  -29.1527   23.8152 O   0  0  0  0  0  0
  -29.2581  -25.7155   19.9354 O   0  0  0  0  0  0
  -26.6047  -34.8695   22.4546 O   0  0  0  0  0  0
  -23.6263  -32.0909   23.5718 O   0  0  0  0  0  0
  -25.5722  -26.5098   21.9068 C   0  0  0  0  0  0
  -25.9387  -29.2806   18.8816 C   0  0  0  0  0  0
  -24.9690  -28.1386   22.0185 C   0  0  0  0  0  0
  -25.1702  -29.6195   20.2214 C   0  0  0  0  0  0
  -26.4500  -25.9566   20.6140 C   0  0  0  0  0  0
  -26.6120  -27.8719   18.7227 C   0  0  0  0  0  0
  -27.0521  -27.4684   23.9514 C   0  0  0  0  0  0
  -28.3346  -27.0240   23.6525 C   0  0  0  0  0  0
  -25.6012  -27.8297   23.4735 C   0  0  0  0  0  0
  -24.8262  -31.1265   19.8129 C   0  0  0  0  0  0
  -26.4752  -28.1200   16.3189 C   0  0  0  0  0  0
  -29.3897  -26.5383   22.5769 C   0  0  0  0  0  0
  -28.3739  -19.3141   20.3093 C   0  0  0  0  0  0
  -29.2198  -25.4536   21.4193 C   0  0  0  0  0  0
  -27.8709  -21.8683   20.6540 C   0  0  0  0  0  0
  -24.8601  -27.6578   24.4797 N   0  0  0  0  0  0
  -27.2735  -27.8769   17.4764 O   0  0  0  0  0  0
  -26.9444  -23.9861   20.3778 O   0  0  0  0  0  0
  -30.9993  -14.7061   19.0790 H   0  0  0  0  0  0
  -30.6675  -13.6698   20.3849 H   0  0  0  0  0  0
  -30.3177  -12.4488   18.2228 H   0  0  0  0  0  0
  -29.3288  -13.7406   17.6012 H   0  0  0  0  0  0
  -28.5616  -11.6182   19.5986 H   0  0  0  0  0  0
  -27.6998  -12.1084   18.1432 H   0  0  0  0  0  0
  -27.2431  -14.2320   19.0745 H   0  0  0  0  0  0
  -28.9038  -13.7081   21.5803 H   0  0  0  0  0  0
  -27.6826  -14.8961   21.5246 H   0  0  0  0  0  0
  -25.2892   -9.5709   22.4745 H   0  0  0  0  0  0
  -24.0066   -7.4701   22.7502 H   0  0  0  0  0  0
  -21.0954   -8.8860   19.8945 H   0  0  0  0  0  0
  -22.3881  -10.9694   19.6115 H   0  0  0  0  0  0
  -21.2042   -7.6173   23.9731 H   0  0  0  0  0  0
  -21.1480   -6.0531   25.9075 H   0  0  0  0  0  0
  -22.0587   -2.7632   23.2824 H   0  0  0  0  0  0
  -22.3969  -11.9692   22.4927 H   0  0  0  0  0  0
  -21.0825  -13.0892   22.2719 H   0  0  0  0  0  0
  -24.5114  -15.8559   20.5352 H   0  0  0  0  0  0
  -26.1392  -15.7040   20.1012 H   0  0  0  0  0  0
  -26.7806  -32.4227   23.1337 H   0  0  0  0  0  0
  -24.9430  -33.9329   24.9390 H   0  0  0  0  0  0
  -22.7809  -30.8060   21.3068 H   0  0  0  0  0  0
  -23.3773  -35.9385   23.3125 H   0  0  0  0  0  0
  -24.3589  -36.8834   22.1988 H   0  0  0  0  0  0
  -23.7296  -37.6208   23.6739 H   0  0  0  0  0  0
  -27.1067  -30.7692   21.4212 H   0  0  0  0  0  0
  -27.3233  -29.8298   22.7621 H   0  0  0  0  0  0
  -29.1328  -28.1529   20.7247 H   0  0  0  0  0  0
  -26.9814  -24.7421   17.8016 H   0  0  0  0  0  0
  -24.2649  -25.6860   18.1997 H   0  0  0  0  0  0
  -22.7830  -28.8243   19.4521 H   0  0  0  0  0  0
  -22.4579  -27.7000   20.6893 H   0  0  0  0  0  0
  -25.1381  -36.1418   25.0604 H   0  0  0  0  0  0
  -20.7955  -28.2594   24.2364 H   0  0  0  0  0  0
  -20.3559  -26.1798   23.4408 H   0  0  0  0  0  0
  -21.5737  -26.6325   22.3147 H   0  0  0  0  0  0
  -19.6372  -25.6077   21.1387 H   0  0  0  0  0  0
  -19.6703  -27.3045   20.7092 H   0  0  0  0  0  0
  -17.3718  -26.6899   21.3418 H   0  0  0  0  0  0
  -17.9111  -25.9944   22.8490 H   0  0  0  0  0  0
  -19.7332  -30.6783   24.2697 H   0  0  0  0  0  0
  -17.4510  -31.6271   24.5180 H   0  0  0  0  0  0
  -15.4806  -30.3254   23.7356 H   0  0  0  0  0  0
  -15.7869  -28.1148   22.6645 H   0  0  0  0  0  0
  -24.6444  -30.7533   25.8731 H   0  0  0  0  0  0
  -24.7807  -32.4113   26.4355 H   0  0  0  0  0  0
  -25.7428  -31.1497   27.1781 H   0  0  0  0  0  0
  -26.4505  -29.7861   24.6504 H   0  0  0  0  0  0
  -27.4736  -30.0309   25.9996 H   0  0  0  0  0  0
  -28.1079  -30.5097   24.4624 H   0  0  0  0  0  0
  -27.1988  -33.6056   26.1885 H   0  0  0  0  0  0
  -28.3844  -32.8585   25.1338 H   0  0  0  0  0  0
  -28.0377  -32.1711   26.7144 H   0  0  0  0  0  0
  -28.2491  -37.9986   24.7501 H   0  0  0  0  0  0
  -28.1073  -36.2492   24.6318 H   0  0  0  0  0  0
  -27.2208  -37.1286   25.8851 H   0  0  0  0  0  0
  -20.8674  -29.5084   21.5162 H   0  0  0  0  0  0
  -26.0037  -38.2557   24.1332 H   0  0  0  0  0  0
  -25.4125  -25.7352   22.6579 H   0  0  0  0  0  0
  -26.0371  -29.9996   18.0798 H   0  0  0  0  0  0
  -27.0539  -27.6349   25.0230 H   0  0  0  0  0  0
  -28.8968  -27.0329   24.5773 H   0  0  0  0  0  0
  -25.7276  -31.6376   19.4709 H   0  0  0  0  0  0
  -24.4027  -31.8543   20.4974 H   0  0  0  0  0  0
  -24.1376  -31.1102   18.9674 H   0  0  0  0  0  0
  -26.7337  -27.3931   15.5479 H   0  0  0  0  0  0
  -26.6758  -29.1132   15.9162 H   0  0  0  0  0  0
  -25.4031  -28.0273   16.5043 H   0  0  0  0  0  0
  -30.0584  -25.9856   23.2404 H   0  0  0  0  0  0
  -30.0632  -27.3517   22.3158 H   0  0  0  0  0  0
  -28.4198  -19.3756   19.2232 H   0  0  0  0  0  0
  -27.3704  -18.9499   20.5267 H   0  0  0  0  0  0
  -28.4488  -24.7807   21.7561 H   0  0  0  0  0  0
  -30.0946  -24.8083   21.5156 H   0  0  0  0  0  0
  -28.9038  -22.2129   20.6640 H   0  0  0  0  0  0
  -27.6072  -21.7956   21.7092 H   0  0  0  0  0  0
  -23.8989  -27.9206   24.2503 H   0  0  0  0  0  0
  1 25  1  0  0  0
  1 30  2  0  0  0
  1 83  1  0  0  0
  2  3  1  0  0  0
  2 25  1  0  0  0
  2 89  1  0  0  0
  2 90  1  0  0  0
  3  4  1  0  0  0
  3 91  1  0  0  0
  3 92  1  0  0  0
  4  5  1  0  0  0
  4 93  1  0  0  0
  4 94  1  0  0  0
  5  6  1  0  0  0
  5 26  1  0  0  0
  5 95  1  0  0  0
  6 25  1  0  0  0
  6 96  1  0  0  0
  6 97  1  0  0  0
  7  8  2  0  0  0
  7 26  1  0  0  0
  7 29  1  0  0  0
  8  9  1  0  0  0
  8 22  1  0  0  0
  9 10  1  0  0  0
  9 27  2  0  0  0
 10 11  2  0  0  0
 10 15  1  0  0  0
 11 12  1  0  0  0
 11 98  1  0  0  0
 12 13  2  0  0  0
 12 99  1  0  0  0
 13 14  1  0  0  0
 13 31  1  0  0  0
 14 15  2  0  0  0
 14100  1  0  0  0
 15101  1  0  0  0
 16 17  2  0  0  0
 16 21  1  0  0  0
 16 31  1  0  0  0
 17 18  1  0  0  0
 17102  1  0  0  0
 18 19  2  0  0  0
 18103  1  0  0  0
 19 20  1  0  0  0
 19 24  1  0  0  0
 20 21  2  0  0  0
 20104  1  0  0  0
 21 23  1  0  0  0
 22 28  1  0  0  0
 22 32  2  0  0  0
 26 27  1  0  0  0
 28105  1  0  0  0
 28106  1  0  0  0
 29107  1  0  0  0
 29108  1  0  0  0
 33 34  1  0  0  0
 33 66  1  0  0  0
 33 70  2  0  0  0
 34 36  1  0  0  0
 34 59  1  0  0  0
 34109  1  0  0  0
 35 44  2  0  0  0
 35 45  1  0  0  0
 35 68  1  0  0  0
 36 56  1  0  0  0
 36110  1  0  0  0
 37 39  1  0  0  0
 37 47  1  0  0  0
 37 66  1  0  0  0
 37111  1  0  0  0
 38 43  2  0  0  0
 38 46  1  0  0  0
 38 47  1  0  0  0
 39 64  1  0  0  0
 39 67  2  0  0  0
 40 52  1  0  0  0
 40 53  2  0  0  0
 40 58  1  0  0  0
 41112  1  0  0  0
 41113  1  0  0  0
 41114  1  0  0  0
 41 48  1  0  0  0
 42 43  1  0  0  0
 42 66  1  0  0  0
 42115  1  0  0  0
 42116  1  0  0  0
 43 44  1  0  0  0
 44117  1  0  0  0
 45 46  2  0  0  0
 45118  1  0  0  0
 46119  1  0  0  0
 47120  1  0  0  0
 47121  1  0  0  0
 48 56  1  0  0  0
 48 65  1  0  0  0
 48122  1  0  0  0
 49 50  1  0  0  0
 49 53  1  0  0  0
 49 64  1  0  0  0
 49123  1  0  0  0
 50 51  1  0  0  0
 50124  1  0  0  0
 50125  1  0  0  0
 51 52  1  0  0  0
 51126  1  0  0  0
 51127  1  0  0  0
 52128  1  0  0  0
 52129  1  0  0  0
 53 54  1  0  0  0
 54 55  2  0  0  0
 54130  1  0  0  0
 55 57  1  0  0  0
 55131  1  0  0  0
 56 69  2  0  0  0
 57 58  2  0  0  0
 57132  1  0  0  0
 58133  1  0  0  0
 59 60  1  0  0  0
 59 61  1  0  0  0
 59 62  1  0  0  0
 60134  1  0  0  0
 60135  1  0  0  0
 60136  1  0  0  0
 61137  1  0  0  0
 61138  1  0  0  0
 61139  1  0  0  0
 62140  1  0  0  0
 62141  1  0  0  0
 62142  1  0  0  0
 63 65  1  0  0  0
 63143  1  0  0  0
 63144  1  0  0  0
 63145  1  0  0  0
 64146  1  0  0  0
 65147  1  0  0  0
 68 84  1  0  0  0
 71 73  2  0  0  0
 71 75  1  0  0  0
 71148  1  0  0  0
 72 74  2  0  0  0
 72 76  1  0  0  0
 72149  1  0  0  0
 73 74  1  0  0  0
 73 79  1  0  0  0
 74 80  1  0  0  0
 75 76  2  0  0  0
 75 88  1  0  0  0
 76 87  1  0  0  0
 77 78  2  0  0  0
 77 79  1  0  0  0
 77150  1  0  0  0
 78 82  1  0  0  0
 78151  1  0  0  0
 79 86  2  0  0  0
 80152  1  0  0  0
 80153  1  0  0  0
 80154  1  0  0  0
 81 87  1  0  0  0
 81155  1  0  0  0
 81156  1  0  0  0
 81157  1  0  0  0
 82 84  1  0  0  0
 82158  1  0  0  0
 82159  1  0  0  0
 83 85  1  0  0  0
 83160  1  0  0  0
 83161  1  0  0  0
 84162  1  0  0  0
 84163  1  0  0  0
 85 88  1  0  0  0
 85164  1  0  0  0
 85165  1  0  0  0
 86166  1  0  0  0
M  ISO  4   1 100  68 101  83 100  84 101
M  END
> <chiral flag>
0

> <version>
0

> <s_m_source_file>
/data/baiqing/PycharmProjects/Reinvent-master-3.2/result/LINK_invent/BTK/process_docking_weight1_custom_product_contain_oxygen_bond_distance_aromatic_linkinvent_7_9_3/rearranged_h_0120.sdf

> <i_m_source_file_index>
63

> <r_mmod_Potential_Energy-OPLS-2005>
27729.84765625

> <r_mmod_Stretch_Energy-OPLS-2005>
15285.3056640625

> <r_mmod_Bend_Energy-OPLS-2005>
1922.04333496094

> <r_mmod_Torsional_Energy-OPLS-2005>
498.861328125

> <r_mmod_Improper_Torsional_Energy-OPLS-2005>
51.5419998168945

> <r_mmod_Van_der_Waal_Energy-OPLS-2005>
5254.21875

> <r_mmod_Electrostatic_Energy-OPLS-2005>
-339.479125976562

> <r_mmod_Solvation_Energy-OPLS-2005>
-208.128555297852

> <b_mmod_Minimization_Converged-OPLS-2005>
0

> <r_mmod_RMS_Derivative-OPLS-2005>
4.00627279281616

$$$$
63
                    3D
 Structure written by MMmdl.
159167  0  0  1  0            999 V2000
  -30.7470  -14.4589   20.6398 C   0  0  0  0  0  0
  -30.4182  -12.3243   19.4406 C   0  0  0  0  0  0
  -29.5021  -12.5226   18.2171 C   0  0  0  0  0  0
  -28.0240  -12.3688   18.6194 C   0  0  0  0  0  0
  -27.6614  -13.2086   19.8718 C   0  0  2  0  0  0
  -28.6907  -12.9962   21.0030 C   0  0  0  0  0  0
  -25.2596  -13.8158   20.5642 C   0  0  0  0  0  0
  -24.1851  -13.0457   20.9162 C   0  0  0  0  0  0
  -24.6384  -11.6912   20.8702 C   0  0  0  0  0  0
  -23.9043  -10.4306   21.0391 C   0  0  0  0  0  0
  -24.3595   -9.4228   21.9177 C   0  0  0  0  0  0
  -23.6274   -8.2263   22.0753 C   0  0  0  0  0  0
  -22.4258   -8.0286   21.3544 C   0  0  0  0  0  0
  -21.9896   -9.0248   20.4637 C   0  0  0  0  0  0
  -22.7215  -10.2132   20.3042 C   0  0  0  0  0  0
  -21.6852   -6.0725   22.5271 C   0  0  0  0  0  0
  -21.4008   -6.5629   23.8204 C   0  0  0  0  0  0
  -21.3663   -5.6784   24.9170 C   0  0  0  0  0  0
  -21.6047   -4.3047   24.7224 C   0  0  0  0  0  0
  -21.8823   -3.8134   23.4344 C   0  0  0  0  0  0
  -21.9193   -4.6953   22.3399 C   0  0  0  0  0  0
  -22.7877  -13.5263   21.1846 C   0  0  0  0  0  0
  -22.1666   -4.2141   21.0975 F   0  0  0  0  0  0
  -21.5636   -3.4532   25.7736 F   0  0  0  0  0  0
  -30.0339  -13.3026   20.4754 N   0  0  0  0  0  0
  -26.3018  -12.9330   20.3289 N   0  0  0  0  0  0
  -25.9306  -11.6488   20.5688 N   0  0  0  0  0  0
  -22.0499  -12.8248   22.0373 N   0  0  0  0  0  0
  -25.4345  -15.1870   20.4018 N   0  0  0  0  0  0
  -31.7945  -14.6755   20.0208 O   0  0  0  0  0  0
  -21.6640   -6.8873   21.4236 O   0  0  0  0  0  0
  -22.3581  -14.5592   20.6712 O   0  0  0  0  0  0
  -24.6141  -31.8644   23.2128 C   0  0  0  0  0  0
  -25.9032  -32.4792   23.8436 C   0  0  1  0  0  0
  -27.2512  -27.4401   20.0793 C   0  0  0  0  0  0
  -25.5894  -33.8598   24.2358 N   0  0  0  0  0  0
  -23.4017  -30.4873   21.5509 C   0  0  2  0  0  0
  -24.8523  -28.9482   20.1160 C   0  0  0  0  0  0
  -22.7398  -29.4627   22.5002 C   0  0  0  0  0  0
  -18.0242  -28.1359   22.8492 C   0  0  0  0  0  0
  -24.1474  -36.7331   23.2643 C   0  0  0  0  0  0
  -25.9285  -30.8315   21.3623 C   0  0  0  0  0  0
  -26.0096  -29.4655   20.7082 C   0  0  0  0  0  0
  -27.2070  -28.7165   20.6878 C   0  0  0  0  0  0
  -26.0672  -26.9257   19.5027 C   0  0  0  0  0  0
  -24.8750  -27.6768   19.5145 C   0  0  0  0  0  0
  -23.6117  -29.8118   20.1687 C   0  0  0  0  0  0
  -25.4094  -36.3095   24.0332 C   0  0  1  0  0  0
  -20.5834  -28.3644   23.1330 C   0  0  2  0  0  0
  -20.6716  -26.9376   22.5428 C   0  0  0  0  0  0
  -19.5708  -26.6375   21.5198 C   0  0  0  0  0  0
  -18.1887  -26.7913   22.1604 C   0  0  0  0  0  0
  -19.1492  -28.8822   23.2902 C   0  0  0  0  0  0
  -18.9428  -30.1442   23.8898 C   0  0  0  0  0  0
  -17.6427  -30.6576   24.0574 C   0  0  0  0  0  0
  -25.9012  -34.9447   23.5136 C   0  0  0  0  0  0
  -16.5316  -29.9072   23.6340 C   0  0  0  0  0  0
  -16.7233  -28.6491   23.0352 C   0  0  0  0  0  0
  -26.4483  -31.6585   25.0779 C   0  0  0  0  0  0
  -25.3770  -31.3592   26.1533 C   0  0  0  0  0  0
  -27.0395  -30.3065   24.6170 C   0  0  0  0  0  0
  -27.6047  -32.4327   25.7551 C   0  0  0  0  0  0
  -27.5555  -37.1811   24.8459 C   0  0  0  0  0  0
  -21.4123  -29.3016   22.3750 N   0  0  0  0  0  0
  -26.4273  -37.3787   23.9404 N   0  0  0  0  0  0
  -24.6665  -31.0744   22.1018 N   0  0  0  0  0  0
  -23.4173  -28.8157   23.3031 O   0  0  0  0  0  0
  -28.4534  -26.7580   20.0949 O   0  0  0  0  0  0
  -26.5555  -34.8896   22.4686 O   0  0  0  0  0  0
  -23.5337  -32.1390   23.7532 O   0  0  0  0  0  0
  -30.9432  -17.5916   20.4254 C   0  0  0  0  0  0
  -30.7443  -18.9177   19.9873 C   0  0  0  0  0  0
  -28.5904  -18.9488   21.0723 C   0  0  0  0  0  0
  -29.9711  -16.8935   21.1874 C   0  0  0  0  0  0
  -28.7785  -17.6150   21.5213 C   0  0  0  0  0  0
  -29.5668  -19.6195   20.2998 C   0  0  0  0  0  0
  -28.6126  -24.2913   20.0639 C   0  0  0  0  0  0
  -28.3875  -23.0786   19.5147 C   0  0  0  0  0  0
  -30.2575  -15.4875   21.6756 C   0  0  0  0  0  0
  -27.7770  -17.4562   23.8544 C   0  0  0  0  0  0
  -27.6577  -17.0317   22.3812 C   0  0  0  0  0  0
  -28.6691  -25.5992   19.2785 C   0  0  0  0  0  0
  -28.3711  -21.7433   20.2535 C   0  0  0  0  0  0
  -30.1315  -15.1828   22.9011 N   0  0  0  0  0  0
  -29.4565  -20.9156   19.8249 O   0  0  0  0  0  0
  -31.4661  -12.4113   19.1471 H   0  0  0  0  0  0
  -30.3124  -11.3133   19.8357 H   0  0  0  0  0  0
  -29.7556  -11.7996   17.4420 H   0  0  0  0  0  0
  -29.6718  -13.5096   17.7818 H   0  0  0  0  0  0
  -27.8471  -11.3114   18.8189 H   0  0  0  0  0  0
  -27.3769  -12.6346   17.7835 H   0  0  0  0  0  0
  -27.7073  -14.2570   19.5772 H   0  0  0  0  0  0
  -28.6646  -11.9645   21.3561 H   0  0  0  0  0  0
  -28.4024  -13.5950   21.8653 H   0  0  0  0  0  0
  -25.2728   -9.5726   22.4758 H   0  0  0  0  0  0
  -23.9984   -7.4670   22.7499 H   0  0  0  0  0  0
  -21.0831   -8.8758   19.8946 H   0  0  0  0  0  0
  -22.3660  -10.9668   19.6151 H   0  0  0  0  0  0
  -21.1987   -7.6134   23.9705 H   0  0  0  0  0  0
  -21.1490   -6.0510   25.9074 H   0  0  0  0  0  0
  -22.0596   -2.7596   23.2843 H   0  0  0  0  0  0
  -22.4082  -11.9876   22.4731 H   0  0  0  0  0  0
  -21.1119  -13.1285   22.2560 H   0  0  0  0  0  0
  -24.6706  -15.8462   20.5038 H   0  0  0  0  0  0
  -26.2863  -15.6147   20.0624 H   0  0  0  0  0  0
  -26.7105  -32.5526   23.1203 H   0  0  0  0  0  0
  -25.0056  -33.9742   25.0510 H   0  0  0  0  0  0
  -22.6878  -31.3015   21.4092 H   0  0  0  0  0  0
  -23.3715  -35.9683   23.3296 H   0  0  0  0  0  0
  -24.3543  -36.8985   22.2060 H   0  0  0  0  0  0
  -23.7256  -37.6531   23.6693 H   0  0  0  0  0  0
  -26.0262  -31.5973   20.5921 H   0  0  0  0  0  0
  -26.8212  -30.8941   21.9749 H   0  0  0  0  0  0
  -28.1074  -29.1129   21.1373 H   0  0  0  0  0  0
  -26.0386  -25.9439   19.0550 H   0  0  0  0  0  0
  -23.9803  -27.2673   19.0648 H   0  0  0  0  0  0
  -23.7161  -30.5805   19.4031 H   0  0  0  0  0  0
  -22.7380  -29.2240   19.8819 H   0  0  0  0  0  0
  -25.1262  -36.1960   25.0826 H   0  0  0  0  0  0
  -20.9899  -28.3206   24.1462 H   0  0  0  0  0  0
  -20.5593  -26.2241   23.3590 H   0  0  0  0  0  0
  -21.6592  -26.7386   22.1251 H   0  0  0  0  0  0
  -19.6853  -25.6298   21.1200 H   0  0  0  0  0  0
  -19.6665  -27.3199   20.6740 H   0  0  0  0  0  0
  -17.4156  -26.6693   21.3991 H   0  0  0  0  0  0
  -18.0256  -26.0049   22.8985 H   0  0  0  0  0  0
  -19.7908  -30.7275   24.2241 H   0  0  0  0  0  0
  -17.4981  -31.6243   24.5211 H   0  0  0  0  0  0
  -15.5314  -30.2970   23.7685 H   0  0  0  0  0  0
  -15.8627  -28.0835   22.7035 H   0  0  0  0  0  0
  -24.6101  -30.6727   25.7915 H   0  0  0  0  0  0
  -24.8735  -32.2646   26.4930 H   0  0  0  0  0  0
  -25.8200  -30.8910   27.0341 H   0  0  0  0  0  0
  -26.2970  -29.6707   24.1335 H   0  0  0  0  0  0
  -27.4313  -29.7410   25.4637 H   0  0  0  0  0  0
  -27.8705  -30.4428   23.9246 H   0  0  0  0  0  0
  -27.2700  -33.3671   26.2080 H   0  0  0  0  0  0
  -28.3896  -32.6808   25.0388 H   0  0  0  0  0  0
  -28.0680  -31.8482   26.5521 H   0  0  0  0  0  0
  -28.2562  -38.0118   24.7515 H   0  0  0  0  0  0
  -28.1066  -36.2644   24.6289 H   0  0  0  0  0  0
  -27.2259  -37.1476   25.8858 H   0  0  0  0  0  0
  -20.9265  -29.8782   21.7024 H   0  0  0  0  0  0
  -26.0154  -38.2851   24.1461 H   0  0  0  0  0  0
  -31.8864  -17.1253   20.1797 H   0  0  0  0  0  0
  -31.5199  -19.4078   19.4145 H   0  0  0  0  0  0
  -27.6751  -19.4529   21.3431 H   0  0  0  0  0  0
  -28.8014  -24.3674   21.1255 H   0  0  0  0  0  0
  -28.2056  -23.0146   18.4505 H   0  0  0  0  0  0
  -26.9421  -17.0685   24.4386 H   0  0  0  0  0  0
  -27.7704  -18.5424   23.9530 H   0  0  0  0  0  0
  -28.6958  -17.0898   24.3108 H   0  0  0  0  0  0
  -27.6002  -15.9462   22.2976 H   0  0  0  0  0  0
  -26.7017  -17.3897   21.9958 H   0  0  0  0  0  0
  -28.0489  -25.5661   18.3831 H   0  0  0  0  0  0
  -29.6903  -25.6846   18.9050 H   0  0  0  0  0  0
  -27.4134  -21.2637   20.0445 H   0  0  0  0  0  0
  -28.4376  -21.9099   21.3304 H   0  0  0  0  0  0
  -29.8180  -15.9858   23.4312 H   0  0  0  0  0  0
  1 25  1  0  0  0
  1 30  2  0  0  0
  1 79  1  0  0  0
  2  3  1  0  0  0
  2 25  1  0  0  0
  2 86  1  0  0  0
  2 87  1  0  0  0
  3  4  1  0  0  0
  3 88  1  0  0  0
  3 89  1  0  0  0
  4  5  1  0  0  0
  4 90  1  0  0  0
  4 91  1  0  0  0
  5  6  1  0  0  0
  5 26  1  0  0  0
  5 92  1  0  0  0
  6 25  1  0  0  0
  6 93  1  0  0  0
  6 94  1  0  0  0
  7  8  2  0  0  0
  7 26  1  0  0  0
  7 29  1  0  0  0
  8  9  1  0  0  0
  8 22  1  0  0  0
  9 10  1  0  0  0
  9 27  2  0  0  0
 10 11  2  0  0  0
 10 15  1  0  0  0
 11 12  1  0  0  0
 11 95  1  0  0  0
 12 13  2  0  0  0
 12 96  1  0  0  0
 13 14  1  0  0  0
 13 31  1  0  0  0
 14 15  2  0  0  0
 14 97  1  0  0  0
 15 98  1  0  0  0
 16 17  2  0  0  0
 16 21  1  0  0  0
 16 31  1  0  0  0
 17 18  1  0  0  0
 17 99  1  0  0  0
 18 19  2  0  0  0
 18100  1  0  0  0
 19 20  1  0  0  0
 19 24  1  0  0  0
 20 21  2  0  0  0
 20101  1  0  0  0
 21 23  1  0  0  0
 22 28  1  0  0  0
 22 32  2  0  0  0
 26 27  1  0  0  0
 28102  1  0  0  0
 28103  1  0  0  0
 29104  1  0  0  0
 29105  1  0  0  0
 33 34  1  0  0  0
 33 66  1  0  0  0
 33 70  2  0  0  0
 34 36  1  0  0  0
 34 59  1  0  0  0
 34106  1  0  0  0
 35 44  2  0  0  0
 35 45  1  0  0  0
 35 68  1  0  0  0
 36 56  1  0  0  0
 36107  1  0  0  0
 37 39  1  0  0  0
 37 47  1  0  0  0
 37 66  1  0  0  0
 37108  1  0  0  0
 38 43  2  0  0  0
 38 46  1  0  0  0
 38 47  1  0  0  0
 39 64  1  0  0  0
 39 67  2  0  0  0
 40 52  1  0  0  0
 40 53  2  0  0  0
 40 58  1  0  0  0
 41109  1  0  0  0
 41110  1  0  0  0
 41111  1  0  0  0
 41 48  1  0  0  0
 42 43  1  0  0  0
 42 66  1  0  0  0
 42112  1  0  0  0
 42113  1  0  0  0
 43 44  1  0  0  0
 44114  1  0  0  0
 45 46  2  0  0  0
 45115  1  0  0  0
 46116  1  0  0  0
 47117  1  0  0  0
 47118  1  0  0  0
 48 56  1  0  0  0
 48 65  1  0  0  0
 48119  1  0  0  0
 49 50  1  0  0  0
 49 53  1  0  0  0
 49 64  1  0  0  0
 49120  1  0  0  0
 50 51  1  0  0  0
 50121  1  0  0  0
 50122  1  0  0  0
 51 52  1  0  0  0
 51123  1  0  0  0
 51124  1  0  0  0
 52125  1  0  0  0
 52126  1  0  0  0
 53 54  1  0  0  0
 54 55  2  0  0  0
 54127  1  0  0  0
 55 57  1  0  0  0
 55128  1  0  0  0
 56 69  2  0  0  0
 57 58  2  0  0  0
 57129  1  0  0  0
 58130  1  0  0  0
 59 60  1  0  0  0
 59 61  1  0  0  0
 59 62  1  0  0  0
 60131  1  0  0  0
 60132  1  0  0  0
 60133  1  0  0  0
 61134  1  0  0  0
 61135  1  0  0  0
 61136  1  0  0  0
 62137  1  0  0  0
 62138  1  0  0  0
 62139  1  0  0  0
 63 65  1  0  0  0
 63140  1  0  0  0
 63141  1  0  0  0
 63142  1  0  0  0
 64143  1  0  0  0
 65144  1  0  0  0
 68 82  1  0  0  0
 71 72  2  0  0  0
 71 74  1  0  0  0
 71145  1  0  0  0
 72 76  1  0  0  0
 72146  1  0  0  0
 73 75  1  0  0  0
 73 76  2  0  0  0
 73147  1  0  0  0
 74 75  2  0  0  0
 74 79  1  0  0  0
 75 81  1  0  0  0
 76 85  1  0  0  0
 77 78  2  0  0  0
 77 82  1  0  0  0
 77148  1  0  0  0
 78 83  1  0  0  0
 78149  1  0  0  0
 79 84  2  0  0  0
 80 81  1  0  0  0
 80150  1  0  0  0
 80151  1  0  0  0
 80152  1  0  0  0
 81153  1  0  0  0
 81154  1  0  0  0
 82155  1  0  0  0
 82156  1  0  0  0
 83 85  1  0  0  0
 83157  1  0  0  0
 83158  1  0  0  0
 84159  1  0  0  0
M  ISO  4   1 100  68 101  79 100  82 101
M  END
> <chiral flag>
0

> <version>
0

> <s_m_source_file>
/data/baiqing/PycharmProjects/Reinvent-master-3.2/result/LINK_invent/BTK/process_docking_weight1_custom_product_contain_oxygen_bond_distance_aromatic_linkinvent_7_9_3/rearranged_h_0120.sdf

> <i_m_source_file_index>
64

> <r_mmod_Potential_Energy-OPLS-2005>
127.600814819336

> <r_mmod_Stretch_Energy-OPLS-2005>
46.1349105834961

> <r_mmod_Bend_Energy-OPLS-2005>
121.938743591309

> <r_mmod_Torsional_Energy-OPLS-2005>
202.168014526367

> <r_mmod_Improper_Torsional_Energy-OPLS-2005>
2.47494626045227

> <r_mmod_Van_der_Waal_Energy-OPLS-2005>
153.23486328125

> <r_mmod_Electrostatic_Energy-OPLS-2005>
-218.890609741211

> <r_mmod_Solvation_Energy-OPLS-2005>
-190.882400512695

> <b_mmod_Minimization_Converged-OPLS-2005>
0

> <r_mmod_RMS_Derivative-OPLS-2005>
2.51331329345703

$$$$
64
                    3D
 Structure written by MMmdl.
158166  0  0  1  0            999 V2000
  -30.7320  -14.4171   20.5142 C   0  0  0  0  0  0
  -30.4088  -12.2497   19.4330 C   0  0  0  0  0  0
  -29.4930  -12.4648   18.2091 C   0  0  0  0  0  0
  -28.0093  -12.3508   18.6133 C   0  0  0  0  0  0
  -27.6541  -13.2003   19.8626 C   0  0  2  0  0  0
  -28.6972  -13.0168   20.9891 C   0  0  0  0  0  0
  -25.2581  -13.8149   20.5680 C   0  0  0  0  0  0
  -24.1830  -13.0447   20.9176 C   0  0  0  0  0  0
  -24.6366  -11.6906   20.8734 C   0  0  0  0  0  0
  -23.9046  -10.4299   21.0398 C   0  0  0  0  0  0
  -24.3599   -9.4217   21.9181 C   0  0  0  0  0  0
  -23.6279   -8.2251   22.0741 C   0  0  0  0  0  0
  -22.4259   -8.0293   21.3536 C   0  0  0  0  0  0
  -21.9893   -9.0276   20.4641 C   0  0  0  0  0  0
  -22.7224  -10.2149   20.3045 C   0  0  0  0  0  0
  -21.6852   -6.0733   22.5277 C   0  0  0  0  0  0
  -21.4021   -6.5637   23.8212 C   0  0  0  0  0  0
  -21.3652   -5.6791   24.9179 C   0  0  0  0  0  0
  -21.6037   -4.3052   24.7229 C   0  0  0  0  0  0
  -21.8821   -3.8147   23.4351 C   0  0  0  0  0  0
  -21.9184   -4.6957   22.3401 C   0  0  0  0  0  0
  -22.7861  -13.5254   21.1846 C   0  0  0  0  0  0
  -22.1648   -4.2142   21.0979 F   0  0  0  0  0  0
  -21.5622   -3.4529   25.7736 F   0  0  0  0  0  0
  -30.0392  -13.2537   20.4381 N   0  0  0  0  0  0
  -26.2988  -12.9289   20.3323 N   0  0  0  0  0  0
  -25.9290  -11.6463   20.5762 N   0  0  0  0  0  0
  -22.0514  -12.8255   22.0401 N   0  0  0  0  0  0
  -25.4347  -15.1866   20.4130 N   0  0  0  0  0  0
  -31.9148  -14.5224   20.1858 O   0  0  0  0  0  0
  -21.6629   -6.8880   21.4232 O   0  0  0  0  0  0
  -22.3544  -14.5551   20.6687 O   0  0  0  0  0  0
  -24.6085  -31.8718   23.2161 C   0  0  0  0  0  0
  -25.9004  -32.4842   23.8426 C   0  0  1  0  0  0
  -27.2406  -27.4924   20.0758 C   0  0  0  0  0  0
  -25.5886  -33.8640   24.2362 N   0  0  0  0  0  0
  -23.3923  -30.4964   21.5565 C   0  0  2  0  0  0
  -24.8360  -28.9652   20.1215 C   0  0  0  0  0  0
  -22.7368  -29.4678   22.5046 C   0  0  0  0  0  0
  -18.0253  -28.1356   22.8501 C   0  0  0  0  0  0
  -24.1485  -36.7324   23.2638 C   0  0  0  0  0  0
  -25.9151  -30.8499   21.3639 C   0  0  0  0  0  0
  -25.9906  -29.4854   20.7189 C   0  0  0  0  0  0
  -27.1898  -28.7477   20.7102 C   0  0  0  0  0  0
  -26.0644  -26.9677   19.4888 C   0  0  0  0  0  0
  -24.8629  -27.6982   19.5143 C   0  0  0  0  0  0
  -23.5963  -29.8259   20.1713 C   0  0  0  0  0  0
  -25.4098  -36.3125   24.0353 C   0  0  1  0  0  0
  -20.5839  -28.3630   23.1347 C   0  0  2  0  0  0
  -20.6741  -26.9376   22.5422 C   0  0  0  0  0  0
  -19.5724  -26.6376   21.5209 C   0  0  0  0  0  0
  -18.1901  -26.7908   22.1619 C   0  0  0  0  0  0
  -19.1500  -28.8810   23.2923 C   0  0  0  0  0  0
  -18.9434  -30.1424   23.8920 C   0  0  0  0  0  0
  -17.6439  -30.6570   24.0562 C   0  0  0  0  0  0
  -25.9018  -34.9490   23.5151 C   0  0  0  0  0  0
  -16.5329  -29.9073   23.6327 C   0  0  0  0  0  0
  -16.7244  -28.6485   23.0358 C   0  0  0  0  0  0
  -26.4447  -31.6606   25.0731 C   0  0  0  0  0  0
  -25.3747  -31.3690   26.1505 C   0  0  0  0  0  0
  -27.0272  -30.3058   24.6073 C   0  0  0  0  0  0
  -27.6050  -32.4308   25.7474 C   0  0  0  0  0  0
  -27.5585  -37.1801   24.8454 C   0  0  0  0  0  0
  -21.4106  -29.3017   22.3775 N   0  0  0  0  0  0
  -26.4282  -37.3808   23.9425 N   0  0  0  0  0  0
  -24.6564  -31.0874   22.1037 N   0  0  0  0  0  0
  -23.4167  -28.8226   23.3069 O   0  0  0  0  0  0
  -28.4479  -26.8388   20.0451 O   0  0  0  0  0  0
  -26.5580  -34.8931   22.4711 O   0  0  0  0  0  0
  -23.5294  -32.1455   23.7589 O   0  0  0  0  0  0
  -28.9700  -18.4800   20.1204 C   0  0  0  0  0  0
  -28.5199  -19.7579   19.7499 C   0  0  0  0  0  0
  -28.1832  -17.6034   17.9860 C   0  0  0  0  0  0
  -28.8596  -17.4144   19.2078 C   0  0  0  0  0  0
  -27.9283  -19.9722   18.4858 C   0  0  0  0  0  0
  -27.7201  -18.8802   17.6139 C   0  0  0  0  0  0
  -29.5180  -16.1354   19.4473 C   0  0  0  0  0  0
  -27.6582  -21.3409   18.0482 C   0  0  0  0  0  0
  -29.9163  -15.6071   20.6208 C   0  0  0  0  0  0
  -28.5766  -22.3085   18.1861 C   0  0  0  0  0  0
  -28.4372  -24.6157   19.0828 C   0  0  0  0  0  0
  -27.0916  -19.0777   16.2441 C   0  0  0  0  0  0
  -28.3778  -23.7580   17.8233 C   0  0  0  0  0  0
  -28.7352  -26.0954   18.8660 C   0  0  0  0  0  0
  -28.2440  -24.1471   20.2122 O   0  0  0  0  0  0
  -31.4575  -12.3112   19.1389 H   0  0  0  0  0  0
  -30.2746  -11.2477   19.8430 H   0  0  0  0  0  0
  -29.7213  -11.7297   17.4367 H   0  0  0  0  0  0
  -29.6864  -13.4395   17.7605 H   0  0  0  0  0  0
  -27.8068  -11.2978   18.8109 H   0  0  0  0  0  0
  -27.3679  -12.6275   17.7760 H   0  0  0  0  0  0
  -27.6754  -14.2388   19.5407 H   0  0  0  0  0  0
  -28.6489  -12.0057   21.3947 H   0  0  0  0  0  0
  -28.4847  -13.6852   21.8255 H   0  0  0  0  0  0
  -25.2750   -9.5699   22.4751 H   0  0  0  0  0  0
  -23.9990   -7.4636   22.7443 H   0  0  0  0  0  0
  -21.0821   -8.8797   19.8956 H   0  0  0  0  0  0
  -22.3681  -10.9677   19.6137 H   0  0  0  0  0  0
  -21.2030   -7.6152   23.9721 H   0  0  0  0  0  0
  -21.1459   -6.0526   25.9077 H   0  0  0  0  0  0
  -22.0610   -2.7603   23.2861 H   0  0  0  0  0  0
  -22.4131  -11.9908   22.4771 H   0  0  0  0  0  0
  -21.1133  -13.1275   22.2615 H   0  0  0  0  0  0
  -24.6830  -15.8538   20.5491 H   0  0  0  0  0  0
  -26.3076  -15.6193   20.1379 H   0  0  0  0  0  0
  -26.7078  -32.5567   23.1201 H   0  0  0  0  0  0
  -25.0062  -33.9811   25.0521 H   0  0  0  0  0  0
  -22.6787  -31.3113   21.4191 H   0  0  0  0  0  0
  -23.3744  -35.9654   23.3293 H   0  0  0  0  0  0
  -24.3597  -36.8934   22.2054 H   0  0  0  0  0  0
  -23.7218  -37.6528   23.6644 H   0  0  0  0  0  0
  -26.0217  -31.6145   20.5935 H   0  0  0  0  0  0
  -26.8068  -30.9052   21.9766 H   0  0  0  0  0  0
  -28.0847  -29.1528   21.1618 H   0  0  0  0  0  0
  -26.0553  -26.0014   19.0083 H   0  0  0  0  0  0
  -23.9732  -27.2851   19.0595 H   0  0  0  0  0  0
  -23.6983  -30.5973   19.4070 H   0  0  0  0  0  0
  -22.7224  -29.2399   19.8813 H   0  0  0  0  0  0
  -25.1262  -36.2003   25.0842 H   0  0  0  0  0  0
  -20.9919  -28.3170   24.1473 H   0  0  0  0  0  0
  -20.5631  -26.2235   23.3598 H   0  0  0  0  0  0
  -21.6619  -26.7426   22.1224 H   0  0  0  0  0  0
  -19.6889  -25.6295   21.1222 H   0  0  0  0  0  0
  -19.6669  -27.3204   20.6755 H   0  0  0  0  0  0
  -17.4180  -26.6672   21.4014 H   0  0  0  0  0  0
  -18.0292  -26.0032   22.8992 H   0  0  0  0  0  0
  -19.7911  -30.7229   24.2301 H   0  0  0  0  0  0
  -17.4995  -31.6260   24.5143 H   0  0  0  0  0  0
  -15.5331  -30.2980   23.7638 H   0  0  0  0  0  0
  -15.8642  -28.0808   22.7070 H   0  0  0  0  0  0
  -24.5922  -30.7022   25.7859 H   0  0  0  0  0  0
  -24.8931  -32.2835   26.4982 H   0  0  0  0  0  0
  -25.8133  -30.8856   27.0243 H   0  0  0  0  0  0
  -26.2795  -29.6823   24.1153 H   0  0  0  0  0  0
  -27.4083  -29.7286   25.4505 H   0  0  0  0  0  0
  -27.8613  -30.4392   23.9180 H   0  0  0  0  0  0
  -27.2690  -33.3595   26.2096 H   0  0  0  0  0  0
  -28.3825  -32.6880   25.0272 H   0  0  0  0  0  0
  -28.0750  -31.8401   26.5345 H   0  0  0  0  0  0
  -28.2582  -38.0123   24.7563 H   0  0  0  0  0  0
  -28.1107  -36.2665   24.6196 H   0  0  0  0  0  0
  -27.2330  -37.1346   25.8861 H   0  0  0  0  0  0
  -20.9244  -29.8750   21.7023 H   0  0  0  0  0  0
  -26.0180  -38.2887   24.1451 H   0  0  0  0  0  0
  -29.4796  -18.3533   21.0648 H   0  0  0  0  0  0
  -28.6791  -20.5866   20.4261 H   0  0  0  0  0  0
  -28.0812  -16.7766   17.2961 H   0  0  0  0  0  0
  -29.7603  -15.5981   18.5396 H   0  0  0  0  0  0
  -26.6847  -21.5557   17.6276 H   0  0  0  0  0  0
  -29.6978  -16.0575   21.5776 H   0  0  0  0  0  0
  -29.5441  -22.0673   18.6043 H   0  0  0  0  0  0
  -27.0570  -18.1452   15.6804 H   0  0  0  0  0  0
  -27.6681  -19.7960   15.6610 H   0  0  0  0  0  0
  -26.0722  -19.4523   16.3393 H   0  0  0  0  0  0
  -27.4131  -23.9018   17.3371 H   0  0  0  0  0  0
  -29.1534  -24.0739   17.1256 H   0  0  0  0  0  0
  -28.1824  -26.4694   18.0040 H   0  0  0  0  0  0
  -29.7933  -26.2049   18.6313 H   0  0  0  0  0  0
  1 25  1  0  0  0
  1 30  2  0  0  0
  1 79  1  0  0  0
  2  3  1  0  0  0
  2 25  1  0  0  0
  2 86  1  0  0  0
  2 87  1  0  0  0
  3  4  1  0  0  0
  3 88  1  0  0  0
  3 89  1  0  0  0
  4  5  1  0  0  0
  4 90  1  0  0  0
  4 91  1  0  0  0
  5  6  1  0  0  0
  5 26  1  0  0  0
  5 92  1  0  0  0
  6 25  1  0  0  0
  6 93  1  0  0  0
  6 94  1  0  0  0
  7  8  2  0  0  0
  7 26  1  0  0  0
  7 29  1  0  0  0
  8  9  1  0  0  0
  8 22  1  0  0  0
  9 10  1  0  0  0
  9 27  2  0  0  0
 10 11  2  0  0  0
 10 15  1  0  0  0
 11 12  1  0  0  0
 11 95  1  0  0  0
 12 13  2  0  0  0
 12 96  1  0  0  0
 13 14  1  0  0  0
 13 31  1  0  0  0
 14 15  2  0  0  0
 14 97  1  0  0  0
 15 98  1  0  0  0
 16 17  2  0  0  0
 16 21  1  0  0  0
 16 31  1  0  0  0
 17 18  1  0  0  0
 17 99  1  0  0  0
 18 19  2  0  0  0
 18100  1  0  0  0
 19 20  1  0  0  0
 19 24  1  0  0  0
 20 21  2  0  0  0
 20101  1  0  0  0
 21 23  1  0  0  0
 22 28  1  0  0  0
 22 32  2  0  0  0
 26 27  1  0  0  0
 28102  1  0  0  0
 28103  1  0  0  0
 29104  1  0  0  0
 29105  1  0  0  0
 33 34  1  0  0  0
 33 66  1  0  0  0
 33 70  2  0  0  0
 34 36  1  0  0  0
 34 59  1  0  0  0
 34106  1  0  0  0
 35 44  2  0  0  0
 35 45  1  0  0  0
 35 68  1  0  0  0
 36 56  1  0  0  0
 36107  1  0  0  0
 37 39  1  0  0  0
 37 47  1  0  0  0
 37 66  1  0  0  0
 37108  1  0  0  0
 38 43  2  0  0  0
 38 46  1  0  0  0
 38 47  1  0  0  0
 39 64  1  0  0  0
 39 67  2  0  0  0
 40 52  1  0  0  0
 40 53  2  0  0  0
 40 58  1  0  0  0
 41109  1  0  0  0
 41110  1  0  0  0
 41111  1  0  0  0
 41 48  1  0  0  0
 42 43  1  0  0  0
 42 66  1  0  0  0
 42112  1  0  0  0
 42113  1  0  0  0
 43 44  1  0  0  0
 44114  1  0  0  0
 45 46  2  0  0  0
 45115  1  0  0  0
 46116  1  0  0  0
 47117  1  0  0  0
 47118  1  0  0  0
 48 56  1  0  0  0
 48 65  1  0  0  0
 48119  1  0  0  0
 49 50  1  0  0  0
 49 53  1  0  0  0
 49 64  1  0  0  0
 49120  1  0  0  0
 50 51  1  0  0  0
 50121  1  0  0  0
 50122  1  0  0  0
 51 52  1  0  0  0
 51123  1  0  0  0
 51124  1  0  0  0
 52125  1  0  0  0
 52126  1  0  0  0
 53 54  1  0  0  0
 54 55  2  0  0  0
 54127  1  0  0  0
 55 57  1  0  0  0
 55128  1  0  0  0
 56 69  2  0  0  0
 57 58  2  0  0  0
 57129  1  0  0  0
 58130  1  0  0  0
 59 60  1  0  0  0
 59 61  1  0  0  0
 59 62  1  0  0  0
 60131  1  0  0  0
 60132  1  0  0  0
 60133  1  0  0  0
 61134  1  0  0  0
 61135  1  0  0  0
 61136  1  0  0  0
 62137  1  0  0  0
 62138  1  0  0  0
 62139  1  0  0  0
 63 65  1  0  0  0
 63140  1  0  0  0
 63141  1  0  0  0
 63142  1  0  0  0
 64143  1  0  0  0
 65144  1  0  0  0
 68 84  1  0  0  0
 71 72  2  0  0  0
 71 74  1  0  0  0
 71145  1  0  0  0
 72 75  1  0  0  0
 72146  1  0  0  0
 73 74  2  0  0  0
 73 76  1  0  0  0
 73147  1  0  0  0
 74 77  1  0  0  0
 75 76  2  0  0  0
 75 78  1  0  0  0
 76 82  1  0  0  0
 77 79  2  0  0  0
 77148  1  0  0  0
 78 80  2  0  0  0
 78149  1  0  0  0
 79150  1  0  0  0
 80 83  1  0  0  0
 80151  1  0  0  0
 81 83  1  0  0  0
 81 84  1  0  0  0
 81 85  2  0  0  0
 82152  1  0  0  0
 82153  1  0  0  0
 82154  1  0  0  0
 83155  1  0  0  0
 83156  1  0  0  0
 84157  1  0  0  0
 84158  1  0  0  0
M  ISO  4   1 100  68 101  79 100  84 101
M  END
> <chiral flag>
0

> <version>
0

> <s_m_source_file>
/data/baiqing/PycharmProjects/Reinvent-master-3.2/result/LINK_invent/BTK/process_docking_weight1_custom_product_contain_oxygen_bond_distance_aromatic_linkinvent_7_9_3/rearranged_h_0120.sdf

> <i_m_source_file_index>
65

> <r_mmod_Potential_Energy-OPLS-2005>
20.9591159820557

> <r_mmod_Stretch_Energy-OPLS-2005>
29.0653438568115

> <r_mmod_Bend_Energy-OPLS-2005>
90.7803955078125

> <r_mmod_Torsional_Energy-OPLS-2005>
238.876312255859

> <r_mmod_Improper_Torsional_Energy-OPLS-2005>
11.5510244369507

> <r_mmod_Van_der_Waal_Energy-OPLS-2005>
160.304321289062

> <r_mmod_Electrostatic_Energy-OPLS-2005>
-315.289642333984

> <r_mmod_Solvation_Energy-OPLS-2005>
-211.472396850586

> <b_mmod_Minimization_Converged-OPLS-2005>
0

> <r_mmod_RMS_Derivative-OPLS-2005>
1.91610729694366

$$$$
65
                    3D
 Structure written by MMmdl.
166174  0  0  1  0            999 V2000
  -30.7478  -14.3714   20.6796 C   0  0  0  0  0  0
  -30.4171  -12.2894   19.3953 C   0  0  0  0  0  0
  -29.4866  -12.5338   18.1926 C   0  0  0  0  0  0
  -28.0091  -12.3862   18.6051 C   0  0  0  0  0  0
  -27.6653  -13.2024   19.8795 C   0  0  2  0  0  0
  -28.7005  -12.9326   20.9921 C   0  0  0  0  0  0
  -25.2591  -13.8150   20.5667 C   0  0  0  0  0  0
  -24.1829  -13.0433   20.9146 C   0  0  0  0  0  0
  -24.6385  -11.6897   20.8703 C   0  0  0  0  0  0
  -23.9050  -10.4283   21.0386 C   0  0  0  0  0  0
  -24.3600   -9.4211   21.9179 C   0  0  0  0  0  0
  -23.6279   -8.2254   22.0758 C   0  0  0  0  0  0
  -22.4270   -8.0277   21.3550 C   0  0  0  0  0  0
  -21.9904   -9.0232   20.4633 C   0  0  0  0  0  0
  -22.7229  -10.2113   20.3027 C   0  0  0  0  0  0
  -21.6849   -6.0730   22.5279 C   0  0  0  0  0  0
  -21.4001   -6.5637   23.8209 C   0  0  0  0  0  0
  -21.3648   -5.6787   24.9167 C   0  0  0  0  0  0
  -21.6044   -4.3053   24.7220 C   0  0  0  0  0  0
  -21.8824   -3.8140   23.4344 C   0  0  0  0  0  0
  -21.9197   -4.6959   22.3405 C   0  0  0  0  0  0
  -22.7853  -13.5237   21.1827 C   0  0  0  0  0  0
  -22.1662   -4.2147   21.0978 F   0  0  0  0  0  0
  -21.5635   -3.4535   25.7733 F   0  0  0  0  0  0
  -30.0433  -13.2314   20.4595 N   0  0  0  0  0  0
  -26.3030  -12.9316   20.3369 N   0  0  0  0  0  0
  -25.9306  -11.6477   20.5738 N   0  0  0  0  0  0
  -22.0486  -12.8205   22.0359 N   0  0  0  0  0  0
  -25.4333  -15.1869   20.4098 N   0  0  0  0  0  0
  -31.7829  -14.6576   20.0700 O   0  0  0  0  0  0
  -21.6635   -6.8869   21.4244 O   0  0  0  0  0  0
  -22.3546  -14.5572   20.6718 O   0  0  0  0  0  0
  -24.6099  -31.8679   23.2094 C   0  0  0  0  0  0
  -25.8991  -32.4821   23.8397 C   0  0  1  0  0  0
  -27.2462  -27.4700   20.0735 C   0  0  0  0  0  0
  -25.5836  -33.8621   24.2306 N   0  0  0  0  0  0
  -23.3981  -30.4913   21.5485 C   0  0  2  0  0  0
  -24.8464  -28.9589   20.1116 C   0  0  0  0  0  0
  -22.7397  -29.4658   22.4979 C   0  0  0  0  0  0
  -18.0245  -28.1392   22.8502 C   0  0  0  0  0  0
  -24.1437  -36.7296   23.2636 C   0  0  0  0  0  0
  -25.9226  -30.8427   21.3568 C   0  0  0  0  0  0
  -26.0010  -29.4780   20.7077 C   0  0  0  0  0  0
  -27.1996  -28.7342   20.6986 C   0  0  0  0  0  0
  -26.0700  -26.9489   19.4888 C   0  0  0  0  0  0
  -24.8735  -27.6907   19.5038 C   0  0  0  0  0  0
  -23.6050  -29.8197   20.1636 C   0  0  0  0  0  0
  -25.4055  -36.3108   24.0338 C   0  0  1  0  0  0
  -20.5851  -28.3663   23.1316 C   0  0  2  0  0  0
  -20.6737  -26.9400   22.5410 C   0  0  0  0  0  0
  -19.5706  -26.6396   21.5219 C   0  0  0  0  0  0
  -18.1880  -26.7947   22.1617 C   0  0  0  0  0  0
  -19.1508  -28.8842   23.2911 C   0  0  0  0  0  0
  -18.9454  -30.1451   23.8922 C   0  0  0  0  0  0
  -17.6466  -30.6601   24.0578 C   0  0  0  0  0  0
  -25.9019  -34.9483   23.5139 C   0  0  0  0  0  0
  -16.5347  -29.9120   23.6337 C   0  0  0  0  0  0
  -16.7240  -28.6535   23.0356 C   0  0  0  0  0  0
  -26.4416  -31.6602   25.0729 C   0  0  0  0  0  0
  -25.3692  -31.3693   26.1483 C   0  0  0  0  0  0
  -27.0248  -30.3060   24.6083 C   0  0  0  0  0  0
  -27.5986  -32.4331   25.7502 C   0  0  0  0  0  0
  -27.5579  -37.1749   24.8419 C   0  0  0  0  0  0
  -21.4126  -29.3042   22.3733 N   0  0  0  0  0  0
  -26.4205  -37.3844   23.9498 N   0  0  0  0  0  0
  -24.6617  -31.0815   22.0969 N   0  0  0  0  0  0
  -23.4183  -28.8190   23.3003 O   0  0  0  0  0  0
  -28.4288  -26.7694   20.1086 O   0  0  0  0  0  0
  -26.5628  -34.8952   22.4732 O   0  0  0  0  0  0
  -23.5298  -32.1405   23.7510 O   0  0  0  0  0  0
  -28.6737  -19.5195   21.2605 C   0  0  0  0  0  0
  -30.8616  -18.1157   20.2239 C   0  0  0  0  0  0
  -29.3238  -20.0158   20.1090 C   0  0  0  0  0  0
  -29.1037  -18.3365   21.8981 C   0  0  0  0  0  0
  -30.4234  -19.2941   19.5826 C   0  0  0  0  0  0
  -30.2323  -17.6441   21.3949 C   0  0  0  0  0  0
  -28.9144  -21.3074   19.5244 C   0  0  0  0  0  0
  -28.4461  -22.3554   20.2270 C   0  0  0  0  0  0
  -28.3513  -17.8523   23.1268 C   0  0  0  0  0  0
  -31.1767  -19.7871   18.3571 C   0  0  0  0  0  0
  -30.0493  -26.8041   18.3911 C   0  0  0  0  0  0
  -30.8156  -16.4221   22.0989 C   0  0  0  0  0  0
  -28.0278  -23.6835   19.6252 C   0  0  0  0  0  0
  -29.2314  -24.6146   19.3987 C   0  0  0  0  0  0
  -28.8458  -26.0394   18.9569 C   0  0  1  0  0  0
  -30.2461  -15.1641   21.6344 N   0  0  0  0  0  0
  -31.4623  -12.3903   19.0959 H   0  0  0  0  0  0
  -30.3121  -11.2642   19.7532 H   0  0  0  0  0  0
  -29.7224  -11.8380   17.3858 H   0  0  0  0  0  0
  -29.6579  -13.5358   17.7946 H   0  0  0  0  0  0
  -27.8161  -11.3271   18.7780 H   0  0  0  0  0  0
  -27.3584  -12.6824   17.7816 H   0  0  0  0  0  0
  -27.7250  -14.2590   19.6152 H   0  0  0  0  0  0
  -28.6607  -11.8844   21.2932 H   0  0  0  0  0  0
  -28.4432  -13.4931   21.8907 H   0  0  0  0  0  0
  -25.2749   -9.5700   22.4758 H   0  0  0  0  0  0
  -23.9987   -7.4645   22.7485 H   0  0  0  0  0  0
  -21.0852   -8.8730   19.8918 H   0  0  0  0  0  0
  -22.3704  -10.9633   19.6113 H   0  0  0  0  0  0
  -21.1971   -7.6148   23.9711 H   0  0  0  0  0  0
  -21.1462   -6.0514   25.9068 H   0  0  0  0  0  0
  -22.0613   -2.7604   23.2843 H   0  0  0  0  0  0
  -22.4070  -11.9818   22.4680 H   0  0  0  0  0  0
  -21.1097  -13.1216   22.2546 H   0  0  0  0  0  0
  -24.6712  -15.8476   20.5174 H   0  0  0  0  0  0
  -26.3002  -15.6270   20.1267 H   0  0  0  0  0  0
  -26.7076  -32.5544   23.1182 H   0  0  0  0  0  0
  -24.9892  -33.9774   25.0384 H   0  0  0  0  0  0
  -22.6879  -31.3090   21.4078 H   0  0  0  0  0  0
  -23.3783  -35.9534   23.3121 H   0  0  0  0  0  0
  -24.3595  -36.9106   22.2095 H   0  0  0  0  0  0
  -23.7043  -37.6377   23.6779 H   0  0  0  0  0  0
  -26.0271  -31.6056   20.5845 H   0  0  0  0  0  0
  -26.8131  -30.9024   21.9698 H   0  0  0  0  0  0
  -28.0927  -29.1318   21.1606 H   0  0  0  0  0  0
  -26.0637  -25.9673   19.0387 H   0  0  0  0  0  0
  -23.9828  -27.2781   19.0502 H   0  0  0  0  0  0
  -23.7097  -30.5925   19.4016 H   0  0  0  0  0  0
  -22.7306  -29.2359   19.8696 H   0  0  0  0  0  0
  -25.1203  -36.1929   25.0823 H   0  0  0  0  0  0
  -20.9944  -28.3206   24.1434 H   0  0  0  0  0  0
  -20.5636  -26.2273   23.3598 H   0  0  0  0  0  0
  -21.6596  -26.7437   22.1178 H   0  0  0  0  0  0
  -19.6856  -25.6314   21.1224 H   0  0  0  0  0  0
  -19.6642  -27.3234   20.6771 H   0  0  0  0  0  0
  -17.4157  -26.6733   21.4008 H   0  0  0  0  0  0
  -18.0240  -26.0065   22.8988 H   0  0  0  0  0  0
  -19.7937  -30.7260   24.2292 H   0  0  0  0  0  0
  -17.5031  -31.6290   24.5162 H   0  0  0  0  0  0
  -15.5357  -30.3062   23.7647 H   0  0  0  0  0  0
  -15.8622  -28.0889   22.7066 H   0  0  0  0  0  0
  -24.5826  -30.7088   25.7803 H   0  0  0  0  0  0
  -24.8930  -32.2840   26.5027 H   0  0  0  0  0  0
  -25.8032  -30.8772   27.0190 H   0  0  0  0  0  0
  -26.2790  -29.6837   24.1112 H   0  0  0  0  0  0
  -27.4004  -29.7275   25.4528 H   0  0  0  0  0  0
  -27.8624  -30.4400   23.9234 H   0  0  0  0  0  0
  -27.2606  -33.3660   26.2024 H   0  0  0  0  0  0
  -28.3833  -32.6819   25.0348 H   0  0  0  0  0  0
  -28.0585  -31.8472   26.5466 H   0  0  0  0  0  0
  -28.2379  -38.0254   24.7812 H   0  0  0  0  0  0
  -28.1283  -36.2835   24.5780 H   0  0  0  0  0  0
  -27.2388  -37.0802   25.8814 H   0  0  0  0  0  0
  -20.9282  -29.8818   21.7004 H   0  0  0  0  0  0
  -26.0059  -38.2851   24.1755 H   0  0  0  0  0  0
  -27.8268  -20.0562   21.6652 H   0  0  0  0  0  0
  -31.7134  -17.5772   19.8304 H   0  0  0  0  0  0
  -28.9916  -21.3980   18.4497 H   0  0  0  0  0  0
  -28.3690  -22.2861   21.3029 H   0  0  0  0  0  0
  -27.4031  -18.3781   23.2435 H   0  0  0  0  0  0
  -28.9372  -18.0208   24.0307 H   0  0  0  0  0  0
  -28.1234  -16.7886   23.0534 H   0  0  0  0  0  0
  -32.0541  -19.1739   18.1502 H   0  0  0  0  0  0
  -31.5195  -20.8119   18.5009 H   0  0  0  0  0  0
  -30.5366  -19.7606   17.4755 H   0  0  0  0  0  0
  -30.4507  -26.3116   17.5049 H   0  0  0  0  0  0
  -30.8514  -26.8753   19.1261 H   0  0  0  0  0  0
  -29.7710  -27.8192   18.1067 H   0  0  0  0  0  0
  -30.6566  -16.4987   23.1746 H   0  0  0  0  0  0
  -31.9006  -16.4197   21.9772 H   0  0  0  0  0  0
  -27.3032  -24.1485   20.2954 H   0  0  0  0  0  0
  -27.5117  -23.5088   18.6805 H   0  0  0  0  0  0
  -29.8692  -24.1622   18.6385 H   0  0  0  0  0  0
  -29.8394  -24.6705   20.3030 H   0  0  0  0  0  0
  -28.0908  -25.9869   18.1719 H   0  0  0  0  0  0
  -29.4121  -14.8387   22.0980 H   0  0  0  0  0  0
  1 25  1  0  0  0
  1 30  2  0  0  0
  1 86  1  0  0  0
  2  3  1  0  0  0
  2 25  1  0  0  0
  2 87  1  0  0  0
  2 88  1  0  0  0
  3  4  1  0  0  0
  3 89  1  0  0  0
  3 90  1  0  0  0
  4  5  1  0  0  0
  4 91  1  0  0  0
  4 92  1  0  0  0
  5  6  1  0  0  0
  5 26  1  0  0  0
  5 93  1  0  0  0
  6 25  1  0  0  0
  6 94  1  0  0  0
  6 95  1  0  0  0
  7  8  2  0  0  0
  7 26  1  0  0  0
  7 29  1  0  0  0
  8  9  1  0  0  0
  8 22  1  0  0  0
  9 10  1  0  0  0
  9 27  2  0  0  0
 10 11  2  0  0  0
 10 15  1  0  0  0
 11 12  1  0  0  0
 11 96  1  0  0  0
 12 13  2  0  0  0
 12 97  1  0  0  0
 13 14  1  0  0  0
 13 31  1  0  0  0
 14 15  2  0  0  0
 14 98  1  0  0  0
 15 99  1  0  0  0
 16 17  2  0  0  0
 16 21  1  0  0  0
 16 31  1  0  0  0
 17 18  1  0  0  0
 17100  1  0  0  0
 18 19  2  0  0  0
 18101  1  0  0  0
 19 20  1  0  0  0
 19 24  1  0  0  0
 20 21  2  0  0  0
 20102  1  0  0  0
 21 23  1  0  0  0
 22 28  1  0  0  0
 22 32  2  0  0  0
 26 27  1  0  0  0
 28103  1  0  0  0
 28104  1  0  0  0
 29105  1  0  0  0
 29106  1  0  0  0
 33 34  1  0  0  0
 33 66  1  0  0  0
 33 70  2  0  0  0
 34 36  1  0  0  0
 34 59  1  0  0  0
 34107  1  0  0  0
 35 44  2  0  0  0
 35 45  1  0  0  0
 35 68  1  0  0  0
 36 56  1  0  0  0
 36108  1  0  0  0
 37 39  1  0  0  0
 37 47  1  0  0  0
 37 66  1  0  0  0
 37109  1  0  0  0
 38 43  2  0  0  0
 38 46  1  0  0  0
 38 47  1  0  0  0
 39 64  1  0  0  0
 39 67  2  0  0  0
 40 52  1  0  0  0
 40 53  2  0  0  0
 40 58  1  0  0  0
 41110  1  0  0  0
 41111  1  0  0  0
 41112  1  0  0  0
 41 48  1  0  0  0
 42 43  1  0  0  0
 42 66  1  0  0  0
 42113  1  0  0  0
 42114  1  0  0  0
 43 44  1  0  0  0
 44115  1  0  0  0
 45 46  2  0  0  0
 45116  1  0  0  0
 46117  1  0  0  0
 47118  1  0  0  0
 47119  1  0  0  0
 48 56  1  0  0  0
 48 65  1  0  0  0
 48120  1  0  0  0
 49 50  1  0  0  0
 49 53  1  0  0  0
 49 64  1  0  0  0
 49121  1  0  0  0
 50 51  1  0  0  0
 50122  1  0  0  0
 50123  1  0  0  0
 51 52  1  0  0  0
 51124  1  0  0  0
 51125  1  0  0  0
 52126  1  0  0  0
 52127  1  0  0  0
 53 54  1  0  0  0
 54 55  2  0  0  0
 54128  1  0  0  0
 55 57  1  0  0  0
 55129  1  0  0  0
 56 69  2  0  0  0
 57 58  2  0  0  0
 57130  1  0  0  0
 58131  1  0  0  0
 59 60  1  0  0  0
 59 61  1  0  0  0
 59 62  1  0  0  0
 60132  1  0  0  0
 60133  1  0  0  0
 60134  1  0  0  0
 61135  1  0  0  0
 61136  1  0  0  0
 61137  1  0  0  0
 62138  1  0  0  0
 62139  1  0  0  0
 62140  1  0  0  0
 63 65  1  0  0  0
 63141  1  0  0  0
 63142  1  0  0  0
 63143  1  0  0  0
 64144  1  0  0  0
 65145  1  0  0  0
 68 85  1  0  0  0
 71 73  2  0  0  0
 71 74  1  0  0  0
 71146  1  0  0  0
 72 75  2  0  0  0
 72 76  1  0  0  0
 72147  1  0  0  0
 73 75  1  0  0  0
 73 77  1  0  0  0
 74 76  2  0  0  0
 74 79  1  0  0  0
 75 80  1  0  0  0
 76 82  1  0  0  0
 77 78  2  0  0  0
 77148  1  0  0  0
 78 83  1  0  0  0
 78149  1  0  0  0
 79150  1  0  0  0
 79151  1  0  0  0
 79152  1  0  0  0
 80153  1  0  0  0
 80154  1  0  0  0
 80155  1  0  0  0
 81156  1  0  0  0
 81157  1  0  0  0
 81158  1  0  0  0
 81 85  1  0  0  0
 82 86  1  0  0  0
 82159  1  0  0  0
 82160  1  0  0  0
 83 84  1  0  0  0
 83161  1  0  0  0
 83162  1  0  0  0
 84 85  1  0  0  0
 84163  1  0  0  0
 84164  1  0  0  0
 85165  1  0  0  0
 86166  1  0  0  0
M  ISO  4   1 100  68 101  85 101  86 100
M  END
> <chiral flag>
0

> <version>
0

> <s_m_source_file>
/data/baiqing/PycharmProjects/Reinvent-master-3.2/result/LINK_invent/BTK/process_docking_weight1_custom_product_contain_oxygen_bond_distance_aromatic_linkinvent_7_9_3/rearranged_h_0120.sdf

> <i_m_source_file_index>
66

> <r_mmod_Potential_Energy-OPLS-2005>
-125.641906738281

> <r_mmod_Stretch_Energy-OPLS-2005>
32.6069564819336

> <r_mmod_Bend_Energy-OPLS-2005>
92.293586730957

> <r_mmod_Torsional_Energy-OPLS-2005>
217.007522583008

> <r_mmod_Improper_Torsional_Energy-OPLS-2005>
2.11169362068176

> <r_mmod_Van_der_Waal_Energy-OPLS-2005>
150.378784179688

> <r_mmod_Electrostatic_Energy-OPLS-2005>
-431.542297363281

> <r_mmod_Solvation_Energy-OPLS-2005>
-196.277938842773

> <b_mmod_Minimization_Converged-OPLS-2005>
0

> <r_mmod_RMS_Derivative-OPLS-2005>
1.94810569286346

$$$$
66
                    3D
 Structure written by MMmdl.
166174  0  0  1  0            999 V2000
  -30.7309  -14.4935   20.5501 C   0  0  0  0  0  0
  -30.4120  -12.3035   19.4531 C   0  0  0  0  0  0
  -29.4984  -12.4776   18.2222 C   0  0  0  0  0  0
  -28.0215  -12.3398   18.6356 C   0  0  0  0  0  0
  -27.6621  -13.2070   19.8736 C   0  0  2  0  0  0
  -28.7017  -13.0279   21.0043 C   0  0  0  0  0  0
  -25.2619  -13.8168   20.5668 C   0  0  0  0  0  0
  -24.1850  -13.0439   20.9146 C   0  0  0  0  0  0
  -24.6392  -11.6908   20.8710 C   0  0  0  0  0  0
  -23.9048  -10.4297   21.0387 C   0  0  0  0  0  0
  -24.3605   -9.4226   21.9182 C   0  0  0  0  0  0
  -23.6278   -8.2259   22.0775 C   0  0  0  0  0  0
  -22.4273   -8.0269   21.3550 C   0  0  0  0  0  0
  -21.9895   -9.0245   20.4653 C   0  0  0  0  0  0
  -22.7216  -10.2130   20.3050 C   0  0  0  0  0  0
  -21.6849   -6.0715   22.5271 C   0  0  0  0  0  0
  -21.4018   -6.5623   23.8200 C   0  0  0  0  0  0
  -21.3660   -5.6790   24.9167 C   0  0  0  0  0  0
  -21.6047   -4.3048   24.7232 C   0  0  0  0  0  0
  -21.8823   -3.8129   23.4349 C   0  0  0  0  0  0
  -21.9198   -4.6942   22.3397 C   0  0  0  0  0  0
  -22.7879  -13.5259   21.1789 C   0  0  0  0  0  0
  -22.1658   -4.2124   21.0976 F   0  0  0  0  0  0
  -21.5641   -3.4525   25.7751 F   0  0  0  0  0  0
  -30.0318  -13.3232   20.4504 N   0  0  0  0  0  0
  -26.3041  -12.9328   20.3367 N   0  0  0  0  0  0
  -25.9332  -11.6485   20.5778 N   0  0  0  0  0  0
  -22.0512  -12.8252   22.0347 N   0  0  0  0  0  0
  -25.4341  -15.1874   20.4093 N   0  0  0  0  0  0
  -31.8366  -14.6100   20.0125 O   0  0  0  0  0  0
  -21.6634   -6.8867   21.4242 O   0  0  0  0  0  0
  -22.3572  -14.5551   20.6640 O   0  0  0  0  0  0
  -24.6138  -31.8689   23.2067 C   0  0  0  0  0  0
  -25.9017  -32.4830   23.8377 C   0  0  1  0  0  0
  -27.2263  -27.4193   20.0991 C   0  0  0  0  0  0
  -25.5860  -33.8627   24.2307 N   0  0  0  0  0  0
  -23.4055  -30.4893   21.5504 C   0  0  2  0  0  0
  -24.8531  -28.9525   20.1116 C   0  0  0  0  0  0
  -22.7427  -29.4665   22.4997 C   0  0  0  0  0  0
  -18.0279  -28.1385   22.8499 C   0  0  0  0  0  0
  -24.1486  -36.7344   23.2646 C   0  0  0  0  0  0
  -25.9342  -30.8306   21.3579 C   0  0  0  0  0  0
  -26.0142  -29.4604   20.7097 C   0  0  0  0  0  0
  -27.2096  -28.7023   20.6992 C   0  0  0  0  0  0
  -26.0540  -26.9305   19.4874 C   0  0  0  0  0  0
  -24.8665  -27.6889   19.4964 C   0  0  0  0  0  0
  -23.6146  -29.8207   20.1667 C   0  0  0  0  0  0
  -25.4102  -36.3122   24.0333 C   0  0  1  0  0  0
  -20.5867  -28.3703   23.1314 C   0  0  2  0  0  0
  -20.6810  -26.9462   22.5413 C   0  0  0  0  0  0
  -19.5805  -26.6433   21.5203 C   0  0  0  0  0  0
  -18.1968  -26.7949   22.1601 C   0  0  0  0  0  0
  -19.1520  -28.8851   23.2901 C   0  0  0  0  0  0
  -18.9443  -30.1421   23.8969 C   0  0  0  0  0  0
  -17.6463  -30.6608   24.0575 C   0  0  0  0  0  0
  -25.9024  -34.9488   23.5136 C   0  0  0  0  0  0
  -16.5352  -29.9122   23.6315 C   0  0  0  0  0  0
  -16.7272  -28.6513   23.0381 C   0  0  0  0  0  0
  -26.4422  -31.6596   25.0698 C   0  0  0  0  0  0
  -25.3675  -31.3658   26.1442 C   0  0  0  0  0  0
  -27.0262  -30.3059   24.6002 C   0  0  0  0  0  0
  -27.5998  -32.4317   25.7453 C   0  0  0  0  0  0
  -27.5594  -37.1802   24.8452 C   0  0  0  0  0  0
  -21.4159  -29.3042   22.3713 N   0  0  0  0  0  0
  -26.4306  -37.3785   23.9396 N   0  0  0  0  0  0
  -24.6706  -31.0770   22.0983 N   0  0  0  0  0  0
  -23.4177  -28.8216   23.3076 O   0  0  0  0  0  0
  -28.3661  -26.6455   20.0893 O   0  0  0  0  0  0
  -26.5634  -34.8960   22.4720 O   0  0  0  0  0  0
  -23.5314  -32.1434   23.7437 O   0  0  0  0  0  0
  -29.9818  -20.8008   22.6891 C   0  0  0  0  0  0
  -29.7569  -19.2983   20.8055 C   0  0  0  0  0  0
  -30.4634  -19.7489   23.4981 C   0  0  0  0  0  0
  -30.2182  -18.2031   21.5893 C   0  0  0  0  0  0
  -30.5786  -18.4376   22.9501 C   0  0  0  0  0  0
  -29.6423  -20.6122   21.3300 C   0  0  0  0  0  0
  -31.4214  -21.2679   25.2700 C   0  0  0  0  0  0
  -30.9482  -20.0757   24.8640 C   0  0  0  0  0  0
  -30.4733  -16.8998   20.9028 C   0  0  0  0  0  0
  -30.1351  -15.6303   21.2694 C   0  0  0  0  0  0
  -30.2118  -16.6573   24.7586 C   0  0  0  0  0  0
  -30.1194  -24.4820   19.3519 C   0  0  0  0  0  0
  -31.2073  -17.3257   23.7974 C   0  0  0  0  0  0
  -28.2687  -25.4041   20.8246 C   0  0  0  0  0  0
  -29.0340  -22.9617   21.0776 C   0  0  0  0  0  0
  -28.8103  -24.1401   20.0837 C   0  0  2  0  0  0
  -29.2580  -21.6597   20.4912 O   0  0  0  0  0  0
  -31.4605  -12.3637   19.1581 H   0  0  0  0  0  0
  -30.2877  -11.3042   19.8769 H   0  0  0  0  0  0
  -29.7423  -11.7247   17.4703 H   0  0  0  0  0  0
  -29.6712  -13.4494   17.7570 H   0  0  0  0  0  0
  -27.8491  -11.2866   18.8641 H   0  0  0  0  0  0
  -27.3668  -12.5795   17.7967 H   0  0  0  0  0  0
  -27.7022  -14.2464   19.5504 H   0  0  0  0  0  0
  -28.6833  -12.0060   21.3826 H   0  0  0  0  0  0
  -28.4489  -13.6518   21.8599 H   0  0  0  0  0  0
  -25.2747   -9.5707   22.4753 H   0  0  0  0  0  0
  -23.9972   -7.4679   22.7544 H   0  0  0  0  0  0
  -21.0807   -8.8759   19.8973 H   0  0  0  0  0  0
  -22.3653  -10.9664   19.6156 H   0  0  0  0  0  0
  -21.1990   -7.6133   23.9700 H   0  0  0  0  0  0
  -21.1484   -6.0513   25.9082 H   0  0  0  0  0  0
  -22.0598   -2.7590   23.2860 H   0  0  0  0  0  0
  -22.4119  -11.9898   22.4704 H   0  0  0  0  0  0
  -21.1150  -13.1324   22.2587 H   0  0  0  0  0  0
  -24.6742  -15.8461   20.5363 H   0  0  0  0  0  0
  -26.2972  -15.6282   20.1151 H   0  0  0  0  0  0
  -26.7111  -32.5547   23.1168 H   0  0  0  0  0  0
  -24.9871  -33.9770   25.0358 H   0  0  0  0  0  0
  -22.6923  -31.3049   21.4125 H   0  0  0  0  0  0
  -23.3742  -35.9680   23.3254 H   0  0  0  0  0  0
  -24.3575  -36.8973   22.2064 H   0  0  0  0  0  0
  -23.7242  -37.6533   23.6701 H   0  0  0  0  0  0
  -26.0304  -31.5881   20.5782 H   0  0  0  0  0  0
  -26.8297  -30.8947   21.9653 H   0  0  0  0  0  0
  -28.1095  -29.0819   21.1652 H   0  0  0  0  0  0
  -26.0613  -25.9606   19.0081 H   0  0  0  0  0  0
  -23.9762  -27.2934   19.0280 H   0  0  0  0  0  0
  -23.7157  -30.5959   19.4055 H   0  0  0  0  0  0
  -22.7401  -29.2313   19.8841 H   0  0  0  0  0  0
  -25.1253  -36.1995   25.0822 H   0  0  0  0  0  0
  -20.9884  -28.3339   24.1459 H   0  0  0  0  0  0
  -20.5737  -26.2332   23.3580 H   0  0  0  0  0  0
  -21.6689  -26.7583   22.1193 H   0  0  0  0  0  0
  -19.6985  -25.6347   21.1241 H   0  0  0  0  0  0
  -19.6762  -27.3228   20.6726 H   0  0  0  0  0  0
  -17.4241  -26.6649   21.4011 H   0  0  0  0  0  0
  -18.0372  -26.0078   22.8979 H   0  0  0  0  0  0
  -19.7931  -30.7157   24.2444 H   0  0  0  0  0  0
  -17.5064  -31.6310   24.5145 H   0  0  0  0  0  0
  -15.5365  -30.3063   23.7620 H   0  0  0  0  0  0
  -15.8654  -28.0854   22.7128 H   0  0  0  0  0  0
  -24.5926  -30.6917   25.7769 H   0  0  0  0  0  0
  -24.8779  -32.2776   26.4875 H   0  0  0  0  0  0
  -25.8027  -30.8878   27.0230 H   0  0  0  0  0  0
  -26.2817  -29.6793   24.1086 H   0  0  0  0  0  0
  -27.4102  -29.7288   25.4411 H   0  0  0  0  0  0
  -27.8580  -30.4400   23.9083 H   0  0  0  0  0  0
  -27.2662  -33.3651   26.2015 H   0  0  0  0  0  0
  -28.3794  -32.6799   25.0242 H   0  0  0  0  0  0
  -28.0684  -31.8446   26.5350 H   0  0  0  0  0  0
  -28.2565  -38.0160   24.7572 H   0  0  0  0  0  0
  -28.1133  -36.2675   24.6180 H   0  0  0  0  0  0
  -27.2331  -37.1323   25.8866 H   0  0  0  0  0  0
  -20.9347  -29.8728   21.6885 H   0  0  0  0  0  0
  -26.0188  -38.2851   24.1421 H   0  0  0  0  0  0
  -29.9050  -21.7760   23.1412 H   0  0  0  0  0  0
  -29.5237  -19.1337   19.7627 H   0  0  0  0  0  0
  -31.7354  -21.4202   26.2930 H   0  0  0  0  0  0
  -31.5165  -22.1154   24.6035 H   0  0  0  0  0  0
  -30.8997  -19.2956   25.6088 H   0  0  0  0  0  0
  -31.0885  -17.0064   20.0181 H   0  0  0  0  0  0
  -29.4881  -15.4740   22.1163 H   0  0  0  0  0  0
  -30.6951  -15.8542   25.3141 H   0  0  0  0  0  0
  -29.3602  -16.2261   24.2353 H   0  0  0  0  0  0
  -29.8130  -17.3645   25.4853 H   0  0  0  0  0  0
  -29.9247  -25.1377   18.5031 H   0  0  0  0  0  0
  -30.6326  -23.5944   18.9822 H   0  0  0  0  0  0
  -30.8087  -25.0062   20.0137 H   0  0  0  0  0  0
  -32.0510  -17.7342   24.3546 H   0  0  0  0  0  0
  -31.6734  -16.5692   23.1720 H   0  0  0  0  0  0
  -28.8507  -25.5634   21.7334 H   0  0  0  0  0  0
  -27.2503  -25.2097   21.1674 H   0  0  0  0  0  0
  -28.1658  -22.8804   21.7302 H   0  0  0  0  0  0
  -29.8870  -23.2536   21.6892 H   0  0  0  0  0  0
  -28.0640  -23.8267   19.3533 H   0  0  0  0  0  0
  1 25  1  0  0  0
  1 30  2  0  0  0
  1 80  1  0  0  0
  2  3  1  0  0  0
  2 25  1  0  0  0
  2 88  1  0  0  0
  2 89  1  0  0  0
  3  4  1  0  0  0
  3 90  1  0  0  0
  3 91  1  0  0  0
  4  5  1  0  0  0
  4 92  1  0  0  0
  4 93  1  0  0  0
  5  6  1  0  0  0
  5 26  1  0  0  0
  5 94  1  0  0  0
  6 25  1  0  0  0
  6 95  1  0  0  0
  6 96  1  0  0  0
  7  8  2  0  0  0
  7 26  1  0  0  0
  7 29  1  0  0  0
  8  9  1  0  0  0
  8 22  1  0  0  0
  9 10  1  0  0  0
  9 27  2  0  0  0
 10 11  2  0  0  0
 10 15  1  0  0  0
 11 12  1  0  0  0
 11 97  1  0  0  0
 12 13  2  0  0  0
 12 98  1  0  0  0
 13 14  1  0  0  0
 13 31  1  0  0  0
 14 15  2  0  0  0
 14 99  1  0  0  0
 15100  1  0  0  0
 16 17  2  0  0  0
 16 21  1  0  0  0
 16 31  1  0  0  0
 17 18  1  0  0  0
 17101  1  0  0  0
 18 19  2  0  0  0
 18102  1  0  0  0
 19 20  1  0  0  0
 19 24  1  0  0  0
 20 21  2  0  0  0
 20103  1  0  0  0
 21 23  1  0  0  0
 22 28  1  0  0  0
 22 32  2  0  0  0
 26 27  1  0  0  0
 28104  1  0  0  0
 28105  1  0  0  0
 29106  1  0  0  0
 29107  1  0  0  0
 33 34  1  0  0  0
 33 66  1  0  0  0
 33 70  2  0  0  0
 34 36  1  0  0  0
 34 59  1  0  0  0
 34108  1  0  0  0
 35 44  2  0  0  0
 35 45  1  0  0  0
 35 68  1  0  0  0
 36 56  1  0  0  0
 36109  1  0  0  0
 37 39  1  0  0  0
 37 47  1  0  0  0
 37 66  1  0  0  0
 37110  1  0  0  0
 38 43  2  0  0  0
 38 46  1  0  0  0
 38 47  1  0  0  0
 39 64  1  0  0  0
 39 67  2  0  0  0
 40 52  1  0  0  0
 40 53  2  0  0  0
 40 58  1  0  0  0
 41111  1  0  0  0
 41112  1  0  0  0
 41113  1  0  0  0
 41 48  1  0  0  0
 42 43  1  0  0  0
 42 66  1  0  0  0
 42114  1  0  0  0
 42115  1  0  0  0
 43 44  1  0  0  0
 44116  1  0  0  0
 45 46  2  0  0  0
 45117  1  0  0  0
 46118  1  0  0  0
 47119  1  0  0  0
 47120  1  0  0  0
 48 56  1  0  0  0
 48 65  1  0  0  0
 48121  1  0  0  0
 49 50  1  0  0  0
 49 53  1  0  0  0
 49 64  1  0  0  0
 49122  1  0  0  0
 50 51  1  0  0  0
 50123  1  0  0  0
 50124  1  0  0  0
 51 52  1  0  0  0
 51125  1  0  0  0
 51126  1  0  0  0
 52127  1  0  0  0
 52128  1  0  0  0
 53 54  1  0  0  0
 54 55  2  0  0  0
 54129  1  0  0  0
 55 57  1  0  0  0
 55130  1  0  0  0
 56 69  2  0  0  0
 57 58  2  0  0  0
 57131  1  0  0  0
 58132  1  0  0  0
 59 60  1  0  0  0
 59 61  1  0  0  0
 59 62  1  0  0  0
 60133  1  0  0  0
 60134  1  0  0  0
 60135  1  0  0  0
 61136  1  0  0  0
 61137  1  0  0  0
 61138  1  0  0  0
 62139  1  0  0  0
 62140  1  0  0  0
 62141  1  0  0  0
 63 65  1  0  0  0
 63142  1  0  0  0
 63143  1  0  0  0
 63144  1  0  0  0
 64145  1  0  0  0
 65146  1  0  0  0
 68 84  1  0  0  0
 71 73  2  0  0  0
 71 76  1  0  0  0
 71147  1  0  0  0
 72 74  1  0  0  0
 72 76  2  0  0  0
 72148  1  0  0  0
 73 75  1  0  0  0
 73 78  1  0  0  0
 74 75  2  0  0  0
 74 79  1  0  0  0
 75 83  1  0  0  0
 76 87  1  0  0  0
 77 78  2  0  0  0
 77149  1  0  0  0
 77150  1  0  0  0
 78151  1  0  0  0
 79 80  2  0  0  0
 79152  1  0  0  0
 80153  1  0  0  0
 81 83  1  0  0  0
 81154  1  0  0  0
 81155  1  0  0  0
 81156  1  0  0  0
 82157  1  0  0  0
 82158  1  0  0  0
 82159  1  0  0  0
 82 86  1  0  0  0
 83160  1  0  0  0
 83161  1  0  0  0
 84 86  1  0  0  0
 84162  1  0  0  0
 84163  1  0  0  0
 85 86  1  0  0  0
 85 87  1  0  0  0
 85164  1  0  0  0
 85165  1  0  0  0
 86166  1  0  0  0
M  ISO  4   1 100  68 101  80 100  84 101
M  END
> <chiral flag>
0

> <version>
0

> <s_m_source_file>
/data/baiqing/PycharmProjects/Reinvent-master-3.2/result/LINK_invent/BTK/process_docking_weight1_custom_product_contain_oxygen_bond_distance_aromatic_linkinvent_7_9_3/rearranged_h_0120.sdf

> <i_m_source_file_index>
67

> <r_mmod_Potential_Energy-OPLS-2005>
57.1351280212402

> <r_mmod_Stretch_Energy-OPLS-2005>
49.3895645141602

> <r_mmod_Bend_Energy-OPLS-2005>
116.312355041504

> <r_mmod_Torsional_Energy-OPLS-2005>
237.92333984375

> <r_mmod_Improper_Torsional_Energy-OPLS-2005>
4.60881662368774

> <r_mmod_Van_der_Waal_Energy-OPLS-2005>
169.738296508789

> <r_mmod_Electrostatic_Energy-OPLS-2005>
-348.819915771484

> <r_mmod_Solvation_Energy-OPLS-2005>
-188.821746826172

> <b_mmod_Minimization_Converged-OPLS-2005>
0

> <r_mmod_RMS_Derivative-OPLS-2005>
4.03922414779663

$$$$
67
                    3D
 Structure written by MMmdl.
159168  0  0  1  0            999 V2000
  -30.6331  -14.6466   20.4814 C   0  0  0  0  0  0
  -30.4423  -12.4019   19.4477 C   0  0  0  0  0  0
  -29.5115  -12.5142   18.2185 C   0  0  0  0  0  0
  -28.0335  -12.3492   18.6300 C   0  0  0  0  0  0
  -27.6507  -13.2179   19.8576 C   0  0  2  0  0  0
  -28.7002  -13.0839   20.9868 C   0  0  0  0  0  0
  -25.2506  -13.8157   20.5686 C   0  0  0  0  0  0
  -24.1774  -13.0407   20.9198 C   0  0  0  0  0  0
  -24.6351  -11.6893   20.8724 C   0  0  0  0  0  0
  -23.9002  -10.4276   21.0393 C   0  0  0  0  0  0
  -24.3561   -9.4201   21.9164 C   0  0  0  0  0  0
  -23.6263   -8.2213   22.0728 C   0  0  0  0  0  0
  -22.4255   -8.0232   21.3514 C   0  0  0  0  0  0
  -21.9868   -9.0192   20.4620 C   0  0  0  0  0  0
  -22.7175  -10.2091   20.3037 C   0  0  0  0  0  0
  -21.6842   -6.0674   22.5260 C   0  0  0  0  0  0
  -21.4014   -6.5596   23.8184 C   0  0  0  0  0  0
  -21.3681   -5.6765   24.9154 C   0  0  0  0  0  0
  -21.6061   -4.3019   24.7220 C   0  0  0  0  0  0
  -21.8822   -3.8087   23.4341 C   0  0  0  0  0  0
  -21.9194   -4.6899   22.3387 C   0  0  0  0  0  0
  -22.7800  -13.5181   21.1847 C   0  0  0  0  0  0
  -22.1665   -4.2084   21.0968 F   0  0  0  0  0  0
  -21.5650   -3.4518   25.7732 F   0  0  0  0  0  0
  -30.0175  -13.4221   20.4229 N   0  0  0  0  0  0
  -26.2954  -12.9339   20.3295 N   0  0  0  0  0  0
  -25.9287  -11.6503   20.5733 N   0  0  0  0  0  0
  -22.0429  -12.8219   22.0438 N   0  0  0  0  0  0
  -25.4108  -15.1869   20.4067 N   0  0  0  0  0  0
  -31.7976  -14.7959   20.1017 O   0  0  0  0  0  0
  -21.6641   -6.8814   21.4213 O   0  0  0  0  0  0
  -22.3493  -14.5472   20.6672 O   0  0  0  0  0  0
  -24.6304  -31.8551   23.1991 C   0  0  0  0  0  0
  -25.9142  -32.4732   23.8333 C   0  0  1  0  0  0
  -27.2301  -27.3113   20.1009 C   0  0  0  0  0  0
  -25.5965  -33.8532   24.2274 N   0  0  0  0  0  0
  -23.4259  -30.4756   21.5397 C   0  0  2  0  0  0
  -24.8686  -28.9260   20.1132 C   0  0  0  0  0  0
  -22.7483  -29.4602   22.4905 C   0  0  0  0  0  0
  -18.0283  -28.1369   22.8505 C   0  0  0  0  0  0
  -24.1497  -36.7284   23.2642 C   0  0  0  0  0  0
  -25.9665  -30.7799   21.3716 C   0  0  0  0  0  0
  -26.0394  -29.4071   20.7129 C   0  0  0  0  0  0
  -27.2224  -28.6079   20.7022 C   0  0  0  0  0  0
  -26.0295  -26.8855   19.4834 C   0  0  0  0  0  0
  -24.8631  -27.6674   19.4960 C   0  0  0  0  0  0
  -23.6404  -29.8058   20.1582 C   0  0  0  0  0  0
  -25.4106  -36.3030   24.0339 C   0  0  1  0  0  0
  -20.5898  -28.3689   23.1285 C   0  0  2  0  0  0
  -20.6770  -26.9406   22.5419 C   0  0  0  0  0  0
  -19.5727  -26.6360   21.5236 C   0  0  0  0  0  0
  -18.1911  -26.7918   22.1643 C   0  0  0  0  0  0
  -19.1546  -28.8837   23.2897 C   0  0  0  0  0  0
  -18.9471  -30.1446   23.8898 C   0  0  0  0  0  0
  -17.6480  -30.6577   24.0559 C   0  0  0  0  0  0
  -25.9046  -34.9411   23.5093 C   0  0  0  0  0  0
  -16.5365  -29.9081   23.6322 C   0  0  0  0  0  0
  -16.7283  -28.6498   23.0342 C   0  0  0  0  0  0
  -26.4483  -31.6553   25.0724 C   0  0  0  0  0  0
  -25.3720  -31.3803   26.1486 C   0  0  0  0  0  0
  -27.0366  -30.2976   24.6210 C   0  0  0  0  0  0
  -27.6001  -32.4300   25.7535 C   0  0  0  0  0  0
  -27.5570  -37.1802   24.8455 C   0  0  0  0  0  0
  -21.4188  -29.3064   22.3680 N   0  0  0  0  0  0
  -26.4280  -37.3735   23.9409 N   0  0  0  0  0  0
  -24.6919  -31.0547   22.0934 N   0  0  0  0  0  0
  -23.4198  -28.8131   23.2980 O   0  0  0  0  0  0
  -28.3520  -26.4681   20.1398 O   0  0  0  0  0  0
  -26.5560  -34.8891   22.4630 O   0  0  0  0  0  0
  -23.5461  -32.1358   23.7302 O   0  0  0  0  0  0
  -31.2267  -19.2823   20.4040 C   0  0  0  0  0  0
  -31.1873  -17.8576   20.4591 C   0  0  0  0  0  0
  -28.8112  -17.9659   20.7249 C   0  0  0  0  0  0
  -30.0681  -20.1172   20.5360 C   0  0  0  0  0  0
  -28.8426  -19.3968   20.6921 C   0  0  0  0  0  0
  -29.9719  -17.1548   20.6450 C   0  0  0  0  0  0
  -29.1587  -22.6620   20.1789 C   0  0  0  0  0  0
  -31.4045  -22.2059   20.8724 C   0  0  0  0  0  0
  -30.2134  -21.6627   20.5273 C   0  0  0  0  0  0
  -29.2804  -24.0261   20.2596 C   0  0  0  0  0  0
  -31.7632  -23.6899   20.8594 C   0  0  0  0  0  0
  -30.5827  -24.6717   20.6886 C   0  0  0  0  0  0
  -27.5152  -20.0989   20.9034 C   0  0  0  0  0  0
  -28.1340  -25.0238   19.9028 C   0  0  0  0  0  0
  -29.8257  -15.7054   20.7986 N   0  0  0  0  0  0
  -31.4822  -12.5353   19.1420 H   0  0  0  0  0  0
  -30.3871  -11.4075   19.8929 H   0  0  0  0  0  0
  -29.7878  -11.7630   17.4768 H   0  0  0  0  0  0
  -29.6497  -13.4854   17.7362 H   0  0  0  0  0  0
  -27.8817  -11.2953   18.8615 H   0  0  0  0  0  0
  -27.3772  -12.5758   17.7880 H   0  0  0  0  0  0
  -27.6644  -14.2534   19.5142 H   0  0  0  0  0  0
  -28.7123  -12.0710   21.3939 H   0  0  0  0  0  0
  -28.4491  -13.7386   21.8225 H   0  0  0  0  0  0
  -25.2702   -9.5695   22.4745 H   0  0  0  0  0  0
  -23.9984   -7.4606   22.7456 H   0  0  0  0  0  0
  -21.0784   -8.8656   19.8945 H   0  0  0  0  0  0
  -22.3588  -10.9590   19.6135 H   0  0  0  0  0  0
  -21.2013   -7.6110   23.9664 H   0  0  0  0  0  0
  -21.1526   -6.0499   25.9060 H   0  0  0  0  0  0
  -22.0601   -2.7548   23.2839 H   0  0  0  0  0  0
  -22.4070  -11.9964   22.4957 H   0  0  0  0  0  0
  -21.1004  -13.1195   22.2519 H   0  0  0  0  0  0
  -24.6168  -15.8161   20.4767 H   0  0  0  0  0  0
  -26.2377  -15.6317   20.0301 H   0  0  0  0  0  0
  -26.7229  -32.5358   23.1090 H   0  0  0  0  0  0
  -25.0162  -33.9655   25.0457 H   0  0  0  0  0  0
  -22.7259  -31.2979   21.3896 H   0  0  0  0  0  0
  -23.3727  -35.9645   23.3268 H   0  0  0  0  0  0
  -24.3608  -36.8914   22.2065 H   0  0  0  0  0  0
  -23.7291  -37.6505   23.6665 H   0  0  0  0  0  0
  -26.0973  -31.5415   20.6030 H   0  0  0  0  0  0
  -26.8491  -30.8278   21.9990 H   0  0  0  0  0  0
  -28.1181  -28.9630   21.1902 H   0  0  0  0  0  0
  -25.9552  -25.9273   18.9910 H   0  0  0  0  0  0
  -23.9640  -27.2845   19.0297 H   0  0  0  0  0  0
  -23.7716  -30.5734   19.3959 H   0  0  0  0  0  0
  -22.7630  -29.2339   19.8499 H   0  0  0  0  0  0
  -25.1304  -36.1844   25.0834 H   0  0  0  0  0  0
  -21.0020  -28.3240   24.1397 H   0  0  0  0  0  0
  -20.5651  -26.2302   23.3625 H   0  0  0  0  0  0
  -21.6627  -26.7389   22.1214 H   0  0  0  0  0  0
  -19.6863  -25.6269   21.1251 H   0  0  0  0  0  0
  -19.6641  -27.3179   20.6770 H   0  0  0  0  0  0
  -17.4197  -26.6697   21.4027 H   0  0  0  0  0  0
  -18.0269  -26.0058   22.9027 H   0  0  0  0  0  0
  -19.7962  -30.7254   24.2247 H   0  0  0  0  0  0
  -17.5045  -31.6260   24.5160 H   0  0  0  0  0  0
  -15.5370  -30.2982   23.7649 H   0  0  0  0  0  0
  -15.8684  -28.0826   22.7027 H   0  0  0  0  0  0
  -24.5791  -30.7233   25.7899 H   0  0  0  0  0  0
  -24.9041  -32.3047   26.4890 H   0  0  0  0  0  0
  -25.8040  -30.9004   27.0279 H   0  0  0  0  0  0
  -26.3015  -29.6706   24.1155 H   0  0  0  0  0  0
  -27.4018  -29.7221   25.4726 H   0  0  0  0  0  0
  -27.8859  -30.4296   23.9503 H   0  0  0  0  0  0
  -27.2534  -33.3543   26.2174 H   0  0  0  0  0  0
  -28.3808  -32.6956   25.0398 H   0  0  0  0  0  0
  -28.0671  -31.8399   26.5434 H   0  0  0  0  0  0
  -28.2565  -38.0118   24.7470 H   0  0  0  0  0  0
  -28.1083  -36.2642   24.6288 H   0  0  0  0  0  0
  -27.2293  -37.1454   25.8860 H   0  0  0  0  0  0
  -20.9337  -29.8889   21.6999 H   0  0  0  0  0  0
  -26.0127  -38.2795   24.1393 H   0  0  0  0  0  0
  -32.2011  -19.7205   20.2440 H   0  0  0  0  0  0
  -32.1190  -17.3175   20.3720 H   0  0  0  0  0  0
  -27.8551  -17.4751   20.8407 H   0  0  0  0  0  0
  -28.2129  -22.3023   19.8085 H   0  0  0  0  0  0
  -32.2266  -21.5819   21.1924 H   0  0  0  0  0  0
  -32.4661  -23.8360   20.0366 H   0  0  0  0  0  0
  -32.3109  -23.9347   21.7723 H   0  0  0  0  0  0
  -30.4156  -25.2249   21.6131 H   0  0  0  0  0  0
  -30.8436  -25.4202   19.9382 H   0  0  0  0  0  0
  -26.7845  -19.4314   21.3589 H   0  0  0  0  0  0
  -27.1076  -20.4287   19.9482 H   0  0  0  0  0  0
  -27.6216  -20.9490   21.5786 H   0  0  0  0  0  0
  -27.2529  -24.6962   20.4580 H   0  0  0  0  0  0
  -27.9183  -24.8670   18.8454 H   0  0  0  0  0  0
  -28.9069  -15.4120   21.0940 H   0  0  0  0  0  0
  1 25  1  0  0  0
  1 30  2  0  0  0
  1 85  1  0  0  0
  2  3  1  0  0  0
  2 25  1  0  0  0
  2 86  1  0  0  0
  2 87  1  0  0  0
  3  4  1  0  0  0
  3 88  1  0  0  0
  3 89  1  0  0  0
  4  5  1  0  0  0
  4 90  1  0  0  0
  4 91  1  0  0  0
  5  6  1  0  0  0
  5 26  1  0  0  0
  5 92  1  0  0  0
  6 25  1  0  0  0
  6 93  1  0  0  0
  6 94  1  0  0  0
  7  8  2  0  0  0
  7 26  1  0  0  0
  7 29  1  0  0  0
  8  9  1  0  0  0
  8 22  1  0  0  0
  9 10  1  0  0  0
  9 27  2  0  0  0
 10 11  2  0  0  0
 10 15  1  0  0  0
 11 12  1  0  0  0
 11 95  1  0  0  0
 12 13  2  0  0  0
 12 96  1  0  0  0
 13 14  1  0  0  0
 13 31  1  0  0  0
 14 15  2  0  0  0
 14 97  1  0  0  0
 15 98  1  0  0  0
 16 17  2  0  0  0
 16 21  1  0  0  0
 16 31  1  0  0  0
 17 18  1  0  0  0
 17 99  1  0  0  0
 18 19  2  0  0  0
 18100  1  0  0  0
 19 20  1  0  0  0
 19 24  1  0  0  0
 20 21  2  0  0  0
 20101  1  0  0  0
 21 23  1  0  0  0
 22 28  1  0  0  0
 22 32  2  0  0  0
 26 27  1  0  0  0
 28102  1  0  0  0
 28103  1  0  0  0
 29104  1  0  0  0
 29105  1  0  0  0
 33 34  1  0  0  0
 33 66  1  0  0  0
 33 70  2  0  0  0
 34 36  1  0  0  0
 34 59  1  0  0  0
 34106  1  0  0  0
 35 44  2  0  0  0
 35 45  1  0  0  0
 35 68  1  0  0  0
 36 56  1  0  0  0
 36107  1  0  0  0
 37 39  1  0  0  0
 37 47  1  0  0  0
 37 66  1  0  0  0
 37108  1  0  0  0
 38 43  2  0  0  0
 38 46  1  0  0  0
 38 47  1  0  0  0
 39 64  1  0  0  0
 39 67  2  0  0  0
 40 52  1  0  0  0
 40 53  2  0  0  0
 40 58  1  0  0  0
 41109  1  0  0  0
 41110  1  0  0  0
 41111  1  0  0  0
 41 48  1  0  0  0
 42 43  1  0  0  0
 42 66  1  0  0  0
 42112  1  0  0  0
 42113  1  0  0  0
 43 44  1  0  0  0
 44114  1  0  0  0
 45 46  2  0  0  0
 45115  1  0  0  0
 46116  1  0  0  0
 47117  1  0  0  0
 47118  1  0  0  0
 48 56  1  0  0  0
 48 65  1  0  0  0
 48119  1  0  0  0
 49 50  1  0  0  0
 49 53  1  0  0  0
 49 64  1  0  0  0
 49120  1  0  0  0
 50 51  1  0  0  0
 50121  1  0  0  0
 50122  1  0  0  0
 51 52  1  0  0  0
 51123  1  0  0  0
 51124  1  0  0  0
 52125  1  0  0  0
 52126  1  0  0  0
 53 54  1  0  0  0
 54 55  2  0  0  0
 54127  1  0  0  0
 55 57  1  0  0  0
 55128  1  0  0  0
 56 69  2  0  0  0
 57 58  2  0  0  0
 57129  1  0  0  0
 58130  1  0  0  0
 59 60  1  0  0  0
 59 61  1  0  0  0
 59 62  1  0  0  0
 60131  1  0  0  0
 60132  1  0  0  0
 60133  1  0  0  0
 61134  1  0  0  0
 61135  1  0  0  0
 61136  1  0  0  0
 62137  1  0  0  0
 62138  1  0  0  0
 62139  1  0  0  0
 63 65  1  0  0  0
 63140  1  0  0  0
 63141  1  0  0  0
 63142  1  0  0  0
 64143  1  0  0  0
 65144  1  0  0  0
 68 84  1  0  0  0
 71 72  2  0  0  0
 71 74  1  0  0  0
 71145  1  0  0  0
 72 76  1  0  0  0
 72146  1  0  0  0
 73 75  1  0  0  0
 73 76  2  0  0  0
 73147  1  0  0  0
 74 75  2  0  0  0
 74 79  1  0  0  0
 75 83  1  0  0  0
 76 85  1  0  0  0
 77 79  1  0  0  0
 77 80  2  0  0  0
 77148  1  0  0  0
 78 79  2  0  0  0
 78 81  1  0  0  0
 78149  1  0  0  0
 80 82  1  0  0  0
 80 84  1  0  0  0
 81 82  1  0  0  0
 81150  1  0  0  0
 81151  1  0  0  0
 82152  1  0  0  0
 82153  1  0  0  0
 83154  1  0  0  0
 83155  1  0  0  0
 83156  1  0  0  0
 84157  1  0  0  0
 84158  1  0  0  0
 85159  1  0  0  0
M  ISO  4   1 100  68 101  84 101  85 100
M  END
> <chiral flag>
0

> <version>
0

> <s_m_source_file>
/data/baiqing/PycharmProjects/Reinvent-master-3.2/result/LINK_invent/BTK/process_docking_weight1_custom_product_contain_oxygen_bond_distance_aromatic_linkinvent_7_9_3/rearranged_h_0120.sdf

> <i_m_source_file_index>
68

> <r_mmod_Potential_Energy-OPLS-2005>
109.834739685059

> <r_mmod_Stretch_Energy-OPLS-2005>
83.252815246582

> <r_mmod_Bend_Energy-OPLS-2005>
141.630035400391

> <r_mmod_Torsional_Energy-OPLS-2005>
230.686920166016

> <r_mmod_Improper_Torsional_Energy-OPLS-2005>
4.96502685546875

> <r_mmod_Van_der_Waal_Energy-OPLS-2005>
166.777114868164

> <r_mmod_Electrostatic_Energy-OPLS-2005>
-363.050659179688

> <r_mmod_Solvation_Energy-OPLS-2005>
-205.791107177734

> <b_mmod_Minimization_Converged-OPLS-2005>
0

> <r_mmod_RMS_Derivative-OPLS-2005>
4.25304317474365

$$$$
68
                    3D
 Structure written by MMmdl.
156164  0  0  1  0            999 V2000
  -30.6843  -14.5347   20.4830 C   0  0  0  0  0  0
  -30.4305  -12.3421   19.4065 C   0  0  0  0  0  0
  -29.4954  -12.5443   18.1946 C   0  0  0  0  0  0
  -28.0210  -12.3752   18.6165 C   0  0  0  0  0  0
  -27.6657  -13.2148   19.8719 C   0  0  2  0  0  0
  -28.7176  -13.0278   20.9891 C   0  0  0  0  0  0
  -25.2618  -13.8186   20.5710 C   0  0  0  0  0  0
  -24.1846  -13.0468   20.9173 C   0  0  0  0  0  0
  -24.6400  -11.6927   20.8713 C   0  0  0  0  0  0
  -23.9083  -10.4302   21.0390 C   0  0  0  0  0  0
  -24.3634   -9.4222   21.9177 C   0  0  0  0  0  0
  -23.6310   -8.2257   22.0744 C   0  0  0  0  0  0
  -22.4288   -8.0273   21.3533 C   0  0  0  0  0  0
  -21.9912   -9.0272   20.4675 C   0  0  0  0  0  0
  -22.7226  -10.2145   20.3072 C   0  0  0  0  0  0
  -21.6848   -6.0739   22.5275 C   0  0  0  0  0  0
  -21.3990   -6.5632   23.8206 C   0  0  0  0  0  0
  -21.3665   -5.6784   24.9173 C   0  0  0  0  0  0
  -21.6072   -4.3058   24.7221 C   0  0  0  0  0  0
  -21.8813   -3.8157   23.4339 C   0  0  0  0  0  0
  -21.9161   -4.6974   22.3400 C   0  0  0  0  0  0
  -22.7846  -13.5295   21.1788 C   0  0  0  0  0  0
  -22.1658   -4.2155   21.0987 F   0  0  0  0  0  0
  -21.5650   -3.4530   25.7733 F   0  0  0  0  0  0
  -30.0421  -13.3350   20.4235 N   0  0  0  0  0  0
  -26.3065  -12.9370   20.3388 N   0  0  0  0  0  0
  -25.9326  -11.6536   20.5709 N   0  0  0  0  0  0
  -22.0433  -12.8346   22.0334 N   0  0  0  0  0  0
  -25.4390  -15.1887   20.4084 N   0  0  0  0  0  0
  -31.8512  -14.6737   20.1002 O   0  0  0  0  0  0
  -21.6653   -6.8882   21.4224 O   0  0  0  0  0  0
  -22.3565  -14.5591   20.6589 O   0  0  0  0  0  0
  -24.6185  -31.8709   23.2103 C   0  0  0  0  0  0
  -25.9084  -32.4822   23.8388 C   0  0  1  0  0  0
  -27.2073  -27.3772   20.0934 C   0  0  0  0  0  0
  -25.5961  -33.8628   24.2294 N   0  0  0  0  0  0
  -23.4070  -30.4962   21.5516 C   0  0  2  0  0  0
  -24.8454  -28.9606   20.1138 C   0  0  0  0  0  0
  -22.7463  -29.4675   22.4978 C   0  0  0  0  0  0
  -18.0300  -28.1370   22.8437 C   0  0  0  0  0  0
  -24.1519  -36.7295   23.2624 C   0  0  0  0  0  0
  -25.9487  -30.8039   21.3921 C   0  0  0  0  0  0
  -26.0120  -29.4444   20.7178 C   0  0  0  0  0  0
  -27.1938  -28.6620   20.6969 C   0  0  0  0  0  0
  -26.0150  -26.9292   19.4753 C   0  0  0  0  0  0
  -24.8457  -27.7056   19.4904 C   0  0  0  0  0  0
  -23.6173  -29.8368   20.1662 C   0  0  0  0  0  0
  -25.4146  -36.3110   24.0314 C   0  0  1  0  0  0
  -20.5889  -28.3680   23.1298 C   0  0  2  0  0  0
  -20.6800  -26.9407   22.5445 C   0  0  0  0  0  0
  -19.5802  -26.6365   21.5210 C   0  0  0  0  0  0
  -18.1952  -26.7937   22.1544 C   0  0  0  0  0  0
  -19.1546  -28.8830   23.2862 C   0  0  0  0  0  0
  -18.9467  -30.1435   23.8875 C   0  0  0  0  0  0
  -17.6472  -30.6578   24.0537 C   0  0  0  0  0  0
  -25.9073  -34.9483   23.5099 C   0  0  0  0  0  0
  -16.5364  -29.9065   23.6317 C   0  0  0  0  0  0
  -16.7289  -28.6483   23.0329 C   0  0  0  0  0  0
  -26.4448  -31.6637   25.0768 C   0  0  0  0  0  0
  -25.3624  -31.3881   26.1472 C   0  0  0  0  0  0
  -27.0273  -30.3009   24.6331 C   0  0  0  0  0  0
  -27.6052  -32.4370   25.7504 C   0  0  0  0  0  0
  -27.5632  -37.1799   24.8427 C   0  0  0  0  0  0
  -21.4198  -29.3036   22.3699 N   0  0  0  0  0  0
  -26.4324  -37.3798   23.9402 N   0  0  0  0  0  0
  -24.6737  -31.0770   22.1039 N   0  0  0  0  0  0
  -23.4225  -28.8215   23.3027 O   0  0  0  0  0  0
  -28.3758  -26.6259   20.1095 O   0  0  0  0  0  0
  -26.5608  -34.8940   22.4644 O   0  0  0  0  0  0
  -23.5370  -32.1517   23.7444 O   0  0  0  0  0  0
  -29.9003  -19.4844   18.9668 C   0  0  0  0  0  0
  -29.4159  -18.0522   20.8746 C   0  0  0  0  0  0
  -30.5117  -17.1246   18.9039 C   0  0  0  0  0  0
  -29.3604  -19.3408   20.2618 C   0  0  0  0  0  0
  -30.4598  -18.3884   18.2820 C   0  0  0  0  0  0
  -29.9817  -16.9264   20.2076 C   0  0  0  0  0  0
  -28.7408  -20.5192   20.9355 C   0  0  0  0  0  0
  -28.9326  -21.8307   20.6158 C   0  0  0  0  0  0
  -28.1816  -22.9338   21.2673 C   0  0  0  0  0  0
  -30.9800  -18.5748   16.8644 C   0  0  0  0  0  0
  -28.7003  -24.3937   21.1975 C   0  0  0  0  0  0
  -28.3498  -25.1822   19.9093 C   0  0  0  0  0  0
  -29.9292  -15.6109   20.8097 N   0  0  0  0  0  0
  -27.1342  -22.7259   21.8861 O   0  0  0  0  0  0
  -31.4713  -12.4522   19.0976 H   0  0  0  0  0  0
  -30.3385  -11.3266   19.7988 H   0  0  0  0  0  0
  -29.7472  -11.8490   17.3915 H   0  0  0  0  0  0
  -29.6377  -13.5449   17.7779 H   0  0  0  0  0  0
  -27.8511  -11.3156   18.8206 H   0  0  0  0  0  0
  -27.3609  -12.6388   17.7891 H   0  0  0  0  0  0
  -27.7009  -14.2602   19.5635 H   0  0  0  0  0  0
  -28.7052  -12.0030   21.3646 H   0  0  0  0  0  0
  -28.4927  -13.6584   21.8467 H   0  0  0  0  0  0
  -25.2788   -9.5740   22.4729 H   0  0  0  0  0  0
  -24.0050   -7.4661   22.7453 H   0  0  0  0  0  0
  -21.0833   -8.8790   19.9004 H   0  0  0  0  0  0
  -22.3669  -10.9685   19.6210 H   0  0  0  0  0  0
  -21.1975   -7.6144   23.9728 H   0  0  0  0  0  0
  -21.1510   -6.0510   25.9082 H   0  0  0  0  0  0
  -22.0578   -2.7621   23.2821 H   0  0  0  0  0  0
  -22.4039  -12.0121   22.4952 H   0  0  0  0  0  0
  -21.1025  -13.1427   22.2395 H   0  0  0  0  0  0
  -24.6798  -15.8511   20.5197 H   0  0  0  0  0  0
  -26.3075  -15.6237   20.1208 H   0  0  0  0  0  0
  -26.7154  -32.5444   23.1143 H   0  0  0  0  0  0
  -25.0187  -33.9791   25.0487 H   0  0  0  0  0  0
  -22.6943  -31.3138   21.4144 H   0  0  0  0  0  0
  -23.3817  -35.9595   23.3295 H   0  0  0  0  0  0
  -24.3611  -36.8909   22.2040 H   0  0  0  0  0  0
  -23.7257  -37.6484   23.6645 H   0  0  0  0  0  0
  -26.1219  -31.5839   20.6508 H   0  0  0  0  0  0
  -26.8141  -30.8083   22.0455 H   0  0  0  0  0  0
  -28.0965  -29.0312   21.1612 H   0  0  0  0  0  0
  -25.9388  -25.9901   18.9541 H   0  0  0  0  0  0
  -23.9488  -27.3309   19.0182 H   0  0  0  0  0  0
  -23.7414  -30.6138   19.4102 H   0  0  0  0  0  0
  -22.7365  -29.2676   19.8630 H   0  0  0  0  0  0
  -25.1346  -36.1958   25.0804 H   0  0  0  0  0  0
  -20.9938  -28.3272   24.1430 H   0  0  0  0  0  0
  -20.5666  -26.2312   23.3652 H   0  0  0  0  0  0
  -21.6693  -26.7450   22.1292 H   0  0  0  0  0  0
  -19.6993  -25.6262   21.1292 H   0  0  0  0  0  0
  -19.6806  -27.3144   20.6716 H   0  0  0  0  0  0
  -17.4294  -26.6758   21.3870 H   0  0  0  0  0  0
  -18.0265  -26.0058   22.8886 H   0  0  0  0  0  0
  -19.7944  -30.7238   24.2277 H   0  0  0  0  0  0
  -17.5034  -31.6251   24.5162 H   0  0  0  0  0  0
  -15.5363  -30.2943   23.7671 H   0  0  0  0  0  0
  -15.8696  -28.0794   22.7051 H   0  0  0  0  0  0
  -24.5913  -30.7056   25.7883 H   0  0  0  0  0  0
  -24.8615  -32.3048   26.4600 H   0  0  0  0  0  0
  -25.7885  -30.9355   27.0426 H   0  0  0  0  0  0
  -26.2873  -29.6815   24.1233 H   0  0  0  0  0  0
  -27.3744  -29.7266   25.4939 H   0  0  0  0  0  0
  -27.8876  -30.4246   23.9743 H   0  0  0  0  0  0
  -27.2692  -33.3657   26.2153 H   0  0  0  0  0  0
  -28.3795  -32.6969   25.0265 H   0  0  0  0  0  0
  -28.0819  -31.8449   26.5337 H   0  0  0  0  0  0
  -28.2656  -38.0093   24.7501 H   0  0  0  0  0  0
  -28.1126  -36.2633   24.6213 H   0  0  0  0  0  0
  -27.2364  -37.1427   25.8828 H   0  0  0  0  0  0
  -20.9394  -29.8695   21.6847 H   0  0  0  0  0  0
  -26.0227  -38.2889   24.1359 H   0  0  0  0  0  0
  -29.8503  -20.4349   18.4585 H   0  0  0  0  0  0
  -29.0051  -17.9295   21.8686 H   0  0  0  0  0  0
  -30.9385  -16.3050   18.3370 H   0  0  0  0  0  0
  -28.0419  -20.2807   21.7275 H   0  0  0  0  0  0
  -29.6364  -22.1215   19.8534 H   0  0  0  0  0  0
  -30.8764  -19.6094   16.5348 H   0  0  0  0  0  0
  -30.4320  -17.9488   16.1582 H   0  0  0  0  0  0
  -32.0372  -18.3169   16.8023 H   0  0  0  0  0  0
  -29.7778  -24.3923   21.3537 H   0  0  0  0  0  0
  -28.2788  -24.9248   22.0504 H   0  0  0  0  0  0
  -27.4267  -24.7766   19.4999 H   0  0  0  0  0  0
  -29.1127  -24.9590   19.1602 H   0  0  0  0  0  0
  -29.0929  -15.4046   21.3382 H   0  0  0  0  0  0
  1 25  1  0  0  0
  1 30  2  0  0  0
  1 83  1  0  0  0
  2  3  1  0  0  0
  2 25  1  0  0  0
  2 85  1  0  0  0
  2 86  1  0  0  0
  3  4  1  0  0  0
  3 87  1  0  0  0
  3 88  1  0  0  0
  4  5  1  0  0  0
  4 89  1  0  0  0
  4 90  1  0  0  0
  5  6  1  0  0  0
  5 26  1  0  0  0
  5 91  1  0  0  0
  6 25  1  0  0  0
  6 92  1  0  0  0
  6 93  1  0  0  0
  7  8  2  0  0  0
  7 26  1  0  0  0
  7 29  1  0  0  0
  8  9  1  0  0  0
  8 22  1  0  0  0
  9 10  1  0  0  0
  9 27  2  0  0  0
 10 11  2  0  0  0
 10 15  1  0  0  0
 11 12  1  0  0  0
 11 94  1  0  0  0
 12 13  2  0  0  0
 12 95  1  0  0  0
 13 14  1  0  0  0
 13 31  1  0  0  0
 14 15  2  0  0  0
 14 96  1  0  0  0
 15 97  1  0  0  0
 16 17  2  0  0  0
 16 21  1  0  0  0
 16 31  1  0  0  0
 17 18  1  0  0  0
 17 98  1  0  0  0
 18 19  2  0  0  0
 18 99  1  0  0  0
 19 20  1  0  0  0
 19 24  1  0  0  0
 20 21  2  0  0  0
 20100  1  0  0  0
 21 23  1  0  0  0
 22 28  1  0  0  0
 22 32  2  0  0  0
 26 27  1  0  0  0
 28101  1  0  0  0
 28102  1  0  0  0
 29103  1  0  0  0
 29104  1  0  0  0
 33 34  1  0  0  0
 33 66  1  0  0  0
 33 70  2  0  0  0
 34 36  1  0  0  0
 34 59  1  0  0  0
 34105  1  0  0  0
 35 44  2  0  0  0
 35 45  1  0  0  0
 35 68  1  0  0  0
 36 56  1  0  0  0
 36106  1  0  0  0
 37 39  1  0  0  0
 37 47  1  0  0  0
 37 66  1  0  0  0
 37107  1  0  0  0
 38 43  2  0  0  0
 38 46  1  0  0  0
 38 47  1  0  0  0
 39 64  1  0  0  0
 39 67  2  0  0  0
 40 52  1  0  0  0
 40 53  2  0  0  0
 40 58  1  0  0  0
 41108  1  0  0  0
 41109  1  0  0  0
 41110  1  0  0  0
 41 48  1  0  0  0
 42 43  1  0  0  0
 42 66  1  0  0  0
 42111  1  0  0  0
 42112  1  0  0  0
 43 44  1  0  0  0
 44113  1  0  0  0
 45 46  2  0  0  0
 45114  1  0  0  0
 46115  1  0  0  0
 47116  1  0  0  0
 47117  1  0  0  0
 48 56  1  0  0  0
 48 65  1  0  0  0
 48118  1  0  0  0
 49 50  1  0  0  0
 49 53  1  0  0  0
 49 64  1  0  0  0
 49119  1  0  0  0
 50 51  1  0  0  0
 50120  1  0  0  0
 50121  1  0  0  0
 51 52  1  0  0  0
 51122  1  0  0  0
 51123  1  0  0  0
 52124  1  0  0  0
 52125  1  0  0  0
 53 54  1  0  0  0
 54 55  2  0  0  0
 54126  1  0  0  0
 55 57  1  0  0  0
 55127  1  0  0  0
 56 69  2  0  0  0
 57 58  2  0  0  0
 57128  1  0  0  0
 58129  1  0  0  0
 59 60  1  0  0  0
 59 61  1  0  0  0
 59 62  1  0  0  0
 60130  1  0  0  0
 60131  1  0  0  0
 60132  1  0  0  0
 61133  1  0  0  0
 61134  1  0  0  0
 61135  1  0  0  0
 62136  1  0  0  0
 62137  1  0  0  0
 62138  1  0  0  0
 63 65  1  0  0  0
 63139  1  0  0  0
 63140  1  0  0  0
 63141  1  0  0  0
 64142  1  0  0  0
 65143  1  0  0  0
 68 82  1  0  0  0
 71 74  2  0  0  0
 71 75  1  0  0  0
 71144  1  0  0  0
 72 74  1  0  0  0
 72 76  2  0  0  0
 72145  1  0  0  0
 73 75  2  0  0  0
 73 76  1  0  0  0
 73146  1  0  0  0
 74 77  1  0  0  0
 75 80  1  0  0  0
 76 83  1  0  0  0
 77 78  2  0  0  0
 77147  1  0  0  0
 78 79  1  0  0  0
 78148  1  0  0  0
 79 81  1  0  0  0
 79 84  2  0  0  0
 80149  1  0  0  0
 80150  1  0  0  0
 80151  1  0  0  0
 81 82  1  0  0  0
 81152  1  0  0  0
 81153  1  0  0  0
 82154  1  0  0  0
 82155  1  0  0  0
 83156  1  0  0  0
M  ISO  4   1 100  68 101  82 101  83 100
M  END
> <chiral flag>
0

> <version>
0

> <s_m_source_file>
/data/baiqing/PycharmProjects/Reinvent-master-3.2/result/LINK_invent/BTK/process_docking_weight1_custom_product_contain_oxygen_bond_distance_aromatic_linkinvent_7_9_3/rearranged_h_0120.sdf

> <i_m_source_file_index>
69

> <r_mmod_Potential_Energy-OPLS-2005>
-22.4521751403809

> <r_mmod_Stretch_Energy-OPLS-2005>
47.8288040161133

> <r_mmod_Bend_Energy-OPLS-2005>
107.97486114502

> <r_mmod_Torsional_Energy-OPLS-2005>
240.246322631836

> <r_mmod_Improper_Torsional_Energy-OPLS-2005>
5.39098596572876

> <r_mmod_Van_der_Waal_Energy-OPLS-2005>
154.742279052734

> <r_mmod_Electrostatic_Energy-OPLS-2005>
-380.931304931641

> <r_mmod_Solvation_Energy-OPLS-2005>
-223.013244628906

> <b_mmod_Minimization_Converged-OPLS-2005>
0

> <r_mmod_RMS_Derivative-OPLS-2005>
5.52892541885376

$$$$
69
                    3D
 Structure written by MMmdl.
159167  0  0  1  0            999 V2000
  -30.7370  -14.4113   20.6519 C   0  0  0  0  0  0
  -30.4188  -12.3006   19.4129 C   0  0  0  0  0  0
  -29.4919  -12.5319   18.2021 C   0  0  0  0  0  0
  -28.0120  -12.3846   18.6065 C   0  0  0  0  0  0
  -27.6633  -13.2004   19.8786 C   0  0  2  0  0  0
  -28.6953  -12.9303   20.9931 C   0  0  0  0  0  0
  -25.2591  -13.8153   20.5660 C   0  0  0  0  0  0
  -24.1837  -13.0437   20.9154 C   0  0  0  0  0  0
  -24.6381  -11.6899   20.8716 C   0  0  0  0  0  0
  -23.9048  -10.4292   21.0402 C   0  0  0  0  0  0
  -24.3607   -9.4210   21.9182 C   0  0  0  0  0  0
  -23.6285   -8.2244   22.0753 C   0  0  0  0  0  0
  -22.4269   -8.0278   21.3545 C   0  0  0  0  0  0
  -21.9903   -9.0249   20.4643 C   0  0  0  0  0  0
  -22.7223  -10.2131   20.3052 C   0  0  0  0  0  0
  -21.6850   -6.0729   22.5280 C   0  0  0  0  0  0
  -21.4019   -6.5636   23.8214 C   0  0  0  0  0  0
  -21.3660   -5.6791   24.9178 C   0  0  0  0  0  0
  -21.6043   -4.3053   24.7231 C   0  0  0  0  0  0
  -21.8821   -3.8142   23.4353 C   0  0  0  0  0  0
  -21.9191   -4.6957   22.3405 C   0  0  0  0  0  0
  -22.7863  -13.5239   21.1830 C   0  0  0  0  0  0
  -22.1655   -4.2139   21.0984 F   0  0  0  0  0  0
  -21.5631   -3.4538   25.7748 F   0  0  0  0  0  0
  -30.0380  -13.2518   20.4714 N   0  0  0  0  0  0
  -26.3018  -12.9309   20.3341 N   0  0  0  0  0  0
  -25.9300  -11.6472   20.5719 N   0  0  0  0  0  0
  -22.0512  -12.8234   22.0398 N   0  0  0  0  0  0
  -25.4318  -15.1876   20.4088 N   0  0  0  0  0  0
  -31.7861  -14.6679   20.0490 O   0  0  0  0  0  0
  -21.6637   -6.8872   21.4241 O   0  0  0  0  0  0
  -22.3545  -14.5543   20.6678 O   0  0  0  0  0  0
  -24.6124  -31.8692   23.2112 C   0  0  0  0  0  0
  -25.9026  -32.4826   23.8398 C   0  0  1  0  0  0
  -27.2406  -27.4505   20.0789 C   0  0  0  0  0  0
  -25.5886  -33.8625   24.2325 N   0  0  0  0  0  0
  -23.3989  -30.4934   21.5516 C   0  0  2  0  0  0
  -24.8426  -28.9568   20.1191 C   0  0  0  0  0  0
  -22.7390  -29.4672   22.4999 C   0  0  0  0  0  0
  -18.0267  -28.1386   22.8498 C   0  0  0  0  0  0
  -24.1486  -36.7323   23.2641 C   0  0  0  0  0  0
  -25.9258  -30.8375   21.3621 C   0  0  0  0  0  0
  -26.0012  -29.4715   20.7114 C   0  0  0  0  0  0
  -27.1978  -28.7231   20.6922 C   0  0  0  0  0  0
  -26.0524  -26.9346   19.5085 C   0  0  0  0  0  0
  -24.8606  -27.6846   19.5219 C   0  0  0  0  0  0
  -23.6058  -29.8250   20.1667 C   0  0  0  0  0  0
  -25.4110  -36.3115   24.0338 C   0  0  1  0  0  0
  -20.5851  -28.3674   23.1327 C   0  0  2  0  0  0
  -20.6757  -26.9415   22.5423 C   0  0  0  0  0  0
  -19.5738  -26.6395   21.5218 C   0  0  0  0  0  0
  -18.1915  -26.7934   22.1626 C   0  0  0  0  0  0
  -19.1514  -28.8848   23.2911 C   0  0  0  0  0  0
  -18.9442  -30.1450   23.8925 C   0  0  0  0  0  0
  -17.6446  -30.6594   24.0576 C   0  0  0  0  0  0
  -25.9035  -34.9479   23.5131 C   0  0  0  0  0  0
  -16.5340  -29.9103   23.6325 C   0  0  0  0  0  0
  -16.7256  -28.6516   23.0352 C   0  0  0  0  0  0
  -26.4465  -31.6600   25.0718 C   0  0  0  0  0  0
  -25.3736  -31.3679   26.1463 C   0  0  0  0  0  0
  -27.0314  -30.3056   24.6081 C   0  0  0  0  0  0
  -27.6039  -32.4320   25.7481 C   0  0  0  0  0  0
  -27.5583  -37.1815   24.8467 C   0  0  0  0  0  0
  -21.4121  -29.3042   22.3733 N   0  0  0  0  0  0
  -26.4299  -37.3795   23.9405 N   0  0  0  0  0  0
  -24.6640  -31.0808   22.1005 N   0  0  0  0  0  0
  -23.4166  -28.8220   23.3042 O   0  0  0  0  0  0
  -28.4509  -26.7859   20.0664 O   0  0  0  0  0  0
  -26.5604  -34.8925   22.4697 O   0  0  0  0  0  0
  -23.5320  -32.1440   23.7518 O   0  0  0  0  0  0
  -29.9297  -17.9431   21.8786 C   0  0  0  0  0  0
  -29.6094  -19.2216   21.3799 C   0  0  0  0  0  0
  -29.4081  -16.9709   19.7257 C   0  0  0  0  0  0
  -29.8455  -16.7917   21.0609 C   0  0  0  0  0  0
  -29.0987  -18.2509   19.2031 C   0  0  0  0  0  0
  -29.1984  -19.3946   20.0360 C   0  0  0  0  0  0
  -28.1937  -17.4231   16.9988 C   0  0  0  0  0  0
  -28.6248  -18.4041   17.8114 C   0  0  0  0  0  0
  -30.1627  -15.4383   21.6296 C   0  0  0  0  0  0
  -28.4396  -24.3355   20.1919 C   0  0  0  0  0  0
  -28.6466  -23.0192   19.4142 C   0  0  0  0  0  0
  -28.6172  -25.5856   19.3088 C   0  0  0  0  0  0
  -28.8468  -21.7855   20.3133 C   0  0  0  0  0  0
  -30.0143  -15.1872   22.8662 N   0  0  0  0  0  0
  -28.8888  -20.6255   19.4840 O   0  0  0  0  0  0
  -31.4632  -12.4015   19.1129 H   0  0  0  0  0  0
  -30.3183  -11.2773   19.7784 H   0  0  0  0  0  0
  -29.7326  -11.8298   17.4028 H   0  0  0  0  0  0
  -29.6622  -13.5299   17.7946 H   0  0  0  0  0  0
  -27.8160  -11.3255   18.7795 H   0  0  0  0  0  0
  -27.3645  -12.6815   17.7807 H   0  0  0  0  0  0
  -27.7227  -14.2558   19.6137 H   0  0  0  0  0  0
  -28.6667  -11.8789   21.2832 H   0  0  0  0  0  0
  -28.4154  -13.4699   21.8952 H   0  0  0  0  0  0
  -25.2756   -9.5685   22.4751 H   0  0  0  0  0  0
  -23.9994   -7.4639   22.7477 H   0  0  0  0  0  0
  -21.0837   -8.8762   19.8949 H   0  0  0  0  0  0
  -22.3680  -10.9667   19.6159 H   0  0  0  0  0  0
  -21.2017   -7.6145   23.9715 H   0  0  0  0  0  0
  -21.1481   -6.0523   25.9080 H   0  0  0  0  0  0
  -22.0600   -2.7604   23.2859 H   0  0  0  0  0  0
  -22.4127  -11.9890   22.4778 H   0  0  0  0  0  0
  -21.1134  -13.1260   22.2612 H   0  0  0  0  0  0
  -24.6664  -15.8431   20.5234 H   0  0  0  0  0  0
  -26.2909  -15.6325   20.1125 H   0  0  0  0  0  0
  -26.7097  -32.5544   23.1162 H   0  0  0  0  0  0
  -25.0019  -33.9790   25.0459 H   0  0  0  0  0  0
  -22.6871  -31.3101   21.4135 H   0  0  0  0  0  0
  -23.3747  -35.9654   23.3296 H   0  0  0  0  0  0
  -24.3578  -36.8958   22.2059 H   0  0  0  0  0  0
  -23.7239  -37.6523   23.6669 H   0  0  0  0  0  0
  -26.0360  -31.6032   20.5930 H   0  0  0  0  0  0
  -26.8149  -30.8911   21.9791 H   0  0  0  0  0  0
  -28.0963  -29.1251   21.1398 H   0  0  0  0  0  0
  -26.0180  -25.9564   19.0536 H   0  0  0  0  0  0
  -23.9646  -27.2760   19.0749 H   0  0  0  0  0  0
  -23.7170  -30.6002   19.4074 H   0  0  0  0  0  0
  -22.7290  -29.2468   19.8698 H   0  0  0  0  0  0
  -25.1287  -36.1985   25.0832 H   0  0  0  0  0  0
  -20.9942  -28.3245   24.1448 H   0  0  0  0  0  0
  -20.5675  -26.2284   23.3606 H   0  0  0  0  0  0
  -21.6628  -26.7470   22.1213 H   0  0  0  0  0  0
  -19.6903  -25.6311   21.1240 H   0  0  0  0  0  0
  -19.6679  -27.3210   20.6753 H   0  0  0  0  0  0
  -17.4187  -26.6695   21.4022 H   0  0  0  0  0  0
  -18.0311  -26.0071   22.9014 H   0  0  0  0  0  0
  -19.7917  -30.7260   24.2310 H   0  0  0  0  0  0
  -17.5006  -31.6275   24.5181 H   0  0  0  0  0  0
  -15.5346  -30.3026   23.7629 H   0  0  0  0  0  0
  -15.8650  -28.0851   22.7057 H   0  0  0  0  0  0
  -24.5919  -30.7023   25.7784 H   0  0  0  0  0  0
  -24.8910  -32.2822   26.4925 H   0  0  0  0  0  0
  -25.8092  -30.8833   27.0210 H   0  0  0  0  0  0
  -26.2856  -29.6801   24.1161 H   0  0  0  0  0  0
  -27.4134  -29.7306   25.4526 H   0  0  0  0  0  0
  -27.8660  -30.4398   23.9199 H   0  0  0  0  0  0
  -27.2663  -33.3619   26.2068 H   0  0  0  0  0  0
  -28.3838  -32.6881   25.0298 H   0  0  0  0  0  0
  -28.0716  -31.8438   26.5388 H   0  0  0  0  0  0
  -28.2597  -38.0116   24.7523 H   0  0  0  0  0  0
  -28.1087  -36.2647   24.6291 H   0  0  0  0  0  0
  -27.2297  -37.1467   25.8869 H   0  0  0  0  0  0
  -20.9276  -29.8773   21.6966 H   0  0  0  0  0  0
  -26.0193  -38.2875   24.1407 H   0  0  0  0  0  0
  -30.2492  -17.8584   22.9081 H   0  0  0  0  0  0
  -29.6927  -20.0576   22.0580 H   0  0  0  0  0  0
  -29.3170  -16.1086   19.0837 H   0  0  0  0  0  0
  -27.8788  -17.6520   15.9903 H   0  0  0  0  0  0
  -28.1356  -16.3887   17.3027 H   0  0  0  0  0  0
  -28.6418  -19.4074   17.4076 H   0  0  0  0  0  0
  -29.1567  -24.3892   21.0117 H   0  0  0  0  0  0
  -27.4500  -24.3379   20.6495 H   0  0  0  0  0  0
  -29.5186  -23.1135   18.7655 H   0  0  0  0  0  0
  -27.7933  -22.8585   18.7538 H   0  0  0  0  0  0
  -27.9977  -25.5512   18.4132 H   0  0  0  0  0  0
  -29.6413  -25.5992   18.9343 H   0  0  0  0  0  0
  -28.0304  -21.6965   21.0314 H   0  0  0  0  0  0
  -29.7788  -21.9044   20.8672 H   0  0  0  0  0  0
  -29.6379  -15.9898   23.3547 H   0  0  0  0  0  0
  1 25  1  0  0  0
  1 30  2  0  0  0
  1 79  1  0  0  0
  2  3  1  0  0  0
  2 25  1  0  0  0
  2 86  1  0  0  0
  2 87  1  0  0  0
  3  4  1  0  0  0
  3 88  1  0  0  0
  3 89  1  0  0  0
  4  5  1  0  0  0
  4 90  1  0  0  0
  4 91  1  0  0  0
  5  6  1  0  0  0
  5 26  1  0  0  0
  5 92  1  0  0  0
  6 25  1  0  0  0
  6 93  1  0  0  0
  6 94  1  0  0  0
  7  8  2  0  0  0
  7 26  1  0  0  0
  7 29  1  0  0  0
  8  9  1  0  0  0
  8 22  1  0  0  0
  9 10  1  0  0  0
  9 27  2  0  0  0
 10 11  2  0  0  0
 10 15  1  0  0  0
 11 12  1  0  0  0
 11 95  1  0  0  0
 12 13  2  0  0  0
 12 96  1  0  0  0
 13 14  1  0  0  0
 13 31  1  0  0  0
 14 15  2  0  0  0
 14 97  1  0  0  0
 15 98  1  0  0  0
 16 17  2  0  0  0
 16 21  1  0  0  0
 16 31  1  0  0  0
 17 18  1  0  0  0
 17 99  1  0  0  0
 18 19  2  0  0  0
 18100  1  0  0  0
 19 20  1  0  0  0
 19 24  1  0  0  0
 20 21  2  0  0  0
 20101  1  0  0  0
 21 23  1  0  0  0
 22 28  1  0  0  0
 22 32  2  0  0  0
 26 27  1  0  0  0
 28102  1  0  0  0
 28103  1  0  0  0
 29104  1  0  0  0
 29105  1  0  0  0
 33 34  1  0  0  0
 33 66  1  0  0  0
 33 70  2  0  0  0
 34 36  1  0  0  0
 34 59  1  0  0  0
 34106  1  0  0  0
 35 44  2  0  0  0
 35 45  1  0  0  0
 35 68  1  0  0  0
 36 56  1  0  0  0
 36107  1  0  0  0
 37 39  1  0  0  0
 37 47  1  0  0  0
 37 66  1  0  0  0
 37108  1  0  0  0
 38 43  2  0  0  0
 38 46  1  0  0  0
 38 47  1  0  0  0
 39 64  1  0  0  0
 39 67  2  0  0  0
 40 52  1  0  0  0
 40 53  2  0  0  0
 40 58  1  0  0  0
 41109  1  0  0  0
 41110  1  0  0  0
 41111  1  0  0  0
 41 48  1  0  0  0
 42 43  1  0  0  0
 42 66  1  0  0  0
 42112  1  0  0  0
 42113  1  0  0  0
 43 44  1  0  0  0
 44114  1  0  0  0
 45 46  2  0  0  0
 45115  1  0  0  0
 46116  1  0  0  0
 47117  1  0  0  0
 47118  1  0  0  0
 48 56  1  0  0  0
 48 65  1  0  0  0
 48119  1  0  0  0
 49 50  1  0  0  0
 49 53  1  0  0  0
 49 64  1  0  0  0
 49120  1  0  0  0
 50 51  1  0  0  0
 50121  1  0  0  0
 50122  1  0  0  0
 51 52  1  0  0  0
 51123  1  0  0  0
 51124  1  0  0  0
 52125  1  0  0  0
 52126  1  0  0  0
 53 54  1  0  0  0
 54 55  2  0  0  0
 54127  1  0  0  0
 55 57  1  0  0  0
 55128  1  0  0  0
 56 69  2  0  0  0
 57 58  2  0  0  0
 57129  1  0  0  0
 58130  1  0  0  0
 59 60  1  0  0  0
 59 61  1  0  0  0
 59 62  1  0  0  0
 60131  1  0  0  0
 60132  1  0  0  0
 60133  1  0  0  0
 61134  1  0  0  0
 61135  1  0  0  0
 61136  1  0  0  0
 62137  1  0  0  0
 62138  1  0  0  0
 62139  1  0  0  0
 63 65  1  0  0  0
 63140  1  0  0  0
 63141  1  0  0  0
 63142  1  0  0  0
 64143  1  0  0  0
 65144  1  0  0  0
 68 82  1  0  0  0
 71 72  2  0  0  0
 71 74  1  0  0  0
 71145  1  0  0  0
 72 76  1  0  0  0
 72146  1  0  0  0
 73 74  2  0  0  0
 73 75  1  0  0  0
 73147  1  0  0  0
 74 79  1  0  0  0
 75 76  2  0  0  0
 75 78  1  0  0  0
 76 85  1  0  0  0
 77 78  2  0  0  0
 77148  1  0  0  0
 77149  1  0  0  0
 78150  1  0  0  0
 79 84  2  0  0  0
 80 81  1  0  0  0
 80 82  1  0  0  0
 80151  1  0  0  0
 80152  1  0  0  0
 81 83  1  0  0  0
 81153  1  0  0  0
 81154  1  0  0  0
 82155  1  0  0  0
 82156  1  0  0  0
 83 85  1  0  0  0
 83157  1  0  0  0
 83158  1  0  0  0
 84159  1  0  0  0
M  ISO  4   1 100  68 101  79 100  82 101
M  END
> <chiral flag>
0

> <version>
0

> <s_m_source_file>
/data/baiqing/PycharmProjects/Reinvent-master-3.2/result/LINK_invent/BTK/process_docking_weight1_custom_product_contain_oxygen_bond_distance_aromatic_linkinvent_7_9_3/rearranged_h_0120.sdf

> <i_m_source_file_index>
70

> <r_mmod_Potential_Energy-OPLS-2005>
98.6769866943359

> <r_mmod_Stretch_Energy-OPLS-2005>
39.7094841003418

> <r_mmod_Bend_Energy-OPLS-2005>
112.009323120117

> <r_mmod_Torsional_Energy-OPLS-2005>
199.656753540039

> <r_mmod_Improper_Torsional_Energy-OPLS-2005>
2.19836187362671

> <r_mmod_Van_der_Waal_Energy-OPLS-2005>
164.019821166992

> <r_mmod_Electrostatic_Energy-OPLS-2005>
-229.818359375

> <r_mmod_Solvation_Energy-OPLS-2005>
-197.582092285156

> <b_mmod_Minimization_Converged-OPLS-2005>
0

> <r_mmod_RMS_Derivative-OPLS-2005>
0.714635074138641

$$$$
70
                    3D
 Structure written by MMmdl.
155163  0  0  1  0            999 V2000
  -30.6654  -14.4995   20.5487 C   0  0  0  0  0  0
  -30.4252  -12.3127   19.4348 C   0  0  0  0  0  0
  -29.5036  -12.5062   18.2107 C   0  0  0  0  0  0
  -28.0218  -12.3771   18.6131 C   0  0  0  0  0  0
  -27.6629  -13.2083   19.8755 C   0  0  2  0  0  0
  -28.7000  -12.9828   20.9980 C   0  0  0  0  0  0
  -25.2619  -13.8151   20.5664 C   0  0  0  0  0  0
  -24.1849  -13.0451   20.9158 C   0  0  0  0  0  0
  -24.6403  -11.6938   20.8727 C   0  0  0  0  0  0
  -23.9063  -10.4338   21.0414 C   0  0  0  0  0  0
  -24.3640   -9.4274   21.9194 C   0  0  0  0  0  0
  -23.6319   -8.2303   22.0794 C   0  0  0  0  0  0
  -22.4311   -8.0316   21.3557 C   0  0  0  0  0  0
  -21.9922   -9.0304   20.4666 C   0  0  0  0  0  0
  -22.7231  -10.2195   20.3074 C   0  0  0  0  0  0
  -21.6872   -6.0751   22.5262 C   0  0  0  0  0  0
  -21.4011   -6.5651   23.8196 C   0  0  0  0  0  0
  -21.3662   -5.6790   24.9149 C   0  0  0  0  0  0
  -21.6036   -4.3049   24.7186 C   0  0  0  0  0  0
  -21.8826   -3.8157   23.4315 C   0  0  0  0  0  0
  -21.9223   -4.6984   22.3377 C   0  0  0  0  0  0
  -22.7877  -13.5297   21.1819 C   0  0  0  0  0  0
  -22.1656   -4.2172   21.0955 F   0  0  0  0  0  0
  -21.5635   -3.4524   25.7689 F   0  0  0  0  0  0
  -30.0323  -13.2971   20.4562 N   0  0  0  0  0  0
  -26.3040  -12.9316   20.3346 N   0  0  0  0  0  0
  -25.9331  -11.6484   20.5758 N   0  0  0  0  0  0
  -22.0491  -12.8340   22.0396 N   0  0  0  0  0  0
  -25.4386  -15.1848   20.4102 N   0  0  0  0  0  0
  -31.7959  -14.6937   20.0862 O   0  0  0  0  0  0
  -21.6676   -6.8906   21.4231 O   0  0  0  0  0  0
  -22.3598  -14.5612   20.6672 O   0  0  0  0  0  0
  -24.6198  -31.8685   23.2156 C   0  0  0  0  0  0
  -25.9086  -32.4819   23.8421 C   0  0  1  0  0  0
  -27.2039  -27.3958   20.0922 C   0  0  0  0  0  0
  -25.5941  -33.8618   24.2349 N   0  0  0  0  0  0
  -23.4065  -30.5024   21.5566 C   0  0  2  0  0  0
  -24.8440  -28.9798   20.1100 C   0  0  0  0  0  0
  -22.7423  -29.4687   22.4960 C   0  0  0  0  0  0
  -18.0283  -28.1371   22.8495 C   0  0  0  0  0  0
  -24.1484  -36.7302   23.2632 C   0  0  0  0  0  0
  -25.9448  -30.8238   21.3776 C   0  0  0  0  0  0
  -26.0142  -29.4626   20.7106 C   0  0  0  0  0  0
  -27.1992  -28.6802   20.6978 C   0  0  0  0  0  0
  -26.0108  -26.9588   19.4629 C   0  0  0  0  0  0
  -24.8397  -27.7282   19.4830 C   0  0  0  0  0  0
  -23.6138  -29.8553   20.1654 C   0  0  0  0  0  0
  -25.4107  -36.3107   24.0339 C   0  0  1  0  0  0
  -20.5874  -28.3683   23.1289 C   0  0  2  0  0  0
  -20.6774  -26.9410   22.5408 C   0  0  0  0  0  0
  -19.5752  -26.6381   21.5210 C   0  0  0  0  0  0
  -18.1927  -26.7922   22.1623 C   0  0  0  0  0  0
  -19.1529  -28.8847   23.2894 C   0  0  0  0  0  0
  -18.9457  -30.1447   23.8910 C   0  0  0  0  0  0
  -17.6460  -30.6584   24.0570 C   0  0  0  0  0  0
  -25.9043  -34.9472   23.5134 C   0  0  0  0  0  0
  -16.5357  -29.9087   23.6329 C   0  0  0  0  0  0
  -16.7269  -28.6504   23.0359 C   0  0  0  0  0  0
  -26.4499  -31.6606   25.0758 C   0  0  0  0  0  0
  -25.3758  -31.3767   26.1514 C   0  0  0  0  0  0
  -27.0311  -30.3020   24.6190 C   0  0  0  0  0  0
  -27.6076  -32.4323   25.7511 C   0  0  0  0  0  0
  -27.5581  -37.1811   24.8462 C   0  0  0  0  0  0
  -21.4152  -29.3056   22.3693 N   0  0  0  0  0  0
  -26.4293  -37.3791   23.9408 N   0  0  0  0  0  0
  -24.6759  -31.0771   22.1081 N   0  0  0  0  0  0
  -23.4187  -28.8196   23.2986 O   0  0  0  0  0  0
  -28.3219  -26.5681   20.1482 O   0  0  0  0  0  0
  -26.5580  -34.8919   22.4681 O   0  0  0  0  0  0
  -23.5383  -32.1451   23.7536 O   0  0  0  0  0  0
  -29.3313  -17.9038   21.2223 C   0  0  0  0  0  0
  -29.2041  -19.0849   20.4036 C   0  0  0  0  0  0
  -29.5492  -18.8157   19.0962 C   0  0  0  0  0  0
  -29.8211  -16.7818   20.5774 C   0  0  0  0  0  0
  -28.4499  -20.5632   17.6821 C   0  0  0  0  0  0
  -29.3481  -19.5909   17.9072 C   0  0  0  0  0  0
  -29.1088  -24.1277   20.5279 C   0  0  0  0  0  0
  -28.5025  -22.7011   20.7206 C   0  0  0  0  0  0
  -28.0091  -25.1495   20.1396 C   0  0  0  0  0  0
  -29.4613  -21.4789   20.6661 C   0  0  0  0  0  0
  -29.9364  -15.5083   21.0759 N   0  0  0  0  0  0
  -28.6924  -20.2709   20.8519 O   0  0  0  0  0  0
  -30.1678  -17.1944   18.9096 S   0  0  0  0  0  0
  -31.4711  -12.4180   19.1394 H   0  0  0  0  0  0
  -30.3298  -11.3002   19.8321 H   0  0  0  0  0  0
  -29.7418  -11.7727   17.4384 H   0  0  0  0  0  0
  -29.6836  -13.4864   17.7667 H   0  0  0  0  0  0
  -27.8260  -11.3203   18.7970 H   0  0  0  0  0  0
  -27.3840  -12.6643   17.7762 H   0  0  0  0  0  0
  -27.7064  -14.2571   19.5832 H   0  0  0  0  0  0
  -28.6761  -11.9432   21.3304 H   0  0  0  0  0  0
  -28.4578  -13.5771   21.8803 H   0  0  0  0  0  0
  -25.2814   -9.5785   22.4728 H   0  0  0  0  0  0
  -24.0031   -7.4725   22.7556 H   0  0  0  0  0  0
  -21.0847   -8.8820   19.8988 H   0  0  0  0  0  0
  -22.3690  -10.9746   19.6187 H   0  0  0  0  0  0
  -21.1951   -7.6155   23.9672 H   0  0  0  0  0  0
  -21.1481   -6.0537   25.9046 H   0  0  0  0  0  0
  -22.0618   -2.7630   23.2796 H   0  0  0  0  0  0
  -22.4031  -11.9984   22.4813 H   0  0  0  0  0  0
  -21.1118  -13.1440   22.2555 H   0  0  0  0  0  0
  -24.6783  -15.8437   20.5411 H   0  0  0  0  0  0
  -26.3044  -15.6260   20.1248 H   0  0  0  0  0  0
  -26.7155  -32.5506   23.1175 H   0  0  0  0  0  0
  -25.0126  -33.9775   25.0523 H   0  0  0  0  0  0
  -22.6987  -31.3243   21.4268 H   0  0  0  0  0  0
  -23.3740  -35.9640   23.3318 H   0  0  0  0  0  0
  -24.3576  -36.8888   22.2042 H   0  0  0  0  0  0
  -23.7249  -37.6525   23.6622 H   0  0  0  0  0  0
  -26.0705  -31.6001   20.6206 H   0  0  0  0  0  0
  -26.8275  -30.8595   22.0052 H   0  0  0  0  0  0
  -28.0953  -29.0428   21.1815 H   0  0  0  0  0  0
  -25.9374  -26.0134   18.9479 H   0  0  0  0  0  0
  -23.9403  -27.3544   19.0111 H   0  0  0  0  0  0
  -23.7315  -30.6426   19.4198 H   0  0  0  0  0  0
  -22.7311  -29.2911   19.8585 H   0  0  0  0  0  0
  -25.1281  -36.1976   25.0832 H   0  0  0  0  0  0
  -20.9977  -28.3255   24.1413 H   0  0  0  0  0  0
  -20.5673  -26.2293   23.3607 H   0  0  0  0  0  0
  -21.6642  -26.7439   22.1206 H   0  0  0  0  0  0
  -19.6914  -25.6299   21.1222 H   0  0  0  0  0  0
  -19.6685  -27.3203   20.6752 H   0  0  0  0  0  0
  -17.4198  -26.6693   21.4015 H   0  0  0  0  0  0
  -18.0309  -26.0045   22.9005 H   0  0  0  0  0  0
  -19.7937  -30.7251   24.2283 H   0  0  0  0  0  0
  -17.5022  -31.6262   24.5177 H   0  0  0  0  0  0
  -15.5355  -30.3005   23.7648 H   0  0  0  0  0  0
  -15.8669  -28.0824   22.7075 H   0  0  0  0  0  0
  -24.5929  -30.7094   25.7905 H   0  0  0  0  0  0
  -24.8941  -32.2937   26.4909 H   0  0  0  0  0  0
  -25.8101  -30.9004   27.0309 H   0  0  0  0  0  0
  -26.2877  -29.6798   24.1189 H   0  0  0  0  0  0
  -27.3982  -29.7252   25.4692 H   0  0  0  0  0  0
  -27.8761  -30.4299   23.9420 H   0  0  0  0  0  0
  -27.2697  -33.3611   26.2114 H   0  0  0  0  0  0
  -28.3873  -32.6904   25.0336 H   0  0  0  0  0  0
  -28.0753  -31.8426   26.5406 H   0  0  0  0  0  0
  -28.2627  -38.0082   24.7478 H   0  0  0  0  0  0
  -28.1046  -36.2611   24.6320 H   0  0  0  0  0  0
  -27.2280  -37.1511   25.8861 H   0  0  0  0  0  0
  -20.9302  -29.8817   21.6956 H   0  0  0  0  0  0
  -26.0177  -38.2865   24.1415 H   0  0  0  0  0  0
  -29.0238  -17.9177   22.2583 H   0  0  0  0  0  0
  -28.4103  -21.0899   16.7399 H   0  0  0  0  0  0
  -27.7307  -20.8481   18.4372 H   0  0  0  0  0  0
  -30.0248  -19.3575   17.0966 H   0  0  0  0  0  0
  -29.8721  -24.1178   19.7505 H   0  0  0  0  0  0
  -29.6004  -24.4370   21.4487 H   0  0  0  0  0  0
  -27.7388  -22.5520   19.9580 H   0  0  0  0  0  0
  -27.9662  -22.6794   21.6704 H   0  0  0  0  0  0
  -27.1661  -24.9819   20.8151 H   0  0  0  0  0  0
  -27.6790  -24.8669   19.1396 H   0  0  0  0  0  0
  -30.2190  -21.5572   21.4468 H   0  0  0  0  0  0
  -29.9931  -21.4811   19.7156 H   0  0  0  0  0  0
  -29.1718  -15.2077   21.6639 H   0  0  0  0  0  0
  1 25  1  0  0  0
  1 30  2  0  0  0
  1 81  1  0  0  0
  2  3  1  0  0  0
  2 25  1  0  0  0
  2 84  1  0  0  0
  2 85  1  0  0  0
  3  4  1  0  0  0
  3 86  1  0  0  0
  3 87  1  0  0  0
  4  5  1  0  0  0
  4 88  1  0  0  0
  4 89  1  0  0  0
  5  6  1  0  0  0
  5 26  1  0  0  0
  5 90  1  0  0  0
  6 25  1  0  0  0
  6 91  1  0  0  0
  6 92  1  0  0  0
  7  8  2  0  0  0
  7 26  1  0  0  0
  7 29  1  0  0  0
  8  9  1  0  0  0
  8 22  1  0  0  0
  9 10  1  0  0  0
  9 27  2  0  0  0
 10 11  2  0  0  0
 10 15  1  0  0  0
 11 12  1  0  0  0
 11 93  1  0  0  0
 12 13  2  0  0  0
 12 94  1  0  0  0
 13 14  1  0  0  0
 13 31  1  0  0  0
 14 15  2  0  0  0
 14 95  1  0  0  0
 15 96  1  0  0  0
 16 17  2  0  0  0
 16 21  1  0  0  0
 16 31  1  0  0  0
 17 18  1  0  0  0
 17 97  1  0  0  0
 18 19  2  0  0  0
 18 98  1  0  0  0
 19 20  1  0  0  0
 19 24  1  0  0  0
 20 21  2  0  0  0
 20 99  1  0  0  0
 21 23  1  0  0  0
 22 28  1  0  0  0
 22 32  2  0  0  0
 26 27  1  0  0  0
 28100  1  0  0  0
 28101  1  0  0  0
 29102  1  0  0  0
 29103  1  0  0  0
 33 34  1  0  0  0
 33 66  1  0  0  0
 33 70  2  0  0  0
 34 36  1  0  0  0
 34 59  1  0  0  0
 34104  1  0  0  0
 35 44  2  0  0  0
 35 45  1  0  0  0
 35 68  1  0  0  0
 36 56  1  0  0  0
 36105  1  0  0  0
 37 39  1  0  0  0
 37 47  1  0  0  0
 37 66  1  0  0  0
 37106  1  0  0  0
 38 43  2  0  0  0
 38 46  1  0  0  0
 38 47  1  0  0  0
 39 64  1  0  0  0
 39 67  2  0  0  0
 40 52  1  0  0  0
 40 53  2  0  0  0
 40 58  1  0  0  0
 41107  1  0  0  0
 41108  1  0  0  0
 41109  1  0  0  0
 41 48  1  0  0  0
 42 43  1  0  0  0
 42 66  1  0  0  0
 42110  1  0  0  0
 42111  1  0  0  0
 43 44  1  0  0  0
 44112  1  0  0  0
 45 46  2  0  0  0
 45113  1  0  0  0
 46114  1  0  0  0
 47115  1  0  0  0
 47116  1  0  0  0
 48 56  1  0  0  0
 48 65  1  0  0  0
 48117  1  0  0  0
 49 50  1  0  0  0
 49 53  1  0  0  0
 49 64  1  0  0  0
 49118  1  0  0  0
 50 51  1  0  0  0
 50119  1  0  0  0
 50120  1  0  0  0
 51 52  1  0  0  0
 51121  1  0  0  0
 51122  1  0  0  0
 52123  1  0  0  0
 52124  1  0  0  0
 53 54  1  0  0  0
 54 55  2  0  0  0
 54125  1  0  0  0
 55 57  1  0  0  0
 55126  1  0  0  0
 56 69  2  0  0  0
 57 58  2  0  0  0
 57127  1  0  0  0
 58128  1  0  0  0
 59 60  1  0  0  0
 59 61  1  0  0  0
 59 62  1  0  0  0
 60129  1  0  0  0
 60130  1  0  0  0
 60131  1  0  0  0
 61132  1  0  0  0
 61133  1  0  0  0
 61134  1  0  0  0
 62135  1  0  0  0
 62136  1  0  0  0
 62137  1  0  0  0
 63 65  1  0  0  0
 63138  1  0  0  0
 63139  1  0  0  0
 63140  1  0  0  0
 64141  1  0  0  0
 65142  1  0  0  0
 68 79  1  0  0  0
 71 72  1  0  0  0
 71 74  2  0  0  0
 71143  1  0  0  0
 72 73  2  0  0  0
 72 82  1  0  0  0
 73 76  1  0  0  0
 73 83  1  0  0  0
 74 81  1  0  0  0
 74 83  1  0  0  0
 75 76  2  0  0  0
 75144  1  0  0  0
 75145  1  0  0  0
 76146  1  0  0  0
 77 78  1  0  0  0
 77 79  1  0  0  0
 77147  1  0  0  0
 77148  1  0  0  0
 78 80  1  0  0  0
 78149  1  0  0  0
 78150  1  0  0  0
 79151  1  0  0  0
 79152  1  0  0  0
 80 82  1  0  0  0
 80153  1  0  0  0
 80154  1  0  0  0
 81155  1  0  0  0
M  ISO  4   1 100  68 101  79 101  81 100
M  END
> <chiral flag>
0

> <version>
0

> <s_m_source_file>
/data/baiqing/PycharmProjects/Reinvent-master-3.2/result/LINK_invent/BTK/process_docking_weight1_custom_product_contain_oxygen_bond_distance_aromatic_linkinvent_7_9_3/rearranged_h_0120.sdf

> <i_m_source_file_index>
71

> <r_mmod_Potential_Energy-OPLS-2005>
7.84282779693604

> <r_mmod_Stretch_Energy-OPLS-2005>
42.612491607666

> <r_mmod_Bend_Energy-OPLS-2005>
109.101249694824

> <r_mmod_Torsional_Energy-OPLS-2005>
246.403915405273

> <r_mmod_Improper_Torsional_Energy-OPLS-2005>
5.32145547866821

> <r_mmod_Van_der_Waal_Energy-OPLS-2005>
138.444381713867

> <r_mmod_Electrostatic_Energy-OPLS-2005>
-347.061370849609

> <r_mmod_Solvation_Energy-OPLS-2005>
-208.960159301758

> <b_mmod_Minimization_Converged-OPLS-2005>
0

> <r_mmod_RMS_Derivative-OPLS-2005>
3.37095308303833

$$$$
71
                    3D
 Structure written by MMmdl.
164172  0  0  1  0            999 V2000
  -30.7296  -14.3987   20.6780 C   0  0  0  0  0  0
  -30.4335  -12.3023   19.3925 C   0  0  0  0  0  0
  -29.4931  -12.5295   18.1919 C   0  0  0  0  0  0
  -28.0154  -12.3834   18.6063 C   0  0  0  0  0  0
  -27.6714  -13.1978   19.8795 C   0  0  2  0  0  0
  -28.7098  -12.9193   20.9876 C   0  0  0  0  0  0
  -25.2647  -13.8137   20.5689 C   0  0  0  0  0  0
  -24.1867  -13.0441   20.9144 C   0  0  0  0  0  0
  -24.6391  -11.6900   20.8702 C   0  0  0  0  0  0
  -23.9046  -10.4296   21.0372 C   0  0  0  0  0  0
  -24.3597   -9.4220   21.9158 C   0  0  0  0  0  0
  -23.6275   -8.2260   22.0751 C   0  0  0  0  0  0
  -22.4257   -8.0290   21.3553 C   0  0  0  0  0  0
  -21.9878   -9.0254   20.4650 C   0  0  0  0  0  0
  -22.7214  -10.2131   20.3039 C   0  0  0  0  0  0
  -21.6858   -6.0733   22.5279 C   0  0  0  0  0  0
  -21.4021   -6.5635   23.8214 C   0  0  0  0  0  0
  -21.3659   -5.6787   24.9172 C   0  0  0  0  0  0
  -21.6038   -4.3051   24.7227 C   0  0  0  0  0  0
  -21.8820   -3.8145   23.4347 C   0  0  0  0  0  0
  -21.9196   -4.6961   22.3398 C   0  0  0  0  0  0
  -22.7900  -13.5272   21.1813 C   0  0  0  0  0  0
  -22.1673   -4.2144   21.0978 F   0  0  0  0  0  0
  -21.5613   -3.4535   25.7741 F   0  0  0  0  0  0
  -30.0572  -13.2350   20.4656 N   0  0  0  0  0  0
  -26.3075  -12.9290   20.3363 N   0  0  0  0  0  0
  -25.9316  -11.6457   20.5721 N   0  0  0  0  0  0
  -22.0520  -12.8281   22.0369 N   0  0  0  0  0  0
  -25.4405  -15.1848   20.4158 N   0  0  0  0  0  0
  -31.7349  -14.7316   20.0426 O   0  0  0  0  0  0
  -21.6642   -6.8878   21.4244 O   0  0  0  0  0  0
  -22.3606  -14.5587   20.6669 O   0  0  0  0  0  0
  -24.6146  -31.8710   23.2136 C   0  0  0  0  0  0
  -25.9049  -32.4839   23.8416 C   0  0  1  0  0  0
  -27.2304  -27.4472   20.0745 C   0  0  0  0  0  0
  -25.5909  -33.8636   24.2355 N   0  0  0  0  0  0
  -23.3990  -30.4986   21.5559 C   0  0  2  0  0  0
  -24.8404  -28.9701   20.1165 C   0  0  0  0  0  0
  -22.7396  -29.4690   22.5016 C   0  0  0  0  0  0
  -18.0276  -28.1375   22.8494 C   0  0  0  0  0  0
  -24.1482  -36.7312   23.2635 C   0  0  0  0  0  0
  -25.9288  -30.8396   21.3640 C   0  0  0  0  0  0
  -26.0039  -29.4761   20.7083 C   0  0  0  0  0  0
  -27.1991  -28.7210   20.6872 C   0  0  0  0  0  0
  -26.0390  -26.9565   19.4839 C   0  0  0  0  0  0
  -24.8518  -27.7066   19.5071 C   0  0  0  0  0  0
  -23.6036  -29.8364   20.1692 C   0  0  0  0  0  0
  -25.4098  -36.3124   24.0348 C   0  0  1  0  0  0
  -20.5865  -28.3662   23.1322 C   0  0  2  0  0  0
  -20.6768  -26.9399   22.5414 C   0  0  0  0  0  0
  -19.5747  -26.6389   21.5204 C   0  0  0  0  0  0
  -18.1926  -26.7927   22.1614 C   0  0  0  0  0  0
  -19.1525  -28.8831   23.2909 C   0  0  0  0  0  0
  -18.9451  -30.1437   23.8923 C   0  0  0  0  0  0
  -17.6455  -30.6579   24.0569 C   0  0  0  0  0  0
  -25.9030  -34.9487   23.5146 C   0  0  0  0  0  0
  -16.5348  -29.9083   23.6324 C   0  0  0  0  0  0
  -16.7266  -28.6499   23.0348 C   0  0  0  0  0  0
  -26.4475  -31.6604   25.0731 C   0  0  0  0  0  0
  -25.3750  -31.3691   26.1486 C   0  0  0  0  0  0
  -27.0301  -30.3057   24.6073 C   0  0  0  0  0  0
  -27.6070  -32.4306   25.7480 C   0  0  0  0  0  0
  -27.5584  -37.1809   24.8461 C   0  0  0  0  0  0
  -21.4129  -29.3040   22.3735 N   0  0  0  0  0  0
  -26.4289  -37.3803   23.9416 N   0  0  0  0  0  0
  -24.6664  -31.0829   22.1031 N   0  0  0  0  0  0
  -23.4175  -28.8227   23.3049 O   0  0  0  0  0  0
  -28.4144  -26.7301   20.0703 O   0  0  0  0  0  0
  -26.5582  -34.8936   22.4702 O   0  0  0  0  0  0
  -23.5345  -32.1466   23.7539 O   0  0  0  0  0  0
  -29.1862  -18.2539   23.3555 C   0  0  0  0  0  0
  -30.7796  -17.5073   21.1684 C   0  0  0  0  0  0
  -29.8150  -19.2557   22.5919 C   0  0  0  0  0  0
  -29.3452  -16.8917   23.0467 C   0  0  0  0  0  0
  -30.1595  -16.5009   21.9572 C   0  0  0  0  0  0
  -30.5848  -18.8830   21.4577 C   0  0  0  0  0  0
  -28.5065  -21.1860   23.5028 C   0  0  0  0  0  0
  -29.6260  -20.6662   22.9695 C   0  0  0  0  0  0
  -28.6122  -15.8644   23.8954 C   0  0  0  0  0  0
  -29.4668  -23.0897   19.5649 C   0  0  0  0  0  0
  -29.6458  -24.5854   19.9114 C   0  0  0  0  0  0
  -30.6229  -22.1655   20.0011 C   0  0  0  0  0  0
  -28.3402  -25.3598   19.6653 C   0  0  0  0  0  0
  -30.2383  -20.6682   19.9156 C   0  0  0  0  0  0
  -30.2595  -15.0976   21.7225 N   0  0  0  0  0  0
  -31.1579  -19.8292   20.6293 O   0  0  0  0  0  0
  -31.4745  -12.4249   19.0877 H   0  0  0  0  0  0
  -30.3513  -11.2756   19.7514 H   0  0  0  0  0  0
  -29.7263  -11.8234   17.3931 H   0  0  0  0  0  0
  -29.6631  -13.5240   17.7778 H   0  0  0  0  0  0
  -27.8178  -11.3250   18.7806 H   0  0  0  0  0  0
  -27.3658  -12.6830   17.7830 H   0  0  0  0  0  0
  -27.7341  -14.2538   19.6162 H   0  0  0  0  0  0
  -28.6763  -11.8671   21.2736 H   0  0  0  0  0  0
  -28.4414  -13.4617   21.8937 H   0  0  0  0  0  0
  -25.2734   -9.5708   22.4736 H   0  0  0  0  0  0
  -23.9989   -7.4656   22.7473 H   0  0  0  0  0  0
  -21.0808   -8.8769   19.8957 H   0  0  0  0  0  0
  -22.3660  -10.9664   19.6154 H   0  0  0  0  0  0
  -21.2026   -7.6145   23.9716 H   0  0  0  0  0  0
  -21.1472   -6.0516   25.9072 H   0  0  0  0  0  0
  -22.0592   -2.7609   23.2849 H   0  0  0  0  0  0
  -22.4137  -11.9957   22.4778 H   0  0  0  0  0  0
  -21.1141  -13.1331   22.2554 H   0  0  0  0  0  0
  -24.6822  -15.8460   20.5409 H   0  0  0  0  0  0
  -26.3075  -15.6240   20.1314 H   0  0  0  0  0  0
  -26.7122  -32.5549   23.1181 H   0  0  0  0  0  0
  -25.0086  -33.9799   25.0519 H   0  0  0  0  0  0
  -22.6878  -31.3165   21.4221 H   0  0  0  0  0  0
  -23.3753  -35.9636   23.3297 H   0  0  0  0  0  0
  -24.3591  -36.8918   22.2050 H   0  0  0  0  0  0
  -23.7222  -37.6515   23.6638 H   0  0  0  0  0  0
  -26.0399  -31.6082   20.5980 H   0  0  0  0  0  0
  -26.8181  -30.8919   21.9801 H   0  0  0  0  0  0
  -28.0978  -29.1120   21.1433 H   0  0  0  0  0  0
  -25.9923  -25.9972   18.9915 H   0  0  0  0  0  0
  -23.9565  -27.3082   19.0504 H   0  0  0  0  0  0
  -23.7121  -30.6146   19.4129 H   0  0  0  0  0  0
  -22.7249  -29.2606   19.8717 H   0  0  0  0  0  0
  -25.1269  -36.1997   25.0841 H   0  0  0  0  0  0
  -20.9963  -28.3228   24.1439 H   0  0  0  0  0  0
  -20.5664  -26.2267   23.3597 H   0  0  0  0  0  0
  -21.6643  -26.7447   22.1217 H   0  0  0  0  0  0
  -19.6911  -25.6303   21.1222 H   0  0  0  0  0  0
  -19.6690  -27.3207   20.6741 H   0  0  0  0  0  0
  -17.4198  -26.6689   21.4012 H   0  0  0  0  0  0
  -18.0321  -26.0059   22.8998 H   0  0  0  0  0  0
  -19.7924  -30.7246   24.2309 H   0  0  0  0  0  0
  -17.5008  -31.6265   24.5161 H   0  0  0  0  0  0
  -15.5350  -30.2989   23.7635 H   0  0  0  0  0  0
  -15.8667  -28.0819   22.7057 H   0  0  0  0  0  0
  -24.5919  -30.7044   25.7818 H   0  0  0  0  0  0
  -24.8943  -32.2839   26.4967 H   0  0  0  0  0  0
  -25.8116  -30.8836   27.0224 H   0  0  0  0  0  0
  -26.2834  -29.6821   24.1143 H   0  0  0  0  0  0
  -27.4115  -29.7285   25.4505 H   0  0  0  0  0  0
  -27.8649  -30.4398   23.9189 H   0  0  0  0  0  0
  -27.2716  -33.3595   26.2101 H   0  0  0  0  0  0
  -28.3850  -32.6878   25.0279 H   0  0  0  0  0  0
  -28.0771  -31.8399   26.5352 H   0  0  0  0  0  0
  -28.2599  -38.0111   24.7533 H   0  0  0  0  0  0
  -28.1089  -36.2652   24.6252 H   0  0  0  0  0  0
  -27.2319  -37.1420   25.8868 H   0  0  0  0  0  0
  -20.9277  -29.8765   21.6969 H   0  0  0  0  0  0
  -26.0187  -38.2884   24.1423 H   0  0  0  0  0  0
  -28.5839  -18.5331   24.2084 H   0  0  0  0  0  0
  -31.3882  -17.2415   20.3165 H   0  0  0  0  0  0
  -28.4545  -22.2322   23.7705 H   0  0  0  0  0  0
  -27.6239  -20.5862   23.6743 H   0  0  0  0  0  0
  -30.4779  -21.3129   22.8272 H   0  0  0  0  0  0
  -28.1362  -16.3291   24.7599 H   0  0  0  0  0  0
  -29.2942  -15.0991   24.2670 H   0  0  0  0  0  0
  -27.8286  -15.3833   23.3089 H   0  0  0  0  0  0
  -29.2935  -22.9791   18.4931 H   0  0  0  0  0  0
  -28.5550  -22.7414   20.0509 H   0  0  0  0  0  0
  -30.4537  -25.0190   19.3217 H   0  0  0  0  0  0
  -29.9284  -24.6929   20.9598 H   0  0  0  0  0  0
  -30.8993  -22.4178   21.0229 H   0  0  0  0  0  0
  -31.5089  -22.3579   19.3954 H   0  0  0  0  0  0
  -27.5458  -24.8655   20.2279 H   0  0  0  0  0  0
  -28.0871  -25.2998   18.6054 H   0  0  0  0  0  0
  -30.2289  -20.3540   18.8716 H   0  0  0  0  0  0
  -29.2144  -20.5299   20.2659 H   0  0  0  0  0  0
  -29.6402  -14.5463   22.2944 H   0  0  0  0  0  0
  1 25  1  0  0  0
  1 30  2  0  0  0
  1 85  1  0  0  0
  2  3  1  0  0  0
  2 25  1  0  0  0
  2 87  1  0  0  0
  2 88  1  0  0  0
  3  4  1  0  0  0
  3 89  1  0  0  0
  3 90  1  0  0  0
  4  5  1  0  0  0
  4 91  1  0  0  0
  4 92  1  0  0  0
  5  6  1  0  0  0
  5 26  1  0  0  0
  5 93  1  0  0  0
  6 25  1  0  0  0
  6 94  1  0  0  0
  6 95  1  0  0  0
  7  8  2  0  0  0
  7 26  1  0  0  0
  7 29  1  0  0  0
  8  9  1  0  0  0
  8 22  1  0  0  0
  9 10  1  0  0  0
  9 27  2  0  0  0
 10 11  2  0  0  0
 10 15  1  0  0  0
 11 12  1  0  0  0
 11 96  1  0  0  0
 12 13  2  0  0  0
 12 97  1  0  0  0
 13 14  1  0  0  0
 13 31  1  0  0  0
 14 15  2  0  0  0
 14 98  1  0  0  0
 15 99  1  0  0  0
 16 17  2  0  0  0
 16 21  1  0  0  0
 16 31  1  0  0  0
 17 18  1  0  0  0
 17100  1  0  0  0
 18 19  2  0  0  0
 18101  1  0  0  0
 19 20  1  0  0  0
 19 24  1  0  0  0
 20 21  2  0  0  0
 20102  1  0  0  0
 21 23  1  0  0  0
 22 28  1  0  0  0
 22 32  2  0  0  0
 26 27  1  0  0  0
 28103  1  0  0  0
 28104  1  0  0  0
 29105  1  0  0  0
 29106  1  0  0  0
 33 34  1  0  0  0
 33 66  1  0  0  0
 33 70  2  0  0  0
 34 36  1  0  0  0
 34 59  1  0  0  0
 34107  1  0  0  0
 35 44  2  0  0  0
 35 45  1  0  0  0
 35 68  1  0  0  0
 36 56  1  0  0  0
 36108  1  0  0  0
 37 39  1  0  0  0
 37 47  1  0  0  0
 37 66  1  0  0  0
 37109  1  0  0  0
 38 43  2  0  0  0
 38 46  1  0  0  0
 38 47  1  0  0  0
 39 64  1  0  0  0
 39 67  2  0  0  0
 40 52  1  0  0  0
 40 53  2  0  0  0
 40 58  1  0  0  0
 41110  1  0  0  0
 41111  1  0  0  0
 41112  1  0  0  0
 41 48  1  0  0  0
 42 43  1  0  0  0
 42 66  1  0  0  0
 42113  1  0  0  0
 42114  1  0  0  0
 43 44  1  0  0  0
 44115  1  0  0  0
 45 46  2  0  0  0
 45116  1  0  0  0
 46117  1  0  0  0
 47118  1  0  0  0
 47119  1  0  0  0
 48 56  1  0  0  0
 48 65  1  0  0  0
 48120  1  0  0  0
 49 50  1  0  0  0
 49 53  1  0  0  0
 49 64  1  0  0  0
 49121  1  0  0  0
 50 51  1  0  0  0
 50122  1  0  0  0
 50123  1  0  0  0
 51 52  1  0  0  0
 51124  1  0  0  0
 51125  1  0  0  0
 52126  1  0  0  0
 52127  1  0  0  0
 53 54  1  0  0  0
 54 55  2  0  0  0
 54128  1  0  0  0
 55 57  1  0  0  0
 55129  1  0  0  0
 56 69  2  0  0  0
 57 58  2  0  0  0
 57130  1  0  0  0
 58131  1  0  0  0
 59 60  1  0  0  0
 59 61  1  0  0  0
 59 62  1  0  0  0
 60132  1  0  0  0
 60133  1  0  0  0
 60134  1  0  0  0
 61135  1  0  0  0
 61136  1  0  0  0
 61137  1  0  0  0
 62138  1  0  0  0
 62139  1  0  0  0
 62140  1  0  0  0
 63 65  1  0  0  0
 63141  1  0  0  0
 63142  1  0  0  0
 63143  1  0  0  0
 64144  1  0  0  0
 65145  1  0  0  0
 68 83  1  0  0  0
 71 73  2  0  0  0
 71 74  1  0  0  0
 71146  1  0  0  0
 72 75  1  0  0  0
 72 76  2  0  0  0
 72147  1  0  0  0
 73 76  1  0  0  0
 73 78  1  0  0  0
 74 75  2  0  0  0
 74 79  1  0  0  0
 75 85  1  0  0  0
 76 86  1  0  0  0
 77 78  2  0  0  0
 77148  1  0  0  0
 77149  1  0  0  0
 78150  1  0  0  0
 79151  1  0  0  0
 79152  1  0  0  0
 79153  1  0  0  0
 80 81  1  0  0  0
 80 82  1  0  0  0
 80154  1  0  0  0
 80155  1  0  0  0
 81 83  1  0  0  0
 81156  1  0  0  0
 81157  1  0  0  0
 82 84  1  0  0  0
 82158  1  0  0  0
 82159  1  0  0  0
 83160  1  0  0  0
 83161  1  0  0  0
 84 86  1  0  0  0
 84162  1  0  0  0
 84163  1  0  0  0
 85164  1  0  0  0
M  ISO  4   1 100  68 101  83 101  85 100
M  END
> <chiral flag>
0

> <version>
0

> <s_m_source_file>
/data/baiqing/PycharmProjects/Reinvent-master-3.2/result/LINK_invent/BTK/process_docking_weight1_custom_product_contain_oxygen_bond_distance_aromatic_linkinvent_7_9_3/rearranged_h_0120.sdf

> <i_m_source_file_index>
72

> <r_mmod_Potential_Energy-OPLS-2005>
-15.4479351043701

> <r_mmod_Stretch_Energy-OPLS-2005>
37.448616027832

> <r_mmod_Bend_Energy-OPLS-2005>
104.902313232422

> <r_mmod_Torsional_Energy-OPLS-2005>
244.976348876953

> <r_mmod_Improper_Torsional_Energy-OPLS-2005>
3.78088092803955

> <r_mmod_Van_der_Waal_Energy-OPLS-2005>
164.281845092773

> <r_mmod_Electrostatic_Energy-OPLS-2005>
-374.638214111328

> <r_mmod_Solvation_Energy-OPLS-2005>
-205.353454589844

> <b_mmod_Minimization_Converged-OPLS-2005>
0

> <r_mmod_RMS_Derivative-OPLS-2005>
1.71276068687439

$$$$
72
                    3D
 Structure written by MMmdl.
156164  0  0  1  0            999 V2000
  -29.8654  -16.7148   20.2597 C   0  0  0  0  0  0
  -30.3054  -13.8948   19.5589 C   0  0  0  0  0  0
  -29.5865  -13.0078   18.4479 C   0  0  0  0  0  0
  -28.2615  -12.4131   18.9282 C   0  0  0  0  0  0
  -27.5701  -13.4550   19.8157 C   0  0  2  0  0  0
  -28.4841  -14.2055   20.8587 C   0  0  0  0  0  0
  -25.2121  -13.8527   20.5937 C   0  0  0  0  0  0
  -24.1660  -13.0469   20.9325 C   0  0  0  0  0  0
  -24.6572  -11.7052   20.8707 C   0  0  0  0  0  0
  -23.9293  -10.4328   21.0318 C   0  0  0  0  0  0
  -24.3762   -9.4235   21.9136 C   0  0  0  0  0  0
  -23.6380   -8.2294   22.0741 C   0  0  0  0  0  0
  -22.4356   -8.0328   21.3540 C   0  0  0  0  0  0
  -22.0035   -9.0311   20.4630 C   0  0  0  0  0  0
  -22.7422  -10.2162   20.3008 C   0  0  0  0  0  0
  -21.6883   -6.0773   22.5280 C   0  0  0  0  0  0
  -21.4037   -6.5660   23.8218 C   0  0  0  0  0  0
  -21.3671   -5.6802   24.9172 C   0  0  0  0  0  0
  -21.6043   -4.3065   24.7212 C   0  0  0  0  0  0
  -21.8818   -3.8167   23.4330 C   0  0  0  0  0  0
  -21.9200   -4.6993   22.3392 C   0  0  0  0  0  0
  -22.7632  -13.5066   21.1949 C   0  0  0  0  0  0
  -22.1663   -4.2173   21.0970 F   0  0  0  0  0  0
  -21.5624   -3.4546   25.7725 F   0  0  0  0  0  0
  -29.4949  -15.1474   20.1803 N   0  0  0  0  0  0
  -26.2796  -13.0181   20.3448 N   0  0  0  0  0  0
  -25.9582  -11.7072   20.5613 N   0  0  0  0  0  0
  -22.0356  -12.7998   22.0505 N   0  0  0  0  0  0
  -25.3426  -15.2301   20.4385 N   0  0  0  0  0  0
  -31.1192  -16.4930   20.1960 O   0  0  0  0  0  0
  -21.6685   -6.8938   21.4253 O   0  0  0  0  0  0
  -22.3244  -14.5341   20.6788 O   0  0  0  0  0  0
  -24.7541  -31.7087   23.0926 C   0  0  0  0  0  0
  -25.9753  -32.4029   23.7751 C   0  0  1  0  0  0
  -27.2703  -25.9585   20.2623 C   0  0  0  0  0  0
  -25.6019  -33.7905   24.1544 N   0  0  0  0  0  0
  -23.6159  -30.2753   21.4626 C   0  0  2  0  0  0
  -25.0896  -28.4656   20.1340 C   0  0  0  0  0  0
  -22.8088  -29.3813   22.4501 C   0  0  0  0  0  0
  -18.0388  -28.1455   22.8411 C   0  0  0  0  0  0
  -24.1505  -36.6980   23.2665 C   0  0  0  0  0  0
  -26.2173  -30.1860   21.4829 C   0  0  0  0  0  0
  -26.2770  -28.6676   20.8462 C   0  0  0  0  0  0
  -27.3039  -27.4627   20.8828 C   0  0  0  0  0  0
  -26.0702  -26.1823   19.4636 C   0  0  0  0  0  0
  -25.0699  -27.2495   19.4178 C   0  0  0  0  0  0
  -23.9142  -29.5050   20.1295 C   0  0  0  0  0  0
  -25.4174  -36.2653   24.0232 C   0  0  1  0  0  0
  -20.6053  -28.3852   23.0996 C   0  0  2  0  0  0
  -20.6814  -26.9440   22.5415 C   0  0  0  0  0  0
  -19.5810  -26.6340   21.5221 C   0  0  0  0  0  0
  -18.1988  -26.7966   22.1597 C   0  0  0  0  0  0
  -19.1668  -28.8996   23.2662 C   0  0  0  0  0  0
  -18.9563  -30.1554   23.8754 C   0  0  0  0  0  0
  -17.6544  -30.6619   24.0538 C   0  0  0  0  0  0
  -25.9198  -34.9057   23.4791 C   0  0  0  0  0  0
  -16.5431  -29.9089   23.6362 C   0  0  0  0  0  0
  -16.7362  -28.6511   23.0381 C   0  0  0  0  0  0
  -26.4705  -31.6384   25.0671 C   0  0  0  0  0  0
  -25.3583  -31.3890   26.1145 C   0  0  0  0  0  0
  -27.0758  -30.2654   24.7106 C   0  0  0  0  0  0
  -27.6014  -32.4426   25.7508 C   0  0  0  0  0  0
  -27.5556  -37.1627   24.8453 C   0  0  0  0  0  0
  -21.4668  -29.2940   22.3233 N   0  0  0  0  0  0
  -26.4238  -37.3497   23.9419 N   0  0  0  0  0  0
  -24.8955  -30.7755   22.0635 N   0  0  0  0  0  0
  -23.4166  -28.7543   23.3200 O   0  0  0  0  0  0
  -27.9912  -24.2878   20.3102 O   0  0  0  0  0  0
  -26.5954  -34.8777   22.4487 O   0  0  0  0  0  0
  -23.6402  -32.0514   23.5386 O   0  0  0  0  0  0
  -27.1150  -21.9829   20.1891 C   0  0  0  0  0  0
  -27.3386  -24.2712   22.3065 C   0  0  0  0  0  0
  -28.6374  -21.1234   20.3516 C   0  0  0  0  0  0
  -29.5618  -22.4635   20.9968 C   0  0  0  0  0  0
  -29.1143  -23.8482   22.0680 C   0  0  0  0  0  0
  -26.3154  -23.2688   21.1543 C   0  0  0  0  0  0
  -29.0213  -20.7840   24.2524 C   0  0  0  0  0  0
  -28.8562  -18.8712   20.2489 C   0  0  0  0  0  0
  -28.7357  -21.9651   23.6780 C   0  0  0  0  0  0
  -31.0317  -22.1155   21.0984 C   0  0  0  0  0  0
  -27.7588  -22.0853   22.4295 C   0  0  0  0  0  0
  -29.3756  -23.2739   24.1913 C   0  0  0  0  0  0
  -27.6446  -18.5558   20.0692 N   0  0  0  0  0  0
  -29.9231  -24.0639   23.1326 O   0  0  0  0  0  0
  -24.9798  -23.4739   21.0552 F   0  0  0  0  0  0
  -31.2023  -14.2941   19.0853 H   0  0  0  0  0  0
  -30.7036  -13.2553   20.3489 H   0  0  0  0  0  0
  -30.2505  -12.2149   18.1018 H   0  0  0  0  0  0
  -29.3932  -13.6402   17.5808 H   0  0  0  0  0  0
  -28.4672  -11.5171   19.5153 H   0  0  0  0  0  0
  -27.6323  -12.1108   18.0910 H   0  0  0  0  0  0
  -27.3070  -14.2321   19.0954 H   0  0  0  0  0  0
  -28.9404  -13.5091   21.5645 H   0  0  0  0  0  0
  -27.8598  -14.8454   21.4826 H   0  0  0  0  0  0
  -25.2896   -9.5693   22.4734 H   0  0  0  0  0  0
  -24.0058   -7.4695   22.7486 H   0  0  0  0  0  0
  -21.0958   -8.8859   19.8940 H   0  0  0  0  0  0
  -22.3882  -10.9696   19.6111 H   0  0  0  0  0  0
  -21.2043   -7.6169   23.9727 H   0  0  0  0  0  0
  -21.1492   -6.0529   25.9074 H   0  0  0  0  0  0
  -22.0581   -2.7628   23.2824 H   0  0  0  0  0  0
  -22.4066  -11.9707   22.4909 H   0  0  0  0  0  0
  -21.0940  -13.0914   22.2703 H   0  0  0  0  0  0
  -24.5589  -15.8609   20.5662 H   0  0  0  0  0  0
  -26.1873  -15.7071   20.1475 H   0  0  0  0  0  0
  -26.7947  -32.4374   23.0553 H   0  0  0  0  0  0
  -24.9936  -33.8822   24.9549 H   0  0  0  0  0  0
  -22.9867  -31.1306   21.2080 H   0  0  0  0  0  0
  -23.3810  -35.9258   23.3171 H   0  0  0  0  0  0
  -24.3568  -36.8845   22.2114 H   0  0  0  0  0  0
  -23.7221  -37.6068   23.6903 H   0  0  0  0  0  0
  -26.4951  -30.8542   20.6674 H   0  0  0  0  0  0
  -27.0459  -30.2780   22.1701 H   0  0  0  0  0  0
  -28.1542  -27.6418   21.5241 H   0  0  0  0  0  0
  -25.7974  -25.3254   18.8638 H   0  0  0  0  0  0
  -24.2067  -27.0658   18.7922 H   0  0  0  0  0  0
  -24.1475  -30.2358   19.3544 H   0  0  0  0  0  0
  -23.0072  -29.0055   19.7844 H   0  0  0  0  0  0
  -25.1410  -36.1310   25.0715 H   0  0  0  0  0  0
  -21.0112  -28.3545   24.1134 H   0  0  0  0  0  0
  -20.5598  -26.2507   23.3749 H   0  0  0  0  0  0
  -21.6673  -26.7259   22.1292 H   0  0  0  0  0  0
  -19.6958  -25.6211   21.1351 H   0  0  0  0  0  0
  -19.6779  -27.3068   20.6688 H   0  0  0  0  0  0
  -17.4265  -26.6713   21.3991 H   0  0  0  0  0  0
  -18.0352  -26.0141   22.9022 H   0  0  0  0  0  0
  -19.8043  -30.7394   24.2074 H   0  0  0  0  0  0
  -17.5098  -31.6285   24.5169 H   0  0  0  0  0  0
  -15.5427  -30.2956   23.7763 H   0  0  0  0  0  0
  -15.8760  -28.0782   22.7188 H   0  0  0  0  0  0
  -24.5858  -30.7151   25.7419 H   0  0  0  0  0  0
  -24.8676  -32.3159   26.4123 H   0  0  0  0  0  0
  -25.7595  -30.9344   27.0213 H   0  0  0  0  0  0
  -26.3607  -29.6029   24.2227 H   0  0  0  0  0  0
  -27.4009  -29.7398   25.6097 H   0  0  0  0  0  0
  -27.9649  -30.3631   24.0874 H   0  0  0  0  0  0
  -27.2477  -33.3900   26.1587 H   0  0  0  0  0  0
  -28.4056  -32.6703   25.0499 H   0  0  0  0  0  0
  -28.0430  -31.8900   26.5811 H   0  0  0  0  0  0
  -28.2444  -38.0040   24.7579 H   0  0  0  0  0  0
  -28.1179  -36.2556   24.6178 H   0  0  0  0  0  0
  -27.2288  -37.1126   25.8854 H   0  0  0  0  0  0
  -21.0158  -29.8492   21.6096 H   0  0  0  0  0  0
  -25.9998  -38.2505   24.1470 H   0  0  0  0  0  0
  -26.3789  -21.4093   19.6449 H   0  0  0  0  0  0
  -26.9522  -24.9920   23.0131 H   0  0  0  0  0  0
  -28.5908  -19.8581   23.8981 H   0  0  0  0  0  0
  -29.6953  -20.7241   25.0953 H   0  0  0  0  0  0
  -31.4071  -21.7731   20.1349 H   0  0  0  0  0  0
  -31.1814  -21.3198   21.8285 H   0  0  0  0  0  0
  -31.6204  -22.9780   21.4098 H   0  0  0  0  0  0
  -26.8838  -22.1717   23.1033 H   0  0  0  0  0  0
  -27.4508  -21.0418   22.2636 H   0  0  0  0  0  0
  -30.1602  -23.0643   24.9190 H   0  0  0  0  0  0
  -28.6161  -23.8562   24.7178 H   0  0  0  0  0  0
  -27.0529  -19.3763   20.0373 H   0  0  0  0  0  0
  1 25  1  0  0  0
  1 30  2  0  0  0
  1 78  1  0  0  0
  2  3  1  0  0  0
  2 25  1  0  0  0
  2 86  1  0  0  0
  2 87  1  0  0  0
  3  4  1  0  0  0
  3 88  1  0  0  0
  3 89  1  0  0  0
  4  5  1  0  0  0
  4 90  1  0  0  0
  4 91  1  0  0  0
  5  6  1  0  0  0
  5 26  1  0  0  0
  5 92  1  0  0  0
  6 25  1  0  0  0
  6 93  1  0  0  0
  6 94  1  0  0  0
  7  8  2  0  0  0
  7 26  1  0  0  0
  7 29  1  0  0  0
  8  9  1  0  0  0
  8 22  1  0  0  0
  9 10  1  0  0  0
  9 27  2  0  0  0
 10 11  2  0  0  0
 10 15  1  0  0  0
 11 12  1  0  0  0
 11 95  1  0  0  0
 12 13  2  0  0  0
 12 96  1  0  0  0
 13 14  1  0  0  0
 13 31  1  0  0  0
 14 15  2  0  0  0
 14 97  1  0  0  0
 15 98  1  0  0  0
 16 17  2  0  0  0
 16 21  1  0  0  0
 16 31  1  0  0  0
 17 18  1  0  0  0
 17 99  1  0  0  0
 18 19  2  0  0  0
 18100  1  0  0  0
 19 20  1  0  0  0
 19 24  1  0  0  0
 20 21  2  0  0  0
 20101  1  0  0  0
 21 23  1  0  0  0
 22 28  1  0  0  0
 22 32  2  0  0  0
 26 27  1  0  0  0
 28102  1  0  0  0
 28103  1  0  0  0
 29104  1  0  0  0
 29105  1  0  0  0
 33 34  1  0  0  0
 33 66  1  0  0  0
 33 70  2  0  0  0
 34 36  1  0  0  0
 34 59  1  0  0  0
 34106  1  0  0  0
 35 44  2  0  0  0
 35 45  1  0  0  0
 35 68  1  0  0  0
 36 56  1  0  0  0
 36107  1  0  0  0
 37 39  1  0  0  0
 37 47  1  0  0  0
 37 66  1  0  0  0
 37108  1  0  0  0
 38 43  2  0  0  0
 38 46  1  0  0  0
 38 47  1  0  0  0
 39 64  1  0  0  0
 39 67  2  0  0  0
 40 52  1  0  0  0
 40 53  2  0  0  0
 40 58  1  0  0  0
 41109  1  0  0  0
 41110  1  0  0  0
 41111  1  0  0  0
 41 48  1  0  0  0
 42 43  1  0  0  0
 42 66  1  0  0  0
 42112  1  0  0  0
 42113  1  0  0  0
 43 44  1  0  0  0
 44114  1  0  0  0
 45 46  2  0  0  0
 45115  1  0  0  0
 46116  1  0  0  0
 47117  1  0  0  0
 47118  1  0  0  0
 48 56  1  0  0  0
 48 65  1  0  0  0
 48119  1  0  0  0
 49 50  1  0  0  0
 49 53  1  0  0  0
 49 64  1  0  0  0
 49120  1  0  0  0
 50 51  1  0  0  0
 50121  1  0  0  0
 50122  1  0  0  0
 51 52  1  0  0  0
 51123  1  0  0  0
 51124  1  0  0  0
 52125  1  0  0  0
 52126  1  0  0  0
 53 54  1  0  0  0
 54 55  2  0  0  0
 54127  1  0  0  0
 55 57  1  0  0  0
 55128  1  0  0  0
 56 69  2  0  0  0
 57 58  2  0  0  0
 57129  1  0  0  0
 58130  1  0  0  0
 59 60  1  0  0  0
 59 61  1  0  0  0
 59 62  1  0  0  0
 60131  1  0  0  0
 60132  1  0  0  0
 60133  1  0  0  0
 61134  1  0  0  0
 61135  1  0  0  0
 61136  1  0  0  0
 62137  1  0  0  0
 62138  1  0  0  0
 62139  1  0  0  0
 63 65  1  0  0  0
 63140  1  0  0  0
 63141  1  0  0  0
 63142  1  0  0  0
 64143  1  0  0  0
 65144  1  0  0  0
 68 81  1  0  0  0
 71 73  2  0  0  0
 71 76  1  0  0  0
 71145  1  0  0  0
 72 75  1  0  0  0
 72 76  2  0  0  0
 72146  1  0  0  0
 73 74  1  0  0  0
 73 78  1  0  0  0
 74 75  2  0  0  0
 74 80  1  0  0  0
 75 84  1  0  0  0
 76 85  1  0  0  0
 77 79  2  0  0  0
 77147  1  0  0  0
 77148  1  0  0  0
 78 83  2  0  0  0
 79 81  1  0  0  0
 79 82  1  0  0  0
 80149  1  0  0  0
 80150  1  0  0  0
 80151  1  0  0  0
 81152  1  0  0  0
 81153  1  0  0  0
 82 84  1  0  0  0
 82154  1  0  0  0
 82155  1  0  0  0
 83156  1  0  0  0
M  ISO  4   1 100  68 101  78 100  81 101
M  END
> <chiral flag>
0

> <version>
0

> <s_m_source_file>
/data/baiqing/PycharmProjects/Reinvent-master-3.2/result/LINK_invent/BTK/process_docking_weight1_custom_product_contain_oxygen_bond_distance_aromatic_linkinvent_7_9_3/rearranged_h_0120.sdf

> <i_m_source_file_index>
73

> <r_mmod_Potential_Energy-OPLS-2005>
14517.689453125

> <r_mmod_Stretch_Energy-OPLS-2005>
8159.705078125

> <r_mmod_Bend_Energy-OPLS-2005>
1087.18713378906

> <r_mmod_Torsional_Energy-OPLS-2005>
367.732757568359

> <r_mmod_Improper_Torsional_Energy-OPLS-2005>
23.7520637512207

> <r_mmod_Van_der_Waal_Energy-OPLS-2005>
2037.83520507812

> <r_mmod_Electrostatic_Energy-OPLS-2005>
-259.565856933594

> <r_mmod_Solvation_Energy-OPLS-2005>
-208.137771606445

> <b_mmod_Minimization_Converged-OPLS-2005>
0

> <r_mmod_RMS_Derivative-OPLS-2005>
2.20719075202942

$$$$
73
                    3D
 Structure written by MMmdl.
167175  0  0  1  0            999 V2000
  -30.7028  -14.5511   20.3420 C   0  0  0  0  0  0
  -30.4294  -12.2741   19.4706 C   0  0  0  0  0  0
  -29.4946  -12.2615   18.2414 C   0  0  0  0  0  0
  -28.0071  -12.2718   18.6457 C   0  0  0  0  0  0
  -27.6484  -13.2007   19.8402 C   0  0  2  0  0  0
  -28.7063  -13.1311   20.9598 C   0  0  0  0  0  0
  -25.2612  -13.8155   20.5742 C   0  0  0  0  0  0
  -24.1837  -13.0453   20.9209 C   0  0  0  0  0  0
  -24.6365  -11.6919   20.8774 C   0  0  0  0  0  0
  -23.9041  -10.4307   21.0446 C   0  0  0  0  0  0
  -24.3601   -9.4214   21.9208 C   0  0  0  0  0  0
  -23.6288   -8.2241   22.0787 C   0  0  0  0  0  0
  -22.4271   -8.0278   21.3581 C   0  0  0  0  0  0
  -21.9904   -9.0245   20.4682 C   0  0  0  0  0  0
  -22.7222  -10.2131   20.3094 C   0  0  0  0  0  0
  -21.6848   -6.0726   22.5271 C   0  0  0  0  0  0
  -21.3997   -6.5638   23.8194 C   0  0  0  0  0  0
  -21.3662   -5.6807   24.9166 C   0  0  0  0  0  0
  -21.6052   -4.3070   24.7234 C   0  0  0  0  0  0
  -21.8802   -3.8150   23.4354 C   0  0  0  0  0  0
  -21.9184   -4.6955   22.3403 C   0  0  0  0  0  0
  -22.7868  -13.5273   21.1838 C   0  0  0  0  0  0
  -22.1659   -4.2126   21.0988 F   0  0  0  0  0  0
  -21.5649   -3.4564   25.7758 F   0  0  0  0  0  0
  -30.0145  -13.3767   20.3428 N   0  0  0  0  0  0
  -26.3006  -12.9303   20.3333 N   0  0  0  0  0  0
  -25.9289  -11.6491   20.5827 N   0  0  0  0  0  0
  -22.0500  -12.8263   22.0386 N   0  0  0  0  0  0
  -25.4407  -15.1869   20.4182 N   0  0  0  0  0  0
  -31.9348  -14.5849   20.3133 O   0  0  0  0  0  0
  -21.6665   -6.8856   21.4231 O   0  0  0  0  0  0
  -22.3564  -14.5591   20.6687 O   0  0  0  0  0  0
  -24.6123  -31.8686   23.2101 C   0  0  0  0  0  0
  -25.9027  -32.4818   23.8394 C   0  0  1  0  0  0
  -27.2439  -27.4543   20.1104 C   0  0  0  0  0  0
  -25.5893  -33.8620   24.2333 N   0  0  0  0  0  0
  -23.4011  -30.4889   21.5503 C   0  0  2  0  0  0
  -24.8528  -28.9545   20.1153 C   0  0  0  0  0  0
  -22.7401  -29.4649   22.5004 C   0  0  0  0  0  0
  -18.0268  -28.1373   22.8499 C   0  0  0  0  0  0
  -24.1485  -36.7323   23.2643 C   0  0  0  0  0  0
  -25.9255  -30.8390   21.3613 C   0  0  0  0  0  0
  -26.0083  -29.4728   20.7155 C   0  0  0  0  0  0
  -27.2073  -28.7283   20.7137 C   0  0  0  0  0  0
  -26.0798  -26.9414   19.5007 C   0  0  0  0  0  0
  -24.8827  -27.6855   19.5052 C   0  0  0  0  0  0
  -23.6090  -29.8145   20.1656 C   0  0  0  0  0  0
  -25.4106  -36.3126   24.0342 C   0  0  1  0  0  0
  -20.5862  -28.3656   23.1331 C   0  0  2  0  0  0
  -20.6763  -26.9390   22.5425 C   0  0  0  0  0  0
  -19.5729  -26.6380   21.5227 C   0  0  0  0  0  0
  -18.1914  -26.7913   22.1640 C   0  0  0  0  0  0
  -19.1526  -28.8826   23.2916 C   0  0  0  0  0  0
  -18.9448  -30.1438   23.8901 C   0  0  0  0  0  0
  -17.6451  -30.6578   24.0571 C   0  0  0  0  0  0
  -25.9022  -34.9479   23.5139 C   0  0  0  0  0  0
  -16.5344  -29.9072   23.6336 C   0  0  0  0  0  0
  -16.7261  -28.6501   23.0339 C   0  0  0  0  0  0
  -26.4468  -31.6582   25.0709 C   0  0  0  0  0  0
  -25.3752  -31.3674   26.1472 C   0  0  0  0  0  0
  -27.0290  -30.3023   24.6063 C   0  0  0  0  0  0
  -27.6059  -32.4291   25.7470 C   0  0  0  0  0  0
  -27.5581  -37.1822   24.8471 C   0  0  0  0  0  0
  -21.4132  -29.3037   22.3762 N   0  0  0  0  0  0
  -26.4305  -37.3800   23.9402 N   0  0  0  0  0  0
  -24.6641  -31.0795   22.0995 N   0  0  0  0  0  0
  -23.4182  -28.8212   23.3063 O   0  0  0  0  0  0
  -28.3939  -26.7070   20.1092 O   0  0  0  0  0  0
  -26.5598  -34.8942   22.4712 O   0  0  0  0  0  0
  -23.5322  -32.1439   23.7501 O   0  0  0  0  0  0
  -29.8663  -16.9436   21.8272 C   0  0  0  0  0  0
  -29.7560  -18.1657   22.5338 C   0  0  0  0  0  0
  -29.4984  -19.3333   20.4547 C   0  0  0  0  0  0
  -29.5992  -18.1328   19.7278 C   0  0  0  0  0  0
  -29.8282  -16.8769   20.4035 C   0  0  0  0  0  0
  -29.5804  -19.3865   21.8555 C   0  0  0  0  0  0
  -30.1790  -19.1560   17.5284 C   0  0  0  0  0  0
  -29.0286  -15.2426   16.1141 C   0  0  0  0  0  0
  -29.3923  -18.3777   18.2902 C   0  0  0  0  0  0
  -29.0532  -15.5295   17.4248 C   0  0  0  0  0  0
  -29.5950  -24.7814   21.0436 C   0  0  0  0  0  0
  -30.3191  -15.5902   18.2662 C   0  0  0  0  0  0
  -30.0293  -23.9722   22.2779 C   0  0  0  0  0  0
  -28.4471  -25.7921   21.2094 C   0  0  0  0  0  0
  -28.9692  -22.9690   22.7974 C   0  0  0  0  0  0
  -28.8439  -21.6882   21.9525 C   0  0  0  0  0  0
  -30.0519  -15.5890   19.7305 N   0  0  0  0  0  0
  -30.1670  -24.6226   19.9617 O   0  0  0  0  0  0
  -29.5095  -20.5726   22.5678 O   0  0  0  0  0  0
  -31.4694  -12.3659   19.1522 H   0  0  0  0  0  0
  -30.3657  -11.3294   20.0127 H   0  0  0  0  0  0
  -29.6892  -11.3528   17.6684 H   0  0  0  0  0  0
  -29.7170  -13.0571   17.5425 H   0  0  0  0  0  0
  -27.7632  -11.2412   18.9046 H   0  0  0  0  0  0
  -27.3864  -12.5113   17.7819 H   0  0  0  0  0  0
  -27.6433  -14.2188   19.4588 H   0  0  0  0  0  0
  -28.6906  -12.1571   21.4515 H   0  0  0  0  0  0
  -28.4979  -13.8751   21.7284 H   0  0  0  0  0  0
  -25.2730   -9.5702   22.4786 H   0  0  0  0  0  0
  -23.9986   -7.4635   22.7513 H   0  0  0  0  0  0
  -21.0834   -8.8752   19.8995 H   0  0  0  0  0  0
  -22.3663  -10.9670   19.6218 H   0  0  0  0  0  0
  -21.1973   -7.6143   23.9670 H   0  0  0  0  0  0
  -21.1526   -6.0568   25.9062 H   0  0  0  0  0  0
  -22.0589   -2.7612   23.2868 H   0  0  0  0  0  0
  -22.4094  -11.9906   22.4753 H   0  0  0  0  0  0
  -21.1115  -13.1299   22.2572 H   0  0  0  0  0  0
  -24.6920  -15.8554   20.5541 H   0  0  0  0  0  0
  -26.3114  -15.6195   20.1371 H   0  0  0  0  0  0
  -26.7112  -32.5561   23.1186 H   0  0  0  0  0  0
  -25.0041  -33.9774   25.0472 H   0  0  0  0  0  0
  -22.6893  -31.3052   21.4070 H   0  0  0  0  0  0
  -23.3741  -35.9668   23.3335 H   0  0  0  0  0  0
  -24.3571  -36.8901   22.2051 H   0  0  0  0  0  0
  -23.7243  -37.6545   23.6622 H   0  0  0  0  0  0
  -26.0355  -31.6015   20.5893 H   0  0  0  0  0  0
  -26.8144  -30.8966   21.9778 H   0  0  0  0  0  0
  -28.0989  -29.1212   21.1838 H   0  0  0  0  0  0
  -26.1027  -25.9695   19.0288 H   0  0  0  0  0  0
  -23.9975  -27.2786   19.0340 H   0  0  0  0  0  0
  -23.7111  -30.5860   19.4004 H   0  0  0  0  0  0
  -22.7348  -29.2282   19.8759 H   0  0  0  0  0  0
  -25.1284  -36.2009   25.0833 H   0  0  0  0  0  0
  -20.9948  -28.3219   24.1455 H   0  0  0  0  0  0
  -20.5675  -26.2261   23.3612 H   0  0  0  0  0  0
  -21.6633  -26.7442   22.1217 H   0  0  0  0  0  0
  -19.6897  -25.6301   21.1231 H   0  0  0  0  0  0
  -19.6668  -27.3219   20.6782 H   0  0  0  0  0  0
  -17.4191  -26.6677   21.4041 H   0  0  0  0  0  0
  -18.0310  -26.0051   22.9029 H   0  0  0  0  0  0
  -19.7929  -30.7264   24.2265 H   0  0  0  0  0  0
  -17.5003  -31.6255   24.5181 H   0  0  0  0  0  0
  -15.5340  -30.2976   23.7637 H   0  0  0  0  0  0
  -15.8671  -28.0820   22.7021 H   0  0  0  0  0  0
  -24.5926  -30.7012   25.7822 H   0  0  0  0  0  0
  -24.8939  -32.2808   26.4960 H   0  0  0  0  0  0
  -25.8128  -30.8826   27.0202 H   0  0  0  0  0  0
  -26.2809  -29.6791   24.1143 H   0  0  0  0  0  0
  -27.4090  -29.7259   25.4509 H   0  0  0  0  0  0
  -27.8636  -30.4351   23.9182 H   0  0  0  0  0  0
  -27.2683  -33.3573   26.2089 H   0  0  0  0  0  0
  -28.3837  -32.6865   25.0272 H   0  0  0  0  0  0
  -28.0747  -31.8379   26.5341 H   0  0  0  0  0  0
  -28.2637  -38.0087   24.7494 H   0  0  0  0  0  0
  -28.1042  -36.2622   24.6331 H   0  0  0  0  0  0
  -27.2294  -37.1519   25.8877 H   0  0  0  0  0  0
  -20.9295  -29.8761   21.6980 H   0  0  0  0  0  0
  -26.0208  -38.2892   24.1378 H   0  0  0  0  0  0
  -30.0035  -16.0535   22.4253 H   0  0  0  0  0  0
  -29.8088  -18.1623   23.6143 H   0  0  0  0  0  0
  -29.3606  -20.2341   19.8815 H   0  0  0  0  0  0
  -29.9518  -19.3147   16.4819 H   0  0  0  0  0  0
  -31.0558  -19.6439   17.9318 H   0  0  0  0  0  0
  -29.9353  -15.0252   15.5672 H   0  0  0  0  0  0
  -28.0957  -15.2233   15.5683 H   0  0  0  0  0  0
  -28.5163  -17.9410   17.8415 H   0  0  0  0  0  0
  -28.1218  -15.7495   17.9242 H   0  0  0  0  0  0
  -30.9542  -14.7653   17.9368 H   0  0  0  0  0  0
  -30.9402  -16.4428   17.9999 H   0  0  0  0  0  0
  -30.2806  -24.6852   23.0634 H   0  0  0  0  0  0
  -30.9530  -23.4420   22.0464 H   0  0  0  0  0  0
  -28.5865  -26.3382   22.1430 H   0  0  0  0  0  0
  -27.5094  -25.2391   21.2830 H   0  0  0  0  0  0
  -27.9967  -23.4613   22.8236 H   0  0  0  0  0  0
  -29.1828  -22.7059   23.8341 H   0  0  0  0  0  0
  -29.2282  -21.9226   20.9631 H   0  0  0  0  0  0
  -27.7886  -21.4322   21.8343 H   0  0  0  0  0  0
  1 25  1  0  0  0
  1 30  2  0  0  0
  1 87  1  0  0  0
  2  3  1  0  0  0
  2 25  1  0  0  0
  2 90  1  0  0  0
  2 91  1  0  0  0
  3  4  1  0  0  0
  3 92  1  0  0  0
  3 93  1  0  0  0
  4  5  1  0  0  0
  4 94  1  0  0  0
  4 95  1  0  0  0
  5  6  1  0  0  0
  5 26  1  0  0  0
  5 96  1  0  0  0
  6 25  1  0  0  0
  6 97  1  0  0  0
  6 98  1  0  0  0
  7  8  2  0  0  0
  7 26  1  0  0  0
  7 29  1  0  0  0
  8  9  1  0  0  0
  8 22  1  0  0  0
  9 10  1  0  0  0
  9 27  2  0  0  0
 10 11  2  0  0  0
 10 15  1  0  0  0
 11 12  1  0  0  0
 11 99  1  0  0  0
 12 13  2  0  0  0
 12100  1  0  0  0
 13 14  1  0  0  0
 13 31  1  0  0  0
 14 15  2  0  0  0
 14101  1  0  0  0
 15102  1  0  0  0
 16 17  2  0  0  0
 16 21  1  0  0  0
 16 31  1  0  0  0
 17 18  1  0  0  0
 17103  1  0  0  0
 18 19  2  0  0  0
 18104  1  0  0  0
 19 20  1  0  0  0
 19 24  1  0  0  0
 20 21  2  0  0  0
 20105  1  0  0  0
 21 23  1  0  0  0
 22 28  1  0  0  0
 22 32  2  0  0  0
 26 27  1  0  0  0
 28106  1  0  0  0
 28107  1  0  0  0
 29108  1  0  0  0
 29109  1  0  0  0
 33 34  1  0  0  0
 33 66  1  0  0  0
 33 70  2  0  0  0
 34 36  1  0  0  0
 34 59  1  0  0  0
 34110  1  0  0  0
 35 44  2  0  0  0
 35 45  1  0  0  0
 35 68  1  0  0  0
 36 56  1  0  0  0
 36111  1  0  0  0
 37 39  1  0  0  0
 37 47  1  0  0  0
 37 66  1  0  0  0
 37112  1  0  0  0
 38 43  2  0  0  0
 38 46  1  0  0  0
 38 47  1  0  0  0
 39 64  1  0  0  0
 39 67  2  0  0  0
 40 52  1  0  0  0
 40 53  2  0  0  0
 40 58  1  0  0  0
 41113  1  0  0  0
 41114  1  0  0  0
 41115  1  0  0  0
 41 48  1  0  0  0
 42 43  1  0  0  0
 42 66  1  0  0  0
 42116  1  0  0  0
 42117  1  0  0  0
 43 44  1  0  0  0
 44118  1  0  0  0
 45 46  2  0  0  0
 45119  1  0  0  0
 46120  1  0  0  0
 47121  1  0  0  0
 47122  1  0  0  0
 48 56  1  0  0  0
 48 65  1  0  0  0
 48123  1  0  0  0
 49 50  1  0  0  0
 49 53  1  0  0  0
 49 64  1  0  0  0
 49124  1  0  0  0
 50 51  1  0  0  0
 50125  1  0  0  0
 50126  1  0  0  0
 51 52  1  0  0  0
 51127  1  0  0  0
 51128  1  0  0  0
 52129  1  0  0  0
 52130  1  0  0  0
 53 54  1  0  0  0
 54 55  2  0  0  0
 54131  1  0  0  0
 55 57  1  0  0  0
 55132  1  0  0  0
 56 69  2  0  0  0
 57 58  2  0  0  0
 57133  1  0  0  0
 58134  1  0  0  0
 59 60  1  0  0  0
 59 61  1  0  0  0
 59 62  1  0  0  0
 60135  1  0  0  0
 60136  1  0  0  0
 60137  1  0  0  0
 61138  1  0  0  0
 61139  1  0  0  0
 61140  1  0  0  0
 62141  1  0  0  0
 62142  1  0  0  0
 62143  1  0  0  0
 63 65  1  0  0  0
 63144  1  0  0  0
 63145  1  0  0  0
 63146  1  0  0  0
 64147  1  0  0  0
 65148  1  0  0  0
 68 84  1  0  0  0
 71 72  2  0  0  0
 71 75  1  0  0  0
 71149  1  0  0  0
 72 76  1  0  0  0
 72150  1  0  0  0
 73 74  1  0  0  0
 73 76  2  0  0  0
 73151  1  0  0  0
 74 75  2  0  0  0
 74 79  1  0  0  0
 75 87  1  0  0  0
 76 89  1  0  0  0
 77 79  2  0  0  0
 77152  1  0  0  0
 77153  1  0  0  0
 78 80  2  0  0  0
 78154  1  0  0  0
 78155  1  0  0  0
 79156  1  0  0  0
 80 82  1  0  0  0
 80157  1  0  0  0
 81 83  1  0  0  0
 81 84  1  0  0  0
 81 88  2  0  0  0
 82 87  1  0  0  0
 82158  1  0  0  0
 82159  1  0  0  0
 83 85  1  0  0  0
 83160  1  0  0  0
 83161  1  0  0  0
 84162  1  0  0  0
 84163  1  0  0  0
 85 86  1  0  0  0
 85164  1  0  0  0
 85165  1  0  0  0
 86 89  1  0  0  0
 86166  1  0  0  0
 86167  1  0  0  0
M  ISO  4   1 100  68 101  84 101  87 100
M  END
> <chiral flag>
0

> <version>
0

> <s_m_source_file>
/data/baiqing/PycharmProjects/Reinvent-master-3.2/result/LINK_invent/BTK/process_docking_weight1_custom_product_contain_oxygen_bond_distance_aromatic_linkinvent_7_9_3/rearranged_h_0120.sdf

> <i_m_source_file_index>
74

> <r_mmod_Potential_Energy-OPLS-2005>
291.363067626953

> <r_mmod_Stretch_Energy-OPLS-2005>
49.7620048522949

> <r_mmod_Bend_Energy-OPLS-2005>
126.173782348633

> <r_mmod_Torsional_Energy-OPLS-2005>
368.657318115234

> <r_mmod_Improper_Torsional_Energy-OPLS-2005>
25.2703685760498

> <r_mmod_Van_der_Waal_Energy-OPLS-2005>
179.297744750977

> <r_mmod_Electrostatic_Energy-OPLS-2005>
-293.758117675781

> <r_mmod_Solvation_Energy-OPLS-2005>
-213.186965942383

> <b_mmod_Minimization_Converged-OPLS-2005>
0

> <r_mmod_RMS_Derivative-OPLS-2005>
3.11030101776123

$$$$
74
                    3D
 Structure written by MMmdl.
151159  0  0  1  0            999 V2000
  -30.6320  -14.7487   20.4743 C   0  0  0  0  0  0
  -30.4302  -12.4664   19.4646 C   0  0  0  0  0  0
  -29.5053  -12.5057   18.2294 C   0  0  0  0  0  0
  -28.0335  -12.3273   18.6490 C   0  0  0  0  0  0
  -27.6386  -13.2340   19.8454 C   0  0  2  0  0  0
  -28.6865  -13.1824   20.9775 C   0  0  0  0  0  0
  -25.2501  -13.8204   20.5701 C   0  0  0  0  0  0
  -24.1798  -13.0443   20.9215 C   0  0  0  0  0  0
  -24.6393  -11.6922   20.8753 C   0  0  0  0  0  0
  -23.9073  -10.4294   21.0410 C   0  0  0  0  0  0
  -24.3623   -9.4208   21.9186 C   0  0  0  0  0  0
  -23.6296   -8.2244   22.0754 C   0  0  0  0  0  0
  -22.4279   -8.0282   21.3544 C   0  0  0  0  0  0
  -21.9917   -9.0257   20.4646 C   0  0  0  0  0  0
  -22.7248  -10.2135   20.3057 C   0  0  0  0  0  0
  -21.6854   -6.0735   22.5279 C   0  0  0  0  0  0
  -21.4014   -6.5640   23.8212 C   0  0  0  0  0  0
  -21.3660   -5.6793   24.9175 C   0  0  0  0  0  0
  -21.6045   -4.3056   24.7226 C   0  0  0  0  0  0
  -21.8819   -3.8146   23.4347 C   0  0  0  0  0  0
  -21.9193   -4.6963   22.3403 C   0  0  0  0  0  0
  -22.7819  -13.5219   21.1873 C   0  0  0  0  0  0
  -22.1661   -4.2148   21.0980 F   0  0  0  0  0  0
  -21.5630   -3.4539   25.7738 F   0  0  0  0  0  0
  -29.9818  -13.5371   20.3848 N   0  0  0  0  0  0
  -26.2925  -12.9414   20.3275 N   0  0  0  0  0  0
  -25.9323  -11.6554   20.5756 N   0  0  0  0  0  0
  -22.0468  -12.8204   22.0426 N   0  0  0  0  0  0
  -25.4184  -15.1930   20.4111 N   0  0  0  0  0  0
  -31.8300  -14.8154   20.1886 O   0  0  0  0  0  0
  -21.6642   -6.8879   21.4241 O   0  0  0  0  0  0
  -22.3501  -14.5524   20.6722 O   0  0  0  0  0  0
  -24.6350  -31.8548   23.1995 C   0  0  0  0  0  0
  -25.9167  -32.4751   23.8338 C   0  0  1  0  0  0
  -27.2099  -27.2380   20.1205 C   0  0  0  0  0  0
  -25.5959  -33.8554   24.2256 N   0  0  0  0  0  0
  -23.4316  -30.4816   21.5446 C   0  0  2  0  0  0
  -24.8762  -28.9345   20.1099 C   0  0  0  0  0  0
  -22.7521  -29.4608   22.4906 C   0  0  0  0  0  0
  -18.0300  -28.1389   22.8486 C   0  0  0  0  0  0
  -24.1492  -36.7277   23.2637 C   0  0  0  0  0  0
  -25.9829  -30.7608   21.3845 C   0  0  0  0  0  0
  -26.0536  -29.3840   20.7213 C   0  0  0  0  0  0
  -27.2240  -28.5503   20.7152 C   0  0  0  0  0  0
  -26.0025  -26.8754   19.4741 C   0  0  0  0  0  0
  -24.8578  -27.6887   19.4749 C   0  0  0  0  0  0
  -23.6500  -29.8243   20.1591 C   0  0  0  0  0  0
  -25.4120  -36.3065   24.0323 C   0  0  1  0  0  0
  -20.5907  -28.3705   23.1259 C   0  0  2  0  0  0
  -20.6788  -26.9421   22.5402 C   0  0  0  0  0  0
  -19.5758  -26.6385   21.5212 C   0  0  0  0  0  0
  -18.1940  -26.7931   22.1627 C   0  0  0  0  0  0
  -19.1554  -28.8866   23.2866 C   0  0  0  0  0  0
  -18.9471  -30.1465   23.8882 C   0  0  0  0  0  0
  -17.6468  -30.6587   24.0566 C   0  0  0  0  0  0
  -25.9065  -34.9437   23.5087 C   0  0  0  0  0  0
  -16.5358  -29.9084   23.6335 C   0  0  0  0  0  0
  -16.7285  -28.6504   23.0353 C   0  0  0  0  0  0
  -26.4517  -31.6581   25.0736 C   0  0  0  0  0  0
  -25.3725  -31.3747   26.1447 C   0  0  0  0  0  0
  -27.0365  -30.2988   24.6248 C   0  0  0  0  0  0
  -27.6065  -32.4324   25.7515 C   0  0  0  0  0  0
  -27.5578  -37.1799   24.8466 C   0  0  0  0  0  0
  -21.4226  -29.3052   22.3647 N   0  0  0  0  0  0
  -26.4290  -37.3767   23.9408 N   0  0  0  0  0  0
  -24.7027  -31.0500   22.0985 N   0  0  0  0  0  0
  -23.4214  -28.8135   23.3001 O   0  0  0  0  0  0
  -28.2769  -26.2947   20.1813 O   0  0  0  0  0  0
  -26.5629  -34.8913   22.4651 O   0  0  0  0  0  0
  -23.5493  -32.1379   23.7275 O   0  0  0  0  0  0
  -30.5504  -20.7099   19.7598 C   0  0  0  0  0  0
  -29.3330  -20.9378   20.3363 C   0  0  0  0  0  0
  -28.9564  -19.6310   20.8853 C   0  0  0  0  0  0
  -29.9769  -18.7046   20.6194 C   0  0  0  0  0  0
  -28.5675  -22.2865   20.3732 C   0  0  0  0  0  0
  -28.9189  -23.6055   20.0967 C   0  0  0  0  0  0
  -27.7050  -19.3476   21.6736 C   0  0  0  0  0  0
  -30.4528  -17.2739   21.1241 C   0  0  0  0  0  0
  -27.9119  -24.8379   19.9892 C   0  0  0  0  0  0
  -29.9041  -15.9079   20.7121 N   0  0  0  0  0  0
  -30.9331  -19.3936   19.9115 O   0  0  0  0  0  0
  -31.4696  -12.5920   19.1564 H   0  0  0  0  0  0
  -30.3799  -11.4939   19.9570 H   0  0  0  0  0  0
  -29.7889  -11.7278   17.5191 H   0  0  0  0  0  0
  -29.6265  -13.4567   17.7080 H   0  0  0  0  0  0
  -27.8954  -11.2798   18.9195 H   0  0  0  0  0  0
  -27.3728  -12.5105   17.8008 H   0  0  0  0  0  0
  -27.6284  -14.2530   19.4575 H   0  0  0  0  0  0
  -28.7287  -12.1886   21.4258 H   0  0  0  0  0  0
  -28.4215  -13.8711   21.7815 H   0  0  0  0  0  0
  -25.2767   -9.5683   22.4762 H   0  0  0  0  0  0
  -24.0005   -7.4633   22.7471 H   0  0  0  0  0  0
  -21.0850   -8.8775   19.8950 H   0  0  0  0  0  0
  -22.3707  -10.9673   19.6166 H   0  0  0  0  0  0
  -21.2005   -7.6149   23.9714 H   0  0  0  0  0  0
  -21.1484   -6.0524   25.9077 H   0  0  0  0  0  0
  -22.0598   -2.7608   23.2848 H   0  0  0  0  0  0
  -22.4091  -11.9864   22.4806 H   0  0  0  0  0  0
  -21.1083  -13.1216   22.2634 H   0  0  0  0  0  0
  -24.6478  -15.8437   20.5177 H   0  0  0  0  0  0
  -26.2594  -15.6324   20.0602 H   0  0  0  0  0  0
  -26.7234  -32.5392   23.1076 H   0  0  0  0  0  0
  -25.0129  -33.9692   25.0417 H   0  0  0  0  0  0
  -22.7291  -31.3053   21.4016 H   0  0  0  0  0  0
  -23.3753  -35.9611   23.3309 H   0  0  0  0  0  0
  -24.3583  -36.8889   22.2050 H   0  0  0  0  0  0
  -23.7243  -37.6480   23.6657 H   0  0  0  0  0  0
  -26.1286  -31.5229   20.6177 H   0  0  0  0  0  0
  -26.8578  -30.8046   22.0215 H   0  0  0  0  0  0
  -28.1216  -28.8893   21.2133 H   0  0  0  0  0  0
  -25.8834  -25.9325   18.9662 H   0  0  0  0  0  0
  -23.9587  -27.3392   18.9862 H   0  0  0  0  0  0
  -23.7791  -30.6045   19.4082 H   0  0  0  0  0  0
  -22.7666  -29.2634   19.8487 H   0  0  0  0  0  0
  -25.1299  -36.1911   25.0814 H   0  0  0  0  0  0
  -21.0000  -28.3282   24.1378 H   0  0  0  0  0  0
  -20.5693  -26.2315   23.3608 H   0  0  0  0  0  0
  -21.6654  -26.7445   22.1188 H   0  0  0  0  0  0
  -19.6923  -25.6295   21.1243 H   0  0  0  0  0  0
  -19.6692  -27.3195   20.6740 H   0  0  0  0  0  0
  -17.4209  -26.6678   21.4031 H   0  0  0  0  0  0
  -18.0343  -26.0071   22.9022 H   0  0  0  0  0  0
  -19.7946  -30.7292   24.2237 H   0  0  0  0  0  0
  -17.5021  -31.6264   24.5173 H   0  0  0  0  0  0
  -15.5359  -30.2980   23.7667 H   0  0  0  0  0  0
  -15.8687  -28.0819   22.7070 H   0  0  0  0  0  0
  -24.5914  -30.7079   25.7778 H   0  0  0  0  0  0
  -24.8904  -32.2922   26.4830 H   0  0  0  0  0  0
  -25.8029  -30.8958   27.0250 H   0  0  0  0  0  0
  -26.2962  -29.6736   24.1245 H   0  0  0  0  0  0
  -27.4000  -29.7256   25.4785 H   0  0  0  0  0  0
  -27.8863  -30.4247   23.9534 H   0  0  0  0  0  0
  -27.2672  -33.3641   26.2053 H   0  0  0  0  0  0
  -28.3899  -32.6850   25.0358 H   0  0  0  0  0  0
  -28.0703  -31.8470   26.5462 H   0  0  0  0  0  0
  -28.2592  -38.0099   24.7510 H   0  0  0  0  0  0
  -28.1073  -36.2627   24.6293 H   0  0  0  0  0  0
  -27.2298  -37.1446   25.8869 H   0  0  0  0  0  0
  -20.9414  -29.8788   21.6862 H   0  0  0  0  0  0
  -26.0165  -38.2839   24.1409 H   0  0  0  0  0  0
  -31.2492  -21.3350   19.2202 H   0  0  0  0  0  0
  -27.5221  -22.1492   20.6128 H   0  0  0  0  0  0
  -29.9480  -23.8293   19.8555 H   0  0  0  0  0  0
  -26.8212  -19.6132   21.0931 H   0  0  0  0  0  0
  -27.6971  -19.9290   22.5957 H   0  0  0  0  0  0
  -27.6368  -18.2909   21.9334 H   0  0  0  0  0  0
  -30.3507  -17.2860   22.2096 H   0  0  0  0  0  0
  -31.5329  -17.2363   20.9758 H   0  0  0  0  0  0
  -27.0519  -24.6039   20.6190 H   0  0  0  0  0  0
  -27.5795  -24.7458   18.9557 H   0  0  0  0  0  0
  -28.9094  -15.7862   20.8210 H   0  0  0  0  0  0
  1 25  1  0  0  0
  1 30  2  0  0  0
  1 80  1  0  0  0
  2  3  1  0  0  0
  2 25  1  0  0  0
  2 82  1  0  0  0
  2 83  1  0  0  0
  3  4  1  0  0  0
  3 84  1  0  0  0
  3 85  1  0  0  0
  4  5  1  0  0  0
  4 86  1  0  0  0
  4 87  1  0  0  0
  5  6  1  0  0  0
  5 26  1  0  0  0
  5 88  1  0  0  0
  6 25  1  0  0  0
  6 89  1  0  0  0
  6 90  1  0  0  0
  7  8  2  0  0  0
  7 26  1  0  0  0
  7 29  1  0  0  0
  8  9  1  0  0  0
  8 22  1  0  0  0
  9 10  1  0  0  0
  9 27  2  0  0  0
 10 11  2  0  0  0
 10 15  1  0  0  0
 11 12  1  0  0  0
 11 91  1  0  0  0
 12 13  2  0  0  0
 12 92  1  0  0  0
 13 14  1  0  0  0
 13 31  1  0  0  0
 14 15  2  0  0  0
 14 93  1  0  0  0
 15 94  1  0  0  0
 16 17  2  0  0  0
 16 21  1  0  0  0
 16 31  1  0  0  0
 17 18  1  0  0  0
 17 95  1  0  0  0
 18 19  2  0  0  0
 18 96  1  0  0  0
 19 20  1  0  0  0
 19 24  1  0  0  0
 20 21  2  0  0  0
 20 97  1  0  0  0
 21 23  1  0  0  0
 22 28  1  0  0  0
 22 32  2  0  0  0
 26 27  1  0  0  0
 28 98  1  0  0  0
 28 99  1  0  0  0
 29100  1  0  0  0
 29101  1  0  0  0
 33 34  1  0  0  0
 33 66  1  0  0  0
 33 70  2  0  0  0
 34 36  1  0  0  0
 34 59  1  0  0  0
 34102  1  0  0  0
 35 44  2  0  0  0
 35 45  1  0  0  0
 35 68  1  0  0  0
 36 56  1  0  0  0
 36103  1  0  0  0
 37 39  1  0  0  0
 37 47  1  0  0  0
 37 66  1  0  0  0
 37104  1  0  0  0
 38 43  2  0  0  0
 38 46  1  0  0  0
 38 47  1  0  0  0
 39 64  1  0  0  0
 39 67  2  0  0  0
 40 52  1  0  0  0
 40 53  2  0  0  0
 40 58  1  0  0  0
 41105  1  0  0  0
 41106  1  0  0  0
 41107  1  0  0  0
 41 48  1  0  0  0
 42 43  1  0  0  0
 42 66  1  0  0  0
 42108  1  0  0  0
 42109  1  0  0  0
 43 44  1  0  0  0
 44110  1  0  0  0
 45 46  2  0  0  0
 45111  1  0  0  0
 46112  1  0  0  0
 47113  1  0  0  0
 47114  1  0  0  0
 48 56  1  0  0  0
 48 65  1  0  0  0
 48115  1  0  0  0
 49 50  1  0  0  0
 49 53  1  0  0  0
 49 64  1  0  0  0
 49116  1  0  0  0
 50 51  1  0  0  0
 50117  1  0  0  0
 50118  1  0  0  0
 51 52  1  0  0  0
 51119  1  0  0  0
 51120  1  0  0  0
 52121  1  0  0  0
 52122  1  0  0  0
 53 54  1  0  0  0
 54 55  2  0  0  0
 54123  1  0  0  0
 55 57  1  0  0  0
 55124  1  0  0  0
 56 69  2  0  0  0
 57 58  2  0  0  0
 57125  1  0  0  0
 58126  1  0  0  0
 59 60  1  0  0  0
 59 61  1  0  0  0
 59 62  1  0  0  0
 60127  1  0  0  0
 60128  1  0  0  0
 60129  1  0  0  0
 61130  1  0  0  0
 61131  1  0  0  0
 61132  1  0  0  0
 62133  1  0  0  0
 62134  1  0  0  0
 62135  1  0  0  0
 63 65  1  0  0  0
 63136  1  0  0  0
 63137  1  0  0  0
 63138  1  0  0  0
 64139  1  0  0  0
 65140  1  0  0  0
 68 79  1  0  0  0
 71 72  2  0  0  0
 71 81  1  0  0  0
 71141  1  0  0  0
 72 73  1  0  0  0
 72 75  1  0  0  0
 73 74  2  0  0  0
 73 77  1  0  0  0
 74 78  1  0  0  0
 74 81  1  0  0  0
 75 76  2  0  0  0
 75142  1  0  0  0
 76 79  1  0  0  0
 76143  1  0  0  0
 77144  1  0  0  0
 77145  1  0  0  0
 77146  1  0  0  0
 78 80  1  0  0  0
 78147  1  0  0  0
 78148  1  0  0  0
 79149  1  0  0  0
 79150  1  0  0  0
 80151  1  0  0  0
M  ISO  4   1 100  68 101  79 101  80 100
M  END
> <chiral flag>
0

> <version>
0

> <s_m_source_file>
/data/baiqing/PycharmProjects/Reinvent-master-3.2/result/LINK_invent/BTK/process_docking_weight1_custom_product_contain_oxygen_bond_distance_aromatic_linkinvent_7_9_3/rearranged_h_0120.sdf

> <i_m_source_file_index>
75

> <r_mmod_Potential_Energy-OPLS-2005>
126.711441040039

> <r_mmod_Stretch_Energy-OPLS-2005>
123.285797119141

> <r_mmod_Bend_Energy-OPLS-2005>
187.591400146484

> <r_mmod_Torsional_Energy-OPLS-2005>
215.539749145508

> <r_mmod_Improper_Torsional_Energy-OPLS-2005>
6.6666145324707

> <r_mmod_Van_der_Waal_Energy-OPLS-2005>
123.600982666016

> <r_mmod_Electrostatic_Energy-OPLS-2005>
-411.337768554688

> <r_mmod_Solvation_Energy-OPLS-2005>
-216.04377746582

> <b_mmod_Minimization_Converged-OPLS-2005>
0

> <r_mmod_RMS_Derivative-OPLS-2005>
0.42687115073204

$$$$
75
                    3D
 Structure written by MMmdl.
157165  0  0  1  0            999 V2000
  -30.6783  -14.5761   20.5095 C   0  0  0  0  0  0
  -30.4317  -12.3544   19.4456 C   0  0  0  0  0  0
  -29.5011  -12.5105   18.2225 C   0  0  0  0  0  0
  -28.0234  -12.3498   18.6323 C   0  0  0  0  0  0
  -27.6609  -13.2004   19.8792 C   0  0  2  0  0  0
  -28.7086  -12.9762   20.9928 C   0  0  0  0  0  0
  -25.2613  -13.8164   20.5711 C   0  0  0  0  0  0
  -24.1824  -13.0455   20.9144 C   0  0  0  0  0  0
  -24.6355  -11.6911   20.8693 C   0  0  0  0  0  0
  -23.9016  -10.4308   21.0366 C   0  0  0  0  0  0
  -24.3593   -9.4248   21.9149 C   0  0  0  0  0  0
  -23.6286   -8.2271   22.0730 C   0  0  0  0  0  0
  -22.4266   -8.0281   21.3527 C   0  0  0  0  0  0
  -21.9889   -9.0234   20.4624 C   0  0  0  0  0  0
  -22.7187  -10.2129   20.3026 C   0  0  0  0  0  0
  -21.6877   -6.0729   22.5274 C   0  0  0  0  0  0
  -21.4016   -6.5634   23.8203 C   0  0  0  0  0  0
  -21.3662   -5.6787   24.9171 C   0  0  0  0  0  0
  -21.6053   -4.3048   24.7226 C   0  0  0  0  0  0
  -21.8831   -3.8136   23.4349 C   0  0  0  0  0  0
  -21.9204   -4.6955   22.3403 C   0  0  0  0  0  0
  -22.7869  -13.5268   21.1839 C   0  0  0  0  0  0
  -22.1672   -4.2143   21.0979 F   0  0  0  0  0  0
  -21.5634   -3.4530   25.7738 F   0  0  0  0  0  0
  -30.0228  -13.3635   20.4481 N   0  0  0  0  0  0
  -26.3018  -12.9286   20.3403 N   0  0  0  0  0  0
  -25.9282  -11.6453   20.5754 N   0  0  0  0  0  0
  -22.0526  -12.8216   22.0391 N   0  0  0  0  0  0
  -25.4450  -15.1864   20.4171 N   0  0  0  0  0  0
  -31.8142  -14.6823   20.0357 O   0  0  0  0  0  0
  -21.6656   -6.8856   21.4223 O   0  0  0  0  0  0
  -22.3551  -14.5592   20.6758 O   0  0  0  0  0  0
  -24.6211  -31.8628   23.2018 C   0  0  0  0  0  0
  -25.9072  -32.4804   23.8342 C   0  0  1  0  0  0
  -27.2437  -27.3746   20.0820 C   0  0  0  0  0  0
  -25.5883  -33.8606   24.2257 N   0  0  0  0  0  0
  -23.4138  -30.4836   21.5438 C   0  0  2  0  0  0
  -24.8650  -28.9458   20.1058 C   0  0  0  0  0  0
  -22.7459  -29.4626   22.4944 C   0  0  0  0  0  0
  -18.0292  -28.1380   22.8483 C   0  0  0  0  0  0
  -24.1477  -36.7302   23.2638 C   0  0  0  0  0  0
  -25.9525  -30.8031   21.3703 C   0  0  0  0  0  0
  -26.0288  -29.4371   20.7092 C   0  0  0  0  0  0
  -27.2197  -28.6580   20.6965 C   0  0  0  0  0  0
  -26.0504  -26.9135   19.4799 C   0  0  0  0  0  0
  -24.8742  -27.6858   19.4863 C   0  0  0  0  0  0
  -23.6273  -29.8151   20.1606 C   0  0  0  0  0  0
  -25.4113  -36.3096   24.0317 C   0  0  1  0  0  0
  -20.5885  -28.3676   23.1311 C   0  0  2  0  0  0
  -20.6769  -26.9406   22.5425 C   0  0  0  0  0  0
  -19.5752  -26.6375   21.5217 C   0  0  0  0  0  0
  -18.1930  -26.7923   22.1616 C   0  0  0  0  0  0
  -19.1543  -28.8848   23.2885 C   0  0  0  0  0  0
  -18.9462  -30.1450   23.8891 C   0  0  0  0  0  0
  -17.6464  -30.6571   24.0575 C   0  0  0  0  0  0
  -25.9049  -34.9471   23.5087 C   0  0  0  0  0  0
  -16.5354  -29.9070   23.6350 C   0  0  0  0  0  0
  -16.7277  -28.6504   23.0338 C   0  0  0  0  0  0
  -26.4457  -31.6628   25.0719 C   0  0  0  0  0  0
  -25.3702  -31.3801   26.1470 C   0  0  0  0  0  0
  -27.0294  -30.3044   24.6182 C   0  0  0  0  0  0
  -27.5994  -32.4393   25.7495 C   0  0  0  0  0  0
  -27.5576  -37.1807   24.8465 C   0  0  0  0  0  0
  -21.4174  -29.3034   22.3713 N   0  0  0  0  0  0
  -26.4288  -37.3800   23.9405 N   0  0  0  0  0  0
  -24.6803  -31.0655   22.0955 N   0  0  0  0  0  0
  -23.4209  -28.8173   23.3016 O   0  0  0  0  0  0
  -28.3688  -26.5491   20.1229 O   0  0  0  0  0  0
  -26.5645  -34.8943   22.4672 O   0  0  0  0  0  0
  -23.5371  -32.1415   23.7349 O   0  0  0  0  0  0
  -31.9146  -17.4487   20.9681 C   0  0  0  0  0  0
  -31.7803  -19.8144   20.4192 C   0  0  0  0  0  0
  -30.5355  -17.2559   20.7219 C   0  0  0  0  0  0
  -29.7671  -18.4178   20.3026 C   0  0  0  0  0  0
  -30.3838  -19.7239   20.2122 C   0  0  0  0  0  0
  -32.5340  -18.6913   20.7915 C   0  0  0  0  0  0
  -27.3261  -19.1550   19.9575 C   0  0  0  0  0  0
  -28.3196  -18.2458   19.9807 C   0  0  0  0  0  0
  -28.9007  -24.3358   19.0969 C   0  0  0  0  0  0
  -28.5931  -25.6686   19.0729 C   0  0  0  0  0  0
  -29.9477  -15.8720   21.0455 C   0  0  0  0  0  0
  -29.0904  -23.3313   20.2515 C   0  0  0  0  0  0
  -30.1806  -22.2120   20.0317 C   0  0  0  0  0  0
  -28.8927  -15.8390   21.7466 N   0  0  0  0  0  0
  -29.6319  -20.8688   19.9034 O   0  0  0  0  0  0
  -33.8651  -18.8118   21.0127 F   0  0  0  0  0  0
  -31.4735  -12.4535   19.1341 H   0  0  0  0  0  0
  -30.3556  -11.3473   19.8595 H   0  0  0  0  0  0
  -29.7577  -11.7768   17.4587 H   0  0  0  0  0  0
  -29.6515  -13.4933   17.7739 H   0  0  0  0  0  0
  -27.8540  -11.2929   18.8447 H   0  0  0  0  0  0
  -27.3685  -12.5985   17.7973 H   0  0  0  0  0  0
  -27.7051  -14.2466   19.5761 H   0  0  0  0  0  0
  -28.7242  -11.9225   21.2765 H   0  0  0  0  0  0
  -28.4476  -13.4781   21.9224 H   0  0  0  0  0  0
  -25.2743   -9.5768   22.4704 H   0  0  0  0  0  0
  -24.0037   -7.4682   22.7451 H   0  0  0  0  0  0
  -21.0833   -8.8707   19.8920 H   0  0  0  0  0  0
  -22.3610  -10.9644   19.6133 H   0  0  0  0  0  0
  -21.1992   -7.6137   23.9709 H   0  0  0  0  0  0
  -21.1479   -6.0509   25.9075 H   0  0  0  0  0  0
  -22.0611   -2.7591   23.2852 H   0  0  0  0  0  0
  -22.4161  -11.9839   22.4687 H   0  0  0  0  0  0
  -21.1142  -13.1195   22.2631 H   0  0  0  0  0  0
  -24.7132  -15.8680   20.5855 H   0  0  0  0  0  0
  -26.3547  -15.6025   20.2590 H   0  0  0  0  0  0
  -26.7140  -32.5470   23.1087 H   0  0  0  0  0  0
  -25.0006  -33.9778   25.0377 H   0  0  0  0  0  0
  -22.7053  -31.3015   21.3984 H   0  0  0  0  0  0
  -23.3743  -35.9632   23.3324 H   0  0  0  0  0  0
  -24.3549  -36.8920   22.2050 H   0  0  0  0  0  0
  -23.7228  -37.6501   23.6667 H   0  0  0  0  0  0
  -26.0854  -31.5701   20.6073 H   0  0  0  0  0  0
  -26.8316  -30.8468   22.0020 H   0  0  0  0  0  0
  -28.1110  -29.0307   21.1807 H   0  0  0  0  0  0
  -26.0126  -25.9386   19.0151 H   0  0  0  0  0  0
  -23.9810  -27.2985   19.0158 H   0  0  0  0  0  0
  -23.7351  -30.5891   19.4007 H   0  0  0  0  0  0
  -22.7508  -29.2379   19.8610 H   0  0  0  0  0  0
  -25.1291  -36.1944   25.0812 H   0  0  0  0  0  0
  -20.9977  -28.3225   24.1430 H   0  0  0  0  0  0
  -20.5671  -26.2273   23.3617 H   0  0  0  0  0  0
  -21.6634  -26.7425   22.1221 H   0  0  0  0  0  0
  -19.6918  -25.6299   21.1225 H   0  0  0  0  0  0
  -19.6685  -27.3205   20.6774 H   0  0  0  0  0  0
  -17.4209  -26.6695   21.4007 H   0  0  0  0  0  0
  -18.0302  -26.0061   22.9010 H   0  0  0  0  0  0
  -19.7935  -30.7276   24.2223 H   0  0  0  0  0  0
  -17.5014  -31.6249   24.5179 H   0  0  0  0  0  0
  -15.5351  -30.2955   23.7674 H   0  0  0  0  0  0
  -15.8681  -28.0825   22.7013 H   0  0  0  0  0  0
  -24.5798  -30.7241   25.7812 H   0  0  0  0  0  0
  -24.8998  -32.3005   26.4948 H   0  0  0  0  0  0
  -25.8018  -30.8916   27.0215 H   0  0  0  0  0  0
  -26.2863  -29.6817   24.1186 H   0  0  0  0  0  0
  -27.3962  -29.7286   25.4693 H   0  0  0  0  0  0
  -27.8743  -30.4326   23.9414 H   0  0  0  0  0  0
  -27.2552  -33.3684   26.2057 H   0  0  0  0  0  0
  -28.3794  -32.6992   25.0332 H   0  0  0  0  0  0
  -28.0674  -31.8559   26.5442 H   0  0  0  0  0  0
  -28.2604  -38.0093   24.7505 H   0  0  0  0  0  0
  -28.1045  -36.2622   24.6275 H   0  0  0  0  0  0
  -27.2298  -37.1465   25.8871 H   0  0  0  0  0  0
  -20.9344  -29.8774   21.6944 H   0  0  0  0  0  0
  -26.0159  -38.2869   24.1411 H   0  0  0  0  0  0
  -32.5308  -16.6329   21.3150 H   0  0  0  0  0  0
  -32.3142  -20.7451   20.3019 H   0  0  0  0  0  0
  -26.3284  -18.8486   19.6751 H   0  0  0  0  0  0
  -27.4497  -20.1973   20.2081 H   0  0  0  0  0  0
  -28.0267  -17.2460   19.6917 H   0  0  0  0  0  0
  -29.0090  -23.8719   18.1257 H   0  0  0  0  0  0
  -28.4882  -26.1812   18.1258 H   0  0  0  0  0  0
  -28.1332  -22.8376   20.4202 H   0  0  0  0  0  0
  -29.3010  -23.8816   21.1688 H   0  0  0  0  0  0
  -30.8551  -22.2559   20.8875 H   0  0  0  0  0  0
  -30.7928  -22.4336   19.1547 H   0  0  0  0  0  0
  -28.5882  -16.7712   21.9956 H   0  0  0  0  0  0
  1 25  1  0  0  0
  1 30  2  0  0  0
  1 81  1  0  0  0
  2  3  1  0  0  0
  2 25  1  0  0  0
  2 87  1  0  0  0
  2 88  1  0  0  0
  3  4  1  0  0  0
  3 89  1  0  0  0
  3 90  1  0  0  0
  4  5  1  0  0  0
  4 91  1  0  0  0
  4 92  1  0  0  0
  5  6  1  0  0  0
  5 26  1  0  0  0
  5 93  1  0  0  0
  6 25  1  0  0  0
  6 94  1  0  0  0
  6 95  1  0  0  0
  7  8  2  0  0  0
  7 26  1  0  0  0
  7 29  1  0  0  0
  8  9  1  0  0  0
  8 22  1  0  0  0
  9 10  1  0  0  0
  9 27  2  0  0  0
 10 11  2  0  0  0
 10 15  1  0  0  0
 11 12  1  0  0  0
 11 96  1  0  0  0
 12 13  2  0  0  0
 12 97  1  0  0  0
 13 14  1  0  0  0
 13 31  1  0  0  0
 14 15  2  0  0  0
 14 98  1  0  0  0
 15 99  1  0  0  0
 16 17  2  0  0  0
 16 21  1  0  0  0
 16 31  1  0  0  0
 17 18  1  0  0  0
 17100  1  0  0  0
 18 19  2  0  0  0
 18101  1  0  0  0
 19 20  1  0  0  0
 19 24  1  0  0  0
 20 21  2  0  0  0
 20102  1  0  0  0
 21 23  1  0  0  0
 22 28  1  0  0  0
 22 32  2  0  0  0
 26 27  1  0  0  0
 28103  1  0  0  0
 28104  1  0  0  0
 29105  1  0  0  0
 29106  1  0  0  0
 33 34  1  0  0  0
 33 66  1  0  0  0
 33 70  2  0  0  0
 34 36  1  0  0  0
 34 59  1  0  0  0
 34107  1  0  0  0
 35 44  2  0  0  0
 35 45  1  0  0  0
 35 68  1  0  0  0
 36 56  1  0  0  0
 36108  1  0  0  0
 37 39  1  0  0  0
 37 47  1  0  0  0
 37 66  1  0  0  0
 37109  1  0  0  0
 38 43  2  0  0  0
 38 46  1  0  0  0
 38 47  1  0  0  0
 39 64  1  0  0  0
 39 67  2  0  0  0
 40 52  1  0  0  0
 40 53  2  0  0  0
 40 58  1  0  0  0
 41110  1  0  0  0
 41111  1  0  0  0
 41112  1  0  0  0
 41 48  1  0  0  0
 42 43  1  0  0  0
 42 66  1  0  0  0
 42113  1  0  0  0
 42114  1  0  0  0
 43 44  1  0  0  0
 44115  1  0  0  0
 45 46  2  0  0  0
 45116  1  0  0  0
 46117  1  0  0  0
 47118  1  0  0  0
 47119  1  0  0  0
 48 56  1  0  0  0
 48 65  1  0  0  0
 48120  1  0  0  0
 49 50  1  0  0  0
 49 53  1  0  0  0
 49 64  1  0  0  0
 49121  1  0  0  0
 50 51  1  0  0  0
 50122  1  0  0  0
 50123  1  0  0  0
 51 52  1  0  0  0
 51124  1  0  0  0
 51125  1  0  0  0
 52126  1  0  0  0
 52127  1  0  0  0
 53 54  1  0  0  0
 54 55  2  0  0  0
 54128  1  0  0  0
 55 57  1  0  0  0
 55129  1  0  0  0
 56 69  2  0  0  0
 57 58  2  0  0  0
 57130  1  0  0  0
 58131  1  0  0  0
 59 60  1  0  0  0
 59 61  1  0  0  0
 59 62  1  0  0  0
 60132  1  0  0  0
 60133  1  0  0  0
 60134  1  0  0  0
 61135  1  0  0  0
 61136  1  0  0  0
 61137  1  0  0  0
 62138  1  0  0  0
 62139  1  0  0  0
 62140  1  0  0  0
 63 65  1  0  0  0
 63141  1  0  0  0
 63142  1  0  0  0
 63143  1  0  0  0
 64144  1  0  0  0
 65145  1  0  0  0
 68 80  1  0  0  0
 71 73  2  0  0  0
 71 76  1  0  0  0
 71146  1  0  0  0
 72 75  1  0  0  0
 72 76  2  0  0  0
 72147  1  0  0  0
 73 74  1  0  0  0
 73 81  1  0  0  0
 74 75  2  0  0  0
 74 78  1  0  0  0
 75 85  1  0  0  0
 76 86  1  0  0  0
 77 78  2  0  0  0
 77148  1  0  0  0
 77149  1  0  0  0
 78150  1  0  0  0
 79 80  2  0  0  0
 79 82  1  0  0  0
 79151  1  0  0  0
 80152  1  0  0  0
 81 84  2  0  0  0
 82 83  1  0  0  0
 82153  1  0  0  0
 82154  1  0  0  0
 83 85  1  0  0  0
 83155  1  0  0  0
 83156  1  0  0  0
 84157  1  0  0  0
M  ISO  4   1 100  68 101  80 101  81 100
M  END
> <chiral flag>
0

> <version>
0

> <s_m_source_file>
/data/baiqing/PycharmProjects/Reinvent-master-3.2/result/LINK_invent/BTK/process_docking_weight1_custom_product_contain_oxygen_bond_distance_aromatic_linkinvent_7_9_3/rearranged_h_0120.sdf

> <i_m_source_file_index>
76

> <r_mmod_Potential_Energy-OPLS-2005>
215.841751098633

> <r_mmod_Stretch_Energy-OPLS-2005>
79.8066101074219

> <r_mmod_Bend_Energy-OPLS-2005>
151.596069335938

> <r_mmod_Torsional_Energy-OPLS-2005>
208.757400512695

> <r_mmod_Improper_Torsional_Energy-OPLS-2005>
3.84774827957153

> <r_mmod_Van_der_Waal_Energy-OPLS-2005>
176.603744506836

> <r_mmod_Electrostatic_Energy-OPLS-2005>
-249.827774047852

> <r_mmod_Solvation_Energy-OPLS-2005>
-183.83349609375

> <b_mmod_Minimization_Converged-OPLS-2005>
0

> <r_mmod_RMS_Derivative-OPLS-2005>
3.28749632835388

$$$$
76
                    3D
 Structure written by MMmdl.
154162  0  0  1  0            999 V2000
  -30.6069  -14.8714   20.4468 C   0  0  0  0  0  0
  -30.4241  -12.5414   19.4946 C   0  0  0  0  0  0
  -29.5091  -12.5202   18.2510 C   0  0  0  0  0  0
  -28.0416  -12.3221   18.6690 C   0  0  0  0  0  0
  -27.6294  -13.2493   19.8437 C   0  0  2  0  0  0
  -28.6729  -13.2674   20.9818 C   0  0  0  0  0  0
  -25.2463  -13.8228   20.5745 C   0  0  0  0  0  0
  -24.1758  -13.0441   20.9195 C   0  0  0  0  0  0
  -24.6371  -11.6930   20.8732 C   0  0  0  0  0  0
  -23.9052  -10.4296   21.0385 C   0  0  0  0  0  0
  -24.3606   -9.4219   21.9161 C   0  0  0  0  0  0
  -23.6282   -8.2249   22.0745 C   0  0  0  0  0  0
  -22.4262   -8.0276   21.3535 C   0  0  0  0  0  0
  -21.9898   -9.0245   20.4631 C   0  0  0  0  0  0
  -22.7224  -10.2126   20.3041 C   0  0  0  0  0  0
  -21.6859   -6.0724   22.5267 C   0  0  0  0  0  0
  -21.4021   -6.5632   23.8200 C   0  0  0  0  0  0
  -21.3671   -5.6786   24.9163 C   0  0  0  0  0  0
  -21.6047   -4.3051   24.7210 C   0  0  0  0  0  0
  -21.8826   -3.8137   23.4336 C   0  0  0  0  0  0
  -21.9196   -4.6949   22.3393 C   0  0  0  0  0  0
  -22.7780  -13.5211   21.1853 C   0  0  0  0  0  0
  -22.1660   -4.2134   21.0968 F   0  0  0  0  0  0
  -21.5629   -3.4547   25.7731 F   0  0  0  0  0  0
  -29.9558  -13.6455   20.3795 N   0  0  0  0  0  0
  -26.2886  -12.9462   20.3287 N   0  0  0  0  0  0
  -25.9312  -11.6584   20.5746 N   0  0  0  0  0  0
  -22.0452  -12.8195   22.0427 N   0  0  0  0  0  0
  -25.4150  -15.1964   20.4258 N   0  0  0  0  0  0
  -31.8057  -14.8901   20.1429 O   0  0  0  0  0  0
  -21.6644   -6.8864   21.4226 O   0  0  0  0  0  0
  -22.3439  -14.5504   20.6707 O   0  0  0  0  0  0
  -24.6414  -31.8449   23.1887 C   0  0  0  0  0  0
  -25.9196  -32.4688   23.8263 C   0  0  1  0  0  0
  -27.2169  -27.1682   20.1463 C   0  0  0  0  0  0
  -25.5955  -33.8492   24.2185 N   0  0  0  0  0  0
  -23.4425  -30.4658   21.5316 C   0  0  2  0  0  0
  -24.8914  -28.8985   20.1038 C   0  0  0  0  0  0
  -22.7561  -29.4541   22.4843 C   0  0  0  0  0  0
  -18.0301  -28.1399   22.8451 C   0  0  0  0  0  0
  -24.1484  -36.7255   23.2649 C   0  0  0  0  0  0
  -25.9962  -30.7304   21.3815 C   0  0  0  0  0  0
  -26.0661  -29.3439   20.7244 C   0  0  0  0  0  0
  -27.2293  -28.4935   20.7302 C   0  0  0  0  0  0
  -26.0187  -26.8160   19.4873 C   0  0  0  0  0  0
  -24.8787  -27.6466   19.4704 C   0  0  0  0  0  0
  -23.6664  -29.7965   20.1491 C   0  0  0  0  0  0
  -25.4111  -36.3024   24.0334 C   0  0  1  0  0  0
  -20.5916  -28.3703   23.1236 C   0  0  2  0  0  0
  -20.6779  -26.9406   22.5411 C   0  0  0  0  0  0
  -19.5764  -26.6381   21.5205 C   0  0  0  0  0  0
  -18.1939  -26.7931   22.1613 C   0  0  0  0  0  0
  -19.1566  -28.8864   23.2825 C   0  0  0  0  0  0
  -18.9495  -30.1460   23.8851 C   0  0  0  0  0  0
  -17.6500  -30.6586   24.0557 C   0  0  0  0  0  0
  -25.9085  -34.9404   23.5072 C   0  0  0  0  0  0
  -16.5381  -29.9093   23.6339 C   0  0  0  0  0  0
  -16.7292  -28.6525   23.0327 C   0  0  0  0  0  0
  -26.4513  -31.6555   25.0703 C   0  0  0  0  0  0
  -25.3705  -31.3765   26.1413 C   0  0  0  0  0  0
  -27.0383  -30.2955   24.6269 C   0  0  0  0  0  0
  -27.6038  -32.4324   25.7488 C   0  0  0  0  0  0
  -27.5558  -37.1773   24.8469 C   0  0  0  0  0  0
  -21.4257  -29.3027   22.3600 N   0  0  0  0  0  0
  -26.4265  -37.3747   23.9428 N   0  0  0  0  0  0
  -24.7128  -31.0343   22.0894 N   0  0  0  0  0  0
  -23.4217  -28.8084   23.2975 O   0  0  0  0  0  0
  -28.2797  -26.2070   20.2292 O   0  0  0  0  0  0
  -26.5659  -34.8905   22.4645 O   0  0  0  0  0  0
  -23.5547  -32.1308   23.7124 O   0  0  0  0  0  0
  -29.9282  -18.3232   21.7711 C   0  0  0  0  0  0
  -29.2970  -18.4897   19.5384 C   0  0  0  0  0  0
  -29.4877  -19.2181   20.6705 C   0  0  0  0  0  0
  -30.1106  -16.9483   21.7601 C   0  0  0  0  0  0
  -31.6971  -16.6176   23.6259 C   0  0  0  0  0  0
  -29.4128  -20.7629   20.8547 C   0  0  0  0  0  0
  -30.5473  -16.3166   22.9998 C   0  0  0  0  0  0
  -28.9099  -21.8734   20.1474 C   0  0  0  0  0  0
  -29.5024  -16.9226   19.4007 C   0  0  0  0  0  0
  -29.0676  -23.4704   20.4870 C   0  0  0  0  0  0
  -28.0293  -24.6946   20.0353 C   0  0  0  0  0  0
  -29.9151  -16.1079   20.6072 N   0  0  0  0  0  0
  -31.4640  -12.6644   19.1860 H   0  0  0  0  0  0
  -30.3846  -11.5855   20.0211 H   0  0  0  0  0  0
  -29.8130  -11.7265   17.5672 H   0  0  0  0  0  0
  -29.6134  -13.4575   17.7010 H   0  0  0  0  0  0
  -27.9235  -11.2779   18.9636 H   0  0  0  0  0  0
  -27.3777  -12.4738   17.8163 H   0  0  0  0  0  0
  -27.5978  -14.2551   19.4247 H   0  0  0  0  0  0
  -28.7391  -12.2950   21.4717 H   0  0  0  0  0  0
  -28.3874  -13.9893   21.7510 H   0  0  0  0  0  0
  -25.2745   -9.5714   22.4733 H   0  0  0  0  0  0
  -24.0001   -7.4655   22.7489 H   0  0  0  0  0  0
  -21.0821   -8.8744   19.8946 H   0  0  0  0  0  0
  -22.3654  -10.9648   19.6157 H   0  0  0  0  0  0
  -21.2014   -7.6144   23.9695 H   0  0  0  0  0  0
  -21.1488   -6.0518   25.9062 H   0  0  0  0  0  0
  -22.0592   -2.7600   23.2838 H   0  0  0  0  0  0
  -22.4092  -11.9866   22.4814 H   0  0  0  0  0  0
  -21.1070  -13.1204   22.2637 H   0  0  0  0  0  0
  -24.6575  -15.8563   20.5668 H   0  0  0  0  0  0
  -26.2862  -15.6433   20.1689 H   0  0  0  0  0  0
  -26.7255  -32.5303   23.0984 H   0  0  0  0  0  0
  -25.0052  -33.9590   25.0298 H   0  0  0  0  0  0
  -22.7436  -31.2902   21.3776 H   0  0  0  0  0  0
  -23.3742  -35.9588   23.3309 H   0  0  0  0  0  0
  -24.3574  -36.8891   22.2060 H   0  0  0  0  0  0
  -23.7254  -37.6456   23.6684 H   0  0  0  0  0  0
  -26.1501  -31.4850   20.6090 H   0  0  0  0  0  0
  -26.8683  -30.7770   22.0229 H   0  0  0  0  0  0
  -28.1237  -28.8266   21.2370 H   0  0  0  0  0  0
  -25.9300  -25.8578   18.9972 H   0  0  0  0  0  0
  -23.9842  -27.2973   18.9737 H   0  0  0  0  0  0
  -23.8017  -30.5715   19.3950 H   0  0  0  0  0  0
  -22.7823  -29.2375   19.8375 H   0  0  0  0  0  0
  -25.1292  -36.1842   25.0819 H   0  0  0  0  0  0
  -20.9994  -28.3293   24.1364 H   0  0  0  0  0  0
  -20.5656  -26.2306   23.3629 H   0  0  0  0  0  0
  -21.6637  -26.7401   22.1209 H   0  0  0  0  0  0
  -19.6924  -25.6293   21.1231 H   0  0  0  0  0  0
  -19.6708  -27.3176   20.6726 H   0  0  0  0  0  0
  -17.4205  -26.6658   21.4022 H   0  0  0  0  0  0
  -18.0328  -26.0095   22.9029 H   0  0  0  0  0  0
  -19.7980  -30.7269   24.2186 H   0  0  0  0  0  0
  -17.5073  -31.6259   24.5162 H   0  0  0  0  0  0
  -15.5377  -30.2983   23.7704 H   0  0  0  0  0  0
  -15.8693  -28.0853   22.7036 H   0  0  0  0  0  0
  -24.5915  -30.7056   25.7778 H   0  0  0  0  0  0
  -24.8849  -32.2946   26.4717 H   0  0  0  0  0  0
  -25.8010  -30.9051   27.0267 H   0  0  0  0  0  0
  -26.2995  -29.6672   24.1278 H   0  0  0  0  0  0
  -27.4014  -29.7254   25.4834 H   0  0  0  0  0  0
  -27.8888  -30.4189   23.9571 H   0  0  0  0  0  0
  -27.2626  -33.3673   26.1948 H   0  0  0  0  0  0
  -28.3902  -32.6814   25.0347 H   0  0  0  0  0  0
  -28.0640  -31.8528   26.5499 H   0  0  0  0  0  0
  -28.2561  -38.0073   24.7500 H   0  0  0  0  0  0
  -28.1067  -36.2609   24.6301 H   0  0  0  0  0  0
  -27.2294  -37.1431   25.8876 H   0  0  0  0  0  0
  -20.9466  -29.8791   21.6813 H   0  0  0  0  0  0
  -26.0134  -38.2817   24.1434 H   0  0  0  0  0  0
  -30.1205  -18.8198   22.7132 H   0  0  0  0  0  0
  -29.0140  -19.0058   18.6316 H   0  0  0  0  0  0
  -31.9737  -16.1256   24.5483 H   0  0  0  0  0  0
  -32.3821  -17.3537   23.2290 H   0  0  0  0  0  0
  -29.9227  -21.0725   21.7560 H   0  0  0  0  0  0
  -29.9020  -15.5736   23.4512 H   0  0  0  0  0  0
  -28.3841  -21.6725   19.2240 H   0  0  0  0  0  0
  -30.2409  -16.7696   18.6119 H   0  0  0  0  0  0
  -28.5717  -16.5010   19.0202 H   0  0  0  0  0  0
  -30.0305  -23.7347   20.0494 H   0  0  0  0  0  0
  -29.2234  -23.5502   21.5619 H   0  0  0  0  0  0
  -27.0788  -24.4736   20.5209 H   0  0  0  0  0  0
  -27.8490  -24.5622   18.9676 H   0  0  0  0  0  0
  1 25  1  0  0  0
  1 30  2  0  0  0
  1 82  1  0  0  0
  2  3  1  0  0  0
  2 25  1  0  0  0
  2 83  1  0  0  0
  2 84  1  0  0  0
  3  4  1  0  0  0
  3 85  1  0  0  0
  3 86  1  0  0  0
  4  5  1  0  0  0
  4 87  1  0  0  0
  4 88  1  0  0  0
  5  6  1  0  0  0
  5 26  1  0  0  0
  5 89  1  0  0  0
  6 25  1  0  0  0
  6 90  1  0  0  0
  6 91  1  0  0  0
  7  8  2  0  0  0
  7 26  1  0  0  0
  7 29  1  0  0  0
  8  9  1  0  0  0
  8 22  1  0  0  0
  9 10  1  0  0  0
  9 27  2  0  0  0
 10 11  2  0  0  0
 10 15  1  0  0  0
 11 12  1  0  0  0
 11 92  1  0  0  0
 12 13  2  0  0  0
 12 93  1  0  0  0
 13 14  1  0  0  0
 13 31  1  0  0  0
 14 15  2  0  0  0
 14 94  1  0  0  0
 15 95  1  0  0  0
 16 17  2  0  0  0
 16 21  1  0  0  0
 16 31  1  0  0  0
 17 18  1  0  0  0
 17 96  1  0  0  0
 18 19  2  0  0  0
 18 97  1  0  0  0
 19 20  1  0  0  0
 19 24  1  0  0  0
 20 21  2  0  0  0
 20 98  1  0  0  0
 21 23  1  0  0  0
 22 28  1  0  0  0
 22 32  2  0  0  0
 26 27  1  0  0  0
 28 99  1  0  0  0
 28100  1  0  0  0
 29101  1  0  0  0
 29102  1  0  0  0
 33 34  1  0  0  0
 33 66  1  0  0  0
 33 70  2  0  0  0
 34 36  1  0  0  0
 34 59  1  0  0  0
 34103  1  0  0  0
 35 44  2  0  0  0
 35 45  1  0  0  0
 35 68  1  0  0  0
 36 56  1  0  0  0
 36104  1  0  0  0
 37 39  1  0  0  0
 37 47  1  0  0  0
 37 66  1  0  0  0
 37105  1  0  0  0
 38 43  2  0  0  0
 38 46  1  0  0  0
 38 47  1  0  0  0
 39 64  1  0  0  0
 39 67  2  0  0  0
 40 52  1  0  0  0
 40 53  2  0  0  0
 40 58  1  0  0  0
 41106  1  0  0  0
 41107  1  0  0  0
 41108  1  0  0  0
 41 48  1  0  0  0
 42 43  1  0  0  0
 42 66  1  0  0  0
 42109  1  0  0  0
 42110  1  0  0  0
 43 44  1  0  0  0
 44111  1  0  0  0
 45 46  2  0  0  0
 45112  1  0  0  0
 46113  1  0  0  0
 47114  1  0  0  0
 47115  1  0  0  0
 48 56  1  0  0  0
 48 65  1  0  0  0
 48116  1  0  0  0
 49 50  1  0  0  0
 49 53  1  0  0  0
 49 64  1  0  0  0
 49117  1  0  0  0
 50 51  1  0  0  0
 50118  1  0  0  0
 50119  1  0  0  0
 51 52  1  0  0  0
 51120  1  0  0  0
 51121  1  0  0  0
 52122  1  0  0  0
 52123  1  0  0  0
 53 54  1  0  0  0
 54 55  2  0  0  0
 54124  1  0  0  0
 55 57  1  0  0  0
 55125  1  0  0  0
 56 69  2  0  0  0
 57 58  2  0  0  0
 57126  1  0  0  0
 58127  1  0  0  0
 59 60  1  0  0  0
 59 61  1  0  0  0
 59 62  1  0  0  0
 60128  1  0  0  0
 60129  1  0  0  0
 60130  1  0  0  0
 61131  1  0  0  0
 61132  1  0  0  0
 61133  1  0  0  0
 62134  1  0  0  0
 62135  1  0  0  0
 62136  1  0  0  0
 63 65  1  0  0  0
 63137  1  0  0  0
 63138  1  0  0  0
 63139  1  0  0  0
 64140  1  0  0  0
 65141  1  0  0  0
 68 81  1  0  0  0
 71 73  1  0  0  0
 71 74  2  0  0  0
 71142  1  0  0  0
 72 73  2  0  0  0
 72 79  1  0  0  0
 72143  1  0  0  0
 73 76  1  0  0  0
 74 77  1  0  0  0
 74 82  1  0  0  0
 75 77  2  0  0  0
 75144  1  0  0  0
 75145  1  0  0  0
 76 78  2  0  0  0
 76146  1  0  0  0
 77147  1  0  0  0
 78 80  1  0  0  0
 78148  1  0  0  0
 79 82  1  0  0  0
 79149  1  0  0  0
 79150  1  0  0  0
 80 81  1  0  0  0
 80151  1  0  0  0
 80152  1  0  0  0
 81153  1  0  0  0
 81154  1  0  0  0
M  ISO  4   1 100  68 101  81 101  82 100
M  END
> <chiral flag>
0

> <version>
0

> <s_m_source_file>
/data/baiqing/PycharmProjects/Reinvent-master-3.2/result/LINK_invent/BTK/process_docking_weight1_custom_product_contain_oxygen_bond_distance_aromatic_linkinvent_7_9_3/rearranged_h_0120.sdf

> <i_m_source_file_index>
77

> <r_mmod_Potential_Energy-OPLS-2005>
559.037963867188

> <r_mmod_Stretch_Energy-OPLS-2005>
200.615600585938

> <r_mmod_Bend_Energy-OPLS-2005>
235.347564697266

> <r_mmod_Torsional_Energy-OPLS-2005>
305.701965332031

> <r_mmod_Improper_Torsional_Energy-OPLS-2005>
7.78209209442139

> <r_mmod_Van_der_Waal_Energy-OPLS-2005>
129.015548706055

> <r_mmod_Electrostatic_Energy-OPLS-2005>
-282.011108398438

> <r_mmod_Solvation_Energy-OPLS-2005>
-190.577560424805

> <b_mmod_Minimization_Converged-OPLS-2005>
0

> <r_mmod_RMS_Derivative-OPLS-2005>
2.36532139778137

$$$$
77
                    3D
 Structure written by MMmdl.
157165  0  0  1  0            999 V2000
  -30.7015  -14.4876   20.5757 C   0  0  0  0  0  0
  -30.4214  -12.3135   19.4374 C   0  0  0  0  0  0
  -29.4995  -12.5148   18.2150 C   0  0  0  0  0  0
  -28.0176  -12.3728   18.6176 C   0  0  0  0  0  0
  -27.6611  -13.2085   19.8765 C   0  0  2  0  0  0
  -28.6983  -12.9847   20.9985 C   0  0  0  0  0  0
  -25.2579  -13.8164   20.5679 C   0  0  0  0  0  0
  -24.1827  -13.0440   20.9164 C   0  0  0  0  0  0
  -24.6380  -11.6906   20.8720 C   0  0  0  0  0  0
  -23.9046  -10.4297   21.0402 C   0  0  0  0  0  0
  -24.3604   -9.4218   21.9183 C   0  0  0  0  0  0
  -23.6289   -8.2246   22.0752 C   0  0  0  0  0  0
  -22.4274   -8.0280   21.3539 C   0  0  0  0  0  0
  -21.9899   -9.0250   20.4643 C   0  0  0  0  0  0
  -22.7216  -10.2133   20.3054 C   0  0  0  0  0  0
  -21.6847   -6.0737   22.5281 C   0  0  0  0  0  0
  -21.4011   -6.5641   23.8215 C   0  0  0  0  0  0
  -21.3666   -5.6793   24.9177 C   0  0  0  0  0  0
  -21.6044   -4.3056   24.7225 C   0  0  0  0  0  0
  -21.8820   -3.8147   23.4346 C   0  0  0  0  0  0
  -21.9190   -4.6964   22.3404 C   0  0  0  0  0  0
  -22.7853  -13.5242   21.1842 C   0  0  0  0  0  0
  -22.1655   -4.2149   21.0980 F   0  0  0  0  0  0
  -21.5636   -3.4541   25.7740 F   0  0  0  0  0  0
  -30.0331  -13.3019   20.4603 N   0  0  0  0  0  0
  -26.3013  -12.9334   20.3359 N   0  0  0  0  0  0
  -25.9304  -11.6491   20.5744 N   0  0  0  0  0  0
  -22.0488  -12.8244   22.0404 N   0  0  0  0  0  0
  -25.4324  -15.1880   20.4112 N   0  0  0  0  0  0
  -31.8153  -14.6523   20.0668 O   0  0  0  0  0  0
  -21.6636   -6.8878   21.4241 O   0  0  0  0  0  0
  -22.3541  -14.5552   20.6701 O   0  0  0  0  0  0
  -24.6168  -31.8668   23.2092 C   0  0  0  0  0  0
  -25.9058  -32.4815   23.8392 C   0  0  1  0  0  0
  -27.2300  -27.4122   20.0957 C   0  0  0  0  0  0
  -25.5903  -33.8614   24.2319 N   0  0  0  0  0  0
  -23.4050  -30.4920   21.5503 C   0  0  2  0  0  0
  -24.8492  -28.9575   20.1133 C   0  0  0  0  0  0
  -22.7422  -29.4659   22.4978 C   0  0  0  0  0  0
  -18.0272  -28.1380   22.8495 C   0  0  0  0  0  0
  -24.1483  -36.7315   23.2635 C   0  0  0  0  0  0
  -25.9364  -30.8263   21.3645 C   0  0  0  0  0  0
  -26.0115  -29.4594   20.7114 C   0  0  0  0  0  0
  -27.2029  -28.6939   20.7002 C   0  0  0  0  0  0
  -26.0468  -26.9381   19.4798 C   0  0  0  0  0  0
  -24.8628  -27.6970   19.4952 C   0  0  0  0  0  0
  -23.6132  -29.8271   20.1639 C   0  0  0  0  0  0
  -25.4101  -36.3107   24.0336 C   0  0  1  0  0  0
  -20.5868  -28.3668   23.1314 C   0  0  2  0  0  0
  -20.6767  -26.9405   22.5415 C   0  0  0  0  0  0
  -19.5742  -26.6386   21.5216 C   0  0  0  0  0  0
  -18.1920  -26.7925   22.1632 C   0  0  0  0  0  0
  -19.1525  -28.8838   23.2901 C   0  0  0  0  0  0
  -18.9452  -30.1446   23.8911 C   0  0  0  0  0  0
  -17.6452  -30.6588   24.0564 C   0  0  0  0  0  0
  -25.9034  -34.9472   23.5124 C   0  0  0  0  0  0
  -16.5341  -29.9092   23.6320 C   0  0  0  0  0  0
  -16.7261  -28.6507   23.0345 C   0  0  0  0  0  0
  -26.4471  -31.6599   25.0730 C   0  0  0  0  0  0
  -25.3727  -31.3728   26.1477 C   0  0  0  0  0  0
  -27.0289  -30.3033   24.6115 C   0  0  0  0  0  0
  -27.6051  -32.4307   25.7492 C   0  0  0  0  0  0
  -27.5579  -37.1806   24.8459 C   0  0  0  0  0  0
  -21.4145  -29.3038   22.3721 N   0  0  0  0  0  0
  -26.4283  -37.3796   23.9416 N   0  0  0  0  0  0
  -24.6713  -31.0764   22.0995 N   0  0  0  0  0  0
  -23.4190  -28.8189   23.3014 O   0  0  0  0  0  0
  -28.3959  -26.6631   20.1328 O   0  0  0  0  0  0
  -26.5599  -34.8928   22.4687 O   0  0  0  0  0  0
  -23.5355  -32.1421   23.7481 O   0  0  0  0  0  0
  -29.8913  -20.0248   19.1683 C   0  0  0  0  0  0
  -29.7028  -20.4963   20.4342 C   0  0  0  0  0  0
  -29.6919  -19.3592   21.3095 C   0  0  0  0  0  0
  -29.8988  -18.2579   20.4946 C   0  0  0  0  0  0
  -29.5692  -21.9230   20.8329 C   0  0  0  0  0  0
  -30.0487  -16.8277   20.6749 C   0  0  0  0  0  0
  -29.9932  -15.5866   21.2362 C   0  0  0  0  0  0
  -29.5713  -22.9942   20.0054 C   0  0  0  0  0  0
  -28.1425  -20.0659   24.5923 C   0  0  0  0  0  0
  -29.5319  -19.3834   22.8112 C   0  0  0  0  0  0
  -29.5010  -24.4622   20.4439 C   0  0  0  0  0  0
  -28.3077  -25.2497   19.8533 C   0  0  0  0  0  0
  -30.0265  -18.6698   19.1966 O   0  0  0  0  0  0
  -28.3144  -20.0131   23.1849 O   0  0  0  0  0  0
  -31.4679  -12.4008   19.1411 H   0  0  0  0  0  0
  -30.3138  -11.3028   19.8339 H   0  0  0  0  0  0
  -29.7466  -11.7956   17.4326 H   0  0  0  0  0  0
  -29.6681  -13.5041   17.7865 H   0  0  0  0  0  0
  -27.8242  -11.3164   18.8071 H   0  0  0  0  0  0
  -27.3720  -12.6538   17.7851 H   0  0  0  0  0  0
  -27.7082  -14.2586   19.5871 H   0  0  0  0  0  0
  -28.6783  -11.9441   21.3241 H   0  0  0  0  0  0
  -28.4383  -13.5587   21.8857 H   0  0  0  0  0  0
  -25.2752   -9.5700   22.4750 H   0  0  0  0  0  0
  -24.0007   -7.4639   22.7470 H   0  0  0  0  0  0
  -21.0832   -8.8761   19.8951 H   0  0  0  0  0  0
  -22.3674  -10.9668   19.6162 H   0  0  0  0  0  0
  -21.2001   -7.6148   23.9719 H   0  0  0  0  0  0
  -21.1489   -6.0522   25.9081 H   0  0  0  0  0  0
  -22.0594   -2.7608   23.2841 H   0  0  0  0  0  0
  -22.4094  -11.9897   22.4790 H   0  0  0  0  0  0
  -21.1110  -13.1280   22.2617 H   0  0  0  0  0  0
  -24.6721  -15.8491   20.5276 H   0  0  0  0  0  0
  -26.2976  -15.6262   20.1202 H   0  0  0  0  0  0
  -26.7133  -32.5519   23.1158 H   0  0  0  0  0  0
  -25.0051  -33.9771   25.0463 H   0  0  0  0  0  0
  -22.6939  -31.3094   21.4120 H   0  0  0  0  0  0
  -23.3743  -35.9649   23.3286 H   0  0  0  0  0  0
  -24.3586  -36.8939   22.2053 H   0  0  0  0  0  0
  -23.7233  -37.6517   23.6652 H   0  0  0  0  0  0
  -26.0502  -31.5904   20.5942 H   0  0  0  0  0  0
  -26.8245  -30.8811   21.9824 H   0  0  0  0  0  0
  -28.0985  -29.0755   21.1706 H   0  0  0  0  0  0
  -26.0133  -25.9816   18.9796 H   0  0  0  0  0  0
  -23.9703  -27.3069   19.0255 H   0  0  0  0  0  0
  -23.7244  -30.6029   19.4057 H   0  0  0  0  0  0
  -22.7359  -29.2494   19.8670 H   0  0  0  0  0  0
  -25.1275  -36.1965   25.0827 H   0  0  0  0  0  0
  -20.9967  -28.3234   24.1435 H   0  0  0  0  0  0
  -20.5677  -26.2276   23.3602 H   0  0  0  0  0  0
  -21.6632  -26.7449   22.1198 H   0  0  0  0  0  0
  -19.6900  -25.6298   21.1239 H   0  0  0  0  0  0
  -19.6679  -27.3201   20.6749 H   0  0  0  0  0  0
  -17.4190  -26.6666   21.4034 H   0  0  0  0  0  0
  -18.0325  -26.0065   22.9028 H   0  0  0  0  0  0
  -19.7932  -30.7254   24.2288 H   0  0  0  0  0  0
  -17.5012  -31.6275   24.5156 H   0  0  0  0  0  0
  -15.5344  -30.2997   23.7637 H   0  0  0  0  0  0
  -15.8664  -28.0831   22.7048 H   0  0  0  0  0  0
  -24.5887  -30.7086   25.7818 H   0  0  0  0  0  0
  -24.8936  -32.2897   26.4920 H   0  0  0  0  0  0
  -25.8073  -30.8897   27.0238 H   0  0  0  0  0  0
  -26.2837  -29.6813   24.1138 H   0  0  0  0  0  0
  -27.4013  -29.7253   25.4584 H   0  0  0  0  0  0
  -27.8695  -30.4337   23.9295 H   0  0  0  0  0  0
  -27.2681  -33.3605   26.2086 H   0  0  0  0  0  0
  -28.3860  -32.6863   25.0318 H   0  0  0  0  0  0
  -28.0713  -31.8412   26.5396 H   0  0  0  0  0  0
  -28.2583  -38.0116   24.7527 H   0  0  0  0  0  0
  -28.1085  -36.2649   24.6248 H   0  0  0  0  0  0
  -27.2305  -37.1414   25.8864 H   0  0  0  0  0  0
  -20.9297  -29.8782   21.6967 H   0  0  0  0  0  0
  -26.0168  -38.2869   24.1432 H   0  0  0  0  0  0
  -29.9746  -20.4837   18.1925 H   0  0  0  0  0  0
  -29.4772  -22.1035   21.8948 H   0  0  0  0  0  0
  -29.3218  -17.0345   21.4420 H   0  0  0  0  0  0
  -29.4744  -15.3672   22.1647 H   0  0  0  0  0  0
  -29.6509  -22.8382   18.9383 H   0  0  0  0  0  0
  -27.2102  -20.5795   24.8282 H   0  0  0  0  0  0
  -28.9556  -20.6117   25.0729 H   0  0  0  0  0  0
  -28.0914  -19.0648   25.0221 H   0  0  0  0  0  0
  -30.3798  -19.9239   23.2357 H   0  0  0  0  0  0
  -29.5683  -18.3691   23.2108 H   0  0  0  0  0  0
  -30.4311  -24.9410   20.1364 H   0  0  0  0  0  0
  -29.4706  -24.5183   21.5326 H   0  0  0  0  0  0
  -27.3979  -24.8209   20.2772 H   0  0  0  0  0  0
  -28.2654  -25.1085   18.7723 H   0  0  0  0  0  0
  1 25  1  0  0  0
  1 30  2  0  0  0
  1 77  1  0  0  0
  2  3  1  0  0  0
  2 25  1  0  0  0
  2 85  1  0  0  0
  2 86  1  0  0  0
  3  4  1  0  0  0
  3 87  1  0  0  0
  3 88  1  0  0  0
  4  5  1  0  0  0
  4 89  1  0  0  0
  4 90  1  0  0  0
  5  6  1  0  0  0
  5 26  1  0  0  0
  5 91  1  0  0  0
  6 25  1  0  0  0
  6 92  1  0  0  0
  6 93  1  0  0  0
  7  8  2  0  0  0
  7 26  1  0  0  0
  7 29  1  0  0  0
  8  9  1  0  0  0
  8 22  1  0  0  0
  9 10  1  0  0  0
  9 27  2  0  0  0
 10 11  2  0  0  0
 10 15  1  0  0  0
 11 12  1  0  0  0
 11 94  1  0  0  0
 12 13  2  0  0  0
 12 95  1  0  0  0
 13 14  1  0  0  0
 13 31  1  0  0  0
 14 15  2  0  0  0
 14 96  1  0  0  0
 15 97  1  0  0  0
 16 17  2  0  0  0
 16 21  1  0  0  0
 16 31  1  0  0  0
 17 18  1  0  0  0
 17 98  1  0  0  0
 18 19  2  0  0  0
 18 99  1  0  0  0
 19 20  1  0  0  0
 19 24  1  0  0  0
 20 21  2  0  0  0
 20100  1  0  0  0
 21 23  1  0  0  0
 22 28  1  0  0  0
 22 32  2  0  0  0
 26 27  1  0  0  0
 28101  1  0  0  0
 28102  1  0  0  0
 29103  1  0  0  0
 29104  1  0  0  0
 33 34  1  0  0  0
 33 66  1  0  0  0
 33 70  2  0  0  0
 34 36  1  0  0  0
 34 59  1  0  0  0
 34105  1  0  0  0
 35 44  2  0  0  0
 35 45  1  0  0  0
 35 68  1  0  0  0
 36 56  1  0  0  0
 36106  1  0  0  0
 37 39  1  0  0  0
 37 47  1  0  0  0
 37 66  1  0  0  0
 37107  1  0  0  0
 38 43  2  0  0  0
 38 46  1  0  0  0
 38 47  1  0  0  0
 39 64  1  0  0  0
 39 67  2  0  0  0
 40 52  1  0  0  0
 40 53  2  0  0  0
 40 58  1  0  0  0
 41108  1  0  0  0
 41109  1  0  0  0
 41110  1  0  0  0
 41 48  1  0  0  0
 42 43  1  0  0  0
 42 66  1  0  0  0
 42111  1  0  0  0
 42112  1  0  0  0
 43 44  1  0  0  0
 44113  1  0  0  0
 45 46  2  0  0  0
 45114  1  0  0  0
 46115  1  0  0  0
 47116  1  0  0  0
 47117  1  0  0  0
 48 56  1  0  0  0
 48 65  1  0  0  0
 48118  1  0  0  0
 49 50  1  0  0  0
 49 53  1  0  0  0
 49 64  1  0  0  0
 49119  1  0  0  0
 50 51  1  0  0  0
 50120  1  0  0  0
 50121  1  0  0  0
 51 52  1  0  0  0
 51122  1  0  0  0
 51123  1  0  0  0
 52124  1  0  0  0
 52125  1  0  0  0
 53 54  1  0  0  0
 54 55  2  0  0  0
 54126  1  0  0  0
 55 57  1  0  0  0
 55127  1  0  0  0
 56 69  2  0  0  0
 57 58  2  0  0  0
 57128  1  0  0  0
 58129  1  0  0  0
 59 60  1  0  0  0
 59 61  1  0  0  0
 59 62  1  0  0  0
 60130  1  0  0  0
 60131  1  0  0  0
 60132  1  0  0  0
 61133  1  0  0  0
 61134  1  0  0  0
 61135  1  0  0  0
 62136  1  0  0  0
 62137  1  0  0  0
 62138  1  0  0  0
 63 65  1  0  0  0
 63139  1  0  0  0
 63140  1  0  0  0
 63141  1  0  0  0
 64142  1  0  0  0
 65143  1  0  0  0
 68 82  1  0  0  0
 71 72  2  0  0  0
 71 83  1  0  0  0
 71144  1  0  0  0
 72 73  1  0  0  0
 72 75  1  0  0  0
 73 74  2  0  0  0
 73 80  1  0  0  0
 74 76  1  0  0  0
 74 83  1  0  0  0
 75 78  2  0  0  0
 75145  1  0  0  0
 76 77  2  0  0  0
 76146  1  0  0  0
 77147  1  0  0  0
 78 81  1  0  0  0
 78148  1  0  0  0
 79 84  1  0  0  0
 79149  1  0  0  0
 79150  1  0  0  0
 79151  1  0  0  0
 80 84  1  0  0  0
 80152  1  0  0  0
 80153  1  0  0  0
 81 82  1  0  0  0
 81154  1  0  0  0
 81155  1  0  0  0
 82156  1  0  0  0
 82157  1  0  0  0
M  ISO  4   1 100  68 101  77 100  82 101
M  END
> <chiral flag>
0

> <version>
0

> <s_m_source_file>
/data/baiqing/PycharmProjects/Reinvent-master-3.2/result/LINK_invent/BTK/process_docking_weight1_custom_product_contain_oxygen_bond_distance_aromatic_linkinvent_7_9_3/rearranged_h_0120.sdf

> <i_m_source_file_index>
78

> <r_mmod_Potential_Energy-OPLS-2005>
180.453033447266

> <r_mmod_Stretch_Energy-OPLS-2005>
40.3544273376465

> <r_mmod_Bend_Energy-OPLS-2005>
312.344451904297

> <r_mmod_Torsional_Energy-OPLS-2005>
192.010177612305

> <r_mmod_Improper_Torsional_Energy-OPLS-2005>
3.97342085838318

> <r_mmod_Van_der_Waal_Energy-OPLS-2005>
140.945251464844

> <r_mmod_Electrostatic_Energy-OPLS-2005>
-313.724945068359

> <r_mmod_Solvation_Energy-OPLS-2005>
-210.516738891602

> <b_mmod_Minimization_Converged-OPLS-2005>
0

> <r_mmod_RMS_Derivative-OPLS-2005>
1.00348699092865

$$$$
78
                    3D
 Structure written by MMmdl.
164172  0  0  1  0            999 V2000
  -30.7504  -14.5206   20.6638 C   0  0  0  0  0  0
  -30.4107  -12.3763   19.4503 C   0  0  0  0  0  0
  -29.4931  -12.5364   18.2229 C   0  0  0  0  0  0
  -28.0195  -12.3617   18.6289 C   0  0  0  0  0  0
  -27.6549  -13.2170   19.8689 C   0  0  2  0  0  0
  -28.6885  -13.0507   21.0033 C   0  0  0  0  0  0
  -25.2559  -13.8188   20.5687 C   0  0  0  0  0  0
  -24.1818  -13.0455   20.9175 C   0  0  0  0  0  0
  -24.6385  -11.6921   20.8717 C   0  0  0  0  0  0
  -23.9058  -10.4302   21.0392 C   0  0  0  0  0  0
  -24.3605   -9.4225   21.9188 C   0  0  0  0  0  0
  -23.6285   -8.2257   22.0760 C   0  0  0  0  0  0
  -22.4276   -8.0290   21.3535 C   0  0  0  0  0  0
  -21.9903   -9.0261   20.4645 C   0  0  0  0  0  0
  -22.7227  -10.2148   20.3050 C   0  0  0  0  0  0
  -21.6852   -6.0748   22.5278 C   0  0  0  0  0  0
  -21.4019   -6.5646   23.8218 C   0  0  0  0  0  0
  -21.3667   -5.6791   24.9170 C   0  0  0  0  0  0
  -21.6036   -4.3052   24.7202 C   0  0  0  0  0  0
  -21.8821   -3.8158   23.4321 C   0  0  0  0  0  0
  -21.9191   -4.6979   22.3386 C   0  0  0  0  0  0
  -22.7844  -13.5239   21.1842 C   0  0  0  0  0  0
  -22.1659   -4.2177   21.0961 F   0  0  0  0  0  0
  -21.5622   -3.4532   25.7715 F   0  0  0  0  0  0
  -30.0222  -13.3711   20.4760 N   0  0  0  0  0  0
  -26.2986  -12.9373   20.3334 N   0  0  0  0  0  0
  -25.9311  -11.6520   20.5747 N   0  0  0  0  0  0
  -22.0473  -12.8224   22.0393 N   0  0  0  0  0  0
  -25.4296  -15.1892   20.4152 N   0  0  0  0  0  0
  -31.7518  -14.7633   19.9827 O   0  0  0  0  0  0
  -21.6626   -6.8899   21.4249 O   0  0  0  0  0  0
  -22.3553  -14.5567   20.6723 O   0  0  0  0  0  0
  -24.6247  -31.8575   23.2021 C   0  0  0  0  0  0
  -25.9083  -32.4771   23.8375 C   0  0  1  0  0  0
  -27.2447  -27.3573   20.0965 C   0  0  0  0  0  0
  -25.5902  -33.8575   24.2299 N   0  0  0  0  0  0
  -23.4185  -30.4801   21.5413 C   0  0  2  0  0  0
  -24.8675  -28.9304   20.1112 C   0  0  0  0  0  0
  -22.7490  -29.4588   22.4903 C   0  0  0  0  0  0
  -18.0299  -28.1350   22.8493 C   0  0  0  0  0  0
  -24.1474  -36.7326   23.2641 C   0  0  0  0  0  0
  -25.9525  -30.8018   21.3590 C   0  0  0  0  0  0
  -26.0293  -29.4256   20.7136 C   0  0  0  0  0  0
  -27.2161  -28.6458   20.7015 C   0  0  0  0  0  0
  -26.0535  -26.8864   19.4983 C   0  0  0  0  0  0
  -24.8774  -27.6638   19.5031 C   0  0  0  0  0  0
  -23.6359  -29.8104   20.1555 C   0  0  0  0  0  0
  -25.4082  -36.3093   24.0336 C   0  0  1  0  0  0
  -20.5901  -28.3638   23.1298 C   0  0  2  0  0  0
  -20.6755  -26.9347   22.5424 C   0  0  0  0  0  0
  -19.5736  -26.6351   21.5213 C   0  0  0  0  0  0
  -18.1917  -26.7903   22.1622 C   0  0  0  0  0  0
  -19.1549  -28.8814   23.2899 C   0  0  0  0  0  0
  -18.9465  -30.1411   23.8919 C   0  0  0  0  0  0
  -17.6460  -30.6542   24.0560 C   0  0  0  0  0  0
  -25.9027  -34.9449   23.5123 C   0  0  0  0  0  0
  -16.5356  -29.9047   23.6306 C   0  0  0  0  0  0
  -16.7291  -28.6472   23.0331 C   0  0  0  0  0  0
  -26.4499  -31.6588   25.0729 C   0  0  0  0  0  0
  -25.3771  -31.3637   26.1479 C   0  0  0  0  0  0
  -27.0364  -30.3069   24.6079 C   0  0  0  0  0  0
  -27.6059  -32.4327   25.7517 C   0  0  0  0  0  0
  -27.5559  -37.1816   24.8453 C   0  0  0  0  0  0
  -21.4199  -29.3021   22.3707 N   0  0  0  0  0  0
  -26.4265  -37.3783   23.9405 N   0  0  0  0  0  0
  -24.6855  -31.0629   22.0934 N   0  0  0  0  0  0
  -23.4239  -28.8088   23.2928 O   0  0  0  0  0  0
  -28.4244  -26.6173   20.1220 O   0  0  0  0  0  0
  -26.5595  -34.8911   22.4689 O   0  0  0  0  0  0
  -23.5427  -32.1341   23.7371 O   0  0  0  0  0  0
  -29.8444  -17.7922   21.1749 C   0  0  0  0  0  0
  -28.0290  -18.9883   22.2423 C   0  0  0  0  0  0
  -29.5876  -16.6067   21.9507 C   0  0  0  0  0  0
  -27.7282  -17.8510   23.0095 C   0  0  0  0  0  0
  -28.5318  -16.6806   22.9207 C   0  0  0  0  0  0
  -29.1029  -19.0117   21.3278 C   0  0  0  0  0  0
  -30.5296  -15.3984   21.9245 C   0  0  0  0  0  0
  -26.5302  -17.9431   23.9483 C   0  0  0  0  0  0
  -28.9011  -15.8596   25.3176 C   0  0  0  0  0  0
  -28.2758  -15.5617   23.9459 C   0  0  0  0  0  0
  -28.3372  -24.0506   20.4466 C   0  0  0  0  0  0
  -29.0333  -22.6920   20.0231 C   0  0  0  0  0  0
  -28.5652  -25.2962   19.5133 C   0  0  0  0  0  0
  -28.7555  -21.4482   20.9487 C   0  0  0  0  0  0
  -31.2348  -15.1398   22.9485 N   0  0  0  0  0  0
  -29.4196  -20.1826   20.6112 O   0  0  0  0  0  0
  -31.4529  -12.4787   19.1506 H   0  0  0  0  0  0
  -30.3250  -11.3694   19.8626 H   0  0  0  0  0  0
  -29.7624  -11.8148   17.4505 H   0  0  0  0  0  0
  -29.6370  -13.5248   17.7864 H   0  0  0  0  0  0
  -27.8528  -11.3048   18.8428 H   0  0  0  0  0  0
  -27.3665  -12.6147   17.7928 H   0  0  0  0  0  0
  -27.6867  -14.2593   19.5527 H   0  0  0  0  0  0
  -28.6751  -12.0316   21.3916 H   0  0  0  0  0  0
  -28.3956  -13.6915   21.8240 H   0  0  0  0  0  0
  -25.2750   -9.5700   22.4768 H   0  0  0  0  0  0
  -23.9997   -7.4642   22.7467 H   0  0  0  0  0  0
  -21.0848   -8.8775   19.8929 H   0  0  0  0  0  0
  -22.3691  -10.9687   19.6155 H   0  0  0  0  0  0
  -21.2025   -7.6156   23.9734 H   0  0  0  0  0  0
  -21.1486   -6.0509   25.9074 H   0  0  0  0  0  0
  -22.0594   -2.7630   23.2797 H   0  0  0  0  0  0
  -22.4066  -11.9841   22.4685 H   0  0  0  0  0  0
  -21.1114  -13.1295   22.2611 H   0  0  0  0  0  0
  -24.6691  -15.8481   20.5449 H   0  0  0  0  0  0
  -26.2959  -15.6373   20.1439 H   0  0  0  0  0  0
  -26.7150  -32.5476   23.1144 H   0  0  0  0  0  0
  -25.0057  -33.9730   25.0455 H   0  0  0  0  0  0
  -22.7110  -31.2980   21.3921 H   0  0  0  0  0  0
  -23.3718  -35.9681   23.3301 H   0  0  0  0  0  0
  -24.3578  -36.8973   22.2059 H   0  0  0  0  0  0
  -23.7260  -37.6540   23.6683 H   0  0  0  0  0  0
  -26.0511  -31.5529   20.5733 H   0  0  0  0  0  0
  -26.8469  -30.8800   21.9671 H   0  0  0  0  0  0
  -28.1164  -29.0216   21.1681 H   0  0  0  0  0  0
  -26.0074  -25.9126   19.0359 H   0  0  0  0  0  0
  -23.9811  -27.2777   19.0350 H   0  0  0  0  0  0
  -23.7569  -30.5851   19.3965 H   0  0  0  0  0  0
  -22.7589  -29.2379   19.8526 H   0  0  0  0  0  0
  -25.1255  -36.1949   25.0829 H   0  0  0  0  0  0
  -21.0013  -28.3192   24.1415 H   0  0  0  0  0  0
  -20.5609  -26.2234   23.3622 H   0  0  0  0  0  0
  -21.6615  -26.7325   22.1237 H   0  0  0  0  0  0
  -19.6872  -25.6273   21.1217 H   0  0  0  0  0  0
  -19.6679  -27.3186   20.6761 H   0  0  0  0  0  0
  -17.4187  -26.6705   21.4004 H   0  0  0  0  0  0
  -18.0271  -26.0011   22.8979 H   0  0  0  0  0  0
  -19.7936  -30.7213   24.2316 H   0  0  0  0  0  0
  -17.5005  -31.6228   24.5137 H   0  0  0  0  0  0
  -15.5354  -30.2939   23.7589 H   0  0  0  0  0  0
  -15.8709  -28.0795   22.7001 H   0  0  0  0  0  0
  -24.5999  -30.6912   25.7835 H   0  0  0  0  0  0
  -24.8868  -32.2736   26.4959 H   0  0  0  0  0  0
  -25.8142  -30.8835   27.0243 H   0  0  0  0  0  0
  -26.2926  -29.6807   24.1144 H   0  0  0  0  0  0
  -27.4216  -29.7309   25.4509 H   0  0  0  0  0  0
  -27.8701  -30.4460   23.9185 H   0  0  0  0  0  0
  -27.2708  -33.3652   26.2080 H   0  0  0  0  0  0
  -28.3908  -32.6853   25.0368 H   0  0  0  0  0  0
  -28.0694  -31.8447   26.5468 H   0  0  0  0  0  0
  -28.2542  -38.0134   24.7510 H   0  0  0  0  0  0
  -28.1080  -36.2671   24.6257 H   0  0  0  0  0  0
  -27.2292  -37.1455   25.8856 H   0  0  0  0  0  0
  -20.9339  -29.8897   21.7076 H   0  0  0  0  0  0
  -26.0147  -38.2857   24.1416 H   0  0  0  0  0  0
  -30.6850  -17.7845   20.4959 H   0  0  0  0  0  0
  -27.4125  -19.8597   22.3989 H   0  0  0  0  0  0
  -25.9653  -18.8596   23.7808 H   0  0  0  0  0  0
  -26.8269  -17.9500   24.9966 H   0  0  0  0  0  0
  -25.8373  -17.1181   23.7839 H   0  0  0  0  0  0
  -28.6796  -15.0584   26.0217 H   0  0  0  0  0  0
  -28.5326  -16.7871   25.7519 H   0  0  0  0  0  0
  -29.9854  -15.9420   25.2481 H   0  0  0  0  0  0
  -28.6698  -14.6030   23.6315 H   0  0  0  0  0  0
  -27.2046  -15.3850   24.0444 H   0  0  0  0  0  0
  -28.6783  -24.3110   21.4481 H   0  0  0  0  0  0
  -27.2619  -23.8917   20.5278 H   0  0  0  0  0  0
  -30.1089  -22.8580   19.9689 H   0  0  0  0  0  0
  -28.7176  -22.4385   19.0099 H   0  0  0  0  0  0
  -27.9900  -25.2005   18.5925 H   0  0  0  0  0  0
  -29.6019  -25.2556   19.1755 H   0  0  0  0  0  0
  -27.6747  -21.3079   20.9265 H   0  0  0  0  0  0
  -29.0265  -21.7106   21.9729 H   0  0  0  0  0  0
  -31.8424  -14.3477   22.7717 H   0  0  0  0  0  0
  1 25  1  0  0  0
  1 30  2  0  0  0
  1 77  1  0  0  0
  2  3  1  0  0  0
  2 25  1  0  0  0
  2 87  1  0  0  0
  2 88  1  0  0  0
  3  4  1  0  0  0
  3 89  1  0  0  0
  3 90  1  0  0  0
  4  5  1  0  0  0
  4 91  1  0  0  0
  4 92  1  0  0  0
  5  6  1  0  0  0
  5 26  1  0  0  0
  5 93  1  0  0  0
  6 25  1  0  0  0
  6 94  1  0  0  0
  6 95  1  0  0  0
  7  8  2  0  0  0
  7 26  1  0  0  0
  7 29  1  0  0  0
  8  9  1  0  0  0
  8 22  1  0  0  0
  9 10  1  0  0  0
  9 27  2  0  0  0
 10 11  2  0  0  0
 10 15  1  0  0  0
 11 12  1  0  0  0
 11 96  1  0  0  0
 12 13  2  0  0  0
 12 97  1  0  0  0
 13 14  1  0  0  0
 13 31  1  0  0  0
 14 15  2  0  0  0
 14 98  1  0  0  0
 15 99  1  0  0  0
 16 17  2  0  0  0
 16 21  1  0  0  0
 16 31  1  0  0  0
 17 18  1  0  0  0
 17100  1  0  0  0
 18 19  2  0  0  0
 18101  1  0  0  0
 19 20  1  0  0  0
 19 24  1  0  0  0
 20 21  2  0  0  0
 20102  1  0  0  0
 21 23  1  0  0  0
 22 28  1  0  0  0
 22 32  2  0  0  0
 26 27  1  0  0  0
 28103  1  0  0  0
 28104  1  0  0  0
 29105  1  0  0  0
 29106  1  0  0  0
 33 34  1  0  0  0
 33 66  1  0  0  0
 33 70  2  0  0  0
 34 36  1  0  0  0
 34 59  1  0  0  0
 34107  1  0  0  0
 35 44  2  0  0  0
 35 45  1  0  0  0
 35 68  1  0  0  0
 36 56  1  0  0  0
 36108  1  0  0  0
 37 39  1  0  0  0
 37 47  1  0  0  0
 37 66  1  0  0  0
 37109  1  0  0  0
 38 43  2  0  0  0
 38 46  1  0  0  0
 38 47  1  0  0  0
 39 64  1  0  0  0
 39 67  2  0  0  0
 40 52  1  0  0  0
 40 53  2  0  0  0
 40 58  1  0  0  0
 41110  1  0  0  0
 41111  1  0  0  0
 41112  1  0  0  0
 41 48  1  0  0  0
 42 43  1  0  0  0
 42 66  1  0  0  0
 42113  1  0  0  0
 42114  1  0  0  0
 43 44  1  0  0  0
 44115  1  0  0  0
 45 46  2  0  0  0
 45116  1  0  0  0
 46117  1  0  0  0
 47118  1  0  0  0
 47119  1  0  0  0
 48 56  1  0  0  0
 48 65  1  0  0  0
 48120  1  0  0  0
 49 50  1  0  0  0
 49 53  1  0  0  0
 49 64  1  0  0  0
 49121  1  0  0  0
 50 51  1  0  0  0
 50122  1  0  0  0
 50123  1  0  0  0
 51 52  1  0  0  0
 51124  1  0  0  0
 51125  1  0  0  0
 52126  1  0  0  0
 52127  1  0  0  0
 53 54  1  0  0  0
 54 55  2  0  0  0
 54128  1  0  0  0
 55 57  1  0  0  0
 55129  1  0  0  0
 56 69  2  0  0  0
 57 58  2  0  0  0
 57130  1  0  0  0
 58131  1  0  0  0
 59 60  1  0  0  0
 59 61  1  0  0  0
 59 62  1  0  0  0
 60132  1  0  0  0
 60133  1  0  0  0
 60134  1  0  0  0
 61135  1  0  0  0
 61136  1  0  0  0
 61137  1  0  0  0
 62138  1  0  0  0
 62139  1  0  0  0
 62140  1  0  0  0
 63 65  1  0  0  0
 63141  1  0  0  0
 63142  1  0  0  0
 63143  1  0  0  0
 64144  1  0  0  0
 65145  1  0  0  0
 68 83  1  0  0  0
 71 73  2  0  0  0
 71 76  1  0  0  0
 71146  1  0  0  0
 72 74  1  0  0  0
 72 76  2  0  0  0
 72147  1  0  0  0
 73 75  1  0  0  0
 73 77  1  0  0  0
 74 75  2  0  0  0
 74 78  1  0  0  0
 75 80  1  0  0  0
 76 86  1  0  0  0
 77 85  2  0  0  0
 78148  1  0  0  0
 78149  1  0  0  0
 78150  1  0  0  0
 79 80  1  0  0  0
 79151  1  0  0  0
 79152  1  0  0  0
 79153  1  0  0  0
 80154  1  0  0  0
 80155  1  0  0  0
 81 82  1  0  0  0
 81 83  1  0  0  0
 81156  1  0  0  0
 81157  1  0  0  0
 82 84  1  0  0  0
 82158  1  0  0  0
 82159  1  0  0  0
 83160  1  0  0  0
 83161  1  0  0  0
 84 86  1  0  0  0
 84162  1  0  0  0
 84163  1  0  0  0
 85164  1  0  0  0
M  ISO  4   1 100  68 101  77 100  83 101
M  END
> <chiral flag>
0

> <version>
0

> <s_m_source_file>
/data/baiqing/PycharmProjects/Reinvent-master-3.2/result/LINK_invent/BTK/process_docking_weight1_custom_product_contain_oxygen_bond_distance_aromatic_linkinvent_7_9_3/rearranged_h_0120.sdf

> <i_m_source_file_index>
79

> <r_mmod_Potential_Energy-OPLS-2005>
207.789916992188

> <r_mmod_Stretch_Energy-OPLS-2005>
76.887580871582

> <r_mmod_Bend_Energy-OPLS-2005>
154.731033325195

> <r_mmod_Torsional_Energy-OPLS-2005>
227.629791259766

> <r_mmod_Improper_Torsional_Energy-OPLS-2005>
7.60967969894409

> <r_mmod_Van_der_Waal_Energy-OPLS-2005>
150.501419067383

> <r_mmod_Electrostatic_Energy-OPLS-2005>
-239.79084777832

> <r_mmod_Solvation_Energy-OPLS-2005>
-194.913284301758

> <b_mmod_Minimization_Converged-OPLS-2005>
0

> <r_mmod_RMS_Derivative-OPLS-2005>
3.36290311813354

$$$$
79
                    3D
 Structure written by MMmdl.
162170  0  0  1  0            999 V2000
  -30.6790  -14.6120   20.3047 C   0  0  0  0  0  0
  -30.4236  -12.3500   19.3908 C   0  0  0  0  0  0
  -29.4659  -12.3967   18.1835 C   0  0  0  0  0  0
  -27.9937  -12.3048   18.6329 C   0  0  0  0  0  0
  -27.6446  -13.1967   19.8580 C   0  0  2  0  0  0
  -28.7243  -13.1194   20.9508 C   0  0  0  0  0  0
  -25.2586  -13.8142   20.5857 C   0  0  0  0  0  0
  -24.1807  -13.0419   20.9246 C   0  0  0  0  0  0
  -24.6360  -11.6890   20.8804 C   0  0  0  0  0  0
  -23.9029  -10.4283   21.0432 C   0  0  0  0  0  0
  -24.3592   -9.4200   21.9205 C   0  0  0  0  0  0
  -23.6270   -8.2236   22.0762 C   0  0  0  0  0  0
  -22.4256   -8.0280   21.3546 C   0  0  0  0  0  0
  -21.9897   -9.0248   20.4639 C   0  0  0  0  0  0
  -22.7219  -10.2129   20.3060 C   0  0  0  0  0  0
  -21.6848   -6.0731   22.5274 C   0  0  0  0  0  0
  -21.4004   -6.5638   23.8204 C   0  0  0  0  0  0
  -21.3653   -5.6793   24.9169 C   0  0  0  0  0  0
  -21.6048   -4.3056   24.7224 C   0  0  0  0  0  0
  -21.8829   -3.8146   23.4346 C   0  0  0  0  0  0
  -21.9197   -4.6959   22.3399 C   0  0  0  0  0  0
  -22.7835  -13.5231   21.1851 C   0  0  0  0  0  0
  -22.1661   -4.2140   21.0976 F   0  0  0  0  0  0
  -21.5633   -3.4545   25.7742 F   0  0  0  0  0  0
  -30.0143  -13.4177   20.3128 N   0  0  0  0  0  0
  -26.2994  -12.9280   20.3516 N   0  0  0  0  0  0
  -25.9298  -11.6458   20.5925 N   0  0  0  0  0  0
  -22.0444  -12.8210   22.0370 N   0  0  0  0  0  0
  -25.4311  -15.1869   20.4406 N   0  0  0  0  0  0
  -31.9010  -14.6523   20.4492 O   0  0  0  0  0  0
  -21.6623   -6.8876   21.4237 O   0  0  0  0  0  0
  -22.3542  -14.5548   20.6700 O   0  0  0  0  0  0
  -24.6197  -31.8636   23.2071 C   0  0  0  0  0  0
  -25.9070  -32.4800   23.8386 C   0  0  1  0  0  0
  -27.2318  -27.3927   20.1159 C   0  0  0  0  0  0
  -25.5907  -33.8597   24.2310 N   0  0  0  0  0  0
  -23.4091  -30.4866   21.5501 C   0  0  2  0  0  0
  -24.8556  -28.9448   20.1171 C   0  0  0  0  0  0
  -22.7429  -29.4644   22.4992 C   0  0  0  0  0  0
  -18.0270  -28.1378   22.8499 C   0  0  0  0  0  0
  -24.1477  -36.7300   23.2648 C   0  0  0  0  0  0
  -25.9410  -30.8207   21.3615 C   0  0  0  0  0  0
  -26.0200  -29.4512   20.7099 C   0  0  0  0  0  0
  -27.2148  -28.6857   20.6985 C   0  0  0  0  0  0
  -26.0508  -26.9111   19.5123 C   0  0  0  0  0  0
  -24.8679  -27.6756   19.5128 C   0  0  0  0  0  0
  -23.6183  -29.8149   20.1664 C   0  0  0  0  0  0
  -25.4105  -36.3092   24.0334 C   0  0  1  0  0  0
  -20.5863  -28.3669   23.1311 C   0  0  2  0  0  0
  -20.6757  -26.9405   22.5410 C   0  0  0  0  0  0
  -19.5731  -26.6384   21.5212 C   0  0  0  0  0  0
  -18.1909  -26.7928   22.1623 C   0  0  0  0  0  0
  -19.1520  -28.8843   23.2896 C   0  0  0  0  0  0
  -18.9448  -30.1451   23.8903 C   0  0  0  0  0  0
  -17.6448  -30.6590   24.0566 C   0  0  0  0  0  0
  -25.9033  -34.9459   23.5116 C   0  0  0  0  0  0
  -16.5338  -29.9086   23.6344 C   0  0  0  0  0  0
  -16.7259  -28.6499   23.0372 C   0  0  0  0  0  0
  -26.4498  -31.6597   25.0731 C   0  0  0  0  0  0
  -25.3764  -31.3640   26.1462 C   0  0  0  0  0  0
  -27.0397  -30.3069   24.6111 C   0  0  0  0  0  0
  -27.6028  -32.4357   25.7526 C   0  0  0  0  0  0
  -27.5563  -37.1814   24.8472 C   0  0  0  0  0  0
  -21.4153  -29.3031   22.3719 N   0  0  0  0  0  0
  -26.4284  -37.3782   23.9403 N   0  0  0  0  0  0
  -24.6756  -31.0716   22.0981 N   0  0  0  0  0  0
  -23.4179  -28.8189   23.3051 O   0  0  0  0  0  0
  -28.3708  -26.6025   20.1217 O   0  0  0  0  0  0
  -26.5601  -34.8923   22.4680 O   0  0  0  0  0  0
  -23.5379  -32.1388   23.7451 O   0  0  0  0  0  0
  -27.1181  -17.9718   18.9873 C   0  0  0  0  0  0
  -29.5792  -17.9136   20.2899 C   0  0  0  0  0  0
  -27.4834  -19.0708   19.7855 C   0  0  0  0  0  0
  -29.1981  -16.7655   19.5237 C   0  0  0  0  0  0
  -27.9739  -16.8726   18.7900 C   0  0  0  0  0  0
  -28.7804  -19.0981   20.3571 C   0  0  0  0  0  0
  -25.5318  -20.5250   19.1386 C   0  0  0  0  0  0
  -26.5423  -20.1925   19.9606 C   0  0  0  0  0  0
  -30.1848  -15.6471   19.2427 C   0  0  0  0  0  0
  -27.5289  -15.9104   17.6890 C   0  0  0  0  0  0
  -28.9204  -24.0992   20.1068 C   0  0  0  0  0  0
  -28.8249  -22.7538   20.9092 C   0  0  0  0  0  0
  -28.2490  -25.3261   20.8077 C   0  0  0  0  0  0
  -29.3562  -21.4659   20.1899 C   0  0  0  0  0  0
  -30.7002  -15.6264   18.0804 N   0  0  0  0  0  0
  -29.2601  -20.2478   20.9823 O   0  0  0  0  0  0
  -31.4522  -12.4791   19.0479 H   0  0  0  0  0  0
  -30.3825  -11.3786   19.8859 H   0  0  0  0  0  0
  -29.6909  -11.5726   17.5047 H   0  0  0  0  0  0
  -29.6221  -13.2986   17.5972 H   0  0  0  0  0  0
  -27.8086  -11.2600   18.8830 H   0  0  0  0  0  0
  -27.3282  -12.5328   17.7991 H   0  0  0  0  0  0
  -27.6430  -14.2221   19.5260 H   0  0  0  0  0  0
  -28.7494  -12.1241   21.3982 H   0  0  0  0  0  0
  -28.5158  -13.8241   21.7575 H   0  0  0  0  0  0
  -25.2735   -9.5688   22.4784 H   0  0  0  0  0  0
  -23.9986   -7.4632   22.7483 H   0  0  0  0  0  0
  -21.0842   -8.8763   19.8920 H   0  0  0  0  0  0
  -22.3691  -10.9675   19.6168 H   0  0  0  0  0  0
  -21.1977   -7.6142   23.9702 H   0  0  0  0  0  0
  -21.1464   -6.0521   25.9069 H   0  0  0  0  0  0
  -22.0613   -2.7611   23.2848 H   0  0  0  0  0  0
  -22.4022  -11.9822   22.4694 H   0  0  0  0  0  0
  -21.1057  -13.1236   22.2538 H   0  0  0  0  0  0
  -24.6715  -15.8440   20.5794 H   0  0  0  0  0  0
  -26.3034  -15.6404   20.1996 H   0  0  0  0  0  0
  -26.7147  -32.5508   23.1152 H   0  0  0  0  0  0
  -25.0074  -33.9754   25.0468 H   0  0  0  0  0  0
  -22.6997  -31.3043   21.4087 H   0  0  0  0  0  0
  -23.3737  -35.9637   23.3323 H   0  0  0  0  0  0
  -24.3550  -36.8910   22.2059 H   0  0  0  0  0  0
  -23.7237  -37.6504   23.6674 H   0  0  0  0  0  0
  -26.0521  -31.5830   20.5900 H   0  0  0  0  0  0
  -26.8290  -30.8788   21.9794 H   0  0  0  0  0  0
  -28.1144  -29.0723   21.1577 H   0  0  0  0  0  0
  -26.0421  -25.9338   19.0503 H   0  0  0  0  0  0
  -23.9725  -27.2775   19.0552 H   0  0  0  0  0  0
  -23.7245  -30.5872   19.4045 H   0  0  0  0  0  0
  -22.7416  -29.2337   19.8750 H   0  0  0  0  0  0
  -25.1285  -36.1951   25.0828 H   0  0  0  0  0  0
  -20.9950  -28.3234   24.1433 H   0  0  0  0  0  0
  -20.5668  -26.2272   23.3592 H   0  0  0  0  0  0
  -21.6624  -26.7449   22.1195 H   0  0  0  0  0  0
  -19.6884  -25.6296   21.1234 H   0  0  0  0  0  0
  -19.6664  -27.3198   20.6746 H   0  0  0  0  0  0
  -17.4179  -26.6697   21.4022 H   0  0  0  0  0  0
  -18.0295  -26.0061   22.9008 H   0  0  0  0  0  0
  -19.7923  -30.7268   24.2268 H   0  0  0  0  0  0
  -17.5007  -31.6275   24.5158 H   0  0  0  0  0  0
  -15.5340  -30.2991   23.7665 H   0  0  0  0  0  0
  -15.8655  -28.0813   22.7102 H   0  0  0  0  0  0
  -24.5945  -30.6996   25.7764 H   0  0  0  0  0  0
  -24.8952  -32.2767   26.4983 H   0  0  0  0  0  0
  -25.8124  -30.8747   27.0180 H   0  0  0  0  0  0
  -26.2972  -29.6769   24.1203 H   0  0  0  0  0  0
  -27.4247  -29.7354   25.4566 H   0  0  0  0  0  0
  -27.8749  -30.4438   23.9236 H   0  0  0  0  0  0
  -27.2607  -33.3653   26.2088 H   0  0  0  0  0  0
  -28.3861  -32.6923   25.0383 H   0  0  0  0  0  0
  -28.0684  -31.8506   26.5467 H   0  0  0  0  0  0
  -28.2583  -38.0110   24.7522 H   0  0  0  0  0  0
  -28.1055  -36.2633   24.6317 H   0  0  0  0  0  0
  -27.2266  -37.1490   25.8872 H   0  0  0  0  0  0
  -20.9316  -29.8747   21.6932 H   0  0  0  0  0  0
  -26.0161  -38.2856   24.1402 H   0  0  0  0  0  0
  -26.1683  -17.9795   18.4739 H   0  0  0  0  0  0
  -30.5538  -17.9265   20.7574 H   0  0  0  0  0  0
  -24.8879  -21.3615   19.3721 H   0  0  0  0  0  0
  -25.3244  -19.9870   18.2248 H   0  0  0  0  0  0
  -26.6738  -20.7768   20.8582 H   0  0  0  0  0  0
  -26.5323  -15.5200   17.8956 H   0  0  0  0  0  0
  -28.1874  -15.0632   17.5237 H   0  0  0  0  0  0
  -27.4707  -16.4493   16.7429 H   0  0  0  0  0  0
  -28.4606  -23.9644   19.1269 H   0  0  0  0  0  0
  -29.9703  -24.3248   19.9183 H   0  0  0  0  0  0
  -27.7829  -22.6033   21.1850 H   0  0  0  0  0  0
  -29.3592  -22.8695   21.8530 H   0  0  0  0  0  0
  -28.7047  -25.4557   21.7902 H   0  0  0  0  0  0
  -27.2069  -25.0756   21.0104 H   0  0  0  0  0  0
  -30.4121  -21.6067   19.9546 H   0  0  0  0  0  0
  -28.8626  -21.3604   19.2230 H   0  0  0  0  0  0
  -30.3196  -16.3694   17.5067 H   0  0  0  0  0  0
  1 25  1  0  0  0
  1 30  2  0  0  0
  1 79  1  0  0  0
  2  3  1  0  0  0
  2 25  1  0  0  0
  2 87  1  0  0  0
  2 88  1  0  0  0
  3  4  1  0  0  0
  3 89  1  0  0  0
  3 90  1  0  0  0
  4  5  1  0  0  0
  4 91  1  0  0  0
  4 92  1  0  0  0
  5  6  1  0  0  0
  5 26  1  0  0  0
  5 93  1  0  0  0
  6 25  1  0  0  0
  6 94  1  0  0  0
  6 95  1  0  0  0
  7  8  2  0  0  0
  7 26  1  0  0  0
  7 29  1  0  0  0
  8  9  1  0  0  0
  8 22  1  0  0  0
  9 10  1  0  0  0
  9 27  2  0  0  0
 10 11  2  0  0  0
 10 15  1  0  0  0
 11 12  1  0  0  0
 11 96  1  0  0  0
 12 13  2  0  0  0
 12 97  1  0  0  0
 13 14  1  0  0  0
 13 31  1  0  0  0
 14 15  2  0  0  0
 14 98  1  0  0  0
 15 99  1  0  0  0
 16 17  2  0  0  0
 16 21  1  0  0  0
 16 31  1  0  0  0
 17 18  1  0  0  0
 17100  1  0  0  0
 18 19  2  0  0  0
 18101  1  0  0  0
 19 20  1  0  0  0
 19 24  1  0  0  0
 20 21  2  0  0  0
 20102  1  0  0  0
 21 23  1  0  0  0
 22 28  1  0  0  0
 22 32  2  0  0  0
 26 27  1  0  0  0
 28103  1  0  0  0
 28104  1  0  0  0
 29105  1  0  0  0
 29106  1  0  0  0
 33 34  1  0  0  0
 33 66  1  0  0  0
 33 70  2  0  0  0
 34 36  1  0  0  0
 34 59  1  0  0  0
 34107  1  0  0  0
 35 44  2  0  0  0
 35 45  1  0  0  0
 35 68  1  0  0  0
 36 56  1  0  0  0
 36108  1  0  0  0
 37 39  1  0  0  0
 37 47  1  0  0  0
 37 66  1  0  0  0
 37109  1  0  0  0
 38 43  2  0  0  0
 38 46  1  0  0  0
 38 47  1  0  0  0
 39 64  1  0  0  0
 39 67  2  0  0  0
 40 52  1  0  0  0
 40 53  2  0  0  0
 40 58  1  0  0  0
 41110  1  0  0  0
 41111  1  0  0  0
 41112  1  0  0  0
 41 48  1  0  0  0
 42 43  1  0  0  0
 42 66  1  0  0  0
 42113  1  0  0  0
 42114  1  0  0  0
 43 44  1  0  0  0
 44115  1  0  0  0
 45 46  2  0  0  0
 45116  1  0  0  0
 46117  1  0  0  0
 47118  1  0  0  0
 47119  1  0  0  0
 48 56  1  0  0  0
 48 65  1  0  0  0
 48120  1  0  0  0
 49 50  1  0  0  0
 49 53  1  0  0  0
 49 64  1  0  0  0
 49121  1  0  0  0
 50 51  1  0  0  0
 50122  1  0  0  0
 50123  1  0  0  0
 51 52  1  0  0  0
 51124  1  0  0  0
 51125  1  0  0  0
 52126  1  0  0  0
 52127  1  0  0  0
 53 54  1  0  0  0
 54 55  2  0  0  0
 54128  1  0  0  0
 55 57  1  0  0  0
 55129  1  0  0  0
 56 69  2  0  0  0
 57 58  2  0  0  0
 57130  1  0  0  0
 58131  1  0  0  0
 59 60  1  0  0  0
 59 61  1  0  0  0
 59 62  1  0  0  0
 60132  1  0  0  0
 60133  1  0  0  0
 60134  1  0  0  0
 61135  1  0  0  0
 61136  1  0  0  0
 61137  1  0  0  0
 62138  1  0  0  0
 62139  1  0  0  0
 62140  1  0  0  0
 63 65  1  0  0  0
 63141  1  0  0  0
 63142  1  0  0  0
 63143  1  0  0  0
 64144  1  0  0  0
 65145  1  0  0  0
 68 83  1  0  0  0
 71 73  2  0  0  0
 71 75  1  0  0  0
 71146  1  0  0  0
 72 74  1  0  0  0
 72 76  2  0  0  0
 72147  1  0  0  0
 73 76  1  0  0  0
 73 78  1  0  0  0
 74 75  2  0  0  0
 74 79  1  0  0  0
 75 80  1  0  0  0
 76 86  1  0  0  0
 77 78  2  0  0  0
 77148  1  0  0  0
 77149  1  0  0  0
 78150  1  0  0  0
 79 85  2  0  0  0
 80151  1  0  0  0
 80152  1  0  0  0
 80153  1  0  0  0
 81 82  1  0  0  0
 81 83  1  0  0  0
 81154  1  0  0  0
 81155  1  0  0  0
 82 84  1  0  0  0
 82156  1  0  0  0
 82157  1  0  0  0
 83158  1  0  0  0
 83159  1  0  0  0
 84 86  1  0  0  0
 84160  1  0  0  0
 84161  1  0  0  0
 85162  1  0  0  0
M  ISO  4   1 100  68 101  79 100  83 101
M  END
> <chiral flag>
0

> <version>
0

> <s_m_source_file>
/data/baiqing/PycharmProjects/Reinvent-master-3.2/result/LINK_invent/BTK/process_docking_weight1_custom_product_contain_oxygen_bond_distance_aromatic_linkinvent_7_9_3/rearranged_h_0120.sdf

> <i_m_source_file_index>
80

> <r_mmod_Potential_Energy-OPLS-2005>
356.248016357422

> <r_mmod_Stretch_Energy-OPLS-2005>
61.0302543640137

> <r_mmod_Bend_Energy-OPLS-2005>
134.018325805664

> <r_mmod_Torsional_Energy-OPLS-2005>
340.162811279297

> <r_mmod_Improper_Torsional_Energy-OPLS-2005>
36.6815986633301

> <r_mmod_Van_der_Waal_Energy-OPLS-2005>
145.482498168945

> <r_mmod_Electrostatic_Energy-OPLS-2005>
-226.880081176758

> <r_mmod_Solvation_Energy-OPLS-2005>
-197.050018310547

> <b_mmod_Minimization_Converged-OPLS-2005>
0

> <r_mmod_RMS_Derivative-OPLS-2005>
1.68657004833221

$$$$
80
                    3D
 Structure written by MMmdl.
159167  0  0  1  0            999 V2000
  -30.7678  -14.4771   20.6308 C   0  0  0  0  0  0
  -30.4196  -12.3372   19.4353 C   0  0  0  0  0  0
  -29.4925  -12.5126   18.2188 C   0  0  0  0  0  0
  -28.0272  -12.3138   18.6402 C   0  0  0  0  0  0
  -27.6596  -13.1837   19.8648 C   0  0  2  0  0  0
  -28.7021  -13.0494   21.0048 C   0  0  0  0  0  0
  -25.2603  -13.8086   20.5583 C   0  0  0  0  0  0
  -24.1836  -13.0401   20.9105 C   0  0  0  0  0  0
  -24.6379  -11.6869   20.8710 C   0  0  0  0  0  0
  -23.9023  -10.4280   21.0390 C   0  0  0  0  0  0
  -24.3589   -9.4215   21.9179 C   0  0  0  0  0  0
  -23.6281   -8.2241   22.0746 C   0  0  0  0  0  0
  -22.4270   -8.0277   21.3525 C   0  0  0  0  0  0
  -21.9882   -9.0245   20.4629 C   0  0  0  0  0  0
  -22.7197  -10.2126   20.3037 C   0  0  0  0  0  0
  -21.6850   -6.0731   22.5273 C   0  0  0  0  0  0
  -21.4024   -6.5642   23.8212 C   0  0  0  0  0  0
  -21.3650   -5.6791   24.9170 C   0  0  0  0  0  0
  -21.6027   -4.3056   24.7212 C   0  0  0  0  0  0
  -21.8833   -3.8145   23.4345 C   0  0  0  0  0  0
  -21.9205   -4.6957   22.3395 C   0  0  0  0  0  0
  -22.7873  -13.5230   21.1824 C   0  0  0  0  0  0
  -22.1671   -4.2136   21.0976 F   0  0  0  0  0  0
  -21.5601   -3.4553   25.7734 F   0  0  0  0  0  0
  -30.0444  -13.3292   20.4605 N   0  0  0  0  0  0
  -26.3024  -12.9200   20.3320 N   0  0  0  0  0  0
  -25.9310  -11.6388   20.5778 N   0  0  0  0  0  0
  -22.0537  -12.8211   22.0406 N   0  0  0  0  0  0
  -25.4358  -15.1795   20.4000 N   0  0  0  0  0  0
  -31.8042  -14.6999   20.0004 O   0  0  0  0  0  0
  -21.6645   -6.8873   21.4233 O   0  0  0  0  0  0
  -22.3530  -14.5528   20.6674 O   0  0  0  0  0  0
  -24.6174  -31.8663   23.2059 C   0  0  0  0  0  0
  -25.9045  -32.4804   23.8393 C   0  0  1  0  0  0
  -27.2292  -27.4252   20.1063 C   0  0  0  0  0  0
  -25.5898  -33.8608   24.2330 N   0  0  0  0  0  0
  -23.4017  -30.4935   21.5458 C   0  0  2  0  0  0
  -24.8512  -28.9569   20.1095 C   0  0  0  0  0  0
  -22.7414  -29.4664   22.4933 C   0  0  0  0  0  0
  -18.0264  -28.1378   22.8456 C   0  0  0  0  0  0
  -24.1488  -36.7319   23.2646 C   0  0  0  0  0  0
  -25.9324  -30.8374   21.3518 C   0  0  0  0  0  0
  -26.0122  -29.4680   20.7045 C   0  0  0  0  0  0
  -27.2078  -28.7099   20.6976 C   0  0  0  0  0  0
  -26.0538  -26.9305   19.5029 C   0  0  0  0  0  0
  -24.8657  -27.6882   19.5036 C   0  0  0  0  0  0
  -23.6130  -29.8250   20.1600 C   0  0  0  0  0  0
  -25.4094  -36.3095   24.0347 C   0  0  1  0  0  0
  -20.5856  -28.3640   23.1318 C   0  0  2  0  0  0
  -20.6766  -26.9371   22.5409 C   0  0  0  0  0  0
  -19.5754  -26.6372   21.5195 C   0  0  0  0  0  0
  -18.1918  -26.7930   22.1586 C   0  0  0  0  0  0
  -19.1509  -28.8825   23.2893 C   0  0  0  0  0  0
  -18.9449  -30.1437   23.8891 C   0  0  0  0  0  0
  -17.6456  -30.6580   24.0535 C   0  0  0  0  0  0
  -25.9028  -34.9467   23.5130 C   0  0  0  0  0  0
  -16.5345  -29.9060   23.6339 C   0  0  0  0  0  0
  -16.7258  -28.6488   23.0333 C   0  0  0  0  0  0
  -26.4463  -31.6594   25.0733 C   0  0  0  0  0  0
  -25.3737  -31.3675   26.1501 C   0  0  0  0  0  0
  -27.0286  -30.3047   24.6071 C   0  0  0  0  0  0
  -27.6054  -32.4296   25.7481 C   0  0  0  0  0  0
  -27.5555  -37.1797   24.8466 C   0  0  0  0  0  0
  -21.4131  -29.3018   22.3722 N   0  0  0  0  0  0
  -26.4261  -37.3790   23.9425 N   0  0  0  0  0  0
  -24.6693  -31.0786   22.0943 N   0  0  0  0  0  0
  -23.4208  -28.8204   23.2941 O   0  0  0  0  0  0
  -28.3543  -26.6278   20.1369 O   0  0  0  0  0  0
  -26.5594  -34.8895   22.4699 O   0  0  0  0  0  0
  -23.5363  -32.1396   23.7462 O   0  0  0  0  0  0
  -30.5970  -19.0706   21.8382 C   0  0  0  0  0  0
  -28.5071  -18.4321   20.7936 C   0  0  0  0  0  0
  -29.3375  -19.4528   21.2994 C   0  0  0  0  0  0
  -30.1130  -16.6927   21.4314 C   0  0  0  0  0  0
  -30.9892  -17.6974   21.9186 C   0  0  0  0  0  0
  -28.8856  -17.0812   20.8562 C   0  0  0  0  0  0
  -34.0273  -18.5913   20.6751 C   0  0  0  0  0  0
  -33.9324  -18.9327   21.9714 C   0  0  0  0  0  0
  -28.8737  -24.3339   20.7619 C   0  0  0  0  0  0
  -28.2625  -25.5241   20.9626 C   0  0  0  0  0  0
  -29.4327  -21.8476   21.4177 C   0  0  0  0  0  0
  -28.7134  -23.1650   21.7409 C   0  0  0  0  0  0
  -33.1024  -18.2084   23.0218 C   0  0  0  0  0  0
  -28.7785  -20.7499   21.3454 N   0  0  0  0  0  0
  -30.4128  -15.3052   21.6283 N   0  0  0  0  0  0
  -32.1863  -17.2625   22.4671 O   0  0  0  0  0  0
  -28.0201  -16.1500   20.4124 F   0  0  0  0  0  0
  -31.4641  -12.4256   19.1281 H   0  0  0  0  0  0
  -30.3186  -11.3309   19.8445 H   0  0  0  0  0  0
  -29.7532  -11.8013   17.4353 H   0  0  0  0  0  0
  -29.6250  -13.5055   17.7863 H   0  0  0  0  0  0
  -27.8848  -11.2578   18.8774 H   0  0  0  0  0  0
  -27.3572  -12.5345   17.8087 H   0  0  0  0  0  0
  -27.6768  -14.1951   19.4775 H   0  0  0  0  0  0
  -28.6856  -12.0452   21.4319 H   0  0  0  0  0  0
  -28.4372  -13.7188   21.8249 H   0  0  0  0  0  0
  -25.2739   -9.5706   22.4740 H   0  0  0  0  0  0
  -24.0003   -7.4635   22.7461 H   0  0  0  0  0  0
  -21.0823   -8.8761   19.8923 H   0  0  0  0  0  0
  -22.3668  -10.9659   19.6138 H   0  0  0  0  0  0
  -21.2034   -7.6159   23.9698 H   0  0  0  0  0  0
  -21.1446   -6.0530   25.9060 H   0  0  0  0  0  0
  -22.0624   -2.7604   23.2856 H   0  0  0  0  0  0
  -22.4204  -11.9869   22.4742 H   0  0  0  0  0  0
  -21.1151  -13.1172   22.2626 H   0  0  0  0  0  0
  -24.6933  -15.8600   20.5155 H   0  0  0  0  0  0
  -26.3437  -15.6032   20.2166 H   0  0  0  0  0  0
  -26.7129  -32.5505   23.1180 H   0  0  0  0  0  0
  -25.0093  -33.9788   25.0507 H   0  0  0  0  0  0
  -22.6896  -31.3098   21.4018 H   0  0  0  0  0  0
  -23.3729  -35.9669   23.3309 H   0  0  0  0  0  0
  -24.3594  -36.8936   22.2065 H   0  0  0  0  0  0
  -23.7261  -37.6540   23.6657 H   0  0  0  0  0  0
  -26.0481  -31.5999   20.5796 H   0  0  0  0  0  0
  -26.8248  -30.8976   21.9625 H   0  0  0  0  0  0
  -28.1064  -29.0904   21.1640 H   0  0  0  0  0  0
  -26.0545  -25.9502   19.0500 H   0  0  0  0  0  0
  -23.9672  -27.2899   19.0525 H   0  0  0  0  0  0
  -23.7253  -30.6029   19.4034 H   0  0  0  0  0  0
  -22.7370  -29.2472   19.8605 H   0  0  0  0  0  0
  -25.1268  -36.1946   25.0842 H   0  0  0  0  0  0
  -20.9957  -28.3182   24.1438 H   0  0  0  0  0  0
  -20.5642  -26.2215   23.3562 H   0  0  0  0  0  0
  -21.6627  -26.7412   22.1183 H   0  0  0  0  0  0
  -19.6909  -25.6286   21.1198 H   0  0  0  0  0  0
  -19.6723  -27.3198   20.6728 H   0  0  0  0  0  0
  -17.4187  -26.6660   21.3988 H   0  0  0  0  0  0
  -18.0318  -26.0093   22.8997 H   0  0  0  0  0  0
  -19.7939  -30.7245   24.2232 H   0  0  0  0  0  0
  -17.5025  -31.6259   24.5130 H   0  0  0  0  0  0
  -15.5349  -30.2940   23.7723 H   0  0  0  0  0  0
  -15.8653  -28.0824   22.7040 H   0  0  0  0  0  0
  -24.5929  -30.6991   25.7861 H   0  0  0  0  0  0
  -24.8921  -32.2821   26.4971 H   0  0  0  0  0  0
  -25.8149  -30.8858   27.0241 H   0  0  0  0  0  0
  -26.2835  -29.6804   24.1130 H   0  0  0  0  0  0
  -27.4122  -29.7250   25.4480 H   0  0  0  0  0  0
  -27.8618  -30.4393   23.9173 H   0  0  0  0  0  0
  -27.2720  -33.3588   26.2093 H   0  0  0  0  0  0
  -28.3853  -32.6867   25.0315 H   0  0  0  0  0  0
  -28.0737  -31.8406   26.5381 H   0  0  0  0  0  0
  -28.2575  -38.0092   24.7501 H   0  0  0  0  0  0
  -28.1045  -36.2619   24.6276 H   0  0  0  0  0  0
  -27.2293  -37.1443   25.8879 H   0  0  0  0  0  0
  -20.9250  -29.8758   21.7000 H   0  0  0  0  0  0
  -26.0139  -38.2856   24.1448 H   0  0  0  0  0  0
  -31.2412  -19.8428   22.2308 H   0  0  0  0  0  0
  -27.5318  -18.6735   20.3942 H   0  0  0  0  0  0
  -34.6405  -19.1578   19.9884 H   0  0  0  0  0  0
  -33.5001  -17.7369   20.2752 H   0  0  0  0  0  0
  -34.4919  -19.7855   22.3324 H   0  0  0  0  0  0
  -29.4966  -24.1773   19.8909 H   0  0  0  0  0  0
  -27.6314  -25.7133   21.8216 H   0  0  0  0  0  0
  -30.5200  -21.9115   21.3138 H   0  0  0  0  0  0
  -27.6455  -22.9616   21.8415 H   0  0  0  0  0  0
  -29.0399  -23.4952   22.7289 H   0  0  0  0  0  0
  -32.6013  -18.9198   23.6788 H   0  0  0  0  0  0
  -33.7963  -17.6639   23.6612 H   0  0  0  0  0  0
  -31.0524  -15.1899   22.4008 H   0  0  0  0  0  0
  1 25  1  0  0  0
  1 30  2  0  0  0
  1 85  1  0  0  0
  2  3  1  0  0  0
  2 25  1  0  0  0
  2 88  1  0  0  0
  2 89  1  0  0  0
  3  4  1  0  0  0
  3 90  1  0  0  0
  3 91  1  0  0  0
  4  5  1  0  0  0
  4 92  1  0  0  0
  4 93  1  0  0  0
  5  6  1  0  0  0
  5 26  1  0  0  0
  5 94  1  0  0  0
  6 25  1  0  0  0
  6 95  1  0  0  0
  6 96  1  0  0  0
  7  8  2  0  0  0
  7 26  1  0  0  0
  7 29  1  0  0  0
  8  9  1  0  0  0
  8 22  1  0  0  0
  9 10  1  0  0  0
  9 27  2  0  0  0
 10 11  2  0  0  0
 10 15  1  0  0  0
 11 12  1  0  0  0
 11 97  1  0  0  0
 12 13  2  0  0  0
 12 98  1  0  0  0
 13 14  1  0  0  0
 13 31  1  0  0  0
 14 15  2  0  0  0
 14 99  1  0  0  0
 15100  1  0  0  0
 16 17  2  0  0  0
 16 21  1  0  0  0
 16 31  1  0  0  0
 17 18  1  0  0  0
 17101  1  0  0  0
 18 19  2  0  0  0
 18102  1  0  0  0
 19 20  1  0  0  0
 19 24  1  0  0  0
 20 21  2  0  0  0
 20103  1  0  0  0
 21 23  1  0  0  0
 22 28  1  0  0  0
 22 32  2  0  0  0
 26 27  1  0  0  0
 28104  1  0  0  0
 28105  1  0  0  0
 29106  1  0  0  0
 29107  1  0  0  0
 33 34  1  0  0  0
 33 66  1  0  0  0
 33 70  2  0  0  0
 34 36  1  0  0  0
 34 59  1  0  0  0
 34108  1  0  0  0
 35 44  2  0  0  0
 35 45  1  0  0  0
 35 68  1  0  0  0
 36 56  1  0  0  0
 36109  1  0  0  0
 37 39  1  0  0  0
 37 47  1  0  0  0
 37 66  1  0  0  0
 37110  1  0  0  0
 38 43  2  0  0  0
 38 46  1  0  0  0
 38 47  1  0  0  0
 39 64  1  0  0  0
 39 67  2  0  0  0
 40 52  1  0  0  0
 40 53  2  0  0  0
 40 58  1  0  0  0
 41111  1  0  0  0
 41112  1  0  0  0
 41113  1  0  0  0
 41 48  1  0  0  0
 42 43  1  0  0  0
 42 66  1  0  0  0
 42114  1  0  0  0
 42115  1  0  0  0
 43 44  1  0  0  0
 44116  1  0  0  0
 45 46  2  0  0  0
 45117  1  0  0  0
 46118  1  0  0  0
 47119  1  0  0  0
 47120  1  0  0  0
 48 56  1  0  0  0
 48 65  1  0  0  0
 48121  1  0  0  0
 49 50  1  0  0  0
 49 53  1  0  0  0
 49 64  1  0  0  0
 49122  1  0  0  0
 50 51  1  0  0  0
 50123  1  0  0  0
 50124  1  0  0  0
 51 52  1  0  0  0
 51125  1  0  0  0
 51126  1  0  0  0
 52127  1  0  0  0
 52128  1  0  0  0
 53 54  1  0  0  0
 54 55  2  0  0  0
 54129  1  0  0  0
 55 57  1  0  0  0
 55130  1  0  0  0
 56 69  2  0  0  0
 57 58  2  0  0  0
 57131  1  0  0  0
 58132  1  0  0  0
 59 60  1  0  0  0
 59 61  1  0  0  0
 59 62  1  0  0  0
 60133  1  0  0  0
 60134  1  0  0  0
 60135  1  0  0  0
 61136  1  0  0  0
 61137  1  0  0  0
 61138  1  0  0  0
 62139  1  0  0  0
 62140  1  0  0  0
 62141  1  0  0  0
 63 65  1  0  0  0
 63142  1  0  0  0
 63143  1  0  0  0
 63144  1  0  0  0
 64145  1  0  0  0
 65146  1  0  0  0
 68 80  1  0  0  0
 71 73  2  0  0  0
 71 75  1  0  0  0
 71147  1  0  0  0
 72 73  1  0  0  0
 72 76  2  0  0  0
 72148  1  0  0  0
 73 84  1  0  0  0
 74 75  2  0  0  0
 74 76  1  0  0  0
 74 85  1  0  0  0
 75 86  1  0  0  0
 76 87  1  0  0  0
 77 78  2  0  0  0
 77149  1  0  0  0
 77150  1  0  0  0
 78 83  1  0  0  0
 78151  1  0  0  0
 79 80  2  0  0  0
 79 82  1  0  0  0
 79152  1  0  0  0
 80153  1  0  0  0
 81 82  1  0  0  0
 81 84  2  0  0  0
 81154  1  0  0  0
 82155  1  0  0  0
 82156  1  0  0  0
 83 86  1  0  0  0
 83157  1  0  0  0
 83158  1  0  0  0
 85159  1  0  0  0
M  ISO  4   1 100  68 101  80 101  85 100
M  END
> <chiral flag>
0

> <version>
0

> <s_m_source_file>
/data/baiqing/PycharmProjects/Reinvent-master-3.2/result/LINK_invent/BTK/process_docking_weight1_custom_product_contain_oxygen_bond_distance_aromatic_linkinvent_7_9_3/rearranged_h_0120.sdf

> <i_m_source_file_index>
81

> <r_mmod_Potential_Energy-OPLS-2005>
-12.8523645401001

> <r_mmod_Stretch_Energy-OPLS-2005>
43.2447891235352

> <r_mmod_Bend_Energy-OPLS-2005>
132.606155395508

> <r_mmod_Torsional_Energy-OPLS-2005>
282.895904541016

> <r_mmod_Improper_Torsional_Energy-OPLS-2005>
8.96792030334473

> <r_mmod_Van_der_Waal_Energy-OPLS-2005>
152.554397583008

> <r_mmod_Electrostatic_Energy-OPLS-2005>
-453.627136230469

> <r_mmod_Solvation_Energy-OPLS-2005>
-196.416931152344

> <b_mmod_Minimization_Converged-OPLS-2005>
0

> <r_mmod_RMS_Derivative-OPLS-2005>
3.69343066215515

$$$$
81
                    3D
 Structure written by MMmdl.
159167  0  0  1  0            999 V2000
  -30.7517  -14.4201   20.5445 C   0  0  0  0  0  0
  -30.4074  -12.2753   19.4037 C   0  0  0  0  0  0
  -29.4776  -12.4786   18.1896 C   0  0  0  0  0  0
  -28.0024  -12.3490   18.6160 C   0  0  0  0  0  0
  -27.6588  -13.2043   19.8661 C   0  0  2  0  0  0
  -28.7068  -13.0043   20.9856 C   0  0  0  0  0  0
  -25.2622  -13.8148   20.5713 C   0  0  0  0  0  0
  -24.1852  -13.0427   20.9189 C   0  0  0  0  0  0
  -24.6387  -11.6893   20.8737 C   0  0  0  0  0  0
  -23.9023  -10.4306   21.0413 C   0  0  0  0  0  0
  -24.3590   -9.4227   21.9177 C   0  0  0  0  0  0
  -23.6290   -8.2245   22.0749 C   0  0  0  0  0  0
  -22.4279   -8.0279   21.3526 C   0  0  0  0  0  0
  -21.9901   -9.0247   20.4625 C   0  0  0  0  0  0
  -22.7203  -10.2151   20.3051 C   0  0  0  0  0  0
  -21.6851   -6.0741   22.5266 C   0  0  0  0  0  0
  -21.3991   -6.5642   23.8199 C   0  0  0  0  0  0
  -21.3664   -5.6791   24.9157 C   0  0  0  0  0  0
  -21.6062   -4.3058   24.7211 C   0  0  0  0  0  0
  -21.8811   -3.8153   23.4326 C   0  0  0  0  0  0
  -21.9195   -4.6971   22.3390 C   0  0  0  0  0  0
  -22.7882  -13.5259   21.1842 C   0  0  0  0  0  0
  -22.1666   -4.2166   21.0963 F   0  0  0  0  0  0
  -21.5659   -3.4541   25.7723 F   0  0  0  0  0  0
  -30.0371  -13.2725   20.4183 N   0  0  0  0  0  0
  -26.3032  -12.9307   20.3373 N   0  0  0  0  0  0
  -25.9322  -11.6462   20.5770 N   0  0  0  0  0  0
  -22.0474  -12.8251   22.0376 N   0  0  0  0  0  0
  -25.4363  -15.1855   20.4149 N   0  0  0  0  0  0
  -31.8989  -14.5430   20.1085 O   0  0  0  0  0  0
  -21.6642   -6.8883   21.4227 O   0  0  0  0  0  0
  -22.3573  -14.5567   20.6707 O   0  0  0  0  0  0
  -24.6119  -31.8688   23.2091 C   0  0  0  0  0  0
  -25.9020  -32.4823   23.8384 C   0  0  1  0  0  0
  -27.2359  -27.4449   20.0680 C   0  0  0  0  0  0
  -25.5894  -33.8629   24.2319 N   0  0  0  0  0  0
  -23.3992  -30.4935   21.5477 C   0  0  2  0  0  0
  -24.8432  -28.9546   20.1160 C   0  0  0  0  0  0
  -22.7369  -29.4674   22.4939 C   0  0  0  0  0  0
  -18.0274  -28.1355   22.8487 C   0  0  0  0  0  0
  -24.1485  -36.7329   23.2636 C   0  0  0  0  0  0
  -25.9294  -30.8283   21.3657 C   0  0  0  0  0  0
  -26.0007  -29.4624   20.7159 C   0  0  0  0  0  0
  -27.1936  -28.7083   20.7006 C   0  0  0  0  0  0
  -26.0554  -26.9477   19.4678 C   0  0  0  0  0  0
  -24.8633  -27.6944   19.4947 C   0  0  0  0  0  0
  -23.6090  -29.8234   20.1626 C   0  0  0  0  0  0
  -25.4109  -36.3113   24.0322 C   0  0  1  0  0  0
  -20.5841  -28.3650   23.1284 C   0  0  2  0  0  0
  -20.6740  -26.9385   22.5367 C   0  0  0  0  0  0
  -19.5716  -26.6339   21.5180 C   0  0  0  0  0  0
  -18.1911  -26.7887   22.1623 C   0  0  0  0  0  0
  -19.1517  -28.8819   23.2910 C   0  0  0  0  0  0
  -18.9424  -30.1437   23.8910 C   0  0  0  0  0  0
  -17.6416  -30.6562   24.0558 C   0  0  0  0  0  0
  -25.9038  -34.9476   23.5122 C   0  0  0  0  0  0
  -16.5318  -29.9055   23.6321 C   0  0  0  0  0  0
  -16.7265  -28.6476   23.0341 C   0  0  0  0  0  0
  -26.4464  -31.6610   25.0714 C   0  0  0  0  0  0
  -25.3747  -31.3714   26.1470 C   0  0  0  0  0  0
  -27.0289  -30.3043   24.6108 C   0  0  0  0  0  0
  -27.6038  -32.4336   25.7488 C   0  0  0  0  0  0
  -27.5581  -37.1821   24.8462 C   0  0  0  0  0  0
  -21.4090  -29.3046   22.3689 N   0  0  0  0  0  0
  -26.4298  -37.3793   23.9404 N   0  0  0  0  0  0
  -24.6648  -31.0787   22.0993 N   0  0  0  0  0  0
  -23.4148  -28.8203   23.2968 O   0  0  0  0  0  0
  -28.4380  -26.7664   20.0548 O   0  0  0  0  0  0
  -26.5584  -34.8920   22.4678 O   0  0  0  0  0  0
  -23.5311  -32.1452   23.7477 O   0  0  0  0  0  0
  -28.2032  -20.3010   21.6180 C   0  0  0  0  0  0
  -29.2630  -18.7397   20.0837 C   0  0  0  0  0  0
  -29.4345  -18.3892   22.4959 C   0  0  0  0  0  0
  -28.4986  -19.9087   20.2925 C   0  0  0  0  0  0
  -28.6651  -19.5489   22.7165 C   0  0  0  0  0  0
  -29.7445  -17.9891   21.1783 C   0  0  0  0  0  0
  -28.0412  -20.7103   19.1367 C   0  0  0  0  0  0
  -28.0607  -22.0547   18.9757 C   0  0  0  0  0  0
  -28.6828  -23.0122   19.9110 C   0  0  0  0  0  0
  -28.3601  -20.0094   24.1289 C   0  0  0  0  0  0
  -30.6922  -16.8275   20.9392 C   0  0  0  0  0  0
  -27.9698  -24.3411   20.1698 C   0  0  0  0  0  0
  -28.5627  -25.5162   19.3643 C   0  0  0  0  0  0
  -30.0912  -15.4944   20.9954 N   0  0  0  0  0  0
  -29.7638  -22.8024   20.4685 O   0  0  0  0  0  0
  -31.4523  -12.3509   19.0933 H   0  0  0  0  0  0
  -30.2884  -11.2686   19.8108 H   0  0  0  0  0  0
  -29.7065  -11.7414   17.4182 H   0  0  0  0  0  0
  -29.6442  -13.4582   17.7387 H   0  0  0  0  0  0
  -27.8189  -11.2949   18.8278 H   0  0  0  0  0  0
  -27.3421  -12.6070   17.7875 H   0  0  0  0  0  0
  -27.7002  -14.2484   19.5549 H   0  0  0  0  0  0
  -28.6727  -11.9806   21.3611 H   0  0  0  0  0  0
  -28.4883  -13.6398   21.8438 H   0  0  0  0  0  0
  -25.2757   -9.5729   22.4715 H   0  0  0  0  0  0
  -24.0035   -7.4653   22.7472 H   0  0  0  0  0  0
  -21.0838   -8.8744   19.8926 H   0  0  0  0  0  0
  -22.3645  -10.9678   19.6149 H   0  0  0  0  0  0
  -21.1935   -7.6141   23.9718 H   0  0  0  0  0  0
  -21.1510   -6.0498   25.9064 H   0  0  0  0  0  0
  -22.0591   -2.7618   23.2795 H   0  0  0  0  0  0
  -22.4095  -11.9956   22.4835 H   0  0  0  0  0  0
  -21.1069  -13.1256   22.2565 H   0  0  0  0  0  0
  -24.6704  -15.8434   20.5216 H   0  0  0  0  0  0
  -26.2960  -15.6256   20.1089 H   0  0  0  0  0  0
  -26.7074  -32.5514   23.1135 H   0  0  0  0  0  0
  -25.0064  -33.9804   25.0473 H   0  0  0  0  0  0
  -22.6897  -31.3101   21.4022 H   0  0  0  0  0  0
  -23.3731  -35.9682   23.3317 H   0  0  0  0  0  0
  -24.3574  -36.8932   22.2048 H   0  0  0  0  0  0
  -23.7249  -37.6546   23.6645 H   0  0  0  0  0  0
  -26.0406  -31.5931   20.5957 H   0  0  0  0  0  0
  -26.8212  -30.8860   21.9802 H   0  0  0  0  0  0
  -28.0882  -29.0955   21.1690 H   0  0  0  0  0  0
  -26.0321  -25.9941   18.9633 H   0  0  0  0  0  0
  -23.9720  -27.2972   19.0278 H   0  0  0  0  0  0
  -23.7230  -30.5942   19.4000 H   0  0  0  0  0  0
  -22.7357  -29.2394   19.8660 H   0  0  0  0  0  0
  -25.1288  -36.1987   25.0810 H   0  0  0  0  0  0
  -20.9940  -28.3201   24.1399 H   0  0  0  0  0  0
  -20.5635  -26.2252   23.3568 H   0  0  0  0  0  0
  -21.6623  -26.7446   22.1178 H   0  0  0  0  0  0
  -19.6875  -25.6239   21.1224 H   0  0  0  0  0  0
  -19.6606  -27.3119   20.6673 H   0  0  0  0  0  0
  -17.4191  -26.6660   21.4015 H   0  0  0  0  0  0
  -18.0320  -26.0031   22.9030 H   0  0  0  0  0  0
  -19.7875  -30.7285   24.2292 H   0  0  0  0  0  0
  -17.4950  -31.6245   24.5144 H   0  0  0  0  0  0
  -15.5310  -30.2961   23.7604 H   0  0  0  0  0  0
  -15.8682  -28.0780   22.7056 H   0  0  0  0  0  0
  -24.5908  -30.7077   25.7808 H   0  0  0  0  0  0
  -24.8955  -32.2868   26.4954 H   0  0  0  0  0  0
  -25.8119  -30.8857   27.0200 H   0  0  0  0  0  0
  -26.2822  -29.6795   24.1188 H   0  0  0  0  0  0
  -27.4064  -29.7305   25.4584 H   0  0  0  0  0  0
  -27.8665  -30.4343   23.9246 H   0  0  0  0  0  0
  -27.2644  -33.3610   26.2118 H   0  0  0  0  0  0
  -28.3833  -32.6940   25.0320 H   0  0  0  0  0  0
  -28.0722  -31.8427   26.5368 H   0  0  0  0  0  0
  -28.2607  -38.0111   24.7497 H   0  0  0  0  0  0
  -28.1066  -36.2641   24.6311 H   0  0  0  0  0  0
  -27.2296  -37.1500   25.8866 H   0  0  0  0  0  0
  -20.9228  -29.8827   21.6966 H   0  0  0  0  0  0
  -26.0186  -38.2874   24.1421 H   0  0  0  0  0  0
  -27.6144  -21.1875   21.8000 H   0  0  0  0  0  0
  -29.5258  -18.4439   19.0756 H   0  0  0  0  0  0
  -29.8247  -17.8291   23.3336 H   0  0  0  0  0  0
  -27.5939  -20.1361   18.3361 H   0  0  0  0  0  0
  -27.6141  -22.4788   18.0868 H   0  0  0  0  0  0
  -27.3146  -20.3050   24.2301 H   0  0  0  0  0  0
  -28.9810  -20.8677   24.3825 H   0  0  0  0  0  0
  -28.5623  -19.2216   24.8562 H   0  0  0  0  0  0
  -31.5047  -16.8824   21.6654 H   0  0  0  0  0  0
  -31.1585  -16.9779   19.9625 H   0  0  0  0  0  0
  -28.0691  -24.5432   21.2366 H   0  0  0  0  0  0
  -26.9058  -24.2278   19.9663 H   0  0  0  0  0  0
  -28.1406  -25.5608   18.3585 H   0  0  0  0  0  0
  -29.6326  -25.3637   19.2172 H   0  0  0  0  0  0
  -29.1302  -15.4067   21.2826 H   0  0  0  0  0  0
  1 25  1  0  0  0
  1 30  2  0  0  0
  1 84  1  0  0  0
  2  3  1  0  0  0
  2 25  1  0  0  0
  2 86  1  0  0  0
  2 87  1  0  0  0
  3  4  1  0  0  0
  3 88  1  0  0  0
  3 89  1  0  0  0
  4  5  1  0  0  0
  4 90  1  0  0  0
  4 91  1  0  0  0
  5  6  1  0  0  0
  5 26  1  0  0  0
  5 92  1  0  0  0
  6 25  1  0  0  0
  6 93  1  0  0  0
  6 94  1  0  0  0
  7  8  2  0  0  0
  7 26  1  0  0  0
  7 29  1  0  0  0
  8  9  1  0  0  0
  8 22  1  0  0  0
  9 10  1  0  0  0
  9 27  2  0  0  0
 10 11  2  0  0  0
 10 15  1  0  0  0
 11 12  1  0  0  0
 11 95  1  0  0  0
 12 13  2  0  0  0
 12 96  1  0  0  0
 13 14  1  0  0  0
 13 31  1  0  0  0
 14 15  2  0  0  0
 14 97  1  0  0  0
 15 98  1  0  0  0
 16 17  2  0  0  0
 16 21  1  0  0  0
 16 31  1  0  0  0
 17 18  1  0  0  0
 17 99  1  0  0  0
 18 19  2  0  0  0
 18100  1  0  0  0
 19 20  1  0  0  0
 19 24  1  0  0  0
 20 21  2  0  0  0
 20101  1  0  0  0
 21 23  1  0  0  0
 22 28  1  0  0  0
 22 32  2  0  0  0
 26 27  1  0  0  0
 28102  1  0  0  0
 28103  1  0  0  0
 29104  1  0  0  0
 29105  1  0  0  0
 33 34  1  0  0  0
 33 66  1  0  0  0
 33 70  2  0  0  0
 34 36  1  0  0  0
 34 59  1  0  0  0
 34106  1  0  0  0
 35 44  2  0  0  0
 35 45  1  0  0  0
 35 68  1  0  0  0
 36 56  1  0  0  0
 36107  1  0  0  0
 37 39  1  0  0  0
 37 47  1  0  0  0
 37 66  1  0  0  0
 37108  1  0  0  0
 38 43  2  0  0  0
 38 46  1  0  0  0
 38 47  1  0  0  0
 39 64  1  0  0  0
 39 67  2  0  0  0
 40 52  1  0  0  0
 40 53  2  0  0  0
 40 58  1  0  0  0
 41109  1  0  0  0
 41110  1  0  0  0
 41111  1  0  0  0
 41 48  1  0  0  0
 42 43  1  0  0  0
 42 66  1  0  0  0
 42112  1  0  0  0
 42113  1  0  0  0
 43 44  1  0  0  0
 44114  1  0  0  0
 45 46  2  0  0  0
 45115  1  0  0  0
 46116  1  0  0  0
 47117  1  0  0  0
 47118  1  0  0  0
 48 56  1  0  0  0
 48 65  1  0  0  0
 48119  1  0  0  0
 49 50  1  0  0  0
 49 53  1  0  0  0
 49 64  1  0  0  0
 49120  1  0  0  0
 50 51  1  0  0  0
 50121  1  0  0  0
 50122  1  0  0  0
 51 52  1  0  0  0
 51123  1  0  0  0
 51124  1  0  0  0
 52125  1  0  0  0
 52126  1  0  0  0
 53 54  1  0  0  0
 54 55  2  0  0  0
 54127  1  0  0  0
 55 57  1  0  0  0
 55128  1  0  0  0
 56 69  2  0  0  0
 57 58  2  0  0  0
 57129  1  0  0  0
 58130  1  0  0  0
 59 60  1  0  0  0
 59 61  1  0  0  0
 59 62  1  0  0  0
 60131  1  0  0  0
 60132  1  0  0  0
 60133  1  0  0  0
 61134  1  0  0  0
 61135  1  0  0  0
 61136  1  0  0  0
 62137  1  0  0  0
 62138  1  0  0  0
 62139  1  0  0  0
 63 65  1  0  0  0
 63140  1  0  0  0
 63141  1  0  0  0
 63142  1  0  0  0
 64143  1  0  0  0
 65144  1  0  0  0
 68 83  1  0  0  0
 71 74  2  0  0  0
 71 75  1  0  0  0
 71145  1  0  0  0
 72 74  1  0  0  0
 72 76  2  0  0  0
 72146  1  0  0  0
 73 75  2  0  0  0
 73 76  1  0  0  0
 73147  1  0  0  0
 74 77  1  0  0  0
 75 80  1  0  0  0
 76 81  1  0  0  0
 77 78  2  0  0  0
 77148  1  0  0  0
 78 79  1  0  0  0
 78149  1  0  0  0
 79 82  1  0  0  0
 79 85  2  0  0  0
 80150  1  0  0  0
 80151  1  0  0  0
 80152  1  0  0  0
 81 84  1  0  0  0
 81153  1  0  0  0
 81154  1  0  0  0
 82 83  1  0  0  0
 82155  1  0  0  0
 82156  1  0  0  0
 83157  1  0  0  0
 83158  1  0  0  0
 84159  1  0  0  0
M  ISO  4   1 100  68 101  83 101  84 100
M  END
> <chiral flag>
0

> <version>
0

> <s_m_source_file>
/data/baiqing/PycharmProjects/Reinvent-master-3.2/result/LINK_invent/BTK/process_docking_weight1_custom_product_contain_oxygen_bond_distance_aromatic_linkinvent_7_9_3/rearranged_h_0120.sdf

> <i_m_source_file_index>
82

> <r_mmod_Potential_Energy-OPLS-2005>
-119.620124816895

> <r_mmod_Stretch_Energy-OPLS-2005>
33.6263122558594

> <r_mmod_Bend_Energy-OPLS-2005>
100.714859008789

> <r_mmod_Torsional_Energy-OPLS-2005>
226.786834716797

> <r_mmod_Improper_Torsional_Energy-OPLS-2005>
4.8361029624939

> <r_mmod_Van_der_Waal_Energy-OPLS-2005>
156.670364379883

> <r_mmod_Electrostatic_Energy-OPLS-2005>
-433.997131347656

> <r_mmod_Solvation_Energy-OPLS-2005>
-222.603576660156

> <b_mmod_Minimization_Converged-OPLS-2005>
0

> <r_mmod_RMS_Derivative-OPLS-2005>
3.80912685394287

$$$$
82
                    3D
 Structure written by MMmdl.
161169  0  0  1  0            999 V2000
  -30.6615  -14.6757   20.4215 C   0  0  0  0  0  0
  -30.3943  -12.3913   19.4927 C   0  0  0  0  0  0
  -29.5073  -12.5307   18.2385 C   0  0  0  0  0  0
  -28.0291  -12.3727   18.6346 C   0  0  0  0  0  0
  -27.6407  -13.2545   19.8565 C   0  0  2  0  0  0
  -28.6826  -13.1815   20.9934 C   0  0  0  0  0  0
  -25.2453  -13.8233   20.5785 C   0  0  0  0  0  0
  -24.1778  -13.0447   20.9252 C   0  0  0  0  0  0
  -24.6436  -11.6947   20.8797 C   0  0  0  0  0  0
  -23.9143  -10.4297   21.0397 C   0  0  0  0  0  0
  -24.3675   -9.4208   21.9174 C   0  0  0  0  0  0
  -23.6335   -8.2257   22.0761 C   0  0  0  0  0  0
  -22.4327   -8.0280   21.3540 C   0  0  0  0  0  0
  -21.9976   -9.0243   20.4628 C   0  0  0  0  0  0
  -22.7324  -10.2126   20.3034 C   0  0  0  0  0  0
  -21.6870   -6.0757   22.5295 C   0  0  0  0  0  0
  -21.4021   -6.5650   23.8221 C   0  0  0  0  0  0
  -21.3664   -5.6800   24.9173 C   0  0  0  0  0  0
  -21.6058   -4.3069   24.7220 C   0  0  0  0  0  0
  -21.8811   -3.8180   23.4330 C   0  0  0  0  0  0
  -21.9194   -4.6995   22.3398 C   0  0  0  0  0  0
  -22.7761  -13.5158   21.1872 C   0  0  0  0  0  0
  -22.1654   -4.2182   21.0955 F   0  0  0  0  0  0
  -21.5621   -3.4545   25.7732 F   0  0  0  0  0  0
  -29.9965  -13.4737   20.4233 N   0  0  0  0  0  0
  -26.2940  -12.9522   20.3370 N   0  0  0  0  0  0
  -25.9380  -11.6630   20.5790 N   0  0  0  0  0  0
  -22.0407  -12.8141   22.0426 N   0  0  0  0  0  0
  -25.4113  -15.1990   20.4254 N   0  0  0  0  0  0
  -31.7994  -14.7226   19.9483 O   0  0  0  0  0  0
  -21.6661   -6.8913   21.4260 O   0  0  0  0  0  0
  -22.3408  -14.5462   20.6731 O   0  0  0  0  0  0
  -24.6344  -31.8503   23.2079 C   0  0  0  0  0  0
  -25.9181  -32.4695   23.8376 C   0  0  1  0  0  0
  -27.2058  -27.2581   20.1263 C   0  0  0  0  0  0
  -25.5970  -33.8510   24.2277 N   0  0  0  0  0  0
  -23.4245  -30.4817   21.5523 C   0  0  2  0  0  0
  -24.8696  -28.9357   20.1095 C   0  0  0  0  0  0
  -22.7413  -29.4653   22.4977 C   0  0  0  0  0  0
  -18.0258  -28.1434   22.8488 C   0  0  0  0  0  0
  -24.1484  -36.7253   23.2656 C   0  0  0  0  0  0
  -25.9736  -30.7602   21.3953 C   0  0  0  0  0  0
  -26.0420  -29.3895   20.7253 C   0  0  0  0  0  0
  -27.2133  -28.5615   20.7251 C   0  0  0  0  0  0
  -26.0154  -26.8865   19.4551 C   0  0  0  0  0  0
  -24.8633  -27.6920   19.4646 C   0  0  0  0  0  0
  -23.6387  -29.8215   20.1669 C   0  0  0  0  0  0
  -25.4126  -36.3044   24.0321 C   0  0  1  0  0  0
  -20.5841  -28.3744   23.1270 C   0  0  2  0  0  0
  -20.6785  -26.9469   22.5404 C   0  0  0  0  0  0
  -19.5769  -26.6413   21.5209 C   0  0  0  0  0  0
  -18.1922  -26.7985   22.1578 C   0  0  0  0  0  0
  -19.1502  -28.8917   23.2866 C   0  0  0  0  0  0
  -18.9438  -30.1501   23.8894 C   0  0  0  0  0  0
  -17.6463  -30.6631   24.0596 C   0  0  0  0  0  0
  -25.9067  -34.9399   23.5104 C   0  0  0  0  0  0
  -16.5341  -29.9132   23.6399 C   0  0  0  0  0  0
  -16.7251  -28.6539   23.0425 C   0  0  0  0  0  0
  -26.4545  -31.6559   25.0792 C   0  0  0  0  0  0
  -25.3768  -31.3622   26.1496 C   0  0  0  0  0  0
  -27.0445  -30.2982   24.6367 C   0  0  0  0  0  0
  -27.6103  -32.4328   25.7547 C   0  0  0  0  0  0
  -27.5570  -37.1781   24.8463 C   0  0  0  0  0  0
  -21.4152  -29.3063   22.3622 N   0  0  0  0  0  0
  -26.4298  -37.3744   23.9408 N   0  0  0  0  0  0
  -24.6957  -31.0465   22.1063 N   0  0  0  0  0  0
  -23.4080  -28.8204   23.3110 O   0  0  0  0  0  0
  -28.2763  -26.3352   20.2208 O   0  0  0  0  0  0
  -26.5593  -34.8863   22.4651 O   0  0  0  0  0  0
  -23.5497  -32.1357   23.7384 O   0  0  0  0  0  0
  -29.2955  -19.7729   20.3066 C   0  0  0  0  0  0
  -30.6404  -18.7086   22.0121 C   0  0  0  0  0  0
  -29.8622  -18.5506   20.8549 C   0  0  0  0  0  0
  -29.4965  -21.0984   20.8924 C   0  0  0  0  0  0
  -30.3715  -21.1559   22.0249 C   0  0  0  0  0  0
  -30.9756  -19.9746   22.5384 C   0  0  0  0  0  0
  -30.5026  -22.8357   23.8893 C   0  0  0  0  0  0
  -29.9145  -17.1209   20.2778 C   0  0  0  0  0  0
  -28.8066  -22.3671   20.3114 C   0  0  0  0  0  0
  -30.7832  -22.4355   22.6359 C   0  0  0  0  0  0
  -30.0542  -15.9284   20.9741 C   0  0  0  0  0  0
  -28.8320  -23.7256   20.6280 C   0  0  0  0  0  0
  -34.1804  -19.5392   24.3593 C   0  0  0  0  0  0
  -27.9819  -24.8788   19.9667 C   0  0  0  0  0  0
  -33.0179  -19.1266   23.4552 C   0  0  0  0  0  0
  -31.9558  -20.0862   23.5078 O   0  0  0  0  0  0
  -31.4520  -12.4157   19.2354 H   0  0  0  0  0  0
  -30.2304  -11.4217   19.9642 H   0  0  0  0  0  0
  -29.7855  -11.8015   17.4782 H   0  0  0  0  0  0
  -29.6643  -13.5097   17.7804 H   0  0  0  0  0  0
  -27.8737  -11.3214   18.8731 H   0  0  0  0  0  0
  -27.3762  -12.5979   17.7873 H   0  0  0  0  0  0
  -27.6367  -14.2829   19.4949 H   0  0  0  0  0  0
  -28.6794  -12.1952   21.4566 H   0  0  0  0  0  0
  -28.4385  -13.8965   21.7783 H   0  0  0  0  0  0
  -25.2818   -9.5662   22.4768 H   0  0  0  0  0  0
  -24.0031   -7.4645   22.7484 H   0  0  0  0  0  0
  -21.0919   -8.8748   19.8914 H   0  0  0  0  0  0
  -22.3784  -10.9642   19.6120 H   0  0  0  0  0  0
  -21.2018   -7.6171   23.9745 H   0  0  0  0  0  0
  -21.1491   -6.0524   25.9068 H   0  0  0  0  0  0
  -22.0596   -2.7640   23.2857 H   0  0  0  0  0  0
  -22.4028  -11.9835   22.4866 H   0  0  0  0  0  0
  -21.0970  -13.1073   22.2541 H   0  0  0  0  0  0
  -24.6527  -15.8638   20.5447 H   0  0  0  0  0  0
  -26.2798  -15.6377   20.1510 H   0  0  0  0  0  0
  -26.7236  -32.5294   23.1097 H   0  0  0  0  0  0
  -25.0148  -33.9604   25.0452 H   0  0  0  0  0  0
  -22.7260  -31.3091   21.4125 H   0  0  0  0  0  0
  -23.3741  -35.9583   23.3335 H   0  0  0  0  0  0
  -24.3583  -36.8872   22.2066 H   0  0  0  0  0  0
  -23.7230  -37.6454   23.6688 H   0  0  0  0  0  0
  -26.1288  -31.5262   20.6359 H   0  0  0  0  0  0
  -26.8431  -30.7890   22.0403 H   0  0  0  0  0  0
  -28.1073  -28.8967   21.2364 H   0  0  0  0  0  0
  -25.9316  -25.9452   18.9346 H   0  0  0  0  0  0
  -23.9679  -27.3404   18.9739 H   0  0  0  0  0  0
  -23.7576  -30.6025   19.4156 H   0  0  0  0  0  0
  -22.7527  -29.2596   19.8664 H   0  0  0  0  0  0
  -25.1322  -36.1897   25.0810 H   0  0  0  0  0  0
  -20.9932  -28.3382   24.1398 H   0  0  0  0  0  0
  -20.5790  -26.2332   23.3593 H   0  0  0  0  0  0
  -21.6649  -26.7592   22.1134 H   0  0  0  0  0  0
  -19.6960  -25.6311   21.1278 H   0  0  0  0  0  0
  -19.6765  -27.3197   20.6722 H   0  0  0  0  0  0
  -17.4207  -26.6783   21.3957 H   0  0  0  0  0  0
  -18.0326  -26.0102   22.8945 H   0  0  0  0  0  0
  -19.7913  -30.7339   24.2254 H   0  0  0  0  0  0
  -17.5011  -31.6321   24.5166 H   0  0  0  0  0  0
  -15.5359  -30.3059   23.7750 H   0  0  0  0  0  0
  -15.8626  -28.0863   22.7256 H   0  0  0  0  0  0
  -24.6071  -30.6841   25.7799 H   0  0  0  0  0  0
  -24.8805  -32.2704   26.4914 H   0  0  0  0  0  0
  -25.8112  -30.8832   27.0285 H   0  0  0  0  0  0
  -26.3069  -29.6647   24.1447 H   0  0  0  0  0  0
  -27.4133  -29.7348   25.4951 H   0  0  0  0  0  0
  -27.8927  -30.4211   23.9644 H   0  0  0  0  0  0
  -27.2765  -33.3694   26.2021 H   0  0  0  0  0  0
  -28.3961  -32.6775   25.0391 H   0  0  0  0  0  0
  -28.0735  -31.8529   26.5538 H   0  0  0  0  0  0
  -28.2562  -38.0096   24.7556 H   0  0  0  0  0  0
  -28.1101  -36.2640   24.6287 H   0  0  0  0  0  0
  -27.2261  -37.1406   25.8848 H   0  0  0  0  0  0
  -20.9386  -29.8633   21.6687 H   0  0  0  0  0  0
  -26.0167  -38.2804   24.1466 H   0  0  0  0  0  0
  -28.7189  -19.7082   19.3914 H   0  0  0  0  0  0
  -31.0915  -17.8271   22.4364 H   0  0  0  0  0  0
  -30.8569  -23.7953   24.2437 H   0  0  0  0  0  0
  -29.9206  -22.2300   24.5750 H   0  0  0  0  0  0
  -30.0029  -17.0734   19.1986 H   0  0  0  0  0  0
  -28.1401  -22.1246   19.4941 H   0  0  0  0  0  0
  -31.3792  -23.0875   22.0092 H   0  0  0  0  0  0
  -29.8643  -15.9198   22.0350 H   0  0  0  0  0  0
  -29.4401  -24.0931   21.4368 H   0  0  0  0  0  0
  -34.8260  -18.6674   24.5202 H   0  0  0  0  0  0
  -33.8080  -19.8705   25.3345 H   0  0  0  0  0  0
  -34.7874  -20.3384   23.9156 H   0  0  0  0  0  0
  -26.9734  -24.6556   20.3230 H   0  0  0  0  0  0
  -27.9755  -24.7047   18.8914 H   0  0  0  0  0  0
  -32.6688  -18.1516   23.7956 H   0  0  0  0  0  0
  -33.3904  -19.0073   22.4334 H   0  0  0  0  0  0
  1 25  1  0  0  0
  1 30  2  0  0  0
  1 81  1  0  0  0
  2  3  1  0  0  0
  2 25  1  0  0  0
  2 87  1  0  0  0
  2 88  1  0  0  0
  3  4  1  0  0  0
  3 89  1  0  0  0
  3 90  1  0  0  0
  4  5  1  0  0  0
  4 91  1  0  0  0
  4 92  1  0  0  0
  5  6  1  0  0  0
  5 26  1  0  0  0
  5 93  1  0  0  0
  6 25  1  0  0  0
  6 94  1  0  0  0
  6 95  1  0  0  0
  7  8  2  0  0  0
  7 26  1  0  0  0
  7 29  1  0  0  0
  8  9  1  0  0  0
  8 22  1  0  0  0
  9 10  1  0  0  0
  9 27  2  0  0  0
 10 11  2  0  0  0
 10 15  1  0  0  0
 11 12  1  0  0  0
 11 96  1  0  0  0
 12 13  2  0  0  0
 12 97  1  0  0  0
 13 14  1  0  0  0
 13 31  1  0  0  0
 14 15  2  0  0  0
 14 98  1  0  0  0
 15 99  1  0  0  0
 16 17  2  0  0  0
 16 21  1  0  0  0
 16 31  1  0  0  0
 17 18  1  0  0  0
 17100  1  0  0  0
 18 19  2  0  0  0
 18101  1  0  0  0
 19 20  1  0  0  0
 19 24  1  0  0  0
 20 21  2  0  0  0
 20102  1  0  0  0
 21 23  1  0  0  0
 22 28  1  0  0  0
 22 32  2  0  0  0
 26 27  1  0  0  0
 28103  1  0  0  0
 28104  1  0  0  0
 29105  1  0  0  0
 29106  1  0  0  0
 33 34  1  0  0  0
 33 66  1  0  0  0
 33 70  2  0  0  0
 34 36  1  0  0  0
 34 59  1  0  0  0
 34107  1  0  0  0
 35 44  2  0  0  0
 35 45  1  0  0  0
 35 68  1  0  0  0
 36 56  1  0  0  0
 36108  1  0  0  0
 37 39  1  0  0  0
 37 47  1  0  0  0
 37 66  1  0  0  0
 37109  1  0  0  0
 38 43  2  0  0  0
 38 46  1  0  0  0
 38 47  1  0  0  0
 39 64  1  0  0  0
 39 67  2  0  0  0
 40 52  1  0  0  0
 40 53  2  0  0  0
 40 58  1  0  0  0
 41110  1  0  0  0
 41111  1  0  0  0
 41112  1  0  0  0
 41 48  1  0  0  0
 42 43  1  0  0  0
 42 66  1  0  0  0
 42113  1  0  0  0
 42114  1  0  0  0
 43 44  1  0  0  0
 44115  1  0  0  0
 45 46  2  0  0  0
 45116  1  0  0  0
 46117  1  0  0  0
 47118  1  0  0  0
 47119  1  0  0  0
 48 56  1  0  0  0
 48 65  1  0  0  0
 48120  1  0  0  0
 49 50  1  0  0  0
 49 53  1  0  0  0
 49 64  1  0  0  0
 49121  1  0  0  0
 50 51  1  0  0  0
 50122  1  0  0  0
 50123  1  0  0  0
 51 52  1  0  0  0
 51124  1  0  0  0
 51125  1  0  0  0
 52126  1  0  0  0
 52127  1  0  0  0
 53 54  1  0  0  0
 54 55  2  0  0  0
 54128  1  0  0  0
 55 57  1  0  0  0
 55129  1  0  0  0
 56 69  2  0  0  0
 57 58  2  0  0  0
 57130  1  0  0  0
 58131  1  0  0  0
 59 60  1  0  0  0
 59 61  1  0  0  0
 59 62  1  0  0  0
 60132  1  0  0  0
 60133  1  0  0  0
 60134  1  0  0  0
 61135  1  0  0  0
 61136  1  0  0  0
 61137  1  0  0  0
 62138  1  0  0  0
 62139  1  0  0  0
 62140  1  0  0  0
 63 65  1  0  0  0
 63141  1  0  0  0
 63142  1  0  0  0
 63143  1  0  0  0
 64144  1  0  0  0
 65145  1  0  0  0
 68 84  1  0  0  0
 71 73  2  0  0  0
 71 74  1  0  0  0
 71146  1  0  0  0
 72 73  1  0  0  0
 72 76  2  0  0  0
 72147  1  0  0  0
 73 78  1  0  0  0
 74 75  2  0  0  0
 74 79  1  0  0  0
 75 76  1  0  0  0
 75 80  1  0  0  0
 76 86  1  0  0  0
 77 80  2  0  0  0
 77148  1  0  0  0
 77149  1  0  0  0
 78 81  2  0  0  0
 78150  1  0  0  0
 79 82  2  0  0  0
 79151  1  0  0  0
 80152  1  0  0  0
 81153  1  0  0  0
 82 84  1  0  0  0
 82154  1  0  0  0
 83 85  1  0  0  0
 83155  1  0  0  0
 83156  1  0  0  0
 83157  1  0  0  0
 84158  1  0  0  0
 84159  1  0  0  0
 85 86  1  0  0  0
 85160  1  0  0  0
 85161  1  0  0  0
M  ISO  4   1 100  68 101  81 100  84 101
M  END
> <chiral flag>
0

> <version>
0

> <s_m_source_file>
/data/baiqing/PycharmProjects/Reinvent-master-3.2/result/LINK_invent/BTK/process_docking_weight1_custom_product_contain_oxygen_bond_distance_aromatic_linkinvent_7_9_3/rearranged_h_0120.sdf

> <i_m_source_file_index>
83

> <r_mmod_Potential_Energy-OPLS-2005>
295.025115966797

> <r_mmod_Stretch_Energy-OPLS-2005>
118.332191467285

> <r_mmod_Bend_Energy-OPLS-2005>
167.538467407227

> <r_mmod_Torsional_Energy-OPLS-2005>
273.356353759766

> <r_mmod_Improper_Torsional_Energy-OPLS-2005>
10.298059463501

> <r_mmod_Van_der_Waal_Energy-OPLS-2005>
165.943176269531

> <r_mmod_Electrostatic_Energy-OPLS-2005>
-321.983306884766

> <r_mmod_Solvation_Energy-OPLS-2005>
-198.664321899414

> <b_mmod_Minimization_Converged-OPLS-2005>
0

> <r_mmod_RMS_Derivative-OPLS-2005>
7.42495155334473

$$$$
83
                    3D
 Structure written by MMmdl.
161169  0  0  1  0            999 V2000
  -30.6264  -14.7300   20.4592 C   0  0  0  0  0  0
  -30.4277  -12.4451   19.4668 C   0  0  0  0  0  0
  -29.5036  -12.4994   18.2315 C   0  0  0  0  0  0
  -28.0316  -12.3250   18.6509 C   0  0  0  0  0  0
  -27.6401  -13.2299   19.8496 C   0  0  2  0  0  0
  -28.6875  -13.1681   20.9828 C   0  0  0  0  0  0
  -25.2502  -13.8196   20.5699 C   0  0  0  0  0  0
  -24.1798  -13.0440   20.9215 C   0  0  0  0  0  0
  -24.6391  -11.6917   20.8762 C   0  0  0  0  0  0
  -23.9068  -10.4292   21.0412 C   0  0  0  0  0  0
  -24.3617   -9.4204   21.9185 C   0  0  0  0  0  0
  -23.6293   -8.2239   22.0753 C   0  0  0  0  0  0
  -22.4274   -8.0279   21.3541 C   0  0  0  0  0  0
  -21.9910   -9.0253   20.4641 C   0  0  0  0  0  0
  -22.7243  -10.2133   20.3055 C   0  0  0  0  0  0
  -21.6855   -6.0732   22.5276 C   0  0  0  0  0  0
  -21.4013   -6.5636   23.8207 C   0  0  0  0  0  0
  -21.3659   -5.6791   24.9171 C   0  0  0  0  0  0
  -21.6047   -4.3054   24.7224 C   0  0  0  0  0  0
  -21.8818   -3.8142   23.4346 C   0  0  0  0  0  0
  -21.9192   -4.6958   22.3401 C   0  0  0  0  0  0
  -22.7818  -13.5215   21.1877 C   0  0  0  0  0  0
  -22.1661   -4.2143   21.0978 F   0  0  0  0  0  0
  -21.5629   -3.4537   25.7738 F   0  0  0  0  0  0
  -29.9864  -13.5128   20.3923 N   0  0  0  0  0  0
  -26.2929  -12.9402   20.3293 N   0  0  0  0  0  0
  -25.9319  -11.6547   20.5766 N   0  0  0  0  0  0
  -22.0473  -12.8197   22.0431 N   0  0  0  0  0  0
  -25.4176  -15.1923   20.4099 N   0  0  0  0  0  0
  -31.8211  -14.8011   20.1585 O   0  0  0  0  0  0
  -21.6641   -6.8875   21.4237 O   0  0  0  0  0  0
  -22.3495  -14.5520   20.6729 O   0  0  0  0  0  0
  -24.6290  -31.8562   23.1977 C   0  0  0  0  0  0
  -25.9128  -32.4757   23.8315 C   0  0  1  0  0  0
  -27.2277  -27.2814   20.1358 C   0  0  0  0  0  0
  -25.5937  -33.8555   24.2255 N   0  0  0  0  0  0
  -23.4249  -30.4755   21.5409 C   0  0  2  0  0  0
  -24.8729  -28.9155   20.1167 C   0  0  0  0  0  0
  -22.7490  -29.4599   22.4927 C   0  0  0  0  0  0
  -18.0292  -28.1377   22.8478 C   0  0  0  0  0  0
  -24.1498  -36.7283   23.2641 C   0  0  0  0  0  0
  -25.9672  -30.7766   21.3707 C   0  0  0  0  0  0
  -26.0432  -29.3969   20.7189 C   0  0  0  0  0  0
  -27.2259  -28.5943   20.7103 C   0  0  0  0  0  0
  -26.0360  -26.8497   19.5202 C   0  0  0  0  0  0
  -24.8730  -27.6486   19.5064 C   0  0  0  0  0  0
  -23.6429  -29.8026   20.1591 C   0  0  0  0  0  0
  -25.4120  -36.3066   24.0328 C   0  0  1  0  0  0
  -20.5892  -28.3684   23.1278 C   0  0  2  0  0  0
  -20.6781  -26.9404   22.5412 C   0  0  0  0  0  0
  -19.5760  -26.6376   21.5209 C   0  0  0  0  0  0
  -18.1936  -26.7922   22.1612 C   0  0  0  0  0  0
  -19.1543  -28.8846   23.2874 C   0  0  0  0  0  0
  -18.9470  -30.1447   23.8893 C   0  0  0  0  0  0
  -17.6469  -30.6584   24.0556 C   0  0  0  0  0  0
  -25.9054  -34.9438   23.5092 C   0  0  0  0  0  0
  -16.5358  -29.9076   23.6326 C   0  0  0  0  0  0
  -16.7278  -28.6492   23.0345 C   0  0  0  0  0  0
  -26.4507  -31.6575   25.0692 C   0  0  0  0  0  0
  -25.3736  -31.3708   26.1415 C   0  0  0  0  0  0
  -27.0353  -30.3001   24.6144 C   0  0  0  0  0  0
  -27.6064  -32.4309   25.7468 C   0  0  0  0  0  0
  -27.5585  -37.1797   24.8464 C   0  0  0  0  0  0
  -21.4200  -29.3035   22.3675 N   0  0  0  0  0  0
  -26.4293  -37.3763   23.9410 N   0  0  0  0  0  0
  -24.6931  -31.0537   22.0940 N   0  0  0  0  0  0
  -23.4200  -28.8145   23.3023 O   0  0  0  0  0  0
  -28.3502  -26.4338   20.1157 O   0  0  0  0  0  0
  -26.5622  -34.8914   22.4657 O   0  0  0  0  0  0
  -23.5448  -32.1372   23.7292 O   0  0  0  0  0  0
  -29.3871  -18.4459   20.3846 C   0  0  0  0  0  0
  -31.0929  -20.0509   21.0235 C   0  0  0  0  0  0
  -31.5277  -17.6466   21.2056 C   0  0  0  0  0  0
  -29.7913  -19.8409   20.5157 C   0  0  0  0  0  0
  -30.2457  -17.3133   20.7112 C   0  0  0  0  0  0
  -31.9592  -18.9805   21.3620 C   0  0  0  0  0  0
  -28.9648  -21.0891   20.1121 C   0  0  0  0  0  0
  -29.2294  -22.4394   20.3139 C   0  0  0  0  0  0
  -35.8496  -21.7784   22.6245 C   0  0  0  0  0  0
  -28.5035  -23.7370   19.7440 C   0  0  0  0  0  0
  -35.1881  -20.3997   22.5043 C   0  0  0  0  0  0
  -28.2669  -25.0427   20.6622 C   0  0  0  0  0  0
  -33.7568  -20.4760   21.9583 C   0  0  0  0  0  0
  -29.8549  -15.8783   20.6118 N   0  0  0  0  0  0
  -33.2396  -19.1539   21.8479 O   0  0  0  0  0  0
  -31.4688  -12.5620   19.1613 H   0  0  0  0  0  0
  -30.3670  -11.4696   19.9526 H   0  0  0  0  0  0
  -29.7814  -11.7245   17.5161 H   0  0  0  0  0  0
  -29.6302  -13.4523   17.7157 H   0  0  0  0  0  0
  -27.8914  -11.2776   18.9203 H   0  0  0  0  0  0
  -27.3700  -12.5098   17.8038 H   0  0  0  0  0  0
  -27.6321  -14.2493   19.4643 H   0  0  0  0  0  0
  -28.7208  -12.1733   21.4302 H   0  0  0  0  0  0
  -28.4281  -13.8579   21.7881 H   0  0  0  0  0  0
  -25.2759   -9.5680   22.4762 H   0  0  0  0  0  0
  -23.9999   -7.4628   22.7474 H   0  0  0  0  0  0
  -21.0840   -8.8771   19.8947 H   0  0  0  0  0  0
  -22.3697  -10.9672   19.6164 H   0  0  0  0  0  0
  -21.2009   -7.6145   23.9709 H   0  0  0  0  0  0
  -21.1482   -6.0522   25.9074 H   0  0  0  0  0  0
  -22.0600   -2.7604   23.2848 H   0  0  0  0  0  0
  -22.4097  -11.9852   22.4803 H   0  0  0  0  0  0
  -21.1089  -13.1209   22.2654 H   0  0  0  0  0  0
  -24.6464  -15.8424   20.5174 H   0  0  0  0  0  0
  -26.2566  -15.6334   20.0570 H   0  0  0  0  0  0
  -26.7196  -32.5424   23.1060 H   0  0  0  0  0  0
  -25.0088  -33.9679   25.0405 H   0  0  0  0  0  0
  -22.7200  -31.2966   21.3925 H   0  0  0  0  0  0
  -23.3760  -35.9619   23.3294 H   0  0  0  0  0  0
  -24.3586  -36.8906   22.2057 H   0  0  0  0  0  0
  -23.7252  -37.6481   23.6668 H   0  0  0  0  0  0
  -26.0960  -31.5366   20.5984 H   0  0  0  0  0  0
  -26.8480  -30.8314   21.9992 H   0  0  0  0  0  0
  -28.1292  -28.9657   21.1744 H   0  0  0  0  0  0
  -26.0048  -25.8766   19.0509 H   0  0  0  0  0  0
  -23.9771  -27.2738   19.0301 H   0  0  0  0  0  0
  -23.7672  -30.5763   19.4000 H   0  0  0  0  0  0
  -22.7611  -29.2343   19.8578 H   0  0  0  0  0  0
  -25.1306  -36.1908   25.0819 H   0  0  0  0  0  0
  -20.9981  -28.3267   24.1397 H   0  0  0  0  0  0
  -20.5677  -26.2295   23.3615 H   0  0  0  0  0  0
  -21.6650  -26.7427   22.1208 H   0  0  0  0  0  0
  -19.6921  -25.6287   21.1240 H   0  0  0  0  0  0
  -19.6702  -27.3188   20.6744 H   0  0  0  0  0  0
  -17.4208  -26.6674   21.4010 H   0  0  0  0  0  0
  -18.0323  -26.0066   22.9009 H   0  0  0  0  0  0
  -19.7947  -30.7257   24.2264 H   0  0  0  0  0  0
  -17.5025  -31.6265   24.5156 H   0  0  0  0  0  0
  -15.5356  -30.2974   23.7658 H   0  0  0  0  0  0
  -15.8678  -28.0815   22.7054 H   0  0  0  0  0  0
  -24.5932  -30.7027   25.7753 H   0  0  0  0  0  0
  -24.8897  -32.2863   26.4824 H   0  0  0  0  0  0
  -25.8063  -30.8914   27.0202 H   0  0  0  0  0  0
  -26.2918  -29.6733   24.1204 H   0  0  0  0  0  0
  -27.4096  -29.7271   25.4636 H   0  0  0  0  0  0
  -27.8768  -30.4291   23.9333 H   0  0  0  0  0  0
  -27.2683  -33.3625   26.2018 H   0  0  0  0  0  0
  -28.3896  -32.6829   25.0305 H   0  0  0  0  0  0
  -28.0706  -31.8436   26.5401 H   0  0  0  0  0  0
  -28.2596  -38.0102   24.7511 H   0  0  0  0  0  0
  -28.1084  -36.2624   24.6292 H   0  0  0  0  0  0
  -27.2292  -37.1445   25.8864 H   0  0  0  0  0  0
  -20.9382  -29.8764   21.6885 H   0  0  0  0  0  0
  -26.0173  -38.2834   24.1413 H   0  0  0  0  0  0
  -28.3965  -18.2439   20.0023 H   0  0  0  0  0  0
  -31.4398  -21.0652   21.1303 H   0  0  0  0  0  0
  -32.2197  -16.8680   21.4890 H   0  0  0  0  0  0
  -28.0762  -20.8583   19.5409 H   0  0  0  0  0  0
  -30.1003  -22.6962   20.8984 H   0  0  0  0  0  0
  -36.8594  -21.6943   23.0270 H   0  0  0  0  0  0
  -35.2823  -22.4332   23.2867 H   0  0  0  0  0  0
  -35.9217  -22.2680   21.6525 H   0  0  0  0  0  0
  -27.5629  -23.4441   19.2771 H   0  0  0  0  0  0
  -29.1396  -24.0621   18.9205 H   0  0  0  0  0  0
  -35.1774  -19.9170   23.4823 H   0  0  0  0  0  0
  -35.7938  -19.7662   21.8555 H   0  0  0  0  0  0
  -29.0316  -25.0182   21.4388 H   0  0  0  0  0  0
  -27.3288  -24.9225   21.2056 H   0  0  0  0  0  0
  -33.7611  -20.9621   20.9813 H   0  0  0  0  0  0
  -33.1394  -21.0716   22.6330 H   0  0  0  0  0  0
  -28.8634  -15.6985   20.6500 H   0  0  0  0  0  0
  1 25  1  0  0  0
  1 30  2  0  0  0
  1 84  1  0  0  0
  2  3  1  0  0  0
  2 25  1  0  0  0
  2 86  1  0  0  0
  2 87  1  0  0  0
  3  4  1  0  0  0
  3 88  1  0  0  0
  3 89  1  0  0  0
  4  5  1  0  0  0
  4 90  1  0  0  0
  4 91  1  0  0  0
  5  6  1  0  0  0
  5 26  1  0  0  0
  5 92  1  0  0  0
  6 25  1  0  0  0
  6 93  1  0  0  0
  6 94  1  0  0  0
  7  8  2  0  0  0
  7 26  1  0  0  0
  7 29  1  0  0  0
  8  9  1  0  0  0
  8 22  1  0  0  0
  9 10  1  0  0  0
  9 27  2  0  0  0
 10 11  2  0  0  0
 10 15  1  0  0  0
 11 12  1  0  0  0
 11 95  1  0  0  0
 12 13  2  0  0  0
 12 96  1  0  0  0
 13 14  1  0  0  0
 13 31  1  0  0  0
 14 15  2  0  0  0
 14 97  1  0  0  0
 15 98  1  0  0  0
 16 17  2  0  0  0
 16 21  1  0  0  0
 16 31  1  0  0  0
 17 18  1  0  0  0
 17 99  1  0  0  0
 18 19  2  0  0  0
 18100  1  0  0  0
 19 20  1  0  0  0
 19 24  1  0  0  0
 20 21  2  0  0  0
 20101  1  0  0  0
 21 23  1  0  0  0
 22 28  1  0  0  0
 22 32  2  0  0  0
 26 27  1  0  0  0
 28102  1  0  0  0
 28103  1  0  0  0
 29104  1  0  0  0
 29105  1  0  0  0
 33 34  1  0  0  0
 33 66  1  0  0  0
 33 70  2  0  0  0
 34 36  1  0  0  0
 34 59  1  0  0  0
 34106  1  0  0  0
 35 44  2  0  0  0
 35 45  1  0  0  0
 35 68  1  0  0  0
 36 56  1  0  0  0
 36107  1  0  0  0
 37 39  1  0  0  0
 37 47  1  0  0  0
 37 66  1  0  0  0
 37108  1  0  0  0
 38 43  2  0  0  0
 38 46  1  0  0  0
 38 47  1  0  0  0
 39 64  1  0  0  0
 39 67  2  0  0  0
 40 52  1  0  0  0
 40 53  2  0  0  0
 40 58  1  0  0  0
 41109  1  0  0  0
 41110  1  0  0  0
 41111  1  0  0  0
 41 48  1  0  0  0
 42 43  1  0  0  0
 42 66  1  0  0  0
 42112  1  0  0  0
 42113  1  0  0  0
 43 44  1  0  0  0
 44114  1  0  0  0
 45 46  2  0  0  0
 45115  1  0  0  0
 46116  1  0  0  0
 47117  1  0  0  0
 47118  1  0  0  0
 48 56  1  0  0  0
 48 65  1  0  0  0
 48119  1  0  0  0
 49 50  1  0  0  0
 49 53  1  0  0  0
 49 64  1  0  0  0
 49120  1  0  0  0
 50 51  1  0  0  0
 50121  1  0  0  0
 50122  1  0  0  0
 51 52  1  0  0  0
 51123  1  0  0  0
 51124  1  0  0  0
 52125  1  0  0  0
 52126  1  0  0  0
 53 54  1  0  0  0
 54 55  2  0  0  0
 54127  1  0  0  0
 55 57  1  0  0  0
 55128  1  0  0  0
 56 69  2  0  0  0
 57 58  2  0  0  0
 57129  1  0  0  0
 58130  1  0  0  0
 59 60  1  0  0  0
 59 61  1  0  0  0
 59 62  1  0  0  0
 60131  1  0  0  0
 60132  1  0  0  0
 60133  1  0  0  0
 61134  1  0  0  0
 61135  1  0  0  0
 61136  1  0  0  0
 62137  1  0  0  0
 62138  1  0  0  0
 62139  1  0  0  0
 63 65  1  0  0  0
 63140  1  0  0  0
 63141  1  0  0  0
 63142  1  0  0  0
 64143  1  0  0  0
 65144  1  0  0  0
 68 82  1  0  0  0
 71 74  2  0  0  0
 71 75  1  0  0  0
 71145  1  0  0  0
 72 74  1  0  0  0
 72 76  2  0  0  0
 72146  1  0  0  0
 73 75  2  0  0  0
 73 76  1  0  0  0
 73147  1  0  0  0
 74 77  1  0  0  0
 75 84  1  0  0  0
 76 85  1  0  0  0
 77 78  2  0  0  0
 77148  1  0  0  0
 78 80  1  0  0  0
 78149  1  0  0  0
 79 81  1  0  0  0
 79150  1  0  0  0
 79151  1  0  0  0
 79152  1  0  0  0
 80 82  1  0  0  0
 80153  1  0  0  0
 80154  1  0  0  0
 81 83  1  0  0  0
 81155  1  0  0  0
 81156  1  0  0  0
 82157  1  0  0  0
 82158  1  0  0  0
 83 85  1  0  0  0
 83159  1  0  0  0
 83160  1  0  0  0
 84161  1  0  0  0
M  ISO  4   1 100  68 101  82 101  84 100
M  END
> <chiral flag>
0

> <version>
0

> <s_m_source_file>
/data/baiqing/PycharmProjects/Reinvent-master-3.2/result/LINK_invent/BTK/process_docking_weight1_custom_product_contain_oxygen_bond_distance_aromatic_linkinvent_7_9_3/rearranged_h_0120.sdf

> <i_m_source_file_index>
84

> <r_mmod_Potential_Energy-OPLS-2005>
189.759048461914

> <r_mmod_Stretch_Energy-OPLS-2005>
117.764305114746

> <r_mmod_Bend_Energy-OPLS-2005>
160.863159179688

> <r_mmod_Torsional_Energy-OPLS-2005>
238.578094482422

> <r_mmod_Improper_Torsional_Energy-OPLS-2005>
6.83141183853149

> <r_mmod_Van_der_Waal_Energy-OPLS-2005>
143.199447631836

> <r_mmod_Electrostatic_Energy-OPLS-2005>
-338.691680908203

> <r_mmod_Solvation_Energy-OPLS-2005>
-212.228515625

> <b_mmod_Minimization_Converged-OPLS-2005>
0

> <r_mmod_RMS_Derivative-OPLS-2005>
1.06166589260101

$$$$
84
                    3D
 Structure written by MMmdl.
153161  0  0  1  0            999 V2000
  -30.6020  -14.7578   20.4102 C   0  0  0  0  0  0
  -30.4386  -12.4419   19.4907 C   0  0  0  0  0  0
  -29.5215  -12.4540   18.2469 C   0  0  0  0  0  0
  -28.0410  -12.3140   18.6539 C   0  0  0  0  0  0
  -27.6437  -13.2309   19.8417 C   0  0  2  0  0  0
  -28.6855  -13.1801   20.9804 C   0  0  0  0  0  0
  -25.2525  -13.8199   20.5671 C   0  0  0  0  0  0
  -24.1814  -13.0447   20.9199 C   0  0  0  0  0  0
  -24.6405  -11.6926   20.8740 C   0  0  0  0  0  0
  -23.9080  -10.4302   21.0402 C   0  0  0  0  0  0
  -24.3631   -9.4208   21.9180 C   0  0  0  0  0  0
  -23.6307   -8.2238   22.0745 C   0  0  0  0  0  0
  -22.4282   -8.0282   21.3538 C   0  0  0  0  0  0
  -21.9924   -9.0256   20.4638 C   0  0  0  0  0  0
  -22.7255  -10.2134   20.3053 C   0  0  0  0  0  0
  -21.6849   -6.0740   22.5282 C   0  0  0  0  0  0
  -21.4011   -6.5643   23.8216 C   0  0  0  0  0  0
  -21.3660   -5.6790   24.9175 C   0  0  0  0  0  0
  -21.6049   -4.3055   24.7223 C   0  0  0  0  0  0
  -21.8818   -3.8148   23.4341 C   0  0  0  0  0  0
  -21.9189   -4.6967   22.3396 C   0  0  0  0  0  0
  -22.7834  -13.5223   21.1868 C   0  0  0  0  0  0
  -22.1659   -4.2154   21.0974 F   0  0  0  0  0  0
  -21.5632   -3.4539   25.7738 F   0  0  0  0  0  0
  -29.9879  -13.5242   20.3982 N   0  0  0  0  0  0
  -26.2948  -12.9409   20.3225 N   0  0  0  0  0  0
  -25.9334  -11.6554   20.5734 N   0  0  0  0  0  0
  -22.0483  -12.8200   22.0420 N   0  0  0  0  0  0
  -25.4231  -15.1924   20.4090 N   0  0  0  0  0  0
  -31.8031  -14.8385   20.1397 O   0  0  0  0  0  0
  -21.6635   -6.8885   21.4246 O   0  0  0  0  0  0
  -22.3511  -14.5519   20.6715 O   0  0  0  0  0  0
  -24.6306  -31.8560   23.1976 C   0  0  0  0  0  0
  -25.9131  -32.4760   23.8328 C   0  0  1  0  0  0
  -27.2273  -27.2775   20.1188 C   0  0  0  0  0  0
  -25.5926  -33.8560   24.2257 N   0  0  0  0  0  0
  -23.4257  -30.4785   21.5404 C   0  0  2  0  0  0
  -24.8726  -28.9255   20.1094 C   0  0  0  0  0  0
  -22.7496  -29.4613   22.4913 C   0  0  0  0  0  0
  -18.0294  -28.1392   22.8487 C   0  0  0  0  0  0
  -24.1487  -36.7289   23.2640 C   0  0  0  0  0  0
  -25.9686  -30.7767   21.3709 C   0  0  0  0  0  0
  -26.0423  -29.3988   20.7154 C   0  0  0  0  0  0
  -27.2180  -28.5852   20.7115 C   0  0  0  0  0  0
  -26.0274  -26.8639   19.4940 C   0  0  0  0  0  0
  -24.8698  -27.6668   19.4905 C   0  0  0  0  0  0
  -23.6417  -29.8088   20.1573 C   0  0  0  0  0  0
  -25.4113  -36.3071   24.0328 C   0  0  1  0  0  0
  -20.5894  -28.3702   23.1270 C   0  0  2  0  0  0
  -20.6775  -26.9417   22.5406 C   0  0  0  0  0  0
  -19.5747  -26.6386   21.5216 C   0  0  0  0  0  0
  -18.1933  -26.7933   22.1627 C   0  0  0  0  0  0
  -19.1544  -28.8862   23.2873 C   0  0  0  0  0  0
  -18.9467  -30.1461   23.8889 C   0  0  0  0  0  0
  -17.6465  -30.6586   24.0562 C   0  0  0  0  0  0
  -25.9056  -34.9444   23.5098 C   0  0  0  0  0  0
  -16.5359  -29.9085   23.6323 C   0  0  0  0  0  0
  -16.7282  -28.6505   23.0347 C   0  0  0  0  0  0
  -26.4495  -31.6583   25.0717 C   0  0  0  0  0  0
  -25.3713  -31.3755   26.1439 C   0  0  0  0  0  0
  -27.0321  -30.2996   24.6184 C   0  0  0  0  0  0
  -27.6062  -32.4303   25.7486 C   0  0  0  0  0  0
  -27.5575  -37.1798   24.8459 C   0  0  0  0  0  0
  -21.4204  -29.3054   22.3658 N   0  0  0  0  0  0
  -26.4282  -37.3774   23.9410 N   0  0  0  0  0  0
  -24.6941  -31.0547   22.0935 N   0  0  0  0  0  0
  -23.4204  -28.8158   23.3006 O   0  0  0  0  0  0
  -28.3525  -26.4279   20.1999 O   0  0  0  0  0  0
  -26.5621  -34.8917   22.4664 O   0  0  0  0  0  0
  -23.5458  -32.1365   23.7290 O   0  0  0  0  0  0
  -29.8832  -19.8121   18.5498 C   0  0  0  0  0  0
  -30.2153  -18.6283   17.8771 C   0  0  0  0  0  0
  -29.5393  -18.5064   20.5637 C   0  0  0  0  0  0
  -29.5194  -19.8149   19.9101 C   0  0  0  0  0  0
  -30.2026  -17.3700   18.5116 C   0  0  0  0  0  0
  -29.9010  -17.2502   19.9019 C   0  0  0  0  0  0
  -29.1356  -21.1863   20.5242 C   0  0  0  0  0  0
  -28.9628  -22.4113   19.8851 C   0  0  0  0  0  0
  -28.6351  -23.7868   20.4976 C   0  0  0  0  0  0
  -30.4225  -16.1755   17.6014 C   0  0  0  0  0  0
  -28.4221  -25.0699   19.5653 C   0  0  0  0  0  0
  -29.8139  -15.9000   20.5447 N   0  0  0  0  0  0
  -28.5380  -23.9322   21.7200 O   0  0  0  0  0  0
  -31.4816  -12.5604   19.1906 H   0  0  0  0  0  0
  -30.3810  -11.4764   19.9965 H   0  0  0  0  0  0
  -29.7975  -11.6414   17.5736 H   0  0  0  0  0  0
  -29.6717  -13.3660   17.6768 H   0  0  0  0  0  0
  -27.8859  -11.2714   18.9310 H   0  0  0  0  0  0
  -27.3923  -12.4981   17.7971 H   0  0  0  0  0  0
  -27.6371  -14.2479   19.4478 H   0  0  0  0  0  0
  -28.7180  -12.1872   21.4321 H   0  0  0  0  0  0
  -28.4184  -13.8732   21.7796 H   0  0  0  0  0  0
  -25.2781   -9.5673   22.4751 H   0  0  0  0  0  0
  -24.0015   -7.4623   22.7460 H   0  0  0  0  0  0
  -21.0850   -8.8779   19.8951 H   0  0  0  0  0  0
  -22.3718  -10.9670   19.6155 H   0  0  0  0  0  0
  -21.2003   -7.6153   23.9721 H   0  0  0  0  0  0
  -21.1487   -6.0518   25.9078 H   0  0  0  0  0  0
  -22.0597   -2.7613   23.2831 H   0  0  0  0  0  0
  -22.4101  -11.9863   22.4801 H   0  0  0  0  0  0
  -21.1101  -13.1218   22.2639 H   0  0  0  0  0  0
  -24.6554  -15.8469   20.5150 H   0  0  0  0  0  0
  -26.2698  -15.6301   20.0682 H   0  0  0  0  0  0
  -26.7203  -32.5414   23.1080 H   0  0  0  0  0  0
  -25.0072  -33.9699   25.0397 H   0  0  0  0  0  0
  -22.7218  -31.3002   21.3940 H   0  0  0  0  0  0
  -23.3747  -35.9619   23.3290 H   0  0  0  0  0  0
  -24.3585  -36.8921   22.2055 H   0  0  0  0  0  0
  -23.7233  -37.6488   23.6668 H   0  0  0  0  0  0
  -26.0983  -31.5369   20.5990 H   0  0  0  0  0  0
  -26.8491  -30.8319   21.9996 H   0  0  0  0  0  0
  -28.1140  -28.9467   21.1973 H   0  0  0  0  0  0
  -25.9285  -25.8983   19.0269 H   0  0  0  0  0  0
  -23.9702  -27.2972   19.0180 H   0  0  0  0  0  0
  -23.7628  -30.5811   19.3968 H   0  0  0  0  0  0
  -22.7608  -29.2377   19.8571 H   0  0  0  0  0  0
  -25.1295  -36.1919   25.0819 H   0  0  0  0  0  0
  -20.9999  -28.3279   24.1385 H   0  0  0  0  0  0
  -20.5670  -26.2320   23.3619 H   0  0  0  0  0  0
  -21.6641  -26.7433   22.1207 H   0  0  0  0  0  0
  -19.6907  -25.6293   21.1252 H   0  0  0  0  0  0
  -19.6681  -27.3184   20.6735 H   0  0  0  0  0  0
  -17.4204  -26.6678   21.4033 H   0  0  0  0  0  0
  -18.0333  -26.0078   22.9029 H   0  0  0  0  0  0
  -19.7945  -30.7279   24.2253 H   0  0  0  0  0  0
  -17.5024  -31.6266   24.5168 H   0  0  0  0  0  0
  -15.5359  -30.2987   23.7651 H   0  0  0  0  0  0
  -15.8688  -28.0827   22.7056 H   0  0  0  0  0  0
  -24.5861  -30.7142   25.7763 H   0  0  0  0  0  0
  -24.8941  -32.2944   26.4859 H   0  0  0  0  0  0
  -25.8016  -30.8918   27.0219 H   0  0  0  0  0  0
  -26.2894  -29.6762   24.1196 H   0  0  0  0  0  0
  -27.3991  -29.7248   25.4698 H   0  0  0  0  0  0
  -27.8783  -30.4271   23.9427 H   0  0  0  0  0  0
  -27.2697  -33.3625   26.2038 H   0  0  0  0  0  0
  -28.3892  -32.6820   25.0321 H   0  0  0  0  0  0
  -28.0703  -31.8432   26.5421 H   0  0  0  0  0  0
  -28.2588  -38.0099   24.7507 H   0  0  0  0  0  0
  -28.1075  -36.2632   24.6277 H   0  0  0  0  0  0
  -27.2302  -37.1437   25.8864 H   0  0  0  0  0  0
  -20.9391  -29.8798   21.6882 H   0  0  0  0  0  0
  -26.0163  -38.2850   24.1400 H   0  0  0  0  0  0
  -29.9055  -20.7241   17.9737 H   0  0  0  0  0  0
  -30.4490  -18.6988   16.8231 H   0  0  0  0  0  0
  -29.2566  -18.4683   21.6057 H   0  0  0  0  0  0
  -29.0081  -21.1800   21.5982 H   0  0  0  0  0  0
  -29.0713  -22.4493   18.8131 H   0  0  0  0  0  0
  -30.4532  -16.4697   16.5519 H   0  0  0  0  0  0
  -29.5851  -15.4914   17.7069 H   0  0  0  0  0  0
  -31.3593  -15.6632   17.8117 H   0  0  0  0  0  0
  -27.5930  -24.8675   18.8940 H   0  0  0  0  0  0
  -29.2928  -25.1026   18.9095 H   0  0  0  0  0  0
  -28.9301  -15.7205   20.9952 H   0  0  0  0  0  0
  1 25  1  0  0  0
  1 30  2  0  0  0
  1 82  1  0  0  0
  2  3  1  0  0  0
  2 25  1  0  0  0
  2 84  1  0  0  0
  2 85  1  0  0  0
  3  4  1  0  0  0
  3 86  1  0  0  0
  3 87  1  0  0  0
  4  5  1  0  0  0
  4 88  1  0  0  0
  4 89  1  0  0  0
  5  6  1  0  0  0
  5 26  1  0  0  0
  5 90  1  0  0  0
  6 25  1  0  0  0
  6 91  1  0  0  0
  6 92  1  0  0  0
  7  8  2  0  0  0
  7 26  1  0  0  0
  7 29  1  0  0  0
  8  9  1  0  0  0
  8 22  1  0  0  0
  9 10  1  0  0  0
  9 27  2  0  0  0
 10 11  2  0  0  0
 10 15  1  0  0  0
 11 12  1  0  0  0
 11 93  1  0  0  0
 12 13  2  0  0  0
 12 94  1  0  0  0
 13 14  1  0  0  0
 13 31  1  0  0  0
 14 15  2  0  0  0
 14 95  1  0  0  0
 15 96  1  0  0  0
 16 17  2  0  0  0
 16 21  1  0  0  0
 16 31  1  0  0  0
 17 18  1  0  0  0
 17 97  1  0  0  0
 18 19  2  0  0  0
 18 98  1  0  0  0
 19 20  1  0  0  0
 19 24  1  0  0  0
 20 21  2  0  0  0
 20 99  1  0  0  0
 21 23  1  0  0  0
 22 28  1  0  0  0
 22 32  2  0  0  0
 26 27  1  0  0  0
 28100  1  0  0  0
 28101  1  0  0  0
 29102  1  0  0  0
 29103  1  0  0  0
 33 34  1  0  0  0
 33 66  1  0  0  0
 33 70  2  0  0  0
 34 36  1  0  0  0
 34 59  1  0  0  0
 34104  1  0  0  0
 35 44  2  0  0  0
 35 45  1  0  0  0
 35 68  1  0  0  0
 36 56  1  0  0  0
 36105  1  0  0  0
 37 39  1  0  0  0
 37 47  1  0  0  0
 37 66  1  0  0  0
 37106  1  0  0  0
 38 43  2  0  0  0
 38 46  1  0  0  0
 38 47  1  0  0  0
 39 64  1  0  0  0
 39 67  2  0  0  0
 40 52  1  0  0  0
 40 53  2  0  0  0
 40 58  1  0  0  0
 41107  1  0  0  0
 41108  1  0  0  0
 41109  1  0  0  0
 41 48  1  0  0  0
 42 43  1  0  0  0
 42 66  1  0  0  0
 42110  1  0  0  0
 42111  1  0  0  0
 43 44  1  0  0  0
 44112  1  0  0  0
 45 46  2  0  0  0
 45113  1  0  0  0
 46114  1  0  0  0
 47115  1  0  0  0
 47116  1  0  0  0
 48 56  1  0  0  0
 48 65  1  0  0  0
 48117  1  0  0  0
 49 50  1  0  0  0
 49 53  1  0  0  0
 49 64  1  0  0  0
 49118  1  0  0  0
 50 51  1  0  0  0
 50119  1  0  0  0
 50120  1  0  0  0
 51 52  1  0  0  0
 51121  1  0  0  0
 51122  1  0  0  0
 52123  1  0  0  0
 52124  1  0  0  0
 53 54  1  0  0  0
 54 55  2  0  0  0
 54125  1  0  0  0
 55 57  1  0  0  0
 55126  1  0  0  0
 56 69  2  0  0  0
 57 58  2  0  0  0
 57127  1  0  0  0
 58128  1  0  0  0
 59 60  1  0  0  0
 59 61  1  0  0  0
 59 62  1  0  0  0
 60129  1  0  0  0
 60130  1  0  0  0
 60131  1  0  0  0
 61132  1  0  0  0
 61133  1  0  0  0
 61134  1  0  0  0
 62135  1  0  0  0
 62136  1  0  0  0
 62137  1  0  0  0
 63 65  1  0  0  0
 63138  1  0  0  0
 63139  1  0  0  0
 63140  1  0  0  0
 64141  1  0  0  0
 65142  1  0  0  0
 68 81  1  0  0  0
 71 72  2  0  0  0
 71 74  1  0  0  0
 71143  1  0  0  0
 72 75  1  0  0  0
 72144  1  0  0  0
 73 74  2  0  0  0
 73 76  1  0  0  0
 73145  1  0  0  0
 74 77  1  0  0  0
 75 76  2  0  0  0
 75 80  1  0  0  0
 76 82  1  0  0  0
 77 78  2  0  0  0
 77146  1  0  0  0
 78 79  1  0  0  0
 78147  1  0  0  0
 79 81  1  0  0  0
 79 83  2  0  0  0
 80148  1  0  0  0
 80149  1  0  0  0
 80150  1  0  0  0
 81151  1  0  0  0
 81152  1  0  0  0
 82153  1  0  0  0
M  ISO  4   1 100  68 101  81 101  82 100
M  END
> <chiral flag>
0

> <version>
0

> <s_m_source_file>
/data/baiqing/PycharmProjects/Reinvent-master-3.2/result/LINK_invent/BTK/process_docking_weight1_custom_product_contain_oxygen_bond_distance_aromatic_linkinvent_7_9_3/rearranged_h_0120.sdf

> <i_m_source_file_index>
85

> <r_mmod_Potential_Energy-OPLS-2005>
165.492034912109

> <r_mmod_Stretch_Energy-OPLS-2005>
125.623550415039

> <r_mmod_Bend_Energy-OPLS-2005>
162.685928344727

> <r_mmod_Torsional_Energy-OPLS-2005>
235.893569946289

> <r_mmod_Improper_Torsional_Energy-OPLS-2005>
5.52134895324707

> <r_mmod_Van_der_Waal_Energy-OPLS-2005>
145.038269042969

> <r_mmod_Electrostatic_Energy-OPLS-2005>
-358.529541015625

> <r_mmod_Solvation_Energy-OPLS-2005>
-235.611251831055

> <b_mmod_Minimization_Converged-OPLS-2005>
0

> <r_mmod_RMS_Derivative-OPLS-2005>
1.64242672920227

$$$$
85
                    3D
 Structure written by MMmdl.
153161  0  0  1  0            999 V2000
  -30.7045  -14.4906   20.5760 C   0  0  0  0  0  0
  -30.4225  -12.3161   19.4395 C   0  0  0  0  0  0
  -29.5007  -12.5107   18.2169 C   0  0  0  0  0  0
  -28.0204  -12.3669   18.6210 C   0  0  0  0  0  0
  -27.6619  -13.2084   19.8753 C   0  0  2  0  0  0
  -28.6992  -12.9930   20.9990 C   0  0  0  0  0  0
  -25.2589  -13.8161   20.5676 C   0  0  0  0  0  0
  -24.1836  -13.0439   20.9162 C   0  0  0  0  0  0
  -24.6388  -11.6905   20.8717 C   0  0  0  0  0  0
  -23.9051  -10.4295   21.0397 C   0  0  0  0  0  0
  -24.3606   -9.4216   21.9177 C   0  0  0  0  0  0
  -23.6288   -8.2248   22.0751 C   0  0  0  0  0  0
  -22.4271   -8.0280   21.3545 C   0  0  0  0  0  0
  -21.9900   -9.0250   20.4648 C   0  0  0  0  0  0
  -22.7220  -10.2133   20.3055 C   0  0  0  0  0  0
  -21.6853   -6.0735   22.5280 C   0  0  0  0  0  0
  -21.4014   -6.5640   23.8212 C   0  0  0  0  0  0
  -21.3662   -5.6792   24.9173 C   0  0  0  0  0  0
  -21.6044   -4.3054   24.7223 C   0  0  0  0  0  0
  -21.8820   -3.8146   23.4344 C   0  0  0  0  0  0
  -21.9192   -4.6963   22.3401 C   0  0  0  0  0  0
  -22.7861  -13.5243   21.1836 C   0  0  0  0  0  0
  -22.1660   -4.2150   21.0978 F   0  0  0  0  0  0
  -21.5632   -3.4538   25.7736 F   0  0  0  0  0  0
  -30.0331  -13.3067   20.4594 N   0  0  0  0  0  0
  -26.3023  -12.9333   20.3350 N   0  0  0  0  0  0
  -25.9317  -11.6489   20.5743 N   0  0  0  0  0  0
  -22.0502  -12.8242   22.0398 N   0  0  0  0  0  0
  -25.4325  -15.1880   20.4117 N   0  0  0  0  0  0
  -31.8153  -14.6553   20.0628 O   0  0  0  0  0  0
  -21.6638   -6.8877   21.4242 O   0  0  0  0  0  0
  -22.3549  -14.5552   20.6689 O   0  0  0  0  0  0
  -24.6160  -31.8670   23.2101 C   0  0  0  0  0  0
  -25.9049  -32.4816   23.8396 C   0  0  1  0  0  0
  -27.2289  -27.4135   20.0947 C   0  0  0  0  0  0
  -25.5898  -33.8615   24.2321 N   0  0  0  0  0  0
  -23.4042  -30.4921   21.5512 C   0  0  2  0  0  0
  -24.8486  -28.9592   20.1132 C   0  0  0  0  0  0
  -22.7417  -29.4656   22.4983 C   0  0  0  0  0  0
  -18.0275  -28.1379   22.8495 C   0  0  0  0  0  0
  -24.1485  -36.7315   23.2635 C   0  0  0  0  0  0
  -25.9361  -30.8263   21.3668 C   0  0  0  0  0  0
  -26.0112  -29.4608   20.7106 C   0  0  0  0  0  0
  -27.2028  -28.6958   20.6972 C   0  0  0  0  0  0
  -26.0446  -26.9391   19.4810 C   0  0  0  0  0  0
  -24.8613  -27.6988   19.4955 C   0  0  0  0  0  0
  -23.6123  -29.8279   20.1649 C   0  0  0  0  0  0
  -25.4104  -36.3106   24.0335 C   0  0  1  0  0  0
  -20.5867  -28.3666   23.1317 C   0  0  2  0  0  0
  -20.6765  -26.9402   22.5415 C   0  0  0  0  0  0
  -19.5741  -26.6387   21.5214 C   0  0  0  0  0  0
  -18.1923  -26.7925   22.1630 C   0  0  0  0  0  0
  -19.1525  -28.8839   23.2904 C   0  0  0  0  0  0
  -18.9451  -30.1446   23.8911 C   0  0  0  0  0  0
  -17.6454  -30.6587   24.0564 C   0  0  0  0  0  0
  -25.9033  -34.9471   23.5125 C   0  0  0  0  0  0
  -16.5345  -29.9089   23.6326 C   0  0  0  0  0  0
  -16.7264  -28.6505   23.0349 C   0  0  0  0  0  0
  -26.4468  -31.6602   25.0733 C   0  0  0  0  0  0
  -25.3730  -31.3732   26.1484 C   0  0  0  0  0  0
  -27.0288  -30.3033   24.6131 C   0  0  0  0  0  0
  -27.6049  -32.4315   25.7492 C   0  0  0  0  0  0
  -27.5581  -37.1807   24.8462 C   0  0  0  0  0  0
  -21.4143  -29.3034   22.3724 N   0  0  0  0  0  0
  -26.4289  -37.3792   23.9412 N   0  0  0  0  0  0
  -24.6705  -31.0762   22.1008 N   0  0  0  0  0  0
  -23.4185  -28.8193   23.3024 O   0  0  0  0  0  0
  -28.3945  -26.6632   20.1299 O   0  0  0  0  0  0
  -26.5598  -34.8922   22.4689 O   0  0  0  0  0  0
  -23.5349  -32.1426   23.7487 O   0  0  0  0  0  0
  -29.7478  -20.0128   19.1727 C   0  0  0  0  0  0
  -29.6835  -20.4914   20.4486 C   0  0  0  0  0  0
  -29.7627  -19.3583   21.3244 C   0  0  0  0  0  0
  -29.8797  -18.2532   20.4996 C   0  0  0  0  0  0
  -29.5892  -21.9209   20.8474 C   0  0  0  0  0  0
  -30.0384  -16.8254   20.6812 C   0  0  0  0  0  0
  -30.0070  -15.5877   21.2510 C   0  0  0  0  0  0
  -29.5356  -22.9822   20.0086 C   0  0  0  0  0  0
  -29.7494  -19.3754   22.8330 C   0  0  0  0  0  0
  -29.5025  -24.4574   20.4261 C   0  0  0  0  0  0
  -28.2960  -25.2477   19.8668 C   0  0  0  0  0  0
  -29.8821  -18.6573   19.1939 O   0  0  0  0  0  0
  -31.4689  -12.4048   19.1426 H   0  0  0  0  0  0
  -30.3175  -11.3066   19.8403 H   0  0  0  0  0  0
  -29.7482  -11.7871   17.4396 H   0  0  0  0  0  0
  -29.6688  -13.4974   17.7819 H   0  0  0  0  0  0
  -27.8323  -11.3106   18.8179 H   0  0  0  0  0  0
  -27.3730  -12.6395   17.7868 H   0  0  0  0  0  0
  -27.7072  -14.2566   19.5791 H   0  0  0  0  0  0
  -28.6803  -11.9556   21.3360 H   0  0  0  0  0  0
  -28.4385  -13.5775   21.8793 H   0  0  0  0  0  0
  -25.2754   -9.5697   22.4744 H   0  0  0  0  0  0
  -24.0004   -7.4644   22.7470 H   0  0  0  0  0  0
  -21.0830   -8.8761   19.8957 H   0  0  0  0  0  0
  -22.3671  -10.9666   19.6162 H   0  0  0  0  0  0
  -21.2003   -7.6148   23.9714 H   0  0  0  0  0  0
  -21.1487   -6.0522   25.9075 H   0  0  0  0  0  0
  -22.0597   -2.7609   23.2839 H   0  0  0  0  0  0
  -22.4112  -11.9902   22.4788 H   0  0  0  0  0  0
  -21.1129  -13.1284   22.2614 H   0  0  0  0  0  0
  -24.6718  -15.8482   20.5298 H   0  0  0  0  0  0
  -26.2977  -15.6275   20.1220 H   0  0  0  0  0  0
  -26.7120  -32.5519   23.1158 H   0  0  0  0  0  0
  -25.0042  -33.9778   25.0462 H   0  0  0  0  0  0
  -22.6937  -31.3097   21.4137 H   0  0  0  0  0  0
  -23.3742  -35.9653   23.3297 H   0  0  0  0  0  0
  -24.3581  -36.8929   22.2050 H   0  0  0  0  0  0
  -23.7240  -37.6523   23.6648 H   0  0  0  0  0  0
  -26.0530  -31.5939   20.6004 H   0  0  0  0  0  0
  -26.8224  -30.8763   21.9876 H   0  0  0  0  0  0
  -28.0993  -29.0782   21.1654 H   0  0  0  0  0  0
  -26.0094  -25.9811   18.9838 H   0  0  0  0  0  0
  -23.9681  -27.3097   19.0261 H   0  0  0  0  0  0
  -23.7217  -30.6040   19.4066 H   0  0  0  0  0  0
  -22.7353  -29.2498   19.8681 H   0  0  0  0  0  0
  -25.1278  -36.1969   25.0828 H   0  0  0  0  0  0
  -20.9964  -28.3229   24.1435 H   0  0  0  0  0  0
  -20.5678  -26.2269   23.3601 H   0  0  0  0  0  0
  -21.6635  -26.7450   22.1199 H   0  0  0  0  0  0
  -19.6904  -25.6301   21.1235 H   0  0  0  0  0  0
  -19.6681  -27.3205   20.6749 H   0  0  0  0  0  0
  -17.4191  -26.6668   21.4036 H   0  0  0  0  0  0
  -18.0330  -26.0068   22.9028 H   0  0  0  0  0  0
  -19.7926  -30.7258   24.2289 H   0  0  0  0  0  0
  -17.5009  -31.6269   24.5159 H   0  0  0  0  0  0
  -15.5345  -30.2995   23.7642 H   0  0  0  0  0  0
  -15.8664  -28.0831   22.7053 H   0  0  0  0  0  0
  -24.5889  -30.7090   25.7831 H   0  0  0  0  0  0
  -24.8937  -32.2900   26.4928 H   0  0  0  0  0  0
  -25.8075  -30.8904   27.0246 H   0  0  0  0  0  0
  -26.2838  -29.6812   24.1155 H   0  0  0  0  0  0
  -27.4004  -29.7257   25.4606 H   0  0  0  0  0  0
  -27.8700  -30.4330   23.9318 H   0  0  0  0  0  0
  -27.2675  -33.3607   26.2095 H   0  0  0  0  0  0
  -28.3847  -32.6886   25.0311 H   0  0  0  0  0  0
  -28.0728  -31.8421   26.5387 H   0  0  0  0  0  0
  -28.2597  -38.0105   24.7512 H   0  0  0  0  0  0
  -28.1075  -36.2637   24.6276 H   0  0  0  0  0  0
  -27.2302  -37.1446   25.8866 H   0  0  0  0  0  0
  -20.9299  -29.8755   21.6948 H   0  0  0  0  0  0
  -26.0177  -38.2870   24.1419 H   0  0  0  0  0  0
  -29.7354  -20.4660   18.1910 H   0  0  0  0  0  0
  -29.5783  -22.1114   21.9114 H   0  0  0  0  0  0
  -29.3456  -17.0407   21.4786 H   0  0  0  0  0  0
  -29.5186  -15.3695   22.1962 H   0  0  0  0  0  0
  -29.5367  -22.8115   18.9412 H   0  0  0  0  0  0
  -30.3888  -20.1720   23.2134 H   0  0  0  0  0  0
  -30.1135  -18.4322   23.2410 H   0  0  0  0  0  0
  -28.7370  -19.5404   23.2018 H   0  0  0  0  0  0
  -30.4254  -24.9188   20.0730 H   0  0  0  0  0  0
  -29.5171  -24.5323   21.5141 H   0  0  0  0  0  0
  -27.3964  -24.8296   20.3223 H   0  0  0  0  0  0
  -28.2206  -25.0966   18.7889 H   0  0  0  0  0  0
  1 25  1  0  0  0
  1 30  2  0  0  0
  1 77  1  0  0  0
  2  3  1  0  0  0
  2 25  1  0  0  0
  2 83  1  0  0  0
  2 84  1  0  0  0
  3  4  1  0  0  0
  3 85  1  0  0  0
  3 86  1  0  0  0
  4  5  1  0  0  0
  4 87  1  0  0  0
  4 88  1  0  0  0
  5  6  1  0  0  0
  5 26  1  0  0  0
  5 89  1  0  0  0
  6 25  1  0  0  0
  6 90  1  0  0  0
  6 91  1  0  0  0
  7  8  2  0  0  0
  7 26  1  0  0  0
  7 29  1  0  0  0
  8  9  1  0  0  0
  8 22  1  0  0  0
  9 10  1  0  0  0
  9 27  2  0  0  0
 10 11  2  0  0  0
 10 15  1  0  0  0
 11 12  1  0  0  0
 11 92  1  0  0  0
 12 13  2  0  0  0
 12 93  1  0  0  0
 13 14  1  0  0  0
 13 31  1  0  0  0
 14 15  2  0  0  0
 14 94  1  0  0  0
 15 95  1  0  0  0
 16 17  2  0  0  0
 16 21  1  0  0  0
 16 31  1  0  0  0
 17 18  1  0  0  0
 17 96  1  0  0  0
 18 19  2  0  0  0
 18 97  1  0  0  0
 19 20  1  0  0  0
 19 24  1  0  0  0
 20 21  2  0  0  0
 20 98  1  0  0  0
 21 23  1  0  0  0
 22 28  1  0  0  0
 22 32  2  0  0  0
 26 27  1  0  0  0
 28 99  1  0  0  0
 28100  1  0  0  0
 29101  1  0  0  0
 29102  1  0  0  0
 33 34  1  0  0  0
 33 66  1  0  0  0
 33 70  2  0  0  0
 34 36  1  0  0  0
 34 59  1  0  0  0
 34103  1  0  0  0
 35 44  2  0  0  0
 35 45  1  0  0  0
 35 68  1  0  0  0
 36 56  1  0  0  0
 36104  1  0  0  0
 37 39  1  0  0  0
 37 47  1  0  0  0
 37 66  1  0  0  0
 37105  1  0  0  0
 38 43  2  0  0  0
 38 46  1  0  0  0
 38 47  1  0  0  0
 39 64  1  0  0  0
 39 67  2  0  0  0
 40 52  1  0  0  0
 40 53  2  0  0  0
 40 58  1  0  0  0
 41106  1  0  0  0
 41107  1  0  0  0
 41108  1  0  0  0
 41 48  1  0  0  0
 42 43  1  0  0  0
 42 66  1  0  0  0
 42109  1  0  0  0
 42110  1  0  0  0
 43 44  1  0  0  0
 44111  1  0  0  0
 45 46  2  0  0  0
 45112  1  0  0  0
 46113  1  0  0  0
 47114  1  0  0  0
 47115  1  0  0  0
 48 56  1  0  0  0
 48 65  1  0  0  0
 48116  1  0  0  0
 49 50  1  0  0  0
 49 53  1  0  0  0
 49 64  1  0  0  0
 49117  1  0  0  0
 50 51  1  0  0  0
 50118  1  0  0  0
 50119  1  0  0  0
 51 52  1  0  0  0
 51120  1  0  0  0
 51121  1  0  0  0
 52122  1  0  0  0
 52123  1  0  0  0
 53 54  1  0  0  0
 54 55  2  0  0  0
 54124  1  0  0  0
 55 57  1  0  0  0
 55125  1  0  0  0
 56 69  2  0  0  0
 57 58  2  0  0  0
 57126  1  0  0  0
 58127  1  0  0  0
 59 60  1  0  0  0
 59 61  1  0  0  0
 59 62  1  0  0  0
 60128  1  0  0  0
 60129  1  0  0  0
 60130  1  0  0  0
 61131  1  0  0  0
 61132  1  0  0  0
 61133  1  0  0  0
 62134  1  0  0  0
 62135  1  0  0  0
 62136  1  0  0  0
 63 65  1  0  0  0
 63137  1  0  0  0
 63138  1  0  0  0
 63139  1  0  0  0
 64140  1  0  0  0
 65141  1  0  0  0
 68 81  1  0  0  0
 71 72  2  0  0  0
 71 82  1  0  0  0
 71142  1  0  0  0
 72 73  1  0  0  0
 72 75  1  0  0  0
 73 74  2  0  0  0
 73 79  1  0  0  0
 74 76  1  0  0  0
 74 82  1  0  0  0
 75 78  2  0  0  0
 75143  1  0  0  0
 76 77  2  0  0  0
 76144  1  0  0  0
 77145  1  0  0  0
 78 80  1  0  0  0
 78146  1  0  0  0
 79147  1  0  0  0
 79148  1  0  0  0
 79149  1  0  0  0
 80 81  1  0  0  0
 80150  1  0  0  0
 80151  1  0  0  0
 81152  1  0  0  0
 81153  1  0  0  0
M  ISO  4   1 100  68 101  77 100  81 101
M  END
> <chiral flag>
0

> <version>
0

> <s_m_source_file>
/data/baiqing/PycharmProjects/Reinvent-master-3.2/result/LINK_invent/BTK/process_docking_weight1_custom_product_contain_oxygen_bond_distance_aromatic_linkinvent_7_9_3/rearranged_h_0120.sdf

> <i_m_source_file_index>
86

> <r_mmod_Potential_Energy-OPLS-2005>
154.924713134766

> <r_mmod_Stretch_Energy-OPLS-2005>
39.3881607055664

> <r_mmod_Bend_Energy-OPLS-2005>
310.522033691406

> <r_mmod_Torsional_Energy-OPLS-2005>
184.675506591797

> <r_mmod_Improper_Torsional_Energy-OPLS-2005>
3.81393718719482

> <r_mmod_Van_der_Waal_Energy-OPLS-2005>
141.042770385742

> <r_mmod_Electrostatic_Energy-OPLS-2005>
-337.643157958984

> <r_mmod_Solvation_Energy-OPLS-2005>
-202.145355224609

> <b_mmod_Minimization_Converged-OPLS-2005>
0

> <r_mmod_RMS_Derivative-OPLS-2005>
0.555132269859314

$$$$
86
                    3D
 Structure written by MMmdl.
164172  0  0  1  0            999 V2000
  -30.6708  -14.4902   20.4698 C   0  0  0  0  0  0
  -30.4233  -12.2789   19.4417 C   0  0  0  0  0  0
  -29.5049  -12.4494   18.2135 C   0  0  0  0  0  0
  -28.0173  -12.3452   18.6168 C   0  0  0  0  0  0
  -27.6553  -13.1973   19.8649 C   0  0  2  0  0  0
  -28.7002  -13.0140   20.9908 C   0  0  0  0  0  0
  -25.2577  -13.8139   20.5680 C   0  0  0  0  0  0
  -24.1824  -13.0425   20.9189 C   0  0  0  0  0  0
  -24.6355  -11.6893   20.8730 C   0  0  0  0  0  0
  -23.9014  -10.4288   21.0384 C   0  0  0  0  0  0
  -24.3583   -9.4212   21.9165 C   0  0  0  0  0  0
  -23.6283   -8.2235   22.0739 C   0  0  0  0  0  0
  -22.4270   -8.0259   21.3525 C   0  0  0  0  0  0
  -21.9880   -9.0226   20.4629 C   0  0  0  0  0  0
  -22.7186  -10.2123   20.3038 C   0  0  0  0  0  0
  -21.6844   -6.0716   22.5284 C   0  0  0  0  0  0
  -21.4003   -6.5626   23.8211 C   0  0  0  0  0  0
  -21.3662   -5.6783   24.9180 C   0  0  0  0  0  0
  -21.6054   -4.3044   24.7230 C   0  0  0  0  0  0
  -21.8821   -3.8130   23.4353 C   0  0  0  0  0  0
  -21.9192   -4.6940   22.3403 C   0  0  0  0  0  0
  -22.7845  -13.5230   21.1856 C   0  0  0  0  0  0
  -22.1656   -4.2121   21.0988 F   0  0  0  0  0  0
  -21.5645   -3.4536   25.7743 F   0  0  0  0  0  0
  -30.0308  -13.2929   20.4290 N   0  0  0  0  0  0
  -26.2991  -12.9276   20.3329 N   0  0  0  0  0  0
  -25.9279  -11.6456   20.5751 N   0  0  0  0  0  0
  -22.0471  -12.8248   22.0422 N   0  0  0  0  0  0
  -25.4326  -15.1855   20.4095 N   0  0  0  0  0  0
  -31.8483  -14.6431   20.1341 O   0  0  0  0  0  0
  -21.6637   -6.8855   21.4241 O   0  0  0  0  0  0
  -22.3543  -14.5538   20.6691 O   0  0  0  0  0  0
  -24.6112  -31.8699   23.2112 C   0  0  0  0  0  0
  -25.9014  -32.4833   23.8396 C   0  0  1  0  0  0
  -27.2283  -27.4635   20.1024 C   0  0  0  0  0  0
  -25.5876  -33.8631   24.2326 N   0  0  0  0  0  0
  -23.3965  -30.4925   21.5536 C   0  0  2  0  0  0
  -24.8419  -28.9630   20.1128 C   0  0  0  0  0  0
  -22.7386  -29.4661   22.5025 C   0  0  0  0  0  0
  -18.0259  -28.1371   22.8503 C   0  0  0  0  0  0
  -24.1484  -36.7319   23.2640 C   0  0  0  0  0  0
  -25.9209  -30.8496   21.3535 C   0  0  0  0  0  0
  -26.0004  -29.4867   20.7000 C   0  0  0  0  0  0
  -27.2017  -28.7474   20.6831 C   0  0  0  0  0  0
  -26.0585  -26.9443   19.5091 C   0  0  0  0  0  0
  -24.8644  -27.6915   19.5109 C   0  0  0  0  0  0
  -23.6000  -29.8233   20.1678 C   0  0  0  0  0  0
  -25.4104  -36.3114   24.0341 C   0  0  1  0  0  0
  -20.5854  -28.3640   23.1343 C   0  0  2  0  0  0
  -20.6754  -26.9385   22.5429 C   0  0  0  0  0  0
  -19.5738  -26.6384   21.5218 C   0  0  0  0  0  0
  -18.1912  -26.7924   22.1625 C   0  0  0  0  0  0
  -19.1511  -28.8823   23.2919 C   0  0  0  0  0  0
  -18.9439  -30.1438   23.8915 C   0  0  0  0  0  0
  -17.6439  -30.6581   24.0565 C   0  0  0  0  0  0
  -25.9028  -34.9482   23.5130 C   0  0  0  0  0  0
  -16.5330  -29.9081   23.6328 C   0  0  0  0  0  0
  -16.7251  -28.6499   23.0350 C   0  0  0  0  0  0
  -26.4451  -31.6606   25.0713 C   0  0  0  0  0  0
  -25.3729  -31.3707   26.1474 C   0  0  0  0  0  0
  -27.0267  -30.3056   24.6045 C   0  0  0  0  0  0
  -27.6031  -32.4326   25.7462 C   0  0  0  0  0  0
  -27.5579  -37.1806   24.8460 C   0  0  0  0  0  0
  -21.4122  -29.3005   22.3755 N   0  0  0  0  0  0
  -26.4288  -37.3797   23.9409 N   0  0  0  0  0  0
  -24.6616  -31.0832   22.0987 N   0  0  0  0  0  0
  -23.4179  -28.8217   23.3064 O   0  0  0  0  0  0
  -28.3847  -26.7276   20.1370 O   0  0  0  0  0  0
  -26.5595  -34.8932   22.4696 O   0  0  0  0  0  0
  -23.5316  -32.1429   23.7537 O   0  0  0  0  0  0
  -29.2928  -16.3503   18.4022 C   0  0  0  0  0  0
  -29.2724  -17.3576   17.4251 C   0  0  0  0  0  0
  -30.2380  -17.9234   20.0117 C   0  0  0  0  0  0
  -30.2063  -18.9481   19.0301 C   0  0  0  0  0  0
  -29.8101  -16.6097   19.6921 C   0  0  0  0  0  0
  -29.7478  -18.6423   17.7281 C   0  0  0  0  0  0
  -30.0610  -22.5772   16.3626 C   0  0  0  0  0  0
  -30.6261  -23.1215   17.4523 C   0  0  0  0  0  0
  -30.5481  -23.7951   19.7238 C   0  0  0  0  0  0
  -30.2708  -22.8208   18.8329 C   0  0  0  0  0  0
  -30.7175  -20.3553   19.3380 C   0  0  0  0  0  0
  -30.2520  -23.8515   21.2113 C   0  0  0  0  0  0
  -29.6520  -21.4741   19.2263 C   0  0  0  0  0  0
  -29.5834  -25.1909   21.5806 C   0  0  0  0  0  0
  -28.2618  -25.4875   20.8393 C   0  0  0  0  0  0
  -29.8624  -15.5524   20.6460 N   0  0  0  0  0  0
  -29.7692  -19.5747   16.7502 F   0  0  0  0  0  0
  -31.4728  -12.3646   19.1521 H   0  0  0  0  0  0
  -30.3130  -11.2803   19.8659 H   0  0  0  0  0  0
  -29.7391  -11.6890   17.4665 H   0  0  0  0  0  0
  -29.7044  -13.4046   17.7310 H   0  0  0  0  0  0
  -27.8160  -11.2934   18.8242 H   0  0  0  0  0  0
  -27.3761  -12.6144   17.7756 H   0  0  0  0  0  0
  -27.6747  -14.2364   19.5480 H   0  0  0  0  0  0
  -28.6737  -11.9934   21.3729 H   0  0  0  0  0  0
  -28.4778  -13.6609   21.8416 H   0  0  0  0  0  0
  -25.2713   -9.5719   22.4748 H   0  0  0  0  0  0
  -24.0000   -7.4631   22.7463 H   0  0  0  0  0  0
  -21.0804   -8.8727   19.8943 H   0  0  0  0  0  0
  -22.3609  -10.9657   19.6162 H   0  0  0  0  0  0
  -21.1984   -7.6126   23.9708 H   0  0  0  0  0  0
  -21.1488   -6.0511   25.9089 H   0  0  0  0  0  0
  -22.0597   -2.7586   23.2858 H   0  0  0  0  0  0
  -22.4044  -11.9917   22.4854 H   0  0  0  0  0  0
  -21.1081  -13.1291   22.2587 H   0  0  0  0  0  0
  -24.6692  -15.8437   20.5219 H   0  0  0  0  0  0
  -26.2874  -15.6241   20.0921 H   0  0  0  0  0  0
  -26.7084  -32.5551   23.1166 H   0  0  0  0  0  0
  -25.0007  -33.9794   25.0454 H   0  0  0  0  0  0
  -22.6833  -31.3084   21.4175 H   0  0  0  0  0  0
  -23.3741  -35.9654   23.3307 H   0  0  0  0  0  0
  -24.3575  -36.8928   22.2050 H   0  0  0  0  0  0
  -23.7240  -37.6531   23.6650 H   0  0  0  0  0  0
  -26.0203  -31.6186   20.5864 H   0  0  0  0  0  0
  -26.8138  -30.9072   21.9639 H   0  0  0  0  0  0
  -28.1001  -29.1481   21.1303 H   0  0  0  0  0  0
  -26.0686  -25.9657   19.0492 H   0  0  0  0  0  0
  -23.9719  -27.2836   19.0555 H   0  0  0  0  0  0
  -23.6947  -30.5968   19.4050 H   0  0  0  0  0  0
  -22.7264  -29.2354   19.8809 H   0  0  0  0  0  0
  -25.1280  -36.1977   25.0834 H   0  0  0  0  0  0
  -20.9938  -28.3193   24.1467 H   0  0  0  0  0  0
  -20.5658  -26.2242   23.3602 H   0  0  0  0  0  0
  -21.6621  -26.7441   22.1216 H   0  0  0  0  0  0
  -19.6894  -25.6303   21.1222 H   0  0  0  0  0  0
  -19.6685  -27.3212   20.6762 H   0  0  0  0  0  0
  -17.4193  -26.6690   21.4014 H   0  0  0  0  0  0
  -18.0299  -26.0054   22.9004 H   0  0  0  0  0  0
  -19.7919  -30.7251   24.2290 H   0  0  0  0  0  0
  -17.4999  -31.6267   24.5156 H   0  0  0  0  0  0
  -15.5337  -30.2982   23.7648 H   0  0  0  0  0  0
  -15.8656  -28.0825   22.7047 H   0  0  0  0  0  0
  -24.5889  -30.7065   25.7815 H   0  0  0  0  0  0
  -24.8933  -32.2865   26.4940 H   0  0  0  0  0  0
  -25.8095  -30.8864   27.0217 H   0  0  0  0  0  0
  -26.2788  -29.6834   24.1113 H   0  0  0  0  0  0
  -27.4071  -29.7269   25.4472 H   0  0  0  0  0  0
  -27.8605  -30.4391   23.9147 H   0  0  0  0  0  0
  -27.2643  -33.3607   26.2076 H   0  0  0  0  0  0
  -28.3806  -32.6926   25.0268 H   0  0  0  0  0  0
  -28.0735  -31.8436   26.5343 H   0  0  0  0  0  0
  -28.2602  -38.0099   24.7511 H   0  0  0  0  0  0
  -28.1070  -36.2634   24.6278 H   0  0  0  0  0  0
  -27.2304  -37.1446   25.8865 H   0  0  0  0  0  0
  -20.9276  -29.8703   21.6959 H   0  0  0  0  0  0
  -26.0183  -38.2875   24.1414 H   0  0  0  0  0  0
  -28.9250  -15.3754   18.1285 H   0  0  0  0  0  0
  -28.9072  -17.1434   16.4307 H   0  0  0  0  0  0
  -30.6124  -18.1396   21.0019 H   0  0  0  0  0  0
  -30.3959  -22.8578   15.3740 H   0  0  0  0  0  0
  -29.2564  -21.8610   16.4209 H   0  0  0  0  0  0
  -31.4172  -23.8392   17.2789 H   0  0  0  0  0  0
  -31.0321  -24.6918   19.3587 H   0  0  0  0  0  0
  -31.5268  -20.5509   18.6324 H   0  0  0  0  0  0
  -31.1758  -20.3883   20.3274 H   0  0  0  0  0  0
  -31.2015  -23.7713   21.7419 H   0  0  0  0  0  0
  -29.6417  -23.0188   21.5553 H   0  0  0  0  0  0
  -28.9173  -21.2123   18.4679 H   0  0  0  0  0  0
  -29.0684  -21.5301   20.1418 H   0  0  0  0  0  0
  -30.2898  -25.9994   21.3883 H   0  0  0  0  0  0
  -29.4063  -25.2183   22.6564 H   0  0  0  0  0  0
  -27.4535  -25.5250   21.5742 H   0  0  0  0  0  0
  -28.0001  -24.6949   20.1380 H   0  0  0  0  0  0
  -28.9658  -15.2954   21.0314 H   0  0  0  0  0  0
  1 25  1  0  0  0
  1 30  2  0  0  0
  1 86  1  0  0  0
  2  3  1  0  0  0
  2 25  1  0  0  0
  2 88  1  0  0  0
  2 89  1  0  0  0
  3  4  1  0  0  0
  3 90  1  0  0  0
  3 91  1  0  0  0
  4  5  1  0  0  0
  4 92  1  0  0  0
  4 93  1  0  0  0
  5  6  1  0  0  0
  5 26  1  0  0  0
  5 94  1  0  0  0
  6 25  1  0  0  0
  6 95  1  0  0  0
  6 96  1  0  0  0
  7  8  2  0  0  0
  7 26  1  0  0  0
  7 29  1  0  0  0
  8  9  1  0  0  0
  8 22  1  0  0  0
  9 10  1  0  0  0
  9 27  2  0  0  0
 10 11  2  0  0  0
 10 15  1  0  0  0
 11 12  1  0  0  0
 11 97  1  0  0  0
 12 13  2  0  0  0
 12 98  1  0  0  0
 13 14  1  0  0  0
 13 31  1  0  0  0
 14 15  2  0  0  0
 14 99  1  0  0  0
 15100  1  0  0  0
 16 17  2  0  0  0
 16 21  1  0  0  0
 16 31  1  0  0  0
 17 18  1  0  0  0
 17101  1  0  0  0
 18 19  2  0  0  0
 18102  1  0  0  0
 19 20  1  0  0  0
 19 24  1  0  0  0
 20 21  2  0  0  0
 20103  1  0  0  0
 21 23  1  0  0  0
 22 28  1  0  0  0
 22 32  2  0  0  0
 26 27  1  0  0  0
 28104  1  0  0  0
 28105  1  0  0  0
 29106  1  0  0  0
 29107  1  0  0  0
 33 34  1  0  0  0
 33 66  1  0  0  0
 33 70  2  0  0  0
 34 36  1  0  0  0
 34 59  1  0  0  0
 34108  1  0  0  0
 35 44  2  0  0  0
 35 45  1  0  0  0
 35 68  1  0  0  0
 36 56  1  0  0  0
 36109  1  0  0  0
 37 39  1  0  0  0
 37 47  1  0  0  0
 37 66  1  0  0  0
 37110  1  0  0  0
 38 43  2  0  0  0
 38 46  1  0  0  0
 38 47  1  0  0  0
 39 64  1  0  0  0
 39 67  2  0  0  0
 40 52  1  0  0  0
 40 53  2  0  0  0
 40 58  1  0  0  0
 41111  1  0  0  0
 41112  1  0  0  0
 41113  1  0  0  0
 41 48  1  0  0  0
 42 43  1  0  0  0
 42 66  1  0  0  0
 42114  1  0  0  0
 42115  1  0  0  0
 43 44  1  0  0  0
 44116  1  0  0  0
 45 46  2  0  0  0
 45117  1  0  0  0
 46118  1  0  0  0
 47119  1  0  0  0
 47120  1  0  0  0
 48 56  1  0  0  0
 48 65  1  0  0  0
 48121  1  0  0  0
 49 50  1  0  0  0
 49 53  1  0  0  0
 49 64  1  0  0  0
 49122  1  0  0  0
 50 51  1  0  0  0
 50123  1  0  0  0
 50124  1  0  0  0
 51 52  1  0  0  0
 51125  1  0  0  0
 51126  1  0  0  0
 52127  1  0  0  0
 52128  1  0  0  0
 53 54  1  0  0  0
 54 55  2  0  0  0
 54129  1  0  0  0
 55 57  1  0  0  0
 55130  1  0  0  0
 56 69  2  0  0  0
 57 58  2  0  0  0
 57131  1  0  0  0
 58132  1  0  0  0
 59 60  1  0  0  0
 59 61  1  0  0  0
 59 62  1  0  0  0
 60133  1  0  0  0
 60134  1  0  0  0
 60135  1  0  0  0
 61136  1  0  0  0
 61137  1  0  0  0
 61138  1  0  0  0
 62139  1  0  0  0
 62140  1  0  0  0
 62141  1  0  0  0
 63 65  1  0  0  0
 63142  1  0  0  0
 63143  1  0  0  0
 63144  1  0  0  0
 64145  1  0  0  0
 65146  1  0  0  0
 68 85  1  0  0  0
 71 72  2  0  0  0
 71 75  1  0  0  0
 71147  1  0  0  0
 72 76  1  0  0  0
 72148  1  0  0  0
 73 74  1  0  0  0
 73 75  2  0  0  0
 73149  1  0  0  0
 74 76  2  0  0  0
 74 81  1  0  0  0
 75 86  1  0  0  0
 76 87  1  0  0  0
 77 78  2  0  0  0
 77150  1  0  0  0
 77151  1  0  0  0
 78 80  1  0  0  0
 78152  1  0  0  0
 79 80  2  0  0  0
 79 82  1  0  0  0
 79153  1  0  0  0
 80 83  1  0  0  0
 81 83  1  0  0  0
 81154  1  0  0  0
 81155  1  0  0  0
 82 84  1  0  0  0
 82156  1  0  0  0
 82157  1  0  0  0
 83158  1  0  0  0
 83159  1  0  0  0
 84 85  1  0  0  0
 84160  1  0  0  0
 84161  1  0  0  0
 85162  1  0  0  0
 85163  1  0  0  0
 86164  1  0  0  0
M  ISO  4   1 100  68 101  85 101  86 100
M  END
> <chiral flag>
0

> <version>
0

> <s_m_source_file>
/data/baiqing/PycharmProjects/Reinvent-master-3.2/result/LINK_invent/BTK/process_docking_weight1_custom_product_contain_oxygen_bond_distance_aromatic_linkinvent_7_9_3/rearranged_h_0120.sdf

> <i_m_source_file_index>
87

> <r_mmod_Potential_Energy-OPLS-2005>
33.8963165283203

> <r_mmod_Stretch_Energy-OPLS-2005>
34.6308555603027

> <r_mmod_Bend_Energy-OPLS-2005>
98.0347213745117

> <r_mmod_Torsional_Energy-OPLS-2005>
293.744506835938

> <r_mmod_Improper_Torsional_Energy-OPLS-2005>
9.85167121887207

> <r_mmod_Van_der_Waal_Energy-OPLS-2005>
151.728775024414

> <r_mmod_Electrostatic_Energy-OPLS-2005>
-375.003479003906

> <r_mmod_Solvation_Energy-OPLS-2005>
-197.134307861328

> <b_mmod_Minimization_Converged-OPLS-2005>
0

> <r_mmod_RMS_Derivative-OPLS-2005>
2.19623041152954

$$$$
87
                    3D
 Structure written by MMmdl.
155163  0  0  1  0            999 V2000
  -30.7753  -14.4420   20.5435 C   0  0  0  0  0  0
  -30.3944  -12.2855   19.4307 C   0  0  0  0  0  0
  -29.4822  -12.4966   18.2076 C   0  0  0  0  0  0
  -28.0055  -12.3669   18.6181 C   0  0  0  0  0  0
  -27.6553  -13.2201   19.8666 C   0  0  2  0  0  0
  -28.6999  -13.0475   20.9930 C   0  0  0  0  0  0
  -25.2565  -13.8207   20.5697 C   0  0  0  0  0  0
  -24.1824  -13.0452   20.9181 C   0  0  0  0  0  0
  -24.6400  -11.6931   20.8748 C   0  0  0  0  0  0
  -23.9079  -10.4304   21.0410 C   0  0  0  0  0  0
  -24.3636   -9.4217   21.9182 C   0  0  0  0  0  0
  -23.6305   -8.2255   22.0760 C   0  0  0  0  0  0
  -22.4289   -8.0298   21.3551 C   0  0  0  0  0  0
  -21.9930   -9.0268   20.4647 C   0  0  0  0  0  0
  -22.7257  -10.2145   20.3056 C   0  0  0  0  0  0
  -21.6862   -6.0751   22.5279 C   0  0  0  0  0  0
  -21.4020   -6.5657   23.8213 C   0  0  0  0  0  0
  -21.3655   -5.6812   24.9179 C   0  0  0  0  0  0
  -21.6040   -4.3072   24.7220 C   0  0  0  0  0  0
  -21.8825   -3.8162   23.4346 C   0  0  0  0  0  0
  -21.9198   -4.6980   22.3406 C   0  0  0  0  0  0
  -22.7848  -13.5230   21.1848 C   0  0  0  0  0  0
  -22.1668   -4.2172   21.0982 F   0  0  0  0  0  0
  -21.5619   -3.4550   25.7730 F   0  0  0  0  0  0
  -30.0328  -13.3050   20.4309 N   0  0  0  0  0  0
  -26.3001  -12.9399   20.3352 N   0  0  0  0  0  0
  -25.9336  -11.6543   20.5779 N   0  0  0  0  0  0
  -22.0499  -12.8200   22.0401 N   0  0  0  0  0  0
  -25.4296  -15.1916   20.4114 N   0  0  0  0  0  0
  -31.9219  -14.4897   20.0912 O   0  0  0  0  0  0
  -21.6649   -6.8899   21.4245 O   0  0  0  0  0  0
  -22.3526  -14.5529   20.6704 O   0  0  0  0  0  0
  -24.6133  -31.8710   23.2130 C   0  0  0  0  0  0
  -25.9040  -32.4837   23.8403 C   0  0  1  0  0  0
  -27.2218  -27.4445   20.0922 C   0  0  0  0  0  0
  -25.5917  -33.8636   24.2342 N   0  0  0  0  0  0
  -23.3990  -30.4970   21.5550 C   0  0  2  0  0  0
  -24.8401  -28.9670   20.1161 C   0  0  0  0  0  0
  -22.7408  -29.4671   22.5007 C   0  0  0  0  0  0
  -18.0273  -28.1402   22.8488 C   0  0  0  0  0  0
  -24.1497  -36.7319   23.2622 C   0  0  0  0  0  0
  -25.9276  -30.8395   21.3644 C   0  0  0  0  0  0
  -26.0010  -29.4752   20.7114 C   0  0  0  0  0  0
  -27.1937  -28.7209   20.6971 C   0  0  0  0  0  0
  -26.0428  -26.9547   19.4812 C   0  0  0  0  0  0
  -24.8549  -27.7052   19.5008 C   0  0  0  0  0  0
  -23.6061  -29.8368   20.1667 C   0  0  0  0  0  0
  -25.4109  -36.3118   24.0336 C   0  0  1  0  0  0
  -20.5858  -28.3677   23.1340 C   0  0  2  0  0  0
  -20.6776  -26.9423   22.5422 C   0  0  0  0  0  0
  -19.5754  -26.6407   21.5223 C   0  0  0  0  0  0
  -18.1926  -26.7950   22.1625 C   0  0  0  0  0  0
  -19.1516  -28.8860   23.2908 C   0  0  0  0  0  0
  -18.9447  -30.1466   23.8917 C   0  0  0  0  0  0
  -17.6447  -30.6605   24.0582 C   0  0  0  0  0  0
  -25.9046  -34.9483   23.5127 C   0  0  0  0  0  0
  -16.5339  -29.9111   23.6330 C   0  0  0  0  0  0
  -16.7262  -28.6533   23.0341 C   0  0  0  0  0  0
  -26.4455  -31.6597   25.0720 C   0  0  0  0  0  0
  -25.3726  -31.3706   26.1473 C   0  0  0  0  0  0
  -27.0258  -30.3036   24.6068 C   0  0  0  0  0  0
  -27.6047  -32.4280   25.7487 C   0  0  0  0  0  0
  -27.5604  -37.1795   24.8440 C   0  0  0  0  0  0
  -21.4136  -29.3047   22.3764 N   0  0  0  0  0  0
  -26.4285  -37.3816   23.9434 N   0  0  0  0  0  0
  -24.6653  -31.0821   22.1035 N   0  0  0  0  0  0
  -23.4199  -28.8204   23.3027 O   0  0  0  0  0  0
  -28.4019  -26.7335   20.1100 O   0  0  0  0  0  0
  -26.5608  -34.8926   22.4688 O   0  0  0  0  0  0
  -23.5334  -32.1456   23.7539 O   0  0  0  0  0  0
  -29.3138  -18.7094   21.2598 C   0  0  0  0  0  0
  -29.1180  -20.1033   21.3812 C   0  0  0  0  0  0
  -31.6188  -18.9917   21.9655 C   0  0  0  0  0  0
  -30.5812  -18.1476   21.5168 C   0  0  0  0  0  0
  -30.1723  -20.9550   21.7899 C   0  0  0  0  0  0
  -31.4316  -20.3832   22.0900 C   0  0  0  0  0  0
  -30.9206  -16.7397   21.2481 C   0  0  0  0  0  0
  -30.0179  -22.4215   21.8069 C   0  0  0  0  0  0
  -30.1234  -15.6687   21.0113 C   0  0  0  0  0  0
  -29.2656  -23.1377   20.9492 C   0  0  0  0  0  0
  -29.1926  -24.6082   21.0241 C   0  0  0  0  0  0
  -32.6164  -21.2551   22.4767 C   0  0  0  0  0  0
  -28.3212  -25.3080   19.9764 C   0  0  0  0  0  0
  -29.7890  -25.2738   21.8801 O   0  0  0  0  0  0
  -31.4399  -12.3278   19.1217 H   0  0  0  0  0  0
  -30.2533  -11.2871   19.8480 H   0  0  0  0  0  0
  -29.7160  -11.7729   17.4254 H   0  0  0  0  0  0
  -29.6611  -13.4840   17.7772 H   0  0  0  0  0  0
  -27.8063  -11.3132   18.8181 H   0  0  0  0  0  0
  -27.3590  -12.6421   17.7830 H   0  0  0  0  0  0
  -27.6875  -14.2616   19.5471 H   0  0  0  0  0  0
  -28.6642  -12.0355   21.3955 H   0  0  0  0  0  0
  -28.4762  -13.7052   21.8339 H   0  0  0  0  0  0
  -25.2793   -9.5687   22.4744 H   0  0  0  0  0  0
  -24.0019   -7.4653   22.7483 H   0  0  0  0  0  0
  -21.0871   -8.8790   19.8937 H   0  0  0  0  0  0
  -22.3728  -10.9691   19.6168 H   0  0  0  0  0  0
  -21.2024   -7.6171   23.9713 H   0  0  0  0  0  0
  -21.1463   -6.0550   25.9079 H   0  0  0  0  0  0
  -22.0607   -2.7624   23.2840 H   0  0  0  0  0  0
  -22.4143  -11.9871   22.4778 H   0  0  0  0  0  0
  -21.1103  -13.1197   22.2594 H   0  0  0  0  0  0
  -24.6679  -15.8524   20.5215 H   0  0  0  0  0  0
  -26.2906  -15.6269   20.1055 H   0  0  0  0  0  0
  -26.7121  -32.5553   23.1175 H   0  0  0  0  0  0
  -25.0085  -33.9807   25.0500 H   0  0  0  0  0  0
  -22.6852  -31.3123   21.4212 H   0  0  0  0  0  0
  -23.3785  -35.9622   23.3215 H   0  0  0  0  0  0
  -24.3622  -36.9008   22.2054 H   0  0  0  0  0  0
  -23.7207  -37.6483   23.6680 H   0  0  0  0  0  0
  -26.0346  -31.6070   20.5957 H   0  0  0  0  0  0
  -26.8188  -30.8938   21.9778 H   0  0  0  0  0  0
  -28.0898  -29.1086   21.1619 H   0  0  0  0  0  0
  -26.0175  -26.0032   18.9717 H   0  0  0  0  0  0
  -23.9632  -27.3105   19.0337 H   0  0  0  0  0  0
  -23.7250  -30.6182   19.4154 H   0  0  0  0  0  0
  -22.7270  -29.2660   19.8623 H   0  0  0  0  0  0
  -25.1273  -36.1966   25.0827 H   0  0  0  0  0  0
  -20.9939  -28.3244   24.1465 H   0  0  0  0  0  0
  -20.5722  -26.2277   23.3598 H   0  0  0  0  0  0
  -21.6648  -26.7503   22.1194 H   0  0  0  0  0  0
  -19.6927  -25.6324   21.1249 H   0  0  0  0  0  0
  -19.6701  -27.3227   20.6762 H   0  0  0  0  0  0
  -17.4202  -26.6707   21.4020 H   0  0  0  0  0  0
  -18.0312  -26.0090   22.9011 H   0  0  0  0  0  0
  -19.7921  -30.7287   24.2288 H   0  0  0  0  0  0
  -17.5002  -31.6284   24.5189 H   0  0  0  0  0  0
  -15.5343  -30.3026   23.7635 H   0  0  0  0  0  0
  -15.8662  -28.0872   22.7023 H   0  0  0  0  0  0
  -24.5882  -30.7072   25.7808 H   0  0  0  0  0  0
  -24.8933  -32.2869   26.4935 H   0  0  0  0  0  0
  -25.8078  -30.8856   27.0220 H   0  0  0  0  0  0
  -26.2797  -29.6847   24.1074 H   0  0  0  0  0  0
  -27.3975  -29.7212   25.4505 H   0  0  0  0  0  0
  -27.8652  -30.4340   23.9237 H   0  0  0  0  0  0
  -27.2687  -33.3557   26.2123 H   0  0  0  0  0  0
  -28.3842  -32.6872   25.0312 H   0  0  0  0  0  0
  -28.0730  -31.8359   26.5358 H   0  0  0  0  0  0
  -28.2529  -38.0183   24.7635 H   0  0  0  0  0  0
  -28.1194  -36.2730   24.6071 H   0  0  0  0  0  0
  -27.2352  -37.1213   25.8841 H   0  0  0  0  0  0
  -20.9297  -29.8783   21.7002 H   0  0  0  0  0  0
  -26.0164  -38.2866   24.1539 H   0  0  0  0  0  0
  -28.5004  -18.0913   20.9068 H   0  0  0  0  0  0
  -28.1496  -20.5185   21.1393 H   0  0  0  0  0  0
  -32.5953  -18.5717   22.1645 H   0  0  0  0  0  0
  -31.9910  -16.5927   21.1778 H   0  0  0  0  0  0
  -30.5559  -22.9466   22.5856 H   0  0  0  0  0  0
  -29.0506  -15.7426   21.1029 H   0  0  0  0  0  0
  -28.7046  -22.6508   20.1653 H   0  0  0  0  0  0
  -33.5361  -20.6766   22.5548 H   0  0  0  0  0  0
  -32.4431  -21.7431   23.4358 H   0  0  0  0  0  0
  -32.7800  -22.0269   21.7238 H   0  0  0  0  0  0
  -27.3151  -24.9225   20.1291 H   0  0  0  0  0  0
  -28.6423  -25.0147   18.9775 H   0  0  0  0  0  0
  1 25  1  0  0  0
  1 30  2  0  0  0
  1 79  1  0  0  0
  2  3  1  0  0  0
  2 25  1  0  0  0
  2 85  1  0  0  0
  2 86  1  0  0  0
  3  4  1  0  0  0
  3 87  1  0  0  0
  3 88  1  0  0  0
  4  5  1  0  0  0
  4 89  1  0  0  0
  4 90  1  0  0  0
  5  6  1  0  0  0
  5 26  1  0  0  0
  5 91  1  0  0  0
  6 25  1  0  0  0
  6 92  1  0  0  0
  6 93  1  0  0  0
  7  8  2  0  0  0
  7 26  1  0  0  0
  7 29  1  0  0  0
  8  9  1  0  0  0
  8 22  1  0  0  0
  9 10  1  0  0  0
  9 27  2  0  0  0
 10 11  2  0  0  0
 10 15  1  0  0  0
 11 12  1  0  0  0
 11 94  1  0  0  0
 12 13  2  0  0  0
 12 95  1  0  0  0
 13 14  1  0  0  0
 13 31  1  0  0  0
 14 15  2  0  0  0
 14 96  1  0  0  0
 15 97  1  0  0  0
 16 17  2  0  0  0
 16 21  1  0  0  0
 16 31  1  0  0  0
 17 18  1  0  0  0
 17 98  1  0  0  0
 18 19  2  0  0  0
 18 99  1  0  0  0
 19 20  1  0  0  0
 19 24  1  0  0  0
 20 21  2  0  0  0
 20100  1  0  0  0
 21 23  1  0  0  0
 22 28  1  0  0  0
 22 32  2  0  0  0
 26 27  1  0  0  0
 28101  1  0  0  0
 28102  1  0  0  0
 29103  1  0  0  0
 29104  1  0  0  0
 33 34  1  0  0  0
 33 66  1  0  0  0
 33 70  2  0  0  0
 34 36  1  0  0  0
 34 59  1  0  0  0
 34105  1  0  0  0
 35 44  2  0  0  0
 35 45  1  0  0  0
 35 68  1  0  0  0
 36 56  1  0  0  0
 36106  1  0  0  0
 37 39  1  0  0  0
 37 47  1  0  0  0
 37 66  1  0  0  0
 37107  1  0  0  0
 38 43  2  0  0  0
 38 46  1  0  0  0
 38 47  1  0  0  0
 39 64  1  0  0  0
 39 67  2  0  0  0
 40 52  1  0  0  0
 40 53  2  0  0  0
 40 58  1  0  0  0
 41108  1  0  0  0
 41109  1  0  0  0
 41110  1  0  0  0
 41 48  1  0  0  0
 42 43  1  0  0  0
 42 66  1  0  0  0
 42111  1  0  0  0
 42112  1  0  0  0
 43 44  1  0  0  0
 44113  1  0  0  0
 45 46  2  0  0  0
 45114  1  0  0  0
 46115  1  0  0  0
 47116  1  0  0  0
 47117  1  0  0  0
 48 56  1  0  0  0
 48 65  1  0  0  0
 48118  1  0  0  0
 49 50  1  0  0  0
 49 53  1  0  0  0
 49 64  1  0  0  0
 49119  1  0  0  0
 50 51  1  0  0  0
 50120  1  0  0  0
 50121  1  0  0  0
 51 52  1  0  0  0
 51122  1  0  0  0
 51123  1  0  0  0
 52124  1  0  0  0
 52125  1  0  0  0
 53 54  1  0  0  0
 54 55  2  0  0  0
 54126  1  0  0  0
 55 57  1  0  0  0
 55127  1  0  0  0
 56 69  2  0  0  0
 57 58  2  0  0  0
 57128  1  0  0  0
 58129  1  0  0  0
 59 60  1  0  0  0
 59 61  1  0  0  0
 59 62  1  0  0  0
 60130  1  0  0  0
 60131  1  0  0  0
 60132  1  0  0  0
 61133  1  0  0  0
 61134  1  0  0  0
 61135  1  0  0  0
 62136  1  0  0  0
 62137  1  0  0  0
 62138  1  0  0  0
 63 65  1  0  0  0
 63139  1  0  0  0
 63140  1  0  0  0
 63141  1  0  0  0
 64142  1  0  0  0
 65143  1  0  0  0
 68 83  1  0  0  0
 71 72  2  0  0  0
 71 74  1  0  0  0
 71144  1  0  0  0
 72 75  1  0  0  0
 72145  1  0  0  0
 73 74  2  0  0  0
 73 76  1  0  0  0
 73146  1  0  0  0
 74 77  1  0  0  0
 75 76  2  0  0  0
 75 78  1  0  0  0
 76 82  1  0  0  0
 77 79  2  0  0  0
 77147  1  0  0  0
 78 80  2  0  0  0
 78148  1  0  0  0
 79149  1  0  0  0
 80 81  1  0  0  0
 80150  1  0  0  0
 81 83  1  0  0  0
 81 84  2  0  0  0
 82151  1  0  0  0
 82152  1  0  0  0
 82153  1  0  0  0
 83154  1  0  0  0
 83155  1  0  0  0
M  ISO  4   1 100  68 101  79 100  83 101
M  END
> <chiral flag>
0

> <version>
0

> <s_m_source_file>
/data/baiqing/PycharmProjects/Reinvent-master-3.2/result/LINK_invent/BTK/process_docking_weight1_custom_product_contain_oxygen_bond_distance_aromatic_linkinvent_7_9_3/rearranged_h_0120.sdf

> <i_m_source_file_index>
88

> <r_mmod_Potential_Energy-OPLS-2005>
-19.9040107727051

> <r_mmod_Stretch_Energy-OPLS-2005>
34.2826461791992

> <r_mmod_Bend_Energy-OPLS-2005>
102.909164428711

> <r_mmod_Torsional_Energy-OPLS-2005>
192.230804443359

> <r_mmod_Improper_Torsional_Energy-OPLS-2005>
5.97501993179321

> <r_mmod_Van_der_Waal_Energy-OPLS-2005>
172.593307495117

> <r_mmod_Electrostatic_Energy-OPLS-2005>
-328.942138671875

> <r_mmod_Solvation_Energy-OPLS-2005>
-217.110733032227

> <b_mmod_Minimization_Converged-OPLS-2005>
0

> <r_mmod_RMS_Derivative-OPLS-2005>
1.99408102035522

$$$$
88
                    3D
 Structure written by MMmdl.
159167  0  0  1  0            999 V2000
  -30.6415  -14.5624   20.6374 C   0  0  0  0  0  0
  -30.4602  -12.3834   19.4506 C   0  0  0  0  0  0
  -29.5235  -12.5358   18.2318 C   0  0  0  0  0  0
  -28.0369  -12.3687   18.6225 C   0  0  0  0  0  0
  -27.6642  -13.2028   19.8765 C   0  0  2  0  0  0
  -28.6981  -12.9553   20.9908 C   0  0  0  0  0  0
  -25.2591  -13.8145   20.5718 C   0  0  0  0  0  0
  -24.1862  -13.0426   20.9226 C   0  0  0  0  0  0
  -24.6436  -11.6895   20.8799 C   0  0  0  0  0  0
  -23.9128  -10.4275   21.0479 C   0  0  0  0  0  0
  -24.3658   -9.4172   21.9236 C   0  0  0  0  0  0
  -23.6327   -8.2215   22.0776 C   0  0  0  0  0  0
  -22.4286   -8.0293   21.3582 C   0  0  0  0  0  0
  -21.9967   -9.0276   20.4679 C   0  0  0  0  0  0
  -22.7320  -10.2143   20.3117 C   0  0  0  0  0  0
  -21.6825   -6.0800   22.5337 C   0  0  0  0  0  0
  -21.3973   -6.5683   23.8271 C   0  0  0  0  0  0
  -21.3677   -5.6825   24.9226 C   0  0  0  0  0  0
  -21.6062   -4.3098   24.7277 C   0  0  0  0  0  0
  -21.8791   -3.8207   23.4384 C   0  0  0  0  0  0
  -21.9158   -4.7030   22.3451 C   0  0  0  0  0  0
  -22.7879  -13.5210   21.1918 C   0  0  0  0  0  0
  -22.1626   -4.2227   21.1026 F   0  0  0  0  0  0
  -21.5662   -3.4572   25.7792 F   0  0  0  0  0  0
  -30.0269  -13.3456   20.4775 N   0  0  0  0  0  0
  -26.3031  -12.9320   20.3323 N   0  0  0  0  0  0
  -25.9347  -11.6488   20.5763 N   0  0  0  0  0  0
  -22.0461  -12.8214   22.0470 N   0  0  0  0  0  0
  -25.4259  -15.1888   20.4210 N   0  0  0  0  0  0
  -31.7201  -14.8087   20.0901 O   0  0  0  0  0  0
  -21.6605   -6.8929   21.4295 O   0  0  0  0  0  0
  -22.3582  -14.5524   20.6777 O   0  0  0  0  0  0
  -24.6104  -31.8617   23.2073 C   0  0  0  0  0  0
  -25.8929  -32.4840   23.8425 C   0  0  1  0  0  0
  -27.2501  -27.3983   20.0993 C   0  0  0  0  0  0
  -25.5780  -33.8663   24.2330 N   0  0  0  0  0  0
  -23.4089  -30.4795   21.5437 C   0  0  2  0  0  0
  -24.8624  -28.9319   20.1258 C   0  0  0  0  0  0
  -22.7357  -29.4621   22.4917 C   0  0  0  0  0  0
  -18.0223  -28.1368   22.8400 C   0  0  0  0  0  0
  -24.1477  -36.7281   23.2654 C   0  0  0  0  0  0
  -25.9448  -30.8125   21.3740 C   0  0  0  0  0  0
  -26.0243  -29.4459   20.7139 C   0  0  0  0  0  0
  -27.2237  -28.6920   20.6803 C   0  0  0  0  0  0
  -26.0668  -26.8991   19.5169 C   0  0  0  0  0  0
  -24.8791  -27.6603   19.5253 C   0  0  0  0  0  0
  -23.6248  -29.7992   20.1663 C   0  0  0  0  0  0
  -25.4115  -36.3126   24.0332 C   0  0  1  0  0  0
  -20.5813  -28.3630   23.1210 C   0  0  2  0  0  0
  -20.6678  -26.9329   22.5379 C   0  0  0  0  0  0
  -19.5749  -26.6353   21.5084 C   0  0  0  0  0  0
  -18.1907  -26.7926   22.1476 C   0  0  0  0  0  0
  -19.1482  -28.8796   23.2842 C   0  0  0  0  0  0
  -18.9446  -30.1365   23.8918 C   0  0  0  0  0  0
  -17.6472  -30.6579   24.0515 C   0  0  0  0  0  0
  -25.9019  -34.9474   23.5139 C   0  0  0  0  0  0
  -16.5344  -29.9091   23.6326 C   0  0  0  0  0  0
  -16.7220  -28.6488   23.0368 C   0  0  0  0  0  0
  -26.4385  -31.6703   25.0795 C   0  0  0  0  0  0
  -25.3676  -31.3793   26.1559 C   0  0  0  0  0  0
  -27.0227  -30.3161   24.6251 C   0  0  0  0  0  0
  -27.5981  -32.4450   25.7521 C   0  0  0  0  0  0
  -27.5611  -37.1754   24.8416 C   0  0  0  0  0  0
  -21.4072  -29.3039   22.3660 N   0  0  0  0  0  0
  -26.4293  -37.3802   23.9419 N   0  0  0  0  0  0
  -24.6725  -31.0668   22.0994 N   0  0  0  0  0  0
  -23.4082  -28.8126   23.2971 O   0  0  0  0  0  0
  -28.4294  -26.6727   20.0515 O   0  0  0  0  0  0
  -26.5616  -34.8882   22.4735 O   0  0  0  0  0  0
  -23.5260  -32.1370   23.7404 O   0  0  0  0  0  0
  -31.4497  -18.1470   20.2143 C   0  0  0  0  0  0
  -31.0349  -20.4205   19.4295 C   0  0  0  0  0  0
  -30.1037  -18.0231   20.6233 C   0  0  0  0  0  0
  -29.6764  -20.3601   19.8199 C   0  0  0  0  0  0
  -29.2034  -19.1213   20.3716 C   0  0  0  0  0  0
  -31.9055  -19.3316   19.6092 C   0  0  0  0  0  0
  -29.6924  -16.8496   21.4604 C   0  0  0  0  0  0
  -28.8292  -21.6010   19.6709 C   0  0  0  0  0  0
  -29.9125  -15.5010   21.5178 C   0  0  0  0  0  0
  -29.2302  -22.8961   19.8207 C   0  0  0  0  0  0
  -27.3182  -19.5678   22.0616 C   0  0  0  0  0  0
  -27.7152  -18.9730   20.7018 C   0  0  0  0  0  0
  -28.3945  -24.1715   19.5430 C   0  0  0  0  0  0
  -28.4606  -25.3285   20.5960 C   0  0  0  0  0  0
  -33.2052  -19.4443   19.2359 F   0  0  0  0  0  0
  -31.4992  -12.5349   19.1540 H   0  0  0  0  0  0
  -30.4190  -11.3693   19.8535 H   0  0  0  0  0  0
  -29.8041  -11.8236   17.4569 H   0  0  0  0  0  0
  -29.6700  -13.5320   17.8085 H   0  0  0  0  0  0
  -27.8570  -11.3112   18.8194 H   0  0  0  0  0  0
  -27.3923  -12.6367   17.7856 H   0  0  0  0  0  0
  -27.7103  -14.2550   19.5944 H   0  0  0  0  0  0
  -28.7102  -11.8971   21.2541 H   0  0  0  0  0  0
  -28.3870  -13.4449   21.9100 H   0  0  0  0  0  0
  -25.2783   -9.5655   22.4847 H   0  0  0  0  0  0
  -24.0069   -7.4584   22.7465 H   0  0  0  0  0  0
  -21.0924   -8.8833   19.8953 H   0  0  0  0  0  0
  -22.3812  -10.9730   19.6275 H   0  0  0  0  0  0
  -21.1905   -7.6174   23.9845 H   0  0  0  0  0  0
  -21.1544   -6.0524   25.9148 H   0  0  0  0  0  0
  -22.0543   -2.7682   23.2872 H   0  0  0  0  0  0
  -22.3925  -11.9813   22.4870 H   0  0  0  0  0  0
  -21.1128  -13.1404   22.2698 H   0  0  0  0  0  0
  -24.6613  -15.8384   20.5674 H   0  0  0  0  0  0
  -26.2892  -15.6434   20.1543 H   0  0  0  0  0  0
  -26.7008  -32.5482   23.1187 H   0  0  0  0  0  0
  -24.9850  -33.9950   25.0408 H   0  0  0  0  0  0
  -22.6993  -31.2941   21.3923 H   0  0  0  0  0  0
  -23.3802  -35.9546   23.3273 H   0  0  0  0  0  0
  -24.3558  -36.8971   22.2074 H   0  0  0  0  0  0
  -23.7146  -37.6419   23.6735 H   0  0  0  0  0  0
  -26.0928  -31.5848   20.6168 H   0  0  0  0  0  0
  -26.8141  -30.8444   22.0192 H   0  0  0  0  0  0
  -28.1311  -29.1004   21.1028 H   0  0  0  0  0  0
  -26.0706  -25.9311   19.0357 H   0  0  0  0  0  0
  -23.9819  -27.2647   19.0684 H   0  0  0  0  0  0
  -23.7235  -30.5621   19.3936 H   0  0  0  0  0  0
  -22.7585  -29.2012   19.8780 H   0  0  0  0  0  0
  -25.1322  -36.2002   25.0831 H   0  0  0  0  0  0
  -20.9915  -28.3218   24.1312 H   0  0  0  0  0  0
  -20.5319  -26.2259   23.3588 H   0  0  0  0  0  0
  -21.6590  -26.7208   22.1348 H   0  0  0  0  0  0
  -19.6892  -25.6240   21.1177 H   0  0  0  0  0  0
  -19.6812  -27.3086   20.6564 H   0  0  0  0  0  0
  -17.4154  -26.6555   21.3918 H   0  0  0  0  0  0
  -18.0376  -26.0090   22.8905 H   0  0  0  0  0  0
  -19.7941  -30.7086   24.2402 H   0  0  0  0  0  0
  -17.5065  -31.6286   24.5069 H   0  0  0  0  0  0
  -15.5361  -30.3022   23.7687 H   0  0  0  0  0  0
  -15.8572  -28.0804   22.7202 H   0  0  0  0  0  0
  -24.5812  -30.7214   25.7858 H   0  0  0  0  0  0
  -24.8908  -32.2920   26.5122 H   0  0  0  0  0  0
  -25.8004  -30.8856   27.0266 H   0  0  0  0  0  0
  -26.2796  -29.6953   24.1234 H   0  0  0  0  0  0
  -27.3875  -29.7407   25.4767 H   0  0  0  0  0  0
  -27.8691  -30.4516   23.9522 H   0  0  0  0  0  0
  -27.2617  -33.3658   26.2296 H   0  0  0  0  0  0
  -28.3635  -32.7181   25.0248 H   0  0  0  0  0  0
  -28.0839  -31.8495   26.5264 H   0  0  0  0  0  0
  -28.2535  -38.0145   24.7604 H   0  0  0  0  0  0
  -28.1212  -36.2671   24.6088 H   0  0  0  0  0  0
  -27.2329  -37.1186   25.8812 H   0  0  0  0  0  0
  -20.9169  -29.8864   21.7005 H   0  0  0  0  0  0
  -26.0185  -38.2853   24.1580 H   0  0  0  0  0  0
  -32.1644  -17.3655   20.4237 H   0  0  0  0  0  0
  -31.4222  -21.3138   18.9652 H   0  0  0  0  0  0
  -29.0978  -17.1839   22.2992 H   0  0  0  0  0  0
  -27.8067  -21.4456   19.3601 H   0  0  0  0  0  0
  -29.4732  -15.0616   22.3954 H   0  0  0  0  0  0
  -30.2486  -23.0780   20.1331 H   0  0  0  0  0  0
  -26.2591  -19.3940   22.2562 H   0  0  0  0  0  0
  -27.4774  -20.6449   22.0825 H   0  0  0  0  0  0
  -27.8883  -19.1273   22.8826 H   0  0  0  0  0  0
  -27.4280  -17.9230   20.6529 H   0  0  0  0  0  0
  -27.1212  -19.4474   19.9193 H   0  0  0  0  0  0
  -27.3527  -23.9042   19.3691 H   0  0  0  0  0  0
  -28.7670  -24.5630   18.5964 H   0  0  0  0  0  0
  -29.4126  -25.2609   21.1238 H   0  0  0  0  0  0
  -27.6992  -25.2093   21.3700 H   0  0  0  0  0  0
  1 25  1  0  0  0
  1 30  2  0  0  0
  1 79  1  0  0  0
  2  3  1  0  0  0
  2 25  1  0  0  0
  2 86  1  0  0  0
  2 87  1  0  0  0
  3  4  1  0  0  0
  3 88  1  0  0  0
  3 89  1  0  0  0
  4  5  1  0  0  0
  4 90  1  0  0  0
  4 91  1  0  0  0
  5  6  1  0  0  0
  5 26  1  0  0  0
  5 92  1  0  0  0
  6 25  1  0  0  0
  6 93  1  0  0  0
  6 94  1  0  0  0
  7  8  2  0  0  0
  7 26  1  0  0  0
  7 29  1  0  0  0
  8  9  1  0  0  0
  8 22  1  0  0  0
  9 10  1  0  0  0
  9 27  2  0  0  0
 10 11  2  0  0  0
 10 15  1  0  0  0
 11 12  1  0  0  0
 11 95  1  0  0  0
 12 13  2  0  0  0
 12 96  1  0  0  0
 13 14  1  0  0  0
 13 31  1  0  0  0
 14 15  2  0  0  0
 14 97  1  0  0  0
 15 98  1  0  0  0
 16 17  2  0  0  0
 16 21  1  0  0  0
 16 31  1  0  0  0
 17 18  1  0  0  0
 17 99  1  0  0  0
 18 19  2  0  0  0
 18100  1  0  0  0
 19 20  1  0  0  0
 19 24  1  0  0  0
 20 21  2  0  0  0
 20101  1  0  0  0
 21 23  1  0  0  0
 22 28  1  0  0  0
 22 32  2  0  0  0
 26 27  1  0  0  0
 28102  1  0  0  0
 28103  1  0  0  0
 29104  1  0  0  0
 29105  1  0  0  0
 33 34  1  0  0  0
 33 66  1  0  0  0
 33 70  2  0  0  0
 34 36  1  0  0  0
 34 59  1  0  0  0
 34106  1  0  0  0
 35 44  2  0  0  0
 35 45  1  0  0  0
 35 68  1  0  0  0
 36 56  1  0  0  0
 36107  1  0  0  0
 37 39  1  0  0  0
 37 47  1  0  0  0
 37 66  1  0  0  0
 37108  1  0  0  0
 38 43  2  0  0  0
 38 46  1  0  0  0
 38 47  1  0  0  0
 39 64  1  0  0  0
 39 67  2  0  0  0
 40 52  1  0  0  0
 40 53  2  0  0  0
 40 58  1  0  0  0
 41109  1  0  0  0
 41110  1  0  0  0
 41111  1  0  0  0
 41 48  1  0  0  0
 42 43  1  0  0  0
 42 66  1  0  0  0
 42112  1  0  0  0
 42113  1  0  0  0
 43 44  1  0  0  0
 44114  1  0  0  0
 45 46  2  0  0  0
 45115  1  0  0  0
 46116  1  0  0  0
 47117  1  0  0  0
 47118  1  0  0  0
 48 56  1  0  0  0
 48 65  1  0  0  0
 48119  1  0  0  0
 49 50  1  0  0  0
 49 53  1  0  0  0
 49 64  1  0  0  0
 49120  1  0  0  0
 50 51  1  0  0  0
 50121  1  0  0  0
 50122  1  0  0  0
 51 52  1  0  0  0
 51123  1  0  0  0
 51124  1  0  0  0
 52125  1  0  0  0
 52126  1  0  0  0
 53 54  1  0  0  0
 54 55  2  0  0  0
 54127  1  0  0  0
 55 57  1  0  0  0
 55128  1  0  0  0
 56 69  2  0  0  0
 57 58  2  0  0  0
 57129  1  0  0  0
 58130  1  0  0  0
 59 60  1  0  0  0
 59 61  1  0  0  0
 59 62  1  0  0  0
 60131  1  0  0  0
 60132  1  0  0  0
 60133  1  0  0  0
 61134  1  0  0  0
 61135  1  0  0  0
 61136  1  0  0  0
 62137  1  0  0  0
 62138  1  0  0  0
 62139  1  0  0  0
 63 65  1  0  0  0
 63140  1  0  0  0
 63141  1  0  0  0
 63142  1  0  0  0
 64143  1  0  0  0
 65144  1  0  0  0
 68 84  1  0  0  0
 71 73  2  0  0  0
 71 76  1  0  0  0
 71145  1  0  0  0
 72 74  1  0  0  0
 72 76  2  0  0  0
 72146  1  0  0  0
 73 75  1  0  0  0
 73 77  1  0  0  0
 74 75  2  0  0  0
 74 78  1  0  0  0
 75 82  1  0  0  0
 76 85  1  0  0  0
 77 79  2  0  0  0
 77147  1  0  0  0
 78 80  2  0  0  0
 78148  1  0  0  0
 79149  1  0  0  0
 80 83  1  0  0  0
 80150  1  0  0  0
 81 82  1  0  0  0
 81151  1  0  0  0
 81152  1  0  0  0
 81153  1  0  0  0
 82154  1  0  0  0
 82155  1  0  0  0
 83 84  1  0  0  0
 83156  1  0  0  0
 83157  1  0  0  0
 84158  1  0  0  0
 84159  1  0  0  0
M  ISO  4   1 100  68 101  79 100  84 101
M  END
> <chiral flag>
0

> <version>
0

> <s_m_source_file>
/data/baiqing/PycharmProjects/Reinvent-master-3.2/result/LINK_invent/BTK/process_docking_weight1_custom_product_contain_oxygen_bond_distance_aromatic_linkinvent_7_9_3/rearranged_h_0120.sdf

> <i_m_source_file_index>
89

> <r_mmod_Potential_Energy-OPLS-2005>
90.0812454223633

> <r_mmod_Stretch_Energy-OPLS-2005>
56.9240341186523

> <r_mmod_Bend_Energy-OPLS-2005>
148.61376953125

> <r_mmod_Torsional_Energy-OPLS-2005>
229.787261962891

> <r_mmod_Improper_Torsional_Energy-OPLS-2005>
3.86433267593384

> <r_mmod_Van_der_Waal_Energy-OPLS-2005>
146.270935058594

> <r_mmod_Electrostatic_Energy-OPLS-2005>
-333.567443847656

> <r_mmod_Solvation_Energy-OPLS-2005>
-185.406509399414

> <b_mmod_Minimization_Converged-OPLS-2005>
0

> <r_mmod_RMS_Derivative-OPLS-2005>
5.29554033279419

$$$$
89
                    3D
 Structure written by MMmdl.
157165  0  0  1  0            999 V2000
  -30.6430  -14.6039   20.5005 C   0  0  0  0  0  0
  -30.4380  -12.3676   19.4454 C   0  0  0  0  0  0
  -29.5069  -12.5024   18.2195 C   0  0  0  0  0  0
  -28.0292  -12.3476   18.6319 C   0  0  0  0  0  0
  -27.6585  -13.2126   19.8658 C   0  0  2  0  0  0
  -28.7050  -13.0513   20.9929 C   0  0  0  0  0  0
  -25.2593  -13.8167   20.5688 C   0  0  0  0  0  0
  -24.1850  -13.0442   20.9193 C   0  0  0  0  0  0
  -24.6407  -11.6907   20.8741 C   0  0  0  0  0  0
  -23.9073  -10.4293   21.0406 C   0  0  0  0  0  0
  -24.3619   -9.4208   21.9186 C   0  0  0  0  0  0
  -23.6292   -8.2246   22.0759 C   0  0  0  0  0  0
  -22.4276   -8.0285   21.3548 C   0  0  0  0  0  0
  -21.9913   -9.0260   20.4647 C   0  0  0  0  0  0
  -22.7244  -10.2139   20.3055 C   0  0  0  0  0  0
  -21.6853   -6.0738   22.5282 C   0  0  0  0  0  0
  -21.4014   -6.5643   23.8214 C   0  0  0  0  0  0
  -21.3658   -5.6795   24.9175 C   0  0  0  0  0  0
  -21.6044   -4.3058   24.7226 C   0  0  0  0  0  0
  -21.8817   -3.8150   23.4345 C   0  0  0  0  0  0
  -21.9192   -4.6967   22.3402 C   0  0  0  0  0  0
  -22.7868  -13.5242   21.1848 C   0  0  0  0  0  0
  -22.1660   -4.2153   21.0980 F   0  0  0  0  0  0
  -21.5629   -3.4540   25.7736 F   0  0  0  0  0  0
  -30.0257  -13.3835   20.4307 N   0  0  0  0  0  0
  -26.3022  -12.9338   20.3330 N   0  0  0  0  0  0
  -25.9340  -11.6500   20.5762 N   0  0  0  0  0  0
  -22.0497  -12.8235   22.0392 N   0  0  0  0  0  0
  -25.4310  -15.1886   20.4086 N   0  0  0  0  0  0
  -31.8007  -14.7673   20.1052 O   0  0  0  0  0  0
  -21.6641   -6.8880   21.4244 O   0  0  0  0  0  0
  -22.3555  -14.5547   20.6693 O   0  0  0  0  0  0
  -24.6244  -31.8610   23.2044 C   0  0  0  0  0  0
  -25.9102  -32.4786   23.8360 C   0  0  1  0  0  0
  -27.2248  -27.3415   20.1045 C   0  0  0  0  0  0
  -25.5931  -33.8586   24.2291 N   0  0  0  0  0  0
  -23.4161  -30.4860   21.5467 C   0  0  2  0  0  0
  -24.8612  -28.9471   20.1097 C   0  0  0  0  0  0
  -22.7472  -29.4621   22.4941 C   0  0  0  0  0  0
  -18.0285  -28.1376   22.8469 C   0  0  0  0  0  0
  -24.1493  -36.7290   23.2640 C   0  0  0  0  0  0
  -25.9559  -30.7989   21.3720 C   0  0  0  0  0  0
  -26.0302  -29.4300   20.7107 C   0  0  0  0  0  0
  -27.2144  -28.6384   20.6989 C   0  0  0  0  0  0
  -26.0300  -26.9079   19.4813 C   0  0  0  0  0  0
  -24.8624  -27.6900   19.4881 C   0  0  0  0  0  0
  -23.6283  -29.8230   20.1617 C   0  0  0  0  0  0
  -25.4111  -36.3079   24.0335 C   0  0  1  0  0  0
  -20.5887  -28.3661   23.1286 C   0  0  2  0  0  0
  -20.6776  -26.9386   22.5405 C   0  0  0  0  0  0
  -19.5753  -26.6370   21.5202 C   0  0  0  0  0  0
  -18.1935  -26.7920   22.1611 C   0  0  0  0  0  0
  -19.1541  -28.8835   23.2873 C   0  0  0  0  0  0
  -18.9468  -30.1440   23.8885 C   0  0  0  0  0  0
  -17.6469  -30.6576   24.0546 C   0  0  0  0  0  0
  -25.9048  -34.9452   23.5107 C   0  0  0  0  0  0
  -16.5357  -29.9066   23.6340 C   0  0  0  0  0  0
  -16.7276  -28.6498   23.0337 C   0  0  0  0  0  0
  -26.4494  -31.6589   25.0724 C   0  0  0  0  0  0
  -25.3732  -31.3734   26.1460 C   0  0  0  0  0  0
  -27.0345  -30.3022   24.6163 C   0  0  0  0  0  0
  -27.6062  -32.4313   25.7492 C   0  0  0  0  0  0
  -27.5580  -37.1792   24.8464 C   0  0  0  0  0  0
  -21.4182  -29.3024   22.3687 N   0  0  0  0  0  0
  -26.4288  -37.3771   23.9416 N   0  0  0  0  0  0
  -24.6845  -31.0645   22.0978 N   0  0  0  0  0  0
  -23.4213  -28.8160   23.3003 O   0  0  0  0  0  0
  -28.3519  -26.5102   20.1496 O   0  0  0  0  0  0
  -26.5599  -34.8912   22.4664 O   0  0  0  0  0  0
  -23.5407  -32.1393   23.7385 O   0  0  0  0  0  0
  -28.7757  -17.8531   21.0355 C   0  0  0  0  0  0
  -31.0508  -17.8169   20.2832 C   0  0  0  0  0  0
  -29.8825  -20.0265   20.5287 C   0  0  0  0  0  0
  -28.7396  -19.2751   20.9446 C   0  0  0  0  0  0
  -31.0336  -19.2431   20.1839 C   0  0  0  0  0  0
  -29.9212  -17.0852   20.7218 C   0  0  0  0  0  0
  -29.9548  -21.5557   20.4514 C   0  0  0  0  0  0
  -29.0164  -22.5518   20.3867 C   0  0  0  0  0  0
  -27.4461  -19.9534   21.3583 C   0  0  0  0  0  0
  -32.3122  -19.9197   19.7075 C   0  0  0  0  0  0
  -29.3167  -24.0859   20.3960 C   0  0  0  0  0  0
  -28.1434  -25.0593   19.9860 C   0  0  0  0  0  0
  -29.8384  -15.6382   20.8813 N   0  0  0  0  0  0
  -31.4807  -12.4827   19.1445 H   0  0  0  0  0  0
  -30.3613  -11.3687   19.8788 H   0  0  0  0  0  0
  -29.7640  -11.7545   17.4685 H   0  0  0  0  0  0
  -29.6571  -13.4739   17.7454 H   0  0  0  0  0  0
  -27.8599  -11.2946   18.8573 H   0  0  0  0  0  0
  -27.3755  -12.5871   17.7923 H   0  0  0  0  0  0
  -27.6816  -14.2498   19.5330 H   0  0  0  0  0  0
  -28.7067  -12.0270   21.3687 H   0  0  0  0  0  0
  -28.4559  -13.6774   21.8507 H   0  0  0  0  0  0
  -25.2762   -9.5685   22.4760 H   0  0  0  0  0  0
  -24.0002   -7.4636   22.7481 H   0  0  0  0  0  0
  -21.0846   -8.8783   19.8944 H   0  0  0  0  0  0
  -22.3711  -10.9681   19.6163 H   0  0  0  0  0  0
  -21.2006   -7.6150   23.9720 H   0  0  0  0  0  0
  -21.1482   -6.0523   25.9078 H   0  0  0  0  0  0
  -22.0595   -2.7613   23.2847 H   0  0  0  0  0  0
  -22.4108  -11.9904   22.4796 H   0  0  0  0  0  0
  -21.1108  -13.1266   22.2568 H   0  0  0  0  0  0
  -24.6610  -15.8409   20.5078 H   0  0  0  0  0  0
  -26.2717  -15.6225   20.0495 H   0  0  0  0  0  0
  -26.7167  -32.5459   23.1101 H   0  0  0  0  0  0
  -25.0116  -33.9733   25.0464 H   0  0  0  0  0  0
  -22.7078  -31.3056   21.4057 H   0  0  0  0  0  0
  -23.3757  -35.9622   23.3297 H   0  0  0  0  0  0
  -24.3590  -36.8910   22.2057 H   0  0  0  0  0  0
  -23.7250  -37.6490   23.6660 H   0  0  0  0  0  0
  -26.0861  -31.5655   20.6068 H   0  0  0  0  0  0
  -26.8376  -30.8442   22.0000 H   0  0  0  0  0  0
  -28.1110  -29.0050   21.1782 H   0  0  0  0  0  0
  -25.9692  -25.9495   18.9886 H   0  0  0  0  0  0
  -23.9667  -27.3133   19.0135 H   0  0  0  0  0  0
  -23.7395  -30.6003   19.4047 H   0  0  0  0  0  0
  -22.7500  -29.2481   19.8615 H   0  0  0  0  0  0
  -25.1290  -36.1925   25.0827 H   0  0  0  0  0  0
  -20.9974  -28.3217   24.1409 H   0  0  0  0  0  0
  -20.5669  -26.2260   23.3592 H   0  0  0  0  0  0
  -21.6644  -26.7402   22.1199 H   0  0  0  0  0  0
  -19.6919  -25.6286   21.1221 H   0  0  0  0  0  0
  -19.6718  -27.3184   20.6738 H   0  0  0  0  0  0
  -17.4208  -26.6662   21.4013 H   0  0  0  0  0  0
  -18.0326  -26.0067   22.9009 H   0  0  0  0  0  0
  -19.7952  -30.7257   24.2242 H   0  0  0  0  0  0
  -17.5028  -31.6259   24.5141 H   0  0  0  0  0  0
  -15.5358  -30.2955   23.7684 H   0  0  0  0  0  0
  -15.8678  -28.0818   22.7040 H   0  0  0  0  0  0
  -24.5911  -30.7071   25.7797 H   0  0  0  0  0  0
  -24.8916  -32.2907   26.4854 H   0  0  0  0  0  0
  -25.8055  -30.8939   27.0252 H   0  0  0  0  0  0
  -26.2916  -29.6766   24.1196 H   0  0  0  0  0  0
  -27.4081  -29.7276   25.4647 H   0  0  0  0  0  0
  -27.8763  -30.4333   23.9363 H   0  0  0  0  0  0
  -27.2687  -33.3620   26.2060 H   0  0  0  0  0  0
  -28.3875  -32.6852   25.0320 H   0  0  0  0  0  0
  -28.0722  -31.8445   26.5414 H   0  0  0  0  0  0
  -28.2577  -38.0105   24.7505 H   0  0  0  0  0  0
  -28.1092  -36.2628   24.6283 H   0  0  0  0  0  0
  -27.2300  -37.1431   25.8869 H   0  0  0  0  0  0
  -20.9347  -29.8757   21.6922 H   0  0  0  0  0  0
  -26.0170  -38.2845   24.1423 H   0  0  0  0  0  0
  -27.8891  -17.3341   21.3732 H   0  0  0  0  0  0
  -31.9559  -17.2877   20.0227 H   0  0  0  0  0  0
  -30.9629  -21.9388   20.4936 H   0  0  0  0  0  0
  -27.9687  -22.3018   20.3434 H   0  0  0  0  0  0
  -26.7738  -19.2584   21.8625 H   0  0  0  0  0  0
  -26.9201  -20.3383   20.4845 H   0  0  0  0  0  0
  -27.6405  -20.7682   22.0551 H   0  0  0  0  0  0
  -33.0265  -19.2037   19.3013 H   0  0  0  0  0  0
  -32.7996  -20.4360   20.5353 H   0  0  0  0  0  0
  -32.1021  -20.6448   18.9208 H   0  0  0  0  0  0
  -30.1829  -24.2737   19.7608 H   0  0  0  0  0  0
  -29.6267  -24.3405   21.4093 H   0  0  0  0  0  0
  -27.2692  -24.7694   20.5720 H   0  0  0  0  0  0
  -27.9030  -24.8611   18.9411 H   0  0  0  0  0  0
  -28.9449  -15.3105   21.2132 H   0  0  0  0  0  0
  1 25  1  0  0  0
  1 30  2  0  0  0
  1 83  1  0  0  0
  2  3  1  0  0  0
  2 25  1  0  0  0
  2 84  1  0  0  0
  2 85  1  0  0  0
  3  4  1  0  0  0
  3 86  1  0  0  0
  3 87  1  0  0  0
  4  5  1  0  0  0
  4 88  1  0  0  0
  4 89  1  0  0  0
  5  6  1  0  0  0
  5 26  1  0  0  0
  5 90  1  0  0  0
  6 25  1  0  0  0
  6 91  1  0  0  0
  6 92  1  0  0  0
  7  8  2  0  0  0
  7 26  1  0  0  0
  7 29  1  0  0  0
  8  9  1  0  0  0
  8 22  1  0  0  0
  9 10  1  0  0  0
  9 27  2  0  0  0
 10 11  2  0  0  0
 10 15  1  0  0  0
 11 12  1  0  0  0
 11 93  1  0  0  0
 12 13  2  0  0  0
 12 94  1  0  0  0
 13 14  1  0  0  0
 13 31  1  0  0  0
 14 15  2  0  0  0
 14 95  1  0  0  0
 15 96  1  0  0  0
 16 17  2  0  0  0
 16 21  1  0  0  0
 16 31  1  0  0  0
 17 18  1  0  0  0
 17 97  1  0  0  0
 18 19  2  0  0  0
 18 98  1  0  0  0
 19 20  1  0  0  0
 19 24  1  0  0  0
 20 21  2  0  0  0
 20 99  1  0  0  0
 21 23  1  0  0  0
 22 28  1  0  0  0
 22 32  2  0  0  0
 26 27  1  0  0  0
 28100  1  0  0  0
 28101  1  0  0  0
 29102  1  0  0  0
 29103  1  0  0  0
 33 34  1  0  0  0
 33 66  1  0  0  0
 33 70  2  0  0  0
 34 36  1  0  0  0
 34 59  1  0  0  0
 34104  1  0  0  0
 35 44  2  0  0  0
 35 45  1  0  0  0
 35 68  1  0  0  0
 36 56  1  0  0  0
 36105  1  0  0  0
 37 39  1  0  0  0
 37 47  1  0  0  0
 37 66  1  0  0  0
 37106  1  0  0  0
 38 43  2  0  0  0
 38 46  1  0  0  0
 38 47  1  0  0  0
 39 64  1  0  0  0
 39 67  2  0  0  0
 40 52  1  0  0  0
 40 53  2  0  0  0
 40 58  1  0  0  0
 41107  1  0  0  0
 41108  1  0  0  0
 41109  1  0  0  0
 41 48  1  0  0  0
 42 43  1  0  0  0
 42 66  1  0  0  0
 42110  1  0  0  0
 42111  1  0  0  0
 43 44  1  0  0  0
 44112  1  0  0  0
 45 46  2  0  0  0
 45113  1  0  0  0
 46114  1  0  0  0
 47115  1  0  0  0
 47116  1  0  0  0
 48 56  1  0  0  0
 48 65  1  0  0  0
 48117  1  0  0  0
 49 50  1  0  0  0
 49 53  1  0  0  0
 49 64  1  0  0  0
 49118  1  0  0  0
 50 51  1  0  0  0
 50119  1  0  0  0
 50120  1  0  0  0
 51 52  1  0  0  0
 51121  1  0  0  0
 51122  1  0  0  0
 52123  1  0  0  0
 52124  1  0  0  0
 53 54  1  0  0  0
 54 55  2  0  0  0
 54125  1  0  0  0
 55 57  1  0  0  0
 55126  1  0  0  0
 56 69  2  0  0  0
 57 58  2  0  0  0
 57127  1  0  0  0
 58128  1  0  0  0
 59 60  1  0  0  0
 59 61  1  0  0  0
 59 62  1  0  0  0
 60129  1  0  0  0
 60130  1  0  0  0
 60131  1  0  0  0
 61132  1  0  0  0
 61133  1  0  0  0
 61134  1  0  0  0
 62135  1  0  0  0
 62136  1  0  0  0
 62137  1  0  0  0
 63 65  1  0  0  0
 63138  1  0  0  0
 63139  1  0  0  0
 63140  1  0  0  0
 64141  1  0  0  0
 65142  1  0  0  0
 68 82  1  0  0  0
 71 74  2  0  0  0
 71 76  1  0  0  0
 71143  1  0  0  0
 72 75  1  0  0  0
 72 76  2  0  0  0
 72144  1  0  0  0
 73 74  1  0  0  0
 73 75  2  0  0  0
 73 77  1  0  0  0
 74 79  1  0  0  0
 75 80  1  0  0  0
 76 83  1  0  0  0
 77 78  2  0  0  0
 77145  1  0  0  0
 78 81  1  0  0  0
 78146  1  0  0  0
 79147  1  0  0  0
 79148  1  0  0  0
 79149  1  0  0  0
 80150  1  0  0  0
 80151  1  0  0  0
 80152  1  0  0  0
 81 82  1  0  0  0
 81153  1  0  0  0
 81154  1  0  0  0
 82155  1  0  0  0
 82156  1  0  0  0
 83157  1  0  0  0
M  ISO  4   1 100  68 101  82 101  83 100
M  END
> <chiral flag>
0

> <version>
0

> <s_m_source_file>
/data/baiqing/PycharmProjects/Reinvent-master-3.2/result/LINK_invent/BTK/process_docking_weight1_custom_product_contain_oxygen_bond_distance_aromatic_linkinvent_7_9_3/rearranged_h_0120.sdf

> <i_m_source_file_index>
90

> <r_mmod_Potential_Energy-OPLS-2005>
42.2073287963867

> <r_mmod_Stretch_Energy-OPLS-2005>
71.834114074707

> <r_mmod_Bend_Energy-OPLS-2005>
134.454986572266

> <r_mmod_Torsional_Energy-OPLS-2005>
215.684844970703

> <r_mmod_Improper_Torsional_Energy-OPLS-2005>
4.30672931671143

> <r_mmod_Van_der_Waal_Energy-OPLS-2005>
155.656265258789

> <r_mmod_Electrostatic_Energy-OPLS-2005>
-375.334503173828

> <r_mmod_Solvation_Energy-OPLS-2005>
-202.717132568359

> <b_mmod_Minimization_Converged-OPLS-2005>
0

> <r_mmod_RMS_Derivative-OPLS-2005>
1.29719388484955

$$$$
90
                    3D
 Structure written by MMmdl.
159167  0  0  1  0            999 V2000
  -30.6095  -14.7285   20.4183 C   0  0  0  0  0  0
  -30.4481  -12.4207   19.4794 C   0  0  0  0  0  0
  -29.5165  -12.3928   18.2453 C   0  0  0  0  0  0
  -28.0270  -12.3198   18.6427 C   0  0  0  0  0  0
  -27.6459  -13.2243   19.8473 C   0  0  2  0  0  0
  -28.6949  -13.1467   20.9778 C   0  0  0  0  0  0
  -25.2526  -13.8203   20.5701 C   0  0  0  0  0  0
  -24.1802  -13.0459   20.9205 C   0  0  0  0  0  0
  -24.6380  -11.6937   20.8758 C   0  0  0  0  0  0
  -23.9042  -10.4315   21.0412 C   0  0  0  0  0  0
  -24.3611   -9.4226   21.9168 C   0  0  0  0  0  0
  -23.6303   -8.2254   22.0723 C   0  0  0  0  0  0
  -22.4267   -8.0295   21.3543 C   0  0  0  0  0  0
  -21.9913   -9.0258   20.4638 C   0  0  0  0  0  0
  -22.7220  -10.2148   20.3051 C   0  0  0  0  0  0
  -21.6860   -6.0744   22.5281 C   0  0  0  0  0  0
  -21.4007   -6.5645   23.8213 C   0  0  0  0  0  0
  -21.3660   -5.6793   24.9177 C   0  0  0  0  0  0
  -21.6055   -4.3060   24.7225 C   0  0  0  0  0  0
  -21.8824   -3.8154   23.4350 C   0  0  0  0  0  0
  -21.9195   -4.6973   22.3403 C   0  0  0  0  0  0
  -22.7831  -13.5237   21.1904 C   0  0  0  0  0  0
  -22.1657   -4.2169   21.0973 F   0  0  0  0  0  0
  -21.5645   -3.4532   25.7731 F   0  0  0  0  0  0
  -29.9954  -13.4961   20.3933 N   0  0  0  0  0  0
  -26.2956  -12.9397   20.3306 N   0  0  0  0  0  0
  -25.9308  -11.6549   20.5786 N   0  0  0  0  0  0
  -22.0497  -12.8181   22.0451 N   0  0  0  0  0  0
  -25.4236  -15.1924   20.4109 N   0  0  0  0  0  0
  -31.8056  -14.8259   20.1246 O   0  0  0  0  0  0
  -21.6642   -6.8885   21.4242 O   0  0  0  0  0  0
  -22.3499  -14.5554   20.6774 O   0  0  0  0  0  0
  -24.6343  -31.8549   23.1996 C   0  0  0  0  0  0
  -25.9174  -32.4738   23.8335 C   0  0  1  0  0  0
  -27.2234  -27.2606   20.1316 C   0  0  0  0  0  0
  -25.5970  -33.8541   24.2264 N   0  0  0  0  0  0
  -23.4310  -30.4795   21.5413 C   0  0  2  0  0  0
  -24.8791  -28.9302   20.1082 C   0  0  0  0  0  0
  -22.7512  -29.4611   22.4893 C   0  0  0  0  0  0
  -18.0294  -28.1408   22.8486 C   0  0  0  0  0  0
  -24.1491  -36.7261   23.2643 C   0  0  0  0  0  0
  -25.9778  -30.7674   21.3836 C   0  0  0  0  0  0
  -26.0509  -29.3922   20.7221 C   0  0  0  0  0  0
  -27.2247  -28.5709   20.7229 C   0  0  0  0  0  0
  -26.0285  -26.8759   19.4784 C   0  0  0  0  0  0
  -24.8742  -27.6806   19.4739 C   0  0  0  0  0  0
  -23.6513  -29.8176   20.1562 C   0  0  0  0  0  0
  -25.4124  -36.3054   24.0326 C   0  0  1  0  0  0
  -20.5900  -28.3727   23.1259 C   0  0  2  0  0  0
  -20.6793  -26.9439   22.5416 C   0  0  0  0  0  0
  -19.5765  -26.6391   21.5221 C   0  0  0  0  0  0
  -18.1941  -26.7951   22.1620 C   0  0  0  0  0  0
  -19.1551  -28.8878   23.2871 C   0  0  0  0  0  0
  -18.9464  -30.1473   23.8900 C   0  0  0  0  0  0
  -17.6465  -30.6609   24.0563 C   0  0  0  0  0  0
  -25.9068  -34.9427   23.5092 C   0  0  0  0  0  0
  -16.5351  -29.9102   23.6336 C   0  0  0  0  0  0
  -16.7281  -28.6511   23.0367 C   0  0  0  0  0  0
  -26.4541  -31.6567   25.0731 C   0  0  0  0  0  0
  -25.3756  -31.3696   26.1435 C   0  0  0  0  0  0
  -27.0401  -30.2982   24.6235 C   0  0  0  0  0  0
  -27.6081  -32.4319   25.7507 C   0  0  0  0  0  0
  -27.5584  -37.1796   24.8460 C   0  0  0  0  0  0
  -21.4216  -29.3062   22.3633 N   0  0  0  0  0  0
  -26.4290  -37.3766   23.9414 N   0  0  0  0  0  0
  -24.6996  -31.0518   22.0969 N   0  0  0  0  0  0
  -23.4193  -28.8158   23.3013 O   0  0  0  0  0  0
  -28.3071  -26.3503   20.2145 O   0  0  0  0  0  0
  -26.5619  -34.8906   22.4651 O   0  0  0  0  0  0
  -23.5496  -32.1365   23.7289 O   0  0  0  0  0  0
  -29.6792  -18.4733   20.4477 C   0  0  0  0  0  0
  -29.7042  -18.3325   17.6884 C   0  0  0  0  0  0
  -29.5763  -19.7341   19.7089 C   0  0  0  0  0  0
  -29.5892  -19.5994   18.2868 C   0  0  0  0  0  0
  -29.8178  -17.1376   18.4163 C   0  0  0  0  0  0
  -29.8240  -17.1526   19.8379 C   0  0  0  0  0  0
  -29.5078  -21.1456   20.3580 C   0  0  0  0  0  0
  -28.8736  -22.3075   19.9309 C   0  0  0  0  0  0
  -28.9875  -23.7482   20.4731 C   0  0  0  0  0  0
  -29.8655  -15.8664   17.5894 C   0  0  0  0  0  0
  -28.1689  -20.9238   16.6265 C   0  0  0  0  0  0
  -29.5468  -20.7597   17.2920 C   0  0  0  0  0  0
  -28.0324  -24.9006   19.9088 C   0  0  0  0  0  0
  -29.8217  -15.8590   20.5806 N   0  0  0  0  0  0
  -29.8208  -24.0436   21.3352 O   0  0  0  0  0  0
  -31.4796  -12.5650   19.1532 H   0  0  0  0  0  0
  -30.4367  -11.4584   19.9926 H   0  0  0  0  0  0
  -29.7616  -11.5253   17.6306 H   0  0  0  0  0  0
  -29.7107  -13.2417   17.6007 H   0  0  0  0  0  0
  -27.8264  -11.2787   18.8935 H   0  0  0  0  0  0
  -27.3925  -12.5457   17.7838 H   0  0  0  0  0  0
  -27.6417  -14.2481   19.4746 H   0  0  0  0  0  0
  -28.7297  -12.1427   21.4051 H   0  0  0  0  0  0
  -28.4386  -13.8211   21.7961 H   0  0  0  0  0  0
  -25.2768   -9.5707   22.4726 H   0  0  0  0  0  0
  -24.0046   -7.4628   22.7402 H   0  0  0  0  0  0
  -21.0859   -8.8756   19.8933 H   0  0  0  0  0  0
  -22.3670  -10.9675   19.6157 H   0  0  0  0  0  0
  -21.1984   -7.6144   23.9724 H   0  0  0  0  0  0
  -21.1477   -6.0519   25.9078 H   0  0  0  0  0  0
  -22.0604   -2.7617   23.2838 H   0  0  0  0  0  0
  -22.4122  -11.9808   22.4759 H   0  0  0  0  0  0
  -21.1139  -13.1184   22.2744 H   0  0  0  0  0  0
  -24.6567  -15.8485   20.5126 H   0  0  0  0  0  0
  -26.2815  -15.6327   20.1021 H   0  0  0  0  0  0
  -26.7236  -32.5383   23.1077 H   0  0  0  0  0  0
  -25.0175  -33.9660   25.0446 H   0  0  0  0  0  0
  -22.7297  -31.3037   21.3961 H   0  0  0  0  0  0
  -23.3766  -35.9578   23.3285 H   0  0  0  0  0  0
  -24.3591  -36.8904   22.2062 H   0  0  0  0  0  0
  -23.7213  -37.6444   23.6680 H   0  0  0  0  0  0
  -26.1290  -31.5309   20.6194 H   0  0  0  0  0  0
  -26.8510  -30.8058   22.0230 H   0  0  0  0  0  0
  -28.1184  -28.9193   21.2217 H   0  0  0  0  0  0
  -25.9454  -25.9259   18.9723 H   0  0  0  0  0  0
  -23.9799  -27.3245   18.9814 H   0  0  0  0  0  0
  -23.7814  -30.5969   19.4044 H   0  0  0  0  0  0
  -22.7700  -29.2545   19.8437 H   0  0  0  0  0  0
  -25.1310  -36.1901   25.0820 H   0  0  0  0  0  0
  -20.9997  -28.3319   24.1374 H   0  0  0  0  0  0
  -20.5711  -26.2334   23.3632 H   0  0  0  0  0  0
  -21.6662  -26.7479   22.1196 H   0  0  0  0  0  0
  -19.6937  -25.6292   21.1270 H   0  0  0  0  0  0
  -19.6717  -27.3188   20.6739 H   0  0  0  0  0  0
  -17.4228  -26.6717   21.4001 H   0  0  0  0  0  0
  -18.0322  -26.0083   22.9000 H   0  0  0  0  0  0
  -19.7939  -30.7291   24.2272 H   0  0  0  0  0  0
  -17.5015  -31.6287   24.5171 H   0  0  0  0  0  0
  -15.5357  -30.3009   23.7652 H   0  0  0  0  0  0
  -15.8676  -28.0821   22.7106 H   0  0  0  0  0  0
  -24.5985  -30.6982   25.7759 H   0  0  0  0  0  0
  -24.8889  -32.2844   26.4826 H   0  0  0  0  0  0
  -25.8084  -30.8914   27.0231 H   0  0  0  0  0  0
  -26.2992  -29.6703   24.1268 H   0  0  0  0  0  0
  -27.4082  -29.7273   25.4771 H   0  0  0  0  0  0
  -27.8878  -30.4246   23.9496 H   0  0  0  0  0  0
  -27.2691  -33.3640   26.2045 H   0  0  0  0  0  0
  -28.3927  -32.6840   25.0357 H   0  0  0  0  0  0
  -28.0720  -31.8469   26.5461 H   0  0  0  0  0  0
  -28.2575  -38.0120   24.7553 H   0  0  0  0  0  0
  -28.1113  -36.2655   24.6241 H   0  0  0  0  0  0
  -27.2311  -37.1385   25.8863 H   0  0  0  0  0  0
  -20.9415  -29.8752   21.6806 H   0  0  0  0  0  0
  -26.0160  -38.2829   24.1444 H   0  0  0  0  0  0
  -29.6522  -18.5266   21.5258 H   0  0  0  0  0  0
  -29.7008  -18.2784   16.6086 H   0  0  0  0  0  0
  -30.1172  -21.2369   21.2471 H   0  0  0  0  0  0
  -28.2231  -22.2306   19.0769 H   0  0  0  0  0  0
  -29.8214  -16.0716   16.5190 H   0  0  0  0  0  0
  -29.0021  -15.2508   17.8278 H   0  0  0  0  0  0
  -30.7865  -15.3095   17.7549 H   0  0  0  0  0  0
  -28.1655  -21.7682   15.9372 H   0  0  0  0  0  0
  -27.3742  -21.0898   17.3532 H   0  0  0  0  0  0
  -27.9038  -20.0392   16.0458 H   0  0  0  0  0  0
  -30.2744  -20.5529   16.5052 H   0  0  0  0  0  0
  -29.9035  -21.6938   17.7164 H   0  0  0  0  0  0
  -27.0476  -24.6436   20.2996 H   0  0  0  0  0  0
  -27.9799  -24.7851   18.8261 H   0  0  0  0  0  0
  -28.9537  -15.6652   21.0586 H   0  0  0  0  0  0
  1 25  1  0  0  0
  1 30  2  0  0  0
  1 84  1  0  0  0
  2  3  1  0  0  0
  2 25  1  0  0  0
  2 86  1  0  0  0
  2 87  1  0  0  0
  3  4  1  0  0  0
  3 88  1  0  0  0
  3 89  1  0  0  0
  4  5  1  0  0  0
  4 90  1  0  0  0
  4 91  1  0  0  0
  5  6  1  0  0  0
  5 26  1  0  0  0
  5 92  1  0  0  0
  6 25  1  0  0  0
  6 93  1  0  0  0
  6 94  1  0  0  0
  7  8  2  0  0  0
  7 26  1  0  0  0
  7 29  1  0  0  0
  8  9  1  0  0  0
  8 22  1  0  0  0
  9 10  1  0  0  0
  9 27  2  0  0  0
 10 11  2  0  0  0
 10 15  1  0  0  0
 11 12  1  0  0  0
 11 95  1  0  0  0
 12 13  2  0  0  0
 12 96  1  0  0  0
 13 14  1  0  0  0
 13 31  1  0  0  0
 14 15  2  0  0  0
 14 97  1  0  0  0
 15 98  1  0  0  0
 16 17  2  0  0  0
 16 21  1  0  0  0
 16 31  1  0  0  0
 17 18  1  0  0  0
 17 99  1  0  0  0
 18 19  2  0  0  0
 18100  1  0  0  0
 19 20  1  0  0  0
 19 24  1  0  0  0
 20 21  2  0  0  0
 20101  1  0  0  0
 21 23  1  0  0  0
 22 28  1  0  0  0
 22 32  2  0  0  0
 26 27  1  0  0  0
 28102  1  0  0  0
 28103  1  0  0  0
 29104  1  0  0  0
 29105  1  0  0  0
 33 34  1  0  0  0
 33 66  1  0  0  0
 33 70  2  0  0  0
 34 36  1  0  0  0
 34 59  1  0  0  0
 34106  1  0  0  0
 35 44  2  0  0  0
 35 45  1  0  0  0
 35 68  1  0  0  0
 36 56  1  0  0  0
 36107  1  0  0  0
 37 39  1  0  0  0
 37 47  1  0  0  0
 37 66  1  0  0  0
 37108  1  0  0  0
 38 43  2  0  0  0
 38 46  1  0  0  0
 38 47  1  0  0  0
 39 64  1  0  0  0
 39 67  2  0  0  0
 40 52  1  0  0  0
 40 53  2  0  0  0
 40 58  1  0  0  0
 41109  1  0  0  0
 41110  1  0  0  0
 41111  1  0  0  0
 41 48  1  0  0  0
 42 43  1  0  0  0
 42 66  1  0  0  0
 42112  1  0  0  0
 42113  1  0  0  0
 43 44  1  0  0  0
 44114  1  0  0  0
 45 46  2  0  0  0
 45115  1  0  0  0
 46116  1  0  0  0
 47117  1  0  0  0
 47118  1  0  0  0
 48 56  1  0  0  0
 48 65  1  0  0  0
 48119  1  0  0  0
 49 50  1  0  0  0
 49 53  1  0  0  0
 49 64  1  0  0  0
 49120  1  0  0  0
 50 51  1  0  0  0
 50121  1  0  0  0
 50122  1  0  0  0
 51 52  1  0  0  0
 51123  1  0  0  0
 51124  1  0  0  0
 52125  1  0  0  0
 52126  1  0  0  0
 53 54  1  0  0  0
 54 55  2  0  0  0
 54127  1  0  0  0
 55 57  1  0  0  0
 55128  1  0  0  0
 56 69  2  0  0  0
 57 58  2  0  0  0
 57129  1  0  0  0
 58130  1  0  0  0
 59 60  1  0  0  0
 59 61  1  0  0  0
 59 62  1  0  0  0
 60131  1  0  0  0
 60132  1  0  0  0
 60133  1  0  0  0
 61134  1  0  0  0
 61135  1  0  0  0
 61136  1  0  0  0
 62137  1  0  0  0
 62138  1  0  0  0
 62139  1  0  0  0
 63 65  1  0  0  0
 63140  1  0  0  0
 63141  1  0  0  0
 63142  1  0  0  0
 64143  1  0  0  0
 65144  1  0  0  0
 68 83  1  0  0  0
 71 73  2  0  0  0
 71 76  1  0  0  0
 71145  1  0  0  0
 72 74  2  0  0  0
 72 75  1  0  0  0
 72146  1  0  0  0
 73 74  1  0  0  0
 73 77  1  0  0  0
 74 82  1  0  0  0
 75 76  2  0  0  0
 75 80  1  0  0  0
 76 84  1  0  0  0
 77 78  2  0  0  0
 77147  1  0  0  0
 78 79  1  0  0  0
 78148  1  0  0  0
 79 83  1  0  0  0
 79 85  2  0  0  0
 80149  1  0  0  0
 80150  1  0  0  0
 80151  1  0  0  0
 81 82  1  0  0  0
 81152  1  0  0  0
 81153  1  0  0  0
 81154  1  0  0  0
 82155  1  0  0  0
 82156  1  0  0  0
 83157  1  0  0  0
 83158  1  0  0  0
 84159  1  0  0  0
M  ISO  4   1 100  68 101  83 101  84 100
M  END
> <chiral flag>
0

> <version>
0

> <s_m_source_file>
/data/baiqing/PycharmProjects/Reinvent-master-3.2/result/LINK_invent/BTK/process_docking_weight1_custom_product_contain_oxygen_bond_distance_aromatic_linkinvent_7_9_3/rearranged_h_0120.sdf

> <i_m_source_file_index>
91

> <r_mmod_Potential_Energy-OPLS-2005>
191.723495483398

> <r_mmod_Stretch_Energy-OPLS-2005>
127.663963317871

> <r_mmod_Bend_Energy-OPLS-2005>
161.502319335938

> <r_mmod_Torsional_Energy-OPLS-2005>
261.003601074219

> <r_mmod_Improper_Torsional_Energy-OPLS-2005>
6.87061262130737

> <r_mmod_Van_der_Waal_Energy-OPLS-2005>
152.548751831055

> <r_mmod_Electrostatic_Energy-OPLS-2005>
-371.710235595703

> <r_mmod_Solvation_Energy-OPLS-2005>
-233.058670043945

> <b_mmod_Minimization_Converged-OPLS-2005>
0

> <r_mmod_RMS_Derivative-OPLS-2005>
2.6283757686615

$$$$
91
                    3D
 Structure written by MMmdl.
162170  0  0  1  0            999 V2000
  -30.7180  -14.5990   20.4247 C   0  0  0  0  0  0
  -30.4192  -12.3512   19.4583 C   0  0  0  0  0  0
  -29.5003  -12.4575   18.2255 C   0  0  0  0  0  0
  -28.0252  -12.2866   18.6447 C   0  0  0  0  0  0
  -27.6308  -13.1885   19.8440 C   0  0  2  0  0  0
  -28.6911  -13.1629   20.9685 C   0  0  0  0  0  0
  -25.2526  -13.8056   20.5724 C   0  0  0  0  0  0
  -24.1773  -13.0380   20.9245 C   0  0  0  0  0  0
  -24.6309  -11.6840   20.8802 C   0  0  0  0  0  0
  -23.8983  -10.4247   21.0460 C   0  0  0  0  0  0
  -24.3568   -9.4162   21.9213 C   0  0  0  0  0  0
  -23.6254   -8.2196   22.0767 C   0  0  0  0  0  0
  -22.4237   -8.0237   21.3551 C   0  0  0  0  0  0
  -21.9870   -9.0207   20.4657 C   0  0  0  0  0  0
  -22.7182  -10.2089   20.3077 C   0  0  0  0  0  0
  -21.6831   -6.0707   22.5271 C   0  0  0  0  0  0
  -21.4014   -6.5629   23.8203 C   0  0  0  0  0  0
  -21.3676   -5.6793   24.9178 C   0  0  0  0  0  0
  -21.6050   -4.3050   24.7229 C   0  0  0  0  0  0
  -21.8817   -3.8131   23.4352 C   0  0  0  0  0  0
  -21.9183   -4.6940   22.3407 C   0  0  0  0  0  0
  -22.7819  -13.5213   21.1919 C   0  0  0  0  0  0
  -22.1653   -4.2118   21.0990 F   0  0  0  0  0  0
  -21.5631   -3.4551   25.7754 F   0  0  0  0  0  0
  -30.0135  -13.4245   20.3814 N   0  0  0  0  0  0
  -26.2887  -12.9160   20.3336 N   0  0  0  0  0  0
  -25.9217  -11.6361   20.5818 N   0  0  0  0  0  0
  -22.0457  -12.8205   22.0462 N   0  0  0  0  0  0
  -25.4325  -15.1762   20.4103 N   0  0  0  0  0  0
  -31.9401  -14.6113   20.2737 O   0  0  0  0  0  0
  -21.6616   -6.8828   21.4220 O   0  0  0  0  0  0
  -22.3550  -14.5533   20.6768 O   0  0  0  0  0  0
  -24.6137  -31.8665   23.2106 C   0  0  0  0  0  0
  -25.9027  -32.4817   23.8402 C   0  0  1  0  0  0
  -27.2402  -27.4228   20.1000 C   0  0  0  0  0  0
  -25.5878  -33.8619   24.2333 N   0  0  0  0  0  0
  -23.4019  -30.4926   21.5501 C   0  0  2  0  0  0
  -24.8478  -28.9557   20.1157 C   0  0  0  0  0  0
  -22.7381  -29.4673   22.4983 C   0  0  0  0  0  0
  -18.0275  -28.1359   22.8522 C   0  0  0  0  0  0
  -24.1480  -36.7312   23.2641 C   0  0  0  0  0  0
  -25.9319  -30.8315   21.3635 C   0  0  0  0  0  0
  -26.0082  -29.4646   20.7097 C   0  0  0  0  0  0
  -27.2017  -28.7059   20.6984 C   0  0  0  0  0  0
  -26.0506  -26.9204   19.5184 C   0  0  0  0  0  0
  -24.8652  -27.6837   19.5187 C   0  0  0  0  0  0
  -23.6102  -29.8240   20.1662 C   0  0  0  0  0  0
  -25.4100  -36.3113   24.0344 C   0  0  1  0  0  0
  -20.5860  -28.3671   23.1329 C   0  0  2  0  0  0
  -20.6769  -26.9382   22.5492 C   0  0  0  0  0  0
  -19.5750  -26.6267   21.5312 C   0  0  0  0  0  0
  -18.1913  -26.7877   22.1694 C   0  0  0  0  0  0
  -19.1521  -28.8835   23.2903 C   0  0  0  0  0  0
  -18.9451  -30.1465   23.8859 C   0  0  0  0  0  0
  -17.6454  -30.6596   24.0519 C   0  0  0  0  0  0
  -25.9028  -34.9477   23.5142 C   0  0  0  0  0  0
  -16.5333  -29.9066   23.6321 C   0  0  0  0  0  0
  -16.7273  -28.6469   23.0407 C   0  0  0  0  0  0
  -26.4461  -31.6603   25.0739 C   0  0  0  0  0  0
  -25.3726  -31.3709   26.1495 C   0  0  0  0  0  0
  -27.0297  -30.3048   24.6123 C   0  0  0  0  0  0
  -27.6046  -32.4326   25.7492 C   0  0  0  0  0  0
  -27.5579  -37.1818   24.8473 C   0  0  0  0  0  0
  -21.4103  -29.3054   22.3733 N   0  0  0  0  0  0
  -26.4291  -37.3800   23.9412 N   0  0  0  0  0  0
  -24.6679  -31.0778   22.0995 N   0  0  0  0  0  0
  -23.4158  -28.8209   23.3023 O   0  0  0  0  0  0
  -28.4378  -26.7243   20.1227 O   0  0  0  0  0  0
  -26.5603  -34.8931   22.4708 O   0  0  0  0  0  0
  -23.5336  -32.1376   23.7514 O   0  0  0  0  0  0
  -32.0747  -18.8820   21.2771 C   0  0  0  0  0  0
  -31.6545  -17.5732   20.9777 C   0  0  0  0  0  0
  -31.1689  -19.9514   21.2211 C   0  0  0  0  0  0
  -30.3055  -17.2730   20.6592 C   0  0  0  0  0  0
  -29.3601  -18.3667   20.7471 C   0  0  0  0  0  0
  -29.8057  -19.7143   20.9425 C   0  0  0  0  0  0
  -28.3823  -24.2506   20.4116 C   0  0  0  0  0  0
  -29.2385  -23.2075   20.5378 C   0  0  0  0  0  0
  -29.9554  -15.9141   20.0444 C   0  0  0  0  0  0
  -27.4205  -18.3790   23.1670 C   0  0  0  0  0  0
  -27.8399  -18.1353   20.6263 C   0  0  0  0  0  0
  -28.5843  -25.4475   19.4743 C   0  0  0  0  0  0
  -29.0664  -22.0085   21.4740 C   0  0  0  0  0  0
  -26.9629  -18.7416   21.7479 C   0  0  0  0  0  0
  -29.1509  -15.9181   19.0658 N   0  0  0  0  0  0
  -28.9049  -20.7601   20.7750 O   0  0  0  0  0  0
  -31.4668  -12.4281   19.1585 H   0  0  0  0  0  0
  -30.3163  -11.3777   19.9407 H   0  0  0  0  0  0
  -29.7705  -11.6991   17.4902 H   0  0  0  0  0  0
  -29.6412  -13.4232   17.7366 H   0  0  0  0  0  0
  -27.8854  -11.2392   18.9155 H   0  0  0  0  0  0
  -27.3667  -12.4712   17.7951 H   0  0  0  0  0  0
  -27.5715  -14.1847   19.4363 H   0  0  0  0  0  0
  -28.6944  -12.2007   21.4809 H   0  0  0  0  0  0
  -28.4557  -13.9180   21.7222 H   0  0  0  0  0  0
  -25.2720   -9.5648   22.4778 H   0  0  0  0  0  0
  -23.9971   -7.4598   22.7495 H   0  0  0  0  0  0
  -21.0805   -8.8731   19.8963 H   0  0  0  0  0  0
  -22.3657  -10.9635   19.6183 H   0  0  0  0  0  0
  -21.2010   -7.6135   23.9699 H   0  0  0  0  0  0
  -21.1521   -6.0534   25.9082 H   0  0  0  0  0  0
  -22.0583   -2.7586   23.2873 H   0  0  0  0  0  0
  -22.4068  -11.9816   22.4782 H   0  0  0  0  0  0
  -21.1098  -13.1250   22.2719 H   0  0  0  0  0  0
  -24.6770  -15.8448   20.5112 H   0  0  0  0  0  0
  -26.2894  -15.5878   20.0648 H   0  0  0  0  0  0
  -26.7077  -32.5527   23.1153 H   0  0  0  0  0  0
  -25.0037  -33.9792   25.0488 H   0  0  0  0  0  0
  -22.6918  -31.3113   21.4103 H   0  0  0  0  0  0
  -23.3742  -35.9649   23.3322 H   0  0  0  0  0  0
  -24.3576  -36.8906   22.2053 H   0  0  0  0  0  0
  -23.7237  -37.6525   23.6643 H   0  0  0  0  0  0
  -26.0469  -31.5998   20.5977 H   0  0  0  0  0  0
  -26.8199  -30.8834   21.9825 H   0  0  0  0  0  0
  -28.0985  -29.1029   21.1562 H   0  0  0  0  0  0
  -26.0050  -25.9398   19.0708 H   0  0  0  0  0  0
  -23.9698  -27.2784   19.0681 H   0  0  0  0  0  0
  -23.7155  -30.5989   19.4065 H   0  0  0  0  0  0
  -22.7360  -29.2440   19.8693 H   0  0  0  0  0  0
  -25.1275  -36.1979   25.0839 H   0  0  0  0  0  0
  -20.9975  -28.3271   24.1445 H   0  0  0  0  0  0
  -20.5680  -26.2317   23.3739 H   0  0  0  0  0  0
  -21.6652  -26.7411   22.1317 H   0  0  0  0  0  0
  -19.6898  -25.6120   21.1482 H   0  0  0  0  0  0
  -19.6704  -27.2973   20.6769 H   0  0  0  0  0  0
  -17.4212  -26.6655   21.4061 H   0  0  0  0  0  0
  -18.0244  -26.0028   22.9088 H   0  0  0  0  0  0
  -19.7922  -30.7325   24.2172 H   0  0  0  0  0  0
  -17.5010  -31.6314   24.5038 H   0  0  0  0  0  0
  -15.5328  -30.2961   23.7621 H   0  0  0  0  0  0
  -15.8679  -28.0746   22.7172 H   0  0  0  0  0  0
  -24.5898  -30.7068   25.7831 H   0  0  0  0  0  0
  -24.8915  -32.2855   26.4965 H   0  0  0  0  0  0
  -25.8071  -30.8860   27.0243 H   0  0  0  0  0  0
  -26.2847  -29.6830   24.1157 H   0  0  0  0  0  0
  -27.4036  -29.7282   25.4590 H   0  0  0  0  0  0
  -27.8695  -30.4378   23.9306 H   0  0  0  0  0  0
  -27.2680  -33.3614   26.2116 H   0  0  0  0  0  0
  -28.3832  -32.6909   25.0301 H   0  0  0  0  0  0
  -28.0747  -31.8422   26.5366 H   0  0  0  0  0  0
  -28.2617  -38.0095   24.7498 H   0  0  0  0  0  0
  -28.1051  -36.2630   24.6314 H   0  0  0  0  0  0
  -27.2307  -37.1497   25.8882 H   0  0  0  0  0  0
  -20.9221  -29.8794   21.7000 H   0  0  0  0  0  0
  -26.0175  -38.2884   24.1395 H   0  0  0  0  0  0
  -33.1172  -19.0781   21.4871 H   0  0  0  0  0  0
  -32.4273  -16.8219   20.9394 H   0  0  0  0  0  0
  -31.5515  -20.9518   21.3647 H   0  0  0  0  0  0
  -27.4712  -24.2610   20.9928 H   0  0  0  0  0  0
  -30.1412  -23.2006   19.9445 H   0  0  0  0  0  0
  -26.7422  -18.7982   23.9113 H   0  0  0  0  0  0
  -28.4174  -18.7657   23.3774 H   0  0  0  0  0  0
  -27.4396  -17.2976   23.3059 H   0  0  0  0  0  0
  -27.4992  -18.4973   19.6562 H   0  0  0  0  0  0
  -27.6152  -17.0724   20.6615 H   0  0  0  0  0  0
  -27.9640  -25.3496   18.5843 H   0  0  0  0  0  0
  -29.6081  -25.4093   19.0996 H   0  0  0  0  0  0
  -28.1600  -22.1608   22.0599 H   0  0  0  0  0  0
  -29.8717  -22.0011   22.2073 H   0  0  0  0  0  0
  -26.8955  -19.8261   21.6580 H   0  0  0  0  0  0
  -25.9399  -18.3890   21.6109 H   0  0  0  0  0  0
  -28.8280  -16.8595   18.8843 H   0  0  0  0  0  0
  1 25  1  0  0  0
  1 30  2  0  0  0
  1 79  1  0  0  0
  2  3  1  0  0  0
  2 25  1  0  0  0
  2 87  1  0  0  0
  2 88  1  0  0  0
  3  4  1  0  0  0
  3 89  1  0  0  0
  3 90  1  0  0  0
  4  5  1  0  0  0
  4 91  1  0  0  0
  4 92  1  0  0  0
  5  6  1  0  0  0
  5 26  1  0  0  0
  5 93  1  0  0  0
  6 25  1  0  0  0
  6 94  1  0  0  0
  6 95  1  0  0  0
  7  8  2  0  0  0
  7 26  1  0  0  0
  7 29  1  0  0  0
  8  9  1  0  0  0
  8 22  1  0  0  0
  9 10  1  0  0  0
  9 27  2  0  0  0
 10 11  2  0  0  0
 10 15  1  0  0  0
 11 12  1  0  0  0
 11 96  1  0  0  0
 12 13  2  0  0  0
 12 97  1  0  0  0
 13 14  1  0  0  0
 13 31  1  0  0  0
 14 15  2  0  0  0
 14 98  1  0  0  0
 15 99  1  0  0  0
 16 17  2  0  0  0
 16 21  1  0  0  0
 16 31  1  0  0  0
 17 18  1  0  0  0
 17100  1  0  0  0
 18 19  2  0  0  0
 18101  1  0  0  0
 19 20  1  0  0  0
 19 24  1  0  0  0
 20 21  2  0  0  0
 20102  1  0  0  0
 21 23  1  0  0  0
 22 28  1  0  0  0
 22 32  2  0  0  0
 26 27  1  0  0  0
 28103  1  0  0  0
 28104  1  0  0  0
 29105  1  0  0  0
 29106  1  0  0  0
 33 34  1  0  0  0
 33 66  1  0  0  0
 33 70  2  0  0  0
 34 36  1  0  0  0
 34 59  1  0  0  0
 34107  1  0  0  0
 35 44  2  0  0  0
 35 45  1  0  0  0
 35 68  1  0  0  0
 36 56  1  0  0  0
 36108  1  0  0  0
 37 39  1  0  0  0
 37 47  1  0  0  0
 37 66  1  0  0  0
 37109  1  0  0  0
 38 43  2  0  0  0
 38 46  1  0  0  0
 38 47  1  0  0  0
 39 64  1  0  0  0
 39 67  2  0  0  0
 40 52  1  0  0  0
 40 53  2  0  0  0
 40 58  1  0  0  0
 41110  1  0  0  0
 41111  1  0  0  0
 41112  1  0  0  0
 41 48  1  0  0  0
 42 43  1  0  0  0
 42 66  1  0  0  0
 42113  1  0  0  0
 42114  1  0  0  0
 43 44  1  0  0  0
 44115  1  0  0  0
 45 46  2  0  0  0
 45116  1  0  0  0
 46117  1  0  0  0
 47118  1  0  0  0
 47119  1  0  0  0
 48 56  1  0  0  0
 48 65  1  0  0  0
 48120  1  0  0  0
 49 50  1  0  0  0
 49 53  1  0  0  0
 49 64  1  0  0  0
 49121  1  0  0  0
 50 51  1  0  0  0
 50122  1  0  0  0
 50123  1  0  0  0
 51 52  1  0  0  0
 51124  1  0  0  0
 51125  1  0  0  0
 52126  1  0  0  0
 52127  1  0  0  0
 53 54  1  0  0  0
 54 55  2  0  0  0
 54128  1  0  0  0
 55 57  1  0  0  0
 55129  1  0  0  0
 56 69  2  0  0  0
 57 58  2  0  0  0
 57130  1  0  0  0
 58131  1  0  0  0
 59 60  1  0  0  0
 59 61  1  0  0  0
 59 62  1  0  0  0
 60132  1  0  0  0
 60133  1  0  0  0
 60134  1  0  0  0
 61135  1  0  0  0
 61136  1  0  0  0
 61137  1  0  0  0
 62138  1  0  0  0
 62139  1  0  0  0
 62140  1  0  0  0
 63 65  1  0  0  0
 63141  1  0  0  0
 63142  1  0  0  0
 63143  1  0  0  0
 64144  1  0  0  0
 65145  1  0  0  0
 68 82  1  0  0  0
 71 72  2  0  0  0
 71 73  1  0  0  0
 71146  1  0  0  0
 72 74  1  0  0  0
 72147  1  0  0  0
 73 76  2  0  0  0
 73148  1  0  0  0
 74 75  2  0  0  0
 74 79  1  0  0  0
 75 76  1  0  0  0
 75 81  1  0  0  0
 76 86  1  0  0  0
 77 78  2  0  0  0
 77 82  1  0  0  0
 77149  1  0  0  0
 78 83  1  0  0  0
 78150  1  0  0  0
 79 85  2  0  0  0
 80 84  1  0  0  0
 80151  1  0  0  0
 80152  1  0  0  0
 80153  1  0  0  0
 81 84  1  0  0  0
 81154  1  0  0  0
 81155  1  0  0  0
 82156  1  0  0  0
 82157  1  0  0  0
 83 86  1  0  0  0
 83158  1  0  0  0
 83159  1  0  0  0
 84160  1  0  0  0
 84161  1  0  0  0
 85162  1  0  0  0
M  ISO  4   1 100  68 101  79 100  82 101
M  END
> <chiral flag>
0

> <version>
0

> <s_m_source_file>
/data/baiqing/PycharmProjects/Reinvent-master-3.2/result/LINK_invent/BTK/process_docking_weight1_custom_product_contain_oxygen_bond_distance_aromatic_linkinvent_7_9_3/rearranged_h_0120.sdf

> <i_m_source_file_index>
92

> <r_mmod_Potential_Energy-OPLS-2005>
250.357696533203

> <r_mmod_Stretch_Energy-OPLS-2005>
59.468147277832

> <r_mmod_Bend_Energy-OPLS-2005>
134.418395996094

> <r_mmod_Torsional_Energy-OPLS-2005>
236.350524902344

> <r_mmod_Improper_Torsional_Energy-OPLS-2005>
21.3951358795166

> <r_mmod_Van_der_Waal_Energy-OPLS-2005>
167.106582641602

> <r_mmod_Electrostatic_Energy-OPLS-2005>
-226.077239990234

> <r_mmod_Solvation_Energy-OPLS-2005>
-184.726806640625

> <b_mmod_Minimization_Converged-OPLS-2005>
0

> <r_mmod_RMS_Derivative-OPLS-2005>
2.84663105010986

$$$$
92
                    3D
 Structure written by MMmdl.
151159  0  0  1  0            999 V2000
  -30.5639  -14.7292   20.5237 C   0  0  0  0  0  0
  -30.4547  -12.4510   19.4583 C   0  0  0  0  0  0
  -29.5169  -12.5262   18.2305 C   0  0  0  0  0  0
  -28.0398  -12.3448   18.6403 C   0  0  0  0  0  0
  -27.6527  -13.2161   19.8627 C   0  0  2  0  0  0
  -28.7010  -13.0838   20.9905 C   0  0  0  0  0  0
  -25.2564  -13.8161   20.5711 C   0  0  0  0  0  0
  -24.1835  -13.0426   20.9208 C   0  0  0  0  0  0
  -24.6407  -11.6896   20.8751 C   0  0  0  0  0  0
  -23.9072  -10.4288   21.0415 C   0  0  0  0  0  0
  -24.3625   -9.4202   21.9189 C   0  0  0  0  0  0
  -23.6302   -8.2240   22.0759 C   0  0  0  0  0  0
  -22.4280   -8.0283   21.3548 C   0  0  0  0  0  0
  -21.9923   -9.0251   20.4645 C   0  0  0  0  0  0
  -22.7254  -10.2128   20.3060 C   0  0  0  0  0  0
  -21.6851   -6.0741   22.5285 C   0  0  0  0  0  0
  -21.4013   -6.5644   23.8215 C   0  0  0  0  0  0
  -21.3657   -5.6794   24.9174 C   0  0  0  0  0  0
  -21.6047   -4.3060   24.7224 C   0  0  0  0  0  0
  -21.8822   -3.8150   23.4343 C   0  0  0  0  0  0
  -21.9196   -4.6967   22.3402 C   0  0  0  0  0  0
  -22.7853  -13.5208   21.1865 C   0  0  0  0  0  0
  -22.1668   -4.2156   21.0979 F   0  0  0  0  0  0
  -21.5630   -3.4547   25.7742 F   0  0  0  0  0  0
  -30.0053  -13.4707   20.4319 N   0  0  0  0  0  0
  -26.2992  -12.9342   20.3324 N   0  0  0  0  0  0
  -25.9339  -11.6494   20.5770 N   0  0  0  0  0  0
  -22.0490  -12.8191   22.0406 N   0  0  0  0  0  0
  -25.4262  -15.1895   20.4150 N   0  0  0  0  0  0
  -31.7121  -14.9145   20.1016 O   0  0  0  0  0  0
  -21.6637   -6.8883   21.4247 O   0  0  0  0  0  0
  -22.3533  -14.5516   20.6722 O   0  0  0  0  0  0
  -24.6300  -31.8549   23.1966 C   0  0  0  0  0  0
  -25.9127  -32.4749   23.8316 C   0  0  1  0  0  0
  -27.2309  -27.2750   20.1434 C   0  0  0  0  0  0
  -25.5930  -33.8551   24.2246 N   0  0  0  0  0  0
  -23.4269  -30.4742   21.5404 C   0  0  2  0  0  0
  -24.8771  -28.9141   20.1179 C   0  0  0  0  0  0
  -22.7486  -29.4601   22.4923 C   0  0  0  0  0  0
  -18.0285  -28.1390   22.8483 C   0  0  0  0  0  0
  -24.1482  -36.7276   23.2636 C   0  0  0  0  0  0
  -25.9697  -30.7741   21.3723 C   0  0  0  0  0  0
  -26.0473  -29.3946   20.7205 C   0  0  0  0  0  0
  -27.2301  -28.5899   20.7154 C   0  0  0  0  0  0
  -26.0387  -26.8479   19.5241 C   0  0  0  0  0  0
  -24.8765  -27.6477   19.5091 C   0  0  0  0  0  0
  -23.6461  -29.8002   20.1595 C   0  0  0  0  0  0
  -25.4112  -36.3066   24.0319 C   0  0  1  0  0  0
  -20.5886  -28.3699   23.1271 C   0  0  2  0  0  0
  -20.6773  -26.9419   22.5406 C   0  0  0  0  0  0
  -19.5754  -26.6387   21.5206 C   0  0  0  0  0  0
  -18.1931  -26.7936   22.1615 C   0  0  0  0  0  0
  -19.1540  -28.8858   23.2874 C   0  0  0  0  0  0
  -18.9463  -30.1461   23.8891 C   0  0  0  0  0  0
  -17.6464  -30.6594   24.0561 C   0  0  0  0  0  0
  -25.9059  -34.9436   23.5084 C   0  0  0  0  0  0
  -16.5352  -29.9088   23.6340 C   0  0  0  0  0  0
  -16.7273  -28.6507   23.0360 C   0  0  0  0  0  0
  -26.4505  -31.6574   25.0705 C   0  0  0  0  0  0
  -25.3738  -31.3722   26.1435 C   0  0  0  0  0  0
  -27.0354  -30.2990   24.6185 C   0  0  0  0  0  0
  -27.6049  -32.4321   25.7493 C   0  0  0  0  0  0
  -27.5578  -37.1792   24.8462 C   0  0  0  0  0  0
  -21.4194  -29.3046   22.3660 N   0  0  0  0  0  0
  -26.4283  -37.3769   23.9415 N   0  0  0  0  0  0
  -24.6945  -31.0521   22.0938 N   0  0  0  0  0  0
  -23.4184  -28.8150   23.3031 O   0  0  0  0  0  0
  -28.3405  -26.4077   20.1375 O   0  0  0  0  0  0
  -26.5634  -34.8913   22.4653 O   0  0  0  0  0  0
  -23.5455  -32.1366   23.7271 O   0  0  0  0  0  0
  -30.3077  -19.5509   21.6830 C   0  0  0  0  0  0
  -29.6052  -19.7997   20.5367 C   0  0  0  0  0  0
  -29.3492  -18.4700   19.9869 C   0  0  0  0  0  0
  -29.8930  -17.5041   20.8452 C   0  0  0  0  0  0
  -29.1516  -21.1825   20.0094 C   0  0  0  0  0  0
  -29.0521  -22.4221   20.6273 C   0  0  0  0  0  0
  -28.6496  -23.7568   19.9516 C   0  0  0  0  0  0
  -28.5511  -18.1833   18.7422 C   0  0  0  0  0  0
  -29.6958  -15.9536   21.1017 C   0  0  0  0  0  0
  -28.2048  -25.0560   20.7770 C   0  0  0  0  0  0
  -28.6437  -23.8489   18.7201 O   0  0  0  0  0  0
  -30.4905  -18.1958   21.8721 O   0  0  0  0  0  0
  -31.4905  -12.6062   19.1522 H   0  0  0  0  0  0
  -30.4210  -11.4568   19.9076 H   0  0  0  0  0  0
  -29.7951  -11.7716   17.4943 H   0  0  0  0  0  0
  -29.6428  -13.4925   17.7390 H   0  0  0  0  0  0
  -27.8873  -11.2908   18.8764 H   0  0  0  0  0  0
  -27.3834  -12.5663   17.7976 H   0  0  0  0  0  0
  -27.6604  -14.2462   19.5094 H   0  0  0  0  0  0
  -28.7381  -12.0575   21.3600 H   0  0  0  0  0  0
  -28.4343  -13.6947   21.8533 H   0  0  0  0  0  0
  -25.2776   -9.5676   22.4756 H   0  0  0  0  0  0
  -24.0020   -7.4633   22.7480 H   0  0  0  0  0  0
  -21.0861   -8.8770   19.8939 H   0  0  0  0  0  0
  -22.3731  -10.9670   19.6166 H   0  0  0  0  0  0
  -21.1997   -7.6149   23.9722 H   0  0  0  0  0  0
  -21.1479   -6.0523   25.9080 H   0  0  0  0  0  0
  -22.0599   -2.7613   23.2854 H   0  0  0  0  0  0
  -22.4112  -11.9848   22.4786 H   0  0  0  0  0  0
  -21.1097  -13.1207   22.2593 H   0  0  0  0  0  0
  -24.6588  -15.8426   20.5347 H   0  0  0  0  0  0
  -26.2748  -15.6338   20.0897 H   0  0  0  0  0  0
  -26.7196  -32.5412   23.1064 H   0  0  0  0  0  0
  -25.0083  -33.9695   25.0396 H   0  0  0  0  0  0
  -22.7233  -31.2955   21.3895 H   0  0  0  0  0  0
  -23.3760  -35.9593   23.3281 H   0  0  0  0  0  0
  -24.3574  -36.8925   22.2058 H   0  0  0  0  0  0
  -23.7217  -37.6454   23.6686 H   0  0  0  0  0  0
  -26.1023  -31.5326   20.5991 H   0  0  0  0  0  0
  -26.8487  -30.8276   22.0031 H   0  0  0  0  0  0
  -28.1320  -28.9587   21.1836 H   0  0  0  0  0  0
  -26.0023  -25.8743   19.0548 H   0  0  0  0  0  0
  -23.9795  -27.2710   19.0371 H   0  0  0  0  0  0
  -23.7702  -30.5724   19.3991 H   0  0  0  0  0  0
  -22.7651  -29.2309   19.8571 H   0  0  0  0  0  0
  -25.1296  -36.1903   25.0811 H   0  0  0  0  0  0
  -20.9979  -28.3282   24.1392 H   0  0  0  0  0  0
  -20.5672  -26.2309   23.3610 H   0  0  0  0  0  0
  -21.6641  -26.7444   22.1205 H   0  0  0  0  0  0
  -19.6919  -25.6299   21.1240 H   0  0  0  0  0  0
  -19.6696  -27.3192   20.6736 H   0  0  0  0  0  0
  -17.4202  -26.6686   21.4014 H   0  0  0  0  0  0
  -18.0331  -26.0074   22.9007 H   0  0  0  0  0  0
  -19.7940  -30.7277   24.2260 H   0  0  0  0  0  0
  -17.5021  -31.6278   24.5159 H   0  0  0  0  0  0
  -15.5356  -30.2991   23.7670 H   0  0  0  0  0  0
  -15.8672  -28.0821   22.7089 H   0  0  0  0  0  0
  -24.5886  -30.7106   25.7756 H   0  0  0  0  0  0
  -24.8973  -32.2902   26.4885 H   0  0  0  0  0  0
  -25.8062  -30.8865   27.0193 H   0  0  0  0  0  0
  -26.2934  -29.6730   24.1213 H   0  0  0  0  0  0
  -27.4046  -29.7255   25.4697 H   0  0  0  0  0  0
  -27.8805  -30.4258   23.9413 H   0  0  0  0  0  0
  -27.2644  -33.3636   26.2026 H   0  0  0  0  0  0
  -28.3889  -32.6855   25.0346 H   0  0  0  0  0  0
  -28.0679  -31.8474   26.5451 H   0  0  0  0  0  0
  -28.2571  -38.0112   24.7536 H   0  0  0  0  0  0
  -28.1099  -36.2644   24.6257 H   0  0  0  0  0  0
  -27.2303  -37.1402   25.8863 H   0  0  0  0  0  0
  -20.9382  -29.8754   21.6850 H   0  0  0  0  0  0
  -26.0156  -38.2833   24.1446 H   0  0  0  0  0  0
  -30.7292  -20.1825   22.4536 H   0  0  0  0  0  0
  -28.8945  -21.1696   18.9589 H   0  0  0  0  0  0
  -29.2839  -22.4872   21.6802 H   0  0  0  0  0  0
  -29.0627  -18.5854   17.8685 H   0  0  0  0  0  0
  -27.5662  -18.6467   18.8055 H   0  0  0  0  0  0
  -28.4157  -17.1112   18.5958 H   0  0  0  0  0  0
  -28.6614  -15.7567   20.8321 H   0  0  0  0  0  0
  -29.7160  -15.8068   22.1817 H   0  0  0  0  0  0
  -28.7938  -25.0749   21.6939 H   0  0  0  0  0  0
  -27.1734  -24.9074   21.0967 H   0  0  0  0  0  0
  1 25  1  0  0  0
  1 30  2  0  0  0
  1 79  1  0  0  0
  2  3  1  0  0  0
  2 25  1  0  0  0
  2 83  1  0  0  0
  2 84  1  0  0  0
  3  4  1  0  0  0
  3 85  1  0  0  0
  3 86  1  0  0  0
  4  5  1  0  0  0
  4 87  1  0  0  0
  4 88  1  0  0  0
  5  6  1  0  0  0
  5 26  1  0  0  0
  5 89  1  0  0  0
  6 25  1  0  0  0
  6 90  1  0  0  0
  6 91  1  0  0  0
  7  8  2  0  0  0
  7 26  1  0  0  0
  7 29  1  0  0  0
  8  9  1  0  0  0
  8 22  1  0  0  0
  9 10  1  0  0  0
  9 27  2  0  0  0
 10 11  2  0  0  0
 10 15  1  0  0  0
 11 12  1  0  0  0
 11 92  1  0  0  0
 12 13  2  0  0  0
 12 93  1  0  0  0
 13 14  1  0  0  0
 13 31  1  0  0  0
 14 15  2  0  0  0
 14 94  1  0  0  0
 15 95  1  0  0  0
 16 17  2  0  0  0
 16 21  1  0  0  0
 16 31  1  0  0  0
 17 18  1  0  0  0
 17 96  1  0  0  0
 18 19  2  0  0  0
 18 97  1  0  0  0
 19 20  1  0  0  0
 19 24  1  0  0  0
 20 21  2  0  0  0
 20 98  1  0  0  0
 21 23  1  0  0  0
 22 28  1  0  0  0
 22 32  2  0  0  0
 26 27  1  0  0  0
 28 99  1  0  0  0
 28100  1  0  0  0
 29101  1  0  0  0
 29102  1  0  0  0
 33 34  1  0  0  0
 33 66  1  0  0  0
 33 70  2  0  0  0
 34 36  1  0  0  0
 34 59  1  0  0  0
 34103  1  0  0  0
 35 44  2  0  0  0
 35 45  1  0  0  0
 35 68  1  0  0  0
 36 56  1  0  0  0
 36104  1  0  0  0
 37 39  1  0  0  0
 37 47  1  0  0  0
 37 66  1  0  0  0
 37105  1  0  0  0
 38 43  2  0  0  0
 38 46  1  0  0  0
 38 47  1  0  0  0
 39 64  1  0  0  0
 39 67  2  0  0  0
 40 52  1  0  0  0
 40 53  2  0  0  0
 40 58  1  0  0  0
 41106  1  0  0  0
 41107  1  0  0  0
 41108  1  0  0  0
 41 48  1  0  0  0
 42 43  1  0  0  0
 42 66  1  0  0  0
 42109  1  0  0  0
 42110  1  0  0  0
 43 44  1  0  0  0
 44111  1  0  0  0
 45 46  2  0  0  0
 45112  1  0  0  0
 46113  1  0  0  0
 47114  1  0  0  0
 47115  1  0  0  0
 48 56  1  0  0  0
 48 65  1  0  0  0
 48116  1  0  0  0
 49 50  1  0  0  0
 49 53  1  0  0  0
 49 64  1  0  0  0
 49117  1  0  0  0
 50 51  1  0  0  0
 50118  1  0  0  0
 50119  1  0  0  0
 51 52  1  0  0  0
 51120  1  0  0  0
 51121  1  0  0  0
 52122  1  0  0  0
 52123  1  0  0  0
 53 54  1  0  0  0
 54 55  2  0  0  0
 54124  1  0  0  0
 55 57  1  0  0  0
 55125  1  0  0  0
 56 69  2  0  0  0
 57 58  2  0  0  0
 57126  1  0  0  0
 58127  1  0  0  0
 59 60  1  0  0  0
 59 61  1  0  0  0
 59 62  1  0  0  0
 60128  1  0  0  0
 60129  1  0  0  0
 60130  1  0  0  0
 61131  1  0  0  0
 61132  1  0  0  0
 61133  1  0  0  0
 62134  1  0  0  0
 62135  1  0  0  0
 62136  1  0  0  0
 63 65  1  0  0  0
 63137  1  0  0  0
 63138  1  0  0  0
 63139  1  0  0  0
 64140  1  0  0  0
 65141  1  0  0  0
 68 80  1  0  0  0
 71 72  2  0  0  0
 71 82  1  0  0  0
 71142  1  0  0  0
 72 73  1  0  0  0
 72 75  1  0  0  0
 73 74  2  0  0  0
 73 78  1  0  0  0
 74 79  1  0  0  0
 74 82  1  0  0  0
 75 76  2  0  0  0
 75143  1  0  0  0
 76 77  1  0  0  0
 76144  1  0  0  0
 77 80  1  0  0  0
 77 81  2  0  0  0
 78145  1  0  0  0
 78146  1  0  0  0
 78147  1  0  0  0
 79148  1  0  0  0
 79149  1  0  0  0
 80150  1  0  0  0
 80151  1  0  0  0
M  ISO  4   1 100  68 101  79 100  80 101
M  END
> <chiral flag>
0

> <version>
0

> <s_m_source_file>
/data/baiqing/PycharmProjects/Reinvent-master-3.2/result/LINK_invent/BTK/process_docking_weight1_custom_product_contain_oxygen_bond_distance_aromatic_linkinvent_7_9_3/rearranged_h_0120.sdf

> <i_m_source_file_index>
93

> <r_mmod_Potential_Energy-OPLS-2005>
160.996017456055

> <r_mmod_Stretch_Energy-OPLS-2005>
114.881912231445

> <r_mmod_Bend_Energy-OPLS-2005>
167.383193969727

> <r_mmod_Torsional_Energy-OPLS-2005>
203.594818115234

> <r_mmod_Improper_Torsional_Energy-OPLS-2005>
4.52789258956909

> <r_mmod_Van_der_Waal_Energy-OPLS-2005>
108.51042175293

> <r_mmod_Electrostatic_Energy-OPLS-2005>
-286.369995117188

> <r_mmod_Solvation_Energy-OPLS-2005>
-225.479766845703

> <b_mmod_Minimization_Converged-OPLS-2005>
0

> <r_mmod_RMS_Derivative-OPLS-2005>
1.33352398872375

$$$$
93
                    3D
 Structure written by MMmdl.
160168  0  0  1  0            999 V2000
  -30.7692  -14.3818   20.6484 C   0  0  0  0  0  0
  -30.4150  -12.2835   19.4092 C   0  0  0  0  0  0
  -29.4894  -12.5148   18.2008 C   0  0  0  0  0  0
  -28.0139  -12.3685   18.6146 C   0  0  0  0  0  0
  -27.6640  -13.2049   19.8712 C   0  0  2  0  0  0
  -28.7013  -12.9732   20.9947 C   0  0  0  0  0  0
  -25.2586  -13.8155   20.5652 C   0  0  0  0  0  0
  -24.1848  -13.0447   20.9189 C   0  0  0  0  0  0
  -24.6381  -11.6904   20.8734 C   0  0  0  0  0  0
  -23.9031  -10.4292   21.0394 C   0  0  0  0  0  0
  -24.3584   -9.4210   21.9174 C   0  0  0  0  0  0
  -23.6275   -8.2237   22.0740 C   0  0  0  0  0  0
  -22.4260   -8.0269   21.3534 C   0  0  0  0  0  0
  -21.9890   -9.0239   20.4637 C   0  0  0  0  0  0
  -22.7202  -10.2124   20.3046 C   0  0  0  0  0  0
  -21.6839   -6.0733   22.5283 C   0  0  0  0  0  0
  -21.4002   -6.5638   23.8215 C   0  0  0  0  0  0
  -21.3665   -5.6795   24.9181 C   0  0  0  0  0  0
  -21.6044   -4.3059   24.7234 C   0  0  0  0  0  0
  -21.8819   -3.8147   23.4358 C   0  0  0  0  0  0
  -21.9189   -4.6963   22.3410 C   0  0  0  0  0  0
  -22.7865  -13.5234   21.1866 C   0  0  0  0  0  0
  -22.1665   -4.2145   21.0986 F   0  0  0  0  0  0
  -21.5635   -3.4545   25.7744 F   0  0  0  0  0  0
  -30.0504  -13.2434   20.4613 N   0  0  0  0  0  0
  -26.3023  -12.9327   20.3318 N   0  0  0  0  0  0
  -25.9303  -11.6488   20.5736 N   0  0  0  0  0  0
  -22.0493  -12.8234   22.0411 N   0  0  0  0  0  0
  -25.4340  -15.1876   20.4046 N   0  0  0  0  0  0
  -31.8083  -14.6314   20.0279 O   0  0  0  0  0  0
  -21.6630   -6.8868   21.4239 O   0  0  0  0  0  0
  -22.3561  -14.5547   20.6710 O   0  0  0  0  0  0
  -24.6145  -31.8682   23.2107 C   0  0  0  0  0  0
  -25.9051  -32.4819   23.8373 C   0  0  1  0  0  0
  -27.2375  -27.4585   20.0934 C   0  0  0  0  0  0
  -25.5930  -33.8618   24.2313 N   0  0  0  0  0  0
  -23.3984  -30.4949   21.5488 C   0  0  2  0  0  0
  -24.8422  -28.9572   20.1139 C   0  0  0  0  0  0
  -22.7400  -29.4680   22.4972 C   0  0  0  0  0  0
  -18.0287  -28.1406   22.8495 C   0  0  0  0  0  0
  -24.1488  -36.7309   23.2630 C   0  0  0  0  0  0
  -25.9233  -30.8436   21.3550 C   0  0  0  0  0  0
  -25.9976  -29.4765   20.7086 C   0  0  0  0  0  0
  -27.1945  -28.7320   20.6963 C   0  0  0  0  0  0
  -26.0639  -26.9431   19.4938 C   0  0  0  0  0  0
  -24.8681  -27.6876   19.5069 C   0  0  0  0  0  0
  -23.6062  -29.8271   20.1612 C   0  0  0  0  0  0
  -25.4109  -36.3098   24.0331 C   0  0  1  0  0  0
  -20.5869  -28.3686   23.1331 C   0  0  2  0  0  0
  -20.6775  -26.9426   22.5426 C   0  0  0  0  0  0
  -19.5740  -26.6412   21.5229 C   0  0  0  0  0  0
  -18.1923  -26.7951   22.1634 C   0  0  0  0  0  0
  -19.1531  -28.8862   23.2912 C   0  0  0  0  0  0
  -18.9457  -30.1475   23.8914 C   0  0  0  0  0  0
  -17.6454  -30.6597   24.0599 C   0  0  0  0  0  0
  -25.9046  -34.9472   23.5113 C   0  0  0  0  0  0
  -16.5351  -29.9109   23.6335 C   0  0  0  0  0  0
  -16.7276  -28.6540   23.0327 C   0  0  0  0  0  0
  -26.4497  -31.6581   25.0678 C   0  0  0  0  0  0
  -25.3789  -31.3681   26.1439 C   0  0  0  0  0  0
  -27.0298  -30.3029   24.5993 C   0  0  0  0  0  0
  -27.6067  -32.4279   25.7458 C   0  0  0  0  0  0
  -27.5573  -37.1803   24.8467 C   0  0  0  0  0  0
  -21.4130  -29.3046   22.3726 N   0  0  0  0  0  0
  -26.4278  -37.3797   23.9422 N   0  0  0  0  0  0
  -24.6637  -31.0823   22.0981 N   0  0  0  0  0  0
  -23.4188  -28.8233   23.3001 O   0  0  0  0  0  0
  -28.4407  -26.7921   20.0889 O   0  0  0  0  0  0
  -26.5587  -34.8933   22.4658 O   0  0  0  0  0  0
  -23.5347  -32.1420   23.7522 O   0  0  0  0  0  0
  -31.9312  -18.5337   22.1280 C   0  0  0  0  0  0
  -31.6979  -17.1460   22.1773 C   0  0  0  0  0  0
  -29.6328  -17.4717   20.9346 C   0  0  0  0  0  0
  -31.0462  -19.4155   21.4562 C   0  0  0  0  0  0
  -29.8665  -18.8614   20.8724 C   0  0  0  0  0  0
  -30.5519  -16.6113   21.5601 C   0  0  0  0  0  0
  -31.1283  -21.6672   20.1643 C   0  0  0  0  0  0
  -30.3362  -22.7583   20.1161 C   0  0  0  0  0  0
  -31.4400  -20.8560   21.3589 C   0  0  0  0  0  0
  -28.7923  -19.7018   20.1962 C   0  0  0  0  0  0
  -29.5850  -23.3944   21.2776 C   0  0  0  0  0  0
  -29.4656  -24.9185   21.1521 C   0  0  0  0  0  0
  -28.4391  -25.3667   20.0996 C   0  0  0  0  0  0
  -32.0877  -21.4173   22.2923 N   0  0  0  0  0  0
  -30.2897  -15.2247   21.5709 N   0  0  0  0  0  0
  -31.4599  -12.3713   19.1065 H   0  0  0  0  0  0
  -30.3044  -11.2655   19.7867 H   0  0  0  0  0  0
  -29.7259  -11.8065   17.4054 H   0  0  0  0  0  0
  -29.6614  -13.5097   17.7872 H   0  0  0  0  0  0
  -27.8250  -11.3133   18.8116 H   0  0  0  0  0  0
  -27.3604  -12.6435   17.7867 H   0  0  0  0  0  0
  -27.7150  -14.2531   19.5757 H   0  0  0  0  0  0
  -28.6585  -11.9404   21.3439 H   0  0  0  0  0  0
  -28.4467  -13.5812   21.8620 H   0  0  0  0  0  0
  -25.2724   -9.5716   22.4757 H   0  0  0  0  0  0
  -24.0005   -7.4631   22.7450 H   0  0  0  0  0  0
  -21.0829   -8.8742   19.8939 H   0  0  0  0  0  0
  -22.3644  -10.9660   19.6167 H   0  0  0  0  0  0
  -21.1980   -7.6142   23.9723 H   0  0  0  0  0  0
  -21.1493   -6.0521   25.9085 H   0  0  0  0  0  0
  -22.0592   -2.7604   23.2856 H   0  0  0  0  0  0
  -22.4086  -11.9889   22.4814 H   0  0  0  0  0  0
  -21.1105  -13.1276   22.2588 H   0  0  0  0  0  0
  -24.6704  -15.8480   20.4996 H   0  0  0  0  0  0
  -26.2902  -15.6155   20.0757 H   0  0  0  0  0  0
  -26.7120  -32.5544   23.1134 H   0  0  0  0  0  0
  -25.0122  -33.9783   25.0485 H   0  0  0  0  0  0
  -22.6844  -31.3108   21.4121 H   0  0  0  0  0  0
  -23.3731  -35.9656   23.3299 H   0  0  0  0  0  0
  -24.3584  -36.8918   22.2041 H   0  0  0  0  0  0
  -23.7267  -37.6533   23.6635 H   0  0  0  0  0  0
  -26.0205  -31.6046   20.5792 H   0  0  0  0  0  0
  -26.8185  -30.9058   21.9619 H   0  0  0  0  0  0
  -28.0892  -29.1314   21.1522 H   0  0  0  0  0  0
  -26.0654  -25.9817   18.9990 H   0  0  0  0  0  0
  -23.9797  -27.2816   19.0421 H   0  0  0  0  0  0
  -23.7252  -30.6056   19.4054 H   0  0  0  0  0  0
  -22.7279  -29.2530   19.8587 H   0  0  0  0  0  0
  -25.1287  -36.1933   25.0823 H   0  0  0  0  0  0
  -20.9978  -28.3254   24.1442 H   0  0  0  0  0  0
  -20.5719  -26.2292   23.3610 H   0  0  0  0  0  0
  -21.6647  -26.7498   22.1190 H   0  0  0  0  0  0
  -19.6908  -25.6335   21.1231 H   0  0  0  0  0  0
  -19.6676  -27.3250   20.6779 H   0  0  0  0  0  0
  -17.4205  -26.6725   21.4027 H   0  0  0  0  0  0
  -18.0308  -26.0102   22.9033 H   0  0  0  0  0  0
  -19.7938  -30.7308   24.2252 H   0  0  0  0  0  0
  -17.5016  -31.6275   24.5210 H   0  0  0  0  0  0
  -15.5352  -30.3019   23.7653 H   0  0  0  0  0  0
  -15.8681  -28.0900   22.6961 H   0  0  0  0  0  0
  -24.5965  -30.7016   25.7803 H   0  0  0  0  0  0
  -24.8981  -32.2836   26.4885 H   0  0  0  0  0  0
  -25.8180  -30.8877   27.0189 H   0  0  0  0  0  0
  -26.2796  -29.6799   24.1105 H   0  0  0  0  0  0
  -27.4158  -29.7246   25.4402 H   0  0  0  0  0  0
  -27.8599  -30.4363   23.9040 H   0  0  0  0  0  0
  -27.2670  -33.3554   26.2078 H   0  0  0  0  0  0
  -28.3870  -32.6868   25.0287 H   0  0  0  0  0  0
  -28.0735  -31.8365   26.5343 H   0  0  0  0  0  0
  -28.2595  -38.0100   24.7507 H   0  0  0  0  0  0
  -28.1066  -36.2629   24.6277 H   0  0  0  0  0  0
  -27.2298  -37.1440   25.8877 H   0  0  0  0  0  0
  -20.9276  -29.8764   21.6961 H   0  0  0  0  0  0
  -26.0152  -38.2869   24.1430 H   0  0  0  0  0  0
  -32.8356  -18.9148   22.5825 H   0  0  0  0  0  0
  -32.4132  -16.5022   22.6705 H   0  0  0  0  0  0
  -28.7497  -17.0540   20.4726 H   0  0  0  0  0  0
  -31.5912  -21.3031   19.2577 H   0  0  0  0  0  0
  -30.1986  -23.2254   19.1495 H   0  0  0  0  0  0
  -29.0812  -19.9598   19.1762 H   0  0  0  0  0  0
  -28.5813  -20.6147   20.7522 H   0  0  0  0  0  0
  -27.8492  -19.1581   20.1456 H   0  0  0  0  0  0
  -30.0834  -23.1614   22.2192 H   0  0  0  0  0  0
  -28.5911  -22.9508   21.3376 H   0  0  0  0  0  0
  -30.4441  -25.3480   20.9410 H   0  0  0  0  0  0
  -29.1591  -25.3229   22.1191 H   0  0  0  0  0  0
  -27.4719  -24.9320   20.3543 H   0  0  0  0  0  0
  -28.7116  -25.0037   19.1088 H   0  0  0  0  0  0
  -32.2458  -20.7779   23.0618 H   0  0  0  0  0  0
  -29.4467  -14.9268   22.0395 H   0  0  0  0  0  0
  1 25  1  0  0  0
  1 30  2  0  0  0
  1 85  1  0  0  0
  2  3  1  0  0  0
  2 25  1  0  0  0
  2 86  1  0  0  0
  2 87  1  0  0  0
  3  4  1  0  0  0
  3 88  1  0  0  0
  3 89  1  0  0  0
  4  5  1  0  0  0
  4 90  1  0  0  0
  4 91  1  0  0  0
  5  6  1  0  0  0
  5 26  1  0  0  0
  5 92  1  0  0  0
  6 25  1  0  0  0
  6 93  1  0  0  0
  6 94  1  0  0  0
  7  8  2  0  0  0
  7 26  1  0  0  0
  7 29  1  0  0  0
  8  9  1  0  0  0
  8 22  1  0  0  0
  9 10  1  0  0  0
  9 27  2  0  0  0
 10 11  2  0  0  0
 10 15  1  0  0  0
 11 12  1  0  0  0
 11 95  1  0  0  0
 12 13  2  0  0  0
 12 96  1  0  0  0
 13 14  1  0  0  0
 13 31  1  0  0  0
 14 15  2  0  0  0
 14 97  1  0  0  0
 15 98  1  0  0  0
 16 17  2  0  0  0
 16 21  1  0  0  0
 16 31  1  0  0  0
 17 18  1  0  0  0
 17 99  1  0  0  0
 18 19  2  0  0  0
 18100  1  0  0  0
 19 20  1  0  0  0
 19 24  1  0  0  0
 20 21  2  0  0  0
 20101  1  0  0  0
 21 23  1  0  0  0
 22 28  1  0  0  0
 22 32  2  0  0  0
 26 27  1  0  0  0
 28102  1  0  0  0
 28103  1  0  0  0
 29104  1  0  0  0
 29105  1  0  0  0
 33 34  1  0  0  0
 33 66  1  0  0  0
 33 70  2  0  0  0
 34 36  1  0  0  0
 34 59  1  0  0  0
 34106  1  0  0  0
 35 44  2  0  0  0
 35 45  1  0  0  0
 35 68  1  0  0  0
 36 56  1  0  0  0
 36107  1  0  0  0
 37 39  1  0  0  0
 37 47  1  0  0  0
 37 66  1  0  0  0
 37108  1  0  0  0
 38 43  2  0  0  0
 38 46  1  0  0  0
 38 47  1  0  0  0
 39 64  1  0  0  0
 39 67  2  0  0  0
 40 52  1  0  0  0
 40 53  2  0  0  0
 40 58  1  0  0  0
 41109  1  0  0  0
 41110  1  0  0  0
 41111  1  0  0  0
 41 48  1  0  0  0
 42 43  1  0  0  0
 42 66  1  0  0  0
 42112  1  0  0  0
 42113  1  0  0  0
 43 44  1  0  0  0
 44114  1  0  0  0
 45 46  2  0  0  0
 45115  1  0  0  0
 46116  1  0  0  0
 47117  1  0  0  0
 47118  1  0  0  0
 48 56  1  0  0  0
 48 65  1  0  0  0
 48119  1  0  0  0
 49 50  1  0  0  0
 49 53  1  0  0  0
 49 64  1  0  0  0
 49120  1  0  0  0
 50 51  1  0  0  0
 50121  1  0  0  0
 50122  1  0  0  0
 51 52  1  0  0  0
 51123  1  0  0  0
 51124  1  0  0  0
 52125  1  0  0  0
 52126  1  0  0  0
 53 54  1  0  0  0
 54 55  2  0  0  0
 54127  1  0  0  0
 55 57  1  0  0  0
 55128  1  0  0  0
 56 69  2  0  0  0
 57 58  2  0  0  0
 57129  1  0  0  0
 58130  1  0  0  0
 59 60  1  0  0  0
 59 61  1  0  0  0
 59 62  1  0  0  0
 60131  1  0  0  0
 60132  1  0  0  0
 60133  1  0  0  0
 61134  1  0  0  0
 61135  1  0  0  0
 61136  1  0  0  0
 62137  1  0  0  0
 62138  1  0  0  0
 62139  1  0  0  0
 63 65  1  0  0  0
 63140  1  0  0  0
 63141  1  0  0  0
 63142  1  0  0  0
 64143  1  0  0  0
 65144  1  0  0  0
 68 83  1  0  0  0
 71 72  2  0  0  0
 71 74  1  0  0  0
 71145  1  0  0  0
 72 76  1  0  0  0
 72146  1  0  0  0
 73 75  1  0  0  0
 73 76  2  0  0  0
 73147  1  0  0  0
 74 75  2  0  0  0
 74 79  1  0  0  0
 75 80  1  0  0  0
 76 85  1  0  0  0
 77 78  2  0  0  0
 77 79  1  0  0  0
 77148  1  0  0  0
 78 81  1  0  0  0
 78149  1  0  0  0
 79 84  2  0  0  0
 80150  1  0  0  0
 80151  1  0  0  0
 80152  1  0  0  0
 81 82  1  0  0  0
 81153  1  0  0  0
 81154  1  0  0  0
 82 83  1  0  0  0
 82155  1  0  0  0
 82156  1  0  0  0
 83157  1  0  0  0
 83158  1  0  0  0
 84159  1  0  0  0
 85160  1  0  0  0
M  ISO  4   1 100  68 101  83 101  85 100
M  END
> <chiral flag>
0

> <version>
0

> <s_m_source_file>
/data/baiqing/PycharmProjects/Reinvent-master-3.2/result/LINK_invent/BTK/process_docking_weight1_custom_product_contain_oxygen_bond_distance_aromatic_linkinvent_7_9_3/rearranged_h_0120.sdf

> <i_m_source_file_index>
94

> <r_mmod_Potential_Energy-OPLS-2005>
17.556999206543

> <r_mmod_Stretch_Energy-OPLS-2005>
34.2349090576172

> <r_mmod_Bend_Energy-OPLS-2005>
99.7903289794922

> <r_mmod_Torsional_Energy-OPLS-2005>
268.31494140625

> <r_mmod_Improper_Torsional_Energy-OPLS-2005>
3.69529581069946

> <r_mmod_Van_der_Waal_Energy-OPLS-2005>
164.184005737305

> <r_mmod_Electrostatic_Energy-OPLS-2005>
-343.949768066406

> <r_mmod_Solvation_Energy-OPLS-2005>
-216.933715820312

> <b_mmod_Minimization_Converged-OPLS-2005>
0

> <r_mmod_RMS_Derivative-OPLS-2005>
2.91335201263428

$$$$
94
                    3D
 Structure written by MMmdl.
161169  0  0  1  0            999 V2000
  -30.6990  -14.4906   20.5693 C   0  0  0  0  0  0
  -30.4232  -12.3175   19.4273 C   0  0  0  0  0  0
  -29.4943  -12.5045   18.2092 C   0  0  0  0  0  0
  -28.0143  -12.3765   18.6202 C   0  0  0  0  0  0
  -27.6615  -13.2139   19.8791 C   0  0  2  0  0  0
  -28.7053  -13.0004   20.9990 C   0  0  0  0  0  0
  -25.2510  -13.8085   20.5500 C   0  0  0  0  0  0
  -24.1819  -13.0393   20.9172 C   0  0  0  0  0  0
  -24.6420  -11.6879   20.8800 C   0  0  0  0  0  0
  -23.9087  -10.4263   21.0460 C   0  0  0  0  0  0
  -24.3617   -9.4168   21.9241 C   0  0  0  0  0  0
  -23.6273   -8.2209   22.0785 C   0  0  0  0  0  0
  -22.4270   -8.0262   21.3545 C   0  0  0  0  0  0
  -21.9911   -9.0256   20.4674 C   0  0  0  0  0  0
  -22.7258  -10.2131   20.3097 C   0  0  0  0  0  0
  -21.6835   -6.0717   22.5270 C   0  0  0  0  0  0
  -21.3981   -6.5624   23.8192 C   0  0  0  0  0  0
  -21.3649   -5.6788   24.9166 C   0  0  0  0  0  0
  -21.6058   -4.3050   24.7227 C   0  0  0  0  0  0
  -21.8818   -3.8140   23.4350 C   0  0  0  0  0  0
  -21.9180   -4.6949   22.3404 C   0  0  0  0  0  0
  -22.7837  -13.5202   21.1824 C   0  0  0  0  0  0
  -22.1657   -4.2135   21.0989 F   0  0  0  0  0  0
  -21.5641   -3.4551   25.7742 F   0  0  0  0  0  0
  -30.0349  -13.3082   20.4467 N   0  0  0  0  0  0
  -26.3042  -12.9337   20.3423 N   0  0  0  0  0  0
  -25.9377  -11.6493   20.5903 N   0  0  0  0  0  0
  -22.0455  -12.8242   22.0402 N   0  0  0  0  0  0
  -25.4053  -15.1718   20.3434 N   0  0  0  0  0  0
  -31.8289  -14.6545   20.1024 O   0  0  0  0  0  0
  -21.6614   -6.8875   21.4237 O   0  0  0  0  0  0
  -22.3524  -14.5506   20.6655 O   0  0  0  0  0  0
  -24.6140  -31.8695   23.2067 C   0  0  0  0  0  0
  -25.9017  -32.4843   23.8370 C   0  0  1  0  0  0
  -27.2466  -27.4351   20.1054 C   0  0  0  0  0  0
  -25.5881  -33.8615   24.2300 N   0  0  0  0  0  0
  -23.4035  -30.4943   21.5468 C   0  0  2  0  0  0
  -24.8531  -28.9475   20.1269 C   0  0  0  0  0  0
  -22.7380  -29.4710   22.4956 C   0  0  0  0  0  0
  -18.0297  -28.1446   22.8507 C   0  0  0  0  0  0
  -24.1475  -36.7302   23.2631 C   0  0  0  0  0  0
  -25.9330  -30.8336   21.3606 C   0  0  0  0  0  0
  -26.0114  -29.4596   20.7258 C   0  0  0  0  0  0
  -27.2133  -28.7103   20.7156 C   0  0  0  0  0  0
  -26.0751  -26.9371   19.4979 C   0  0  0  0  0  0
  -24.8790  -27.6835   19.5129 C   0  0  0  0  0  0
  -23.6151  -29.8204   20.1661 C   0  0  0  0  0  0
  -25.4096  -36.3099   24.0336 C   0  0  1  0  0  0
  -20.5876  -28.3720   23.1304 C   0  0  2  0  0  0
  -20.6754  -26.9436   22.5444 C   0  0  0  0  0  0
  -19.5731  -26.6428   21.5229 C   0  0  0  0  0  0
  -18.1925  -26.7980   22.1642 C   0  0  0  0  0  0
  -19.1540  -28.8880   23.2922 C   0  0  0  0  0  0
  -18.9474  -30.1493   23.8935 C   0  0  0  0  0  0
  -17.6479  -30.6641   24.0617 C   0  0  0  0  0  0
  -25.9034  -34.9477   23.5126 C   0  0  0  0  0  0
  -16.5382  -29.9175   23.6367 C   0  0  0  0  0  0
  -16.7283  -28.6574   23.0382 C   0  0  0  0  0  0
  -26.4430  -31.6621   25.0697 C   0  0  0  0  0  0
  -25.3661  -31.3825   26.1447 C   0  0  0  0  0  0
  -27.0238  -30.3038   24.6084 C   0  0  0  0  0  0
  -27.6005  -32.4351   25.7465 C   0  0  0  0  0  0
  -27.5596  -37.1796   24.8452 C   0  0  0  0  0  0
  -21.4105  -29.3075   22.3658 N   0  0  0  0  0  0
  -26.4271  -37.3807   23.9437 N   0  0  0  0  0  0
  -24.6690  -31.0815   22.0962 N   0  0  0  0  0  0
  -23.4122  -28.8253   23.3021 O   0  0  0  0  0  0
  -28.4115  -26.7073   19.9834 O   0  0  0  0  0  0
  -26.5618  -34.8914   22.4702 O   0  0  0  0  0  0
  -23.5328  -32.1442   23.7457 O   0  0  0  0  0  0
  -29.2126  -19.1772   21.2454 C   0  0  0  0  0  0
  -31.4054  -17.5361   20.7351 C   0  0  0  0  0  0
  -29.0564  -17.7728   21.3485 C   0  0  0  0  0  0
  -31.5513  -18.9408   20.6617 C   0  0  0  0  0  0
  -30.1654  -16.9248   21.0639 C   0  0  0  0  0  0
  -30.4474  -19.7879   20.9175 C   0  0  0  0  0  0
  -26.5432  -17.8724   21.6758 C   0  0  0  0  0  0
  -27.7272  -17.2255   21.7226 C   0  0  0  0  0  0
  -32.9098  -19.5235   20.2976 C   0  0  0  0  0  0
  -28.5677  -24.4302   20.9903 C   0  0  0  0  0  0
  -29.8327  -23.5173   21.0124 C   0  0  0  0  0  0
  -28.8565  -25.9524   21.1162 C   0  0  0  0  0  0
  -29.4898  -22.0109   21.1001 C   0  0  0  0  0  0
  -29.9841  -15.4946   21.1266 N   0  0  0  0  0  0
  -30.6233  -21.1664   20.8504 O   0  0  0  0  0  0
  -31.4681  -12.4112   19.1259 H   0  0  0  0  0  0
  -30.3224  -11.3111   19.8322 H   0  0  0  0  0  0
  -29.7296  -11.7632   17.4438 H   0  0  0  0  0  0
  -29.6706  -13.4812   17.7546 H   0  0  0  0  0  0
  -27.8149  -11.3219   18.8135 H   0  0  0  0  0  0
  -27.3673  -12.6622   17.7906 H   0  0  0  0  0  0
  -27.7019  -14.2641   19.5871 H   0  0  0  0  0  0
  -28.6839  -11.9661   21.3439 H   0  0  0  0  0  0
  -28.4656  -13.6002   21.8787 H   0  0  0  0  0  0
  -25.2766   -9.5608   22.4822 H   0  0  0  0  0  0
  -23.9959   -7.4590   22.7505 H   0  0  0  0  0  0
  -21.0835   -8.8809   19.8980 H   0  0  0  0  0  0
  -22.3757  -10.9678   19.6196 H   0  0  0  0  0  0
  -21.1944   -7.6123   23.9682 H   0  0  0  0  0  0
  -21.1479   -6.0528   25.9066 H   0  0  0  0  0  0
  -22.0603   -2.7607   23.2862 H   0  0  0  0  0  0
  -22.4010  -11.9914   22.4864 H   0  0  0  0  0  0
  -21.1087  -13.1332   22.2584 H   0  0  0  0  0  0
  -24.6022  -15.7887   20.3052 H   0  0  0  0  0  0
  -26.2423  -15.5936   19.9620 H   0  0  0  0  0  0
  -26.7077  -32.5578   23.1129 H   0  0  0  0  0  0
  -24.9975  -33.9756   25.0418 H   0  0  0  0  0  0
  -22.6988  -31.3158   21.4065 H   0  0  0  0  0  0
  -23.3744  -35.9642   23.3299 H   0  0  0  0  0  0
  -24.3549  -36.8921   22.2043 H   0  0  0  0  0  0
  -23.7198  -37.6491   23.6639 H   0  0  0  0  0  0
  -26.0341  -31.5845   20.5754 H   0  0  0  0  0  0
  -26.8242  -30.9034   21.9728 H   0  0  0  0  0  0
  -28.1126  -29.1211   21.1516 H   0  0  0  0  0  0
  -26.0974  -25.9809   18.9970 H   0  0  0  0  0  0
  -23.9913  -27.2906   19.0357 H   0  0  0  0  0  0
  -23.7256  -30.5911   19.4019 H   0  0  0  0  0  0
  -22.7370  -29.2408   19.8732 H   0  0  0  0  0  0
  -25.1268  -36.1968   25.0831 H   0  0  0  0  0  0
  -21.0053  -28.3315   24.1383 H   0  0  0  0  0  0
  -20.5667  -26.2314   23.3653 H   0  0  0  0  0  0
  -21.6636  -26.7498   22.1221 H   0  0  0  0  0  0
  -19.6882  -25.6336   21.1259 H   0  0  0  0  0  0
  -19.6669  -27.3224   20.6742 H   0  0  0  0  0  0
  -17.4204  -26.6762   21.4055 H   0  0  0  0  0  0
  -18.0334  -26.0144   22.9049 H   0  0  0  0  0  0
  -19.7948  -30.7304   24.2309 H   0  0  0  0  0  0
  -17.5060  -31.6311   24.5236 H   0  0  0  0  0  0
  -15.5394  -30.3120   23.7629 H   0  0  0  0  0  0
  -15.8679  -28.0925   22.7098 H   0  0  0  0  0  0
  -24.5783  -30.7221   25.7816 H   0  0  0  0  0  0
  -24.8901  -32.3030   26.4824 H   0  0  0  0  0  0
  -25.7973  -30.9030   27.0235 H   0  0  0  0  0  0
  -26.2779  -29.6852   24.1048 H   0  0  0  0  0  0
  -27.3893  -29.7251   25.4582 H   0  0  0  0  0  0
  -27.8681  -30.4363   23.9301 H   0  0  0  0  0  0
  -27.2601  -33.3654   26.2028 H   0  0  0  0  0  0
  -28.3803  -32.6910   25.0282 H   0  0  0  0  0  0
  -28.0639  -31.8452   26.5376 H   0  0  0  0  0  0
  -28.2608  -38.0109   24.7583 H   0  0  0  0  0  0
  -28.1111  -36.2653   24.6199 H   0  0  0  0  0  0
  -27.2323  -37.1373   25.8854 H   0  0  0  0  0  0
  -20.9258  -29.8747   21.6850 H   0  0  0  0  0  0
  -26.0168  -38.2890   24.1491 H   0  0  0  0  0  0
  -28.3572  -19.7953   21.4566 H   0  0  0  0  0  0
  -32.2848  -16.9420   20.5394 H   0  0  0  0  0  0
  -25.6337  -17.3827   22.0014 H   0  0  0  0  0  0
  -26.4297  -18.8836   21.3172 H   0  0  0  0  0  0
  -27.7006  -16.2145   22.1014 H   0  0  0  0  0  0
  -33.6888  -18.7591   20.3089 H   0  0  0  0  0  0
  -33.2004  -20.3006   21.0041 H   0  0  0  0  0  0
  -32.8924  -19.9573   19.2974 H   0  0  0  0  0  0
  -27.9006  -24.1434   21.8082 H   0  0  0  0  0  0
  -27.9980  -24.2300   20.0780 H   0  0  0  0  0  0
  -30.4689  -23.7747   21.8617 H   0  0  0  0  0  0
  -30.4274  -23.7095   20.1165 H   0  0  0  0  0  0
  -29.9349  -26.0961   21.1789 H   0  0  0  0  0  0
  -28.4598  -26.3508   22.0515 H   0  0  0  0  0  0
  -28.7021  -21.7792   20.3797 H   0  0  0  0  0  0
  -29.0964  -21.8081   22.0980 H   0  0  0  0  0  0
  -29.0850  -15.1955   21.4651 H   0  0  0  0  0  0
  1 25  1  0  0  0
  1 30  2  0  0  0
  1 84  1  0  0  0
  2  3  1  0  0  0
  2 25  1  0  0  0
  2 86  1  0  0  0
  2 87  1  0  0  0
  3  4  1  0  0  0
  3 88  1  0  0  0
  3 89  1  0  0  0
  4  5  1  0  0  0
  4 90  1  0  0  0
  4 91  1  0  0  0
  5  6  1  0  0  0
  5 26  1  0  0  0
  5 92  1  0  0  0
  6 25  1  0  0  0
  6 93  1  0  0  0
  6 94  1  0  0  0
  7  8  2  0  0  0
  7 26  1  0  0  0
  7 29  1  0  0  0
  8  9  1  0  0  0
  8 22  1  0  0  0
  9 10  1  0  0  0
  9 27  2  0  0  0
 10 11  2  0  0  0
 10 15  1  0  0  0
 11 12  1  0  0  0
 11 95  1  0  0  0
 12 13  2  0  0  0
 12 96  1  0  0  0
 13 14  1  0  0  0
 13 31  1  0  0  0
 14 15  2  0  0  0
 14 97  1  0  0  0
 15 98  1  0  0  0
 16 17  2  0  0  0
 16 21  1  0  0  0
 16 31  1  0  0  0
 17 18  1  0  0  0
 17 99  1  0  0  0
 18 19  2  0  0  0
 18100  1  0  0  0
 19 20  1  0  0  0
 19 24  1  0  0  0
 20 21  2  0  0  0
 20101  1  0  0  0
 21 23  1  0  0  0
 22 28  1  0  0  0
 22 32  2  0  0  0
 26 27  1  0  0  0
 28102  1  0  0  0
 28103  1  0  0  0
 29104  1  0  0  0
 29105  1  0  0  0
 33 34  1  0  0  0
 33 66  1  0  0  0
 33 70  2  0  0  0
 34 36  1  0  0  0
 34 59  1  0  0  0
 34106  1  0  0  0
 35 44  2  0  0  0
 35 45  1  0  0  0
 35 68  1  0  0  0
 36 56  1  0  0  0
 36107  1  0  0  0
 37 39  1  0  0  0
 37 47  1  0  0  0
 37 66  1  0  0  0
 37108  1  0  0  0
 38 43  2  0  0  0
 38 46  1  0  0  0
 38 47  1  0  0  0
 39 64  1  0  0  0
 39 67  2  0  0  0
 40 52  1  0  0  0
 40 53  2  0  0  0
 40 58  1  0  0  0
 41109  1  0  0  0
 41110  1  0  0  0
 41111  1  0  0  0
 41 48  1  0  0  0
 42 43  1  0  0  0
 42 66  1  0  0  0
 42112  1  0  0  0
 42113  1  0  0  0
 43 44  1  0  0  0
 44114  1  0  0  0
 45 46  2  0  0  0
 45115  1  0  0  0
 46116  1  0  0  0
 47117  1  0  0  0
 47118  1  0  0  0
 48 56  1  0  0  0
 48 65  1  0  0  0
 48119  1  0  0  0
 49 50  1  0  0  0
 49 53  1  0  0  0
 49 64  1  0  0  0
 49120  1  0  0  0
 50 51  1  0  0  0
 50121  1  0  0  0
 50122  1  0  0  0
 51 52  1  0  0  0
 51123  1  0  0  0
 51124  1  0  0  0
 52125  1  0  0  0
 52126  1  0  0  0
 53 54  1  0  0  0
 54 55  2  0  0  0
 54127  1  0  0  0
 55 57  1  0  0  0
 55128  1  0  0  0
 56 69  2  0  0  0
 57 58  2  0  0  0
 57129  1  0  0  0
 58130  1  0  0  0
 59 60  1  0  0  0
 59 61  1  0  0  0
 59 62  1  0  0  0
 60131  1  0  0  0
 60132  1  0  0  0
 60133  1  0  0  0
 61134  1  0  0  0
 61135  1  0  0  0
 61136  1  0  0  0
 62137  1  0  0  0
 62138  1  0  0  0
 62139  1  0  0  0
 63 65  1  0  0  0
 63140  1  0  0  0
 63141  1  0  0  0
 63142  1  0  0  0
 64143  1  0  0  0
 65144  1  0  0  0
 68 82  1  0  0  0
 71 73  2  0  0  0
 71 76  1  0  0  0
 71145  1  0  0  0
 72 74  1  0  0  0
 72 75  2  0  0  0
 72146  1  0  0  0
 73 75  1  0  0  0
 73 78  1  0  0  0
 74 76  2  0  0  0
 74 79  1  0  0  0
 75 84  1  0  0  0
 76 85  1  0  0  0
 77 78  2  0  0  0
 77147  1  0  0  0
 77148  1  0  0  0
 78149  1  0  0  0
 79150  1  0  0  0
 79151  1  0  0  0
 79152  1  0  0  0
 80 81  1  0  0  0
 80 82  1  0  0  0
 80153  1  0  0  0
 80154  1  0  0  0
 81 83  1  0  0  0
 81155  1  0  0  0
 81156  1  0  0  0
 82157  1  0  0  0
 82158  1  0  0  0
 83 85  1  0  0  0
 83159  1  0  0  0
 83160  1  0  0  0
 84161  1  0  0  0
M  ISO  4   1 100  68 101  82 101  84 100
M  END
> <chiral flag>
0

> <version>
0

> <s_m_source_file>
/data/baiqing/PycharmProjects/Reinvent-master-3.2/result/LINK_invent/BTK/process_docking_weight1_custom_product_contain_oxygen_bond_distance_aromatic_linkinvent_7_9_3/rearranged_h_0120.sdf

> <i_m_source_file_index>
95

> <r_mmod_Potential_Energy-OPLS-2005>
-33.8644981384277

> <r_mmod_Stretch_Energy-OPLS-2005>
43.180248260498

> <r_mmod_Bend_Energy-OPLS-2005>
106.675453186035

> <r_mmod_Torsional_Energy-OPLS-2005>
249.715759277344

> <r_mmod_Improper_Torsional_Energy-OPLS-2005>
4.73003101348877

> <r_mmod_Van_der_Waal_Energy-OPLS-2005>
161.128311157227

> <r_mmod_Electrostatic_Energy-OPLS-2005>
-413.428771972656

> <r_mmod_Solvation_Energy-OPLS-2005>
-199.325180053711

> <b_mmod_Minimization_Converged-OPLS-2005>
0

> <r_mmod_RMS_Derivative-OPLS-2005>
4.82992076873779

$$$$
95
                    3D
 Structure written by MMmdl.
158166  0  0  1  0            999 V2000
  -30.7101  -14.4859   20.5601 C   0  0  0  0  0  0
  -30.4158  -12.3130   19.4284 C   0  0  0  0  0  0
  -29.4923  -12.5007   18.2077 C   0  0  0  0  0  0
  -28.0136  -12.3605   18.6201 C   0  0  0  0  0  0
  -27.6569  -13.2108   19.8690 C   0  0  2  0  0  0
  -28.6992  -13.0180   20.9937 C   0  0  0  0  0  0
  -25.2573  -13.8172   20.5675 C   0  0  0  0  0  0
  -24.1833  -13.0442   20.9182 C   0  0  0  0  0  0
  -24.6393  -11.6912   20.8742 C   0  0  0  0  0  0
  -23.9061  -10.4294   21.0403 C   0  0  0  0  0  0
  -24.3617   -9.4209   21.9180 C   0  0  0  0  0  0
  -23.6294   -8.2243   22.0751 C   0  0  0  0  0  0
  -22.4274   -8.0277   21.3543 C   0  0  0  0  0  0
  -21.9906   -9.0253   20.4647 C   0  0  0  0  0  0
  -22.7233  -10.2134   20.3053 C   0  0  0  0  0  0
  -21.6852   -6.0737   22.5280 C   0  0  0  0  0  0
  -21.4013   -6.5644   23.8214 C   0  0  0  0  0  0
  -21.3659   -5.6794   24.9176 C   0  0  0  0  0  0
  -21.6043   -4.3057   24.7225 C   0  0  0  0  0  0
  -21.8819   -3.8150   23.4345 C   0  0  0  0  0  0
  -21.9195   -4.6964   22.3404 C   0  0  0  0  0  0
  -22.7857  -13.5238   21.1845 C   0  0  0  0  0  0
  -22.1662   -4.2151   21.0982 F   0  0  0  0  0  0
  -21.5630   -3.4537   25.7733 F   0  0  0  0  0  0
  -30.0268  -13.3151   20.4344 N   0  0  0  0  0  0
  -26.3002  -12.9344   20.3341 N   0  0  0  0  0  0
  -25.9320  -11.6504   20.5765 N   0  0  0  0  0  0
  -22.0500  -12.8233   22.0403 N   0  0  0  0  0  0
  -25.4308  -15.1885   20.4070 N   0  0  0  0  0  0
  -31.8446  -14.6347   20.1003 O   0  0  0  0  0  0
  -21.6639   -6.8876   21.4239 O   0  0  0  0  0  0
  -22.3547  -14.5549   20.6700 O   0  0  0  0  0  0
  -24.6166  -31.8665   23.2097 C   0  0  0  0  0  0
  -25.9055  -32.4813   23.8392 C   0  0  1  0  0  0
  -27.2296  -27.4203   20.1031 C   0  0  0  0  0  0
  -25.5915  -33.8615   24.2325 N   0  0  0  0  0  0
  -23.4052  -30.4908   21.5500 C   0  0  2  0  0  0
  -24.8523  -28.9579   20.1123 C   0  0  0  0  0  0
  -22.7424  -29.4652   22.4985 C   0  0  0  0  0  0
  -18.0275  -28.1382   22.8491 C   0  0  0  0  0  0
  -24.1490  -36.7303   23.2638 C   0  0  0  0  0  0
  -25.9362  -30.8294   21.3646 C   0  0  0  0  0  0
  -26.0147  -29.4644   20.7089 C   0  0  0  0  0  0
  -27.2102  -28.7052   20.6973 C   0  0  0  0  0  0
  -26.0537  -26.9390   19.4874 C   0  0  0  0  0  0
  -24.8676  -27.6955   19.4958 C   0  0  0  0  0  0
  -23.6137  -29.8239   20.1644 C   0  0  0  0  0  0
  -25.4110  -36.3104   24.0343 C   0  0  1  0  0  0
  -20.5866  -28.3662   23.1323 C   0  0  2  0  0  0
  -20.6759  -26.9393   22.5436 C   0  0  0  0  0  0
  -19.5749  -26.6383   21.5222 C   0  0  0  0  0  0
  -18.1919  -26.7937   22.1610 C   0  0  0  0  0  0
  -19.1525  -28.8839   23.2902 C   0  0  0  0  0  0
  -18.9449  -30.1450   23.8909 C   0  0  0  0  0  0
  -17.6448  -30.6584   24.0567 C   0  0  0  0  0  0
  -25.9042  -34.9473   23.5126 C   0  0  0  0  0  0
  -16.5341  -29.9083   23.6335 C   0  0  0  0  0  0
  -16.7262  -28.6504   23.0348 C   0  0  0  0  0  0
  -26.4481  -31.6598   25.0724 C   0  0  0  0  0  0
  -25.3750  -31.3718   26.1477 C   0  0  0  0  0  0
  -27.0289  -30.3030   24.6108 C   0  0  0  0  0  0
  -27.6074  -32.4307   25.7464 C   0  0  0  0  0  0
  -27.5593  -37.1790   24.8456 C   0  0  0  0  0  0
  -21.4150  -29.3022   22.3724 N   0  0  0  0  0  0
  -26.4289  -37.3794   23.9427 N   0  0  0  0  0  0
  -24.6707  -31.0766   22.0995 N   0  0  0  0  0  0
  -23.4199  -28.8197   23.3027 O   0  0  0  0  0  0
  -28.3625  -26.6319   20.1279 O   0  0  0  0  0  0
  -26.5595  -34.8928   22.4684 O   0  0  0  0  0  0
  -23.5355  -32.1417   23.7489 O   0  0  0  0  0  0
  -29.6290  -18.0039   21.0248 C   0  0  0  0  0  0
  -31.8365  -17.1693   21.5126 C   0  0  0  0  0  0
  -30.1221  -19.3316   21.1594 C   0  0  0  0  0  0
  -30.4927  -16.8906   21.1881 C   0  0  0  0  0  0
  -31.4977  -19.4714   21.4881 C   0  0  0  0  0  0
  -29.1893  -20.4794   20.9641 C   0  0  0  0  0  0
  -29.4198  -21.6447   20.3103 C   0  0  0  0  0  0
  -29.0227  -24.2152   20.1990 C   0  0  0  0  0  0
  -33.1152  -21.2413   20.6291 C   0  0  0  0  0  0
  -32.1711  -20.8113   21.7611 C   0  0  0  0  0  0
  -28.4096  -22.7940   20.2003 C   0  0  0  0  0  0
  -28.1525  -25.3541   20.7753 C   0  0  0  0  0  0
  -32.3219  -18.4158   21.6598 N   0  0  0  0  0  0
  -30.0164  -15.5377   21.0550 N   0  0  0  0  0  0
  -30.1513  -24.4313   19.7442 O   0  0  0  0  0  0
  -31.4621  -12.3989   19.1294 H   0  0  0  0  0  0
  -30.3082  -11.3080   19.8397 H   0  0  0  0  0  0
  -29.7355  -11.7705   17.4347 H   0  0  0  0  0  0
  -29.6593  -13.4840   17.7646 H   0  0  0  0  0  0
  -27.8270  -11.3057   18.8244 H   0  0  0  0  0  0
  -27.3625  -12.6245   17.7858 H   0  0  0  0  0  0
  -27.6935  -14.2543   19.5561 H   0  0  0  0  0  0
  -28.6764  -11.9902   21.3597 H   0  0  0  0  0  0
  -28.4646  -13.6419   21.8572 H   0  0  0  0  0  0
  -25.2767   -9.5689   22.4751 H   0  0  0  0  0  0
  -24.0008   -7.4633   22.7469 H   0  0  0  0  0  0
  -21.0837   -8.8767   19.8956 H   0  0  0  0  0  0
  -22.3686  -10.9671   19.6161 H   0  0  0  0  0  0
  -21.1997   -7.6151   23.9717 H   0  0  0  0  0  0
  -21.1485   -6.0525   25.9079 H   0  0  0  0  0  0
  -22.0596   -2.7611   23.2842 H   0  0  0  0  0  0
  -22.4112  -11.9888   22.4784 H   0  0  0  0  0  0
  -21.1124  -13.1271   22.2622 H   0  0  0  0  0  0
  -24.6637  -15.8443   20.5059 H   0  0  0  0  0  0
  -26.2792  -15.6211   20.0643 H   0  0  0  0  0  0
  -26.7128  -32.5518   23.1157 H   0  0  0  0  0  0
  -25.0099  -33.9774   25.0495 H   0  0  0  0  0  0
  -22.6948  -31.3085   21.4114 H   0  0  0  0  0  0
  -23.3762  -35.9621   23.3283 H   0  0  0  0  0  0
  -24.3593  -36.8932   22.2056 H   0  0  0  0  0  0
  -23.7226  -37.6499   23.6657 H   0  0  0  0  0  0
  -26.0529  -31.5969   20.5982 H   0  0  0  0  0  0
  -26.8224  -30.8789   21.9855 H   0  0  0  0  0  0
  -28.1057  -29.0890   21.1664 H   0  0  0  0  0  0
  -26.0482  -25.9718   19.0046 H   0  0  0  0  0  0
  -23.9764  -27.3013   19.0272 H   0  0  0  0  0  0
  -23.7188  -30.5987   19.4040 H   0  0  0  0  0  0
  -22.7385  -29.2414   19.8697 H   0  0  0  0  0  0
  -25.1286  -36.1958   25.0834 H   0  0  0  0  0  0
  -20.9962  -28.3221   24.1441 H   0  0  0  0  0  0
  -20.5640  -26.2270   23.3625 H   0  0  0  0  0  0
  -21.6631  -26.7422   22.1238 H   0  0  0  0  0  0
  -19.6902  -25.6294   21.1247 H   0  0  0  0  0  0
  -19.6718  -27.3199   20.6760 H   0  0  0  0  0  0
  -17.4213  -26.6723   21.3984 H   0  0  0  0  0  0
  -18.0285  -26.0064   22.8980 H   0  0  0  0  0  0
  -19.7923  -30.7263   24.2279 H   0  0  0  0  0  0
  -17.5004  -31.6268   24.5161 H   0  0  0  0  0  0
  -15.5339  -30.2982   23.7662 H   0  0  0  0  0  0
  -15.8665  -28.0830   22.7045 H   0  0  0  0  0  0
  -24.5980  -30.6978   25.7851 H   0  0  0  0  0  0
  -24.8859  -32.2861   26.4844 H   0  0  0  0  0  0
  -25.8122  -30.8994   27.0282 H   0  0  0  0  0  0
  -26.2813  -29.6803   24.1178 H   0  0  0  0  0  0
  -27.4057  -29.7269   25.4569 H   0  0  0  0  0  0
  -27.8663  -30.4329   23.9248 H   0  0  0  0  0  0
  -27.2715  -33.3604   26.2069 H   0  0  0  0  0  0
  -28.3858  -32.6870   25.0266 H   0  0  0  0  0  0
  -28.0772  -31.8411   26.5346 H   0  0  0  0  0  0
  -28.2596  -38.0102   24.7534 H   0  0  0  0  0  0
  -28.1102  -36.2640   24.6227 H   0  0  0  0  0  0
  -27.2330  -37.1375   25.8862 H   0  0  0  0  0  0
  -20.9310  -29.8744   21.6946 H   0  0  0  0  0  0
  -26.0178  -38.2867   24.1458 H   0  0  0  0  0  0
  -28.5879  -17.8446   20.7820 H   0  0  0  0  0  0
  -32.5524  -16.3827   21.6978 H   0  0  0  0  0  0
  -28.2217  -20.3582   21.4320 H   0  0  0  0  0  0
  -30.3612  -21.8002   19.8050 H   0  0  0  0  0  0
  -33.5550  -22.2160   20.8392 H   0  0  0  0  0  0
  -32.5930  -21.3064   19.6755 H   0  0  0  0  0  0
  -33.9312  -20.5280   20.5103 H   0  0  0  0  0  0
  -32.7431  -20.7249   22.6858 H   0  0  0  0  0  0
  -31.4391  -21.5892   21.9674 H   0  0  0  0  0  0
  -27.6804  -22.7154   21.0064 H   0  0  0  0  0  0
  -27.8598  -22.6789   19.2664 H   0  0  0  0  0  0
  -28.3973  -25.4645   21.8318 H   0  0  0  0  0  0
  -27.1117  -25.0338   20.7377 H   0  0  0  0  0  0
  -29.0445  -15.3646   21.2645 H   0  0  0  0  0  0
  1 25  1  0  0  0
  1 30  2  0  0  0
  1 84  1  0  0  0
  2  3  1  0  0  0
  2 25  1  0  0  0
  2 86  1  0  0  0
  2 87  1  0  0  0
  3  4  1  0  0  0
  3 88  1  0  0  0
  3 89  1  0  0  0
  4  5  1  0  0  0
  4 90  1  0  0  0
  4 91  1  0  0  0
  5  6  1  0  0  0
  5 26  1  0  0  0
  5 92  1  0  0  0
  6 25  1  0  0  0
  6 93  1  0  0  0
  6 94  1  0  0  0
  7  8  2  0  0  0
  7 26  1  0  0  0
  7 29  1  0  0  0
  8  9  1  0  0  0
  8 22  1  0  0  0
  9 10  1  0  0  0
  9 27  2  0  0  0
 10 11  2  0  0  0
 10 15  1  0  0  0
 11 12  1  0  0  0
 11 95  1  0  0  0
 12 13  2  0  0  0
 12 96  1  0  0  0
 13 14  1  0  0  0
 13 31  1  0  0  0
 14 15  2  0  0  0
 14 97  1  0  0  0
 15 98  1  0  0  0
 16 17  2  0  0  0
 16 21  1  0  0  0
 16 31  1  0  0  0
 17 18  1  0  0  0
 17 99  1  0  0  0
 18 19  2  0  0  0
 18100  1  0  0  0
 19 20  1  0  0  0
 19 24  1  0  0  0
 20 21  2  0  0  0
 20101  1  0  0  0
 21 23  1  0  0  0
 22 28  1  0  0  0
 22 32  2  0  0  0
 26 27  1  0  0  0
 28102  1  0  0  0
 28103  1  0  0  0
 29104  1  0  0  0
 29105  1  0  0  0
 33 34  1  0  0  0
 33 66  1  0  0  0
 33 70  2  0  0  0
 34 36  1  0  0  0
 34 59  1  0  0  0
 34106  1  0  0  0
 35 44  2  0  0  0
 35 45  1  0  0  0
 35 68  1  0  0  0
 36 56  1  0  0  0
 36107  1  0  0  0
 37 39  1  0  0  0
 37 47  1  0  0  0
 37 66  1  0  0  0
 37108  1  0  0  0
 38 43  2  0  0  0
 38 46  1  0  0  0
 38 47  1  0  0  0
 39 64  1  0  0  0
 39 67  2  0  0  0
 40 52  1  0  0  0
 40 53  2  0  0  0
 40 58  1  0  0  0
 41109  1  0  0  0
 41110  1  0  0  0
 41111  1  0  0  0
 41 48  1  0  0  0
 42 43  1  0  0  0
 42 66  1  0  0  0
 42112  1  0  0  0
 42113  1  0  0  0
 43 44  1  0  0  0
 44114  1  0  0  0
 45 46  2  0  0  0
 45115  1  0  0  0
 46116  1  0  0  0
 47117  1  0  0  0
 47118  1  0  0  0
 48 56  1  0  0  0
 48 65  1  0  0  0
 48119  1  0  0  0
 49 50  1  0  0  0
 49 53  1  0  0  0
 49 64  1  0  0  0
 49120  1  0  0  0
 50 51  1  0  0  0
 50121  1  0  0  0
 50122  1  0  0  0
 51 52  1  0  0  0
 51123  1  0  0  0
 51124  1  0  0  0
 52125  1  0  0  0
 52126  1  0  0  0
 53 54  1  0  0  0
 54 55  2  0  0  0
 54127  1  0  0  0
 55 57  1  0  0  0
 55128  1  0  0  0
 56 69  2  0  0  0
 57 58  2  0  0  0
 57129  1  0  0  0
 58130  1  0  0  0
 59 60  1  0  0  0
 59 61  1  0  0  0
 59 62  1  0  0  0
 60131  1  0  0  0
 60132  1  0  0  0
 60133  1  0  0  0
 61134  1  0  0  0
 61135  1  0  0  0
 61136  1  0  0  0
 62137  1  0  0  0
 62138  1  0  0  0
 62139  1  0  0  0
 63 65  1  0  0  0
 63140  1  0  0  0
 63141  1  0  0  0
 63142  1  0  0  0
 64143  1  0  0  0
 65144  1  0  0  0
 68 82  1  0  0  0
 71 73  2  0  0  0
 71 74  1  0  0  0
 71145  1  0  0  0
 72 74  2  0  0  0
 72 83  1  0  0  0
 72146  1  0  0  0
 73 75  1  0  0  0
 73 76  1  0  0  0
 74 84  1  0  0  0
 75 80  1  0  0  0
 75 83  2  0  0  0
 76 77  2  0  0  0
 76147  1  0  0  0
 77 81  1  0  0  0
 77148  1  0  0  0
 78 81  1  0  0  0
 78 82  1  0  0  0
 78 85  2  0  0  0
 79 80  1  0  0  0
 79149  1  0  0  0
 79150  1  0  0  0
 79151  1  0  0  0
 80152  1  0  0  0
 80153  1  0  0  0
 81154  1  0  0  0
 81155  1  0  0  0
 82156  1  0  0  0
 82157  1  0  0  0
 84158  1  0  0  0
M  ISO  4   1 100  68 101  82 101  84 100
M  END
> <chiral flag>
0

> <version>
0

> <s_m_source_file>
/data/baiqing/PycharmProjects/Reinvent-master-3.2/result/LINK_invent/BTK/process_docking_weight1_custom_product_contain_oxygen_bond_distance_aromatic_linkinvent_7_9_3/rearranged_h_0120.sdf

> <i_m_source_file_index>
96

> <r_mmod_Potential_Energy-OPLS-2005>
-171.466888427734

> <r_mmod_Stretch_Energy-OPLS-2005>
42.4170608520508

> <r_mmod_Bend_Energy-OPLS-2005>
98.1091003417969

> <r_mmod_Torsional_Energy-OPLS-2005>
242.239395141602

> <r_mmod_Improper_Torsional_Energy-OPLS-2005>
4.21736717224121

> <r_mmod_Van_der_Waal_Energy-OPLS-2005>
159.354598999023

> <r_mmod_Electrostatic_Energy-OPLS-2005>
-496.905670166016

> <r_mmod_Solvation_Energy-OPLS-2005>
-237.362197875977

> <b_mmod_Minimization_Converged-OPLS-2005>
0

> <r_mmod_RMS_Derivative-OPLS-2005>
0.910399317741394

$$$$
