0
                    3D
 Structure written by MMmdl.
169177  0  0  1  0            999 V2000
  -30.7010  -14.4955   20.5747 C   0  0  0  0  0  0
  -30.4102  -12.3145   19.4501 C   0  0  0  0  0  0
  -29.5001  -12.5160   18.2208 C   0  0  0  0  0  0
  -28.0195  -12.3745   18.6213 C   0  0  0  0  0  0
  -27.6562  -13.2167   19.8744 C   0  0  2  0  0  0
  -28.6911  -13.0251   21.0072 C   0  0  0  0  0  0
  -25.2552  -13.8196   20.5685 C   0  0  0  0  0  0
  -24.1812  -13.0426   20.9177 C   0  0  0  0  0  0
  -24.6398  -11.6915   20.8728 C   0  0  0  0  0  0
  -23.9075  -10.4286   21.0401 C   0  0  0  0  0  0
  -24.3612   -9.4215   21.9193 C   0  0  0  0  0  0
  -23.6295   -8.2262   22.0781 C   0  0  0  0  0  0
  -22.4295   -8.0294   21.3565 C   0  0  0  0  0  0
  -21.9951   -9.0231   20.4625 C   0  0  0  0  0  0
  -22.7269  -10.2118   20.3024 C   0  0  0  0  0  0
  -21.6846   -6.0754   22.5286 C   0  0  0  0  0  0
  -21.4000   -6.5633   23.8215 C   0  0  0  0  0  0
  -21.3648   -5.6785   24.9186 C   0  0  0  0  0  0
  -21.6046   -4.3054   24.7226 C   0  0  0  0  0  0
  -21.8823   -3.8144   23.4336 C   0  0  0  0  0  0
  -21.9200   -4.6980   22.3409 C   0  0  0  0  0  0
  -22.7853  -13.5228   21.1847 C   0  0  0  0  0  0
  -22.1660   -4.2164   21.0994 F   0  0  0  0  0  0
  -21.5630   -3.4525   25.7735 F   0  0  0  0  0  0
  -30.0231  -13.3176   20.4602 N   0  0  0  0  0  0
  -26.2975  -12.9368   20.3337 N   0  0  0  0  0  0
  -25.9319  -11.6518   20.5729 N   0  0  0  0  0  0
  -22.0506  -12.8169   22.0387 N   0  0  0  0  0  0
  -25.4267  -15.1908   20.4113 N   0  0  0  0  0  0
  -31.8409  -14.6113   20.1149 O   0  0  0  0  0  0
  -21.6657   -6.8903   21.4255 O   0  0  0  0  0  0
  -22.3536  -14.5553   20.6750 O   0  0  0  0  0  0
  -24.6151  -31.8677   23.2034 C   0  0  0  0  0  0
  -25.9027  -32.4810   23.8364 C   0  0  1  0  0  0
  -27.2428  -27.4260   20.0993 C   0  0  0  0  0  0
  -25.5875  -33.8611   24.2268 N   0  0  0  0  0  0
  -23.4068  -30.4918   21.5375 C   0  0  2  0  0  0
  -24.8544  -28.9473   20.1152 C   0  0  0  0  0  0
  -22.7390  -29.4724   22.4889 C   0  0  0  0  0  0
  -18.0276  -28.1449   22.8546 C   0  0  0  0  0  0
  -24.1490  -36.7283   23.2655 C   0  0  0  0  0  0
  -25.9372  -30.8284   21.3637 C   0  0  0  0  0  0
  -26.0127  -29.4628   20.7092 C   0  0  0  0  0  0
  -27.2069  -28.7068   20.6967 C   0  0  0  0  0  0
  -26.0613  -26.9227   19.5068 C   0  0  0  0  0  0
  -24.8731  -27.6774   19.5122 C   0  0  0  0  0  0
  -23.6185  -29.8140   20.1575 C   0  0  0  0  0  0
  -25.4131  -36.3096   24.0331 C   0  0  1  0  0  0
  -20.5874  -28.3803   23.1281 C   0  0  2  0  0  0
  -20.6787  -26.9535   22.5422 C   0  0  0  0  0  0
  -19.5745  -26.6447   21.5257 C   0  0  0  0  0  0
  -18.1908  -26.7995   22.1645 C   0  0  0  0  0  0
  -19.1532  -28.8935   23.2912 C   0  0  0  0  0  0
  -18.9459  -30.1521   23.8972 C   0  0  0  0  0  0
  -17.6466  -30.6663   24.0634 C   0  0  0  0  0  0
  -25.9079  -34.9470   23.5105 C   0  0  0  0  0  0
  -16.5363  -29.9198   23.6352 C   0  0  0  0  0  0
  -16.7266  -28.6574   23.0438 C   0  0  0  0  0  0
  -26.4451  -31.6635   25.0733 C   0  0  0  0  0  0
  -25.3645  -31.3596   26.1374 C   0  0  0  0  0  0
  -27.0444  -30.3147   24.6147 C   0  0  0  0  0  0
  -27.5932  -32.4462   25.7559 C   0  0  0  0  0  0
  -27.5582  -37.1756   24.8468 C   0  0  0  0  0  0
  -21.4113  -29.3133   22.3609 N   0  0  0  0  0  0
  -26.4286  -37.3814   23.9439 N   0  0  0  0  0  0
  -24.6705  -31.0776   22.0915 N   0  0  0  0  0  0
  -23.4110  -28.8277   23.2975 O   0  0  0  0  0  0
  -28.4361  -26.7296   20.1432 O   0  0  0  0  0  0
  -26.5662  -34.8935   22.4679 O   0  0  0  0  0  0
  -23.5341  -32.1434   23.7415 O   0  0  0  0  0  0
  -31.4793  -18.7541   20.1246 C   0  0  0  0  0  0
  -30.2954  -19.4118   20.4228 C   0  0  0  0  0  0
  -30.2724  -16.9464   20.8935 C   0  0  0  0  0  0
  -27.7587  -24.5107   21.7912 C   0  0  0  0  0  0
  -29.6192  -21.6454   22.4111 C   0  0  0  0  0  0
  -33.4811  -20.2210   20.5287 C   0  0  0  0  0  0
  -32.4809  -20.1153   18.2226 C   0  0  0  0  0  0
  -33.7364  -18.1764   19.1210 C   0  0  0  0  0  0
  -29.4834  -23.1750   20.3644 C   0  0  0  0  0  0
  -28.5843  -25.4512   19.5055 C   0  0  0  0  0  0
  -28.2790  -24.1804   20.3719 C   0  0  2  0  0  0
  -29.2434  -21.7266   20.9181 C   0  0  1  0  0  0
  -32.7641  -19.3151   19.5125 C   0  0  0  0  0  0
  -31.4541  -17.3972   20.4734 N   0  0  0  0  0  0
  -30.0354  -20.7717   20.1317 N   0  0  0  0  0  0
  -30.0105  -15.5439   21.0935 N   0  0  0  0  0  0
  -29.1114  -18.2779   21.0963 S   0  0  0  0  0  0
  -31.4603  -12.3860   19.1591 H   0  0  0  0  0  0
  -30.2804  -11.3107   19.8558 H   0  0  0  0  0  0
  -29.7479  -11.7991   17.4343 H   0  0  0  0  0  0
  -29.6732  -13.5086   17.7990 H   0  0  0  0  0  0
  -27.8260  -11.3179   18.8105 H   0  0  0  0  0  0
  -27.3800  -12.6503   17.7840 H   0  0  0  0  0  0
  -27.6925  -14.2623   19.5682 H   0  0  0  0  0  0
  -28.6623  -12.0010   21.3810 H   0  0  0  0  0  0
  -28.4502  -13.6543   21.8647 H   0  0  0  0  0  0
  -25.2740   -9.5716   22.4782 H   0  0  0  0  0  0
  -23.9994   -7.4689   22.7535 H   0  0  0  0  0  0
  -21.0914   -8.8731   19.8915 H   0  0  0  0  0  0
  -22.3736  -10.9643   19.6105 H   0  0  0  0  0  0
  -21.1958   -7.6136   23.9722 H   0  0  0  0  0  0
  -21.1457   -6.0518   25.9100 H   0  0  0  0  0  0
  -22.0595   -2.7597   23.2845 H   0  0  0  0  0  0
  -22.4111  -11.9770   22.4672 H   0  0  0  0  0  0
  -21.1128  -13.1161   22.2632 H   0  0  0  0  0  0
  -24.6559  -15.8439   20.5148 H   0  0  0  0  0  0
  -26.2762  -15.6310   20.0778 H   0  0  0  0  0  0
  -26.7102  -32.5529   23.1144 H   0  0  0  0  0  0
  -25.0021  -33.9809   25.0406 H   0  0  0  0  0  0
  -22.7029  -31.3113   21.3817 H   0  0  0  0  0  0
  -23.3834  -35.9520   23.3228 H   0  0  0  0  0  0
  -24.3554  -36.9065   22.2085 H   0  0  0  0  0  0
  -23.7154  -37.6393   23.6795 H   0  0  0  0  0  0
  -26.0583  -31.5932   20.5972 H   0  0  0  0  0  0
  -26.8187  -30.8762   21.9889 H   0  0  0  0  0  0
  -28.1055  -29.1027   21.1459 H   0  0  0  0  0  0
  -26.0352  -25.9427   19.0542 H   0  0  0  0  0  0
  -23.9769  -27.2726   19.0593 H   0  0  0  0  0  0
  -23.7334  -30.5775   19.3875 H   0  0  0  0  0  0
  -22.7472  -29.2282   19.8624 H   0  0  0  0  0  0
  -25.1293  -36.1928   25.0821 H   0  0  0  0  0  0
  -21.0010  -28.3463   24.1388 H   0  0  0  0  0  0
  -20.5827  -26.2440   23.3637 H   0  0  0  0  0  0
  -21.6634  -26.7638   22.1154 H   0  0  0  0  0  0
  -19.6945  -25.6347   21.1332 H   0  0  0  0  0  0
  -19.6679  -27.3231   20.6754 H   0  0  0  0  0  0
  -17.4204  -26.6880   21.3999 H   0  0  0  0  0  0
  -18.0235  -26.0086   22.8979 H   0  0  0  0  0  0
  -19.7933  -30.7314   24.2387 H   0  0  0  0  0  0
  -17.5039  -31.6327   24.5283 H   0  0  0  0  0  0
  -15.5381  -30.3167   23.7607 H   0  0  0  0  0  0
  -15.8644  -28.0897   22.7217 H   0  0  0  0  0  0
  -24.5925  -30.6909   25.7546 H   0  0  0  0  0  0
  -24.8696  -32.2688   26.4786 H   0  0  0  0  0  0
  -25.7936  -30.8720   27.0138 H   0  0  0  0  0  0
  -26.3061  -29.6750   24.1315 H   0  0  0  0  0  0
  -27.4420  -29.7519   25.4595 H   0  0  0  0  0  0
  -27.8739  -30.4568   23.9225 H   0  0  0  0  0  0
  -27.2479  -33.3810   26.1995 H   0  0  0  0  0  0
  -28.3808  -32.6988   25.0445 H   0  0  0  0  0  0
  -28.0517  -31.8698   26.5611 H   0  0  0  0  0  0
  -28.2464  -38.0184   24.7780 H   0  0  0  0  0  0
  -28.1248  -36.2734   24.6072 H   0  0  0  0  0  0
  -27.2281  -37.1108   25.8854 H   0  0  0  0  0  0
  -20.9307  -29.8829   21.6789 H   0  0  0  0  0  0
  -26.0169  -38.2850   24.1608 H   0  0  0  0  0  0
  -27.3916  -23.6184   22.2988 H   0  0  0  0  0  0
  -26.9147  -25.2022   21.7707 H   0  0  0  0  0  0
  -28.5308  -24.9633   22.4154 H   0  0  0  0  0  0
  -29.0843  -22.3826   23.0055 H   0  0  0  0  0  0
  -30.6841  -21.8242   22.5663 H   0  0  0  0  0  0
  -29.3858  -20.6714   22.8387 H   0  0  0  0  0  0
  -32.8264  -21.0149   20.8878 H   0  0  0  0  0  0
  -34.3548  -20.6986   20.0862 H   0  0  0  0  0  0
  -33.8194  -19.6576   21.3989 H   0  0  0  0  0  0
  -31.9969  -21.0687   18.4233 H   0  0  0  0  0  0
  -31.8432  -19.5518   17.5401 H   0  0  0  0  0  0
  -33.4035  -20.3501   17.6896 H   0  0  0  0  0  0
  -34.0500  -17.6049   19.9963 H   0  0  0  0  0  0
  -34.6440  -18.5546   18.6507 H   0  0  0  0  0  0
  -33.2699  -17.4783   18.4233 H   0  0  0  0  0  0
  -30.3414  -23.6253   20.8733 H   0  0  0  0  0  0
  -29.8182  -23.0961   19.3258 H   0  0  0  0  0  0
  -28.0687  -25.4180   18.5435 H   0  0  0  0  0  0
  -29.6357  -25.4268   19.2224 H   0  0  0  0  0  0
  -27.4579  -23.6738   19.8619 H   0  0  0  0  0  0
  -28.1889  -21.4856   20.7899 H   0  0  0  0  0  0
  -30.7031  -21.1930   19.4942 H   0  0  0  0  0  0
  -29.1123  -15.3170   21.4888 H   0  0  0  0  0  0
  1 25  1  0  0  0
  1 30  2  0  0  0
  1 86  1  0  0  0
  2  3  1  0  0  0
  2 25  1  0  0  0
  2 88  1  0  0  0
  2 89  1  0  0  0
  3  4  1  0  0  0
  3 90  1  0  0  0
  3 91  1  0  0  0
  4  5  1  0  0  0
  4 92  1  0  0  0
  4 93  1  0  0  0
  5  6  1  0  0  0
  5 26  1  0  0  0
  5 94  1  0  0  0
  6 25  1  0  0  0
  6 95  1  0  0  0
  6 96  1  0  0  0
  7  8  2  0  0  0
  7 26  1  0  0  0
  7 29  1  0  0  0
  8  9  1  0  0  0
  8 22  1  0  0  0
  9 10  1  0  0  0
  9 27  2  0  0  0
 10 11  2  0  0  0
 10 15  1  0  0  0
 11 12  1  0  0  0
 11 97  1  0  0  0
 12 13  2  0  0  0
 12 98  1  0  0  0
 13 14  1  0  0  0
 13 31  1  0  0  0
 14 15  2  0  0  0
 14 99  1  0  0  0
 15100  1  0  0  0
 16 17  2  0  0  0
 16 21  1  0  0  0
 16 31  1  0  0  0
 17 18  1  0  0  0
 17101  1  0  0  0
 18 19  2  0  0  0
 18102  1  0  0  0
 19 20  1  0  0  0
 19 24  1  0  0  0
 20 21  2  0  0  0
 20103  1  0  0  0
 21 23  1  0  0  0
 22 28  1  0  0  0
 22 32  2  0  0  0
 26 27  1  0  0  0
 28104  1  0  0  0
 28105  1  0  0  0
 29106  1  0  0  0
 29107  1  0  0  0
 33 34  1  0  0  0
 33 66  1  0  0  0
 33 70  2  0  0  0
 34 36  1  0  0  0
 34 59  1  0  0  0
 34108  1  0  0  0
 35 44  2  0  0  0
 35 45  1  0  0  0
 35 68  1  0  0  0
 36 56  1  0  0  0
 36109  1  0  0  0
 37 39  1  0  0  0
 37 47  1  0  0  0
 37 66  1  0  0  0
 37110  1  0  0  0
 38 43  2  0  0  0
 38 46  1  0  0  0
 38 47  1  0  0  0
 39 64  1  0  0  0
 39 67  2  0  0  0
 40 52  1  0  0  0
 40 53  2  0  0  0
 40 58  1  0  0  0
 41111  1  0  0  0
 41112  1  0  0  0
 41113  1  0  0  0
 41 48  1  0  0  0
 42 43  1  0  0  0
 42 66  1  0  0  0
 42114  1  0  0  0
 42115  1  0  0  0
 43 44  1  0  0  0
 44116  1  0  0  0
 45 46  2  0  0  0
 45117  1  0  0  0
 46118  1  0  0  0
 47119  1  0  0  0
 47120  1  0  0  0
 48 56  1  0  0  0
 48 65  1  0  0  0
 48121  1  0  0  0
 49 50  1  0  0  0
 49 53  1  0  0  0
 49 64  1  0  0  0
 49122  1  0  0  0
 50 51  1  0  0  0
 50123  1  0  0  0
 50124  1  0  0  0
 51 52  1  0  0  0
 51125  1  0  0  0
 51126  1  0  0  0
 52127  1  0  0  0
 52128  1  0  0  0
 53 54  1  0  0  0
 54 55  2  0  0  0
 54129  1  0  0  0
 55 57  1  0  0  0
 55130  1  0  0  0
 56 69  2  0  0  0
 57 58  2  0  0  0
 57131  1  0  0  0
 58132  1  0  0  0
 59 60  1  0  0  0
 59 61  1  0  0  0
 59 62  1  0  0  0
 60133  1  0  0  0
 60134  1  0  0  0
 60135  1  0  0  0
 61136  1  0  0  0
 61137  1  0  0  0
 61138  1  0  0  0
 62139  1  0  0  0
 62140  1  0  0  0
 62141  1  0  0  0
 63 65  1  0  0  0
 63142  1  0  0  0
 63143  1  0  0  0
 63144  1  0  0  0
 64145  1  0  0  0
 65146  1  0  0  0
 68 80  1  0  0  0
 71 72  2  0  0  0
 71 83  1  0  0  0
 71 84  1  0  0  0
 72 85  1  0  0  0
 72 87  1  0  0  0
 73 84  2  0  0  0
 73 86  1  0  0  0
 73 87  1  0  0  0
 74147  1  0  0  0
 74148  1  0  0  0
 74149  1  0  0  0
 74 81  1  0  0  0
 75150  1  0  0  0
 75151  1  0  0  0
 75152  1  0  0  0
 75 82  1  0  0  0
 76153  1  0  0  0
 76154  1  0  0  0
 76155  1  0  0  0
 76 83  1  0  0  0
 77 83  1  0  0  0
 77156  1  0  0  0
 77157  1  0  0  0
 77158  1  0  0  0
 78 83  1  0  0  0
 78159  1  0  0  0
 78160  1  0  0  0
 78161  1  0  0  0
 79 81  1  0  0  0
 79 82  1  0  0  0
 79162  1  0  0  0
 79163  1  0  0  0
 80 81  1  0  0  0
 80164  1  0  0  0
 80165  1  0  0  0
 81166  1  0  0  0
 82 85  1  0  0  0
 82167  1  0  0  0
 85168  1  0  0  0
 86169  1  0  0  0
M  ISO  4   1 100  68 101  80 101  86 100
M  END
> <chiral flag>
0

> <version>
0

> <s_m_source_file>
/data/baiqing/PycharmProjects/Reinvent-master-3.2/result/LINK_invent/BTK/process_docking_weight1_custom_product_contain_oxygen_bond_distance_aromatic_linkinvent_7_9_3/rearranged_h_0190.sdf

> <i_m_source_file_index>
1

> <r_mmod_Potential_Energy-OPLS-2005>
2.30171608924866

> <r_mmod_Stretch_Energy-OPLS-2005>
46.5298538208008

> <r_mmod_Bend_Energy-OPLS-2005>
141.077743530273

> <r_mmod_Torsional_Energy-OPLS-2005>
229.147033691406

> <r_mmod_Improper_Torsional_Energy-OPLS-2005>
4.92529487609863

> <r_mmod_Van_der_Waal_Energy-OPLS-2005>
139.563323974609

> <r_mmod_Electrostatic_Energy-OPLS-2005>
-364.892059326172

> <r_mmod_Solvation_Energy-OPLS-2005>
-210.44660949707

> <b_mmod_Minimization_Converged-OPLS-2005>
0

> <r_mmod_RMS_Derivative-OPLS-2005>
4.96685695648193

$$$$
1
                    3D
 Structure written by MMmdl.
158166  0  0  1  0            999 V2000
  -30.7471  -14.4405   20.6203 C   0  0  0  0  0  0
  -30.4135  -12.3161   19.4053 C   0  0  0  0  0  0
  -29.4791  -12.5202   18.1974 C   0  0  0  0  0  0
  -28.0065  -12.3589   18.6193 C   0  0  0  0  0  0
  -27.6553  -13.2003   19.8718 C   0  0  2  0  0  0
  -28.7015  -12.9883   20.9909 C   0  0  0  0  0  0
  -25.2567  -13.8141   20.5699 C   0  0  0  0  0  0
  -24.1833  -13.0422   20.9229 C   0  0  0  0  0  0
  -24.6395  -11.6894   20.8790 C   0  0  0  0  0  0
  -23.9061  -10.4284   21.0441 C   0  0  0  0  0  0
  -24.3617   -9.4194   21.9203 C   0  0  0  0  0  0
  -23.6294   -8.2232   22.0747 C   0  0  0  0  0  0
  -22.4278   -8.0283   21.3537 C   0  0  0  0  0  0
  -21.9922   -9.0265   20.4644 C   0  0  0  0  0  0
  -22.7249  -10.2146   20.3073 C   0  0  0  0  0  0
  -21.6838   -6.0756   22.5293 C   0  0  0  0  0  0
  -21.4005   -6.5647   23.8234 C   0  0  0  0  0  0
  -21.3655   -5.6790   24.9189 C   0  0  0  0  0  0
  -21.6047   -4.3056   24.7230 C   0  0  0  0  0  0
  -21.8807   -3.8159   23.4343 C   0  0  0  0  0  0
  -21.9186   -4.6984   22.3408 C   0  0  0  0  0  0
  -22.7851  -13.5221   21.1883 C   0  0  0  0  0  0
  -22.1651   -4.2181   21.0982 F   0  0  0  0  0  0
  -21.5639   -3.4526   25.7735 F   0  0  0  0  0  0
  -30.0329  -13.2929   20.4409 N   0  0  0  0  0  0
  -26.2997  -12.9298   20.3376 N   0  0  0  0  0  0
  -25.9305  -11.6466   20.5787 N   0  0  0  0  0  0
  -22.0477  -12.8223   22.0445 N   0  0  0  0  0  0
  -25.4230  -15.1864   20.4046 N   0  0  0  0  0  0
  -31.8457  -14.6284   20.0968 O   0  0  0  0  0  0
  -21.6620   -6.8896   21.4251 O   0  0  0  0  0  0
  -22.3537  -14.5522   20.6718 O   0  0  0  0  0  0
  -24.6127  -31.8688   23.2110 C   0  0  0  0  0  0
  -25.9023  -32.4831   23.8400 C   0  0  1  0  0  0
  -27.2345  -27.4454   20.1012 C   0  0  0  0  0  0
  -25.5888  -33.8633   24.2329 N   0  0  0  0  0  0
  -23.4016  -30.4908   21.5502 C   0  0  2  0  0  0
  -24.8516  -28.9595   20.1119 C   0  0  0  0  0  0
  -22.7409  -29.4644   22.4987 C   0  0  0  0  0  0
  -18.0274  -28.1375   22.8496 C   0  0  0  0  0  0
  -24.1489  -36.7321   23.2638 C   0  0  0  0  0  0
  -25.9286  -30.8373   21.3645 C   0  0  0  0  0  0
  -26.0079  -29.4712   20.7157 C   0  0  0  0  0  0
  -27.2031  -28.7181   20.7162 C   0  0  0  0  0  0
  -26.0713  -26.9506   19.4808 C   0  0  0  0  0  0
  -24.8771  -27.6970   19.4923 C   0  0  0  0  0  0
  -23.6110  -29.8232   20.1637 C   0  0  0  0  0  0
  -25.4111  -36.3121   24.0337 C   0  0  1  0  0  0
  -20.5862  -28.3652   23.1328 C   0  0  2  0  0  0
  -20.6763  -26.9387   22.5427 C   0  0  0  0  0  0
  -19.5745  -26.6375   21.5223 C   0  0  0  0  0  0
  -18.1921  -26.7923   22.1627 C   0  0  0  0  0  0
  -19.1522  -28.8831   23.2910 C   0  0  0  0  0  0
  -18.9452  -30.1439   23.8917 C   0  0  0  0  0  0
  -17.6454  -30.6584   24.0564 C   0  0  0  0  0  0
  -25.9034  -34.9485   23.5131 C   0  0  0  0  0  0
  -16.5344  -29.9087   23.6323 C   0  0  0  0  0  0
  -16.7262  -28.6501   23.0349 C   0  0  0  0  0  0
  -26.4464  -31.6606   25.0721 C   0  0  0  0  0  0
  -25.3738  -31.3707   26.1471 C   0  0  0  0  0  0
  -27.0278  -30.3049   24.6076 C   0  0  0  0  0  0
  -27.6036  -32.4328   25.7487 C   0  0  0  0  0  0
  -27.5584  -37.1816   24.8461 C   0  0  0  0  0  0
  -21.4135  -29.3022   22.3731 N   0  0  0  0  0  0
  -26.4298  -37.3802   23.9405 N   0  0  0  0  0  0
  -24.6654  -31.0795   22.1007 N   0  0  0  0  0  0
  -23.4188  -28.8184   23.3021 O   0  0  0  0  0  0
  -28.3569  -26.6517   20.1044 O   0  0  0  0  0  0
  -26.5598  -34.8931   22.4695 O   0  0  0  0  0  0
  -23.5320  -32.1427   23.7513 O   0  0  0  0  0  0
  -30.6634  -19.3899   21.0556 C   0  0  0  0  0  0
  -29.3217  -19.8448   21.2041 C   0  0  0  0  0  0
  -28.5535  -18.7159   21.2849 C   0  0  0  0  0  0
  -29.4646  -22.3194   20.9099 C   0  0  0  0  0  0
  -27.0753  -18.5410   21.4239 C   0  0  0  0  0  0
  -28.6876  -23.6418   21.1092 C   0  0  0  0  0  0
  -28.7481  -26.2316   21.4134 C   0  0  0  0  0  0
  -29.1044  -16.2160   21.0832 C   0  0  0  0  0  0
  -29.5489  -24.9014   21.4178 C   0  0  1  0  0  0
  -30.7172  -18.0605   21.0380 N   0  0  0  0  0  0
  -29.4298  -17.6421   21.1737 N   0  0  0  0  0  0
  -28.8307  -21.1852   21.2676 N   0  0  0  0  0  0
  -30.2474  -15.3721   21.4446 N   0  0  0  0  0  0
  -30.5957  -22.3257   20.4166 O   0  0  0  0  0  0
  -30.1302  -24.7858   22.7128 O   0  0  0  0  0  0
  -31.4549  -12.4117   19.0940 H   0  0  0  0  0  0
  -30.3185  -11.3015   19.7945 H   0  0  0  0  0  0
  -29.7210  -11.8097   17.4065 H   0  0  0  0  0  0
  -29.6345  -13.5141   17.7741 H   0  0  0  0  0  0
  -27.8323  -11.3026   18.8254 H   0  0  0  0  0  0
  -27.3453  -12.6211   17.7927 H   0  0  0  0  0  0
  -27.6851  -14.2387   19.5555 H   0  0  0  0  0  0
  -28.6805  -11.9515   21.3309 H   0  0  0  0  0  0
  -28.4610  -13.5842   21.8708 H   0  0  0  0  0  0
  -25.2756   -9.5659   22.4780 H   0  0  0  0  0  0
  -23.9997   -7.4603   22.7445 H   0  0  0  0  0  0
  -21.0859   -8.8809   19.8931 H   0  0  0  0  0  0
  -22.3732  -10.9704   19.6188 H   0  0  0  0  0  0
  -21.1984   -7.6151   23.9761 H   0  0  0  0  0  0
  -21.1485   -6.0509   25.9101 H   0  0  0  0  0  0
  -22.0590   -2.7621   23.2836 H   0  0  0  0  0  0
  -22.4044  -11.9860   22.4822 H   0  0  0  0  0  0
  -21.1107  -13.1285   22.2644 H   0  0  0  0  0  0
  -24.6396  -15.8251   20.4826 H   0  0  0  0  0  0
  -26.2431  -15.6150   19.9993 H   0  0  0  0  0  0
  -26.7095  -32.5556   23.1167 H   0  0  0  0  0  0
  -25.0042  -33.9798   25.0475 H   0  0  0  0  0  0
  -22.6892  -31.3066   21.4118 H   0  0  0  0  0  0
  -23.3747  -35.9658   23.3316 H   0  0  0  0  0  0
  -24.3579  -36.8920   22.2048 H   0  0  0  0  0  0
  -23.7243  -37.6533   23.6640 H   0  0  0  0  0  0
  -26.0380  -31.6028   20.5950 H   0  0  0  0  0  0
  -26.8173  -30.8937   21.9812 H   0  0  0  0  0  0
  -28.0947  -29.1082   21.1873 H   0  0  0  0  0  0
  -26.0851  -25.9796   19.0068 H   0  0  0  0  0  0
  -23.9878  -27.2981   19.0235 H   0  0  0  0  0  0
  -23.7153  -30.5990   19.4042 H   0  0  0  0  0  0
  -22.7363  -29.2403   19.8693 H   0  0  0  0  0  0
  -25.1290  -36.1993   25.0830 H   0  0  0  0  0  0
  -20.9959  -28.3221   24.1449 H   0  0  0  0  0  0
  -20.5675  -26.2258   23.3613 H   0  0  0  0  0  0
  -21.6635  -26.7434   22.1218 H   0  0  0  0  0  0
  -19.6903  -25.6288   21.1252 H   0  0  0  0  0  0
  -19.6698  -27.3189   20.6761 H   0  0  0  0  0  0
  -17.4196  -26.6678   21.4024 H   0  0  0  0  0  0
  -18.0310  -26.0061   22.9020 H   0  0  0  0  0  0
  -19.7924  -30.7250   24.2301 H   0  0  0  0  0  0
  -17.5006  -31.6272   24.5154 H   0  0  0  0  0  0
  -15.5343  -30.2998   23.7633 H   0  0  0  0  0  0
  -15.8661  -28.0829   22.7054 H   0  0  0  0  0  0
  -24.5900  -30.7069   25.7803 H   0  0  0  0  0  0
  -24.8946  -32.2865   26.4945 H   0  0  0  0  0  0
  -25.8097  -30.8852   27.0210 H   0  0  0  0  0  0
  -26.2808  -29.6840   24.1115 H   0  0  0  0  0  0
  -27.4030  -29.7257   25.4521 H   0  0  0  0  0  0
  -27.8658  -30.4364   23.9224 H   0  0  0  0  0  0
  -27.2639  -33.3603   26.2110 H   0  0  0  0  0  0
  -28.3826  -32.6935   25.0311 H   0  0  0  0  0  0
  -28.0727  -31.8432   26.5371 H   0  0  0  0  0  0
  -28.2605  -38.0111   24.7513 H   0  0  0  0  0  0
  -28.1079  -36.2644   24.6285 H   0  0  0  0  0  0
  -27.2301  -37.1466   25.8864 H   0  0  0  0  0  0
  -20.9287  -29.8744   21.6956 H   0  0  0  0  0  0
  -26.0192  -38.2881   24.1414 H   0  0  0  0  0  0
  -31.5789  -19.9566   20.9600 H   0  0  0  0  0  0
  -26.5583  -19.5003   21.4301 H   0  0  0  0  0  0
  -26.8315  -18.0261   22.3526 H   0  0  0  0  0  0
  -26.6764  -17.9544   20.5969 H   0  0  0  0  0  0
  -27.9346  -23.5109   21.8871 H   0  0  0  0  0  0
  -28.1307  -23.8161   20.1873 H   0  0  0  0  0  0
  -29.3603  -27.0291   21.8366 H   0  0  0  0  0  0
  -27.8779  -26.1287   22.0664 H   0  0  0  0  0  0
  -28.7832  -16.0345   20.0584 H   0  0  0  0  0  0
  -28.2650  -15.9973   21.7435 H   0  0  0  0  0  0
  -30.3583  -24.9802   20.6906 H   0  0  0  0  0  0
  -27.8799  -21.2977   21.5934 H   0  0  0  0  0  0
  -30.9816  -15.9799   21.7818 H   0  0  0  0  0  0
  -29.4316  -24.8420   23.3589 H   0  0  0  0  0  0
  1 25  1  0  0  0
  1 30  2  0  0  0
  1 83  1  0  0  0
  2  3  1  0  0  0
  2 25  1  0  0  0
  2 86  1  0  0  0
  2 87  1  0  0  0
  3  4  1  0  0  0
  3 88  1  0  0  0
  3 89  1  0  0  0
  4  5  1  0  0  0
  4 90  1  0  0  0
  4 91  1  0  0  0
  5  6  1  0  0  0
  5 26  1  0  0  0
  5 92  1  0  0  0
  6 25  1  0  0  0
  6 93  1  0  0  0
  6 94  1  0  0  0
  7  8  2  0  0  0
  7 26  1  0  0  0
  7 29  1  0  0  0
  8  9  1  0  0  0
  8 22  1  0  0  0
  9 10  1  0  0  0
  9 27  2  0  0  0
 10 11  2  0  0  0
 10 15  1  0  0  0
 11 12  1  0  0  0
 11 95  1  0  0  0
 12 13  2  0  0  0
 12 96  1  0  0  0
 13 14  1  0  0  0
 13 31  1  0  0  0
 14 15  2  0  0  0
 14 97  1  0  0  0
 15 98  1  0  0  0
 16 17  2  0  0  0
 16 21  1  0  0  0
 16 31  1  0  0  0
 17 18  1  0  0  0
 17 99  1  0  0  0
 18 19  2  0  0  0
 18100  1  0  0  0
 19 20  1  0  0  0
 19 24  1  0  0  0
 20 21  2  0  0  0
 20101  1  0  0  0
 21 23  1  0  0  0
 22 28  1  0  0  0
 22 32  2  0  0  0
 26 27  1  0  0  0
 28102  1  0  0  0
 28103  1  0  0  0
 29104  1  0  0  0
 29105  1  0  0  0
 33 34  1  0  0  0
 33 66  1  0  0  0
 33 70  2  0  0  0
 34 36  1  0  0  0
 34 59  1  0  0  0
 34106  1  0  0  0
 35 44  2  0  0  0
 35 45  1  0  0  0
 35 68  1  0  0  0
 36 56  1  0  0  0
 36107  1  0  0  0
 37 39  1  0  0  0
 37 47  1  0  0  0
 37 66  1  0  0  0
 37108  1  0  0  0
 38 43  2  0  0  0
 38 46  1  0  0  0
 38 47  1  0  0  0
 39 64  1  0  0  0
 39 67  2  0  0  0
 40 52  1  0  0  0
 40 53  2  0  0  0
 40 58  1  0  0  0
 41109  1  0  0  0
 41110  1  0  0  0
 41111  1  0  0  0
 41 48  1  0  0  0
 42 43  1  0  0  0
 42 66  1  0  0  0
 42112  1  0  0  0
 42113  1  0  0  0
 43 44  1  0  0  0
 44114  1  0  0  0
 45 46  2  0  0  0
 45115  1  0  0  0
 46116  1  0  0  0
 47117  1  0  0  0
 47118  1  0  0  0
 48 56  1  0  0  0
 48 65  1  0  0  0
 48119  1  0  0  0
 49 50  1  0  0  0
 49 53  1  0  0  0
 49 64  1  0  0  0
 49120  1  0  0  0
 50 51  1  0  0  0
 50121  1  0  0  0
 50122  1  0  0  0
 51 52  1  0  0  0
 51123  1  0  0  0
 51124  1  0  0  0
 52125  1  0  0  0
 52126  1  0  0  0
 53 54  1  0  0  0
 54 55  2  0  0  0
 54127  1  0  0  0
 55 57  1  0  0  0
 55128  1  0  0  0
 56 69  2  0  0  0
 57 58  2  0  0  0
 57129  1  0  0  0
 58130  1  0  0  0
 59 60  1  0  0  0
 59 61  1  0  0  0
 59 62  1  0  0  0
 60131  1  0  0  0
 60132  1  0  0  0
 60133  1  0  0  0
 61134  1  0  0  0
 61135  1  0  0  0
 61136  1  0  0  0
 62137  1  0  0  0
 62138  1  0  0  0
 62139  1  0  0  0
 63 65  1  0  0  0
 63140  1  0  0  0
 63141  1  0  0  0
 63142  1  0  0  0
 64143  1  0  0  0
 65144  1  0  0  0
 68 77  1  0  0  0
 71 72  1  0  0  0
 71 80  2  0  0  0
 71145  1  0  0  0
 72 73  2  0  0  0
 72 82  1  0  0  0
 73 75  1  0  0  0
 73 81  1  0  0  0
 74 76  1  0  0  0
 74 82  1  0  0  0
 74 84  2  0  0  0
 75146  1  0  0  0
 75147  1  0  0  0
 75148  1  0  0  0
 76 79  1  0  0  0
 76149  1  0  0  0
 76150  1  0  0  0
 77 79  1  0  0  0
 77151  1  0  0  0
 77152  1  0  0  0
 78 81  1  0  0  0
 78 83  1  0  0  0
 78153  1  0  0  0
 78154  1  0  0  0
 79 85  1  0  0  0
 79155  1  0  0  0
 80 81  1  0  0  0
 82156  1  0  0  0
 83157  1  0  0  0
 85158  1  0  0  0
M  ISO  4   1 100  68 101  77 101  83 100
M  END
> <chiral flag>
0

> <version>
0

> <s_m_source_file>
/data/baiqing/PycharmProjects/Reinvent-master-3.2/result/LINK_invent/BTK/process_docking_weight1_custom_product_contain_oxygen_bond_distance_aromatic_linkinvent_7_9_3/rearranged_h_0190.sdf

> <i_m_source_file_index>
2

> <r_mmod_Potential_Energy-OPLS-2005>
-167.693008422852

> <r_mmod_Stretch_Energy-OPLS-2005>
35.371639251709

> <r_mmod_Bend_Energy-OPLS-2005>
115.677833557129

> <r_mmod_Torsional_Energy-OPLS-2005>
275.231475830078

> <r_mmod_Improper_Torsional_Energy-OPLS-2005>
7.75496292114258

> <r_mmod_Van_der_Waal_Energy-OPLS-2005>
126.139953613281

> <r_mmod_Electrostatic_Energy-OPLS-2005>
-463.368347167969

> <r_mmod_Solvation_Energy-OPLS-2005>
-275.845733642578

> <b_mmod_Minimization_Converged-OPLS-2005>
0

> <r_mmod_RMS_Derivative-OPLS-2005>
1.52938389778137

$$$$
2
                    3D
 Structure written by MMmdl.
169177  0  0  1  0            999 V2000
  -30.6966  -14.5479   20.4602 C   0  0  0  0  0  0
  -30.4048  -12.3279   19.4514 C   0  0  0  0  0  0
  -29.5002  -12.4997   18.2161 C   0  0  0  0  0  0
  -28.0173  -12.3644   18.6148 C   0  0  0  0  0  0
  -27.6460  -13.2270   19.8538 C   0  0  2  0  0  0
  -28.6881  -13.0913   20.9848 C   0  0  0  0  0  0
  -25.2508  -13.8207   20.5651 C   0  0  0  0  0  0
  -24.1793  -13.0460   20.9172 C   0  0  0  0  0  0
  -24.6378  -11.6947   20.8717 C   0  0  0  0  0  0
  -23.9056  -10.4320   21.0374 C   0  0  0  0  0  0
  -24.3623   -9.4254   21.9147 C   0  0  0  0  0  0
  -23.6330   -8.2277   22.0733 C   0  0  0  0  0  0
  -22.4297   -8.0290   21.3531 C   0  0  0  0  0  0
  -21.9919   -9.0249   20.4626 C   0  0  0  0  0  0
  -22.7226  -10.2136   20.3028 C   0  0  0  0  0  0
  -21.6878   -6.0733   22.5270 C   0  0  0  0  0  0
  -21.4028   -6.5633   23.8201 C   0  0  0  0  0  0
  -21.3670   -5.6786   24.9167 C   0  0  0  0  0  0
  -21.6056   -4.3049   24.7214 C   0  0  0  0  0  0
  -21.8831   -3.8140   23.4338 C   0  0  0  0  0  0
  -21.9200   -4.6956   22.3390 C   0  0  0  0  0  0
  -22.7814  -13.5239   21.1841 C   0  0  0  0  0  0
  -22.1669   -4.2141   21.0971 F   0  0  0  0  0  0
  -21.5636   -3.4538   25.7726 F   0  0  0  0  0  0
  -30.0107  -13.3707   20.4143 N   0  0  0  0  0  0
  -26.2938  -12.9407   20.3261 N   0  0  0  0  0  0
  -25.9302  -11.6555   20.5725 N   0  0  0  0  0  0
  -22.0470  -12.8237   22.0407 N   0  0  0  0  0  0
  -25.4234  -15.1932   20.4093 N   0  0  0  0  0  0
  -31.9048  -14.5737   20.2259 O   0  0  0  0  0  0
  -21.6679   -6.8876   21.4227 O   0  0  0  0  0  0
  -22.3489  -14.5533   20.6678 O   0  0  0  0  0  0
  -24.6138  -31.8663   23.2112 C   0  0  0  0  0  0
  -25.9019  -32.4826   23.8377 C   0  0  1  0  0  0
  -27.2068  -27.4006   20.1059 C   0  0  0  0  0  0
  -25.5857  -33.8629   24.2293 N   0  0  0  0  0  0
  -23.3990  -30.4940   21.5545 C   0  0  2  0  0  0
  -24.8372  -28.9557   20.1148 C   0  0  0  0  0  0
  -22.7368  -29.4645   22.4986 C   0  0  0  0  0  0
  -18.0253  -28.1398   22.8460 C   0  0  0  0  0  0
  -24.1474  -36.7337   23.2634 C   0  0  0  0  0  0
  -25.9285  -30.8235   21.3593 C   0  0  0  0  0  0
  -26.0010  -29.4536   20.7129 C   0  0  0  0  0  0
  -27.1901  -28.6850   20.7037 C   0  0  0  0  0  0
  -26.0278  -26.9295   19.4879 C   0  0  0  0  0  0
  -24.8458  -27.6935   19.4982 C   0  0  0  0  0  0
  -23.6049  -29.8329   20.1656 C   0  0  0  0  0  0
  -25.4099  -36.3127   24.0327 C   0  0  1  0  0  0
  -20.5837  -28.3659   23.1317 C   0  0  2  0  0  0
  -20.6759  -26.9397   22.5411 C   0  0  0  0  0  0
  -19.5762  -26.6393   21.5194 C   0  0  0  0  0  0
  -18.1932  -26.7937   22.1597 C   0  0  0  0  0  0
  -19.1503  -28.8841   23.2895 C   0  0  0  0  0  0
  -18.9444  -30.1449   23.8909 C   0  0  0  0  0  0
  -17.6457  -30.6604   24.0562 C   0  0  0  0  0  0
  -25.9015  -34.9490   23.5117 C   0  0  0  0  0  0
  -16.5339  -29.9117   23.6328 C   0  0  0  0  0  0
  -16.7244  -28.6542   23.0313 C   0  0  0  0  0  0
  -26.4444  -31.6609   25.0707 C   0  0  0  0  0  0
  -25.3719  -31.3716   26.1464 C   0  0  0  0  0  0
  -27.0228  -30.3049   24.6045 C   0  0  0  0  0  0
  -27.6005  -32.4316   25.7504 C   0  0  0  0  0  0
  -27.5572  -37.1828   24.8455 C   0  0  0  0  0  0
  -21.4089  -29.3038   22.3723 N   0  0  0  0  0  0
  -26.4281  -37.3815   23.9409 N   0  0  0  0  0  0
  -24.6680  -31.0733   22.1032 N   0  0  0  0  0  0
  -23.4132  -28.8148   23.3004 O   0  0  0  0  0  0
  -28.3678  -26.6493   20.0995 O   0  0  0  0  0  0
  -26.5600  -34.8951   22.4688 O   0  0  0  0  0  0
  -23.5331  -32.1411   23.7523 O   0  0  0  0  0  0
  -31.7906  -18.3586   18.6461 C   0  0  0  0  0  0
  -31.2970  -17.1162   19.0367 C   0  0  0  0  0  0
  -31.2492  -19.5220   19.2059 C   0  0  0  0  0  0
  -30.3209  -17.0165   20.0513 C   0  0  0  0  0  0
  -30.1269  -19.4064   20.0666 C   0  0  0  0  0  0
  -31.9552  -20.8199   18.8719 C   0  0  0  0  0  0
  -27.3210  -23.2952   17.1817 C   0  0  0  0  0  0
  -28.6640  -21.6803   15.8042 C   0  0  0  0  0  0
  -29.3976  -24.4724   19.6859 C   0  0  0  0  0  0
  -28.5747  -21.3378   18.3056 C   0  0  0  0  0  0
  -28.2741  -25.2378   20.4215 C   0  0  0  0  0  0
  -28.5617  -22.3832   17.1693 C   0  0  0  0  0  0
  -28.9287  -21.7227   19.7862 C   0  0  2  0  0  0
  -29.7815  -23.0154   20.1274 C   0  0  2  0  0  0
  -29.7216  -18.1711   20.4997 N   0  0  0  0  0  0
  -29.9604  -15.6971   20.5419 N   0  0  0  0  0  0
  -29.3810  -20.5174   20.5522 N   0  0  0  0  0  0
  -29.9501  -23.0541   21.4512 F   0  0  0  0  0  0
  -31.4558  -12.3906   19.1623 H   0  0  0  0  0  0
  -30.2715  -11.3380   19.8901 H   0  0  0  0  0  0
  -29.7555  -11.7585   17.4583 H   0  0  0  0  0  0
  -29.6752  -13.4766   17.7628 H   0  0  0  0  0  0
  -27.8278  -11.3116   18.8264 H   0  0  0  0  0  0
  -27.3783  -12.6259   17.7694 H   0  0  0  0  0  0
  -27.6622  -14.2632   19.5193 H   0  0  0  0  0  0
  -28.6706  -12.0840   21.4038 H   0  0  0  0  0  0
  -28.4621  -13.7708   21.8085 H   0  0  0  0  0  0
  -25.2767   -9.5760   22.4719 H   0  0  0  0  0  0
  -24.0042   -7.4687   22.7465 H   0  0  0  0  0  0
  -21.0836   -8.8756   19.8953 H   0  0  0  0  0  0
  -22.3657  -10.9665   19.6146 H   0  0  0  0  0  0
  -21.2020   -7.6143   23.9696 H   0  0  0  0  0  0
  -21.1480   -6.0514   25.9060 H   0  0  0  0  0  0
  -22.0592   -2.7603   23.2841 H   0  0  0  0  0  0
  -22.4110  -11.9942   22.4849 H   0  0  0  0  0  0
  -21.1066  -13.1215   22.2545 H   0  0  0  0  0  0
  -24.6576  -15.8501   20.5143 H   0  0  0  0  0  0
  -26.2733  -15.6311   20.0768 H   0  0  0  0  0  0
  -26.7060  -32.5524   23.1106 H   0  0  0  0  0  0
  -24.9939  -33.9784   25.0392 H   0  0  0  0  0  0
  -22.6912  -31.3159   21.4233 H   0  0  0  0  0  0
  -23.3738  -35.9666   23.3304 H   0  0  0  0  0  0
  -24.3551  -36.8959   22.2046 H   0  0  0  0  0  0
  -23.7236  -37.6548   23.6643 H   0  0  0  0  0  0
  -26.0204  -31.5796   20.5790 H   0  0  0  0  0  0
  -26.8272  -30.8916   21.9609 H   0  0  0  0  0  0
  -28.0878  -29.0609   21.1716 H   0  0  0  0  0  0
  -26.0098  -25.9765   18.9802 H   0  0  0  0  0  0
  -23.9507  -27.3122   19.0253 H   0  0  0  0  0  0
  -23.7206  -30.6180   19.4173 H   0  0  0  0  0  0
  -22.7223  -29.2667   19.8610 H   0  0  0  0  0  0
  -25.1287  -36.1980   25.0821 H   0  0  0  0  0  0
  -20.9935  -28.3239   24.1437 H   0  0  0  0  0  0
  -20.5655  -26.2261   23.3585 H   0  0  0  0  0  0
  -21.6639  -26.7453   22.1216 H   0  0  0  0  0  0
  -19.6938  -25.6307   21.1229 H   0  0  0  0  0  0
  -19.6757  -27.3200   20.6731 H   0  0  0  0  0  0
  -17.4195  -26.6627   21.4019 H   0  0  0  0  0  0
  -18.0375  -26.0100   22.9024 H   0  0  0  0  0  0
  -19.7927  -30.7250   24.2289 H   0  0  0  0  0  0
  -17.5029  -31.6296   24.5147 H   0  0  0  0  0  0
  -15.5350  -30.3042   23.7683 H   0  0  0  0  0  0
  -15.8621  -28.0914   22.6995 H   0  0  0  0  0  0
  -24.5901  -30.7034   25.7838 H   0  0  0  0  0  0
  -24.8894  -32.2869   26.4904 H   0  0  0  0  0  0
  -25.8097  -30.8921   27.0224 H   0  0  0  0  0  0
  -26.2742  -29.6893   24.1038 H   0  0  0  0  0  0
  -27.3933  -29.7208   25.4479 H   0  0  0  0  0  0
  -27.8612  -30.4390   23.9204 H   0  0  0  0  0  0
  -27.2592  -33.3593   26.2115 H   0  0  0  0  0  0
  -28.3824  -32.6907   25.0354 H   0  0  0  0  0  0
  -28.0631  -31.8398   26.5414 H   0  0  0  0  0  0
  -28.2591  -38.0123   24.7489 H   0  0  0  0  0  0
  -28.1056  -36.2652   24.6283 H   0  0  0  0  0  0
  -27.2266  -37.1490   25.8849 H   0  0  0  0  0  0
  -20.9205  -29.8804   21.7012 H   0  0  0  0  0  0
  -26.0166  -38.2876   24.1473 H   0  0  0  0  0  0
  -32.6093  -18.4066   17.9433 H   0  0  0  0  0  0
  -31.7398  -16.2479   18.5700 H   0  0  0  0  0  0
  -32.2437  -21.3243   19.7944 H   0  0  0  0  0  0
  -31.3433  -21.4675   18.2501 H   0  0  0  0  0  0
  -32.8775  -20.6379   18.3172 H   0  0  0  0  0  0
  -27.4555  -24.1389   16.5004 H   0  0  0  0  0  0
  -27.1041  -23.6959   18.1697 H   0  0  0  0  0  0
  -26.4308  -22.7566   16.8559 H   0  0  0  0  0  0
  -28.7507  -22.4012   14.9905 H   0  0  0  0  0  0
  -27.7889  -21.0592   15.6084 H   0  0  0  0  0  0
  -29.5425  -21.0345   15.7552 H   0  0  0  0  0  0
  -30.2947  -25.0704   19.8478 H   0  0  0  0  0  0
  -29.2322  -24.5497   18.6177 H   0  0  0  0  0  0
  -29.2545  -20.5647   17.9637 H   0  0  0  0  0  0
  -27.6034  -20.8410   18.3181 H   0  0  0  0  0  0
  -28.4008  -25.1348   21.5002 H   0  0  0  0  0  0
  -27.3105  -24.7854   20.1948 H   0  0  0  0  0  0
  -29.4690  -22.9771   17.2483 H   0  0  0  0  0  0
  -27.9587  -21.9506   20.2312 H   0  0  0  0  0  0
  -30.7856  -22.8932   19.7484 H   0  0  0  0  0  0
  -29.0244  -15.6014   20.8984 H   0  0  0  0  0  0
  -28.7620  -20.2892   21.3193 H   0  0  0  0  0  0
  1 25  1  0  0  0
  1 30  2  0  0  0
  1 86  1  0  0  0
  2  3  1  0  0  0
  2 25  1  0  0  0
  2 89  1  0  0  0
  2 90  1  0  0  0
  3  4  1  0  0  0
  3 91  1  0  0  0
  3 92  1  0  0  0
  4  5  1  0  0  0
  4 93  1  0  0  0
  4 94  1  0  0  0
  5  6  1  0  0  0
  5 26  1  0  0  0
  5 95  1  0  0  0
  6 25  1  0  0  0
  6 96  1  0  0  0
  6 97  1  0  0  0
  7  8  2  0  0  0
  7 26  1  0  0  0
  7 29  1  0  0  0
  8  9  1  0  0  0
  8 22  1  0  0  0
  9 10  1  0  0  0
  9 27  2  0  0  0
 10 11  2  0  0  0
 10 15  1  0  0  0
 11 12  1  0  0  0
 11 98  1  0  0  0
 12 13  2  0  0  0
 12 99  1  0  0  0
 13 14  1  0  0  0
 13 31  1  0  0  0
 14 15  2  0  0  0
 14100  1  0  0  0
 15101  1  0  0  0
 16 17  2  0  0  0
 16 21  1  0  0  0
 16 31  1  0  0  0
 17 18  1  0  0  0
 17102  1  0  0  0
 18 19  2  0  0  0
 18103  1  0  0  0
 19 20  1  0  0  0
 19 24  1  0  0  0
 20 21  2  0  0  0
 20104  1  0  0  0
 21 23  1  0  0  0
 22 28  1  0  0  0
 22 32  2  0  0  0
 26 27  1  0  0  0
 28105  1  0  0  0
 28106  1  0  0  0
 29107  1  0  0  0
 29108  1  0  0  0
 33 34  1  0  0  0
 33 66  1  0  0  0
 33 70  2  0  0  0
 34 36  1  0  0  0
 34 59  1  0  0  0
 34109  1  0  0  0
 35 44  2  0  0  0
 35 45  1  0  0  0
 35 68  1  0  0  0
 36 56  1  0  0  0
 36110  1  0  0  0
 37 39  1  0  0  0
 37 47  1  0  0  0
 37 66  1  0  0  0
 37111  1  0  0  0
 38 43  2  0  0  0
 38 46  1  0  0  0
 38 47  1  0  0  0
 39 64  1  0  0  0
 39 67  2  0  0  0
 40 52  1  0  0  0
 40 53  2  0  0  0
 40 58  1  0  0  0
 41112  1  0  0  0
 41113  1  0  0  0
 41114  1  0  0  0
 41 48  1  0  0  0
 42 43  1  0  0  0
 42 66  1  0  0  0
 42115  1  0  0  0
 42116  1  0  0  0
 43 44  1  0  0  0
 44117  1  0  0  0
 45 46  2  0  0  0
 45118  1  0  0  0
 46119  1  0  0  0
 47120  1  0  0  0
 47121  1  0  0  0
 48 56  1  0  0  0
 48 65  1  0  0  0
 48122  1  0  0  0
 49 50  1  0  0  0
 49 53  1  0  0  0
 49 64  1  0  0  0
 49123  1  0  0  0
 50 51  1  0  0  0
 50124  1  0  0  0
 50125  1  0  0  0
 51 52  1  0  0  0
 51126  1  0  0  0
 51127  1  0  0  0
 52128  1  0  0  0
 52129  1  0  0  0
 53 54  1  0  0  0
 54 55  2  0  0  0
 54130  1  0  0  0
 55 57  1  0  0  0
 55131  1  0  0  0
 56 69  2  0  0  0
 57 58  2  0  0  0
 57132  1  0  0  0
 58133  1  0  0  0
 59 60  1  0  0  0
 59 61  1  0  0  0
 59 62  1  0  0  0
 60134  1  0  0  0
 60135  1  0  0  0
 60136  1  0  0  0
 61137  1  0  0  0
 61138  1  0  0  0
 61139  1  0  0  0
 62140  1  0  0  0
 62141  1  0  0  0
 62142  1  0  0  0
 63 65  1  0  0  0
 63143  1  0  0  0
 63144  1  0  0  0
 63145  1  0  0  0
 64146  1  0  0  0
 65147  1  0  0  0
 68 81  1  0  0  0
 71 72  2  0  0  0
 71 73  1  0  0  0
 71148  1  0  0  0
 72 74  1  0  0  0
 72149  1  0  0  0
 73 75  2  0  0  0
 73 76  1  0  0  0
 74 85  2  0  0  0
 74 86  1  0  0  0
 75 85  1  0  0  0
 75 87  1  0  0  0
 76150  1  0  0  0
 76151  1  0  0  0
 76152  1  0  0  0
 77153  1  0  0  0
 77154  1  0  0  0
 77155  1  0  0  0
 77 82  1  0  0  0
 78 82  1  0  0  0
 78156  1  0  0  0
 78157  1  0  0  0
 78158  1  0  0  0
 79 81  1  0  0  0
 79 84  1  0  0  0
 79159  1  0  0  0
 79160  1  0  0  0
 80 82  1  0  0  0
 80161  1  0  0  0
 80162  1  0  0  0
 80 83  1  0  0  0
 81163  1  0  0  0
 81164  1  0  0  0
 82165  1  0  0  0
 83 84  1  0  0  0
 83 87  1  0  0  0
 83166  1  0  0  0
 84 88  1  0  0  0
 84167  1  0  0  0
 86168  1  0  0  0
 87169  1  0  0  0
M  ISO  4   1 100  68 101  81 101  86 100
M  END
> <chiral flag>
0

> <version>
0

> <s_m_source_file>
/data/baiqing/PycharmProjects/Reinvent-master-3.2/result/LINK_invent/BTK/process_docking_weight1_custom_product_contain_oxygen_bond_distance_aromatic_linkinvent_7_9_3/rearranged_h_0190.sdf

> <i_m_source_file_index>
3

> <r_mmod_Potential_Energy-OPLS-2005>
-107.409080505371

> <r_mmod_Stretch_Energy-OPLS-2005>
58.4206848144531

> <r_mmod_Bend_Energy-OPLS-2005>
172.303482055664

> <r_mmod_Torsional_Energy-OPLS-2005>
275.977478027344

> <r_mmod_Improper_Torsional_Energy-OPLS-2005>
7.56214094161987

> <r_mmod_Van_der_Waal_Energy-OPLS-2005>
170.409164428711

> <r_mmod_Electrostatic_Energy-OPLS-2005>
-605.836242675781

> <r_mmod_Solvation_Energy-OPLS-2005>
-216.877807617188

> <b_mmod_Minimization_Converged-OPLS-2005>
0

> <r_mmod_RMS_Derivative-OPLS-2005>
3.30848360061646

$$$$
3
                    3D
 Structure written by MMmdl.
174182  0  0  1  0            999 V2000
  -30.5926  -14.8114   20.4659 C   0  0  0  0  0  0
  -30.4522  -12.4999   19.4604 C   0  0  0  0  0  0
  -29.5157  -12.4818   18.2328 C   0  0  0  0  0  0
  -28.0414  -12.3154   18.6524 C   0  0  0  0  0  0
  -27.6364  -13.2282   19.8376 C   0  0  2  0  0  0
  -28.6957  -13.1973   20.9554 C   0  0  0  0  0  0
  -25.2499  -13.8173   20.5749 C   0  0  0  0  0  0
  -24.1779  -13.0446   20.9219 C   0  0  0  0  0  0
  -24.6364  -11.6919   20.8767 C   0  0  0  0  0  0
  -23.8999  -10.4334   21.0389 C   0  0  0  0  0  0
  -24.3566   -9.4238   21.9149 C   0  0  0  0  0  0
  -23.6269   -8.2259   22.0733 C   0  0  0  0  0  0
  -22.4267   -8.0245   21.3514 C   0  0  0  0  0  0
  -21.9870   -9.0216   20.4626 C   0  0  0  0  0  0
  -22.7176  -10.2124   20.3043 C   0  0  0  0  0  0
  -21.6835   -6.0667   22.5259 C   0  0  0  0  0  0
  -21.3999   -6.5573   23.8185 C   0  0  0  0  0  0
  -21.3653   -5.6728   24.9145 C   0  0  0  0  0  0
  -21.6094   -4.3003   24.7182 C   0  0  0  0  0  0
  -21.8813   -3.8073   23.4304 C   0  0  0  0  0  0
  -21.9201   -4.6898   22.3363 C   0  0  0  0  0  0
  -22.7808  -13.5205   21.1830 C   0  0  0  0  0  0
  -22.1666   -4.2089   21.0942 F   0  0  0  0  0  0
  -21.5666   -3.4510   25.7697 F   0  0  0  0  0  0
  -29.9684  -13.5838   20.3443 N   0  0  0  0  0  0
  -26.2919  -12.9358   20.3283 N   0  0  0  0  0  0
  -25.9309  -11.6512   20.5814 N   0  0  0  0  0  0
  -22.0407  -12.8271   22.0382 N   0  0  0  0  0  0
  -25.4264  -15.1933   20.4204 N   0  0  0  0  0  0
  -31.8196  -14.8685   20.3107 O   0  0  0  0  0  0
  -21.6652   -6.8816   21.4216 O   0  0  0  0  0  0
  -22.3520  -14.5492   20.6629 O   0  0  0  0  0  0
  -24.6359  -31.8531   23.1994 C   0  0  0  0  0  0
  -25.9186  -32.4746   23.8321 C   0  0  1  0  0  0
  -27.2226  -27.2389   20.0970 C   0  0  0  0  0  0
  -25.5992  -33.8542   24.2267 N   0  0  0  0  0  0
  -23.4292  -30.4824   21.5434 C   0  0  2  0  0  0
  -24.8736  -28.9301   20.1103 C   0  0  0  0  0  0
  -22.7521  -29.4626   22.4901 C   0  0  0  0  0  0
  -18.0281  -28.1389   22.8437 C   0  0  0  0  0  0
  -24.1446  -36.7226   23.2622 C   0  0  0  0  0  0
  -25.9809  -30.7632   21.3753 C   0  0  0  0  0  0
  -26.0547  -29.3820   20.7120 C   0  0  0  0  0  0
  -27.2309  -28.5530   20.6916 C   0  0  0  0  0  0
  -25.9983  -26.8697   19.4812 C   0  0  0  0  0  0
  -24.8516  -27.6750   19.4868 C   0  0  0  0  0  0
  -23.6470  -29.8199   20.1578 C   0  0  0  0  0  0
  -25.4076  -36.3015   24.0314 C   0  0  1  0  0  0
  -20.5916  -28.3704   23.1210 C   0  0  2  0  0  0
  -20.6772  -26.9481   22.5216 C   0  0  0  0  0  0
  -19.5763  -26.6642   21.4960 C   0  0  0  0  0  0
  -18.1963  -26.8026   22.1435 C   0  0  0  0  0  0
  -19.1549  -28.8841   23.2843 C   0  0  0  0  0  0
  -18.9459  -30.1428   23.8919 C   0  0  0  0  0  0
  -17.6445  -30.6561   24.0614 C   0  0  0  0  0  0
  -25.9028  -34.9409   23.5064 C   0  0  0  0  0  0
  -16.5357  -29.9065   23.6349 C   0  0  0  0  0  0
  -16.7272  -28.6525   23.0273 C   0  0  0  0  0  0
  -26.4571  -31.6516   25.0682 C   0  0  0  0  0  0
  -25.3792  -31.3619   26.1370 C   0  0  0  0  0  0
  -27.0445  -30.2928   24.6186 C   0  0  0  0  0  0
  -27.6155  -32.4229   25.7440 C   0  0  0  0  0  0
  -27.5519  -37.1769   24.8483 C   0  0  0  0  0  0
  -21.4241  -29.3059   22.3635 N   0  0  0  0  0  0
  -26.4224  -37.3760   23.9430 N   0  0  0  0  0  0
  -24.7021  -31.0514   22.0949 N   0  0  0  0  0  0
  -23.4244  -28.8184   23.2986 O   0  0  0  0  0  0
  -28.3144  -26.3116   20.1311 O   0  0  0  0  0  0
  -26.5570  -34.8907   22.4636 O   0  0  0  0  0  0
  -23.5521  -32.1360   23.7310 O   0  0  0  0  0  0
  -29.3678  -19.7214   22.1102 C   0  0  0  0  0  0
  -29.3737  -18.5248   22.8315 C   0  0  0  0  0  0
  -29.5704  -19.6648   20.7381 C   0  0  0  0  0  0
  -29.8493  -17.2809   20.9292 C   0  0  0  0  0  0
  -27.5694  -18.0836   24.5747 C   0  0  0  0  0  0
  -25.9755  -19.5561   18.0388 C   0  0  0  0  0  0
  -25.2899  -22.5662   20.5552 C   0  0  0  0  0  0
  -28.2445  -24.9058   18.1470 C   0  0  0  0  0  0
  -29.0093  -18.5565   24.3057 C   0  0  0  0  0  0
  -26.7943  -20.0946   19.2203 C   0  0  0  0  0  0
  -25.9581  -22.4559   19.1725 C   0  0  0  0  0  0
  -28.9585  -23.5417   20.1740 C   0  0  0  0  0  0
  -27.2455  -21.5873   19.1126 C   0  0  0  0  0  0
  -28.4185  -21.9649   20.1237 C   0  0  1  0  0  0
  -28.1139  -24.8662   19.6902 C   0  0  1  0  0  0
  -29.6138  -17.3279   22.2457 N   0  0  0  0  0  0
  -29.8065  -18.4246   20.1588 N   0  0  0  0  0  0
  -29.4954  -20.8935   19.9778 N   0  0  0  0  0  0
  -29.7955  -15.9601   20.3737 N   0  0  0  0  0  0
  -31.4807  -12.6660   19.1418 H   0  0  0  0  0  0
  -30.4412  -11.5444   19.9861 H   0  0  0  0  0  0
  -29.7955  -11.6730   17.5580 H   0  0  0  0  0  0
  -29.6355  -13.4056   17.6677 H   0  0  0  0  0  0
  -27.9123  -11.2726   18.9334 H   0  0  0  0  0  0
  -27.3751  -12.4835   17.8062 H   0  0  0  0  0  0
  -27.6107  -14.2424   19.4368 H   0  0  0  0  0  0
  -28.7808  -12.2008   21.3848 H   0  0  0  0  0  0
  -28.4346  -13.8745   21.7711 H   0  0  0  0  0  0
  -25.2691   -9.5696   22.4726 H   0  0  0  0  0  0
  -23.9956   -7.4651   22.7483 H   0  0  0  0  0  0
  -21.0760   -8.8692   19.8956 H   0  0  0  0  0  0
  -22.3584  -10.9637   19.6151 H   0  0  0  0  0  0
  -21.1984   -7.6087   23.9690 H   0  0  0  0  0  0
  -21.1520   -6.0430   25.9069 H   0  0  0  0  0  0
  -22.0642   -2.7544   23.2795 H   0  0  0  0  0  0
  -22.3994  -11.9990   22.4889 H   0  0  0  0  0  0
  -21.1083  -13.1451   22.2564 H   0  0  0  0  0  0
  -24.6752  -15.8626   20.5436 H   0  0  0  0  0  0
  -26.2907  -15.6280   20.1358 H   0  0  0  0  0  0
  -26.7280  -32.5419   23.1087 H   0  0  0  0  0  0
  -25.0291  -33.9666   25.0512 H   0  0  0  0  0  0
  -22.7286  -31.3082   21.4027 H   0  0  0  0  0  0
  -23.3701  -35.9569   23.3288 H   0  0  0  0  0  0
  -24.3541  -36.8842   22.2035 H   0  0  0  0  0  0
  -23.7197  -37.6435   23.6646 H   0  0  0  0  0  0
  -26.1133  -31.5226   20.6025 H   0  0  0  0  0  0
  -26.8612  -30.8163   22.0085 H   0  0  0  0  0  0
  -28.1348  -28.9101   21.1690 H   0  0  0  0  0  0
  -25.8706  -25.9175   18.9989 H   0  0  0  0  0  0
  -23.9405  -27.3200   19.0195 H   0  0  0  0  0  0
  -23.7885  -30.6022   19.4088 H   0  0  0  0  0  0
  -22.7596  -29.2621   19.8428 H   0  0  0  0  0  0
  -25.1259  -36.1829   25.0808 H   0  0  0  0  0  0
  -21.0087  -28.3160   24.1313 H   0  0  0  0  0  0
  -20.5679  -26.2257   23.3310 H   0  0  0  0  0  0
  -21.6614  -26.7592   22.0919 H   0  0  0  0  0  0
  -19.6931  -25.6664   21.0720 H   0  0  0  0  0  0
  -19.6636  -27.3733   20.6701 H   0  0  0  0  0  0
  -17.4261  -26.6930   21.3793 H   0  0  0  0  0  0
  -18.0322  -26.0055   22.8677 H   0  0  0  0  0  0
  -19.7937  -30.7268   24.2174 H   0  0  0  0  0  0
  -17.5015  -31.6168   24.5355 H   0  0  0  0  0  0
  -15.5342  -30.2930   23.7751 H   0  0  0  0  0  0
  -15.8641  -28.0840   22.7017 H   0  0  0  0  0  0
  -24.6032  -30.6928   25.7624 H   0  0  0  0  0  0
  -24.8919  -32.2766   26.4736 H   0  0  0  0  0  0
  -25.8079  -30.8801   27.0159 H   0  0  0  0  0  0
  -26.3028  -29.6614   24.1283 H   0  0  0  0  0  0
  -27.4196  -29.7247   25.4711 H   0  0  0  0  0  0
  -27.8870  -30.4171   23.9381 H   0  0  0  0  0  0
  -27.2807  -33.3560   26.1962 H   0  0  0  0  0  0
  -28.3957  -32.6710   25.0231 H   0  0  0  0  0  0
  -28.0807  -31.8360   26.5362 H   0  0  0  0  0  0
  -28.2575  -38.0011   24.7513 H   0  0  0  0  0  0
  -28.0966  -36.2591   24.6330 H   0  0  0  0  0  0
  -27.2265  -37.1410   25.8882 H   0  0  0  0  0  0
  -20.9401  -29.8774   21.6856 H   0  0  0  0  0  0
  -26.0059  -38.2801   24.1543 H   0  0  0  0  0  0
  -29.1777  -20.6632   22.6136 H   0  0  0  0  0  0
  -26.8632  -18.5330   23.8766 H   0  0  0  0  0  0
  -27.2535  -18.3692   25.5805 H   0  0  0  0  0  0
  -27.4860  -17.0023   24.4935 H   0  0  0  0  0  0
  -25.9815  -18.4655   18.0421 H   0  0  0  0  0  0
  -26.4065  -19.8751   17.0881 H   0  0  0  0  0  0
  -24.9276  -19.8512   18.0670 H   0  0  0  0  0  0
  -24.7714  -21.6381   20.8000 H   0  0  0  0  0  0
  -24.5544  -23.3699   20.5750 H   0  0  0  0  0  0
  -26.0016  -22.7791   21.3534 H   0  0  0  0  0  0
  -28.1638  -23.9180   17.6995 H   0  0  0  0  0  0
  -29.2296  -25.2768   17.8683 H   0  0  0  0  0  0
  -27.5123  -25.5430   17.6536 H   0  0  0  0  0  0
  -29.7172  -17.9832   24.9058 H   0  0  0  0  0  0
  -29.0992  -19.5858   24.6594 H   0  0  0  0  0  0
  -27.6371  -19.4239   19.2144 H   0  0  0  0  0  0
  -26.2673  -19.9112   20.1542 H   0  0  0  0  0  0
  -26.1267  -23.4338   18.7371 H   0  0  0  0  0  0
  -25.2170  -22.0645   18.4748 H   0  0  0  0  0  0
  -29.9123  -23.5757   19.6456 H   0  0  0  0  0  0
  -29.2472  -23.7229   21.2117 H   0  0  0  0  0  0
  -27.6490  -21.7151   18.1050 H   0  0  0  0  0  0
  -27.9919  -21.8022   21.1107 H   0  0  0  0  0  0
  -27.1242  -24.6281   20.0597 H   0  0  0  0  0  0
  -29.6630  -20.6906   18.9972 H   0  0  0  0  0  0
  -28.8655  -15.7466   20.0515 H   0  0  0  0  0  0
  1 25  1  0  0  0
  1 30  2  0  0  0
  1 89  1  0  0  0
  2  3  1  0  0  0
  2 25  1  0  0  0
  2 90  1  0  0  0
  2 91  1  0  0  0
  3  4  1  0  0  0
  3 92  1  0  0  0
  3 93  1  0  0  0
  4  5  1  0  0  0
  4 94  1  0  0  0
  4 95  1  0  0  0
  5  6  1  0  0  0
  5 26  1  0  0  0
  5 96  1  0  0  0
  6 25  1  0  0  0
  6 97  1  0  0  0
  6 98  1  0  0  0
  7  8  2  0  0  0
  7 26  1  0  0  0
  7 29  1  0  0  0
  8  9  1  0  0  0
  8 22  1  0  0  0
  9 10  1  0  0  0
  9 27  2  0  0  0
 10 11  2  0  0  0
 10 15  1  0  0  0
 11 12  1  0  0  0
 11 99  1  0  0  0
 12 13  2  0  0  0
 12100  1  0  0  0
 13 14  1  0  0  0
 13 31  1  0  0  0
 14 15  2  0  0  0
 14101  1  0  0  0
 15102  1  0  0  0
 16 17  2  0  0  0
 16 21  1  0  0  0
 16 31  1  0  0  0
 17 18  1  0  0  0
 17103  1  0  0  0
 18 19  2  0  0  0
 18104  1  0  0  0
 19 20  1  0  0  0
 19 24  1  0  0  0
 20 21  2  0  0  0
 20105  1  0  0  0
 21 23  1  0  0  0
 22 28  1  0  0  0
 22 32  2  0  0  0
 26 27  1  0  0  0
 28106  1  0  0  0
 28107  1  0  0  0
 29108  1  0  0  0
 29109  1  0  0  0
 33 34  1  0  0  0
 33 66  1  0  0  0
 33 70  2  0  0  0
 34 36  1  0  0  0
 34 59  1  0  0  0
 34110  1  0  0  0
 35 44  2  0  0  0
 35 45  1  0  0  0
 35 68  1  0  0  0
 36 56  1  0  0  0
 36111  1  0  0  0
 37 39  1  0  0  0
 37 47  1  0  0  0
 37 66  1  0  0  0
 37112  1  0  0  0
 38 43  2  0  0  0
 38 46  1  0  0  0
 38 47  1  0  0  0
 39 64  1  0  0  0
 39 67  2  0  0  0
 40 52  1  0  0  0
 40 53  2  0  0  0
 40 58  1  0  0  0
 41113  1  0  0  0
 41114  1  0  0  0
 41115  1  0  0  0
 41 48  1  0  0  0
 42 43  1  0  0  0
 42 66  1  0  0  0
 42116  1  0  0  0
 42117  1  0  0  0
 43 44  1  0  0  0
 44118  1  0  0  0
 45 46  2  0  0  0
 45119  1  0  0  0
 46120  1  0  0  0
 47121  1  0  0  0
 47122  1  0  0  0
 48 56  1  0  0  0
 48 65  1  0  0  0
 48123  1  0  0  0
 49 50  1  0  0  0
 49 53  1  0  0  0
 49 64  1  0  0  0
 49124  1  0  0  0
 50 51  1  0  0  0
 50125  1  0  0  0
 50126  1  0  0  0
 51 52  1  0  0  0
 51127  1  0  0  0
 51128  1  0  0  0
 52129  1  0  0  0
 52130  1  0  0  0
 53 54  1  0  0  0
 54 55  2  0  0  0
 54131  1  0  0  0
 55 57  1  0  0  0
 55132  1  0  0  0
 56 69  2  0  0  0
 57 58  2  0  0  0
 57133  1  0  0  0
 58134  1  0  0  0
 59 60  1  0  0  0
 59 61  1  0  0  0
 59 62  1  0  0  0
 60135  1  0  0  0
 60136  1  0  0  0
 60137  1  0  0  0
 61138  1  0  0  0
 61139  1  0  0  0
 61140  1  0  0  0
 62141  1  0  0  0
 62142  1  0  0  0
 62143  1  0  0  0
 63 65  1  0  0  0
 63144  1  0  0  0
 63145  1  0  0  0
 63146  1  0  0  0
 64147  1  0  0  0
 65148  1  0  0  0
 68 85  1  0  0  0
 71 72  2  0  0  0
 71 73  1  0  0  0
 71149  1  0  0  0
 72 79  1  0  0  0
 72 86  1  0  0  0
 73 87  2  0  0  0
 73 88  1  0  0  0
 74 86  2  0  0  0
 74 87  1  0  0  0
 74 89  1  0  0  0
 75 79  1  0  0  0
 75150  1  0  0  0
 75151  1  0  0  0
 75152  1  0  0  0
 76 80  1  0  0  0
 76153  1  0  0  0
 76154  1  0  0  0
 76155  1  0  0  0
 77 81  1  0  0  0
 77156  1  0  0  0
 77157  1  0  0  0
 77158  1  0  0  0
 78159  1  0  0  0
 78160  1  0  0  0
 78161  1  0  0  0
 78 85  1  0  0  0
 79162  1  0  0  0
 79163  1  0  0  0
 80164  1  0  0  0
 80165  1  0  0  0
 80 83  1  0  0  0
 81 83  1  0  0  0
 81166  1  0  0  0
 81167  1  0  0  0
 82 85  1  0  0  0
 82168  1  0  0  0
 82169  1  0  0  0
 82 84  1  0  0  0
 83 84  1  0  0  0
 83170  1  0  0  0
 84 88  1  0  0  0
 84171  1  0  0  0
 85172  1  0  0  0
 88173  1  0  0  0
 89174  1  0  0  0
M  ISO  4   1 100  68 101  85 101  89 100
M  END
> <chiral flag>
0

> <version>
0

> <s_m_source_file>
/data/baiqing/PycharmProjects/Reinvent-master-3.2/result/LINK_invent/BTK/process_docking_weight1_custom_product_contain_oxygen_bond_distance_aromatic_linkinvent_7_9_3/rearranged_h_0190.sdf

> <i_m_source_file_index>
4

> <r_mmod_Potential_Energy-OPLS-2005>
-142.788650512695

> <r_mmod_Stretch_Energy-OPLS-2005>
158.670837402344

> <r_mmod_Bend_Energy-OPLS-2005>
234.831802368164

> <r_mmod_Torsional_Energy-OPLS-2005>
281.671569824219

> <r_mmod_Improper_Torsional_Energy-OPLS-2005>
17.8719959259033

> <r_mmod_Van_der_Waal_Energy-OPLS-2005>
158.585784912109

> <r_mmod_Electrostatic_Energy-OPLS-2005>
-888.1083984375

> <r_mmod_Solvation_Energy-OPLS-2005>
-221.107879638672

> <b_mmod_Minimization_Converged-OPLS-2005>
0

> <r_mmod_RMS_Derivative-OPLS-2005>
10.8235464096069

$$$$
4
                    3D
 Structure written by MMmdl.
169177  0  0  1  0            999 V2000
  -30.7045  -14.4454   20.6336 C   0  0  0  0  0  0
  -30.4397  -12.3055   19.4221 C   0  0  0  0  0  0
  -29.5079  -12.5192   18.2108 C   0  0  0  0  0  0
  -28.0262  -12.3769   18.6141 C   0  0  0  0  0  0
  -27.6694  -13.2017   19.8785 C   0  0  2  0  0  0
  -28.7047  -12.9436   20.9972 C   0  0  0  0  0  0
  -25.2584  -13.8106   20.5591 C   0  0  0  0  0  0
  -24.1834  -13.0413   20.9134 C   0  0  0  0  0  0
  -24.6377  -11.6876   20.8689 C   0  0  0  0  0  0
  -23.9031  -10.4270   21.0364 C   0  0  0  0  0  0
  -24.3575   -9.4212   21.9167 C   0  0  0  0  0  0
  -23.6264   -8.2242   22.0751 C   0  0  0  0  0  0
  -22.4242   -8.0258   21.3550 C   0  0  0  0  0  0
  -21.9869   -9.0227   20.4654 C   0  0  0  0  0  0
  -22.7189  -10.2110   20.3045 C   0  0  0  0  0  0
  -21.6853   -6.0705   22.5270 C   0  0  0  0  0  0
  -21.4013   -6.5619   23.8202 C   0  0  0  0  0  0
  -21.3672   -5.6767   24.9162 C   0  0  0  0  0  0
  -21.6053   -4.3032   24.7215 C   0  0  0  0  0  0
  -21.8822   -3.8123   23.4334 C   0  0  0  0  0  0
  -21.9195   -4.6938   22.3390 C   0  0  0  0  0  0
  -22.7870  -13.5245   21.1807 C   0  0  0  0  0  0
  -22.1660   -4.2127   21.0969 F   0  0  0  0  0  0
  -21.5648   -3.4517   25.7736 F   0  0  0  0  0  0
  -30.0513  -13.2599   20.4737 N   0  0  0  0  0  0
  -26.3051  -12.9295   20.3321 N   0  0  0  0  0  0
  -25.9305  -11.6453   20.5699 N   0  0  0  0  0  0
  -22.0491  -12.8268   22.0375 N   0  0  0  0  0  0
  -25.4233  -15.1804   20.3923 N   0  0  0  0  0  0
  -31.7628  -14.7162   20.0536 O   0  0  0  0  0  0
  -21.6633   -6.8845   21.4230 O   0  0  0  0  0  0
  -22.3572  -14.5571   20.6675 O   0  0  0  0  0  0
  -24.6151  -31.8667   23.2083 C   0  0  0  0  0  0
  -25.9046  -32.4811   23.8376 C   0  0  1  0  0  0
  -27.2451  -27.4319   20.0778 C   0  0  0  0  0  0
  -25.5904  -33.8612   24.2311 N   0  0  0  0  0  0
  -23.4020  -30.4895   21.5491 C   0  0  2  0  0  0
  -24.8480  -28.9506   20.1148 C   0  0  0  0  0  0
  -22.7408  -29.4647   22.4984 C   0  0  0  0  0  0
  -18.0278  -28.1376   22.8488 C   0  0  0  0  0  0
  -24.1493  -36.7309   23.2635 C   0  0  0  0  0  0
  -25.9312  -30.8279   21.3630 C   0  0  0  0  0  0
  -26.0064  -29.4615   20.7098 C   0  0  0  0  0  0
  -27.2012  -28.7064   20.6912 C   0  0  0  0  0  0
  -26.0592  -26.9288   19.4928 C   0  0  0  0  0  0
  -24.8686  -27.6825   19.5089 C   0  0  0  0  0  0
  -23.6102  -29.8181   20.1647 C   0  0  0  0  0  0
  -25.4104  -36.3100   24.0340 C   0  0  1  0  0  0
  -20.5863  -28.3665   23.1323 C   0  0  2  0  0  0
  -20.6758  -26.9397   22.5426 C   0  0  0  0  0  0
  -19.5744  -26.6384   21.5215 C   0  0  0  0  0  0
  -18.1918  -26.7932   22.1612 C   0  0  0  0  0  0
  -19.1524  -28.8837   23.2902 C   0  0  0  0  0  0
  -18.9450  -30.1444   23.8911 C   0  0  0  0  0  0
  -17.6452  -30.6581   24.0560 C   0  0  0  0  0  0
  -25.9038  -34.9467   23.5123 C   0  0  0  0  0  0
  -16.5348  -29.9081   23.6321 C   0  0  0  0  0  0
  -16.7267  -28.6502   23.0339 C   0  0  0  0  0  0
  -26.4472  -31.6602   25.0717 C   0  0  0  0  0  0
  -25.3750  -31.3731   26.1482 C   0  0  0  0  0  0
  -27.0289  -30.3038   24.6110 C   0  0  0  0  0  0
  -27.6064  -32.4320   25.7470 C   0  0  0  0  0  0
  -27.5592  -37.1784   24.8443 C   0  0  0  0  0  0
  -21.4135  -29.3031   22.3726 N   0  0  0  0  0  0
  -26.4277  -37.3798   23.9434 N   0  0  0  0  0  0
  -24.6673  -31.0768   22.0981 N   0  0  0  0  0  0
  -23.4185  -28.8191   23.3020 O   0  0  0  0  0  0
  -28.4517  -26.7544   20.0899 O   0  0  0  0  0  0
  -26.5594  -34.8927   22.4683 O   0  0  0  0  0  0
  -23.5342  -32.1420   23.7488 O   0  0  0  0  0  0
  -29.3616  -18.6328   20.1954 C   0  0  0  0  0  0
  -28.1212  -18.5060   20.7894 C   0  0  0  0  0  0
  -29.5865  -16.5678   21.1697 C   0  0  0  0  0  0
  -29.9907  -18.5164   17.1315 C   0  0  0  0  0  0
  -27.2510  -23.8984   20.8420 C   0  0  0  0  0  0
  -30.4235  -22.3583   22.1426 C   0  0  0  0  0  0
  -30.7150  -19.4038   18.1579 C   0  0  0  0  0  0
  -29.4851  -23.0822   19.8589 C   0  0  0  0  0  0
  -28.6399  -25.4929   19.4245 C   0  0  0  0  0  0
  -29.8477  -19.8192   19.3722 C   0  0  2  0  0  0
  -28.6741  -24.2971   20.4165 C   0  0  1  0  0  0
  -29.7425  -21.8901   20.8414 C   0  0  1  0  0  0
  -30.2047  -17.5285   20.4633 N   0  0  0  0  0  0
  -27.0318  -19.3738   20.7522 N   0  0  0  0  0  0
  -30.1209  -15.2915   21.4947 N   0  0  0  0  0  0
  -30.5604  -20.8057   20.2205 N   0  3  0  0  0  0
  -27.9777  -17.0254   21.6997 S   0  0  0  0  0  0
  -31.4828  -12.4214   19.1222 H   0  0  0  0  0  0
  -30.3543  -11.2835   19.7936 H   0  0  0  0  0  0
  -29.7498  -11.8048   17.4233 H   0  0  0  0  0  0
  -29.6823  -13.5098   17.7895 H   0  0  0  0  0  0
  -27.8340  -11.3188   18.7940 H   0  0  0  0  0  0
  -27.3818  -12.6678   17.7841 H   0  0  0  0  0  0
  -27.7255  -14.2552   19.6021 H   0  0  0  0  0  0
  -28.6746  -11.8950   21.2974 H   0  0  0  0  0  0
  -28.4395  -13.4975   21.8973 H   0  0  0  0  0  0
  -25.2723   -9.5708   22.4732 H   0  0  0  0  0  0
  -23.9977   -7.4645   22.7477 H   0  0  0  0  0  0
  -21.0800   -8.8738   19.8972 H   0  0  0  0  0  0
  -22.3635  -10.9631   19.6137 H   0  0  0  0  0  0
  -21.1997   -7.6121   23.9686 H   0  0  0  0  0  0
  -21.1509   -6.0504   25.9061 H   0  0  0  0  0  0
  -22.0597   -2.7588   23.2836 H   0  0  0  0  0  0
  -22.4042  -11.9905   22.4773 H   0  0  0  0  0  0
  -21.1128  -13.1356   22.2572 H   0  0  0  0  0  0
  -24.6532  -15.8305   20.5030 H   0  0  0  0  0  0
  -26.2679  -15.6229   20.0566 H   0  0  0  0  0  0
  -26.7118  -32.5518   23.1135 H   0  0  0  0  0  0
  -25.0065  -33.9766   25.0464 H   0  0  0  0  0  0
  -22.6901  -31.3060   21.4093 H   0  0  0  0  0  0
  -23.3763  -35.9630   23.3262 H   0  0  0  0  0  0
  -24.3605  -36.8957   22.2058 H   0  0  0  0  0  0
  -23.7229  -37.6499   23.6669 H   0  0  0  0  0  0
  -26.0481  -31.5937   20.5945 H   0  0  0  0  0  0
  -26.8173  -30.8785   21.9838 H   0  0  0  0  0  0
  -28.0984  -29.1008   21.1477 H   0  0  0  0  0  0
  -26.0218  -25.9556   19.0286 H   0  0  0  0  0  0
  -23.9742  -27.2769   19.0571 H   0  0  0  0  0  0
  -23.7200  -30.5912   19.4034 H   0  0  0  0  0  0
  -22.7333  -29.2393   19.8683 H   0  0  0  0  0  0
  -25.1272  -36.1939   25.0829 H   0  0  0  0  0  0
  -20.9964  -28.3234   24.1440 H   0  0  0  0  0  0
  -20.5655  -26.2265   23.3610 H   0  0  0  0  0  0
  -21.6629  -26.7433   22.1230 H   0  0  0  0  0  0
  -19.6895  -25.6297   21.1235 H   0  0  0  0  0  0
  -19.6688  -27.3201   20.6751 H   0  0  0  0  0  0
  -17.4192  -26.6702   21.4004 H   0  0  0  0  0  0
  -18.0302  -26.0069   22.9003 H   0  0  0  0  0  0
  -19.7925  -30.7256   24.2287 H   0  0  0  0  0  0
  -17.5009  -31.6261   24.5166 H   0  0  0  0  0  0
  -15.5344  -30.2982   23.7645 H   0  0  0  0  0  0
  -15.8671  -28.0827   22.7037 H   0  0  0  0  0  0
  -24.5901  -30.7090   25.7831 H   0  0  0  0  0  0
  -24.8967  -32.2896   26.4942 H   0  0  0  0  0  0
  -25.8114  -30.8892   27.0227 H   0  0  0  0  0  0
  -26.2815  -29.6805   24.1179 H   0  0  0  0  0  0
  -27.4051  -29.7274   25.4570 H   0  0  0  0  0  0
  -27.8662  -30.4332   23.9251 H   0  0  0  0  0  0
  -27.2689  -33.3604   26.2085 H   0  0  0  0  0  0
  -28.3846  -32.6900   25.0278 H   0  0  0  0  0  0
  -28.0764  -31.8423   26.5349 H   0  0  0  0  0  0
  -28.2549  -38.0141   24.7586 H   0  0  0  0  0  0
  -28.1143  -36.2681   24.6123 H   0  0  0  0  0  0
  -27.2340  -37.1268   25.8848 H   0  0  0  0  0  0
  -20.9287  -29.8753   21.6954 H   0  0  0  0  0  0
  -26.0155  -38.2859   24.1494 H   0  0  0  0  0  0
  -30.6651  -18.2365   16.3208 H   0  0  0  0  0  0
  -29.1413  -19.0359   16.6874 H   0  0  0  0  0  0
  -29.6207  -17.5946   17.5809 H   0  0  0  0  0  0
  -27.2576  -23.1118   21.5959 H   0  0  0  0  0  0
  -26.6692  -23.5422   19.9917 H   0  0  0  0  0  0
  -26.7204  -24.7463   21.2761 H   0  0  0  0  0  0
  -29.7850  -23.0370   22.7079 H   0  0  0  0  0  0
  -31.3625  -22.8757   21.9462 H   0  0  0  0  0  0
  -30.6366  -21.5208   22.8079 H   0  0  0  0  0  0
  -31.0640  -20.2985   17.6401 H   0  0  0  0  0  0
  -31.6122  -18.8879   18.5029 H   0  0  0  0  0  0
  -30.4531  -23.4508   19.5155 H   0  0  0  0  0  0
  -28.9810  -22.7161   18.9639 H   0  0  0  0  0  0
  -27.9657  -25.3144   18.5884 H   0  0  0  0  0  0
  -29.6211  -25.5741   18.9570 H   0  0  0  0  0  0
  -28.9787  -20.3273   18.9508 H   0  0  0  0  0  0
  -29.2000  -24.6629   21.2978 H   0  0  0  0  0  0
  -28.7862  -21.4564   21.1294 H   0  0  0  0  0  0
  -26.9020  -20.0854   20.0407 H   0  0  0  0  0  0
  -26.1453  -19.1128   21.1755 H   0  0  0  0  0  0
  -29.5180  -14.7919   22.1298 H   0  0  0  0  0  0
  -31.2968  -21.2221   19.6770 H   0  0  0  0  0  0
  -30.9984  -20.2688   20.9518 H   0  0  0  0  0  0
  1 25  1  0  0  0
  1 30  2  0  0  0
  1 85  1  0  0  0
  2  3  1  0  0  0
  2 25  1  0  0  0
  2 88  1  0  0  0
  2 89  1  0  0  0
  3  4  1  0  0  0
  3 90  1  0  0  0
  3 91  1  0  0  0
  4  5  1  0  0  0
  4 92  1  0  0  0
  4 93  1  0  0  0
  5  6  1  0  0  0
  5 26  1  0  0  0
  5 94  1  0  0  0
  6 25  1  0  0  0
  6 95  1  0  0  0
  6 96  1  0  0  0
  7  8  2  0  0  0
  7 26  1  0  0  0
  7 29  1  0  0  0
  8  9  1  0  0  0
  8 22  1  0  0  0
  9 10  1  0  0  0
  9 27  2  0  0  0
 10 11  2  0  0  0
 10 15  1  0  0  0
 11 12  1  0  0  0
 11 97  1  0  0  0
 12 13  2  0  0  0
 12 98  1  0  0  0
 13 14  1  0  0  0
 13 31  1  0  0  0
 14 15  2  0  0  0
 14 99  1  0  0  0
 15100  1  0  0  0
 16 17  2  0  0  0
 16 21  1  0  0  0
 16 31  1  0  0  0
 17 18  1  0  0  0
 17101  1  0  0  0
 18 19  2  0  0  0
 18102  1  0  0  0
 19 20  1  0  0  0
 19 24  1  0  0  0
 20 21  2  0  0  0
 20103  1  0  0  0
 21 23  1  0  0  0
 22 28  1  0  0  0
 22 32  2  0  0  0
 26 27  1  0  0  0
 28104  1  0  0  0
 28105  1  0  0  0
 29106  1  0  0  0
 29107  1  0  0  0
 33 34  1  0  0  0
 33 66  1  0  0  0
 33 70  2  0  0  0
 34 36  1  0  0  0
 34 59  1  0  0  0
 34108  1  0  0  0
 35 44  2  0  0  0
 35 45  1  0  0  0
 35 68  1  0  0  0
 36 56  1  0  0  0
 36109  1  0  0  0
 37 39  1  0  0  0
 37 47  1  0  0  0
 37 66  1  0  0  0
 37110  1  0  0  0
 38 43  2  0  0  0
 38 46  1  0  0  0
 38 47  1  0  0  0
 39 64  1  0  0  0
 39 67  2  0  0  0
 40 52  1  0  0  0
 40 53  2  0  0  0
 40 58  1  0  0  0
 41111  1  0  0  0
 41112  1  0  0  0
 41113  1  0  0  0
 41 48  1  0  0  0
 42 43  1  0  0  0
 42 66  1  0  0  0
 42114  1  0  0  0
 42115  1  0  0  0
 43 44  1  0  0  0
 44116  1  0  0  0
 45 46  2  0  0  0
 45117  1  0  0  0
 46118  1  0  0  0
 47119  1  0  0  0
 47120  1  0  0  0
 48 56  1  0  0  0
 48 65  1  0  0  0
 48121  1  0  0  0
 49 50  1  0  0  0
 49 53  1  0  0  0
 49 64  1  0  0  0
 49122  1  0  0  0
 50 51  1  0  0  0
 50123  1  0  0  0
 50124  1  0  0  0
 51 52  1  0  0  0
 51125  1  0  0  0
 51126  1  0  0  0
 52127  1  0  0  0
 52128  1  0  0  0
 53 54  1  0  0  0
 54 55  2  0  0  0
 54129  1  0  0  0
 55 57  1  0  0  0
 55130  1  0  0  0
 56 69  2  0  0  0
 57 58  2  0  0  0
 57131  1  0  0  0
 58132  1  0  0  0
 59 60  1  0  0  0
 59 61  1  0  0  0
 59 62  1  0  0  0
 60133  1  0  0  0
 60134  1  0  0  0
 60135  1  0  0  0
 61136  1  0  0  0
 61137  1  0  0  0
 61138  1  0  0  0
 62139  1  0  0  0
 62140  1  0  0  0
 62141  1  0  0  0
 63 65  1  0  0  0
 63142  1  0  0  0
 63143  1  0  0  0
 63144  1  0  0  0
 64145  1  0  0  0
 65146  1  0  0  0
 68 79  1  0  0  0
 71 72  2  0  0  0
 71 80  1  0  0  0
 71 83  1  0  0  0
 72 84  1  0  0  0
 72 87  1  0  0  0
 73 83  2  0  0  0
 73 85  1  0  0  0
 73 87  1  0  0  0
 74 77  1  0  0  0
 74147  1  0  0  0
 74148  1  0  0  0
 74149  1  0  0  0
 75150  1  0  0  0
 75151  1  0  0  0
 75152  1  0  0  0
 75 81  1  0  0  0
 76153  1  0  0  0
 76154  1  0  0  0
 76155  1  0  0  0
 76 82  1  0  0  0
 77156  1  0  0  0
 77157  1  0  0  0
 77 80  1  0  0  0
 78 81  1  0  0  0
 78 82  1  0  0  0
 78158  1  0  0  0
 78159  1  0  0  0
 79 81  1  0  0  0
 79160  1  0  0  0
 79161  1  0  0  0
 80 86  1  0  0  0
 80162  1  0  0  0
 81163  1  0  0  0
 82 86  1  0  0  0
 82164  1  0  0  0
 84165  1  0  0  0
 84166  1  0  0  0
 85167  1  0  0  0
 86168  1  0  0  0
 86169  1  0  0  0
M  CHG  1  86   1
M  ISO  4   1 100  68 101  79 101  85 100
M  END
> <chiral flag>
0

> <version>
0

> <s_m_source_file>
/data/baiqing/PycharmProjects/Reinvent-master-3.2/result/LINK_invent/BTK/process_docking_weight1_custom_product_contain_oxygen_bond_distance_aromatic_linkinvent_7_9_3/rearranged_h_0190.sdf

> <i_m_source_file_index>
5

> <r_mmod_Potential_Energy-OPLS-2005>
-197.833435058594

> <r_mmod_Stretch_Energy-OPLS-2005>
40.7191276550293

> <r_mmod_Bend_Energy-OPLS-2005>
125.584075927734

> <r_mmod_Torsional_Energy-OPLS-2005>
234.541610717773

> <r_mmod_Improper_Torsional_Energy-OPLS-2005>
7.43141412734985

> <r_mmod_Van_der_Waal_Energy-OPLS-2005>
111.747016906738

> <r_mmod_Electrostatic_Energy-OPLS-2005>
-276.766296386719

> <r_mmod_Solvation_Energy-OPLS-2005>
-452.117736816406

> <b_mmod_Minimization_Converged-OPLS-2005>
0

> <r_mmod_RMS_Derivative-OPLS-2005>
2.23900055885315

$$$$
5
                    3D
 Structure written by MMmdl.
164172  0  0  1  0            999 V2000
  -30.7116  -14.4838   20.5802 C   0  0  0  0  0  0
  -30.4245  -12.3172   19.4308 C   0  0  0  0  0  0
  -29.4975  -12.5120   18.2134 C   0  0  0  0  0  0
  -28.0184  -12.3661   18.6252 C   0  0  0  0  0  0
  -27.6641  -13.2093   19.8824 C   0  0  2  0  0  0
  -28.7069  -12.9969   21.0050 C   0  0  0  0  0  0
  -25.2574  -13.8158   20.5681 C   0  0  0  0  0  0
  -24.1827  -13.0442   20.9184 C   0  0  0  0  0  0
  -24.6376  -11.6898   20.8739 C   0  0  0  0  0  0
  -23.9055  -10.4282   21.0398 C   0  0  0  0  0  0
  -24.3614   -9.4196   21.9184 C   0  0  0  0  0  0
  -23.6290   -8.2233   22.0759 C   0  0  0  0  0  0
  -22.4277   -8.0271   21.3555 C   0  0  0  0  0  0
  -21.9905   -9.0231   20.4665 C   0  0  0  0  0  0
  -22.7221  -10.2114   20.3058 C   0  0  0  0  0  0
  -21.6849   -6.0729   22.5272 C   0  0  0  0  0  0
  -21.4010   -6.5626   23.8211 C   0  0  0  0  0  0
  -21.3662   -5.6784   24.9178 C   0  0  0  0  0  0
  -21.6053   -4.3046   24.7234 C   0  0  0  0  0  0
  -21.8815   -3.8143   23.4346 C   0  0  0  0  0  0
  -21.9189   -4.6960   22.3403 C   0  0  0  0  0  0
  -22.7847  -13.5234   21.1824 C   0  0  0  0  0  0
  -22.1653   -4.2155   21.0974 F   0  0  0  0  0  0
  -21.5638   -3.4519   25.7736 F   0  0  0  0  0  0
  -30.0412  -13.3024   20.4555 N   0  0  0  0  0  0
  -26.3028  -12.9342   20.3408 N   0  0  0  0  0  0
  -25.9312  -11.6498   20.5824 N   0  0  0  0  0  0
  -22.0464  -12.8280   22.0411 N   0  0  0  0  0  0
  -25.4285  -15.1883   20.4012 N   0  0  0  0  0  0
  -31.8156  -14.6751   20.0641 O   0  0  0  0  0  0
  -21.6641   -6.8868   21.4241 O   0  0  0  0  0  0
  -22.3540  -14.5518   20.6633 O   0  0  0  0  0  0
  -24.6179  -31.8692   23.2080 C   0  0  0  0  0  0
  -25.9091  -32.4836   23.8354 C   0  0  1  0  0  0
  -27.2265  -27.4301   20.0936 C   0  0  0  0  0  0
  -25.5967  -33.8629   24.2303 N   0  0  0  0  0  0
  -23.4030  -30.4952   21.5509 C   0  0  2  0  0  0
  -24.8478  -28.9641   20.1135 C   0  0  0  0  0  0
  -22.7398  -29.4699   22.4990 C   0  0  0  0  0  0
  -18.0267  -28.1412   22.8474 C   0  0  0  0  0  0
  -24.1517  -36.7271   23.2630 C   0  0  0  0  0  0
  -25.9343  -30.8318   21.3654 C   0  0  0  0  0  0
  -26.0112  -29.4684   20.7108 C   0  0  0  0  0  0
  -27.2055  -28.7095   20.6987 C   0  0  0  0  0  0
  -26.0418  -26.9481   19.4938 C   0  0  0  0  0  0
  -24.8586  -27.7024   19.5008 C   0  0  0  0  0  0
  -23.6090  -29.8275   20.1660 C   0  0  0  0  0  0
  -25.4149  -36.3095   24.0320 C   0  0  1  0  0  0
  -20.5851  -28.3714   23.1301 C   0  0  2  0  0  0
  -20.6790  -26.9467   22.5393 C   0  0  0  0  0  0
  -19.5765  -26.6407   21.5222 C   0  0  0  0  0  0
  -18.1939  -26.7959   22.1608 C   0  0  0  0  0  0
  -19.1513  -28.8877   23.2879 C   0  0  0  0  0  0
  -18.9448  -30.1476   23.8898 C   0  0  0  0  0  0
  -17.6457  -30.6618   24.0567 C   0  0  0  0  0  0
  -25.9066  -34.9478   23.5089 C   0  0  0  0  0  0
  -16.5341  -29.9116   23.6342 C   0  0  0  0  0  0
  -16.7257  -28.6527   23.0367 C   0  0  0  0  0  0
  -26.4509  -31.6626   25.0696 C   0  0  0  0  0  0
  -25.3756  -31.3778   26.1438 C   0  0  0  0  0  0
  -27.0360  -30.3050   24.6111 C   0  0  0  0  0  0
  -27.6046  -32.4389   25.7470 C   0  0  0  0  0  0
  -27.5601  -37.1801   24.8466 C   0  0  0  0  0  0
  -21.4126  -29.3075   22.3709 N   0  0  0  0  0  0
  -26.4325  -37.3783   23.9395 N   0  0  0  0  0  0
  -24.6698  -31.0794   22.0985 N   0  0  0  0  0  0
  -23.4150  -28.8255   23.3065 O   0  0  0  0  0  0
  -28.3746  -26.6627   20.0953 O   0  0  0  0  0  0
  -26.5583  -34.8923   22.4620 O   0  0  0  0  0  0
  -23.5374  -32.1472   23.7467 O   0  0  0  0  0  0
  -29.8603  -18.9463   22.2164 C   0  0  0  0  0  0
  -30.9670  -17.5424   20.2022 C   0  0  0  0  0  0
  -30.5784  -19.6060   21.1908 C   0  0  0  0  0  0
  -30.2574  -16.8676   21.2416 C   0  0  0  0  0  0
  -32.1705  -21.4017   21.9753 C   0  0  0  0  0  0
  -32.3666  -23.6146   19.4346 C   0  0  0  0  0  0
  -29.9161  -24.0463   19.0312 C   0  0  0  0  0  0
  -28.2117  -25.3194   20.5977 C   0  0  0  0  0  0
  -30.8266  -21.1235   21.2677 C   0  0  1  0  0  0
  -30.9380  -23.2827   19.9204 C   0  0  1  0  0  0
  -28.4783  -24.1608   19.5896 C   0  0  1  0  0  0
  -31.1306  -18.8972   20.1710 N   0  0  0  0  0  0
  -29.6951  -17.5996   22.2365 N   0  0  0  0  0  0
  -30.0616  -15.4510   21.2551 N   0  0  0  0  0  0
  -30.7193  -21.7978   19.9399 N   0  3  0  0  0  0
  -27.5515  -24.2128   18.5174 O   0  0  0  0  0  0
  -31.4694  -12.4119   19.1303 H   0  0  0  0  0  0
  -30.3288  -11.3076   19.8335 H   0  0  0  0  0  0
  -29.7429  -11.7869   17.4368 H   0  0  0  0  0  0
  -29.6619  -13.4988   17.7759 H   0  0  0  0  0  0
  -27.8333  -11.3096   18.8245 H   0  0  0  0  0  0
  -27.3635  -12.6351   17.7945 H   0  0  0  0  0  0
  -27.7048  -14.2574   19.5862 H   0  0  0  0  0  0
  -28.6863  -11.9616   21.3482 H   0  0  0  0  0  0
  -28.4592  -13.5948   21.8828 H   0  0  0  0  0  0
  -25.2749   -9.5671   22.4780 H   0  0  0  0  0  0
  -24.0001   -7.4618   22.7452 H   0  0  0  0  0  0
  -21.0848   -8.8717   19.8966 H   0  0  0  0  0  0
  -22.3647  -10.9652   19.6169 H   0  0  0  0  0  0
  -21.1991   -7.6139   23.9722 H   0  0  0  0  0  0
  -21.1505   -6.0512   25.9087 H   0  0  0  0  0  0
  -22.0607   -2.7606   23.2832 H   0  0  0  0  0  0
  -22.4065  -11.9955   22.4835 H   0  0  0  0  0  0
  -21.1086  -13.1320   22.2591 H   0  0  0  0  0  0
  -24.6570  -15.8405   20.4950 H   0  0  0  0  0  0
  -26.2812  -15.6261   20.0722 H   0  0  0  0  0  0
  -26.7170  -32.5532   23.1119 H   0  0  0  0  0  0
  -25.0283  -33.9811   25.0558 H   0  0  0  0  0  0
  -22.6924  -31.3133   21.4110 H   0  0  0  0  0  0
  -23.3799  -35.9581   23.3307 H   0  0  0  0  0  0
  -24.3611  -36.8873   22.2039 H   0  0  0  0  0  0
  -23.7257  -37.6465   23.6647 H   0  0  0  0  0  0
  -26.0578  -31.5993   20.5996 H   0  0  0  0  0  0
  -26.8173  -30.8746   21.9914 H   0  0  0  0  0  0
  -28.0955  -29.0890   21.1826 H   0  0  0  0  0  0
  -26.0123  -25.9799   19.0217 H   0  0  0  0  0  0
  -23.9676  -27.3045   19.0334 H   0  0  0  0  0  0
  -23.7105  -30.6001   19.4027 H   0  0  0  0  0  0
  -22.7342  -29.2428   19.8774 H   0  0  0  0  0  0
  -25.1353  -36.1926   25.0814 H   0  0  0  0  0  0
  -20.9935  -28.3307   24.1421 H   0  0  0  0  0  0
  -20.5803  -26.2330   23.3577 H   0  0  0  0  0  0
  -21.6659  -26.7601   22.1140 H   0  0  0  0  0  0
  -19.6959  -25.6323   21.1271 H   0  0  0  0  0  0
  -19.6708  -27.3196   20.6743 H   0  0  0  0  0  0
  -17.4230  -26.6709   21.3991 H   0  0  0  0  0  0
  -18.0307  -26.0102   22.8989 H   0  0  0  0  0  0
  -19.7931  -30.7287   24.2260 H   0  0  0  0  0  0
  -17.5032  -31.6312   24.5154 H   0  0  0  0  0  0
  -15.5361  -30.3043   23.7686 H   0  0  0  0  0  0
  -15.8636  -28.0871   22.7103 H   0  0  0  0  0  0
  -24.5884  -30.7190   25.7761 H   0  0  0  0  0  0
  -24.9038  -32.2990   26.4863 H   0  0  0  0  0  0
  -25.8090  -30.8930   27.0196 H   0  0  0  0  0  0
  -26.2924  -29.6774   24.1189 H   0  0  0  0  0  0
  -27.4136  -29.7317   25.4589 H   0  0  0  0  0  0
  -27.8752  -30.4335   23.9270 H   0  0  0  0  0  0
  -27.2600  -33.3657   26.2055 H   0  0  0  0  0  0
  -28.3841  -32.7026   25.0318 H   0  0  0  0  0  0
  -28.0740  -31.8548   26.5390 H   0  0  0  0  0  0
  -28.2634  -38.0093   24.7538 H   0  0  0  0  0  0
  -28.1101  -36.2623   24.6295 H   0  0  0  0  0  0
  -27.2302  -37.1432   25.8867 H   0  0  0  0  0  0
  -20.9294  -29.8732   21.6871 H   0  0  0  0  0  0
  -26.0201  -38.2861   24.1373 H   0  0  0  0  0  0
  -29.4402  -19.4992   23.0440 H   0  0  0  0  0  0
  -31.3962  -17.0068   19.3688 H   0  0  0  0  0  0
  -32.2097  -20.8995   22.9417 H   0  0  0  0  0  0
  -32.3254  -22.4611   22.1784 H   0  0  0  0  0  0
  -33.0147  -21.0464   21.3844 H   0  0  0  0  0  0
  -32.5580  -24.6866   19.4944 H   0  0  0  0  0  0
  -32.5229  -23.3202   18.3956 H   0  0  0  0  0  0
  -33.1372  -23.1257   20.0296 H   0  0  0  0  0  0
  -29.9018  -23.5812   18.0448 H   0  0  0  0  0  0
  -30.2776  -25.0609   18.8603 H   0  0  0  0  0  0
  -28.9067  -25.2123   21.4309 H   0  0  0  0  0  0
  -27.2312  -25.1762   21.0574 H   0  0  0  0  0  0
  -30.0329  -21.5418   21.8894 H   0  0  0  0  0  0
  -30.8324  -23.6732   20.9338 H   0  0  0  0  0  0
  -28.2501  -23.2327   20.1147 H   0  0  0  0  0  0
  -29.2664  -15.1346   21.7856 H   0  0  0  0  0  0
  -29.7984  -21.5884   19.5904 H   0  0  0  0  0  0
  -31.3602  -21.3430   19.3078 H   0  0  0  0  0  0
  -27.5916  -23.3900   18.0386 H   0  0  0  0  0  0
  1 25  1  0  0  0
  1 30  2  0  0  0
  1 84  1  0  0  0
  2  3  1  0  0  0
  2 25  1  0  0  0
  2 87  1  0  0  0
  2 88  1  0  0  0
  3  4  1  0  0  0
  3 89  1  0  0  0
  3 90  1  0  0  0
  4  5  1  0  0  0
  4 91  1  0  0  0
  4 92  1  0  0  0
  5  6  1  0  0  0
  5 26  1  0  0  0
  5 93  1  0  0  0
  6 25  1  0  0  0
  6 94  1  0  0  0
  6 95  1  0  0  0
  7  8  2  0  0  0
  7 26  1  0  0  0
  7 29  1  0  0  0
  8  9  1  0  0  0
  8 22  1  0  0  0
  9 10  1  0  0  0
  9 27  2  0  0  0
 10 11  2  0  0  0
 10 15  1  0  0  0
 11 12  1  0  0  0
 11 96  1  0  0  0
 12 13  2  0  0  0
 12 97  1  0  0  0
 13 14  1  0  0  0
 13 31  1  0  0  0
 14 15  2  0  0  0
 14 98  1  0  0  0
 15 99  1  0  0  0
 16 17  2  0  0  0
 16 21  1  0  0  0
 16 31  1  0  0  0
 17 18  1  0  0  0
 17100  1  0  0  0
 18 19  2  0  0  0
 18101  1  0  0  0
 19 20  1  0  0  0
 19 24  1  0  0  0
 20 21  2  0  0  0
 20102  1  0  0  0
 21 23  1  0  0  0
 22 28  1  0  0  0
 22 32  2  0  0  0
 26 27  1  0  0  0
 28103  1  0  0  0
 28104  1  0  0  0
 29105  1  0  0  0
 29106  1  0  0  0
 33 34  1  0  0  0
 33 66  1  0  0  0
 33 70  2  0  0  0
 34 36  1  0  0  0
 34 59  1  0  0  0
 34107  1  0  0  0
 35 44  2  0  0  0
 35 45  1  0  0  0
 35 68  1  0  0  0
 36 56  1  0  0  0
 36108  1  0  0  0
 37 39  1  0  0  0
 37 47  1  0  0  0
 37 66  1  0  0  0
 37109  1  0  0  0
 38 43  2  0  0  0
 38 46  1  0  0  0
 38 47  1  0  0  0
 39 64  1  0  0  0
 39 67  2  0  0  0
 40 52  1  0  0  0
 40 53  2  0  0  0
 40 58  1  0  0  0
 41110  1  0  0  0
 41111  1  0  0  0
 41112  1  0  0  0
 41 48  1  0  0  0
 42 43  1  0  0  0
 42 66  1  0  0  0
 42113  1  0  0  0
 42114  1  0  0  0
 43 44  1  0  0  0
 44115  1  0  0  0
 45 46  2  0  0  0
 45116  1  0  0  0
 46117  1  0  0  0
 47118  1  0  0  0
 47119  1  0  0  0
 48 56  1  0  0  0
 48 65  1  0  0  0
 48120  1  0  0  0
 49 50  1  0  0  0
 49 53  1  0  0  0
 49 64  1  0  0  0
 49121  1  0  0  0
 50 51  1  0  0  0
 50122  1  0  0  0
 50123  1  0  0  0
 51 52  1  0  0  0
 51124  1  0  0  0
 51125  1  0  0  0
 52126  1  0  0  0
 52127  1  0  0  0
 53 54  1  0  0  0
 54 55  2  0  0  0
 54128  1  0  0  0
 55 57  1  0  0  0
 55129  1  0  0  0
 56 69  2  0  0  0
 57 58  2  0  0  0
 57130  1  0  0  0
 58131  1  0  0  0
 59 60  1  0  0  0
 59 61  1  0  0  0
 59 62  1  0  0  0
 60132  1  0  0  0
 60133  1  0  0  0
 60134  1  0  0  0
 61135  1  0  0  0
 61136  1  0  0  0
 61137  1  0  0  0
 62138  1  0  0  0
 62139  1  0  0  0
 62140  1  0  0  0
 63 65  1  0  0  0
 63141  1  0  0  0
 63142  1  0  0  0
 63143  1  0  0  0
 64144  1  0  0  0
 65145  1  0  0  0
 68 78  1  0  0  0
 71 73  2  0  0  0
 71 83  1  0  0  0
 71146  1  0  0  0
 72 74  1  0  0  0
 72 82  2  0  0  0
 72147  1  0  0  0
 73 79  1  0  0  0
 73 82  1  0  0  0
 74 83  2  0  0  0
 74 84  1  0  0  0
 75148  1  0  0  0
 75149  1  0  0  0
 75150  1  0  0  0
 75 79  1  0  0  0
 76151  1  0  0  0
 76152  1  0  0  0
 76153  1  0  0  0
 76 80  1  0  0  0
 77 80  1  0  0  0
 77 81  1  0  0  0
 77154  1  0  0  0
 77155  1  0  0  0
 78 81  1  0  0  0
 78156  1  0  0  0
 78157  1  0  0  0
 79 85  1  0  0  0
 79158  1  0  0  0
 80 85  1  0  0  0
 80159  1  0  0  0
 81 86  1  0  0  0
 81160  1  0  0  0
 84161  1  0  0  0
 85162  1  0  0  0
 85163  1  0  0  0
 86164  1  0  0  0
M  CHG  1  85   1
M  ISO  4   1 100  68 101  78 101  84 100
M  END
> <chiral flag>
0

> <version>
0

> <s_m_source_file>
/data/baiqing/PycharmProjects/Reinvent-master-3.2/result/LINK_invent/BTK/process_docking_weight1_custom_product_contain_oxygen_bond_distance_aromatic_linkinvent_7_9_3/rearranged_h_0190.sdf

> <i_m_source_file_index>
6

> <r_mmod_Potential_Energy-OPLS-2005>
-187.001190185547

> <r_mmod_Stretch_Energy-OPLS-2005>
44.7794418334961

> <r_mmod_Bend_Energy-OPLS-2005>
111.915489196777

> <r_mmod_Torsional_Energy-OPLS-2005>
253.813385009766

> <r_mmod_Improper_Torsional_Energy-OPLS-2005>
2.55394887924194

> <r_mmod_Van_der_Waal_Energy-OPLS-2005>
161.918960571289

> <r_mmod_Electrostatic_Energy-OPLS-2005>
-273.426818847656

> <r_mmod_Solvation_Energy-OPLS-2005>
-502.094299316406

> <b_mmod_Minimization_Converged-OPLS-2005>
0

> <r_mmod_RMS_Derivative-OPLS-2005>
3.07701396942139

$$$$
6
                    3D
 Structure written by MMmdl.
153161  0  0  1  0            999 V2000
  -30.5982  -14.7993   20.5091 C   0  0  0  0  0  0
  -30.4433  -12.5114   19.4615 C   0  0  0  0  0  0
  -29.5107  -12.5400   18.2274 C   0  0  0  0  0  0
  -28.0369  -12.3430   18.6397 C   0  0  0  0  0  0
  -27.6451  -13.2200   19.8583 C   0  0  2  0  0  0
  -28.6961  -13.0910   20.9796 C   0  0  0  0  0  0
  -25.2505  -13.8145   20.5630 C   0  0  0  0  0  0
  -24.1799  -13.0420   20.9176 C   0  0  0  0  0  0
  -24.6391  -11.6894   20.8753 C   0  0  0  0  0  0
  -23.9065  -10.4279   21.0416 C   0  0  0  0  0  0
  -24.3615   -9.4191   21.9192 C   0  0  0  0  0  0
  -23.6284   -8.2233   22.0762 C   0  0  0  0  0  0
  -22.4268   -8.0276   21.3545 C   0  0  0  0  0  0
  -21.9906   -9.0252   20.4649 C   0  0  0  0  0  0
  -22.7243  -10.2126   20.3058 C   0  0  0  0  0  0
  -21.6849   -6.0730   22.5284 C   0  0  0  0  0  0
  -21.4010   -6.5636   23.8217 C   0  0  0  0  0  0
  -21.3657   -5.6790   24.9177 C   0  0  0  0  0  0
  -21.6052   -4.3057   24.7230 C   0  0  0  0  0  0
  -21.8818   -3.8146   23.4351 C   0  0  0  0  0  0
  -21.9190   -4.6959   22.3406 C   0  0  0  0  0  0
  -22.7825  -13.5220   21.1846 C   0  0  0  0  0  0
  -22.1663   -4.2147   21.0984 F   0  0  0  0  0  0
  -21.5630   -3.4541   25.7742 F   0  0  0  0  0  0
  -29.9728  -13.5572   20.4120 N   0  0  0  0  0  0
  -26.2952  -12.9346   20.3304 N   0  0  0  0  0  0
  -25.9321  -11.6504   20.5763 N   0  0  0  0  0  0
  -22.0466  -12.8218   22.0402 N   0  0  0  0  0  0
  -25.4162  -15.1865   20.3954 N   0  0  0  0  0  0
  -31.7728  -14.8691   20.1259 O   0  0  0  0  0  0
  -21.6640   -6.8867   21.4239 O   0  0  0  0  0  0
  -22.3518  -14.5540   20.6704 O   0  0  0  0  0  0
  -24.6336  -31.8523   23.1926 C   0  0  0  0  0  0
  -25.9147  -32.4738   23.8301 C   0  0  1  0  0  0
  -27.2387  -27.2452   20.1442 C   0  0  0  0  0  0
  -25.5930  -33.8542   24.2222 N   0  0  0  0  0  0
  -23.4328  -30.4712   21.5365 C   0  0  2  0  0  0
  -24.8822  -28.8968   20.1235 C   0  0  0  0  0  0
  -22.7509  -29.4605   22.4907 C   0  0  0  0  0  0
  -18.0306  -28.1405   22.8498 C   0  0  0  0  0  0
  -24.1472  -36.7278   23.2644 C   0  0  0  0  0  0
  -25.9758  -30.7624   21.3680 C   0  0  0  0  0  0
  -26.0532  -29.3766   20.7229 C   0  0  0  0  0  0
  -27.2361  -28.5657   20.7143 C   0  0  0  0  0  0
  -26.0405  -26.8226   19.5349 C   0  0  0  0  0  0
  -24.8794  -27.6265   19.5218 C   0  0  0  0  0  0
  -23.6541  -29.7905   20.1584 C   0  0  0  0  0  0
  -25.4106  -36.3063   24.0322 C   0  0  1  0  0  0
  -20.5909  -28.3713   23.1257 C   0  0  2  0  0  0
  -20.6775  -26.9427   22.5405 C   0  0  0  0  0  0
  -19.5745  -26.6393   21.5210 C   0  0  0  0  0  0
  -18.1939  -26.7956   22.1635 C   0  0  0  0  0  0
  -19.1563  -28.8877   23.2875 C   0  0  0  0  0  0
  -18.9488  -30.1479   23.8892 C   0  0  0  0  0  0
  -17.6483  -30.6597   24.0580 C   0  0  0  0  0  0
  -25.9056  -34.9432   23.5074 C   0  0  0  0  0  0
  -16.5375  -29.9105   23.6333 C   0  0  0  0  0  0
  -16.7293  -28.6525   23.0351 C   0  0  0  0  0  0
  -26.4499  -31.6578   25.0707 C   0  0  0  0  0  0
  -25.3717  -31.3752   26.1429 C   0  0  0  0  0  0
  -27.0337  -30.3002   24.6180 C   0  0  0  0  0  0
  -27.6044  -32.4317   25.7507 C   0  0  0  0  0  0
  -27.5561  -37.1797   24.8480 C   0  0  0  0  0  0
  -21.4214  -29.3050   22.3644 N   0  0  0  0  0  0
  -26.4279  -37.3763   23.9409 N   0  0  0  0  0  0
  -24.7010  -31.0472   22.0910 N   0  0  0  0  0  0
  -23.4196  -28.8165   23.3038 O   0  0  0  0  0  0
  -28.3671  -26.3873   20.0925 O   0  0  0  0  0  0
  -26.5631  -34.8914   22.4645 O   0  0  0  0  0  0
  -23.5479  -32.1344   23.7214 O   0  0  0  0  0  0
  -28.4243  -18.7535   19.3613 C   0  0  0  0  0  0
  -29.5212  -18.7079   20.1912 C   0  0  0  0  0  0
  -28.9727  -21.0722   20.1939 C   0  0  0  0  0  0
  -28.4286  -23.6564   20.0618 C   0  0  0  0  0  0
  -27.5507  -25.0556   22.0689 C   0  0  0  0  0  0
  -28.8472  -16.0675   21.7942 C   0  0  0  0  0  0
  -30.4281  -17.4188   20.4803 C   0  0  0  0  0  0
  -28.4770  -25.0736   20.8440 C   0  0  2  0  0  0
  -29.7922  -20.0605   20.6619 N   0  0  0  0  0  0
  -29.0474  -22.5128   20.5767 N   0  0  0  0  0  0
  -29.8850  -15.9974   20.7606 N   0  0  0  0  0  0
  -27.8334  -23.6208   18.9819 O   0  0  0  0  0  0
  -27.7538  -20.3745   19.1270 S   0  0  0  0  0  0
  -31.4770  -12.6617   19.1468 H   0  0  0  0  0  0
  -30.4315  -11.5258   19.9282 H   0  0  0  0  0  0
  -29.8050  -11.7704   17.5136 H   0  0  0  0  0  0
  -29.6181  -13.4943   17.7087 H   0  0  0  0  0  0
  -27.9031  -11.2897   18.8866 H   0  0  0  0  0  0
  -27.3749  -12.5434   17.7966 H   0  0  0  0  0  0
  -27.6526  -14.2511   19.5065 H   0  0  0  0  0  0
  -28.7750  -12.0498   21.2951 H   0  0  0  0  0  0
  -28.4000  -13.6046   21.8873 H   0  0  0  0  0  0
  -25.2756   -9.5679   22.4766 H   0  0  0  0  0  0
  -24.0004   -7.4626   22.7482 H   0  0  0  0  0  0
  -21.0841   -8.8765   19.8949 H   0  0  0  0  0  0
  -22.3703  -10.9664   19.6167 H   0  0  0  0  0  0
  -21.2004   -7.6146   23.9720 H   0  0  0  0  0  0
  -21.1479   -6.0518   25.9077 H   0  0  0  0  0  0
  -22.0600   -2.7609   23.2853 H   0  0  0  0  0  0
  -22.4081  -11.9876   22.4789 H   0  0  0  0  0  0
  -21.1086  -13.1251   22.2613 H   0  0  0  0  0  0
  -24.6449  -15.8378   20.4921 H   0  0  0  0  0  0
  -26.2682  -15.6266   20.0737 H   0  0  0  0  0  0
  -26.7214  -32.5397   23.1047 H   0  0  0  0  0  0
  -25.0070  -33.9673   25.0367 H   0  0  0  0  0  0
  -22.7303  -31.2931   21.3822 H   0  0  0  0  0  0
  -23.3723  -35.9622   23.3330 H   0  0  0  0  0  0
  -24.3552  -36.8884   22.2051 H   0  0  0  0  0  0
  -23.7227  -37.6484   23.6659 H   0  0  0  0  0  0
  -26.0987  -31.5107   20.5852 H   0  0  0  0  0  0
  -26.8582  -30.8311   21.9915 H   0  0  0  0  0  0
  -28.1431  -28.9393   21.1675 H   0  0  0  0  0  0
  -25.9993  -25.8431   19.0776 H   0  0  0  0  0  0
  -23.9799  -27.2497   19.0545 H   0  0  0  0  0  0
  -23.7875  -30.5605   19.3975 H   0  0  0  0  0  0
  -22.7706  -29.2284   19.8502 H   0  0  0  0  0  0
  -25.1282  -36.1906   25.0812 H   0  0  0  0  0  0
  -21.0020  -28.3300   24.1373 H   0  0  0  0  0  0
  -20.5661  -26.2333   23.3621 H   0  0  0  0  0  0
  -21.6646  -26.7436   22.1219 H   0  0  0  0  0  0
  -19.6904  -25.6301   21.1249 H   0  0  0  0  0  0
  -19.6688  -27.3198   20.6738 H   0  0  0  0  0  0
  -17.4205  -26.6718   21.4038 H   0  0  0  0  0  0
  -18.0352  -26.0094   22.9028 H   0  0  0  0  0  0
  -19.7957  -30.7303   24.2260 H   0  0  0  0  0  0
  -17.5035  -31.6285   24.5180 H   0  0  0  0  0  0
  -15.5375  -30.3010   23.7645 H   0  0  0  0  0  0
  -15.8698  -28.0836   22.7060 H   0  0  0  0  0  0
  -24.5907  -30.7080   25.7775 H   0  0  0  0  0  0
  -24.8896  -32.2934   26.4802 H   0  0  0  0  0  0
  -25.8042  -30.8986   27.0235 H   0  0  0  0  0  0
  -26.2921  -29.6772   24.1163 H   0  0  0  0  0  0
  -27.3988  -29.7242   25.4684 H   0  0  0  0  0  0
  -27.8804  -30.4279   23.9428 H   0  0  0  0  0  0
  -27.2645  -33.3617   26.2065 H   0  0  0  0  0  0
  -28.3889  -32.6860   25.0376 H   0  0  0  0  0  0
  -28.0662  -31.8447   26.5451 H   0  0  0  0  0  0
  -28.2607  -38.0062   24.7474 H   0  0  0  0  0  0
  -28.1017  -36.2587   24.6369 H   0  0  0  0  0  0
  -27.2278  -37.1537   25.8885 H   0  0  0  0  0  0
  -20.9414  -29.8754   21.6819 H   0  0  0  0  0  0
  -26.0153  -38.2834   24.1415 H   0  0  0  0  0  0
  -27.9804  -17.9247   18.8259 H   0  0  0  0  0  0
  -27.6539  -24.1325   22.6384 H   0  0  0  0  0  0
  -26.5057  -25.1477   21.7806 H   0  0  0  0  0  0
  -27.7888  -25.8809   22.7416 H   0  0  0  0  0  0
  -27.8928  -15.7091   21.4170 H   0  0  0  0  0  0
  -28.6727  -17.0819   22.1521 H   0  0  0  0  0  0
  -29.1299  -15.4891   22.6753 H   0  0  0  0  0  0
  -31.0860  -17.6488   21.3186 H   0  0  0  0  0  0
  -31.1128  -17.3173   19.6375 H   0  0  0  0  0  0
  -29.4916  -25.1047   21.2420 H   0  0  0  0  0  0
  -29.6124  -22.6881   21.3945 H   0  0  0  0  0  0
  1 25  1  0  0  0
  1 30  2  0  0  0
  1 81  1  0  0  0
  2  3  1  0  0  0
  2 25  1  0  0  0
  2 84  1  0  0  0
  2 85  1  0  0  0
  3  4  1  0  0  0
  3 86  1  0  0  0
  3 87  1  0  0  0
  4  5  1  0  0  0
  4 88  1  0  0  0
  4 89  1  0  0  0
  5  6  1  0  0  0
  5 26  1  0  0  0
  5 90  1  0  0  0
  6 25  1  0  0  0
  6 91  1  0  0  0
  6 92  1  0  0  0
  7  8  2  0  0  0
  7 26  1  0  0  0
  7 29  1  0  0  0
  8  9  1  0  0  0
  8 22  1  0  0  0
  9 10  1  0  0  0
  9 27  2  0  0  0
 10 11  2  0  0  0
 10 15  1  0  0  0
 11 12  1  0  0  0
 11 93  1  0  0  0
 12 13  2  0  0  0
 12 94  1  0  0  0
 13 14  1  0  0  0
 13 31  1  0  0  0
 14 15  2  0  0  0
 14 95  1  0  0  0
 15 96  1  0  0  0
 16 17  2  0  0  0
 16 21  1  0  0  0
 16 31  1  0  0  0
 17 18  1  0  0  0
 17 97  1  0  0  0
 18 19  2  0  0  0
 18 98  1  0  0  0
 19 20  1  0  0  0
 19 24  1  0  0  0
 20 21  2  0  0  0
 20 99  1  0  0  0
 21 23  1  0  0  0
 22 28  1  0  0  0
 22 32  2  0  0  0
 26 27  1  0  0  0
 28100  1  0  0  0
 28101  1  0  0  0
 29102  1  0  0  0
 29103  1  0  0  0
 33 34  1  0  0  0
 33 66  1  0  0  0
 33 70  2  0  0  0
 34 36  1  0  0  0
 34 59  1  0  0  0
 34104  1  0  0  0
 35 44  2  0  0  0
 35 45  1  0  0  0
 35 68  1  0  0  0
 36 56  1  0  0  0
 36105  1  0  0  0
 37 39  1  0  0  0
 37 47  1  0  0  0
 37 66  1  0  0  0
 37106  1  0  0  0
 38 43  2  0  0  0
 38 46  1  0  0  0
 38 47  1  0  0  0
 39 64  1  0  0  0
 39 67  2  0  0  0
 40 52  1  0  0  0
 40 53  2  0  0  0
 40 58  1  0  0  0
 41107  1  0  0  0
 41108  1  0  0  0
 41109  1  0  0  0
 41 48  1  0  0  0
 42 43  1  0  0  0
 42 66  1  0  0  0
 42110  1  0  0  0
 42111  1  0  0  0
 43 44  1  0  0  0
 44112  1  0  0  0
 45 46  2  0  0  0
 45113  1  0  0  0
 46114  1  0  0  0
 47115  1  0  0  0
 47116  1  0  0  0
 48 56  1  0  0  0
 48 65  1  0  0  0
 48117  1  0  0  0
 49 50  1  0  0  0
 49 53  1  0  0  0
 49 64  1  0  0  0
 49118  1  0  0  0
 50 51  1  0  0  0
 50119  1  0  0  0
 50120  1  0  0  0
 51 52  1  0  0  0
 51121  1  0  0  0
 51122  1  0  0  0
 52123  1  0  0  0
 52124  1  0  0  0
 53 54  1  0  0  0
 54 55  2  0  0  0
 54125  1  0  0  0
 55 57  1  0  0  0
 55126  1  0  0  0
 56 69  2  0  0  0
 57 58  2  0  0  0
 57127  1  0  0  0
 58128  1  0  0  0
 59 60  1  0  0  0
 59 61  1  0  0  0
 59 62  1  0  0  0
 60129  1  0  0  0
 60130  1  0  0  0
 60131  1  0  0  0
 61132  1  0  0  0
 61133  1  0  0  0
 61134  1  0  0  0
 62135  1  0  0  0
 62136  1  0  0  0
 62137  1  0  0  0
 63 65  1  0  0  0
 63138  1  0  0  0
 63139  1  0  0  0
 63140  1  0  0  0
 64141  1  0  0  0
 65142  1  0  0  0
 68 78  1  0  0  0
 71 72  2  0  0  0
 71 83  1  0  0  0
 71143  1  0  0  0
 72 77  1  0  0  0
 72 79  1  0  0  0
 73 79  2  0  0  0
 73 80  1  0  0  0
 73 83  1  0  0  0
 74 78  1  0  0  0
 74 80  1  0  0  0
 74 82  2  0  0  0
 75144  1  0  0  0
 75145  1  0  0  0
 75146  1  0  0  0
 75 78  1  0  0  0
 76 81  1  0  0  0
 76147  1  0  0  0
 76148  1  0  0  0
 76149  1  0  0  0
 77 81  1  0  0  0
 77150  1  0  0  0
 77151  1  0  0  0
 78152  1  0  0  0
 80153  1  0  0  0
M  ISO  4   1 100  68 101  78 101  81 100
M  END
> <chiral flag>
0

> <version>
0

> <s_m_source_file>
/data/baiqing/PycharmProjects/Reinvent-master-3.2/result/LINK_invent/BTK/process_docking_weight1_custom_product_contain_oxygen_bond_distance_aromatic_linkinvent_7_9_3/rearranged_h_0190.sdf

> <i_m_source_file_index>
7

> <r_mmod_Potential_Energy-OPLS-2005>
188.847396850586

> <r_mmod_Stretch_Energy-OPLS-2005>
152.263366699219

> <r_mmod_Bend_Energy-OPLS-2005>
206.740036010742

> <r_mmod_Torsional_Energy-OPLS-2005>
271.013854980469

> <r_mmod_Improper_Torsional_Energy-OPLS-2005>
8.37931632995605

> <r_mmod_Van_der_Waal_Energy-OPLS-2005>
119.511993408203

> <r_mmod_Electrostatic_Energy-OPLS-2005>
-425.914093017578

> <r_mmod_Solvation_Energy-OPLS-2005>
-233.718490600586

> <b_mmod_Minimization_Converged-OPLS-2005>
0

> <r_mmod_RMS_Derivative-OPLS-2005>
2.35962128639221

$$$$
7
                    3D
 Structure written by MMmdl.
163170  0  0  1  0            999 V2000
  -30.4305  -15.2248   20.3806 C   0  0  0  0  0  0
  -30.4484  -12.7692   19.5369 C   0  0  0  0  0  0
  -29.5447  -12.5778   18.2907 C   0  0  0  0  0  0
  -28.0881  -12.3049   18.7082 C   0  0  0  0  0  0
  -27.6193  -13.2728   19.8241 C   0  0  2  0  0  0
  -28.6498  -13.4178   20.9636 C   0  0  0  0  0  0
  -25.2424  -13.8257   20.5721 C   0  0  0  0  0  0
  -24.1759  -13.0445   20.9228 C   0  0  0  0  0  0
  -24.6413  -11.6940   20.8724 C   0  0  0  0  0  0
  -23.9102  -10.4293   21.0378 C   0  0  0  0  0  0
  -24.3638   -9.4206   21.9164 C   0  0  0  0  0  0
  -23.6302   -8.2247   22.0752 C   0  0  0  0  0  0
  -22.4282   -8.0287   21.3549 C   0  0  0  0  0  0
  -21.9920   -9.0265   20.4652 C   0  0  0  0  0  0
  -22.7263  -10.2136   20.3043 C   0  0  0  0  0  0
  -21.6862   -6.0730   22.5275 C   0  0  0  0  0  0
  -21.4022   -6.5634   23.8209 C   0  0  0  0  0  0
  -21.3658   -5.6789   24.9169 C   0  0  0  0  0  0
  -21.6045   -4.3051   24.7225 C   0  0  0  0  0  0
  -21.8821   -3.8142   23.4343 C   0  0  0  0  0  0
  -21.9192   -4.6954   22.3399 C   0  0  0  0  0  0
  -22.7775  -13.5196   21.1878 C   0  0  0  0  0  0
  -22.1657   -4.2135   21.0978 F   0  0  0  0  0  0
  -21.5624   -3.4542   25.7740 F   0  0  0  0  0  0
  -29.9038  -13.9041   20.3667 N   0  0  0  0  0  0
  -26.2850  -12.9529   20.3185 N   0  0  0  0  0  0
  -25.9351  -11.6634   20.5687 N   0  0  0  0  0  0
  -22.0431  -12.8196   22.0444 N   0  0  0  0  0  0
  -25.4097  -15.1989   20.4174 N   0  0  0  0  0  0
  -31.6306  -15.2506   20.0711 O   0  0  0  0  0  0
  -21.6647   -6.8874   21.4240 O   0  0  0  0  0  0
  -22.3438  -14.5482   20.6698 O   0  0  0  0  0  0
  -24.6614  -31.8269   23.1747 C   0  0  0  0  0  0
  -25.9313  -32.4601   23.8193 C   0  0  1  0  0  0
  -27.2193  -26.9474   20.1545 C   0  0  0  0  0  0
  -25.5994  -33.8417   24.2106 N   0  0  0  0  0  0
  -23.4733  -30.4430   21.5236 C   0  0  2  0  0  0
  -24.9245  -28.8400   20.1085 C   0  0  0  0  0  0
  -22.7646  -29.4465   22.4790 C   0  0  0  0  0  0
  -18.0318  -28.1404   22.8465 C   0  0  0  0  0  0
  -24.1493  -36.7212   23.2648 C   0  0  0  0  0  0
  -26.0427  -30.6375   21.4037 C   0  0  0  0  0  0
  -26.1086  -29.2317   20.7425 C   0  0  0  0  0  0
  -27.2435  -28.3039   20.7485 C   0  0  0  0  0  0
  -25.9963  -26.7110   19.4844 C   0  0  0  0  0  0
  -24.8930  -27.5975   19.4621 C   0  0  0  0  0  0
  -23.7114  -29.7657   20.1462 C   0  0  0  0  0  0
  -25.4134  -36.2978   24.0300 C   0  0  1  0  0  0
  -20.5939  -28.3749   23.1193 C   0  0  2  0  0  0
  -20.6795  -26.9433   22.5404 C   0  0  0  0  0  0
  -19.5769  -26.6372   21.5212 C   0  0  0  0  0  0
  -18.1951  -26.7937   22.1622 C   0  0  0  0  0  0
  -19.1578  -28.8894   23.2814 C   0  0  0  0  0  0
  -18.9495  -30.1484   23.8851 C   0  0  0  0  0  0
  -17.6489  -30.6594   24.0553 C   0  0  0  0  0  0
  -25.9095  -34.9360   23.5021 C   0  0  0  0  0  0
  -16.5378  -29.9083   23.6345 C   0  0  0  0  0  0
  -16.7301  -28.6504   23.0360 C   0  0  0  0  0  0
  -26.4574  -31.6533   25.0716 C   0  0  0  0  0  0
  -25.3714  -31.3777   26.1385 C   0  0  0  0  0  0
  -27.0467  -30.2900   24.6439 C   0  0  0  0  0  0
  -27.6076  -32.4338   25.7515 C   0  0  0  0  0  0
  -27.5567  -37.1766   24.8467 C   0  0  0  0  0  0
  -21.4319  -29.3049   22.3539 N   0  0  0  0  0  0
  -26.4278  -37.3711   23.9406 N   0  0  0  0  0  0
  -24.7471  -30.9947   22.0878 N   0  0  0  0  0  0
  -23.4213  -28.8024   23.3011 O   0  0  0  0  0  0
  -28.2466  -25.8700   20.2863 O   0  0  0  0  0  0
  -26.5701  -34.8889   22.4615 O   0  0  0  0  0  0
  -23.5697  -32.1242   23.6865 O   0  0  0  0  0  0
  -28.5934  -22.8472   20.5847 C   0  0  0  0  0  0
  -30.4233  -19.1601   23.0278 C   0  0  0  0  0  0
  -27.7396  -24.9319   17.2232 C   0  0  0  0  0  0
  -29.2308  -18.4339   18.6740 C   0  0  0  0  0  0
  -29.9264  -24.5427   19.2072 C   0  0  0  0  0  0
  -29.6174  -16.7370   20.7159 C   0  0  0  0  0  0
  -30.2105  -20.2899   22.0138 C   0  0  0  0  0  0
  -27.5936  -24.0089   18.4522 C   0  0  0  0  0  0
  -29.7531  -18.4295   20.1172 C   0  0  2  0  0  0
  -29.2479  -20.0003   20.8332 C   0  0  2  0  0  0
  -28.4745  -24.3413   19.6891 C   0  0  1  0  0  0
  -29.0257  -21.4987   20.1405 N   0  0  0  0  0  0
  -28.2545  -22.9474   21.7646 O   0  0  0  0  0  0
  -31.4729  -12.9604   19.2148 H   0  0  0  0  0  0
  -30.4965  -11.8523   20.1259 H   0  0  0  0  0  0
  -29.9201  -11.7597   17.6735 H   0  0  0  0  0  0
  -29.5846  -13.4743   17.6689 H   0  0  0  0  0  0
  -28.0345  -11.2767   19.0696 H   0  0  0  0  0  0
  -27.4240  -12.3594   17.8447 H   0  0  0  0  0  0
  -27.5471  -14.2478   19.3399 H   0  0  0  0  0  0
  -28.7949  -12.4768   21.4951 H   0  0  0  0  0  0
  -28.2953  -14.1377   21.7025 H   0  0  0  0  0  0
  -25.2789   -9.5686   22.4724 H   0  0  0  0  0  0
  -24.0016   -7.4645   22.7480 H   0  0  0  0  0  0
  -21.0847   -8.8797   19.8964 H   0  0  0  0  0  0
  -22.3732  -10.9668   19.6141 H   0  0  0  0  0  0
  -21.2032   -7.6148   23.9711 H   0  0  0  0  0  0
  -21.1471   -6.0515   25.9068 H   0  0  0  0  0  0
  -22.0603   -2.7603   23.2852 H   0  0  0  0  0  0
  -22.4091  -11.9889   22.4852 H   0  0  0  0  0  0
  -21.1035  -13.1195   22.2629 H   0  0  0  0  0  0
  -24.6473  -15.8569   20.5403 H   0  0  0  0  0  0
  -26.2664  -15.6406   20.1081 H   0  0  0  0  0  0
  -26.7378  -32.5146   23.0902 H   0  0  0  0  0  0
  -25.0098  -33.9496   25.0228 H   0  0  0  0  0  0
  -22.7856  -31.2749   21.3569 H   0  0  0  0  0  0
  -23.3759  -35.9537   23.3292 H   0  0  0  0  0  0
  -24.3567  -36.8880   22.2065 H   0  0  0  0  0  0
  -23.7234  -37.6391   23.6712 H   0  0  0  0  0  0
  -26.2229  -31.3816   20.6267 H   0  0  0  0  0  0
  -26.9028  -30.6921   22.0592 H   0  0  0  0  0  0
  -28.1335  -28.5987   21.2863 H   0  0  0  0  0  0
  -25.8198  -25.7751   18.9957 H   0  0  0  0  0  0
  -23.9910  -27.2873   18.9534 H   0  0  0  0  0  0
  -23.8702  -30.5387   19.3926 H   0  0  0  0  0  0
  -22.8210  -29.2240   19.8241 H   0  0  0  0  0  0
  -25.1323  -36.1785   25.0786 H   0  0  0  0  0  0
  -21.0036  -28.3362   24.1315 H   0  0  0  0  0  0
  -20.5676  -26.2369   23.3646 H   0  0  0  0  0  0
  -21.6658  -26.7412   22.1216 H   0  0  0  0  0  0
  -19.6930  -25.6271   21.1274 H   0  0  0  0  0  0
  -19.6706  -27.3156   20.6721 H   0  0  0  0  0  0
  -17.4223  -26.6684   21.4024 H   0  0  0  0  0  0
  -18.0343  -26.0082   22.9027 H   0  0  0  0  0  0
  -19.7972  -30.7298   24.2213 H   0  0  0  0  0  0
  -17.5047  -31.6273   24.5157 H   0  0  0  0  0  0
  -15.5380  -30.2972   23.7679 H   0  0  0  0  0  0
  -15.8707  -28.0799   22.7109 H   0  0  0  0  0  0
  -24.5909  -30.7106   25.7699 H   0  0  0  0  0  0
  -24.8892  -32.2978   26.4698 H   0  0  0  0  0  0
  -25.7970  -30.9025   27.0232 H   0  0  0  0  0  0
  -26.3134  -29.6575   24.1427 H   0  0  0  0  0  0
  -27.3974  -29.7265   25.5089 H   0  0  0  0  0  0
  -27.9084  -30.4070   23.9868 H   0  0  0  0  0  0
  -27.2644  -33.3671   26.1984 H   0  0  0  0  0  0
  -28.3945  -32.6839   25.0390 H   0  0  0  0  0  0
  -28.0674  -31.8535   26.5524 H   0  0  0  0  0  0
  -28.2577  -38.0068   24.7506 H   0  0  0  0  0  0
  -28.1069  -36.2597   24.6304 H   0  0  0  0  0  0
  -27.2294  -37.1428   25.8873 H   0  0  0  0  0  0
  -20.9567  -29.8753   21.6683 H   0  0  0  0  0  0
  -26.0134  -38.2769   24.1415 H   0  0  0  0  0  0
  -30.9671  -19.5299   23.8976 H   0  0  0  0  0  0
  -31.0234  -18.3537   22.6108 H   0  0  0  0  0  0
  -29.4764  -18.7530   23.3830 H   0  0  0  0  0  0
  -26.9665  -24.7154   16.4856 H   0  0  0  0  0  0
  -28.6997  -24.7825   16.7283 H   0  0  0  0  0  0
  -27.6676  -25.9880   17.4784 H   0  0  0  0  0  0
  -29.6456  -17.6061   18.0982 H   0  0  0  0  0  0
  -29.5016  -19.3561   18.1589 H   0  0  0  0  0  0
  -28.1442  -18.3480   18.6493 H   0  0  0  0  0  0
  -30.0325  -25.4357   18.5903 H   0  0  0  0  0  0
  -30.2860  -23.6955   18.6208 H   0  0  0  0  0  0
  -30.6020  -24.6657   20.0541 H   0  0  0  0  0  0
  -28.5644  -16.4852   20.5922 H   0  0  0  0  0  0
  -29.7183  -16.7991   21.7957 H   0  0  0  0  0  0
  -31.1821  -20.5855   21.6155 H   0  0  0  0  0  0
  -29.8506  -21.1492   22.5776 H   0  0  0  0  0  0
  -27.8364  -23.0048   18.1018 H   0  0  0  0  0  0
  -26.5550  -23.9102   18.7588 H   0  0  0  0  0  0
  -30.8333  -18.5485   20.0145 H   0  0  0  0  0  0
  -28.2667  -19.7945   21.2639 H   0  0  0  0  0  0
  -29.2697  -21.4982   19.1597 H   0  0  0  0  0  0
  1 25  1  0  0  0
  1 30  2  0  0  0
  1 76  1  0  0  0
  2  3  1  0  0  0
  2 25  1  0  0  0
  2 84  1  0  0  0
  2 85  1  0  0  0
  3  4  1  0  0  0
  3 86  1  0  0  0
  3 87  1  0  0  0
  4  5  1  0  0  0
  4 88  1  0  0  0
  4 89  1  0  0  0
  5  6  1  0  0  0
  5 26  1  0  0  0
  5 90  1  0  0  0
  6 25  1  0  0  0
  6 91  1  0  0  0
  6 92  1  0  0  0
  7  8  2  0  0  0
  7 26  1  0  0  0
  7 29  1  0  0  0
  8  9  1  0  0  0
  8 22  1  0  0  0
  9 10  1  0  0  0
  9 27  2  0  0  0
 10 11  2  0  0  0
 10 15  1  0  0  0
 11 12  1  0  0  0
 11 93  1  0  0  0
 12 13  2  0  0  0
 12 94  1  0  0  0
 13 14  1  0  0  0
 13 31  1  0  0  0
 14 15  2  0  0  0
 14 95  1  0  0  0
 15 96  1  0  0  0
 16 17  2  0  0  0
 16 21  1  0  0  0
 16 31  1  0  0  0
 17 18  1  0  0  0
 17 97  1  0  0  0
 18 19  2  0  0  0
 18 98  1  0  0  0
 19 20  1  0  0  0
 19 24  1  0  0  0
 20 21  2  0  0  0
 20 99  1  0  0  0
 21 23  1  0  0  0
 22 28  1  0  0  0
 22 32  2  0  0  0
 26 27  1  0  0  0
 28100  1  0  0  0
 28101  1  0  0  0
 29102  1  0  0  0
 29103  1  0  0  0
 33 34  1  0  0  0
 33 66  1  0  0  0
 33 70  2  0  0  0
 34 36  1  0  0  0
 34 59  1  0  0  0
 34104  1  0  0  0
 35 44  2  0  0  0
 35 45  1  0  0  0
 35 68  1  0  0  0
 36 56  1  0  0  0
 36105  1  0  0  0
 37 39  1  0  0  0
 37 47  1  0  0  0
 37 66  1  0  0  0
 37106  1  0  0  0
 38 43  2  0  0  0
 38 46  1  0  0  0
 38 47  1  0  0  0
 39 64  1  0  0  0
 39 67  2  0  0  0
 40 52  1  0  0  0
 40 53  2  0  0  0
 40 58  1  0  0  0
 41107  1  0  0  0
 41108  1  0  0  0
 41109  1  0  0  0
 41 48  1  0  0  0
 42 43  1  0  0  0
 42 66  1  0  0  0
 42110  1  0  0  0
 42111  1  0  0  0
 43 44  1  0  0  0
 44112  1  0  0  0
 45 46  2  0  0  0
 45113  1  0  0  0
 46114  1  0  0  0
 47115  1  0  0  0
 47116  1  0  0  0
 48 56  1  0  0  0
 48 65  1  0  0  0
 48117  1  0  0  0
 49 50  1  0  0  0
 49 53  1  0  0  0
 49 64  1  0  0  0
 49118  1  0  0  0
 50 51  1  0  0  0
 50119  1  0  0  0
 50120  1  0  0  0
 51 52  1  0  0  0
 51121  1  0  0  0
 51122  1  0  0  0
 52123  1  0  0  0
 52124  1  0  0  0
 53 54  1  0  0  0
 54 55  2  0  0  0
 54125  1  0  0  0
 55 57  1  0  0  0
 55126  1  0  0  0
 56 69  2  0  0  0
 57 58  2  0  0  0
 57127  1  0  0  0
 58128  1  0  0  0
 59 60  1  0  0  0
 59 61  1  0  0  0
 59 62  1  0  0  0
 60129  1  0  0  0
 60130  1  0  0  0
 60131  1  0  0  0
 61132  1  0  0  0
 61133  1  0  0  0
 61134  1  0  0  0
 62135  1  0  0  0
 62136  1  0  0  0
 62137  1  0  0  0
 63 65  1  0  0  0
 63138  1  0  0  0
 63139  1  0  0  0
 63140  1  0  0  0
 64141  1  0  0  0
 65142  1  0  0  0
 68 81  1  0  0  0
 71 82  1  0  0  0
 71 83  2  0  0  0
 71 81  1  0  0  0
 72 77  1  0  0  0
 72143  1  0  0  0
 72144  1  0  0  0
 72145  1  0  0  0
 73 78  1  0  0  0
 73146  1  0  0  0
 73147  1  0  0  0
 73148  1  0  0  0
 74149  1  0  0  0
 74150  1  0  0  0
 74151  1  0  0  0
 74 79  1  0  0  0
 75152  1  0  0  0
 75153  1  0  0  0
 75154  1  0  0  0
 75 81  1  0  0  0
 76 79  1  0  0  0
 76155  1  0  0  0
 76156  1  0  0  0
 77157  1  0  0  0
 77158  1  0  0  0
 77 80  1  0  0  0
 78 81  1  0  0  0
 78159  1  0  0  0
 78160  1  0  0  0
 79 80  1  0  0  0
 79161  1  0  0  0
 80 82  1  0  0  0
 80162  1  0  0  0
 82163  1  0  0  0
M  ISO  4   1 100  68 101  76 100  81 101
M  END
> <chiral flag>
0

> <version>
0

> <s_m_source_file>
/data/baiqing/PycharmProjects/Reinvent-master-3.2/result/LINK_invent/BTK/process_docking_weight1_custom_product_contain_oxygen_bond_distance_aromatic_linkinvent_7_9_3/rearranged_h_0190.sdf

> <i_m_source_file_index>
8

> <r_mmod_Potential_Energy-OPLS-2005>
1224.15600585938

> <r_mmod_Stretch_Energy-OPLS-2005>
604.278503417969

> <r_mmod_Bend_Energy-OPLS-2005>
462.887969970703

> <r_mmod_Torsional_Energy-OPLS-2005>
206.911590576172

> <r_mmod_Improper_Torsional_Energy-OPLS-2005>
1.92364406585693

> <r_mmod_Van_der_Waal_Energy-OPLS-2005>
112.79615020752

> <r_mmod_Electrostatic_Energy-OPLS-2005>
-363.120147705078

> <r_mmod_Solvation_Energy-OPLS-2005>
-217.856658935547

> <b_mmod_Minimization_Converged-OPLS-2005>
0

> <r_mmod_RMS_Derivative-OPLS-2005>
1.68465113639832

$$$$
8
                    3D
 Structure written by MMmdl.
165173  0  0  1  0            999 V2000
  -30.6323  -14.5162   20.6127 C   0  0  0  0  0  0
  -30.4655  -12.3604   19.3977 C   0  0  0  0  0  0
  -29.5155  -12.5126   18.1883 C   0  0  0  0  0  0
  -28.0322  -12.3661   18.5992 C   0  0  0  0  0  0
  -27.6646  -13.1939   19.8590 C   0  0  2  0  0  0
  -28.7086  -12.9505   20.9688 C   0  0  0  0  0  0
  -25.2651  -13.8107   20.5604 C   0  0  0  0  0  0
  -24.1920  -13.0402   20.9143 C   0  0  0  0  0  0
  -24.6447  -11.6845   20.8659 C   0  0  0  0  0  0
  -23.9083  -10.4270   21.0335 C   0  0  0  0  0  0
  -24.3648   -9.4193   21.9132 C   0  0  0  0  0  0
  -23.6313   -8.2243   22.0724 C   0  0  0  0  0  0
  -22.4301   -8.0290   21.3523 C   0  0  0  0  0  0
  -21.9915   -9.0253   20.4637 C   0  0  0  0  0  0
  -22.7234  -10.2115   20.3003 C   0  0  0  0  0  0
  -21.6830   -6.0747   22.5267 C   0  0  0  0  0  0
  -21.4015   -6.5639   23.8212 C   0  0  0  0  0  0
  -21.3662   -5.6797   24.9188 C   0  0  0  0  0  0
  -21.6034   -4.3056   24.7239 C   0  0  0  0  0  0
  -21.8827   -3.8141   23.4363 C   0  0  0  0  0  0
  -21.9200   -4.6969   22.3408 C   0  0  0  0  0  0
  -22.7955  -13.5180   21.1891 C   0  0  0  0  0  0
  -22.1657   -4.2131   21.0993 F   0  0  0  0  0  0
  -21.5635   -3.4547   25.7751 F   0  0  0  0  0  0
  -30.0245  -13.3168   20.4179 N   0  0  0  0  0  0
  -26.3067  -12.9245   20.3247 N   0  0  0  0  0  0
  -25.9365  -11.6420   20.5679 N   0  0  0  0  0  0
  -22.0660  -12.8091   22.0417 N   0  0  0  0  0  0
  -25.4455  -15.1822   20.3976 N   0  0  0  0  0  0
  -31.7918  -14.7572   20.2659 O   0  0  0  0  0  0
  -21.6636   -6.8892   21.4234 O   0  0  0  0  0  0
  -22.3606  -14.5512   20.6804 O   0  0  0  0  0  0
  -24.6170  -31.8686   23.2040 C   0  0  0  0  0  0
  -25.9038  -32.4834   23.8357 C   0  0  1  0  0  0
  -27.2575  -27.4281   20.0838 C   0  0  0  0  0  0
  -25.5850  -33.8620   24.2273 N   0  0  0  0  0  0
  -23.4087  -30.4841   21.5497 C   0  0  2  0  0  0
  -24.8596  -28.9453   20.1145 C   0  0  0  0  0  0
  -22.7433  -29.4635   22.4992 C   0  0  0  0  0  0
  -18.0303  -28.1302   22.8438 C   0  0  0  0  0  0
  -24.1485  -36.7339   23.2632 C   0  0  0  0  0  0
  -25.9383  -30.8262   21.3619 C   0  0  0  0  0  0
  -26.0163  -29.4559   20.7134 C   0  0  0  0  0  0
  -27.2110  -28.7030   20.6976 C   0  0  0  0  0  0
  -26.0795  -26.9297   19.4826 C   0  0  0  0  0  0
  -24.8856  -27.6819   19.4955 C   0  0  0  0  0  0
  -23.6214  -29.8128   20.1652 C   0  0  0  0  0  0
  -25.4103  -36.3130   24.0328 C   0  0  1  0  0  0
  -20.5878  -28.3648   23.1283 C   0  0  2  0  0  0
  -20.6866  -26.9415   22.5356 C   0  0  0  0  0  0
  -19.5847  -26.6324   21.5191 C   0  0  0  0  0  0
  -18.1956  -26.7928   22.1406 C   0  0  0  0  0  0
  -19.1529  -28.8759   23.2857 C   0  0  0  0  0  0
  -18.9462  -30.1392   23.8804 C   0  0  0  0  0  0
  -17.6456  -30.6539   24.0438 C   0  0  0  0  0  0
  -25.9030  -34.9483   23.5126 C   0  0  0  0  0  0
  -16.5358  -29.9004   23.6228 C   0  0  0  0  0  0
  -16.7278  -28.6400   23.0267 C   0  0  0  0  0  0
  -26.4444  -31.6594   25.0675 C   0  0  0  0  0  0
  -25.3667  -31.3748   26.1394 C   0  0  0  0  0  0
  -27.0232  -30.3020   24.6022 C   0  0  0  0  0  0
  -27.6004  -32.4319   25.7433 C   0  0  0  0  0  0
  -27.5589  -37.1826   24.8457 C   0  0  0  0  0  0
  -21.4143  -29.3068   22.3751 N   0  0  0  0  0  0
  -26.4293  -37.3814   23.9409 N   0  0  0  0  0  0
  -24.6748  -31.0721   22.0991 N   0  0  0  0  0  0
  -23.4195  -28.8143   23.3020 O   0  0  0  0  0  0
  -28.4577  -26.7411   20.1105 O   0  0  0  0  0  0
  -26.5657  -34.8941   22.4721 O   0  0  0  0  0  0
  -23.5352  -32.1417   23.7433 O   0  0  0  0  0  0
  -31.6690  -18.4633   21.9587 C   0  0  0  0  0  0
  -31.8992  -19.7805   21.5487 C   0  0  0  0  0  0
  -30.5019  -17.8474   21.4968 C   0  0  0  0  0  0
  -29.9534  -19.7546   20.3693 C   0  0  0  0  0  0
  -28.6827  -17.8851   23.8427 C   0  0  0  0  0  0
  -27.8923  -21.5192   21.5947 C   0  0  0  0  0  0
  -28.7640  -16.6533   22.9566 C   0  0  0  0  0  0
  -28.1788  -24.2402   20.0810 C   0  0  0  0  0  0
  -29.0020  -22.9640   19.7357 C   0  0  0  0  0  0
  -28.6702  -25.5292   19.3696 C   0  0  0  0  0  0
  -30.0462  -16.5102   22.0796 C   0  0  1  0  0  0
  -28.3018  -21.6289   20.1164 C   0  0  2  0  0  0
  -31.0199  -20.4326   20.7674 N   0  0  0  0  0  0
  -29.6612  -18.4927   20.6605 N   0  0  0  0  0  0
  -28.9313  -17.8785   25.0833 N   0  0  0  0  0  0
  -29.0000  -20.4254   19.6398 N   0  0  0  0  0  0
  -29.7968  -15.4432   21.1103 N   0  0  0  0  0  0
  -31.4958  -12.5429   19.0875 H   0  0  0  0  0  0
  -30.4429  -11.3463   19.7947 H   0  0  0  0  0  0
  -29.7670  -11.7830   17.4158 H   0  0  0  0  0  0
  -29.6712  -13.4948   17.7384 H   0  0  0  0  0  0
  -27.8356  -11.3113   18.7793 H   0  0  0  0  0  0
  -27.3953  -12.6568   17.7610 H   0  0  0  0  0  0
  -27.7065  -14.2450   19.5648 H   0  0  0  0  0  0
  -28.7190  -11.9006   21.2616 H   0  0  0  0  0  0
  -28.4592  -13.4966   21.8828 H   0  0  0  0  0  0
  -25.2831   -9.5621   22.4684 H   0  0  0  0  0  0
  -23.9999   -7.4599   22.7423 H   0  0  0  0  0  0
  -21.0842   -8.8786   19.8933 H   0  0  0  0  0  0
  -22.3723  -10.9669   19.6104 H   0  0  0  0  0  0
  -21.2012   -7.6143   23.9701 H   0  0  0  0  0  0
  -21.1463   -6.0543   25.9085 H   0  0  0  0  0  0
  -22.0609   -2.7600   23.2876 H   0  0  0  0  0  0
  -22.4352  -11.9680   22.4593 H   0  0  0  0  0  0
  -21.1339  -13.1067   22.2884 H   0  0  0  0  0  0
  -24.6708  -15.8359   20.4619 H   0  0  0  0  0  0
  -26.2730  -15.5873   19.9769 H   0  0  0  0  0  0
  -26.7100  -32.5558   23.1121 H   0  0  0  0  0  0
  -24.9864  -33.9781   25.0326 H   0  0  0  0  0  0
  -22.7020  -31.3050   21.4043 H   0  0  0  0  0  0
  -23.3746  -35.9688   23.3306 H   0  0  0  0  0  0
  -24.3565  -36.8955   22.2048 H   0  0  0  0  0  0
  -23.7258  -37.6543   23.6644 H   0  0  0  0  0  0
  -26.0485  -31.5836   20.5835 H   0  0  0  0  0  0
  -26.8292  -30.8888   21.9768 H   0  0  0  0  0  0
  -28.1044  -29.1039   21.1552 H   0  0  0  0  0  0
  -26.0686  -25.9626   19.0056 H   0  0  0  0  0  0
  -23.9977  -27.2823   19.0250 H   0  0  0  0  0  0
  -23.7373  -30.5887   19.4092 H   0  0  0  0  0  0
  -22.7489  -29.2301   19.8648 H   0  0  0  0  0  0
  -25.1300  -36.1997   25.0826 H   0  0  0  0  0  0
  -20.9966  -28.3208   24.1407 H   0  0  0  0  0  0
  -20.5980  -26.2235   23.3545 H   0  0  0  0  0  0
  -21.6709  -26.7666   22.0974 H   0  0  0  0  0  0
  -19.7038  -25.6226   21.1221 H   0  0  0  0  0  0
  -19.6837  -27.3108   20.6724 H   0  0  0  0  0  0
  -17.4462  -26.7034   21.3535 H   0  0  0  0  0  0
  -18.0011  -25.9893   22.8500 H   0  0  0  0  0  0
  -19.7943  -30.7208   24.2111 H   0  0  0  0  0  0
  -17.5020  -31.6254   24.4949 H   0  0  0  0  0  0
  -15.5344  -30.2892   23.7495 H   0  0  0  0  0  0
  -15.8698  -28.0729   22.6934 H   0  0  0  0  0  0
  -24.5815  -30.7142   25.7695 H   0  0  0  0  0  0
  -24.8873  -32.2927   26.4776 H   0  0  0  0  0  0
  -25.7937  -30.8909   27.0180 H   0  0  0  0  0  0
  -26.2753  -29.6860   24.0998 H   0  0  0  0  0  0
  -27.3918  -29.7169   25.4450 H   0  0  0  0  0  0
  -27.8633  -30.4319   23.9206 H   0  0  0  0  0  0
  -27.2589  -33.3604   26.2032 H   0  0  0  0  0  0
  -28.3778  -32.6932   25.0235 H   0  0  0  0  0  0
  -28.0712  -31.8439   26.5326 H   0  0  0  0  0  0
  -28.2627  -38.0106   24.7506 H   0  0  0  0  0  0
  -28.1078  -36.2643   24.6287 H   0  0  0  0  0  0
  -27.2315  -37.1486   25.8863 H   0  0  0  0  0  0
  -20.9305  -29.8873   21.7047 H   0  0  0  0  0  0
  -26.0200  -38.2916   24.1357 H   0  0  0  0  0  0
  -32.3440  -17.9720   22.6480 H   0  0  0  0  0  0
  -32.7675  -20.3296   21.8832 H   0  0  0  0  0  0
  -28.3690  -18.7995   23.3308 H   0  0  0  0  0  0
  -27.2259  -22.3337   21.8790 H   0  0  0  0  0  0
  -28.7494  -21.5515   22.2658 H   0  0  0  0  0  0
  -27.3448  -20.5944   21.7824 H   0  0  0  0  0  0
  -28.6105  -15.7527   23.5610 H   0  0  0  0  0  0
  -27.8959  -16.7134   22.2971 H   0  0  0  0  0  0
  -28.1999  -24.3937   21.1619 H   0  0  0  0  0  0
  -27.1343  -24.0728   19.8196 H   0  0  0  0  0  0
  -29.9860  -23.0301   20.2055 H   0  0  0  0  0  0
  -29.1849  -22.9499   18.6620 H   0  0  0  0  0  0
  -28.2709  -25.5974   18.3550 H   0  0  0  0  0  0
  -29.7531  -25.4596   19.2523 H   0  0  0  0  0  0
  -30.8421  -16.1589   22.7376 H   0  0  0  0  0  0
  -27.3690  -21.6101   19.5511 H   0  0  0  0  0  0
  -28.8030  -18.8020   25.4919 H   0  0  0  0  0  0
  -28.3479  -19.7713   19.2220 H   0  0  0  0  0  0
  -28.8301  -15.1608   21.0868 H   0  0  0  0  0  0
  1 25  1  0  0  0
  1 30  2  0  0  0
  1 87  1  0  0  0
  2  3  1  0  0  0
  2 25  1  0  0  0
  2 88  1  0  0  0
  2 89  1  0  0  0
  3  4  1  0  0  0
  3 90  1  0  0  0
  3 91  1  0  0  0
  4  5  1  0  0  0
  4 92  1  0  0  0
  4 93  1  0  0  0
  5  6  1  0  0  0
  5 26  1  0  0  0
  5 94  1  0  0  0
  6 25  1  0  0  0
  6 95  1  0  0  0
  6 96  1  0  0  0
  7  8  2  0  0  0
  7 26  1  0  0  0
  7 29  1  0  0  0
  8  9  1  0  0  0
  8 22  1  0  0  0
  9 10  1  0  0  0
  9 27  2  0  0  0
 10 11  2  0  0  0
 10 15  1  0  0  0
 11 12  1  0  0  0
 11 97  1  0  0  0
 12 13  2  0  0  0
 12 98  1  0  0  0
 13 14  1  0  0  0
 13 31  1  0  0  0
 14 15  2  0  0  0
 14 99  1  0  0  0
 15100  1  0  0  0
 16 17  2  0  0  0
 16 21  1  0  0  0
 16 31  1  0  0  0
 17 18  1  0  0  0
 17101  1  0  0  0
 18 19  2  0  0  0
 18102  1  0  0  0
 19 20  1  0  0  0
 19 24  1  0  0  0
 20 21  2  0  0  0
 20103  1  0  0  0
 21 23  1  0  0  0
 22 28  1  0  0  0
 22 32  2  0  0  0
 26 27  1  0  0  0
 28104  1  0  0  0
 28105  1  0  0  0
 29106  1  0  0  0
 29107  1  0  0  0
 33 34  1  0  0  0
 33 66  1  0  0  0
 33 70  2  0  0  0
 34 36  1  0  0  0
 34 59  1  0  0  0
 34108  1  0  0  0
 35 44  2  0  0  0
 35 45  1  0  0  0
 35 68  1  0  0  0
 36 56  1  0  0  0
 36109  1  0  0  0
 37 39  1  0  0  0
 37 47  1  0  0  0
 37 66  1  0  0  0
 37110  1  0  0  0
 38 43  2  0  0  0
 38 46  1  0  0  0
 38 47  1  0  0  0
 39 64  1  0  0  0
 39 67  2  0  0  0
 40 52  1  0  0  0
 40 53  2  0  0  0
 40 58  1  0  0  0
 41111  1  0  0  0
 41112  1  0  0  0
 41113  1  0  0  0
 41 48  1  0  0  0
 42 43  1  0  0  0
 42 66  1  0  0  0
 42114  1  0  0  0
 42115  1  0  0  0
 43 44  1  0  0  0
 44116  1  0  0  0
 45 46  2  0  0  0
 45117  1  0  0  0
 46118  1  0  0  0
 47119  1  0  0  0
 47120  1  0  0  0
 48 56  1  0  0  0
 48 65  1  0  0  0
 48121  1  0  0  0
 49 50  1  0  0  0
 49 53  1  0  0  0
 49 64  1  0  0  0
 49122  1  0  0  0
 50 51  1  0  0  0
 50123  1  0  0  0
 50124  1  0  0  0
 51 52  1  0  0  0
 51125  1  0  0  0
 51126  1  0  0  0
 52127  1  0  0  0
 52128  1  0  0  0
 53 54  1  0  0  0
 54 55  2  0  0  0
 54129  1  0  0  0
 55 57  1  0  0  0
 55130  1  0  0  0
 56 69  2  0  0  0
 57 58  2  0  0  0
 57131  1  0  0  0
 58132  1  0  0  0
 59 60  1  0  0  0
 59 61  1  0  0  0
 59 62  1  0  0  0
 60133  1  0  0  0
 60134  1  0  0  0
 60135  1  0  0  0
 61136  1  0  0  0
 61137  1  0  0  0
 61138  1  0  0  0
 62139  1  0  0  0
 62140  1  0  0  0
 62141  1  0  0  0
 63 65  1  0  0  0
 63142  1  0  0  0
 63143  1  0  0  0
 63144  1  0  0  0
 64145  1  0  0  0
 65146  1  0  0  0
 68 80  1  0  0  0
 71 72  2  0  0  0
 71 73  1  0  0  0
 71147  1  0  0  0
 72 83  1  0  0  0
 72148  1  0  0  0
 73 81  1  0  0  0
 73 84  2  0  0  0
 74 83  2  0  0  0
 74 84  1  0  0  0
 74 86  1  0  0  0
 75 77  1  0  0  0
 75 85  2  0  0  0
 75149  1  0  0  0
 76150  1  0  0  0
 76151  1  0  0  0
 76152  1  0  0  0
 76 82  1  0  0  0
 77153  1  0  0  0
 77154  1  0  0  0
 77 81  1  0  0  0
 78 79  1  0  0  0
 78 80  1  0  0  0
 78155  1  0  0  0
 78156  1  0  0  0
 79 82  1  0  0  0
 79157  1  0  0  0
 79158  1  0  0  0
 80159  1  0  0  0
 80160  1  0  0  0
 81 87  1  0  0  0
 81161  1  0  0  0
 82 86  1  0  0  0
 82162  1  0  0  0
 85163  1  0  0  0
 86164  1  0  0  0
 87165  1  0  0  0
M  ISO  4   1 100  68 101  80 101  87 100
M  END
> <chiral flag>
0

> <version>
0

> <s_m_source_file>
/data/baiqing/PycharmProjects/Reinvent-master-3.2/result/LINK_invent/BTK/process_docking_weight1_custom_product_contain_oxygen_bond_distance_aromatic_linkinvent_7_9_3/rearranged_h_0190.sdf

> <i_m_source_file_index>
9

> <r_mmod_Potential_Energy-OPLS-2005>
-784.495178222656

> <r_mmod_Stretch_Energy-OPLS-2005>
36.6368980407715

> <r_mmod_Bend_Energy-OPLS-2005>
124.324310302734

> <r_mmod_Torsional_Energy-OPLS-2005>
220.210433959961

> <r_mmod_Improper_Torsional_Energy-OPLS-2005>
9.71818065643311

> <r_mmod_Van_der_Waal_Energy-OPLS-2005>
153.288421630859

> <r_mmod_Electrostatic_Energy-OPLS-2005>
-1095.72265625

> <r_mmod_Solvation_Energy-OPLS-2005>
-255.330169677734

> <b_mmod_Minimization_Converged-OPLS-2005>
0

> <r_mmod_RMS_Derivative-OPLS-2005>
6.12385654449463

$$$$
9
                    3D
 Structure written by MMmdl.
155163  0  0  1  0            999 V2000
  -30.6744  -14.4885   20.5956 C   0  0  0  0  0  0
  -30.4329  -12.3199   19.4245 C   0  0  0  0  0  0
  -29.4976  -12.5096   18.2095 C   0  0  0  0  0  0
  -28.0195  -12.3605   18.6222 C   0  0  0  0  0  0
  -27.6653  -13.2024   19.8777 C   0  0  2  0  0  0
  -28.7033  -12.9666   20.9987 C   0  0  0  0  0  0
  -25.2607  -13.8159   20.5684 C   0  0  0  0  0  0
  -24.1850  -13.0429   20.9200 C   0  0  0  0  0  0
  -24.6404  -11.6910   20.8729 C   0  0  0  0  0  0
  -23.9073  -10.4285   21.0393 C   0  0  0  0  0  0
  -24.3623   -9.4197   21.9169 C   0  0  0  0  0  0
  -23.6294   -8.2232   22.0733 C   0  0  0  0  0  0
  -22.4275   -8.0277   21.3534 C   0  0  0  0  0  0
  -21.9920   -9.0252   20.4636 C   0  0  0  0  0  0
  -22.7251  -10.2127   20.3046 C   0  0  0  0  0  0
  -21.6837   -6.0744   22.5288 C   0  0  0  0  0  0
  -21.4009   -6.5642   23.8228 C   0  0  0  0  0  0
  -21.3669   -5.6781   24.9182 C   0  0  0  0  0  0
  -21.6045   -4.3046   24.7217 C   0  0  0  0  0  0
  -21.8823   -3.8156   23.4335 C   0  0  0  0  0  0
  -21.9195   -4.6978   22.3401 C   0  0  0  0  0  0
  -22.7878  -13.5233   21.1874 C   0  0  0  0  0  0
  -22.1658   -4.2171   21.0975 F   0  0  0  0  0  0
  -21.5635   -3.4531   25.7728 F   0  0  0  0  0  0
  -30.0400  -13.2885   20.4641 N   0  0  0  0  0  0
  -26.3041  -12.9314   20.3361 N   0  0  0  0  0  0
  -25.9330  -11.6486   20.5769 N   0  0  0  0  0  0
  -22.0524  -12.8190   22.0425 N   0  0  0  0  0  0
  -25.4287  -15.1874   20.4078 N   0  0  0  0  0  0
  -31.7477  -14.7401   20.0373 O   0  0  0  0  0  0
  -21.6625   -6.8887   21.4248 O   0  0  0  0  0  0
  -22.3562  -14.5539   20.6736 O   0  0  0  0  0  0
  -24.6157  -31.8689   23.2116 C   0  0  0  0  0  0
  -25.9062  -32.4817   23.8397 C   0  0  1  0  0  0
  -27.2375  -27.4153   20.1041 C   0  0  0  0  0  0
  -25.5934  -33.8624   24.2318 N   0  0  0  0  0  0
  -23.4067  -30.4957   21.5485 C   0  0  2  0  0  0
  -24.8533  -28.9608   20.1146 C   0  0  0  0  0  0
  -22.7433  -29.4691   22.4952 C   0  0  0  0  0  0
  -18.0332  -28.1374   22.8488 C   0  0  0  0  0  0
  -24.1516  -36.7317   23.2626 C   0  0  0  0  0  0
  -25.9361  -30.8316   21.3699 C   0  0  0  0  0  0
  -26.0141  -29.4661   20.7093 C   0  0  0  0  0  0
  -27.2060  -28.7031   20.6962 C   0  0  0  0  0  0
  -26.0486  -26.9262   19.5136 C   0  0  0  0  0  0
  -24.8649  -27.6893   19.5177 C   0  0  0  0  0  0
  -23.6206  -29.8360   20.1609 C   0  0  0  0  0  0
  -25.4130  -36.3109   24.0326 C   0  0  1  0  0  0
  -20.5901  -28.3722   23.1321 C   0  0  2  0  0  0
  -20.6911  -26.9489   22.5373 C   0  0  0  0  0  0
  -19.5874  -26.6379   21.5213 C   0  0  0  0  0  0
  -18.2044  -26.7954   22.1601 C   0  0  0  0  0  0
  -19.1556  -28.8845   23.2922 C   0  0  0  0  0  0
  -18.9459  -30.1438   23.8935 C   0  0  0  0  0  0
  -17.6451  -30.6563   24.0601 C   0  0  0  0  0  0
  -25.9045  -34.9484   23.5105 C   0  0  0  0  0  0
  -16.5358  -29.9021   23.6365 C   0  0  0  0  0  0
  -16.7307  -28.6444   23.0382 C   0  0  0  0  0  0
  -26.4510  -31.6592   25.0722 C   0  0  0  0  0  0
  -25.3778  -31.3701   26.1454 C   0  0  0  0  0  0
  -27.0347  -30.3025   24.6135 C   0  0  0  0  0  0
  -27.6084  -32.4299   25.7508 C   0  0  0  0  0  0
  -27.5597  -37.1822   24.8455 C   0  0  0  0  0  0
  -21.4146  -29.3163   22.3780 N   0  0  0  0  0  0
  -26.4316  -37.3785   23.9388 N   0  0  0  0  0  0
  -24.6706  -31.0776   22.1037 N   0  0  0  0  0  0
  -23.4196  -28.8154   23.2945 O   0  0  0  0  0  0
  -28.4275  -26.6996   20.1279 O   0  0  0  0  0  0
  -26.5565  -34.8930   22.4647 O   0  0  0  0  0  0
  -23.5344  -32.1466   23.7486 O   0  0  0  0  0  0
  -29.3493  -18.9211   21.9973 C   0  0  0  0  0  0
  -29.8610  -17.3620   19.8613 C   0  0  0  0  0  0
  -29.2432  -19.4652   20.6870 C   0  0  0  0  0  0
  -29.9052  -16.8070   21.1699 C   0  0  0  0  0  0
  -28.6942  -21.8579   21.2853 C   0  0  0  0  0  0
  -26.4129  -22.6773   21.8422 C   0  0  0  0  0  0
  -28.1020  -24.4579   21.1934 C   0  0  0  0  0  0
  -28.4457  -25.2703   19.9142 C   0  0  0  0  0  0
  -27.6520  -22.9688   20.9722 C   0  0  1  0  0  0
  -29.5211  -18.6603   19.6250 N   0  0  0  0  0  0
  -29.6575  -17.6160   22.2325 N   0  0  0  0  0  0
  -28.7109  -20.7802   20.4675 N   0  0  0  0  0  0
  -30.0439  -15.3966   21.3697 N   0  0  0  0  0  0
  -29.4399  -21.9779   22.2595 O   0  0  0  0  0  0
  -31.4753  -12.4341   19.1214 H   0  0  0  0  0  0
  -30.3521  -11.3046   19.8144 H   0  0  0  0  0  0
  -29.7411  -11.7854   17.4299 H   0  0  0  0  0  0
  -29.6559  -13.4976   17.7742 H   0  0  0  0  0  0
  -27.8362  -11.3029   18.8190 H   0  0  0  0  0  0
  -27.3649  -12.6304   17.7925 H   0  0  0  0  0  0
  -27.7137  -14.2521   19.5839 H   0  0  0  0  0  0
  -28.6823  -11.9220   21.3130 H   0  0  0  0  0  0
  -28.4476  -13.5404   21.8886 H   0  0  0  0  0  0
  -25.2778   -9.5651   22.4734 H   0  0  0  0  0  0
  -24.0018   -7.4605   22.7422 H   0  0  0  0  0  0
  -21.0869   -8.8781   19.8911 H   0  0  0  0  0  0
  -22.3744  -10.9664   19.6146 H   0  0  0  0  0  0
  -21.1988   -7.6152   23.9741 H   0  0  0  0  0  0
  -21.1489   -6.0506   25.9089 H   0  0  0  0  0  0
  -22.0594   -2.7625   23.2823 H   0  0  0  0  0  0
  -22.4145  -11.9867   22.4826 H   0  0  0  0  0  0
  -21.1129  -13.1182   22.2615 H   0  0  0  0  0  0
  -24.6532  -15.8329   20.5084 H   0  0  0  0  0  0
  -26.2815  -15.6373   20.0989 H   0  0  0  0  0  0
  -26.7112  -32.5535   23.1140 H   0  0  0  0  0  0
  -25.0236  -33.9759   25.0567 H   0  0  0  0  0  0
  -22.6969  -31.3148   21.4096 H   0  0  0  0  0  0
  -23.3776  -35.9649   23.3296 H   0  0  0  0  0  0
  -24.3616  -36.8924   22.2035 H   0  0  0  0  0  0
  -23.7293  -37.6537   23.6643 H   0  0  0  0  0  0
  -26.0560  -31.6061   20.6105 H   0  0  0  0  0  0
  -26.8168  -30.8680   21.9992 H   0  0  0  0  0  0
  -28.1005  -29.0980   21.1592 H   0  0  0  0  0  0
  -26.0002  -25.9599   19.0401 H   0  0  0  0  0  0
  -23.9700  -27.2853   19.0634 H   0  0  0  0  0  0
  -23.7519  -30.6190   19.4139 H   0  0  0  0  0  0
  -22.7441  -29.2697   19.8436 H   0  0  0  0  0  0
  -25.1325  -36.1970   25.0820 H   0  0  0  0  0  0
  -20.9994  -28.3231   24.1444 H   0  0  0  0  0  0
  -20.6017  -26.2299   23.3531 H   0  0  0  0  0  0
  -21.6782  -26.7719   22.1091 H   0  0  0  0  0  0
  -19.7100  -25.6284   21.1297 H   0  0  0  0  0  0
  -19.6828  -27.3181   20.6737 H   0  0  0  0  0  0
  -18.0435  -26.0143   22.9029 H   0  0  0  0  0  0
  -17.4362  -26.6703   21.3964 H   0  0  0  0  0  0
  -19.7937  -30.7232   24.2336 H   0  0  0  0  0  0
  -17.5012  -31.6210   24.5258 H   0  0  0  0  0  0
  -15.5335  -30.2845   23.7795 H   0  0  0  0  0  0
  -15.8720  -28.0739   22.7119 H   0  0  0  0  0  0
  -24.5951  -30.7049   25.7790 H   0  0  0  0  0  0
  -24.8976  -32.2855   26.4910 H   0  0  0  0  0  0
  -25.8107  -30.8868   27.0217 H   0  0  0  0  0  0
  -26.2890  -29.6750   24.1228 H   0  0  0  0  0  0
  -27.4141  -29.7299   25.4617 H   0  0  0  0  0  0
  -27.8731  -30.4323   23.9283 H   0  0  0  0  0  0
  -27.2697  -33.3568   26.2148 H   0  0  0  0  0  0
  -28.3888  -32.6886   25.0343 H   0  0  0  0  0  0
  -28.0777  -31.8397   26.5387 H   0  0  0  0  0  0
  -28.2610  -38.0126   24.7509 H   0  0  0  0  0  0
  -28.1102  -36.2654   24.6293 H   0  0  0  0  0  0
  -27.2292  -37.1482   25.8850 H   0  0  0  0  0  0
  -20.9275  -29.9117   21.7235 H   0  0  0  0  0  0
  -26.0206  -38.2865   24.1379 H   0  0  0  0  0  0
  -29.1126  -19.5056   22.8742 H   0  0  0  0  0  0
  -30.0169  -16.7433   18.9878 H   0  0  0  0  0  0
  -26.0403  -21.6661   21.6788 H   0  0  0  0  0  0
  -25.5965  -23.3670   21.6266 H   0  0  0  0  0  0
  -26.6465  -22.7755   22.9040 H   0  0  0  0  0  0
  -27.2932  -24.9873   21.7020 H   0  0  0  0  0  0
  -28.9426  -24.5166   21.8885 H   0  0  0  0  0  0
  -27.8352  -24.9819   19.0621 H   0  0  0  0  0  0
  -29.4606  -25.0085   19.6135 H   0  0  0  0  0  0
  -27.3414  -22.8600   19.9313 H   0  0  0  0  0  0
  -28.1797  -20.8804   19.6149 H   0  0  0  0  0  0
  -29.3742  -14.9973   22.0093 H   0  0  0  0  0  0
  1 25  1  0  0  0
  1 30  2  0  0  0
  1 83  1  0  0  0
  2  3  1  0  0  0
  2 25  1  0  0  0
  2 85  1  0  0  0
  2 86  1  0  0  0
  3  4  1  0  0  0
  3 87  1  0  0  0
  3 88  1  0  0  0
  4  5  1  0  0  0
  4 89  1  0  0  0
  4 90  1  0  0  0
  5  6  1  0  0  0
  5 26  1  0  0  0
  5 91  1  0  0  0
  6 25  1  0  0  0
  6 92  1  0  0  0
  6 93  1  0  0  0
  7  8  2  0  0  0
  7 26  1  0  0  0
  7 29  1  0  0  0
  8  9  1  0  0  0
  8 22  1  0  0  0
  9 10  1  0  0  0
  9 27  2  0  0  0
 10 11  2  0  0  0
 10 15  1  0  0  0
 11 12  1  0  0  0
 11 94  1  0  0  0
 12 13  2  0  0  0
 12 95  1  0  0  0
 13 14  1  0  0  0
 13 31  1  0  0  0
 14 15  2  0  0  0
 14 96  1  0  0  0
 15 97  1  0  0  0
 16 17  2  0  0  0
 16 21  1  0  0  0
 16 31  1  0  0  0
 17 18  1  0  0  0
 17 98  1  0  0  0
 18 19  2  0  0  0
 18 99  1  0  0  0
 19 20  1  0  0  0
 19 24  1  0  0  0
 20 21  2  0  0  0
 20100  1  0  0  0
 21 23  1  0  0  0
 22 28  1  0  0  0
 22 32  2  0  0  0
 26 27  1  0  0  0
 28101  1  0  0  0
 28102  1  0  0  0
 29103  1  0  0  0
 29104  1  0  0  0
 33 34  1  0  0  0
 33 66  1  0  0  0
 33 70  2  0  0  0
 34 36  1  0  0  0
 34 59  1  0  0  0
 34105  1  0  0  0
 35 44  2  0  0  0
 35 45  1  0  0  0
 35 68  1  0  0  0
 36 56  1  0  0  0
 36106  1  0  0  0
 37 39  1  0  0  0
 37 47  1  0  0  0
 37 66  1  0  0  0
 37107  1  0  0  0
 38 43  2  0  0  0
 38 46  1  0  0  0
 38 47  1  0  0  0
 39 64  1  0  0  0
 39 67  2  0  0  0
 40 52  1  0  0  0
 40 53  2  0  0  0
 40 58  1  0  0  0
 41108  1  0  0  0
 41109  1  0  0  0
 41110  1  0  0  0
 41 48  1  0  0  0
 42 43  1  0  0  0
 42 66  1  0  0  0
 42111  1  0  0  0
 42112  1  0  0  0
 43 44  1  0  0  0
 44113  1  0  0  0
 45 46  2  0  0  0
 45114  1  0  0  0
 46115  1  0  0  0
 47116  1  0  0  0
 47117  1  0  0  0
 48 56  1  0  0  0
 48 65  1  0  0  0
 48118  1  0  0  0
 49 50  1  0  0  0
 49 53  1  0  0  0
 49 64  1  0  0  0
 49119  1  0  0  0
 50 51  1  0  0  0
 50120  1  0  0  0
 50121  1  0  0  0
 51 52  1  0  0  0
 51122  1  0  0  0
 51123  1  0  0  0
 52124  1  0  0  0
 52125  1  0  0  0
 53 54  1  0  0  0
 54 55  2  0  0  0
 54126  1  0  0  0
 55 57  1  0  0  0
 55127  1  0  0  0
 56 69  2  0  0  0
 57 58  2  0  0  0
 57128  1  0  0  0
 58129  1  0  0  0
 59 60  1  0  0  0
 59 61  1  0  0  0
 59 62  1  0  0  0
 60130  1  0  0  0
 60131  1  0  0  0
 60132  1  0  0  0
 61133  1  0  0  0
 61134  1  0  0  0
 61135  1  0  0  0
 62136  1  0  0  0
 62137  1  0  0  0
 62138  1  0  0  0
 63 65  1  0  0  0
 63139  1  0  0  0
 63140  1  0  0  0
 63141  1  0  0  0
 64142  1  0  0  0
 65143  1  0  0  0
 68 78  1  0  0  0
 71 73  2  0  0  0
 71 81  1  0  0  0
 71144  1  0  0  0
 72 74  1  0  0  0
 72 80  2  0  0  0
 72145  1  0  0  0
 73 80  1  0  0  0
 73 82  1  0  0  0
 74 81  2  0  0  0
 74 83  1  0  0  0
 75 79  1  0  0  0
 75 82  1  0  0  0
 75 84  2  0  0  0
 76146  1  0  0  0
 76147  1  0  0  0
 76148  1  0  0  0
 76 79  1  0  0  0
 77 78  1  0  0  0
 77 79  1  0  0  0
 77149  1  0  0  0
 77150  1  0  0  0
 78151  1  0  0  0
 78152  1  0  0  0
 79153  1  0  0  0
 82154  1  0  0  0
 83155  1  0  0  0
M  ISO  4   1 100  68 101  78 101  83 100
M  END
> <chiral flag>
0

> <version>
0

> <s_m_source_file>
/data/baiqing/PycharmProjects/Reinvent-master-3.2/result/LINK_invent/BTK/process_docking_weight1_custom_product_contain_oxygen_bond_distance_aromatic_linkinvent_7_9_3/rearranged_h_0190.sdf

> <i_m_source_file_index>
10

> <r_mmod_Potential_Energy-OPLS-2005>
-95.4014358520508

> <r_mmod_Stretch_Energy-OPLS-2005>
46.8831481933594

> <r_mmod_Bend_Energy-OPLS-2005>
121.49055480957

> <r_mmod_Torsional_Energy-OPLS-2005>
251.680053710938

> <r_mmod_Improper_Torsional_Energy-OPLS-2005>
4.41577529907227

> <r_mmod_Van_der_Waal_Energy-OPLS-2005>
158.265472412109

> <r_mmod_Electrostatic_Energy-OPLS-2005>
-455.848266601562

> <r_mmod_Solvation_Energy-OPLS-2005>
-236.986587524414

> <b_mmod_Minimization_Converged-OPLS-2005>
0

> <r_mmod_RMS_Derivative-OPLS-2005>
4.05495882034302

$$$$
10
                    3D
 Structure written by MMmdl.
163171  0  0  1  0            999 V2000
  -30.7410  -14.4334   20.5838 C   0  0  0  0  0  0
  -30.4073  -12.2904   19.4145 C   0  0  0  0  0  0
  -29.4860  -12.5079   18.1984 C   0  0  0  0  0  0
  -28.0077  -12.3743   18.6108 C   0  0  0  0  0  0
  -27.6593  -13.2115   19.8710 C   0  0  2  0  0  0
  -28.7025  -12.9998   20.9919 C   0  0  0  0  0  0
  -25.2567  -13.8175   20.5665 C   0  0  0  0  0  0
  -24.1837  -13.0453   20.9188 C   0  0  0  0  0  0
  -24.6390  -11.6933   20.8736 C   0  0  0  0  0  0
  -23.9053  -10.4319   21.0407 C   0  0  0  0  0  0
  -24.3612   -9.4227   21.9182 C   0  0  0  0  0  0
  -23.6299   -8.2246   22.0743 C   0  0  0  0  0  0
  -22.4272   -8.0282   21.3533 C   0  0  0  0  0  0
  -21.9907   -9.0257   20.4632 C   0  0  0  0  0  0
  -22.7228  -10.2146   20.3057 C   0  0  0  0  0  0
  -21.6852   -6.0742   22.5287 C   0  0  0  0  0  0
  -21.4002   -6.5629   23.8224 C   0  0  0  0  0  0
  -21.3670   -5.6779   24.9176 C   0  0  0  0  0  0
  -21.6058   -4.3044   24.7219 C   0  0  0  0  0  0
  -21.8812   -3.8145   23.4333 C   0  0  0  0  0  0
  -21.9185   -4.6970   22.3398 C   0  0  0  0  0  0
  -22.7844  -13.5235   21.1851 C   0  0  0  0  0  0
  -22.1656   -4.2151   21.0972 F   0  0  0  0  0  0
  -21.5642   -3.4529   25.7732 F   0  0  0  0  0  0
  -30.0328  -13.2842   20.4326 N   0  0  0  0  0  0
  -26.3017  -12.9366   20.3358 N   0  0  0  0  0  0
  -25.9323  -11.6513   20.5767 N   0  0  0  0  0  0
  -22.0492  -12.8248   22.0417 N   0  0  0  0  0  0
  -25.4236  -15.1894   20.3968 N   0  0  0  0  0  0
  -31.8627  -14.5898   20.0974 O   0  0  0  0  0  0
  -21.6629   -6.8880   21.4249 O   0  0  0  0  0  0
  -22.3536  -14.5553   20.6699 O   0  0  0  0  0  0
  -24.6129  -31.8734   23.2098 C   0  0  0  0  0  0
  -25.9038  -32.4839   23.8377 C   0  0  1  0  0  0
  -27.2199  -27.4550   20.0884 C   0  0  0  0  0  0
  -25.5917  -33.8646   24.2334 N   0  0  0  0  0  0
  -23.4016  -30.4962   21.5533 C   0  0  2  0  0  0
  -24.8481  -28.9755   20.1060 C   0  0  0  0  0  0
  -22.7394  -29.4670   22.5008 C   0  0  0  0  0  0
  -18.0282  -28.1303   22.8529 C   0  0  0  0  0  0
  -24.1495  -36.7308   23.2626 C   0  0  0  0  0  0
  -25.9280  -30.8434   21.3638 C   0  0  0  0  0  0
  -26.0042  -29.4768   20.7186 C   0  0  0  0  0  0
  -27.1933  -28.7153   20.7287 C   0  0  0  0  0  0
  -26.0702  -26.9949   19.4199 C   0  0  0  0  0  0
  -24.8732  -27.7312   19.4547 C   0  0  0  0  0  0
  -23.6070  -29.8343   20.1666 C   0  0  0  0  0  0
  -25.4118  -36.3109   24.0327 C   0  0  1  0  0  0
  -20.5862  -28.3666   23.1331 C   0  0  2  0  0  0
  -20.6825  -26.9388   22.5476 C   0  0  0  0  0  0
  -19.5774  -26.6232   21.5357 C   0  0  0  0  0  0
  -18.1984  -26.7768   22.1803 C   0  0  0  0  0  0
  -19.1517  -28.8811   23.2884 C   0  0  0  0  0  0
  -18.9421  -30.1443   23.8829 C   0  0  0  0  0  0
  -17.6412  -30.6567   24.0486 C   0  0  0  0  0  0
  -25.9048  -34.9481   23.5123 C   0  0  0  0  0  0
  -16.5324  -29.9033   23.6274 C   0  0  0  0  0  0
  -16.7261  -28.6407   23.0356 C   0  0  0  0  0  0
  -26.4481  -31.6574   25.0664 C   0  0  0  0  0  0
  -25.3751  -31.3693   26.1416 C   0  0  0  0  0  0
  -27.0277  -30.3011   24.5975 C   0  0  0  0  0  0
  -27.6084  -32.4283   25.7400 C   0  0  0  0  0  0
  -27.5601  -37.1809   24.8463 C   0  0  0  0  0  0
  -21.4126  -29.3031   22.3734 N   0  0  0  0  0  0
  -26.4319  -37.3793   23.9391 N   0  0  0  0  0  0
  -24.6661  -31.0819   22.1015 N   0  0  0  0  0  0
  -23.4185  -28.8232   23.3052 O   0  0  0  0  0  0
  -28.3190  -26.6356   20.1040 O   0  0  0  0  0  0
  -26.5592  -34.8921   22.4672 O   0  0  0  0  0  0
  -23.5323  -32.1513   23.7481 O   0  0  0  0  0  0
  -28.5457  -19.5084   22.7701 C   0  0  0  0  0  0
  -29.1296  -18.2007   22.8384 C   0  0  0  0  0  0
  -29.8706  -17.9075   21.7159 C   0  0  0  0  0  0
  -28.8229  -20.2032   21.6119 C   0  0  0  0  0  0
  -27.9074  -22.4479   21.9471 C   0  0  0  0  0  0
  -26.0815  -23.5797   20.6803 C   0  0  0  0  0  0
  -26.4875  -25.6622   22.6782 C   0  0  0  0  0  0
  -30.7765  -16.7370   21.4522 C   0  0  0  0  0  0
  -28.6958  -26.1277   21.3910 C   0  0  0  0  0  0
  -27.5330  -23.7508   21.1949 C   0  0  1  0  0  0
  -27.7625  -25.0592   22.0423 C   0  0  2  0  0  0
  -28.9937  -17.2888   24.0321 C   0  0  0  0  0  0
  -28.4707  -21.4615   21.2198 N   0  0  0  0  0  0
  -30.1202  -15.4488   21.2068 N   0  0  0  0  0  0
  -27.6648  -22.3414   23.1534 O   0  0  0  0  0  0
  -28.1664  -17.7908   24.9485 F   0  0  0  0  0  0
  -28.5164  -16.0935   23.6794 F   0  0  0  0  0  0
  -30.1734  -17.0945   24.6230 F   0  0  0  0  0  0
  -29.7714  -19.1984   20.5458 S   0  0  0  0  0  0
  -31.4552  -12.3595   19.1164 H   0  0  0  0  0  0
  -30.2839  -11.2833   19.8117 H   0  0  0  0  0  0
  -29.7234  -11.7964   17.4078 H   0  0  0  0  0  0
  -29.6618  -13.4994   17.7777 H   0  0  0  0  0  0
  -27.8094  -11.3177   18.7970 H   0  0  0  0  0  0
  -27.3614  -12.6600   17.7797 H   0  0  0  0  0  0
  -27.7020  -14.2606   19.5726 H   0  0  0  0  0  0
  -28.6733  -11.9697   21.3509 H   0  0  0  0  0  0
  -28.4747  -13.6192   21.8605 H   0  0  0  0  0  0
  -25.2758   -9.5702   22.4747 H   0  0  0  0  0  0
  -24.0016   -7.4633   22.7454 H   0  0  0  0  0  0
  -21.0836   -8.8770   19.8937 H   0  0  0  0  0  0
  -22.3687  -10.9674   19.6156 H   0  0  0  0  0  0
  -21.1976   -7.6137   23.9730 H   0  0  0  0  0  0
  -21.1510   -6.0500   25.9087 H   0  0  0  0  0  0
  -22.0580   -2.7607   23.2824 H   0  0  0  0  0  0
  -22.4066  -11.9879   22.4788 H   0  0  0  0  0  0
  -21.1116  -13.1288   22.2634 H   0  0  0  0  0  0
  -24.6465  -15.8351   20.4764 H   0  0  0  0  0  0
  -26.2563  -15.6225   20.0176 H   0  0  0  0  0  0
  -26.7134  -32.5581   23.1181 H   0  0  0  0  0  0
  -25.0117  -33.9837   25.0515 H   0  0  0  0  0  0
  -22.6889  -31.3144   21.4181 H   0  0  0  0  0  0
  -23.3761  -35.9650   23.3308 H   0  0  0  0  0  0
  -24.3597  -36.8890   22.2037 H   0  0  0  0  0  0
  -23.7263  -37.6524   23.6633 H   0  0  0  0  0  0
  -26.0416  -31.6092   20.5938 H   0  0  0  0  0  0
  -26.8209  -30.9020   21.9744 H   0  0  0  0  0  0
  -28.0769  -29.0884   21.2251 H   0  0  0  0  0  0
  -26.0914  -26.0553   18.8873 H   0  0  0  0  0  0
  -23.9850  -27.3475   18.9718 H   0  0  0  0  0  0
  -23.7055  -30.6120   19.4076 H   0  0  0  0  0  0
  -22.7326  -29.2489   19.8708 H   0  0  0  0  0  0
  -25.1308  -36.1995   25.0834 H   0  0  0  0  0  0
  -20.9938  -28.3307   24.1478 H   0  0  0  0  0  0
  -20.5864  -26.2301   23.3717 H   0  0  0  0  0  0
  -21.6695  -26.7486   22.1225 H   0  0  0  0  0  0
  -19.6980  -25.6102   21.1470 H   0  0  0  0  0  0
  -19.6639  -27.2973   20.6821 H   0  0  0  0  0  0
  -17.4220  -26.6304   21.4285 H   0  0  0  0  0  0
  -18.0511  -26.0013   22.9318 H   0  0  0  0  0  0
  -19.7892  -30.7277   24.2150 H   0  0  0  0  0  0
  -17.4964  -31.6268   24.5036 H   0  0  0  0  0  0
  -15.5329  -30.2915   23.7578 H   0  0  0  0  0  0
  -15.8660  -28.0681   22.7120 H   0  0  0  0  0  0
  -24.5961  -30.7005   25.7758 H   0  0  0  0  0  0
  -24.8893  -32.2835   26.4802 H   0  0  0  0  0  0
  -25.8095  -30.8913   27.0200 H   0  0  0  0  0  0
  -26.2769  -29.6768   24.1113 H   0  0  0  0  0  0
  -27.4170  -29.7240   25.4368 H   0  0  0  0  0  0
  -27.8551  -30.4310   23.9010 H   0  0  0  0  0  0
  -27.2727  -33.3586   26.1988 H   0  0  0  0  0  0
  -28.3838  -32.6843   25.0173 H   0  0  0  0  0  0
  -28.0805  -31.8400   26.5265 H   0  0  0  0  0  0
  -28.2638  -38.0086   24.7511 H   0  0  0  0  0  0
  -28.1081  -36.2630   24.6310 H   0  0  0  0  0  0
  -27.2318  -37.1472   25.8865 H   0  0  0  0  0  0
  -20.9301  -29.8754   21.6954 H   0  0  0  0  0  0
  -26.0205  -38.2884   24.1394 H   0  0  0  0  0  0
  -27.9601  -19.8920   23.5951 H   0  0  0  0  0  0
  -26.0413  -22.8833   19.8460 H   0  0  0  0  0  0
  -25.6493  -24.5131   20.3393 H   0  0  0  0  0  0
  -25.4172  -23.1897   21.4542 H   0  0  0  0  0  0
  -26.7389  -26.4303   23.4089 H   0  0  0  0  0  0
  -25.9064  -24.8982   23.1937 H   0  0  0  0  0  0
  -25.8281  -26.1381   21.9545 H   0  0  0  0  0  0
  -31.4596  -16.6100   22.2916 H   0  0  0  0  0  0
  -31.4120  -16.9911   20.5992 H   0  0  0  0  0  0
  -28.8496  -26.9537   22.0881 H   0  0  0  0  0  0
  -29.6844  -25.6838   21.2664 H   0  0  0  0  0  0
  -28.1825  -23.8259   20.3214 H   0  0  0  0  0  0
  -28.3423  -24.7611   22.9175 H   0  0  0  0  0  0
  -28.6541  -21.6796   20.2500 H   0  0  0  0  0  0
  -29.1736  -15.3092   21.5212 H   0  0  0  0  0  0
  1 25  1  0  0  0
  1 30  2  0  0  0
  1 84  1  0  0  0
  2  3  1  0  0  0
  2 25  1  0  0  0
  2 90  1  0  0  0
  2 91  1  0  0  0
  3  4  1  0  0  0
  3 92  1  0  0  0
  3 93  1  0  0  0
  4  5  1  0  0  0
  4 94  1  0  0  0
  4 95  1  0  0  0
  5  6  1  0  0  0
  5 26  1  0  0  0
  5 96  1  0  0  0
  6 25  1  0  0  0
  6 97  1  0  0  0
  6 98  1  0  0  0
  7  8  2  0  0  0
  7 26  1  0  0  0
  7 29  1  0  0  0
  8  9  1  0  0  0
  8 22  1  0  0  0
  9 10  1  0  0  0
  9 27  2  0  0  0
 10 11  2  0  0  0
 10 15  1  0  0  0
 11 12  1  0  0  0
 11 99  1  0  0  0
 12 13  2  0  0  0
 12100  1  0  0  0
 13 14  1  0  0  0
 13 31  1  0  0  0
 14 15  2  0  0  0
 14101  1  0  0  0
 15102  1  0  0  0
 16 17  2  0  0  0
 16 21  1  0  0  0
 16 31  1  0  0  0
 17 18  1  0  0  0
 17103  1  0  0  0
 18 19  2  0  0  0
 18104  1  0  0  0
 19 20  1  0  0  0
 19 24  1  0  0  0
 20 21  2  0  0  0
 20105  1  0  0  0
 21 23  1  0  0  0
 22 28  1  0  0  0
 22 32  2  0  0  0
 26 27  1  0  0  0
 28106  1  0  0  0
 28107  1  0  0  0
 29108  1  0  0  0
 29109  1  0  0  0
 33 34  1  0  0  0
 33 66  1  0  0  0
 33 70  2  0  0  0
 34 36  1  0  0  0
 34 59  1  0  0  0
 34110  1  0  0  0
 35 44  2  0  0  0
 35 45  1  0  0  0
 35 68  1  0  0  0
 36 56  1  0  0  0
 36111  1  0  0  0
 37 39  1  0  0  0
 37 47  1  0  0  0
 37 66  1  0  0  0
 37112  1  0  0  0
 38 43  2  0  0  0
 38 46  1  0  0  0
 38 47  1  0  0  0
 39 64  1  0  0  0
 39 67  2  0  0  0
 40 52  1  0  0  0
 40 53  2  0  0  0
 40 58  1  0  0  0
 41113  1  0  0  0
 41114  1  0  0  0
 41115  1  0  0  0
 41 48  1  0  0  0
 42 43  1  0  0  0
 42 66  1  0  0  0
 42116  1  0  0  0
 42117  1  0  0  0
 43 44  1  0  0  0
 44118  1  0  0  0
 45 46  2  0  0  0
 45119  1  0  0  0
 46120  1  0  0  0
 47121  1  0  0  0
 47122  1  0  0  0
 48 56  1  0  0  0
 48 65  1  0  0  0
 48123  1  0  0  0
 49 50  1  0  0  0
 49 53  1  0  0  0
 49 64  1  0  0  0
 49124  1  0  0  0
 50 51  1  0  0  0
 50125  1  0  0  0
 50126  1  0  0  0
 51 52  1  0  0  0
 51127  1  0  0  0
 51128  1  0  0  0
 52129  1  0  0  0
 52130  1  0  0  0
 53 54  1  0  0  0
 54 55  2  0  0  0
 54131  1  0  0  0
 55 57  1  0  0  0
 55132  1  0  0  0
 56 69  2  0  0  0
 57 58  2  0  0  0
 57133  1  0  0  0
 58134  1  0  0  0
 59 60  1  0  0  0
 59 61  1  0  0  0
 59 62  1  0  0  0
 60135  1  0  0  0
 60136  1  0  0  0
 60137  1  0  0  0
 61138  1  0  0  0
 61139  1  0  0  0
 61140  1  0  0  0
 62141  1  0  0  0
 62142  1  0  0  0
 62143  1  0  0  0
 63 65  1  0  0  0
 63144  1  0  0  0
 63145  1  0  0  0
 63146  1  0  0  0
 64147  1  0  0  0
 65148  1  0  0  0
 68 79  1  0  0  0
 71 72  1  0  0  0
 71 74  2  0  0  0
 71149  1  0  0  0
 72 73  2  0  0  0
 72 82  1  0  0  0
 73 78  1  0  0  0
 73 89  1  0  0  0
 74 83  1  0  0  0
 74 89  1  0  0  0
 75 80  1  0  0  0
 75 83  1  0  0  0
 75 85  2  0  0  0
 76150  1  0  0  0
 76151  1  0  0  0
 76152  1  0  0  0
 76 80  1  0  0  0
 77153  1  0  0  0
 77154  1  0  0  0
 77155  1  0  0  0
 77 81  1  0  0  0
 78 84  1  0  0  0
 78156  1  0  0  0
 78157  1  0  0  0
 79 81  1  0  0  0
 79158  1  0  0  0
 79159  1  0  0  0
 80 81  1  0  0  0
 80160  1  0  0  0
 81161  1  0  0  0
 82 86  1  0  0  0
 82 87  1  0  0  0
 82 88  1  0  0  0
 83162  1  0  0  0
 84163  1  0  0  0
M  ISO  4   1 100  68 101  79 101  84 100
M  END
> <chiral flag>
0

> <version>
0

> <s_m_source_file>
/data/baiqing/PycharmProjects/Reinvent-master-3.2/result/LINK_invent/BTK/process_docking_weight1_custom_product_contain_oxygen_bond_distance_aromatic_linkinvent_7_9_3/rearranged_h_0190.sdf

> <i_m_source_file_index>
11

> <r_mmod_Potential_Energy-OPLS-2005>
-118.477745056152

> <r_mmod_Stretch_Energy-OPLS-2005>
37.247875213623

> <r_mmod_Bend_Energy-OPLS-2005>
117.819641113281

> <r_mmod_Torsional_Energy-OPLS-2005>
244.522048950195

> <r_mmod_Improper_Torsional_Energy-OPLS-2005>
3.06137251853943

> <r_mmod_Van_der_Waal_Energy-OPLS-2005>
132.265106201172

> <r_mmod_Electrostatic_Energy-OPLS-2005>
-460.367462158203

> <r_mmod_Solvation_Energy-OPLS-2005>
-207.353363037109

> <b_mmod_Minimization_Converged-OPLS-2005>
0

> <r_mmod_RMS_Derivative-OPLS-2005>
4.73292446136475

$$$$
11
                    3D
 Structure written by MMmdl.
169177  0  0  1  0            999 V2000
  -30.6677  -14.5536   20.5541 C   0  0  0  0  0  0
  -30.4385  -12.3525   19.4265 C   0  0  0  0  0  0
  -29.4990  -12.4981   18.2081 C   0  0  0  0  0  0
  -28.0228  -12.3397   18.6275 C   0  0  0  0  0  0
  -27.6577  -13.2041   19.8639 C   0  0  2  0  0  0
  -28.7069  -13.0251   20.9859 C   0  0  0  0  0  0
  -25.2577  -13.8142   20.5639 C   0  0  0  0  0  0
  -24.1837  -13.0429   20.9207 C   0  0  0  0  0  0
  -24.6398  -11.6893   20.8782 C   0  0  0  0  0  0
  -23.9065  -10.4287   21.0442 C   0  0  0  0  0  0
  -24.3610   -9.4197   21.9209 C   0  0  0  0  0  0
  -23.6291   -8.2239   22.0765 C   0  0  0  0  0  0
  -22.4277   -8.0280   21.3548 C   0  0  0  0  0  0
  -21.9916   -9.0254   20.4649 C   0  0  0  0  0  0
  -22.7250  -10.2143   20.3070 C   0  0  0  0  0  0
  -21.6846   -6.0743   22.5293 C   0  0  0  0  0  0
  -21.4002   -6.5641   23.8229 C   0  0  0  0  0  0
  -21.3658   -5.6788   24.9188 C   0  0  0  0  0  0
  -21.6044   -4.3059   24.7232 C   0  0  0  0  0  0
  -21.8817   -3.8156   23.4356 C   0  0  0  0  0  0
  -21.9187   -4.6968   22.3418 C   0  0  0  0  0  0
  -22.7868  -13.5247   21.1863 C   0  0  0  0  0  0
  -22.1655   -4.2155   21.0993 F   0  0  0  0  0  0
  -21.5633   -3.4545   25.7751 F   0  0  0  0  0  0
  -30.0257  -13.3565   20.4209 N   0  0  0  0  0  0
  -26.3017  -12.9311   20.3335 N   0  0  0  0  0  0
  -25.9328  -11.6481   20.5797 N   0  0  0  0  0  0
  -22.0476  -12.8231   22.0400 N   0  0  0  0  0  0
  -25.4272  -15.1862   20.3941 N   0  0  0  0  0  0
  -31.8268  -14.7354   20.1728 O   0  0  0  0  0  0
  -21.6620   -6.8883   21.4256 O   0  0  0  0  0  0
  -22.3560  -14.5559   20.6721 O   0  0  0  0  0  0
  -24.6224  -31.8652   23.2049 C   0  0  0  0  0  0
  -25.9089  -32.4801   23.8368 C   0  0  1  0  0  0
  -27.2250  -27.3726   20.1111 C   0  0  0  0  0  0
  -25.5946  -33.8606   24.2321 N   0  0  0  0  0  0
  -23.4114  -30.4915   21.5470 C   0  0  2  0  0  0
  -24.8580  -28.9540   20.1091 C   0  0  0  0  0  0
  -22.7497  -29.4626   22.4961 C   0  0  0  0  0  0
  -18.0324  -28.1355   22.8458 C   0  0  0  0  0  0
  -24.1490  -36.7271   23.2650 C   0  0  0  0  0  0
  -25.9483  -30.8165   21.3631 C   0  0  0  0  0  0
  -26.0268  -29.4473   20.7077 C   0  0  0  0  0  0
  -27.2168  -28.6696   20.6934 C   0  0  0  0  0  0
  -26.0398  -26.9214   19.4854 C   0  0  0  0  0  0
  -24.8646  -27.6928   19.4909 C   0  0  0  0  0  0
  -23.6246  -29.8321   20.1600 C   0  0  0  0  0  0
  -25.4104  -36.3075   24.0362 C   0  0  1  0  0  0
  -20.5906  -28.3631   23.1303 C   0  0  2  0  0  0
  -20.6789  -26.9365   22.5391 C   0  0  0  0  0  0
  -19.5767  -26.6349   21.5189 C   0  0  0  0  0  0
  -18.1960  -26.7899   22.1600 C   0  0  0  0  0  0
  -19.1578  -28.8818   23.2879 C   0  0  0  0  0  0
  -18.9481  -30.1429   23.8901 C   0  0  0  0  0  0
  -17.6486  -30.6550   24.0550 C   0  0  0  0  0  0
  -25.9038  -34.9453   23.5098 C   0  0  0  0  0  0
  -16.5378  -29.9039   23.6319 C   0  0  0  0  0  0
  -16.7313  -28.6471   23.0315 C   0  0  0  0  0  0
  -26.4451  -31.6608   25.0747 C   0  0  0  0  0  0
  -25.3686  -31.3709   26.1470 C   0  0  0  0  0  0
  -27.0286  -30.3086   24.6063 C   0  0  0  0  0  0
  -27.6077  -32.4310   25.7490 C   0  0  0  0  0  0
  -27.5569  -37.1789   24.8475 C   0  0  0  0  0  0
  -21.4210  -29.3015   22.3742 N   0  0  0  0  0  0
  -26.4277  -37.3770   23.9431 N   0  0  0  0  0  0
  -24.6794  -31.0724   22.0976 N   0  0  0  0  0  0
  -23.4281  -28.8173   23.2985 O   0  0  0  0  0  0
  -28.3417  -26.5450   20.1441 O   0  0  0  0  0  0
  -26.5586  -34.8903   22.4651 O   0  0  0  0  0  0
  -23.5400  -32.1427   23.7428 O   0  0  0  0  0  0
  -30.6321  -17.1340   22.6748 C   0  0  0  0  0  0
  -30.1767  -16.8972   21.4025 C   0  0  0  0  0  0
  -29.9449  -19.0854   21.8061 C   0  0  0  0  0  0
  -32.0122  -20.4211   18.7220 C   0  0  0  0  0  0
  -33.0057  -19.6472   20.9319 C   0  0  0  0  0  0
  -30.6587  -19.1795   24.1821 C   0  0  0  0  0  0
  -31.4308  -21.7537   20.8706 C   0  0  0  0  0  0
  -29.0232  -22.7391   21.1463 C   0  0  0  0  0  0
  -28.1178  -25.2102   20.7042 C   0  0  0  0  0  0
  -32.4485  -20.8387   20.1321 C   0  0  0  0  0  0
  -29.9054  -21.4448   20.8224 C   0  0  2  0  0  0
  -29.2809  -24.1737   20.5000 C   0  0  1  0  0  0
  -30.4403  -18.4776   22.9064 N   0  0  0  0  0  0
  -29.7808  -18.1200   20.8751 N   0  3  0  0  0  0
  -29.8575  -15.5912   20.8826 N   0  0  0  0  0  0
  -29.5504  -20.3891   21.8013 N   0  0  0  0  0  0
  -30.3801  -24.7845   21.1558 O   0  0  0  0  0  0
  -31.4798  -12.4720   19.1218 H   0  0  0  0  0  0
  -30.3660  -11.3498   19.8527 H   0  0  0  0  0  0
  -29.7525  -11.7601   17.4461 H   0  0  0  0  0  0
  -29.6430  -13.4763   17.7472 H   0  0  0  0  0  0
  -27.8569  -11.2857   18.8545 H   0  0  0  0  0  0
  -27.3646  -12.5764   17.7912 H   0  0  0  0  0  0
  -27.6855  -14.2420   19.5327 H   0  0  0  0  0  0
  -28.7100  -11.9938   21.3411 H   0  0  0  0  0  0
  -28.4665  -13.6356   21.8585 H   0  0  0  0  0  0
  -25.2767   -9.5663   22.4776 H   0  0  0  0  0  0
  -23.9999   -7.4616   22.7485 H   0  0  0  0  0  0
  -21.0860   -8.8796   19.8939 H   0  0  0  0  0  0
  -22.3746  -10.9679   19.6172 H   0  0  0  0  0  0
  -21.1983   -7.6145   23.9742 H   0  0  0  0  0  0
  -21.1478   -6.0513   25.9089 H   0  0  0  0  0  0
  -22.0593   -2.7616   23.2863 H   0  0  0  0  0  0
  -22.4049  -11.9851   22.4739 H   0  0  0  0  0  0
  -21.1105  -13.1286   22.2613 H   0  0  0  0  0  0
  -24.6454  -15.8288   20.4655 H   0  0  0  0  0  0
  -26.2437  -15.6117   19.9759 H   0  0  0  0  0  0
  -26.7193  -32.5469   23.1147 H   0  0  0  0  0  0
  -25.0175  -33.9750   25.0517 H   0  0  0  0  0  0
  -22.7008  -31.3106   21.4106 H   0  0  0  0  0  0
  -23.3762  -35.9589   23.3316 H   0  0  0  0  0  0
  -24.3630  -36.8863   22.2062 H   0  0  0  0  0  0
  -23.7216  -37.6481   23.6640 H   0  0  0  0  0  0
  -26.0652  -31.5849   20.5976 H   0  0  0  0  0  0
  -26.8381  -30.8683   21.9808 H   0  0  0  0  0  0
  -28.1183  -29.0490   21.1549 H   0  0  0  0  0  0
  -26.0142  -25.9644   18.9865 H   0  0  0  0  0  0
  -23.9721  -27.3113   19.0146 H   0  0  0  0  0  0
  -23.7496  -30.6126   19.4085 H   0  0  0  0  0  0
  -22.7426  -29.2686   19.8490 H   0  0  0  0  0  0
  -25.1267  -36.1935   25.0864 H   0  0  0  0  0  0
  -21.0009  -28.3136   24.1415 H   0  0  0  0  0  0
  -20.5656  -26.2242   23.3574 H   0  0  0  0  0  0
  -21.6658  -26.7337   22.1200 H   0  0  0  0  0  0
  -19.6910  -25.6249   21.1235 H   0  0  0  0  0  0
  -19.6719  -27.3151   20.6707 H   0  0  0  0  0  0
  -17.4215  -26.6699   21.4009 H   0  0  0  0  0  0
  -18.0342  -26.0028   22.8978 H   0  0  0  0  0  0
  -19.7957  -30.7261   24.2275 H   0  0  0  0  0  0
  -17.5013  -31.6238   24.5138 H   0  0  0  0  0  0
  -15.5374  -30.2925   23.7622 H   0  0  0  0  0  0
  -15.8724  -28.0799   22.6964 H   0  0  0  0  0  0
  -24.5914  -30.7030   25.7758 H   0  0  0  0  0  0
  -24.8803  -32.2839   26.4885 H   0  0  0  0  0  0
  -25.7995  -30.8890   27.0255 H   0  0  0  0  0  0
  -26.2802  -29.6931   24.1055 H   0  0  0  0  0  0
  -27.4069  -29.7245   25.4470 H   0  0  0  0  0  0
  -27.8636  -30.4514   23.9195 H   0  0  0  0  0  0
  -27.2792  -33.3667   26.2042 H   0  0  0  0  0  0
  -28.3888  -32.6783   25.0283 H   0  0  0  0  0  0
  -28.0739  -31.8433   26.5422 H   0  0  0  0  0  0
  -28.2541  -38.0112   24.7538 H   0  0  0  0  0  0
  -28.1093  -36.2649   24.6248 H   0  0  0  0  0  0
  -27.2329  -37.1374   25.8888 H   0  0  0  0  0  0
  -20.9422  -29.8829   21.7026 H   0  0  0  0  0  0
  -26.0155  -38.2855   24.1440 H   0  0  0  0  0  0
  -30.9830  -16.4644   23.4467 H   0  0  0  0  0  0
  -32.8183  -19.8980   18.2069 H   0  0  0  0  0  0
  -31.7515  -21.2913   18.1175 H   0  0  0  0  0  0
  -31.1522  -19.7510   18.7432 H   0  0  0  0  0  0
  -34.0575  -19.4844   20.6806 H   0  0  0  0  0  0
  -32.4940  -18.7136   20.7031 H   0  0  0  0  0  0
  -32.9582  -19.8113   22.0077 H   0  0  0  0  0  0
  -31.0254  -18.4847   24.9376 H   0  0  0  0  0  0
  -29.7095  -19.5948   24.5228 H   0  0  0  0  0  0
  -31.3863  -19.9821   24.0493 H   0  0  0  0  0  0
  -31.5716  -22.7260   20.4002 H   0  0  0  0  0  0
  -31.7440  -21.9008   21.9065 H   0  0  0  0  0  0
  -29.0024  -22.8794   22.2281 H   0  0  0  0  0  0
  -27.9980  -22.4637   20.8936 H   0  0  0  0  0  0
  -27.9140  -25.3294   21.7712 H   0  0  0  0  0  0
  -27.2171  -24.7554   20.2937 H   0  0  0  0  0  0
  -33.3187  -21.4846   19.9929 H   0  0  0  0  0  0
  -29.6348  -21.1104   19.8202 H   0  0  0  0  0  0
  -29.4905  -24.0712   19.4351 H   0  0  0  0  0  0
  -29.3507  -18.2569   19.9711 H   0  0  0  0  0  0
  -28.8891  -15.3262   20.9690 H   0  0  0  0  0  0
  -29.4927  -20.8073   22.7208 H   0  0  0  0  0  0
  -30.4141  -25.6880   20.8484 H   0  0  0  0  0  0
  1 25  1  0  0  0
  1 30  2  0  0  0
  1 85  1  0  0  0
  2  3  1  0  0  0
  2 25  1  0  0  0
  2 88  1  0  0  0
  2 89  1  0  0  0
  3  4  1  0  0  0
  3 90  1  0  0  0
  3 91  1  0  0  0
  4  5  1  0  0  0
  4 92  1  0  0  0
  4 93  1  0  0  0
  5  6  1  0  0  0
  5 26  1  0  0  0
  5 94  1  0  0  0
  6 25  1  0  0  0
  6 95  1  0  0  0
  6 96  1  0  0  0
  7  8  2  0  0  0
  7 26  1  0  0  0
  7 29  1  0  0  0
  8  9  1  0  0  0
  8 22  1  0  0  0
  9 10  1  0  0  0
  9 27  2  0  0  0
 10 11  2  0  0  0
 10 15  1  0  0  0
 11 12  1  0  0  0
 11 97  1  0  0  0
 12 13  2  0  0  0
 12 98  1  0  0  0
 13 14  1  0  0  0
 13 31  1  0  0  0
 14 15  2  0  0  0
 14 99  1  0  0  0
 15100  1  0  0  0
 16 17  2  0  0  0
 16 21  1  0  0  0
 16 31  1  0  0  0
 17 18  1  0  0  0
 17101  1  0  0  0
 18 19  2  0  0  0
 18102  1  0  0  0
 19 20  1  0  0  0
 19 24  1  0  0  0
 20 21  2  0  0  0
 20103  1  0  0  0
 21 23  1  0  0  0
 22 28  1  0  0  0
 22 32  2  0  0  0
 26 27  1  0  0  0
 28104  1  0  0  0
 28105  1  0  0  0
 29106  1  0  0  0
 29107  1  0  0  0
 33 34  1  0  0  0
 33 66  1  0  0  0
 33 70  2  0  0  0
 34 36  1  0  0  0
 34 59  1  0  0  0
 34108  1  0  0  0
 35 44  2  0  0  0
 35 45  1  0  0  0
 35 68  1  0  0  0
 36 56  1  0  0  0
 36109  1  0  0  0
 37 39  1  0  0  0
 37 47  1  0  0  0
 37 66  1  0  0  0
 37110  1  0  0  0
 38 43  2  0  0  0
 38 46  1  0  0  0
 38 47  1  0  0  0
 39 64  1  0  0  0
 39 67  2  0  0  0
 40 52  1  0  0  0
 40 53  2  0  0  0
 40 58  1  0  0  0
 41111  1  0  0  0
 41112  1  0  0  0
 41113  1  0  0  0
 41 48  1  0  0  0
 42 43  1  0  0  0
 42 66  1  0  0  0
 42114  1  0  0  0
 42115  1  0  0  0
 43 44  1  0  0  0
 44116  1  0  0  0
 45 46  2  0  0  0
 45117  1  0  0  0
 46118  1  0  0  0
 47119  1  0  0  0
 47120  1  0  0  0
 48 56  1  0  0  0
 48 65  1  0  0  0
 48121  1  0  0  0
 49 50  1  0  0  0
 49 53  1  0  0  0
 49 64  1  0  0  0
 49122  1  0  0  0
 50 51  1  0  0  0
 50123  1  0  0  0
 50124  1  0  0  0
 51 52  1  0  0  0
 51125  1  0  0  0
 51126  1  0  0  0
 52127  1  0  0  0
 52128  1  0  0  0
 53 54  1  0  0  0
 54 55  2  0  0  0
 54129  1  0  0  0
 55 57  1  0  0  0
 55130  1  0  0  0
 56 69  2  0  0  0
 57 58  2  0  0  0
 57131  1  0  0  0
 58132  1  0  0  0
 59 60  1  0  0  0
 59 61  1  0  0  0
 59 62  1  0  0  0
 60133  1  0  0  0
 60134  1  0  0  0
 60135  1  0  0  0
 61136  1  0  0  0
 61137  1  0  0  0
 61138  1  0  0  0
 62139  1  0  0  0
 62140  1  0  0  0
 62141  1  0  0  0
 63 65  1  0  0  0
 63142  1  0  0  0
 63143  1  0  0  0
 63144  1  0  0  0
 64145  1  0  0  0
 65146  1  0  0  0
 68 79  1  0  0  0
 71 72  2  0  0  0
 71 83  1  0  0  0
 71147  1  0  0  0
 72 84  1  0  0  0
 72 85  1  0  0  0
 73 83  1  0  0  0
 73 84  2  0  0  0
 73 86  1  0  0  0
 74148  1  0  0  0
 74149  1  0  0  0
 74150  1  0  0  0
 74 80  1  0  0  0
 75 80  1  0  0  0
 75151  1  0  0  0
 75152  1  0  0  0
 75153  1  0  0  0
 76 83  1  0  0  0
 76154  1  0  0  0
 76155  1  0  0  0
 76156  1  0  0  0
 77 80  1  0  0  0
 77157  1  0  0  0
 77158  1  0  0  0
 77 81  1  0  0  0
 78 81  1  0  0  0
 78 82  1  0  0  0
 78159  1  0  0  0
 78160  1  0  0  0
 79 82  1  0  0  0
 79161  1  0  0  0
 79162  1  0  0  0
 80163  1  0  0  0
 81 86  1  0  0  0
 81164  1  0  0  0
 82 87  1  0  0  0
 82165  1  0  0  0
 84166  1  0  0  0
 85167  1  0  0  0
 86168  1  0  0  0
 87169  1  0  0  0
M  CHG  1  84   1
M  ISO  4   1 100  68 101  79 101  85 100
M  END
> <chiral flag>
0

> <version>
0

> <s_m_source_file>
/data/baiqing/PycharmProjects/Reinvent-master-3.2/result/LINK_invent/BTK/process_docking_weight1_custom_product_contain_oxygen_bond_distance_aromatic_linkinvent_7_9_3/rearranged_h_0190.sdf

> <i_m_source_file_index>
12

> <r_mmod_Potential_Energy-OPLS-2005>
32.6557540893555

> <r_mmod_Stretch_Energy-OPLS-2005>
60.7394523620605

> <r_mmod_Bend_Energy-OPLS-2005>
165.61149597168

> <r_mmod_Torsional_Energy-OPLS-2005>
313.619354248047

> <r_mmod_Improper_Torsional_Energy-OPLS-2005>
14.4311761856079

> <r_mmod_Van_der_Waal_Energy-OPLS-2005>
116.86637878418

> <r_mmod_Electrostatic_Energy-OPLS-2005>
-236.878204345703

> <r_mmod_Solvation_Energy-OPLS-2005>
-430.822723388672

> <b_mmod_Minimization_Converged-OPLS-2005>
0

> <r_mmod_RMS_Derivative-OPLS-2005>
4.50004196166992

$$$$
12
                    3D
 Structure written by MMmdl.
165173  0  0  1  0            999 V2000
  -30.7147  -14.4824   20.5719 C   0  0  0  0  0  0
  -30.4179  -12.3154   19.4246 C   0  0  0  0  0  0
  -29.4964  -12.5144   18.2056 C   0  0  0  0  0  0
  -28.0151  -12.3734   18.6113 C   0  0  0  0  0  0
  -27.6564  -13.2132   19.8676 C   0  0  2  0  0  0
  -28.6988  -13.0097   20.9910 C   0  0  0  0  0  0
  -25.2557  -13.8182   20.5629 C   0  0  0  0  0  0
  -24.1835  -13.0450   20.9176 C   0  0  0  0  0  0
  -24.6410  -11.6918   20.8731 C   0  0  0  0  0  0
  -23.9073  -10.4296   21.0380 C   0  0  0  0  0  0
  -24.3625   -9.4224   21.9156 C   0  0  0  0  0  0
  -23.6314   -8.2247   22.0734 C   0  0  0  0  0  0
  -22.4293   -8.0275   21.3536 C   0  0  0  0  0  0
  -21.9917   -9.0244   20.4629 C   0  0  0  0  0  0
  -22.7236  -10.2130   20.3036 C   0  0  0  0  0  0
  -21.6869   -6.0736   22.5278 C   0  0  0  0  0  0
  -21.4012   -6.5636   23.8204 C   0  0  0  0  0  0
  -21.3660   -5.6791   24.9166 C   0  0  0  0  0  0
  -21.6045   -4.3050   24.7216 C   0  0  0  0  0  0
  -21.8827   -3.8148   23.4338 C   0  0  0  0  0  0
  -21.9187   -4.6969   22.3395 C   0  0  0  0  0  0
  -22.7851  -13.5239   21.1838 C   0  0  0  0  0  0
  -22.1662   -4.2157   21.0981 F   0  0  0  0  0  0
  -21.5629   -3.4539   25.7723 F   0  0  0  0  0  0
  -30.0283  -13.3120   20.4359 N   0  0  0  0  0  0
  -26.2999  -12.9357   20.3297 N   0  0  0  0  0  0
  -25.9342  -11.6517   20.5753 N   0  0  0  0  0  0
  -22.0487  -12.8236   22.0398 N   0  0  0  0  0  0
  -25.4265  -15.1891   20.3977 N   0  0  0  0  0  0
  -31.8569  -14.6195   20.1184 O   0  0  0  0  0  0
  -21.6650   -6.8893   21.4243 O   0  0  0  0  0  0
  -22.3532  -14.5542   20.6695 O   0  0  0  0  0  0
  -24.6207  -31.8632   23.2042 C   0  0  0  0  0  0
  -25.9081  -32.4797   23.8370 C   0  0  1  0  0  0
  -27.2447  -27.3763   20.1147 C   0  0  0  0  0  0
  -25.5904  -33.8598   24.2293 N   0  0  0  0  0  0
  -23.4126  -30.4855   21.5436 C   0  0  2  0  0  0
  -24.8602  -28.9390   20.1159 C   0  0  0  0  0  0
  -22.7454  -29.4655   22.4946 C   0  0  0  0  0  0
  -18.0280  -28.1378   22.8476 C   0  0  0  0  0  0
  -24.1479  -36.7316   23.2638 C   0  0  0  0  0  0
  -25.9459  -30.8097   21.3676 C   0  0  0  0  0  0
  -26.0215  -29.4390   20.7164 C   0  0  0  0  0  0
  -27.2104  -28.6659   20.7089 C   0  0  0  0  0  0
  -26.0543  -26.8999   19.5139 C   0  0  0  0  0  0
  -24.8758  -27.6712   19.5107 C   0  0  0  0  0  0
  -23.6242  -29.8123   20.1595 C   0  0  0  0  0  0
  -25.4106  -36.3102   24.0330 C   0  0  1  0  0  0
  -20.5881  -28.3686   23.1279 C   0  0  2  0  0  0
  -20.6770  -26.9412   22.5402 C   0  0  0  0  0  0
  -19.5745  -26.6380   21.5209 C   0  0  0  0  0  0
  -18.1934  -26.7929   22.1619 C   0  0  0  0  0  0
  -19.1527  -28.8851   23.2874 C   0  0  0  0  0  0
  -18.9460  -30.1457   23.8894 C   0  0  0  0  0  0
  -17.6453  -30.6583   24.0568 C   0  0  0  0  0  0
  -25.9031  -34.9465   23.5109 C   0  0  0  0  0  0
  -16.5350  -29.9090   23.6329 C   0  0  0  0  0  0
  -16.7268  -28.6504   23.0344 C   0  0  0  0  0  0
  -26.4480  -31.6609   25.0734 C   0  0  0  0  0  0
  -25.3716  -31.3777   26.1461 C   0  0  0  0  0  0
  -27.0332  -30.3038   24.6193 C   0  0  0  0  0  0
  -27.6028  -32.4359   25.7505 C   0  0  0  0  0  0
  -27.5578  -37.1817   24.8460 C   0  0  0  0  0  0
  -21.4166  -29.3058   22.3684 N   0  0  0  0  0  0
  -26.4296  -37.3786   23.9392 N   0  0  0  0  0  0
  -24.6783  -31.0686   22.0980 N   0  0  0  0  0  0
  -23.4196  -28.8176   23.2996 O   0  0  0  0  0  0
  -28.4378  -26.6560   20.1439 O   0  0  0  0  0  0
  -26.5602  -34.8924   22.4679 O   0  0  0  0  0  0
  -23.5383  -32.1401   23.7401 O   0  0  0  0  0  0
  -29.6063  -17.9585   20.9612 C   0  0  0  0  0  0
  -30.4622  -16.8723   21.2703 C   0  0  0  0  0  0
  -30.0682  -19.2771   21.1614 C   0  0  0  0  0  0
  -31.9965  -18.4230   21.9619 C   0  0  0  0  0  0
  -33.3225  -18.6434   22.5514 C   0  0  0  0  0  0
  -27.3191  -22.3919   19.7569 C   0  0  0  0  0  0
  -30.4881  -22.0834   19.5205 C   0  0  0  0  0  0
  -28.5583  -24.2778   21.0370 C   0  0  0  0  0  0
  -28.5231  -25.2424   19.8017 C   0  0  0  0  0  0
  -28.3637  -22.7226   20.8421 C   0  0  2  0  0  0
  -29.6357  -21.7982   20.7697 C   0  0  1  0  0  0
  -31.6676  -17.1422   21.7989 N   0  0  0  0  0  0
  -31.2824  -19.5126   21.6749 N   0  0  0  0  0  0
  -34.1371  -17.5952   22.6969 N   0  0  0  0  0  0
  -30.0065  -15.5323   21.0499 N   0  0  0  0  0  0
  -29.2459  -20.3729   20.8273 N   0  0  0  0  0  0
  -33.6820  -19.8677   22.9324 N   0  3  0  0  0  0
  -31.4638  -12.3989   19.1245 H   0  0  0  0  0  0
  -30.3061  -11.3082   19.8291 H   0  0  0  0  0  0
  -29.7477  -11.7912   17.4268 H   0  0  0  0  0  0
  -29.6599  -13.5018   17.7710 H   0  0  0  0  0  0
  -27.8270  -11.3166   18.8046 H   0  0  0  0  0  0
  -27.3686  -12.6503   17.7758 H   0  0  0  0  0  0
  -27.6959  -14.2614   19.5678 H   0  0  0  0  0  0
  -28.6756  -11.9772   21.3459 H   0  0  0  0  0  0
  -28.4601  -13.6266   21.8573 H   0  0  0  0  0  0
  -25.2763   -9.5718   22.4728 H   0  0  0  0  0  0
  -24.0023   -7.4653   22.7458 H   0  0  0  0  0  0
  -21.0836   -8.8779   19.8951 H   0  0  0  0  0  0
  -22.3686  -10.9674   19.6149 H   0  0  0  0  0  0
  -21.2023   -7.6139   23.9729 H   0  0  0  0  0  0
  -21.1466   -6.0501   25.9072 H   0  0  0  0  0  0
  -22.0611   -2.7612   23.2834 H   0  0  0  0  0  0
  -22.4090  -11.9910   22.4821 H   0  0  0  0  0  0
  -21.1086  -13.1249   22.2579 H   0  0  0  0  0  0
  -24.6561  -15.8420   20.4885 H   0  0  0  0  0  0
  -26.2635  -15.6169   20.0282 H   0  0  0  0  0  0
  -26.7155  -32.5471   23.1128 H   0  0  0  0  0  0
  -25.0057  -33.9754   25.0441 H   0  0  0  0  0  0
  -22.7045  -31.3041   21.3981 H   0  0  0  0  0  0
  -23.3725  -35.9666   23.3328 H   0  0  0  0  0  0
  -24.3567  -36.8909   22.2048 H   0  0  0  0  0  0
  -23.7250  -37.6537   23.6639 H   0  0  0  0  0  0
  -26.0703  -31.5714   20.5956 H   0  0  0  0  0  0
  -26.8320  -30.8607   21.9905 H   0  0  0  0  0  0
  -28.1033  -29.0512   21.1813 H   0  0  0  0  0  0
  -25.9980  -25.9315   19.0441 H   0  0  0  0  0  0
  -23.9837  -27.2811   19.0388 H   0  0  0  0  0  0
  -23.7344  -30.5835   19.3958 H   0  0  0  0  0  0
  -22.7468  -29.2324   19.8641 H   0  0  0  0  0  0
  -25.1287  -36.1969   25.0826 H   0  0  0  0  0  0
  -20.9991  -28.3270   24.1388 H   0  0  0  0  0  0
  -20.5674  -26.2313   23.3605 H   0  0  0  0  0  0
  -21.6639  -26.7449   22.1192 H   0  0  0  0  0  0
  -19.6913  -25.6298   21.1236 H   0  0  0  0  0  0
  -19.6680  -27.3184   20.6736 H   0  0  0  0  0  0
  -17.4209  -26.6677   21.4019 H   0  0  0  0  0  0
  -18.0330  -26.0070   22.9006 H   0  0  0  0  0  0
  -19.7934  -30.7272   24.2256 H   0  0  0  0  0  0
  -17.5011  -31.6253   24.5174 H   0  0  0  0  0  0
  -15.5352  -30.2985   23.7643 H   0  0  0  0  0  0
  -15.8675  -28.0821   22.7056 H   0  0  0  0  0  0
  -24.5836  -30.7188   25.7799 H   0  0  0  0  0  0
  -24.8960  -32.2961   26.4916 H   0  0  0  0  0  0
  -25.8011  -30.8917   27.0227 H   0  0  0  0  0  0
  -26.2923  -29.6787   24.1196 H   0  0  0  0  0  0
  -27.4009  -29.7301   25.4714 H   0  0  0  0  0  0
  -27.8792  -30.4329   23.9436 H   0  0  0  0  0  0
  -27.2617  -33.3644   26.2104 H   0  0  0  0  0  0
  -28.3830  -32.6971   25.0339 H   0  0  0  0  0  0
  -28.0717  -31.8489   26.5411 H   0  0  0  0  0  0
  -28.2616  -38.0096   24.7484 H   0  0  0  0  0  0
  -28.1054  -36.2630   24.6310 H   0  0  0  0  0  0
  -27.2291  -37.1494   25.8863 H   0  0  0  0  0  0
  -20.9346  -29.8798   21.6902 H   0  0  0  0  0  0
  -26.0186  -38.2871   24.1363 H   0  0  0  0  0  0
  -28.6228  -17.7769   20.5492 H   0  0  0  0  0  0
  -26.4122  -22.9801   19.8969 H   0  0  0  0  0  0
  -27.0169  -21.3467   19.7894 H   0  0  0  0  0  0
  -27.6959  -22.5942   18.7533 H   0  0  0  0  0  0
  -30.7546  -23.1385   19.4563 H   0  0  0  0  0  0
  -29.9659  -21.8202   18.6016 H   0  0  0  0  0  0
  -31.4198  -21.5182   19.5379 H   0  0  0  0  0  0
  -27.7555  -24.6144   21.6953 H   0  0  0  0  0  0
  -29.4706  -24.4541   21.6042 H   0  0  0  0  0  0
  -27.7679  -24.9416   19.0843 H   0  0  0  0  0  0
  -29.4608  -25.1192   19.2590 H   0  0  0  0  0  0
  -27.8984  -22.4192   21.7816 H   0  0  0  0  0  0
  -30.2520  -22.0057   21.6472 H   0  0  0  0  0  0
  -33.6912  -16.7350   22.3986 H   0  0  0  0  0  0
  -35.0507  -17.5970   23.1093 H   0  0  0  0  0  0
  -29.0300  -15.3552   21.2127 H   0  0  0  0  0  0
  -28.3253  -20.1498   20.4657 H   0  0  0  0  0  0
  -32.9762  -20.5642   22.7352 H   0  0  0  0  0  0
  -34.5586  -20.1085   23.3597 H   0  0  0  0  0  0
  1 25  1  0  0  0
  1 30  2  0  0  0
  1 85  1  0  0  0
  2  3  1  0  0  0
  2 25  1  0  0  0
  2 88  1  0  0  0
  2 89  1  0  0  0
  3  4  1  0  0  0
  3 90  1  0  0  0
  3 91  1  0  0  0
  4  5  1  0  0  0
  4 92  1  0  0  0
  4 93  1  0  0  0
  5  6  1  0  0  0
  5 26  1  0  0  0
  5 94  1  0  0  0
  6 25  1  0  0  0
  6 95  1  0  0  0
  6 96  1  0  0  0
  7  8  2  0  0  0
  7 26  1  0  0  0
  7 29  1  0  0  0
  8  9  1  0  0  0
  8 22  1  0  0  0
  9 10  1  0  0  0
  9 27  2  0  0  0
 10 11  2  0  0  0
 10 15  1  0  0  0
 11 12  1  0  0  0
 11 97  1  0  0  0
 12 13  2  0  0  0
 12 98  1  0  0  0
 13 14  1  0  0  0
 13 31  1  0  0  0
 14 15  2  0  0  0
 14 99  1  0  0  0
 15100  1  0  0  0
 16 17  2  0  0  0
 16 21  1  0  0  0
 16 31  1  0  0  0
 17 18  1  0  0  0
 17101  1  0  0  0
 18 19  2  0  0  0
 18102  1  0  0  0
 19 20  1  0  0  0
 19 24  1  0  0  0
 20 21  2  0  0  0
 20103  1  0  0  0
 21 23  1  0  0  0
 22 28  1  0  0  0
 22 32  2  0  0  0
 26 27  1  0  0  0
 28104  1  0  0  0
 28105  1  0  0  0
 29106  1  0  0  0
 29107  1  0  0  0
 33 34  1  0  0  0
 33 66  1  0  0  0
 33 70  2  0  0  0
 34 36  1  0  0  0
 34 59  1  0  0  0
 34108  1  0  0  0
 35 44  2  0  0  0
 35 45  1  0  0  0
 35 68  1  0  0  0
 36 56  1  0  0  0
 36109  1  0  0  0
 37 39  1  0  0  0
 37 47  1  0  0  0
 37 66  1  0  0  0
 37110  1  0  0  0
 38 43  2  0  0  0
 38 46  1  0  0  0
 38 47  1  0  0  0
 39 64  1  0  0  0
 39 67  2  0  0  0
 40 52  1  0  0  0
 40 53  2  0  0  0
 40 58  1  0  0  0
 41111  1  0  0  0
 41112  1  0  0  0
 41113  1  0  0  0
 41 48  1  0  0  0
 42 43  1  0  0  0
 42 66  1  0  0  0
 42114  1  0  0  0
 42115  1  0  0  0
 43 44  1  0  0  0
 44116  1  0  0  0
 45 46  2  0  0  0
 45117  1  0  0  0
 46118  1  0  0  0
 47119  1  0  0  0
 47120  1  0  0  0
 48 56  1  0  0  0
 48 65  1  0  0  0
 48121  1  0  0  0
 49 50  1  0  0  0
 49 53  1  0  0  0
 49 64  1  0  0  0
 49122  1  0  0  0
 50 51  1  0  0  0
 50123  1  0  0  0
 50124  1  0  0  0
 51 52  1  0  0  0
 51125  1  0  0  0
 51126  1  0  0  0
 52127  1  0  0  0
 52128  1  0  0  0
 53 54  1  0  0  0
 54 55  2  0  0  0
 54129  1  0  0  0
 55 57  1  0  0  0
 55130  1  0  0  0
 56 69  2  0  0  0
 57 58  2  0  0  0
 57131  1  0  0  0
 58132  1  0  0  0
 59 60  1  0  0  0
 59 61  1  0  0  0
 59 62  1  0  0  0
 60133  1  0  0  0
 60134  1  0  0  0
 60135  1  0  0  0
 61136  1  0  0  0
 61137  1  0  0  0
 61138  1  0  0  0
 62139  1  0  0  0
 62140  1  0  0  0
 62141  1  0  0  0
 63 65  1  0  0  0
 63142  1  0  0  0
 63143  1  0  0  0
 63144  1  0  0  0
 64145  1  0  0  0
 65146  1  0  0  0
 68 79  1  0  0  0
 71 72  2  0  0  0
 71 73  1  0  0  0
 71147  1  0  0  0
 72 82  1  0  0  0
 72 85  1  0  0  0
 73 83  2  0  0  0
 73 86  1  0  0  0
 74 75  1  0  0  0
 74 82  2  0  0  0
 74 83  1  0  0  0
 75 84  1  0  0  0
 75 87  2  0  0  0
 76148  1  0  0  0
 76149  1  0  0  0
 76150  1  0  0  0
 76 80  1  0  0  0
 77151  1  0  0  0
 77152  1  0  0  0
 77153  1  0  0  0
 77 81  1  0  0  0
 78 79  1  0  0  0
 78 80  1  0  0  0
 78154  1  0  0  0
 78155  1  0  0  0
 79156  1  0  0  0
 79157  1  0  0  0
 80 81  1  0  0  0
 80158  1  0  0  0
 81 86  1  0  0  0
 81159  1  0  0  0
 84160  1  0  0  0
 84161  1  0  0  0
 85162  1  0  0  0
 86163  1  0  0  0
 87164  1  0  0  0
 87165  1  0  0  0
M  CHG  1  87   1
M  ISO  4   1 100  68 101  79 101  85 100
M  END
> <chiral flag>
0

> <version>
0

> <s_m_source_file>
/data/baiqing/PycharmProjects/Reinvent-master-3.2/result/LINK_invent/BTK/process_docking_weight1_custom_product_contain_oxygen_bond_distance_aromatic_linkinvent_7_9_3/rearranged_h_0190.sdf

> <i_m_source_file_index>
13

> <r_mmod_Potential_Energy-OPLS-2005>
-921.355041503906

> <r_mmod_Stretch_Energy-OPLS-2005>
49.0766944885254

> <r_mmod_Bend_Energy-OPLS-2005>
158.550323486328

> <r_mmod_Torsional_Energy-OPLS-2005>
239.485397338867

> <r_mmod_Improper_Torsional_Energy-OPLS-2005>
4.7233419418335

> <r_mmod_Van_der_Waal_Energy-OPLS-2005>
175.132827758789

> <r_mmod_Electrostatic_Energy-OPLS-2005>
-1107.90490722656

> <r_mmod_Solvation_Energy-OPLS-2005>
-459.302276611328

> <b_mmod_Minimization_Converged-OPLS-2005>
0

> <r_mmod_RMS_Derivative-OPLS-2005>
3.43708944320679

$$$$
13
                    3D
 Structure written by MMmdl.
167175  0  0  1  0            999 V2000
  -30.6093  -14.7000   20.5092 C   0  0  0  0  0  0
  -30.4435  -12.4289   19.4704 C   0  0  0  0  0  0
  -29.5158  -12.5078   18.2366 C   0  0  0  0  0  0
  -28.0384  -12.3385   18.6445 C   0  0  0  0  0  0
  -27.6516  -13.2218   19.8591 C   0  0  2  0  0  0
  -28.6962  -13.1176   20.9924 C   0  0  0  0  0  0
  -25.2560  -13.8180   20.5696 C   0  0  0  0  0  0
  -24.1832  -13.0441   20.9201 C   0  0  0  0  0  0
  -24.6408  -11.6917   20.8749 C   0  0  0  0  0  0
  -23.9078  -10.4298   21.0421 C   0  0  0  0  0  0
  -24.3627   -9.4211   21.9191 C   0  0  0  0  0  0
  -23.6306   -8.2241   22.0752 C   0  0  0  0  0  0
  -22.4282   -8.0287   21.3553 C   0  0  0  0  0  0
  -21.9929   -9.0258   20.4644 C   0  0  0  0  0  0
  -22.7257  -10.2139   20.3064 C   0  0  0  0  0  0
  -21.6854   -6.0747   22.5286 C   0  0  0  0  0  0
  -21.4011   -6.5646   23.8214 C   0  0  0  0  0  0
  -21.3657   -5.6799   24.9180 C   0  0  0  0  0  0
  -21.6045   -4.3062   24.7229 C   0  0  0  0  0  0
  -21.8821   -3.8156   23.4348 C   0  0  0  0  0  0
  -21.9192   -4.6973   22.3407 C   0  0  0  0  0  0
  -22.7858  -13.5234   21.1864 C   0  0  0  0  0  0
  -22.1664   -4.2158   21.0986 F   0  0  0  0  0  0
  -21.5628   -3.4546   25.7744 F   0  0  0  0  0  0
  -30.0072  -13.4653   20.4313 N   0  0  0  0  0  0
  -26.2989  -12.9370   20.3315 N   0  0  0  0  0  0
  -25.9342  -11.6522   20.5762 N   0  0  0  0  0  0
  -22.0495  -12.8214   22.0411 N   0  0  0  0  0  0
  -25.4297  -15.1896   20.4128 N   0  0  0  0  0  0
  -31.7669  -14.8380   20.1016 O   0  0  0  0  0  0
  -21.6640   -6.8889   21.4248 O   0  0  0  0  0  0
  -22.3548  -14.5541   20.6714 O   0  0  0  0  0  0
  -24.6299  -31.8571   23.2013 C   0  0  0  0  0  0
  -25.9131  -32.4764   23.8357 C   0  0  1  0  0  0
  -27.2214  -27.2815   20.1328 C   0  0  0  0  0  0
  -25.5931  -33.8564   24.2282 N   0  0  0  0  0  0
  -23.4258  -30.4833   21.5422 C   0  0  2  0  0  0
  -24.8749  -28.9357   20.1116 C   0  0  0  0  0  0
  -22.7488  -29.4630   22.4892 C   0  0  0  0  0  0
  -18.0296  -28.1385   22.8492 C   0  0  0  0  0  0
  -24.1484  -36.7291   23.2636 C   0  0  0  0  0  0
  -25.9710  -30.7795   21.3782 C   0  0  0  0  0  0
  -26.0461  -29.4037   20.7212 C   0  0  0  0  0  0
  -27.2241  -28.5898   20.7201 C   0  0  0  0  0  0
  -26.0325  -26.8892   19.4760 C   0  0  0  0  0  0
  -24.8728  -27.6855   19.4769 C   0  0  0  0  0  0
  -23.6441  -29.8190   20.1582 C   0  0  0  0  0  0
  -25.4105  -36.3075   24.0332 C   0  0  1  0  0  0
  -20.5899  -28.3707   23.1257 C   0  0  2  0  0  0
  -20.6779  -26.9421   22.5397 C   0  0  0  0  0  0
  -19.5751  -26.6388   21.5203 C   0  0  0  0  0  0
  -18.1937  -26.7929   22.1628 C   0  0  0  0  0  0
  -19.1550  -28.8859   23.2878 C   0  0  0  0  0  0
  -18.9467  -30.1454   23.8907 C   0  0  0  0  0  0
  -17.6466  -30.6588   24.0563 C   0  0  0  0  0  0
  -25.9049  -34.9444   23.5109 C   0  0  0  0  0  0
  -16.5359  -29.9085   23.6326 C   0  0  0  0  0  0
  -16.7282  -28.6495   23.0364 C   0  0  0  0  0  0
  -26.4506  -31.6574   25.0734 C   0  0  0  0  0  0
  -25.3734  -31.3713   26.1457 C   0  0  0  0  0  0
  -27.0347  -30.2985   24.6217 C   0  0  0  0  0  0
  -27.6067  -32.4307   25.7509 C   0  0  0  0  0  0
  -27.5581  -37.1792   24.8460 C   0  0  0  0  0  0
  -21.4198  -29.3059   22.3634 N   0  0  0  0  0  0
  -26.4284  -37.3773   23.9422 N   0  0  0  0  0  0
  -24.6945  -31.0569   22.0972 N   0  0  0  0  0  0
  -23.4192  -28.8167   23.2983 O   0  0  0  0  0  0
  -28.3113  -26.3840   20.1793 O   0  0  0  0  0  0
  -26.5621  -34.8913   22.4677 O   0  0  0  0  0  0
  -23.5455  -32.1375   23.7326 O   0  0  0  0  0  0
  -28.2939  -18.6294   21.7242 C   0  0  0  0  0  0
  -29.3861  -18.7109   20.8969 C   0  0  0  0  0  0
  -28.7113  -20.9910   21.0162 C   0  0  0  0  0  0
  -33.2941  -24.5610   19.5140 C   0  0  0  0  0  0
  -33.9805  -22.4366   20.6858 C   0  0  0  0  0  0
  -30.3636  -24.2082   22.5569 C   0  0  0  0  0  0
  -30.2437  -17.4665   20.4614 C   0  0  0  0  0  0
  -29.8178  -16.0014   20.9888 C   0  0  0  0  0  0
  -31.5297  -23.0615   20.6000 C   0  0  0  0  0  0
  -28.0179  -24.9597   20.5521 C   0  0  0  0  0  0
  -32.9760  -23.5978   20.6713 C   0  0  0  0  0  0
  -30.4361  -24.0711   21.0206 C   0  0  1  0  0  0
  -29.0646  -23.7329   20.3842 C   0  0  1  0  0  0
  -29.6075  -20.0898   20.5016 N   0  0  0  0  0  0
  -28.5374  -22.4154   20.8977 N   0  0  0  0  0  0
  -27.5315  -20.1716   22.0334 S   0  0  0  0  0  0
  -31.4843  -12.5578   19.1676 H   0  0  0  0  0  0
  -30.3891  -11.4418   19.9327 H   0  0  0  0  0  0
  -29.7916  -11.7430   17.5094 H   0  0  0  0  0  0
  -29.6486  -13.4676   17.7360 H   0  0  0  0  0  0
  -27.8804  -11.2872   18.8879 H   0  0  0  0  0  0
  -27.3861  -12.5560   17.7982 H   0  0  0  0  0  0
  -27.6573  -14.2484   19.4944 H   0  0  0  0  0  0
  -28.7201  -12.1071   21.4035 H   0  0  0  0  0  0
  -28.4360  -13.7745   21.8232 H   0  0  0  0  0  0
  -25.2771   -9.5682   22.4765 H   0  0  0  0  0  0
  -24.0019   -7.4633   22.7466 H   0  0  0  0  0  0
  -21.0864   -8.8784   19.8941 H   0  0  0  0  0  0
  -22.3727  -10.9683   19.6174 H   0  0  0  0  0  0
  -21.2001   -7.6154   23.9724 H   0  0  0  0  0  0
  -21.1477   -6.0528   25.9081 H   0  0  0  0  0  0
  -22.0600   -2.7622   23.2848 H   0  0  0  0  0  0
  -22.4122  -11.9881   22.4798 H   0  0  0  0  0  0
  -21.1107  -13.1227   22.2601 H   0  0  0  0  0  0
  -24.6659  -15.8477   20.5224 H   0  0  0  0  0  0
  -26.2812  -15.6252   20.0830 H   0  0  0  0  0  0
  -26.7203  -32.5426   23.1108 H   0  0  0  0  0  0
  -25.0052  -33.9698   25.0412 H   0  0  0  0  0  0
  -22.7224  -31.3058   21.3961 H   0  0  0  0  0  0
  -23.3750  -35.9618   23.3275 H   0  0  0  0  0  0
  -24.3582  -36.8936   22.2057 H   0  0  0  0  0  0
  -23.7230  -37.6483   23.6671 H   0  0  0  0  0  0
  -26.1060  -31.5431   20.6107 H   0  0  0  0  0  0
  -26.8497  -30.8294   22.0095 H   0  0  0  0  0  0
  -28.1212  -28.9448   21.2085 H   0  0  0  0  0  0
  -25.9754  -25.9498   18.9480 H   0  0  0  0  0  0
  -23.9813  -27.3274   18.9806 H   0  0  0  0  0  0
  -23.7650  -30.5946   19.4008 H   0  0  0  0  0  0
  -22.7638  -29.2494   19.8547 H   0  0  0  0  0  0
  -25.1278  -36.1924   25.0823 H   0  0  0  0  0  0
  -21.0019  -28.3290   24.1367 H   0  0  0  0  0  0
  -20.5667  -26.2319   23.3605 H   0  0  0  0  0  0
  -21.6645  -26.7428   22.1197 H   0  0  0  0  0  0
  -19.6908  -25.6294   21.1239 H   0  0  0  0  0  0
  -19.6687  -27.3187   20.6724 H   0  0  0  0  0  0
  -17.4200  -26.6685   21.4035 H   0  0  0  0  0  0
  -18.0345  -26.0062   22.9019 H   0  0  0  0  0  0
  -19.7940  -30.7265   24.2293 H   0  0  0  0  0  0
  -17.5018  -31.6271   24.5155 H   0  0  0  0  0  0
  -15.5360  -30.2993   23.7630 H   0  0  0  0  0  0
  -15.8685  -28.0804   22.7095 H   0  0  0  0  0  0
  -24.5913  -30.7060   25.7776 H   0  0  0  0  0  0
  -24.8923  -32.2879   26.4882 H   0  0  0  0  0  0
  -25.8057  -30.8886   27.0232 H   0  0  0  0  0  0
  -26.2927  -29.6736   24.1233 H   0  0  0  0  0  0
  -27.4006  -29.7247   25.4743 H   0  0  0  0  0  0
  -27.8818  -30.4244   23.9470 H   0  0  0  0  0  0
  -27.2680  -33.3607   26.2089 H   0  0  0  0  0  0
  -28.3883  -32.6866   25.0343 H   0  0  0  0  0  0
  -28.0731  -31.8426   26.5427 H   0  0  0  0  0  0
  -28.2571  -38.0113   24.7531 H   0  0  0  0  0  0
  -28.1103  -36.2648   24.6246 H   0  0  0  0  0  0
  -27.2309  -37.1389   25.8862 H   0  0  0  0  0  0
  -20.9368  -29.8787   21.6855 H   0  0  0  0  0  0
  -26.0163  -38.2843   24.1437 H   0  0  0  0  0  0
  -27.8779  -17.7418   22.1810 H   0  0  0  0  0  0
  -34.3206  -24.9246   19.5758 H   0  0  0  0  0  0
  -32.6445  -25.4361   19.5192 H   0  0  0  0  0  0
  -33.1776  -24.0709   18.5465 H   0  0  0  0  0  0
  -35.0066  -22.8013   20.7454 H   0  0  0  0  0  0
  -33.8952  -21.8246   19.7867 H   0  0  0  0  0  0
  -33.8162  -21.7869   21.5467 H   0  0  0  0  0  0
  -31.3227  -24.5076   22.9782 H   0  0  0  0  0  0
  -30.0805  -23.2680   23.0308 H   0  0  0  0  0  0
  -29.6403  -24.9637   22.8610 H   0  0  0  0  0  0
  -31.2795  -17.6343   20.7596 H   0  0  0  0  0  0
  -30.2751  -17.4284   19.3724 H   0  0  0  0  0  0
  -28.7717  -15.8625   20.7230 H   0  0  0  0  0  0
  -29.8488  -16.0017   22.0781 H   0  0  0  0  0  0
  -31.4374  -22.1766   21.2312 H   0  0  0  0  0  0
  -31.3412  -22.7085   19.5851 H   0  0  0  0  0  0
  -27.7166  -24.9956   21.5991 H   0  0  0  0  0  0
  -27.1257  -24.6197   20.0333 H   0  0  0  0  0  0
  -33.1058  -24.1422   21.6072 H   0  0  0  0  0  0
  -30.7146  -25.0473   20.6234 H   0  0  0  0  0  0
  -29.2206  -23.6082   19.3113 H   0  0  0  0  0  0
  -27.7150  -22.6335   21.4486 H   0  0  0  0  0  0
  1 25  1  0  0  0
  1 30  2  0  0  0
  1 78  1  0  0  0
  2  3  1  0  0  0
  2 25  1  0  0  0
  2 87  1  0  0  0
  2 88  1  0  0  0
  3  4  1  0  0  0
  3 89  1  0  0  0
  3 90  1  0  0  0
  4  5  1  0  0  0
  4 91  1  0  0  0
  4 92  1  0  0  0
  5  6  1  0  0  0
  5 26  1  0  0  0
  5 93  1  0  0  0
  6 25  1  0  0  0
  6 94  1  0  0  0
  6 95  1  0  0  0
  7  8  2  0  0  0
  7 26  1  0  0  0
  7 29  1  0  0  0
  8  9  1  0  0  0
  8 22  1  0  0  0
  9 10  1  0  0  0
  9 27  2  0  0  0
 10 11  2  0  0  0
 10 15  1  0  0  0
 11 12  1  0  0  0
 11 96  1  0  0  0
 12 13  2  0  0  0
 12 97  1  0  0  0
 13 14  1  0  0  0
 13 31  1  0  0  0
 14 15  2  0  0  0
 14 98  1  0  0  0
 15 99  1  0  0  0
 16 17  2  0  0  0
 16 21  1  0  0  0
 16 31  1  0  0  0
 17 18  1  0  0  0
 17100  1  0  0  0
 18 19  2  0  0  0
 18101  1  0  0  0
 19 20  1  0  0  0
 19 24  1  0  0  0
 20 21  2  0  0  0
 20102  1  0  0  0
 21 23  1  0  0  0
 22 28  1  0  0  0
 22 32  2  0  0  0
 26 27  1  0  0  0
 28103  1  0  0  0
 28104  1  0  0  0
 29105  1  0  0  0
 29106  1  0  0  0
 33 34  1  0  0  0
 33 66  1  0  0  0
 33 70  2  0  0  0
 34 36  1  0  0  0
 34 59  1  0  0  0
 34107  1  0  0  0
 35 44  2  0  0  0
 35 45  1  0  0  0
 35 68  1  0  0  0
 36 56  1  0  0  0
 36108  1  0  0  0
 37 39  1  0  0  0
 37 47  1  0  0  0
 37 66  1  0  0  0
 37109  1  0  0  0
 38 43  2  0  0  0
 38 46  1  0  0  0
 38 47  1  0  0  0
 39 64  1  0  0  0
 39 67  2  0  0  0
 40 52  1  0  0  0
 40 53  2  0  0  0
 40 58  1  0  0  0
 41110  1  0  0  0
 41111  1  0  0  0
 41112  1  0  0  0
 41 48  1  0  0  0
 42 43  1  0  0  0
 42 66  1  0  0  0
 42113  1  0  0  0
 42114  1  0  0  0
 43 44  1  0  0  0
 44115  1  0  0  0
 45 46  2  0  0  0
 45116  1  0  0  0
 46117  1  0  0  0
 47118  1  0  0  0
 47119  1  0  0  0
 48 56  1  0  0  0
 48 65  1  0  0  0
 48120  1  0  0  0
 49 50  1  0  0  0
 49 53  1  0  0  0
 49 64  1  0  0  0
 49121  1  0  0  0
 50 51  1  0  0  0
 50122  1  0  0  0
 50123  1  0  0  0
 51 52  1  0  0  0
 51124  1  0  0  0
 51125  1  0  0  0
 52126  1  0  0  0
 52127  1  0  0  0
 53 54  1  0  0  0
 54 55  2  0  0  0
 54128  1  0  0  0
 55 57  1  0  0  0
 55129  1  0  0  0
 56 69  2  0  0  0
 57 58  2  0  0  0
 57130  1  0  0  0
 58131  1  0  0  0
 59 60  1  0  0  0
 59 61  1  0  0  0
 59 62  1  0  0  0
 60132  1  0  0  0
 60133  1  0  0  0
 60134  1  0  0  0
 61135  1  0  0  0
 61136  1  0  0  0
 61137  1  0  0  0
 62138  1  0  0  0
 62139  1  0  0  0
 62140  1  0  0  0
 63 65  1  0  0  0
 63141  1  0  0  0
 63142  1  0  0  0
 63143  1  0  0  0
 64144  1  0  0  0
 65145  1  0  0  0
 68 80  1  0  0  0
 71 72  2  0  0  0
 71 86  1  0  0  0
 71146  1  0  0  0
 72 77  1  0  0  0
 72 84  1  0  0  0
 73 84  2  0  0  0
 73 85  1  0  0  0
 73 86  1  0  0  0
 74147  1  0  0  0
 74148  1  0  0  0
 74149  1  0  0  0
 74 81  1  0  0  0
 75 81  1  0  0  0
 75150  1  0  0  0
 75151  1  0  0  0
 75152  1  0  0  0
 76153  1  0  0  0
 76154  1  0  0  0
 76155  1  0  0  0
 76 82  1  0  0  0
 77 78  1  0  0  0
 77156  1  0  0  0
 77157  1  0  0  0
 78158  1  0  0  0
 78159  1  0  0  0
 79 81  1  0  0  0
 79 82  1  0  0  0
 79160  1  0  0  0
 79161  1  0  0  0
 80162  1  0  0  0
 80163  1  0  0  0
 80 83  1  0  0  0
 81164  1  0  0  0
 82 83  1  0  0  0
 82165  1  0  0  0
 83 85  1  0  0  0
 83166  1  0  0  0
 85167  1  0  0  0
M  ISO  4   1 100  68 101  78 100  80 101
M  END
> <chiral flag>
0

> <version>
0

> <s_m_source_file>
/data/baiqing/PycharmProjects/Reinvent-master-3.2/result/LINK_invent/BTK/process_docking_weight1_custom_product_contain_oxygen_bond_distance_aromatic_linkinvent_7_9_3/rearranged_h_0190.sdf

> <i_m_source_file_index>
14

> <r_mmod_Potential_Energy-OPLS-2005>
13.0224390029907

> <r_mmod_Stretch_Energy-OPLS-2005>
106.303810119629

> <r_mmod_Bend_Energy-OPLS-2005>
176.493270874023

> <r_mmod_Torsional_Energy-OPLS-2005>
203.378723144531

> <r_mmod_Improper_Torsional_Energy-OPLS-2005>
2.79602432250977

> <r_mmod_Van_der_Waal_Energy-OPLS-2005>
114.315841674805

> <r_mmod_Electrostatic_Energy-OPLS-2005>
-452.429107666016

> <r_mmod_Solvation_Energy-OPLS-2005>
-206.807403564453

> <b_mmod_Minimization_Converged-OPLS-2005>
0

> <r_mmod_RMS_Derivative-OPLS-2005>
1.30024755001068

$$$$
14
                    3D
 Structure written by MMmdl.
176184  0  0  1  0            999 V2000
  -30.6602  -14.7734   20.4644 C   0  0  0  0  0  0
  -30.4082  -12.5040   19.4457 C   0  0  0  0  0  0
  -29.4885  -12.5215   18.2097 C   0  0  0  0  0  0
  -28.0182  -12.3464   18.6314 C   0  0  0  0  0  0
  -27.6227  -13.2458   19.8314 C   0  0  2  0  0  0
  -28.6730  -13.2298   20.9553 C   0  0  0  0  0  0
  -25.2418  -13.8230   20.5674 C   0  0  0  0  0  0
  -24.1750  -13.0455   20.9284 C   0  0  0  0  0  0
  -24.6373  -11.6947   20.8809 C   0  0  0  0  0  0
  -23.9061  -10.4313   21.0409 C   0  0  0  0  0  0
  -24.3632   -9.4208   21.9162 C   0  0  0  0  0  0
  -23.6309   -8.2249   22.0733 C   0  0  0  0  0  0
  -22.4297   -8.0273   21.3521 C   0  0  0  0  0  0
  -21.9928   -9.0237   20.4629 C   0  0  0  0  0  0
  -22.7251  -10.2129   20.3046 C   0  0  0  0  0  0
  -21.6862   -6.0744   22.5278 C   0  0  0  0  0  0
  -21.4018   -6.5646   23.8201 C   0  0  0  0  0  0
  -21.3657   -5.6796   24.9169 C   0  0  0  0  0  0
  -21.6054   -4.3079   24.7233 C   0  0  0  0  0  0
  -21.8825   -3.8158   23.4357 C   0  0  0  0  0  0
  -21.9205   -4.6958   22.3413 C   0  0  0  0  0  0
  -22.7741  -13.5163   21.1918 C   0  0  0  0  0  0
  -22.1663   -4.2152   21.0991 F   0  0  0  0  0  0
  -21.5610   -3.4551   25.7748 F   0  0  0  0  0  0
  -29.9474  -13.6022   20.3361 N   0  0  0  0  0  0
  -26.2850  -12.9467   20.3245 N   0  0  0  0  0  0
  -25.9301  -11.6603   20.5734 N   0  0  0  0  0  0
  -22.0477  -12.8071   22.0491 N   0  0  0  0  0  0
  -25.4056  -15.1935   20.3887 N   0  0  0  0  0  0
  -31.8889  -14.6754   20.3604 O   0  0  0  0  0  0
  -21.6647   -6.8881   21.4240 O   0  0  0  0  0  0
  -22.3394  -14.5454   20.6786 O   0  0  0  0  0  0
  -24.6410  -31.8507   23.1951 C   0  0  0  0  0  0
  -25.9199  -32.4704   23.8289 C   0  0  1  0  0  0
  -27.1913  -27.2030   20.1317 C   0  0  0  0  0  0
  -25.5977  -33.8516   24.2210 N   0  0  0  0  0  0
  -23.4356  -30.4755   21.5416 C   0  0  2  0  0  0
  -24.8742  -28.9160   20.1027 C   0  0  0  0  0  0
  -22.7467  -29.4589   22.4864 C   0  0  0  0  0  0
  -18.0299  -28.1372   22.8489 C   0  0  0  0  0  0
  -24.1493  -36.7296   23.2642 C   0  0  0  0  0  0
  -25.9877  -30.7389   21.3844 C   0  0  0  0  0  0
  -26.0512  -29.3608   20.7209 C   0  0  0  0  0  0
  -27.2143  -28.5163   20.7225 C   0  0  0  0  0  0
  -25.9952  -26.8441   19.4759 C   0  0  0  0  0  0
  -24.8555  -27.6678   19.4660 C   0  0  0  0  0  0
  -23.6532  -29.8165   20.1554 C   0  0  0  0  0  0
  -25.4124  -36.3046   24.0328 C   0  0  1  0  0  0
  -20.5883  -28.3693   23.1244 C   0  0  2  0  0  0
  -20.6786  -26.9402   22.5401 C   0  0  0  0  0  0
  -19.5758  -26.6368   21.5212 C   0  0  0  0  0  0
  -18.1930  -26.7908   22.1622 C   0  0  0  0  0  0
  -19.1551  -28.8854   23.2852 C   0  0  0  0  0  0
  -18.9475  -30.1448   23.8869 C   0  0  0  0  0  0
  -17.6493  -30.6587   24.0566 C   0  0  0  0  0  0
  -25.9064  -34.9422   23.5062 C   0  0  0  0  0  0
  -16.5376  -29.9079   23.6348 C   0  0  0  0  0  0
  -16.7286  -28.6505   23.0347 C   0  0  0  0  0  0
  -26.4533  -31.6543   25.0716 C   0  0  0  0  0  0
  -25.3748  -31.3764   26.1439 C   0  0  0  0  0  0
  -27.0390  -30.2938   24.6259 C   0  0  0  0  0  0
  -27.6005  -32.4359   25.7522 C   0  0  0  0  0  0
  -27.5568  -37.1800   24.8456 C   0  0  0  0  0  0
  -21.4182  -29.3059   22.3624 N   0  0  0  0  0  0
  -26.4289  -37.3766   23.9425 N   0  0  0  0  0  0
  -24.7082  -31.0354   22.0990 N   0  0  0  0  0  0
  -23.4140  -28.8106   23.2961 O   0  0  0  0  0  0
  -28.2524  -26.2549   20.1911 O   0  0  0  0  0  0
  -26.5628  -34.8921   22.4624 O   0  0  0  0  0  0
  -23.5536  -32.1377   23.7237 O   0  0  0  0  0  0
  -28.3467  -18.7463   18.9817 C   0  0  0  0  0  0
  -28.8182  -18.4461   20.2428 C   0  0  0  0  0  0
  -28.6146  -20.8418   20.3102 C   0  0  0  0  0  0
  -28.5289  -18.3259   24.2314 C   0  0  0  0  0  0
  -27.5280  -19.2025   24.9833 C   0  0  0  0  0  0
  -32.0824  -23.0118   20.8207 C   0  0  0  0  0  0
  -32.2265  -22.4400   18.3442 C   0  0  0  0  0  0
  -26.7200  -17.6117   22.7258 C   0  0  0  0  0  0
  -30.9226  -16.8258   19.1773 C   0  0  0  0  0  0
  -30.0859  -23.5026   19.2399 C   0  0  0  0  0  0
  -29.1004  -16.8433   22.3410 C   0  0  0  0  0  0
  -27.9269  -24.7648   20.1323 C   0  0  0  0  0  0
  -29.0589  -16.9472   20.7866 C   0  0  2  0  0  0
  -31.3057  -22.5890   19.5583 C   0  0  0  0  0  0
  -29.0430  -23.5998   20.3772 C   0  0  1  0  0  0
  -28.9631  -19.6897   20.9722 N   0  0  0  0  0  0
  -28.6312  -22.1973   20.8148 N   0  0  0  0  0  0
  -28.1404  -17.6804   23.1019 N   0  0  0  0  0  0
  -30.1017  -16.0274   20.1159 N   0  0  0  0  0  0
  -29.6747  -18.2549   24.6826 O   0  0  0  0  0  0
  -28.1485  -20.4654   18.6601 S   0  0  0  0  0  0
  -31.4420  -12.6319   19.1228 H   0  0  0  0  0  0
  -30.3596  -11.5412   19.9562 H   0  0  0  0  0  0
  -29.7688  -11.7359   17.5083 H   0  0  0  0  0  0
  -29.6053  -13.4619   17.6666 H   0  0  0  0  0  0
  -27.8731  -11.2965   18.8865 H   0  0  0  0  0  0
  -27.3554  -12.5494   17.7885 H   0  0  0  0  0  0
  -27.5918  -14.2594   19.4325 H   0  0  0  0  0  0
  -28.7411  -12.2462   21.4212 H   0  0  0  0  0  0
  -28.3865  -13.9274   21.7417 H   0  0  0  0  0  0
  -25.2761   -9.5645   22.4757 H   0  0  0  0  0  0
  -24.0039   -7.4580   22.7375 H   0  0  0  0  0  0
  -21.0911   -8.8729   19.8834 H   0  0  0  0  0  0
  -22.3713  -10.9684   19.6163 H   0  0  0  0  0  0
  -21.2020   -7.6148   23.9721 H   0  0  0  0  0  0
  -21.1461   -6.0528   25.9075 H   0  0  0  0  0  0
  -22.0622   -2.7621   23.2873 H   0  0  0  0  0  0
  -22.4202  -11.9746   22.4806 H   0  0  0  0  0  0
  -21.1038  -13.0887   22.2695 H   0  0  0  0  0  0
  -24.6231  -15.8350   20.4500 H   0  0  0  0  0  0
  -26.2095  -15.6059   19.9312 H   0  0  0  0  0  0
  -26.7250  -32.5281   23.1009 H   0  0  0  0  0  0
  -25.0115  -33.9608   25.0340 H   0  0  0  0  0  0
  -22.7416  -31.3068   21.3996 H   0  0  0  0  0  0
  -23.3755  -35.9613   23.3284 H   0  0  0  0  0  0
  -24.3601  -36.8963   22.2056 H   0  0  0  0  0  0
  -23.7247  -37.6501   23.6691 H   0  0  0  0  0  0
  -26.1296  -31.4990   20.6141 H   0  0  0  0  0  0
  -26.8675  -30.7850   22.0181 H   0  0  0  0  0  0
  -28.1073  -28.8393   21.2353 H   0  0  0  0  0  0
  -25.8911  -25.8926   18.9799 H   0  0  0  0  0  0
  -23.9635  -27.3171   18.9698 H   0  0  0  0  0  0
  -23.7877  -30.6065   19.4152 H   0  0  0  0  0  0
  -22.7647  -29.2682   19.8381 H   0  0  0  0  0  0
  -25.1288  -36.1893   25.0822 H   0  0  0  0  0  0
  -21.0023  -28.3303   24.1336 H   0  0  0  0  0  0
  -20.5684  -26.2288   23.3602 H   0  0  0  0  0  0
  -21.6636  -26.7389   22.1167 H   0  0  0  0  0  0
  -19.6928  -25.6282   21.1216 H   0  0  0  0  0  0
  -19.6721  -27.3201   20.6760 H   0  0  0  0  0  0
  -17.4183  -26.6657   21.4030 H   0  0  0  0  0  0
  -18.0342  -26.0032   22.9000 H   0  0  0  0  0  0
  -19.7951  -30.7274   24.2185 H   0  0  0  0  0  0
  -17.5050  -31.6260   24.5175 H   0  0  0  0  0  0
  -15.5371  -30.2997   23.7708 H   0  0  0  0  0  0
  -15.8659  -28.0872   22.7034 H   0  0  0  0  0  0
  -24.5883  -30.7144   25.7830 H   0  0  0  0  0  0
  -24.8990  -32.2961   26.4822 H   0  0  0  0  0  0
  -25.8046  -30.8981   27.0237 H   0  0  0  0  0  0
  -26.3007  -29.6680   24.1243 H   0  0  0  0  0  0
  -27.4008  -29.7198   25.4789 H   0  0  0  0  0  0
  -27.8880  -30.4186   23.9552 H   0  0  0  0  0  0
  -27.2499  -33.3657   26.2021 H   0  0  0  0  0  0
  -28.3842  -32.6970   25.0401 H   0  0  0  0  0  0
  -28.0638  -31.8575   26.5523 H   0  0  0  0  0  0
  -28.2524  -38.0125   24.7495 H   0  0  0  0  0  0
  -28.1092  -36.2662   24.6269 H   0  0  0  0  0  0
  -27.2273  -37.1432   25.8839 H   0  0  0  0  0  0
  -20.9374  -29.8844   21.6897 H   0  0  0  0  0  0
  -26.0148  -38.2823   24.1471 H   0  0  0  0  0  0
  -28.1130  -18.0433   18.1919 H   0  0  0  0  0  0
  -27.3353  -20.1174   24.4217 H   0  0  0  0  0  0
  -27.9275  -19.4787   25.9599 H   0  0  0  0  0  0
  -26.5849  -18.6866   25.1552 H   0  0  0  0  0  0
  -32.9046  -22.3206   21.0061 H   0  0  0  0  0  0
  -31.4637  -22.9850   21.7198 H   0  0  0  0  0  0
  -32.4956  -24.0178   20.7304 H   0  0  0  0  0  0
  -33.0239  -21.7290   18.5619 H   0  0  0  0  0  0
  -32.6807  -23.3871   18.0614 H   0  0  0  0  0  0
  -31.6826  -22.0646   17.4774 H   0  0  0  0  0  0
  -26.1773  -16.9449   23.3977 H   0  0  0  0  0  0
  -26.5605  -17.2509   21.7152 H   0  0  0  0  0  0
  -26.2356  -18.5895   22.7575 H   0  0  0  0  0  0
  -31.7133  -16.2822   18.6530 H   0  0  0  0  0  0
  -30.3289  -17.2400   18.3687 H   0  0  0  0  0  0
  -31.3998  -17.6502   19.7069 H   0  0  0  0  0  0
  -29.5847  -23.1174   18.3470 H   0  0  0  0  0  0
  -30.4468  -24.4997   18.9741 H   0  0  0  0  0  0
  -30.1233  -17.1086   22.6181 H   0  0  0  0  0  0
  -28.9685  -15.8186   22.6780 H   0  0  0  0  0  0
  -27.1301  -24.5945   20.8626 H   0  0  0  0  0  0
  -27.4864  -24.5429   19.1606 H   0  0  0  0  0  0
  -28.1504  -16.4217   20.5037 H   0  0  0  0  0  0
  -30.9515  -21.5789   19.7504 H   0  0  0  0  0  0
  -29.5732  -23.9664   21.2513 H   0  0  0  0  0  0
  -28.7514  -22.1361   21.8182 H   0  0  0  0  0  0
  1 25  1  0  0  0
  1 30  2  0  0  0
  1 89  1  0  0  0
  2  3  1  0  0  0
  2 25  1  0  0  0
  2 92  1  0  0  0
  2 93  1  0  0  0
  3  4  1  0  0  0
  3 94  1  0  0  0
  3 95  1  0  0  0
  4  5  1  0  0  0
  4 96  1  0  0  0
  4 97  1  0  0  0
  5  6  1  0  0  0
  5 26  1  0  0  0
  5 98  1  0  0  0
  6 25  1  0  0  0
  6 99  1  0  0  0
  6100  1  0  0  0
  7  8  2  0  0  0
  7 26  1  0  0  0
  7 29  1  0  0  0
  8  9  1  0  0  0
  8 22  1  0  0  0
  9 10  1  0  0  0
  9 27  2  0  0  0
 10 11  2  0  0  0
 10 15  1  0  0  0
 11 12  1  0  0  0
 11101  1  0  0  0
 12 13  2  0  0  0
 12102  1  0  0  0
 13 14  1  0  0  0
 13 31  1  0  0  0
 14 15  2  0  0  0
 14103  1  0  0  0
 15104  1  0  0  0
 16 17  2  0  0  0
 16 21  1  0  0  0
 16 31  1  0  0  0
 17 18  1  0  0  0
 17105  1  0  0  0
 18 19  2  0  0  0
 18106  1  0  0  0
 19 20  1  0  0  0
 19 24  1  0  0  0
 20 21  2  0  0  0
 20107  1  0  0  0
 21 23  1  0  0  0
 22 28  1  0  0  0
 22 32  2  0  0  0
 26 27  1  0  0  0
 28108  1  0  0  0
 28109  1  0  0  0
 29110  1  0  0  0
 29111  1  0  0  0
 33 34  1  0  0  0
 33 66  1  0  0  0
 33 70  2  0  0  0
 34 36  1  0  0  0
 34 59  1  0  0  0
 34112  1  0  0  0
 35 44  2  0  0  0
 35 45  1  0  0  0
 35 68  1  0  0  0
 36 56  1  0  0  0
 36113  1  0  0  0
 37 39  1  0  0  0
 37 47  1  0  0  0
 37 66  1  0  0  0
 37114  1  0  0  0
 38 43  2  0  0  0
 38 46  1  0  0  0
 38 47  1  0  0  0
 39 64  1  0  0  0
 39 67  2  0  0  0
 40 52  1  0  0  0
 40 53  2  0  0  0
 40 58  1  0  0  0
 41115  1  0  0  0
 41116  1  0  0  0
 41117  1  0  0  0
 41 48  1  0  0  0
 42 43  1  0  0  0
 42 66  1  0  0  0
 42118  1  0  0  0
 42119  1  0  0  0
 43 44  1  0  0  0
 44120  1  0  0  0
 45 46  2  0  0  0
 45121  1  0  0  0
 46122  1  0  0  0
 47123  1  0  0  0
 47124  1  0  0  0
 48 56  1  0  0  0
 48 65  1  0  0  0
 48125  1  0  0  0
 49 50  1  0  0  0
 49 53  1  0  0  0
 49 64  1  0  0  0
 49126  1  0  0  0
 50 51  1  0  0  0
 50127  1  0  0  0
 50128  1  0  0  0
 51 52  1  0  0  0
 51129  1  0  0  0
 51130  1  0  0  0
 52131  1  0  0  0
 52132  1  0  0  0
 53 54  1  0  0  0
 54 55  2  0  0  0
 54133  1  0  0  0
 55 57  1  0  0  0
 55134  1  0  0  0
 56 69  2  0  0  0
 57 58  2  0  0  0
 57135  1  0  0  0
 58136  1  0  0  0
 59 60  1  0  0  0
 59 61  1  0  0  0
 59 62  1  0  0  0
 60137  1  0  0  0
 60138  1  0  0  0
 60139  1  0  0  0
 61140  1  0  0  0
 61141  1  0  0  0
 61142  1  0  0  0
 62143  1  0  0  0
 62144  1  0  0  0
 62145  1  0  0  0
 63 65  1  0  0  0
 63146  1  0  0  0
 63147  1  0  0  0
 63148  1  0  0  0
 64149  1  0  0  0
 65150  1  0  0  0
 68 82  1  0  0  0
 71 72  2  0  0  0
 71 91  1  0  0  0
 71151  1  0  0  0
 72 83  1  0  0  0
 72 86  1  0  0  0
 73 86  2  0  0  0
 73 87  1  0  0  0
 73 91  1  0  0  0
 74 75  1  0  0  0
 74 88  1  0  0  0
 74 90  2  0  0  0
 75152  1  0  0  0
 75153  1  0  0  0
 75154  1  0  0  0
 76155  1  0  0  0
 76156  1  0  0  0
 76157  1  0  0  0
 76 84  1  0  0  0
 77 84  1  0  0  0
 77158  1  0  0  0
 77159  1  0  0  0
 77160  1  0  0  0
 78 88  1  0  0  0
 78161  1  0  0  0
 78162  1  0  0  0
 78163  1  0  0  0
 79 89  1  0  0  0
 79164  1  0  0  0
 79165  1  0  0  0
 79166  1  0  0  0
 80 84  1  0  0  0
 80167  1  0  0  0
 80168  1  0  0  0
 80 85  1  0  0  0
 81 88  1  0  0  0
 81169  1  0  0  0
 81170  1  0  0  0
 81 83  1  0  0  0
 82 85  1  0  0  0
 82171  1  0  0  0
 82172  1  0  0  0
 83 89  1  0  0  0
 83173  1  0  0  0
 84174  1  0  0  0
 85 87  1  0  0  0
 85175  1  0  0  0
 87176  1  0  0  0
M  ISO  4   1 100  68 101  82 101  89 100
M  END
> <chiral flag>
0

> <version>
0

> <s_m_source_file>
/data/baiqing/PycharmProjects/Reinvent-master-3.2/result/LINK_invent/BTK/process_docking_weight1_custom_product_contain_oxygen_bond_distance_aromatic_linkinvent_7_9_3/rearranged_h_0190.sdf

> <i_m_source_file_index>
15

> <r_mmod_Potential_Energy-OPLS-2005>
328.227844238281

> <r_mmod_Stretch_Energy-OPLS-2005>
152.422409057617

> <r_mmod_Bend_Energy-OPLS-2005>
219.641220092773

> <r_mmod_Torsional_Energy-OPLS-2005>
329.523010253906

> <r_mmod_Improper_Torsional_Energy-OPLS-2005>
26.0216426849365

> <r_mmod_Van_der_Waal_Energy-OPLS-2005>
137.475860595703

> <r_mmod_Electrostatic_Energy-OPLS-2005>
-436.573516845703

> <r_mmod_Solvation_Energy-OPLS-2005>
-227.332595825195

> <b_mmod_Minimization_Converged-OPLS-2005>
0

> <r_mmod_RMS_Derivative-OPLS-2005>
7.53023338317871

$$$$
15
                    3D
 Structure written by MMmdl.
154162  0  0  1  0            999 V2000
  -30.6243  -14.7394   20.4604 C   0  0  0  0  0  0
  -30.4313  -12.4534   19.4725 C   0  0  0  0  0  0
  -29.5105  -12.5030   18.2337 C   0  0  0  0  0  0
  -28.0372  -12.3271   18.6482 C   0  0  0  0  0  0
  -27.6421  -13.2302   19.8470 C   0  0  2  0  0  0
  -28.6865  -13.1729   20.9841 C   0  0  0  0  0  0
  -25.2525  -13.8184   20.5662 C   0  0  0  0  0  0
  -24.1826  -13.0441   20.9234 C   0  0  0  0  0  0
  -24.6412  -11.6914   20.8771 C   0  0  0  0  0  0
  -23.9092  -10.4289   21.0418 C   0  0  0  0  0  0
  -24.3639   -9.4197   21.9193 C   0  0  0  0  0  0
  -23.6310   -8.2237   22.0770 C   0  0  0  0  0  0
  -22.4289   -8.0287   21.3554 C   0  0  0  0  0  0
  -21.9926   -9.0264   20.4657 C   0  0  0  0  0  0
  -22.7266  -10.2136   20.3066 C   0  0  0  0  0  0
  -21.6851   -6.0744   22.5278 C   0  0  0  0  0  0
  -21.4008   -6.5649   23.8209 C   0  0  0  0  0  0
  -21.3660   -5.6807   24.9178 C   0  0  0  0  0  0
  -21.6042   -4.3068   24.7228 C   0  0  0  0  0  0
  -21.8819   -3.8155   23.4352 C   0  0  0  0  0  0
  -21.9190   -4.6972   22.3405 C   0  0  0  0  0  0
  -22.7846  -13.5229   21.1883 C   0  0  0  0  0  0
  -22.1662   -4.2154   21.0986 F   0  0  0  0  0  0
  -21.5626   -3.4555   25.7743 F   0  0  0  0  0  0
  -29.9879  -13.5200   20.4008 N   0  0  0  0  0  0
  -26.2943  -12.9388   20.3251 N   0  0  0  0  0  0
  -25.9340  -11.6532   20.5762 N   0  0  0  0  0  0
  -22.0476  -12.8219   22.0431 N   0  0  0  0  0  0
  -25.4211  -15.1897   20.3952 N   0  0  0  0  0  0
  -31.8129  -14.8265   20.1396 O   0  0  0  0  0  0
  -21.6648   -6.8890   21.4243 O   0  0  0  0  0  0
  -22.3537  -14.5529   20.6717 O   0  0  0  0  0  0
  -24.6339  -31.8550   23.1999 C   0  0  0  0  0  0
  -25.9158  -32.4750   23.8340 C   0  0  1  0  0  0
  -27.2086  -27.2510   20.1282 C   0  0  0  0  0  0
  -25.5945  -33.8551   24.2253 N   0  0  0  0  0  0
  -23.4304  -30.4809   21.5444 C   0  0  2  0  0  0
  -24.8751  -28.9332   20.1084 C   0  0  0  0  0  0
  -22.7504  -29.4608   22.4901 C   0  0  0  0  0  0
  -18.0292  -28.1375   22.8473 C   0  0  0  0  0  0
  -24.1489  -36.7287   23.2639 C   0  0  0  0  0  0
  -25.9786  -30.7644   21.3837 C   0  0  0  0  0  0
  -26.0492  -29.3892   20.7214 C   0  0  0  0  0  0
  -27.2205  -28.5609   20.7208 C   0  0  0  0  0  0
  -26.0165  -26.8820   19.4631 C   0  0  0  0  0  0
  -24.8655  -27.6885   19.4667 C   0  0  0  0  0  0
  -23.6478  -29.8218   20.1583 C   0  0  0  0  0  0
  -25.4111  -36.3063   24.0323 C   0  0  1  0  0  0
  -20.5897  -28.3704   23.1256 C   0  0  2  0  0  0
  -20.6794  -26.9425   22.5402 C   0  0  0  0  0  0
  -19.5781  -26.6383   21.5204 C   0  0  0  0  0  0
  -18.1957  -26.7906   22.1615 C   0  0  0  0  0  0
  -19.1541  -28.8853   23.2858 C   0  0  0  0  0  0
  -18.9453  -30.1452   23.8877 C   0  0  0  0  0  0
  -17.6449  -30.6574   24.0539 C   0  0  0  0  0  0
  -25.9057  -34.9436   23.5088 C   0  0  0  0  0  0
  -16.5343  -29.9065   23.6313 C   0  0  0  0  0  0
  -16.7273  -28.6480   23.0340 C   0  0  0  0  0  0
  -26.4507  -31.6585   25.0743 C   0  0  0  0  0  0
  -25.3725  -31.3755   26.1464 C   0  0  0  0  0  0
  -27.0360  -30.2993   24.6260 C   0  0  0  0  0  0
  -27.6052  -32.4339   25.7524 C   0  0  0  0  0  0
  -27.5572  -37.1806   24.8462 C   0  0  0  0  0  0
  -21.4208  -29.3059   22.3643 N   0  0  0  0  0  0
  -26.4283  -37.3767   23.9406 N   0  0  0  0  0  0
  -24.7006  -31.0506   22.0992 N   0  0  0  0  0  0
  -23.4192  -28.8137   23.3002 O   0  0  0  0  0  0
  -28.2738  -26.3141   20.2060 O   0  0  0  0  0  0
  -26.5626  -34.8916   22.4654 O   0  0  0  0  0  0
  -23.5482  -32.1378   23.7281 O   0  0  0  0  0  0
  -27.9483  -18.3771   20.7772 C   0  0  0  0  0  0
  -29.2981  -18.5346   20.5882 C   0  0  0  0  0  0
  -28.5445  -20.8093   20.5405 C   0  0  0  0  0  0
  -29.7337  -23.7209   18.9774 C   0  0  0  0  0  0
  -27.3267  -24.8153   21.8808 C   0  0  0  0  0  0
  -30.3318  -17.3398   20.5342 C   0  0  0  0  0  0
  -28.9976  -23.6259   20.3185 C   0  0  1  0  0  0
  -27.9348  -24.8575   20.4635 C   0  0  2  0  0  0
  -29.6148  -19.9522   20.4551 N   0  0  0  0  0  0
  -28.3804  -22.2475   20.4668 N   0  0  0  0  0  0
  -29.8755  -15.8850   20.6687 N   0  0  0  0  0  0
  -27.0621  -19.8886   20.7940 S   0  0  0  0  0  0
  -31.4727  -12.5740   19.1679 H   0  0  0  0  0  0
  -30.3750  -11.4785   19.9570 H   0  0  0  0  0  0
  -29.7935  -11.7265   17.5218 H   0  0  0  0  0  0
  -29.6394  -13.4556   17.7169 H   0  0  0  0  0  0
  -27.8957  -11.2786   18.9131 H   0  0  0  0  0  0
  -27.3796  -12.5149   17.7989 H   0  0  0  0  0  0
  -27.6347  -14.2501   19.4622 H   0  0  0  0  0  0
  -28.7235  -12.1794   21.4332 H   0  0  0  0  0  0
  -28.4209  -13.8630   21.7866 H   0  0  0  0  0  0
  -25.2777   -9.5677   22.4775 H   0  0  0  0  0  0
  -24.0013   -7.4638   22.7501 H   0  0  0  0  0  0
  -21.0852   -8.8796   19.8967 H   0  0  0  0  0  0
  -22.3729  -10.9690   19.6185 H   0  0  0  0  0  0
  -21.1991   -7.6152   23.9716 H   0  0  0  0  0  0
  -21.1486   -6.0536   25.9085 H   0  0  0  0  0  0
  -22.0592   -2.7616   23.2852 H   0  0  0  0  0  0
  -22.4076  -11.9877   22.4817 H   0  0  0  0  0  0
  -21.1094  -13.1240   22.2621 H   0  0  0  0  0  0
  -24.6371  -15.8296   20.4652 H   0  0  0  0  0  0
  -26.2185  -15.5947   19.9238 H   0  0  0  0  0  0
  -26.7232  -32.5390   23.1085 H   0  0  0  0  0  0
  -25.0084  -33.9679   25.0392 H   0  0  0  0  0  0
  -22.7289  -31.3049   21.4010 H   0  0  0  0  0  0
  -23.3745  -35.9628   23.3297 H   0  0  0  0  0  0
  -24.3577  -36.8909   22.2055 H   0  0  0  0  0  0
  -23.7251  -37.6492   23.6665 H   0  0  0  0  0  0
  -26.1202  -31.5286   20.6178 H   0  0  0  0  0  0
  -26.8554  -30.8090   22.0184 H   0  0  0  0  0  0
  -28.1150  -28.9011   21.2232 H   0  0  0  0  0  0
  -25.9338  -25.9467   18.9337 H   0  0  0  0  0  0
  -23.9718  -27.3375   18.9698 H   0  0  0  0  0  0
  -23.7781  -30.6029   19.4086 H   0  0  0  0  0  0
  -22.7639  -29.2615   19.8481 H   0  0  0  0  0  0
  -25.1297  -36.1903   25.0817 H   0  0  0  0  0  0
  -20.9990  -28.3287   24.1382 H   0  0  0  0  0  0
  -20.5705  -26.2318   23.3603 H   0  0  0  0  0  0
  -21.6666  -26.7444   22.1206 H   0  0  0  0  0  0
  -19.6971  -25.6294   21.1248 H   0  0  0  0  0  0
  -19.6714  -27.3196   20.6738 H   0  0  0  0  0  0
  -17.4222  -26.6622   21.4026 H   0  0  0  0  0  0
  -18.0390  -26.0052   22.9011 H   0  0  0  0  0  0
  -19.7919  -30.7275   24.2238 H   0  0  0  0  0  0
  -17.5000  -31.6264   24.5137 H   0  0  0  0  0  0
  -15.5341  -30.2973   23.7642 H   0  0  0  0  0  0
  -15.8672  -28.0793   22.7068 H   0  0  0  0  0  0
  -24.5896  -30.7097   25.7814 H   0  0  0  0  0  0
  -24.8928  -32.2938   26.4868 H   0  0  0  0  0  0
  -25.8048  -30.8959   27.0253 H   0  0  0  0  0  0
  -26.2966  -29.6739   24.1250 H   0  0  0  0  0  0
  -27.3979  -29.7257   25.4804 H   0  0  0  0  0  0
  -27.8865  -30.4247   23.9553 H   0  0  0  0  0  0
  -27.2638  -33.3634   26.2086 H   0  0  0  0  0  0
  -28.3877  -32.6905   25.0376 H   0  0  0  0  0  0
  -28.0704  -31.8479   26.5456 H   0  0  0  0  0  0
  -28.2598  -38.0099   24.7496 H   0  0  0  0  0  0
  -28.1060  -36.2626   24.6301 H   0  0  0  0  0  0
  -27.2288  -37.1472   25.8868 H   0  0  0  0  0  0
  -20.9403  -29.8800   21.6858 H   0  0  0  0  0  0
  -26.0152  -38.2836   24.1416 H   0  0  0  0  0  0
  -27.4048  -17.4540   20.9146 H   0  0  0  0  0  0
  -30.2337  -24.6847   18.8776 H   0  0  0  0  0  0
  -29.0482  -23.6191   18.1357 H   0  0  0  0  0  0
  -30.4967  -22.9464   18.8881 H   0  0  0  0  0  0
  -27.0254  -23.8099   22.1709 H   0  0  0  0  0  0
  -28.0449  -25.1665   22.6212 H   0  0  0  0  0  0
  -26.4356  -25.4383   21.9624 H   0  0  0  0  0  0
  -31.0818  -17.4999   21.3097 H   0  0  0  0  0  0
  -30.8857  -17.4102   19.5972 H   0  0  0  0  0  0
  -29.7410  -23.7327   21.1111 H   0  0  0  0  0  0
  -27.1555  -24.5648   19.7655 H   0  0  0  0  0  0
  -27.3855  -22.4037   20.5902 H   0  0  0  0  0  0
  -28.9026  -15.7429   20.8859 H   0  0  0  0  0  0
  1 25  1  0  0  0
  1 30  2  0  0  0
  1 81  1  0  0  0
  2  3  1  0  0  0
  2 25  1  0  0  0
  2 83  1  0  0  0
  2 84  1  0  0  0
  3  4  1  0  0  0
  3 85  1  0  0  0
  3 86  1  0  0  0
  4  5  1  0  0  0
  4 87  1  0  0  0
  4 88  1  0  0  0
  5  6  1  0  0  0
  5 26  1  0  0  0
  5 89  1  0  0  0
  6 25  1  0  0  0
  6 90  1  0  0  0
  6 91  1  0  0  0
  7  8  2  0  0  0
  7 26  1  0  0  0
  7 29  1  0  0  0
  8  9  1  0  0  0
  8 22  1  0  0  0
  9 10  1  0  0  0
  9 27  2  0  0  0
 10 11  2  0  0  0
 10 15  1  0  0  0
 11 12  1  0  0  0
 11 92  1  0  0  0
 12 13  2  0  0  0
 12 93  1  0  0  0
 13 14  1  0  0  0
 13 31  1  0  0  0
 14 15  2  0  0  0
 14 94  1  0  0  0
 15 95  1  0  0  0
 16 17  2  0  0  0
 16 21  1  0  0  0
 16 31  1  0  0  0
 17 18  1  0  0  0
 17 96  1  0  0  0
 18 19  2  0  0  0
 18 97  1  0  0  0
 19 20  1  0  0  0
 19 24  1  0  0  0
 20 21  2  0  0  0
 20 98  1  0  0  0
 21 23  1  0  0  0
 22 28  1  0  0  0
 22 32  2  0  0  0
 26 27  1  0  0  0
 28 99  1  0  0  0
 28100  1  0  0  0
 29101  1  0  0  0
 29102  1  0  0  0
 33 34  1  0  0  0
 33 66  1  0  0  0
 33 70  2  0  0  0
 34 36  1  0  0  0
 34 59  1  0  0  0
 34103  1  0  0  0
 35 44  2  0  0  0
 35 45  1  0  0  0
 35 68  1  0  0  0
 36 56  1  0  0  0
 36104  1  0  0  0
 37 39  1  0  0  0
 37 47  1  0  0  0
 37 66  1  0  0  0
 37105  1  0  0  0
 38 43  2  0  0  0
 38 46  1  0  0  0
 38 47  1  0  0  0
 39 64  1  0  0  0
 39 67  2  0  0  0
 40 52  1  0  0  0
 40 53  2  0  0  0
 40 58  1  0  0  0
 41106  1  0  0  0
 41107  1  0  0  0
 41108  1  0  0  0
 41 48  1  0  0  0
 42 43  1  0  0  0
 42 66  1  0  0  0
 42109  1  0  0  0
 42110  1  0  0  0
 43 44  1  0  0  0
 44111  1  0  0  0
 45 46  2  0  0  0
 45112  1  0  0  0
 46113  1  0  0  0
 47114  1  0  0  0
 47115  1  0  0  0
 48 56  1  0  0  0
 48 65  1  0  0  0
 48116  1  0  0  0
 49 50  1  0  0  0
 49 53  1  0  0  0
 49 64  1  0  0  0
 49117  1  0  0  0
 50 51  1  0  0  0
 50118  1  0  0  0
 50119  1  0  0  0
 51 52  1  0  0  0
 51120  1  0  0  0
 51121  1  0  0  0
 52122  1  0  0  0
 52123  1  0  0  0
 53 54  1  0  0  0
 54 55  2  0  0  0
 54124  1  0  0  0
 55 57  1  0  0  0
 55125  1  0  0  0
 56 69  2  0  0  0
 57 58  2  0  0  0
 57126  1  0  0  0
 58127  1  0  0  0
 59 60  1  0  0  0
 59 61  1  0  0  0
 59 62  1  0  0  0
 60128  1  0  0  0
 60129  1  0  0  0
 60130  1  0  0  0
 61131  1  0  0  0
 61132  1  0  0  0
 61133  1  0  0  0
 62134  1  0  0  0
 62135  1  0  0  0
 62136  1  0  0  0
 63 65  1  0  0  0
 63137  1  0  0  0
 63138  1  0  0  0
 63139  1  0  0  0
 64140  1  0  0  0
 65141  1  0  0  0
 68 78  1  0  0  0
 71 72  2  0  0  0
 71 82  1  0  0  0
 71142  1  0  0  0
 72 76  1  0  0  0
 72 79  1  0  0  0
 73 79  2  0  0  0
 73 80  1  0  0  0
 73 82  1  0  0  0
 74143  1  0  0  0
 74144  1  0  0  0
 74145  1  0  0  0
 74 77  1  0  0  0
 75146  1  0  0  0
 75147  1  0  0  0
 75148  1  0  0  0
 75 78  1  0  0  0
 76 81  1  0  0  0
 76149  1  0  0  0
 76150  1  0  0  0
 77 78  1  0  0  0
 77 80  1  0  0  0
 77151  1  0  0  0
 78152  1  0  0  0
 80153  1  0  0  0
 81154  1  0  0  0
M  ISO  4   1 100  68 101  78 101  81 100
M  END
> <chiral flag>
0

> <version>
0

> <s_m_source_file>
/data/baiqing/PycharmProjects/Reinvent-master-3.2/result/LINK_invent/BTK/process_docking_weight1_custom_product_contain_oxygen_bond_distance_aromatic_linkinvent_7_9_3/rearranged_h_0190.sdf

> <i_m_source_file_index>
16

> <r_mmod_Potential_Energy-OPLS-2005>
-53.7808418273926

> <r_mmod_Stretch_Energy-OPLS-2005>
121.140510559082

> <r_mmod_Bend_Energy-OPLS-2005>
184.084411621094

> <r_mmod_Torsional_Energy-OPLS-2005>
203.827896118164

> <r_mmod_Improper_Torsional_Energy-OPLS-2005>
5.53095817565918

> <r_mmod_Van_der_Waal_Energy-OPLS-2005>
116.920532226562

> <r_mmod_Electrostatic_Energy-OPLS-2005>
-548.8291015625

> <r_mmod_Solvation_Energy-OPLS-2005>
-228.332122802734

> <b_mmod_Minimization_Converged-OPLS-2005>
0

> <r_mmod_RMS_Derivative-OPLS-2005>
1.68691027164459

$$$$
16
                    3D
 Structure written by MMmdl.
156164  0  0  1  0            999 V2000
  -30.6320  -14.7292   20.4530 C   0  0  0  0  0  0
  -30.4276  -12.4443   19.4729 C   0  0  0  0  0  0
  -29.5070  -12.5061   18.2341 C   0  0  0  0  0  0
  -28.0334  -12.3320   18.6503 C   0  0  0  0  0  0
  -27.6420  -13.2344   19.8519 C   0  0  2  0  0  0
  -28.6886  -13.1726   20.9867 C   0  0  0  0  0  0
  -25.2515  -13.8207   20.5753 C   0  0  0  0  0  0
  -24.1798  -13.0435   20.9194 C   0  0  0  0  0  0
  -24.6399  -11.6920   20.8737 C   0  0  0  0  0  0
  -23.9085  -10.4291   21.0395 C   0  0  0  0  0  0
  -24.3631   -9.4211   21.9178 C   0  0  0  0  0  0
  -23.6298   -8.2252   22.0768 C   0  0  0  0  0  0
  -22.4275   -8.0289   21.3561 C   0  0  0  0  0  0
  -21.9914   -9.0259   20.4653 C   0  0  0  0  0  0
  -22.7256  -10.2130   20.3051 C   0  0  0  0  0  0
  -21.6859   -6.0738   22.5283 C   0  0  0  0  0  0
  -21.4008   -6.5643   23.8217 C   0  0  0  0  0  0
  -21.3662   -5.6797   24.9178 C   0  0  0  0  0  0
  -21.6047   -4.3061   24.7227 C   0  0  0  0  0  0
  -21.8817   -3.8150   23.4350 C   0  0  0  0  0  0
  -21.9189   -4.6963   22.3405 C   0  0  0  0  0  0
  -22.7818  -13.5211   21.1856 C   0  0  0  0  0  0
  -22.1661   -4.2150   21.0981 F   0  0  0  0  0  0
  -21.5627   -3.4544   25.7739 F   0  0  0  0  0  0
  -29.9914  -13.5124   20.4012 N   0  0  0  0  0  0
  -26.2945  -12.9422   20.3314 N   0  0  0  0  0  0
  -25.9333  -11.6557   20.5756 N   0  0  0  0  0  0
  -22.0463  -12.8189   22.0404 N   0  0  0  0  0  0
  -25.4208  -15.1944   20.4316 N   0  0  0  0  0  0
  -31.8210  -14.8116   20.1334 O   0  0  0  0  0  0
  -21.6652   -6.8881   21.4249 O   0  0  0  0  0  0
  -22.3500  -14.5518   20.6720 O   0  0  0  0  0  0
  -24.6330  -31.8551   23.1997 C   0  0  0  0  0  0
  -25.9151  -32.4750   23.8345 C   0  0  1  0  0  0
  -27.2100  -27.2518   20.1272 C   0  0  0  0  0  0
  -25.5938  -33.8555   24.2260 N   0  0  0  0  0  0
  -23.4300  -30.4807   21.5437 C   0  0  2  0  0  0
  -24.8764  -28.9366   20.1048 C   0  0  0  0  0  0
  -22.7508  -29.4604   22.4900 C   0  0  0  0  0  0
  -18.0292  -28.1377   22.8465 C   0  0  0  0  0  0
  -24.1495  -36.7283   23.2641 C   0  0  0  0  0  0
  -25.9787  -30.7665   21.3823 C   0  0  0  0  0  0
  -26.0500  -29.3914   20.7197 C   0  0  0  0  0  0
  -27.2205  -28.5614   20.7218 C   0  0  0  0  0  0
  -26.0206  -26.8899   19.4510 C   0  0  0  0  0  0
  -24.8689  -27.6953   19.4580 C   0  0  0  0  0  0
  -23.6470  -29.8214   20.1579 C   0  0  0  0  0  0
  -25.4116  -36.3061   24.0327 C   0  0  1  0  0  0
  -20.5900  -28.3699   23.1249 C   0  0  2  0  0  0
  -20.6786  -26.9418   22.5390 C   0  0  0  0  0  0
  -19.5762  -26.6383   21.5193 C   0  0  0  0  0  0
  -18.1946  -26.7917   22.1605 C   0  0  0  0  0  0
  -19.1549  -28.8849   23.2855 C   0  0  0  0  0  0
  -18.9462  -30.1446   23.8874 C   0  0  0  0  0  0
  -17.6467  -30.6568   24.0547 C   0  0  0  0  0  0
  -25.9056  -34.9435   23.5093 C   0  0  0  0  0  0
  -16.5356  -29.9067   23.6317 C   0  0  0  0  0  0
  -16.7277  -28.6485   23.0334 C   0  0  0  0  0  0
  -26.4511  -31.6575   25.0737 C   0  0  0  0  0  0
  -25.3732  -31.3739   26.1458 C   0  0  0  0  0  0
  -27.0362  -30.2986   24.6240 C   0  0  0  0  0  0
  -27.6050  -32.4330   25.7519 C   0  0  0  0  0  0
  -27.5573  -37.1802   24.8461 C   0  0  0  0  0  0
  -21.4215  -29.3049   22.3636 N   0  0  0  0  0  0
  -26.4283  -37.3763   23.9405 N   0  0  0  0  0  0
  -24.7001  -31.0510   22.0980 N   0  0  0  0  0  0
  -23.4202  -28.8134   23.2997 O   0  0  0  0  0  0
  -28.2720  -26.3120   20.2296 O   0  0  0  0  0  0
  -26.5623  -34.8908   22.4660 O   0  0  0  0  0  0
  -23.5471  -32.1373   23.7275 O   0  0  0  0  0  0
  -29.4196  -18.5751   20.6993 C   0  0  0  0  0  0
  -28.2916  -18.5909   21.4968 C   0  0  0  0  0  0
  -28.7758  -20.8829   20.5526 C   0  0  0  0  0  0
  -30.2408  -23.9904   19.3667 C   0  0  0  0  0  0
  -26.9862  -24.5602   21.4303 C   0  0  0  0  0  0
  -30.3357  -17.3204   20.3845 C   0  0  0  0  0  0
  -29.0973  -23.6702   20.3356 C   0  0  1  0  0  0
  -27.9537  -24.8269   20.2524 C   0  0  2  0  0  0
  -29.6813  -19.9155   20.1988 N   0  0  0  0  0  0
  -27.7181  -17.5415   22.2114 N   0  0  0  0  0  0
  -28.6106  -22.2503   20.1040 N   0  0  0  0  0  0
  -29.8868  -15.8799   20.6350 N   0  0  0  0  0  0
  -27.5384  -20.1805   21.5933 S   0  0  0  0  0  0
  -31.4714  -12.5553   19.1742 H   0  0  0  0  0  0
  -30.3562  -11.4698   19.9582 H   0  0  0  0  0  0
  -29.7884  -11.7366   17.5136 H   0  0  0  0  0  0
  -29.6346  -13.4633   17.7254 H   0  0  0  0  0  0
  -27.8879  -11.2835   18.9150 H   0  0  0  0  0  0
  -27.3759  -12.5261   17.8014 H   0  0  0  0  0  0
  -27.6339  -14.2565   19.4710 H   0  0  0  0  0  0
  -28.7204  -12.1788   21.4352 H   0  0  0  0  0  0
  -28.4284  -13.8634   21.7907 H   0  0  0  0  0  0
  -25.2774   -9.5687   22.4758 H   0  0  0  0  0  0
  -24.0009   -7.4651   22.7497 H   0  0  0  0  0  0
  -21.0847   -8.8781   19.8957 H   0  0  0  0  0  0
  -22.3718  -10.9673   19.6163 H   0  0  0  0  0  0
  -21.1996   -7.6150   23.9719 H   0  0  0  0  0  0
  -21.1489   -6.0526   25.9084 H   0  0  0  0  0  0
  -22.0585   -2.7613   23.2850 H   0  0  0  0  0  0
  -22.4075  -11.9836   22.4770 H   0  0  0  0  0  0
  -21.1086  -13.1225   22.2622 H   0  0  0  0  0  0
  -24.6772  -15.8485   20.6484 H   0  0  0  0  0  0
  -26.3012  -15.6588   20.2452 H   0  0  0  0  0  0
  -26.7219  -32.5399   23.1090 H   0  0  0  0  0  0
  -25.0093  -33.9699   25.0409 H   0  0  0  0  0  0
  -22.7278  -31.3045   21.3995 H   0  0  0  0  0  0
  -23.3750  -35.9623   23.3298 H   0  0  0  0  0  0
  -24.3586  -36.8906   22.2054 H   0  0  0  0  0  0
  -23.7261  -37.6491   23.6668 H   0  0  0  0  0  0
  -26.1204  -31.5311   20.6169 H   0  0  0  0  0  0
  -26.8542  -30.8113   22.0184 H   0  0  0  0  0  0
  -28.1121  -28.8978   21.2325 H   0  0  0  0  0  0
  -25.9297  -25.9477   18.9352 H   0  0  0  0  0  0
  -23.9740  -27.3474   18.9613 H   0  0  0  0  0  0
  -23.7712  -30.6003   19.4046 H   0  0  0  0  0  0
  -22.7652  -29.2557   19.8505 H   0  0  0  0  0  0
  -25.1303  -36.1906   25.0819 H   0  0  0  0  0  0
  -21.0006  -28.3278   24.1364 H   0  0  0  0  0  0
  -20.5685  -26.2310   23.3595 H   0  0  0  0  0  0
  -21.6651  -26.7438   22.1190 H   0  0  0  0  0  0
  -19.6942  -25.6292   21.1233 H   0  0  0  0  0  0
  -19.6683  -27.3190   20.6720 H   0  0  0  0  0  0
  -17.4201  -26.6646   21.4018 H   0  0  0  0  0  0
  -18.0378  -26.0051   22.8992 H   0  0  0  0  0  0
  -19.7926  -30.7264   24.2249 H   0  0  0  0  0  0
  -17.5040  -31.6246   24.5154 H   0  0  0  0  0  0
  -15.5364  -30.2969   23.7657 H   0  0  0  0  0  0
  -15.8685  -28.0784   22.7047 H   0  0  0  0  0  0
  -24.5907  -30.7082   25.7804 H   0  0  0  0  0  0
  -24.8929  -32.2914   26.4867 H   0  0  0  0  0  0
  -25.8050  -30.8938   27.0248 H   0  0  0  0  0  0
  -26.2958  -29.6734   24.1239 H   0  0  0  0  0  0
  -27.4003  -29.7253   25.4773 H   0  0  0  0  0  0
  -27.8852  -30.4249   23.9520 H   0  0  0  0  0  0
  -27.2637  -33.3631   26.2083 H   0  0  0  0  0  0
  -28.3875  -32.6894   25.0364 H   0  0  0  0  0  0
  -28.0708  -31.8471   26.5455 H   0  0  0  0  0  0
  -28.2591  -38.0098   24.7494 H   0  0  0  0  0  0
  -28.1067  -36.2624   24.6304 H   0  0  0  0  0  0
  -27.2285  -37.1471   25.8864 H   0  0  0  0  0  0
  -20.9401  -29.8781   21.6848 H   0  0  0  0  0  0
  -26.0155  -38.2835   24.1404 H   0  0  0  0  0  0
  -30.6605  -24.9743   19.5837 H   0  0  0  0  0  0
  -29.8978  -24.0015   18.3319 H   0  0  0  0  0  0
  -31.0512  -23.2653   19.4480 H   0  0  0  0  0  0
  -26.0793  -25.1608   21.3936 H   0  0  0  0  0  0
  -27.4708  -24.7665   22.3840 H   0  0  0  0  0  0
  -26.6569  -23.5214   21.4533 H   0  0  0  0  0  0
  -30.6209  -17.3654   19.3328 H   0  0  0  0  0  0
  -31.2714  -17.4467   20.9294 H   0  0  0  0  0  0
  -29.5155  -23.6982   21.3437 H   0  0  0  0  0  0
  -27.4455  -24.6095   19.3151 H   0  0  0  0  0  0
  -28.3246  -16.8321   22.6091 H   0  0  0  0  0  0
  -26.9575  -17.7541   22.8511 H   0  0  0  0  0  0
  -27.6206  -22.3371   19.9009 H   0  0  0  0  0  0
  -28.9059  -15.7627   20.8398 H   0  0  0  0  0  0
  1 25  1  0  0  0
  1 30  2  0  0  0
  1 82  1  0  0  0
  2  3  1  0  0  0
  2 25  1  0  0  0
  2 84  1  0  0  0
  2 85  1  0  0  0
  3  4  1  0  0  0
  3 86  1  0  0  0
  3 87  1  0  0  0
  4  5  1  0  0  0
  4 88  1  0  0  0
  4 89  1  0  0  0
  5  6  1  0  0  0
  5 26  1  0  0  0
  5 90  1  0  0  0
  6 25  1  0  0  0
  6 91  1  0  0  0
  6 92  1  0  0  0
  7  8  2  0  0  0
  7 26  1  0  0  0
  7 29  1  0  0  0
  8  9  1  0  0  0
  8 22  1  0  0  0
  9 10  1  0  0  0
  9 27  2  0  0  0
 10 11  2  0  0  0
 10 15  1  0  0  0
 11 12  1  0  0  0
 11 93  1  0  0  0
 12 13  2  0  0  0
 12 94  1  0  0  0
 13 14  1  0  0  0
 13 31  1  0  0  0
 14 15  2  0  0  0
 14 95  1  0  0  0
 15 96  1  0  0  0
 16 17  2  0  0  0
 16 21  1  0  0  0
 16 31  1  0  0  0
 17 18  1  0  0  0
 17 97  1  0  0  0
 18 19  2  0  0  0
 18 98  1  0  0  0
 19 20  1  0  0  0
 19 24  1  0  0  0
 20 21  2  0  0  0
 20 99  1  0  0  0
 21 23  1  0  0  0
 22 28  1  0  0  0
 22 32  2  0  0  0
 26 27  1  0  0  0
 28100  1  0  0  0
 28101  1  0  0  0
 29102  1  0  0  0
 29103  1  0  0  0
 33 34  1  0  0  0
 33 66  1  0  0  0
 33 70  2  0  0  0
 34 36  1  0  0  0
 34 59  1  0  0  0
 34104  1  0  0  0
 35 44  2  0  0  0
 35 45  1  0  0  0
 35 68  1  0  0  0
 36 56  1  0  0  0
 36105  1  0  0  0
 37 39  1  0  0  0
 37 47  1  0  0  0
 37 66  1  0  0  0
 37106  1  0  0  0
 38 43  2  0  0  0
 38 46  1  0  0  0
 38 47  1  0  0  0
 39 64  1  0  0  0
 39 67  2  0  0  0
 40 52  1  0  0  0
 40 53  2  0  0  0
 40 58  1  0  0  0
 41107  1  0  0  0
 41108  1  0  0  0
 41109  1  0  0  0
 41 48  1  0  0  0
 42 43  1  0  0  0
 42 66  1  0  0  0
 42110  1  0  0  0
 42111  1  0  0  0
 43 44  1  0  0  0
 44112  1  0  0  0
 45 46  2  0  0  0
 45113  1  0  0  0
 46114  1  0  0  0
 47115  1  0  0  0
 47116  1  0  0  0
 48 56  1  0  0  0
 48 65  1  0  0  0
 48117  1  0  0  0
 49 50  1  0  0  0
 49 53  1  0  0  0
 49 64  1  0  0  0
 49118  1  0  0  0
 50 51  1  0  0  0
 50119  1  0  0  0
 50120  1  0  0  0
 51 52  1  0  0  0
 51121  1  0  0  0
 51122  1  0  0  0
 52123  1  0  0  0
 52124  1  0  0  0
 53 54  1  0  0  0
 54 55  2  0  0  0
 54125  1  0  0  0
 55 57  1  0  0  0
 55126  1  0  0  0
 56 69  2  0  0  0
 57 58  2  0  0  0
 57127  1  0  0  0
 58128  1  0  0  0
 59 60  1  0  0  0
 59 61  1  0  0  0
 59 62  1  0  0  0
 60129  1  0  0  0
 60130  1  0  0  0
 60131  1  0  0  0
 61132  1  0  0  0
 61133  1  0  0  0
 61134  1  0  0  0
 62135  1  0  0  0
 62136  1  0  0  0
 62137  1  0  0  0
 63 65  1  0  0  0
 63138  1  0  0  0
 63139  1  0  0  0
 63140  1  0  0  0
 64141  1  0  0  0
 65142  1  0  0  0
 68 78  1  0  0  0
 71 72  2  0  0  0
 71 76  1  0  0  0
 71 79  1  0  0  0
 72 80  1  0  0  0
 72 83  1  0  0  0
 73 79  2  0  0  0
 73 81  1  0  0  0
 73 83  1  0  0  0
 74143  1  0  0  0
 74144  1  0  0  0
 74145  1  0  0  0
 74 77  1  0  0  0
 75146  1  0  0  0
 75147  1  0  0  0
 75148  1  0  0  0
 75 78  1  0  0  0
 76 82  1  0  0  0
 76149  1  0  0  0
 76150  1  0  0  0
 77 78  1  0  0  0
 77 81  1  0  0  0
 77151  1  0  0  0
 78152  1  0  0  0
 80153  1  0  0  0
 80154  1  0  0  0
 81155  1  0  0  0
 82156  1  0  0  0
M  ISO  4   1 100  68 101  78 101  82 100
M  END
> <chiral flag>
0

> <version>
0

> <s_m_source_file>
/data/baiqing/PycharmProjects/Reinvent-master-3.2/result/LINK_invent/BTK/process_docking_weight1_custom_product_contain_oxygen_bond_distance_aromatic_linkinvent_7_9_3/rearranged_h_0190.sdf

> <i_m_source_file_index>
17

> <r_mmod_Potential_Energy-OPLS-2005>
89.2805862426758

> <r_mmod_Stretch_Energy-OPLS-2005>
121.001312255859

> <r_mmod_Bend_Energy-OPLS-2005>
168.48762512207

> <r_mmod_Torsional_Energy-OPLS-2005>
238.265045166016

> <r_mmod_Improper_Torsional_Energy-OPLS-2005>
12.609938621521

> <r_mmod_Van_der_Waal_Energy-OPLS-2005>
118.353538513184

> <r_mmod_Electrostatic_Energy-OPLS-2005>
-435.265350341797

> <r_mmod_Solvation_Energy-OPLS-2005>
-224.873199462891

> <b_mmod_Minimization_Converged-OPLS-2005>
0

> <r_mmod_RMS_Derivative-OPLS-2005>
1.57719528675079

$$$$
17
                    3D
 Structure written by MMmdl.
172180  0  0  1  0            999 V2000
  -30.6905  -14.5364   20.5151 C   0  0  0  0  0  0
  -30.4159  -12.3328   19.4482 C   0  0  0  0  0  0
  -29.5017  -12.5124   18.2191 C   0  0  0  0  0  0
  -28.0188  -12.3832   18.6172 C   0  0  0  0  0  0
  -27.6573  -13.2259   19.8716 C   0  0  2  0  0  0
  -28.6992  -13.0508   21.0004 C   0  0  0  0  0  0
  -25.2571  -13.8206   20.5660 C   0  0  0  0  0  0
  -24.1831  -13.0459   20.9165 C   0  0  0  0  0  0
  -24.6413  -11.6920   20.8709 C   0  0  0  0  0  0
  -23.9090  -10.4283   21.0356 C   0  0  0  0  0  0
  -24.3643   -9.4204   21.9141 C   0  0  0  0  0  0
  -23.6299   -8.2252   22.0748 C   0  0  0  0  0  0
  -22.4274   -8.0291   21.3556 C   0  0  0  0  0  0
  -21.9922   -9.0253   20.4646 C   0  0  0  0  0  0
  -22.7261  -10.2123   20.3019 C   0  0  0  0  0  0
  -21.6879   -6.0720   22.5258 C   0  0  0  0  0  0
  -21.4028   -6.5615   23.8191 C   0  0  0  0  0  0
  -21.3663   -5.6781   24.9160 C   0  0  0  0  0  0
  -21.6063   -4.3043   24.7222 C   0  0  0  0  0  0
  -21.8830   -3.8128   23.4339 C   0  0  0  0  0  0
  -21.9209   -4.6943   22.3387 C   0  0  0  0  0  0
  -22.7841  -13.5215   21.1831 C   0  0  0  0  0  0
  -22.1654   -4.2124   21.0961 F   0  0  0  0  0  0
  -21.5649   -3.4525   25.7732 F   0  0  0  0  0  0
  -30.0277  -13.3457   20.4465 N   0  0  0  0  0  0
  -26.3015  -12.9409   20.3351 N   0  0  0  0  0  0
  -25.9353  -11.6555   20.5753 N   0  0  0  0  0  0
  -22.0517  -12.8176   22.0399 N   0  0  0  0  0  0
  -25.4282  -15.1921   20.4053 N   0  0  0  0  0  0
  -31.8366  -14.6654   20.0739 O   0  0  0  0  0  0
  -21.6674   -6.8860   21.4217 O   0  0  0  0  0  0
  -22.3492  -14.5509   20.6679 O   0  0  0  0  0  0
  -24.6187  -31.8677   23.2110 C   0  0  0  0  0  0
  -25.9045  -32.4850   23.8407 C   0  0  1  0  0  0
  -27.2192  -27.3750   20.0934 C   0  0  0  0  0  0
  -25.5889  -33.8655   24.2329 N   0  0  0  0  0  0
  -23.4105  -30.4933   21.5533 C   0  0  2  0  0  0
  -24.8537  -28.9581   20.1203 C   0  0  0  0  0  0
  -22.7444  -29.4671   22.4980 C   0  0  0  0  0  0
  -18.0283  -28.1375   22.8500 C   0  0  0  0  0  0
  -24.1474  -36.7335   23.2638 C   0  0  0  0  0  0
  -25.9481  -30.8140   21.3743 C   0  0  0  0  0  0
  -26.0228  -29.4457   20.7140 C   0  0  0  0  0  0
  -27.2109  -28.6666   20.6917 C   0  0  0  0  0  0
  -26.0194  -26.9296   19.4867 C   0  0  0  0  0  0
  -24.8480  -27.7012   19.5036 C   0  0  0  0  0  0
  -23.6228  -29.8333   20.1677 C   0  0  0  0  0  0
  -25.4105  -36.3159   24.0335 C   0  0  1  0  0  0
  -20.5878  -28.3694   23.1305 C   0  0  2  0  0  0
  -20.6775  -26.9429   22.5407 C   0  0  0  0  0  0
  -19.5753  -26.6386   21.5215 C   0  0  0  0  0  0
  -18.1935  -26.7919   22.1630 C   0  0  0  0  0  0
  -19.1527  -28.8847   23.2904 C   0  0  0  0  0  0
  -18.9445  -30.1453   23.8929 C   0  0  0  0  0  0
  -17.6447  -30.6582   24.0579 C   0  0  0  0  0  0
  -25.9033  -34.9518   23.5135 C   0  0  0  0  0  0
  -16.5347  -29.9080   23.6332 C   0  0  0  0  0  0
  -16.7277  -28.6489   23.0372 C   0  0  0  0  0  0
  -26.4438  -31.6642   25.0759 C   0  0  0  0  0  0
  -25.3681  -31.3723   26.1485 C   0  0  0  0  0  0
  -27.0275  -30.3085   24.6166 C   0  0  0  0  0  0
  -27.6011  -32.4363   25.7522 C   0  0  0  0  0  0
  -27.5593  -37.1832   24.8472 C   0  0  0  0  0  0
  -21.4173  -29.3067   22.3723 N   0  0  0  0  0  0
  -26.4304  -37.3844   23.9412 N   0  0  0  0  0  0
  -24.6785  -31.0705   22.1053 N   0  0  0  0  0  0
  -23.4194  -28.8212   23.3048 O   0  0  0  0  0  0
  -28.3651  -26.5799   20.1093 O   0  0  0  0  0  0
  -26.5628  -34.8975   22.4715 O   0  0  0  0  0  0
  -23.5351  -32.1460   23.7442 O   0  0  0  0  0  0
  -30.3159  -19.1618   19.9563 C   0  0  0  0  0  0
  -30.1679  -18.7402   18.6470 C   0  0  0  0  0  0
  -30.0411  -16.8821   20.2689 C   0  0  0  0  0  0
  -28.1660  -22.4615   18.5773 C   0  0  0  0  0  0
  -33.9789  -21.2571   22.4716 C   0  0  0  0  0  0
  -32.0480  -22.7614   22.7891 C   0  0  0  0  0  0
  -33.1125  -22.5130   20.5119 C   0  0  0  0  0  0
  -29.4858  -24.2796   19.9052 C   0  0  0  0  0  0
  -29.5261  -21.6213   20.5843 C   0  0  0  0  0  0
  -31.7599  -20.5488   21.5260 C   0  0  0  0  0  0
  -28.1820  -25.1296   20.0652 C   0  0  0  0  0  0
  -30.7070  -20.5937   20.3775 C   0  0  1  0  0  0
  -29.3739  -22.7517   19.4858 C   0  0  1  0  0  0
  -32.6915  -21.7735   21.7979 C   0  0  0  0  0  0
  -30.1492  -18.0864   20.8770 N   0  0  0  0  0  0
  -30.2378  -19.4877   17.4759 N   0  0  0  0  0  0
  -30.0062  -15.6200   20.9534 N   0  0  0  0  0  0
  -29.9281  -17.0153   18.5179 S   0  0  0  0  0  0
  -31.4631  -12.4125   19.1522 H   0  0  0  0  0  0
  -30.3004  -11.3311   19.8664 H   0  0  0  0  0  0
  -29.7436  -11.7724   17.4552 H   0  0  0  0  0  0
  -29.6824  -13.4923   17.7717 H   0  0  0  0  0  0
  -27.8131  -11.3271   18.7967 H   0  0  0  0  0  0
  -27.3840  -12.6768   17.7810 H   0  0  0  0  0  0
  -27.6835  -14.2716   19.5632 H   0  0  0  0  0  0
  -28.6763  -12.0281   21.3771 H   0  0  0  0  0  0
  -28.4605  -13.6884   21.8520 H   0  0  0  0  0  0
  -25.2794   -9.5686   22.4720 H   0  0  0  0  0  0
  -24.0015   -7.4647   22.7477 H   0  0  0  0  0  0
  -21.0865   -8.8782   19.8929 H   0  0  0  0  0  0
  -22.3715  -10.9674   19.6141 H   0  0  0  0  0  0
  -21.1981   -7.6119   23.9677 H   0  0  0  0  0  0
  -21.1494   -6.0511   25.9070 H   0  0  0  0  0  0
  -22.0597   -2.7592   23.2861 H   0  0  0  0  0  0
  -22.4174  -11.9825   22.4745 H   0  0  0  0  0  0
  -21.1135  -13.1176   22.2632 H   0  0  0  0  0  0
  -24.6691  -15.8562   20.5052 H   0  0  0  0  0  0
  -26.2848  -15.6225   20.0822 H   0  0  0  0  0  0
  -26.7125  -32.5531   23.1168 H   0  0  0  0  0  0
  -25.0020  -33.9835   25.0458 H   0  0  0  0  0  0
  -22.7015  -31.3122   21.4119 H   0  0  0  0  0  0
  -23.3769  -35.9638   23.3309 H   0  0  0  0  0  0
  -24.3566  -36.8950   22.2054 H   0  0  0  0  0  0
  -23.7178  -37.6516   23.6653 H   0  0  0  0  0  0
  -26.0657  -31.5790   20.6060 H   0  0  0  0  0  0
  -26.8333  -30.8666   21.9963 H   0  0  0  0  0  0
  -28.1148  -29.0390   21.1542 H   0  0  0  0  0  0
  -25.9375  -25.9870   18.9739 H   0  0  0  0  0  0
  -23.9500  -27.3218   19.0378 H   0  0  0  0  0  0
  -23.7499  -30.6109   19.4138 H   0  0  0  0  0  0
  -22.7440  -29.2645   19.8605 H   0  0  0  0  0  0
  -25.1271  -36.2041   25.0828 H   0  0  0  0  0  0
  -20.9965  -28.3238   24.1429 H   0  0  0  0  0  0
  -20.5669  -26.2318   23.3608 H   0  0  0  0  0  0
  -21.6643  -26.7473   22.1206 H   0  0  0  0  0  0
  -19.6931  -25.6294   21.1261 H   0  0  0  0  0  0
  -19.6672  -27.3177   20.6732 H   0  0  0  0  0  0
  -17.4211  -26.6717   21.4020 H   0  0  0  0  0  0
  -18.0342  -26.0013   22.8976 H   0  0  0  0  0  0
  -19.7920  -30.7277   24.2305 H   0  0  0  0  0  0
  -17.4998  -31.6266   24.5171 H   0  0  0  0  0  0
  -15.5350  -30.3006   23.7609 H   0  0  0  0  0  0
  -15.8684  -28.0812   22.7089 H   0  0  0  0  0  0
  -24.5856  -30.7093   25.7773 H   0  0  0  0  0  0
  -24.8862  -32.2864   26.4974 H   0  0  0  0  0  0
  -25.7998  -30.8833   27.0230 H   0  0  0  0  0  0
  -26.2832  -29.6866   24.1179 H   0  0  0  0  0  0
  -27.3985  -29.7310   25.4639 H   0  0  0  0  0  0
  -27.8703  -30.4409   23.9379 H   0  0  0  0  0  0
  -27.2643  -33.3655   26.2141 H   0  0  0  0  0  0
  -28.3798  -32.6948   25.0334 H   0  0  0  0  0  0
  -28.0731  -31.8478   26.5401 H   0  0  0  0  0  0
  -28.2622  -38.0125   24.7543 H   0  0  0  0  0  0
  -28.1084  -36.2659   24.6264 H   0  0  0  0  0  0
  -27.2335  -37.1454   25.8888 H   0  0  0  0  0  0
  -20.9354  -29.8822   21.6959 H   0  0  0  0  0  0
  -26.0206  -38.2933   24.1396 H   0  0  0  0  0  0
  -28.1136  -23.1690   17.7488 H   0  0  0  0  0  0
  -27.2270  -22.5177   19.1301 H   0  0  0  0  0  0
  -28.2282  -21.4644   18.1411 H   0  0  0  0  0  0
  -34.6556  -22.0769   22.7174 H   0  0  0  0  0  0
  -34.5298  -20.5717   21.8257 H   0  0  0  0  0  0
  -33.7547  -20.7363   23.4027 H   0  0  0  0  0  0
  -32.7570  -23.5339   23.0891 H   0  0  0  0  0  0
  -31.7275  -22.2473   23.6981 H   0  0  0  0  0  0
  -31.1866  -23.2805   22.3794 H   0  0  0  0  0  0
  -33.8443  -23.2912   20.7330 H   0  0  0  0  0  0
  -32.2703  -22.9977   20.0191 H   0  0  0  0  0  0
  -33.5741  -21.8369   19.7909 H   0  0  0  0  0  0
  -30.1214  -24.4045   20.7794 H   0  0  0  0  0  0
  -30.0458  -24.7712   19.1080 H   0  0  0  0  0  0
  -29.5986  -22.0757   21.5694 H   0  0  0  0  0  0
  -28.5942  -21.0569   20.6494 H   0  0  0  0  0  0
  -32.4236  -19.7209   21.2719 H   0  0  0  0  0  0
  -31.2703  -20.2382   22.4495 H   0  0  0  0  0  0
  -27.6378  -24.8077   20.9564 H   0  0  0  0  0  0
  -27.5730  -24.8744   19.2066 H   0  0  0  0  0  0
  -31.2837  -20.9586   19.5322 H   0  0  0  0  0  0
  -30.2220  -22.6287   18.8147 H   0  0  0  0  0  0
  -30.3336  -20.4982   17.4542 H   0  0  0  0  0  0
  -30.0844  -19.0917   16.5537 H   0  0  0  0  0  0
  -29.1764  -15.4422   21.4957 H   0  0  0  0  0  0
  1 25  1  0  0  0
  1 30  2  0  0  0
  1 87  1  0  0  0
  2  3  1  0  0  0
  2 25  1  0  0  0
  2 89  1  0  0  0
  2 90  1  0  0  0
  3  4  1  0  0  0
  3 91  1  0  0  0
  3 92  1  0  0  0
  4  5  1  0  0  0
  4 93  1  0  0  0
  4 94  1  0  0  0
  5  6  1  0  0  0
  5 26  1  0  0  0
  5 95  1  0  0  0
  6 25  1  0  0  0
  6 96  1  0  0  0
  6 97  1  0  0  0
  7  8  2  0  0  0
  7 26  1  0  0  0
  7 29  1  0  0  0
  8  9  1  0  0  0
  8 22  1  0  0  0
  9 10  1  0  0  0
  9 27  2  0  0  0
 10 11  2  0  0  0
 10 15  1  0  0  0
 11 12  1  0  0  0
 11 98  1  0  0  0
 12 13  2  0  0  0
 12 99  1  0  0  0
 13 14  1  0  0  0
 13 31  1  0  0  0
 14 15  2  0  0  0
 14100  1  0  0  0
 15101  1  0  0  0
 16 17  2  0  0  0
 16 21  1  0  0  0
 16 31  1  0  0  0
 17 18  1  0  0  0
 17102  1  0  0  0
 18 19  2  0  0  0
 18103  1  0  0  0
 19 20  1  0  0  0
 19 24  1  0  0  0
 20 21  2  0  0  0
 20104  1  0  0  0
 21 23  1  0  0  0
 22 28  1  0  0  0
 22 32  2  0  0  0
 26 27  1  0  0  0
 28105  1  0  0  0
 28106  1  0  0  0
 29107  1  0  0  0
 29108  1  0  0  0
 33 34  1  0  0  0
 33 66  1  0  0  0
 33 70  2  0  0  0
 34 36  1  0  0  0
 34 59  1  0  0  0
 34109  1  0  0  0
 35 44  2  0  0  0
 35 45  1  0  0  0
 35 68  1  0  0  0
 36 56  1  0  0  0
 36110  1  0  0  0
 37 39  1  0  0  0
 37 47  1  0  0  0
 37 66  1  0  0  0
 37111  1  0  0  0
 38 43  2  0  0  0
 38 46  1  0  0  0
 38 47  1  0  0  0
 39 64  1  0  0  0
 39 67  2  0  0  0
 40 52  1  0  0  0
 40 53  2  0  0  0
 40 58  1  0  0  0
 41112  1  0  0  0
 41113  1  0  0  0
 41114  1  0  0  0
 41 48  1  0  0  0
 42 43  1  0  0  0
 42 66  1  0  0  0
 42115  1  0  0  0
 42116  1  0  0  0
 43 44  1  0  0  0
 44117  1  0  0  0
 45 46  2  0  0  0
 45118  1  0  0  0
 46119  1  0  0  0
 47120  1  0  0  0
 47121  1  0  0  0
 48 56  1  0  0  0
 48 65  1  0  0  0
 48122  1  0  0  0
 49 50  1  0  0  0
 49 53  1  0  0  0
 49 64  1  0  0  0
 49123  1  0  0  0
 50 51  1  0  0  0
 50124  1  0  0  0
 50125  1  0  0  0
 51 52  1  0  0  0
 51126  1  0  0  0
 51127  1  0  0  0
 52128  1  0  0  0
 52129  1  0  0  0
 53 54  1  0  0  0
 54 55  2  0  0  0
 54130  1  0  0  0
 55 57  1  0  0  0
 55131  1  0  0  0
 56 69  2  0  0  0
 57 58  2  0  0  0
 57132  1  0  0  0
 58133  1  0  0  0
 59 60  1  0  0  0
 59 61  1  0  0  0
 59 62  1  0  0  0
 60134  1  0  0  0
 60135  1  0  0  0
 60136  1  0  0  0
 61137  1  0  0  0
 61138  1  0  0  0
 61139  1  0  0  0
 62140  1  0  0  0
 62141  1  0  0  0
 62142  1  0  0  0
 63 65  1  0  0  0
 63143  1  0  0  0
 63144  1  0  0  0
 63145  1  0  0  0
 64146  1  0  0  0
 65147  1  0  0  0
 68 81  1  0  0  0
 71 72  2  0  0  0
 71 82  1  0  0  0
 71 85  1  0  0  0
 72 86  1  0  0  0
 72 88  1  0  0  0
 73 85  2  0  0  0
 73 87  1  0  0  0
 73 88  1  0  0  0
 74148  1  0  0  0
 74149  1  0  0  0
 74150  1  0  0  0
 74 83  1  0  0  0
 75151  1  0  0  0
 75152  1  0  0  0
 75153  1  0  0  0
 75 84  1  0  0  0
 76 84  1  0  0  0
 76154  1  0  0  0
 76155  1  0  0  0
 76156  1  0  0  0
 77 84  1  0  0  0
 77157  1  0  0  0
 77158  1  0  0  0
 77159  1  0  0  0
 78 81  1  0  0  0
 78 83  1  0  0  0
 78160  1  0  0  0
 78161  1  0  0  0
 79 83  1  0  0  0
 79162  1  0  0  0
 79163  1  0  0  0
 79 82  1  0  0  0
 80 82  1  0  0  0
 80 84  1  0  0  0
 80164  1  0  0  0
 80165  1  0  0  0
 81166  1  0  0  0
 81167  1  0  0  0
 82168  1  0  0  0
 83169  1  0  0  0
 86170  1  0  0  0
 86171  1  0  0  0
 87172  1  0  0  0
M  ISO  4   1 100  68 101  81 101  87 100
M  END
> <chiral flag>
0

> <version>
0

> <s_m_source_file>
/data/baiqing/PycharmProjects/Reinvent-master-3.2/result/LINK_invent/BTK/process_docking_weight1_custom_product_contain_oxygen_bond_distance_aromatic_linkinvent_7_9_3/rearranged_h_0190.sdf

> <i_m_source_file_index>
18

> <r_mmod_Potential_Energy-OPLS-2005>
96.4635772705078

> <r_mmod_Stretch_Energy-OPLS-2005>
59.804817199707

> <r_mmod_Bend_Energy-OPLS-2005>
148.892807006836

> <r_mmod_Torsional_Energy-OPLS-2005>
283.227111816406

> <r_mmod_Improper_Torsional_Energy-OPLS-2005>
5.39452934265137

> <r_mmod_Van_der_Waal_Energy-OPLS-2005>
133.292999267578

> <r_mmod_Electrostatic_Energy-OPLS-2005>
-352.088104248047

> <r_mmod_Solvation_Energy-OPLS-2005>
-206.744445800781

> <b_mmod_Minimization_Converged-OPLS-2005>
0

> <r_mmod_RMS_Derivative-OPLS-2005>
3.50162029266357

$$$$
18
                    3D
 Structure written by MMmdl.
155163  0  0  1  0            999 V2000
  -30.6130  -14.7889   20.4631 C   0  0  0  0  0  0
  -30.4311  -12.4881   19.4800 C   0  0  0  0  0  0
  -29.5071  -12.5173   18.2423 C   0  0  0  0  0  0
  -28.0345  -12.3385   18.6588 C   0  0  0  0  0  0
  -27.6363  -13.2447   19.8549 C   0  0  2  0  0  0
  -28.6849  -13.2018   20.9871 C   0  0  0  0  0  0
  -25.2371  -13.8134   20.5595 C   0  0  0  0  0  0
  -24.1724  -13.0364   20.9166 C   0  0  0  0  0  0
  -24.6399  -11.6879   20.8769 C   0  0  0  0  0  0
  -23.9097  -10.4255   21.0412 C   0  0  0  0  0  0
  -24.3636   -9.4170   21.9188 C   0  0  0  0  0  0
  -23.6302   -8.2212   22.0747 C   0  0  0  0  0  0
  -22.4287   -8.0263   21.3528 C   0  0  0  0  0  0
  -21.9930   -9.0244   20.4630 C   0  0  0  0  0  0
  -22.7276  -10.2112   20.3047 C   0  0  0  0  0  0
  -21.6855   -6.0732   22.5274 C   0  0  0  0  0  0
  -21.4024   -6.5634   23.8209 C   0  0  0  0  0  0
  -21.3659   -5.6781   24.9169 C   0  0  0  0  0  0
  -21.6042   -4.3047   24.7218 C   0  0  0  0  0  0
  -21.8829   -3.8140   23.4341 C   0  0  0  0  0  0
  -21.9199   -4.6957   22.3399 C   0  0  0  0  0  0
  -22.7747  -13.5133   21.1848 C   0  0  0  0  0  0
  -22.1664   -4.2142   21.0977 F   0  0  0  0  0  0
  -21.5625   -3.4532   25.7734 F   0  0  0  0  0  0
  -29.9790  -13.5636   20.3955 N   0  0  0  0  0  0
  -26.2914  -12.9440   20.3359 N   0  0  0  0  0  0
  -25.9355  -11.6561   20.5841 N   0  0  0  0  0  0
  -22.0437  -12.8137   22.0445 N   0  0  0  0  0  0
  -25.3758  -15.1831   20.3864 N   0  0  0  0  0  0
  -31.8093  -14.8650   20.1711 O   0  0  0  0  0  0
  -21.6638   -6.8871   21.4232 O   0  0  0  0  0  0
  -22.3412  -14.5442   20.6714 O   0  0  0  0  0  0
  -24.6318  -31.8521   23.1937 C   0  0  0  0  0  0
  -25.9134  -32.4740   23.8298 C   0  0  1  0  0  0
  -27.2259  -27.2423   20.1497 C   0  0  0  0  0  0
  -25.5925  -33.8544   24.2227 N   0  0  0  0  0  0
  -23.4303  -30.4721   21.5366 C   0  0  2  0  0  0
  -24.8801  -28.9057   20.1176 C   0  0  0  0  0  0
  -22.7506  -29.4590   22.4891 C   0  0  0  0  0  0
  -18.0295  -28.1391   22.8480 C   0  0  0  0  0  0
  -24.1493  -36.7283   23.2644 C   0  0  0  0  0  0
  -25.9760  -30.7614   21.3743 C   0  0  0  0  0  0
  -26.0515  -29.3784   20.7241 C   0  0  0  0  0  0
  -27.2292  -28.5614   20.7219 C   0  0  0  0  0  0
  -26.0316  -26.8316   19.5244 C   0  0  0  0  0  0
  -24.8752  -27.6399   19.5077 C   0  0  0  0  0  0
  -23.6519  -29.7973   20.1565 C   0  0  0  0  0  0
  -25.4120  -36.3063   24.0324 C   0  0  1  0  0  0
  -20.5899  -28.3704   23.1260 C   0  0  2  0  0  0
  -20.6786  -26.9419   22.5405 C   0  0  0  0  0  0
  -19.5767  -26.6381   21.5211 C   0  0  0  0  0  0
  -18.1944  -26.7928   22.1619 C   0  0  0  0  0  0
  -19.1549  -28.8861   23.2861 C   0  0  0  0  0  0
  -18.9473  -30.1461   23.8886 C   0  0  0  0  0  0
  -17.6474  -30.6590   24.0564 C   0  0  0  0  0  0
  -25.9058  -34.9435   23.5081 C   0  0  0  0  0  0
  -16.5363  -29.9091   23.6337 C   0  0  0  0  0  0
  -16.7283  -28.6507   23.0353 C   0  0  0  0  0  0
  -26.4497  -31.6576   25.0699 C   0  0  0  0  0  0
  -25.3717  -31.3737   26.1417 C   0  0  0  0  0  0
  -27.0348  -30.2991   24.6195 C   0  0  0  0  0  0
  -27.6040  -32.4318   25.7486 C   0  0  0  0  0  0
  -27.5575  -37.1801   24.8468 C   0  0  0  0  0  0
  -21.4209  -29.3046   22.3641 N   0  0  0  0  0  0
  -26.4291  -37.3767   23.9405 N   0  0  0  0  0  0
  -24.6986  -31.0471   22.0916 N   0  0  0  0  0  0
  -23.4195  -28.8139   23.3004 O   0  0  0  0  0  0
  -28.3335  -26.3620   20.1285 O   0  0  0  0  0  0
  -26.5643  -34.8920   22.4657 O   0  0  0  0  0  0
  -23.5465  -32.1346   23.7224 O   0  0  0  0  0  0
  -27.0443  -19.5844   20.6011 C   0  0  0  0  0  0
  -27.8806  -18.4546   20.7581 C   0  0  0  0  0  0
  -29.2733  -18.6555   20.6131 C   0  0  0  0  0  0
  -28.8084  -21.0121   20.4222 C   0  0  0  0  0  0
  -29.1317  -25.0346   21.9522 C   0  0  0  0  0  0
  -30.3089  -17.4216   20.6258 C   0  0  0  0  0  0
  -28.5894  -23.6313   19.8231 C   0  0  0  0  0  0
  -28.2424  -24.9657   20.7040 C   0  0  2  0  0  0
  -27.5025  -20.8398   20.4267 N   0  0  0  0  0  0
  -29.7043  -19.9780   20.4858 N   0  0  0  0  0  0
  -27.3164  -17.2279   21.1223 N   0  0  0  0  0  0
  -29.2277  -22.3828   20.4398 N   0  0  0  0  0  0
  -29.8678  -15.9466   20.6513 N   0  0  0  0  0  0
  -31.4701  -12.6185   19.1729 H   0  0  0  0  0  0
  -30.3843  -11.5182   19.9783 H   0  0  0  0  0  0
  -29.7944  -11.7366   17.5370 H   0  0  0  0  0  0
  -29.6248  -13.4662   17.7165 H   0  0  0  0  0  0
  -27.8954  -11.2916   18.9305 H   0  0  0  0  0  0
  -27.3750  -12.5233   17.8102 H   0  0  0  0  0  0
  -27.6182  -14.2652   19.4704 H   0  0  0  0  0  0
  -28.7308  -12.2115   21.4432 H   0  0  0  0  0  0
  -28.4162  -13.8961   21.7846 H   0  0  0  0  0  0
  -25.2780   -9.5642   22.4769 H   0  0  0  0  0  0
  -24.0004   -7.4605   22.7472 H   0  0  0  0  0  0
  -21.0862   -8.8788   19.8931 H   0  0  0  0  0  0
  -22.3757  -10.9661   19.6155 H   0  0  0  0  0  0
  -21.2027   -7.6143   23.9715 H   0  0  0  0  0  0
  -21.1463   -6.0506   25.9071 H   0  0  0  0  0  0
  -22.0612   -2.7602   23.2844 H   0  0  0  0  0  0
  -22.4078  -11.9801   22.4817 H   0  0  0  0  0  0
  -21.1057  -13.1147   22.2673 H   0  0  0  0  0  0
  -24.5814  -15.8042   20.4843 H   0  0  0  0  0  0
  -26.2538  -15.6834   20.2508 H   0  0  0  0  0  0
  -26.7198  -32.5394   23.1037 H   0  0  0  0  0  0
  -25.0061  -33.9678   25.0366 H   0  0  0  0  0  0
  -22.7285  -31.2947   21.3839 H   0  0  0  0  0  0
  -23.3756  -35.9616   23.3305 H   0  0  0  0  0  0
  -24.3579  -36.8909   22.2058 H   0  0  0  0  0  0
  -23.7247  -37.6484   23.6672 H   0  0  0  0  0  0
  -26.1130  -31.5175   20.5997 H   0  0  0  0  0  0
  -26.8539  -30.8159   22.0065 H   0  0  0  0  0  0
  -28.1308  -28.9226   21.1963 H   0  0  0  0  0  0
  -25.9900  -25.8608   19.0506 H   0  0  0  0  0  0
  -23.9778  -27.2701   19.0314 H   0  0  0  0  0  0
  -23.7833  -30.5688   19.3968 H   0  0  0  0  0  0
  -22.7692  -29.2323   19.8512 H   0  0  0  0  0  0
  -25.1308  -36.1900   25.0818 H   0  0  0  0  0  0
  -21.0000  -28.3286   24.1376 H   0  0  0  0  0  0
  -20.5685  -26.2316   23.3612 H   0  0  0  0  0  0
  -21.6655  -26.7443   22.1205 H   0  0  0  0  0  0
  -19.6932  -25.6288   21.1248 H   0  0  0  0  0  0
  -19.6704  -27.3189   20.6736 H   0  0  0  0  0  0
  -17.4213  -26.6672   21.4022 H   0  0  0  0  0  0
  -18.0343  -26.0077   22.9020 H   0  0  0  0  0  0
  -19.7952  -30.7277   24.2250 H   0  0  0  0  0  0
  -17.5034  -31.6272   24.5166 H   0  0  0  0  0  0
  -15.5368  -30.2995   23.7660 H   0  0  0  0  0  0
  -15.8681  -28.0827   22.7071 H   0  0  0  0  0  0
  -24.5894  -30.7082   25.7750 H   0  0  0  0  0  0
  -24.8911  -32.2915   26.4819 H   0  0  0  0  0  0
  -25.8026  -30.8932   27.0208 H   0  0  0  0  0  0
  -26.2937  -29.6736   24.1206 H   0  0  0  0  0  0
  -27.4022  -29.7257   25.4716 H   0  0  0  0  0  0
  -27.8816  -30.4269   23.9450 H   0  0  0  0  0  0
  -27.2636  -33.3620   26.2048 H   0  0  0  0  0  0
  -28.3868  -32.6870   25.0331 H   0  0  0  0  0  0
  -28.0692  -31.8451   26.5422 H   0  0  0  0  0  0
  -28.2599  -38.0092   24.7501 H   0  0  0  0  0  0
  -28.1065  -36.2620   24.6313 H   0  0  0  0  0  0
  -27.2292  -37.1479   25.8872 H   0  0  0  0  0  0
  -20.9391  -29.8765   21.6846 H   0  0  0  0  0  0
  -26.0167  -38.2840   24.1401 H   0  0  0  0  0  0
  -25.9714  -19.4853   20.6791 H   0  0  0  0  0  0
  -29.0420  -24.1329   22.5583 H   0  0  0  0  0  0
  -30.1804  -25.1520   21.6797 H   0  0  0  0  0  0
  -28.8512  -25.8777   22.5846 H   0  0  0  0  0  0
  -30.9573  -17.5712   21.4887 H   0  0  0  0  0  0
  -30.9522  -17.5482   19.7545 H   0  0  0  0  0  0
  -27.6900  -23.3278   19.2856 H   0  0  0  0  0  0
  -29.2819  -23.9433   19.0416 H   0  0  0  0  0  0
  -27.2241  -24.8256   21.0695 H   0  0  0  0  0  0
  -26.3162  -17.2754   21.3093 H   0  0  0  0  0  0
  -27.7579  -16.8025   21.9334 H   0  0  0  0  0  0
  -30.2274  -22.4791   20.5669 H   0  0  0  0  0  0
  -28.8648  -15.8498   20.7503 H   0  0  0  0  0  0
  1 25  1  0  0  0
  1 30  2  0  0  0
  1 83  1  0  0  0
  2  3  1  0  0  0
  2 25  1  0  0  0
  2 84  1  0  0  0
  2 85  1  0  0  0
  3  4  1  0  0  0
  3 86  1  0  0  0
  3 87  1  0  0  0
  4  5  1  0  0  0
  4 88  1  0  0  0
  4 89  1  0  0  0
  5  6  1  0  0  0
  5 26  1  0  0  0
  5 90  1  0  0  0
  6 25  1  0  0  0
  6 91  1  0  0  0
  6 92  1  0  0  0
  7  8  2  0  0  0
  7 26  1  0  0  0
  7 29  1  0  0  0
  8  9  1  0  0  0
  8 22  1  0  0  0
  9 10  1  0  0  0
  9 27  2  0  0  0
 10 11  2  0  0  0
 10 15  1  0  0  0
 11 12  1  0  0  0
 11 93  1  0  0  0
 12 13  2  0  0  0
 12 94  1  0  0  0
 13 14  1  0  0  0
 13 31  1  0  0  0
 14 15  2  0  0  0
 14 95  1  0  0  0
 15 96  1  0  0  0
 16 17  2  0  0  0
 16 21  1  0  0  0
 16 31  1  0  0  0
 17 18  1  0  0  0
 17 97  1  0  0  0
 18 19  2  0  0  0
 18 98  1  0  0  0
 19 20  1  0  0  0
 19 24  1  0  0  0
 20 21  2  0  0  0
 20 99  1  0  0  0
 21 23  1  0  0  0
 22 28  1  0  0  0
 22 32  2  0  0  0
 26 27  1  0  0  0
 28100  1  0  0  0
 28101  1  0  0  0
 29102  1  0  0  0
 29103  1  0  0  0
 33 34  1  0  0  0
 33 66  1  0  0  0
 33 70  2  0  0  0
 34 36  1  0  0  0
 34 59  1  0  0  0
 34104  1  0  0  0
 35 44  2  0  0  0
 35 45  1  0  0  0
 35 68  1  0  0  0
 36 56  1  0  0  0
 36105  1  0  0  0
 37 39  1  0  0  0
 37 47  1  0  0  0
 37 66  1  0  0  0
 37106  1  0  0  0
 38 43  2  0  0  0
 38 46  1  0  0  0
 38 47  1  0  0  0
 39 64  1  0  0  0
 39 67  2  0  0  0
 40 52  1  0  0  0
 40 53  2  0  0  0
 40 58  1  0  0  0
 41107  1  0  0  0
 41108  1  0  0  0
 41109  1  0  0  0
 41 48  1  0  0  0
 42 43  1  0  0  0
 42 66  1  0  0  0
 42110  1  0  0  0
 42111  1  0  0  0
 43 44  1  0  0  0
 44112  1  0  0  0
 45 46  2  0  0  0
 45113  1  0  0  0
 46114  1  0  0  0
 47115  1  0  0  0
 47116  1  0  0  0
 48 56  1  0  0  0
 48 65  1  0  0  0
 48117  1  0  0  0
 49 50  1  0  0  0
 49 53  1  0  0  0
 49 64  1  0  0  0
 49118  1  0  0  0
 50 51  1  0  0  0
 50119  1  0  0  0
 50120  1  0  0  0
 51 52  1  0  0  0
 51121  1  0  0  0
 51122  1  0  0  0
 52123  1  0  0  0
 52124  1  0  0  0
 53 54  1  0  0  0
 54 55  2  0  0  0
 54125  1  0  0  0
 55 57  1  0  0  0
 55126  1  0  0  0
 56 69  2  0  0  0
 57 58  2  0  0  0
 57127  1  0  0  0
 58128  1  0  0  0
 59 60  1  0  0  0
 59 61  1  0  0  0
 59 62  1  0  0  0
 60129  1  0  0  0
 60130  1  0  0  0
 60131  1  0  0  0
 61132  1  0  0  0
 61133  1  0  0  0
 61134  1  0  0  0
 62135  1  0  0  0
 62136  1  0  0  0
 62137  1  0  0  0
 63 65  1  0  0  0
 63138  1  0  0  0
 63139  1  0  0  0
 63140  1  0  0  0
 64141  1  0  0  0
 65142  1  0  0  0
 68 78  1  0  0  0
 71 72  2  0  0  0
 71 79  1  0  0  0
 71143  1  0  0  0
 72 73  1  0  0  0
 72 81  1  0  0  0
 73 76  1  0  0  0
 73 80  2  0  0  0
 74 79  2  0  0  0
 74 80  1  0  0  0
 74 82  1  0  0  0
 75144  1  0  0  0
 75145  1  0  0  0
 75146  1  0  0  0
 75 78  1  0  0  0
 76 83  1  0  0  0
 76147  1  0  0  0
 76148  1  0  0  0
 77 78  1  0  0  0
 77 82  1  0  0  0
 77149  1  0  0  0
 77150  1  0  0  0
 78151  1  0  0  0
 81152  1  0  0  0
 81153  1  0  0  0
 82154  1  0  0  0
 83155  1  0  0  0
M  ISO  4   1 100  68 101  78 101  83 100
M  END
> <chiral flag>
0

> <version>
0

> <s_m_source_file>
/data/baiqing/PycharmProjects/Reinvent-master-3.2/result/LINK_invent/BTK/process_docking_weight1_custom_product_contain_oxygen_bond_distance_aromatic_linkinvent_7_9_3/rearranged_h_0190.sdf

> <i_m_source_file_index>
19

> <r_mmod_Potential_Energy-OPLS-2005>
-412.086822509766

> <r_mmod_Stretch_Energy-OPLS-2005>
132.329818725586

> <r_mmod_Bend_Energy-OPLS-2005>
185.812271118164

> <r_mmod_Torsional_Energy-OPLS-2005>
245.818054199219

> <r_mmod_Improper_Torsional_Energy-OPLS-2005>
12.2033500671387

> <r_mmod_Van_der_Waal_Energy-OPLS-2005>
147.299362182617

> <r_mmod_Electrostatic_Energy-OPLS-2005>
-994.349304199219

> <r_mmod_Solvation_Energy-OPLS-2005>
-240.054626464844

> <b_mmod_Minimization_Converged-OPLS-2005>
0

> <r_mmod_RMS_Derivative-OPLS-2005>
1.2088451385498

$$$$
19
                    3D
 Structure written by MMmdl.
158166  0  0  1  0            999 V2000
  -30.6452  -14.5778   20.5499 C   0  0  0  0  0  0
  -30.4327  -12.3682   19.4338 C   0  0  0  0  0  0
  -29.4975  -12.5005   18.2108 C   0  0  0  0  0  0
  -28.0189  -12.3467   18.6252 C   0  0  0  0  0  0
  -27.6504  -13.2117   19.8602 C   0  0  2  0  0  0
  -28.6950  -13.0422   20.9846 C   0  0  0  0  0  0
  -25.2516  -13.8166   20.5630 C   0  0  0  0  0  0
  -24.1792  -13.0419   20.9140 C   0  0  0  0  0  0
  -24.6363  -11.6892   20.8720 C   0  0  0  0  0  0
  -23.9034  -10.4267   21.0389 C   0  0  0  0  0  0
  -24.3601   -9.4185   21.9168 C   0  0  0  0  0  0
  -23.6261   -8.2232   22.0777 C   0  0  0  0  0  0
  -22.4254   -8.0251   21.3551 C   0  0  0  0  0  0
  -21.9876   -9.0220   20.4663 C   0  0  0  0  0  0
  -22.7208  -10.2096   20.3043 C   0  0  0  0  0  0
  -21.6855   -6.0694   22.5256 C   0  0  0  0  0  0
  -21.4017   -6.5610   23.8181 C   0  0  0  0  0  0
  -21.3658   -5.6774   24.9149 C   0  0  0  0  0  0
  -21.6061   -4.3037   24.7218 C   0  0  0  0  0  0
  -21.8815   -3.8112   23.4338 C   0  0  0  0  0  0
  -21.9189   -4.6918   22.3388 C   0  0  0  0  0  0
  -22.7809  -13.5191   21.1806 C   0  0  0  0  0  0
  -22.1650   -4.2087   21.0972 F   0  0  0  0  0  0
  -21.5638   -3.4542   25.7742 F   0  0  0  0  0  0
  -30.0125  -13.3760   20.4232 N   0  0  0  0  0  0
  -26.2953  -12.9352   20.3288 N   0  0  0  0  0  0
  -25.9301  -11.6494   20.5755 N   0  0  0  0  0  0
  -22.0479  -12.8198   22.0398 N   0  0  0  0  0  0
  -25.4181  -15.1891   20.3980 N   0  0  0  0  0  0
  -31.8187  -14.7393   20.1983 O   0  0  0  0  0  0
  -21.6634   -6.8844   21.4223 O   0  0  0  0  0  0
  -22.3463  -14.5473   20.6632 O   0  0  0  0  0  0
  -24.6221  -31.8612   23.2027 C   0  0  0  0  0  0
  -25.9057  -32.4828   23.8341 C   0  0  1  0  0  0
  -27.2348  -27.3432   20.1012 C   0  0  0  0  0  0
  -25.5856  -33.8616   24.2267 N   0  0  0  0  0  0
  -23.4191  -30.4833   21.5460 C   0  0  2  0  0  0
  -24.8622  -28.9395   20.1100 C   0  0  0  0  0  0
  -22.7489  -29.4602   22.4945 C   0  0  0  0  0  0
  -18.0287  -28.1432   22.8541 C   0  0  0  0  0  0
  -24.1474  -36.7266   23.2660 C   0  0  0  0  0  0
  -25.9566  -30.7992   21.3654 C   0  0  0  0  0  0
  -26.0290  -29.4263   20.7097 C   0  0  0  0  0  0
  -27.2122  -28.6362   20.6970 C   0  0  0  0  0  0
  -26.0337  -26.8885   19.5030 C   0  0  0  0  0  0
  -24.8650  -27.6743   19.5011 C   0  0  0  0  0  0
  -23.6310  -29.8220   20.1592 C   0  0  0  0  0  0
  -25.4121  -36.3112   24.0354 C   0  0  1  0  0  0
  -20.5907  -28.3664   23.1339 C   0  0  2  0  0  0
  -20.6759  -26.9393   22.5447 C   0  0  0  0  0  0
  -19.5723  -26.6419   21.5255 C   0  0  0  0  0  0
  -18.1904  -26.8001   22.1670 C   0  0  0  0  0  0
  -19.1561  -28.8880   23.2938 C   0  0  0  0  0  0
  -18.9478  -30.1487   23.8957 C   0  0  0  0  0  0
  -17.6473  -30.6634   24.0596 C   0  0  0  0  0  0
  -25.9044  -34.9484   23.5119 C   0  0  0  0  0  0
  -16.5354  -29.9145   23.6347 C   0  0  0  0  0  0
  -16.7281  -28.6563   23.0380 C   0  0  0  0  0  0
  -26.4458  -31.6655   25.0700 C   0  0  0  0  0  0
  -25.3723  -31.3763   26.1449 C   0  0  0  0  0  0
  -27.0258  -30.3120   24.6056 C   0  0  0  0  0  0
  -27.6031  -32.4382   25.7454 C   0  0  0  0  0  0
  -27.5578  -37.1796   24.8493 C   0  0  0  0  0  0
  -21.4206  -29.3025   22.3741 N   0  0  0  0  0  0
  -26.4295  -37.3812   23.9429 N   0  0  0  0  0  0
  -24.6847  -31.0631   22.0958 N   0  0  0  0  0  0
  -23.4225  -28.8115   23.2974 O   0  0  0  0  0  0
  -28.3975  -26.5651   20.1569 O   0  0  0  0  0  0
  -26.5644  -34.8929   22.4709 O   0  0  0  0  0  0
  -23.5371  -32.1347   23.7387 O   0  0  0  0  0  0
  -29.8444  -19.3224   21.0472 C   0  0  0  0  0  0
  -30.9820  -19.2249   21.8400 C   0  0  0  0  0  0
  -30.1569  -17.0038   21.0936 C   0  0  0  0  0  0
  -29.4704  -23.2071   20.9862 C   0  0  0  0  0  0
  -29.0907  -20.5805   19.0024 C   0  0  0  0  0  0
  -29.9300  -25.3343   18.7927 C   0  0  0  0  0  0
  -28.2832  -23.9060   20.2365 C   0  0  0  0  0  0
  -29.1015  -20.5979   20.5444 C   0  0  2  0  0  0
  -28.5426  -25.2809   19.4573 C   0  0  2  0  0  0
  -29.3619  -18.0256   20.7038 N   0  0  0  0  0  0
  -31.7306  -20.2287   22.4601 N   0  0  0  0  0  0
  -29.8269  -15.6274   20.8354 N   0  0  0  0  0  0
  -29.6958  -21.8612   21.0596 N   0  0  0  0  0  0
  -30.2566  -23.9332   21.5929 O   0  0  0  0  0  0
  -31.5306  -17.5640   22.0320 S   0  0  0  0  0  0
  -31.4725  -12.4937   19.1277 H   0  0  0  0  0  0
  -30.3640  -11.3659   19.8625 H   0  0  0  0  0  0
  -29.7494  -11.7493   17.4604 H   0  0  0  0  0  0
  -29.6473  -13.4706   17.7316 H   0  0  0  0  0  0
  -27.8474  -11.2962   18.8507 H   0  0  0  0  0  0
  -27.3643  -12.5884   17.7873 H   0  0  0  0  0  0
  -27.6726  -14.2493   19.5252 H   0  0  0  0  0  0
  -28.6992  -12.0154   21.3522 H   0  0  0  0  0  0
  -28.4502  -13.6677   21.8445 H   0  0  0  0  0  0
  -25.2766   -9.5645   22.4720 H   0  0  0  0  0  0
  -23.9958   -7.4635   22.7530 H   0  0  0  0  0  0
  -21.0792   -8.8719   19.8993 H   0  0  0  0  0  0
  -22.3658  -10.9610   19.6127 H   0  0  0  0  0  0
  -21.2019   -7.6122   23.9644 H   0  0  0  0  0  0
  -21.1496   -6.0532   25.9045 H   0  0  0  0  0  0
  -22.0611   -2.7571   23.2858 H   0  0  0  0  0  0
  -22.4124  -11.9868   22.4781 H   0  0  0  0  0  0
  -21.1093  -13.1230   22.2642 H   0  0  0  0  0  0
  -24.6453  -15.8389   20.4949 H   0  0  0  0  0  0
  -26.2543  -15.6298   20.0393 H   0  0  0  0  0  0
  -26.7124  -32.5513   23.1079 H   0  0  0  0  0  0
  -24.9942  -33.9744   25.0369 H   0  0  0  0  0  0
  -22.7095  -31.3037   21.4070 H   0  0  0  0  0  0
  -23.3743  -35.9583   23.3377 H   0  0  0  0  0  0
  -24.3520  -36.8819   22.2050 H   0  0  0  0  0  0
  -23.7174  -37.6480   23.6637 H   0  0  0  0  0  0
  -26.0800  -31.5575   20.5932 H   0  0  0  0  0  0
  -26.8411  -30.8544   21.9886 H   0  0  0  0  0  0
  -28.1128  -29.0063   21.1645 H   0  0  0  0  0  0
  -25.9605  -25.9083   19.0572 H   0  0  0  0  0  0
  -23.9646  -27.2956   19.0392 H   0  0  0  0  0  0
  -23.7617  -30.5995   19.4050 H   0  0  0  0  0  0
  -22.7484  -29.2632   19.8418 H   0  0  0  0  0  0
  -25.1287  -36.1969   25.0845 H   0  0  0  0  0  0
  -21.0031  -28.3219   24.1451 H   0  0  0  0  0  0
  -20.5686  -26.2235   23.3626 H   0  0  0  0  0  0
  -21.6610  -26.7422   22.1214 H   0  0  0  0  0  0
  -19.6827  -25.6350   21.1260 H   0  0  0  0  0  0
  -19.6688  -27.3264   20.6828 H   0  0  0  0  0  0
  -17.4171  -26.6810   21.4059 H   0  0  0  0  0  0
  -18.0249  -26.0166   22.9082 H   0  0  0  0  0  0
  -19.7931  -30.7322   24.2354 H   0  0  0  0  0  0
  -17.5005  -31.6332   24.5186 H   0  0  0  0  0  0
  -15.5357  -30.3056   23.7657 H   0  0  0  0  0  0
  -15.8679  -28.0889   22.7062 H   0  0  0  0  0  0
  -24.5904  -30.7095   25.7808 H   0  0  0  0  0  0
  -24.8871  -32.2891   26.4931 H   0  0  0  0  0  0
  -25.8077  -30.8944   27.0209 H   0  0  0  0  0  0
  -26.2742  -29.6950   24.1123 H   0  0  0  0  0  0
  -27.4050  -29.7308   25.4465 H   0  0  0  0  0  0
  -27.8594  -30.4457   23.9164 H   0  0  0  0  0  0
  -27.2648  -33.3686   26.2027 H   0  0  0  0  0  0
  -28.3836  -32.6943   25.0284 H   0  0  0  0  0  0
  -28.0716  -31.8522   26.5364 H   0  0  0  0  0  0
  -28.2668  -38.0046   24.7522 H   0  0  0  0  0  0
  -28.1000  -36.2560   24.6362 H   0  0  0  0  0  0
  -27.2273  -37.1511   25.8901 H   0  0  0  0  0  0
  -20.9370  -29.8792   21.7028 H   0  0  0  0  0  0
  -26.0189  -38.2891   24.1453 H   0  0  0  0  0  0
  -28.6061  -19.6749   18.6342 H   0  0  0  0  0  0
  -30.1013  -20.5886   18.5971 H   0  0  0  0  0  0
  -28.5520  -21.4154   18.5644 H   0  0  0  0  0  0
  -30.0014  -26.1566   18.0827 H   0  0  0  0  0  0
  -30.1543  -24.4118   18.2508 H   0  0  0  0  0  0
  -30.7132  -25.4906   19.5350 H   0  0  0  0  0  0
  -27.4755  -24.0436   20.9528 H   0  0  0  0  0  0
  -27.8795  -23.1962   19.5191 H   0  0  0  0  0  0
  -28.0713  -20.5714   20.9034 H   0  0  0  0  0  0
  -27.8733  -25.2725   18.5989 H   0  0  0  0  0  0
  -32.4258  -19.8817   23.1165 H   0  0  0  0  0  0
  -32.1877  -20.9238   21.8759 H   0  0  0  0  0  0
  -28.8459  -15.4041   20.8586 H   0  0  0  0  0  0
  -30.4701  -21.6294   21.6776 H   0  0  0  0  0  0
  1 25  1  0  0  0
  1 30  2  0  0  0
  1 82  1  0  0  0
  2  3  1  0  0  0
  2 25  1  0  0  0
  2 86  1  0  0  0
  2 87  1  0  0  0
  3  4  1  0  0  0
  3 88  1  0  0  0
  3 89  1  0  0  0
  4  5  1  0  0  0
  4 90  1  0  0  0
  4 91  1  0  0  0
  5  6  1  0  0  0
  5 26  1  0  0  0
  5 92  1  0  0  0
  6 25  1  0  0  0
  6 93  1  0  0  0
  6 94  1  0  0  0
  7  8  2  0  0  0
  7 26  1  0  0  0
  7 29  1  0  0  0
  8  9  1  0  0  0
  8 22  1  0  0  0
  9 10  1  0  0  0
  9 27  2  0  0  0
 10 11  2  0  0  0
 10 15  1  0  0  0
 11 12  1  0  0  0
 11 95  1  0  0  0
 12 13  2  0  0  0
 12 96  1  0  0  0
 13 14  1  0  0  0
 13 31  1  0  0  0
 14 15  2  0  0  0
 14 97  1  0  0  0
 15 98  1  0  0  0
 16 17  2  0  0  0
 16 21  1  0  0  0
 16 31  1  0  0  0
 17 18  1  0  0  0
 17 99  1  0  0  0
 18 19  2  0  0  0
 18100  1  0  0  0
 19 20  1  0  0  0
 19 24  1  0  0  0
 20 21  2  0  0  0
 20101  1  0  0  0
 21 23  1  0  0  0
 22 28  1  0  0  0
 22 32  2  0  0  0
 26 27  1  0  0  0
 28102  1  0  0  0
 28103  1  0  0  0
 29104  1  0  0  0
 29105  1  0  0  0
 33 34  1  0  0  0
 33 66  1  0  0  0
 33 70  2  0  0  0
 34 36  1  0  0  0
 34 59  1  0  0  0
 34106  1  0  0  0
 35 44  2  0  0  0
 35 45  1  0  0  0
 35 68  1  0  0  0
 36 56  1  0  0  0
 36107  1  0  0  0
 37 39  1  0  0  0
 37 47  1  0  0  0
 37 66  1  0  0  0
 37108  1  0  0  0
 38 43  2  0  0  0
 38 46  1  0  0  0
 38 47  1  0  0  0
 39 64  1  0  0  0
 39 67  2  0  0  0
 40 52  1  0  0  0
 40 53  2  0  0  0
 40 58  1  0  0  0
 41109  1  0  0  0
 41110  1  0  0  0
 41111  1  0  0  0
 41 48  1  0  0  0
 42 43  1  0  0  0
 42 66  1  0  0  0
 42112  1  0  0  0
 42113  1  0  0  0
 43 44  1  0  0  0
 44114  1  0  0  0
 45 46  2  0  0  0
 45115  1  0  0  0
 46116  1  0  0  0
 47117  1  0  0  0
 47118  1  0  0  0
 48 56  1  0  0  0
 48 65  1  0  0  0
 48119  1  0  0  0
 49 50  1  0  0  0
 49 53  1  0  0  0
 49 64  1  0  0  0
 49120  1  0  0  0
 50 51  1  0  0  0
 50121  1  0  0  0
 50122  1  0  0  0
 51 52  1  0  0  0
 51123  1  0  0  0
 51124  1  0  0  0
 52125  1  0  0  0
 52126  1  0  0  0
 53 54  1  0  0  0
 54 55  2  0  0  0
 54127  1  0  0  0
 55 57  1  0  0  0
 55128  1  0  0  0
 56 69  2  0  0  0
 57 58  2  0  0  0
 57129  1  0  0  0
 58130  1  0  0  0
 59 60  1  0  0  0
 59 61  1  0  0  0
 59 62  1  0  0  0
 60131  1  0  0  0
 60132  1  0  0  0
 60133  1  0  0  0
 61134  1  0  0  0
 61135  1  0  0  0
 61136  1  0  0  0
 62137  1  0  0  0
 62138  1  0  0  0
 62139  1  0  0  0
 63 65  1  0  0  0
 63140  1  0  0  0
 63141  1  0  0  0
 63142  1  0  0  0
 64143  1  0  0  0
 65144  1  0  0  0
 68 79  1  0  0  0
 71 72  2  0  0  0
 71 78  1  0  0  0
 71 80  1  0  0  0
 72 81  1  0  0  0
 72 85  1  0  0  0
 73 80  2  0  0  0
 73 82  1  0  0  0
 73 85  1  0  0  0
 74 77  1  0  0  0
 74 83  1  0  0  0
 74 84  2  0  0  0
 75145  1  0  0  0
 75146  1  0  0  0
 75147  1  0  0  0
 75 78  1  0  0  0
 76148  1  0  0  0
 76149  1  0  0  0
 76150  1  0  0  0
 76 79  1  0  0  0
 77 79  1  0  0  0
 77151  1  0  0  0
 77152  1  0  0  0
 78 83  1  0  0  0
 78153  1  0  0  0
 79154  1  0  0  0
 81155  1  0  0  0
 81156  1  0  0  0
 82157  1  0  0  0
 83158  1  0  0  0
M  ISO  4   1 100  68 101  79 101  82 100
M  END
> <chiral flag>
0

> <version>
0

> <s_m_source_file>
/data/baiqing/PycharmProjects/Reinvent-master-3.2/result/LINK_invent/BTK/process_docking_weight1_custom_product_contain_oxygen_bond_distance_aromatic_linkinvent_7_9_3/rearranged_h_0190.sdf

> <i_m_source_file_index>
20

> <r_mmod_Potential_Energy-OPLS-2005>
-41.0569953918457

> <r_mmod_Stretch_Energy-OPLS-2005>
65.5448837280273

> <r_mmod_Bend_Energy-OPLS-2005>
165.973129272461

> <r_mmod_Torsional_Energy-OPLS-2005>
206.417251586914

> <r_mmod_Improper_Torsional_Energy-OPLS-2005>
11.5485668182373

> <r_mmod_Van_der_Waal_Energy-OPLS-2005>
124.789253234863

> <r_mmod_Electrostatic_Energy-OPLS-2005>
-410.520202636719

> <r_mmod_Solvation_Energy-OPLS-2005>
-239.578552246094

> <b_mmod_Minimization_Converged-OPLS-2005>
0

> <r_mmod_RMS_Derivative-OPLS-2005>
4.74483346939087

$$$$
20
                    3D
 Structure written by MMmdl.
160168  0  0  1  0            999 V2000
  -30.6064  -14.7264   20.4942 C   0  0  0  0  0  0
  -30.4355  -12.4514   19.4711 C   0  0  0  0  0  0
  -29.5125  -12.5095   18.2322 C   0  0  0  0  0  0
  -28.0366  -12.3348   18.6400 C   0  0  0  0  0  0
  -27.6445  -13.2253   19.8497 C   0  0  2  0  0  0
  -28.6838  -13.1371   20.9883 C   0  0  0  0  0  0
  -25.2506  -13.8178   20.5624 C   0  0  0  0  0  0
  -24.1805  -13.0449   20.9229 C   0  0  0  0  0  0
  -24.6383  -11.6920   20.8768 C   0  0  0  0  0  0
  -23.9065  -10.4310   21.0456 C   0  0  0  0  0  0
  -24.3616   -9.4224   21.9220 C   0  0  0  0  0  0
  -23.6292   -8.2246   22.0769 C   0  0  0  0  0  0
  -22.4278   -8.0269   21.3563 C   0  0  0  0  0  0
  -21.9913   -9.0254   20.4668 C   0  0  0  0  0  0
  -22.7239  -10.2144   20.3096 C   0  0  0  0  0  0
  -21.6846   -6.0729   22.5280 C   0  0  0  0  0  0
  -21.4005   -6.5641   23.8209 C   0  0  0  0  0  0
  -21.3661   -5.6804   24.9167 C   0  0  0  0  0  0
  -21.6042   -4.3060   24.7232 C   0  0  0  0  0  0
  -21.8822   -3.8144   23.4363 C   0  0  0  0  0  0
  -21.9194   -4.6961   22.3409 C   0  0  0  0  0  0
  -22.7832  -13.5253   21.1860 C   0  0  0  0  0  0
  -22.1666   -4.2147   21.0984 F   0  0  0  0  0  0
  -21.5632   -3.4539   25.7758 F   0  0  0  0  0  0
  -29.9863  -13.5016   20.4162 N   0  0  0  0  0  0
  -26.2931  -12.9366   20.3227 N   0  0  0  0  0  0
  -25.9313  -11.6533   20.5762 N   0  0  0  0  0  0
  -22.0460  -12.8241   22.0398 N   0  0  0  0  0  0
  -25.4212  -15.1860   20.3886 N   0  0  0  0  0  0
  -31.7854  -14.8396   20.1463 O   0  0  0  0  0  0
  -21.6628   -6.8873   21.4249 O   0  0  0  0  0  0
  -22.3539  -14.5560   20.6693 O   0  0  0  0  0  0
  -24.6358  -31.8531   23.1971 C   0  0  0  0  0  0
  -25.9171  -32.4749   23.8320 C   0  0  1  0  0  0
  -27.2192  -27.2182   20.1265 C   0  0  0  0  0  0
  -25.5945  -33.8548   24.2257 N   0  0  0  0  0  0
  -23.4331  -30.4756   21.5446 C   0  0  2  0  0  0
  -24.8806  -28.9187   20.1146 C   0  0  0  0  0  0
  -22.7496  -29.4615   22.4926 C   0  0  0  0  0  0
  -18.0280  -28.1425   22.8519 C   0  0  0  0  0  0
  -24.1470  -36.7233   23.2631 C   0  0  0  0  0  0
  -25.9857  -30.7486   21.3882 C   0  0  0  0  0  0
  -26.0545  -29.3693   20.7268 C   0  0  0  0  0  0
  -27.2241  -28.5320   20.7210 C   0  0  0  0  0  0
  -26.0141  -26.8556   19.4800 C   0  0  0  0  0  0
  -24.8679  -27.6711   19.4777 C   0  0  0  0  0  0
  -23.6541  -29.8095   20.1616 C   0  0  0  0  0  0
  -25.4104  -36.3045   24.0329 C   0  0  1  0  0  0
  -20.5895  -28.3736   23.1266 C   0  0  2  0  0  0
  -20.6761  -26.9463   22.5411 C   0  0  0  0  0  0
  -19.5739  -26.6434   21.5217 C   0  0  0  0  0  0
  -18.1919  -26.7979   22.1642 C   0  0  0  0  0  0
  -19.1535  -28.8911   23.2884 C   0  0  0  0  0  0
  -18.9466  -30.1513   23.8926 C   0  0  0  0  0  0
  -17.6472  -30.6646   24.0578 C   0  0  0  0  0  0
  -25.9070  -34.9432   23.5095 C   0  0  0  0  0  0
  -16.5362  -29.9150   23.6348 C   0  0  0  0  0  0
  -16.7267  -28.6538   23.0410 C   0  0  0  0  0  0
  -26.4529  -31.6581   25.0722 C   0  0  0  0  0  0
  -25.3735  -31.3764   26.1432 C   0  0  0  0  0  0
  -27.0373  -30.2985   24.6253 C   0  0  0  0  0  0
  -27.6074  -32.4305   25.7533 C   0  0  0  0  0  0
  -27.5563  -37.1774   24.8475 C   0  0  0  0  0  0
  -21.4193  -29.3053   22.3642 N   0  0  0  0  0  0
  -26.4269  -37.3754   23.9426 N   0  0  0  0  0  0
  -24.7042  -31.0426   22.0987 N   0  0  0  0  0  0
  -23.4176  -28.8148   23.3050 O   0  0  0  0  0  0
  -28.3051  -26.2888   20.2041 O   0  0  0  0  0  0
  -26.5629  -34.8916   22.4661 O   0  0  0  0  0  0
  -23.5485  -32.1390   23.7225 O   0  0  0  0  0  0
  -27.8992  -18.3141   20.3629 C   0  0  0  0  0  0
  -29.2371  -18.4921   20.6066 C   0  0  0  0  0  0
  -28.4796  -20.7600   20.4574 C   0  0  0  0  0  0
  -29.8365  -24.9662   17.8692 C   0  0  0  0  0  0
  -27.7573  -23.5552   17.5534 C   0  0  0  0  0  0
  -29.2021  -23.8542   22.0387 C   0  0  0  0  0  0
  -30.2783  -17.3164   20.7897 C   0  0  0  0  0  0
  -28.3620  -24.7783   18.2733 C   0  0  0  0  0  0
  -28.9525  -23.5741   20.5490 C   0  0  2  0  0  0
  -28.1428  -24.8189   19.8229 C   0  0  1  0  0  0
  -29.5406  -19.9151   20.6708 N   0  0  0  0  0  0
  -28.3249  -22.2007   20.4040 N   0  0  0  0  0  0
  -29.8447  -15.8492   20.7798 N   0  0  0  0  0  0
  -27.0141  -19.8166   20.1836 S   0  0  0  0  0  0
  -31.4767  -12.5854   19.1727 H   0  0  0  0  0  0
  -30.3800  -11.4700   19.9460 H   0  0  0  0  0  0
  -29.7949  -11.7362   17.5169 H   0  0  0  0  0  0
  -29.6381  -13.4635   17.7162 H   0  0  0  0  0  0
  -27.8855  -11.2862   18.8921 H   0  0  0  0  0  0
  -27.3814  -12.5427   17.7918 H   0  0  0  0  0  0
  -27.6489  -14.2502   19.4808 H   0  0  0  0  0  0
  -28.7204  -12.1277   21.3985 H   0  0  0  0  0  0
  -28.4168  -13.7982   21.8121 H   0  0  0  0  0  0
  -25.2781   -9.5663   22.4774 H   0  0  0  0  0  0
  -24.0001   -7.4629   22.7484 H   0  0  0  0  0  0
  -21.0839   -8.8780   19.8968 H   0  0  0  0  0  0
  -22.3720  -10.9672   19.6181 H   0  0  0  0  0  0
  -21.1974   -7.6149   23.9708 H   0  0  0  0  0  0
  -21.1485   -6.0531   25.9075 H   0  0  0  0  0  0
  -22.0596   -2.7604   23.2868 H   0  0  0  0  0  0
  -22.4076  -11.9912   22.4811 H   0  0  0  0  0  0
  -21.1088  -13.1278   22.2625 H   0  0  0  0  0  0
  -24.6181  -15.8054   20.4055 H   0  0  0  0  0  0
  -26.1853  -15.5461   19.8335 H   0  0  0  0  0  0
  -26.7223  -32.5386   23.1035 H   0  0  0  0  0  0
  -25.0054  -33.9680   25.0377 H   0  0  0  0  0  0
  -22.7308  -31.2976   21.3913 H   0  0  0  0  0  0
  -23.3762  -35.9536   23.3328 H   0  0  0  0  0  0
  -24.3522  -36.8825   22.2029 H   0  0  0  0  0  0
  -23.7212  -37.6434   23.6646 H   0  0  0  0  0  0
  -26.1323  -31.5067   20.6183 H   0  0  0  0  0  0
  -26.8593  -30.7908   22.0249 H   0  0  0  0  0  0
  -28.1213  -28.8704   21.2201 H   0  0  0  0  0  0
  -25.9115  -25.9114   18.9721 H   0  0  0  0  0  0
  -23.9703  -27.3216   18.9876 H   0  0  0  0  0  0
  -23.7862  -30.5875   19.4089 H   0  0  0  0  0  0
  -22.7716  -29.2445   19.8535 H   0  0  0  0  0  0
  -25.1278  -36.1858   25.0819 H   0  0  0  0  0  0
  -20.9990  -28.3348   24.1385 H   0  0  0  0  0  0
  -20.5653  -26.2359   23.3630 H   0  0  0  0  0  0
  -21.6624  -26.7476   22.1208 H   0  0  0  0  0  0
  -19.6883  -25.6334   21.1263 H   0  0  0  0  0  0
  -19.6686  -27.3236   20.6747 H   0  0  0  0  0  0
  -17.4169  -26.6764   21.4068 H   0  0  0  0  0  0
  -18.0323  -26.0115   22.9028 H   0  0  0  0  0  0
  -19.7935  -30.7306   24.2341 H   0  0  0  0  0  0
  -17.5024  -31.6332   24.5165 H   0  0  0  0  0  0
  -15.5367  -30.3063   23.7678 H   0  0  0  0  0  0
  -15.8642  -28.0844   22.7199 H   0  0  0  0  0  0
  -24.5944  -30.7052   25.7796 H   0  0  0  0  0  0
  -24.8885  -32.2946   26.4752 H   0  0  0  0  0  0
  -25.8041  -30.9031   27.0263 H   0  0  0  0  0  0
  -26.2986  -29.6756   24.1195 H   0  0  0  0  0  0
  -27.3932  -29.7234   25.4807 H   0  0  0  0  0  0
  -27.8911  -30.4220   23.9596 H   0  0  0  0  0  0
  -27.2699  -33.3622   26.2075 H   0  0  0  0  0  0
  -28.3951  -32.6830   25.0428 H   0  0  0  0  0  0
  -28.0674  -31.8430   26.5493 H   0  0  0  0  0  0
  -28.2595  -38.0049   24.7504 H   0  0  0  0  0  0
  -28.1056  -36.2592   24.6337 H   0  0  0  0  0  0
  -27.2286  -37.1457   25.8877 H   0  0  0  0  0  0
  -20.9401  -29.8683   21.6765 H   0  0  0  0  0  0
  -26.0150  -38.2820   24.1445 H   0  0  0  0  0  0
  -27.3699  -17.3785   20.2680 H   0  0  0  0  0  0
  -30.4265  -24.0688   18.0562 H   0  0  0  0  0  0
  -30.2957  -25.7957   18.4112 H   0  0  0  0  0  0
  -29.9266  -25.1816   16.8052 H   0  0  0  0  0  0
  -28.2466  -22.6232   17.8291 H   0  0  0  0  0  0
  -27.8667  -23.6540   16.4729 H   0  0  0  0  0  0
  -26.6926  -23.4500   17.7662 H   0  0  0  0  0  0
  -29.8905  -24.6927   22.1632 H   0  0  0  0  0  0
  -29.6549  -22.9907   22.5363 H   0  0  0  0  0  0
  -28.2814  -24.1034   22.5682 H   0  0  0  0  0  0
  -31.0551  -17.4249   20.0319 H   0  0  0  0  0  0
  -30.7967  -17.4691   21.7363 H   0  0  0  0  0  0
  -27.8397  -25.6331   17.8483 H   0  0  0  0  0  0
  -29.9394  -23.4927   20.0951 H   0  0  0  0  0  0
  -27.1052  -24.5718   20.0466 H   0  0  0  0  0  0
  -27.3564  -22.3531   20.1436 H   0  0  0  0  0  0
  -28.8873  -15.6708   21.0412 H   0  0  0  0  0  0
  1 25  1  0  0  0
  1 30  2  0  0  0
  1 83  1  0  0  0
  2  3  1  0  0  0
  2 25  1  0  0  0
  2 85  1  0  0  0
  2 86  1  0  0  0
  3  4  1  0  0  0
  3 87  1  0  0  0
  3 88  1  0  0  0
  4  5  1  0  0  0
  4 89  1  0  0  0
  4 90  1  0  0  0
  5  6  1  0  0  0
  5 26  1  0  0  0
  5 91  1  0  0  0
  6 25  1  0  0  0
  6 92  1  0  0  0
  6 93  1  0  0  0
  7  8  2  0  0  0
  7 26  1  0  0  0
  7 29  1  0  0  0
  8  9  1  0  0  0
  8 22  1  0  0  0
  9 10  1  0  0  0
  9 27  2  0  0  0
 10 11  2  0  0  0
 10 15  1  0  0  0
 11 12  1  0  0  0
 11 94  1  0  0  0
 12 13  2  0  0  0
 12 95  1  0  0  0
 13 14  1  0  0  0
 13 31  1  0  0  0
 14 15  2  0  0  0
 14 96  1  0  0  0
 15 97  1  0  0  0
 16 17  2  0  0  0
 16 21  1  0  0  0
 16 31  1  0  0  0
 17 18  1  0  0  0
 17 98  1  0  0  0
 18 19  2  0  0  0
 18 99  1  0  0  0
 19 20  1  0  0  0
 19 24  1  0  0  0
 20 21  2  0  0  0
 20100  1  0  0  0
 21 23  1  0  0  0
 22 28  1  0  0  0
 22 32  2  0  0  0
 26 27  1  0  0  0
 28101  1  0  0  0
 28102  1  0  0  0
 29103  1  0  0  0
 29104  1  0  0  0
 33 34  1  0  0  0
 33 66  1  0  0  0
 33 70  2  0  0  0
 34 36  1  0  0  0
 34 59  1  0  0  0
 34105  1  0  0  0
 35 44  2  0  0  0
 35 45  1  0  0  0
 35 68  1  0  0  0
 36 56  1  0  0  0
 36106  1  0  0  0
 37 39  1  0  0  0
 37 47  1  0  0  0
 37 66  1  0  0  0
 37107  1  0  0  0
 38 43  2  0  0  0
 38 46  1  0  0  0
 38 47  1  0  0  0
 39 64  1  0  0  0
 39 67  2  0  0  0
 40 52  1  0  0  0
 40 53  2  0  0  0
 40 58  1  0  0  0
 41108  1  0  0  0
 41109  1  0  0  0
 41110  1  0  0  0
 41 48  1  0  0  0
 42 43  1  0  0  0
 42 66  1  0  0  0
 42111  1  0  0  0
 42112  1  0  0  0
 43 44  1  0  0  0
 44113  1  0  0  0
 45 46  2  0  0  0
 45114  1  0  0  0
 46115  1  0  0  0
 47116  1  0  0  0
 47117  1  0  0  0
 48 56  1  0  0  0
 48 65  1  0  0  0
 48118  1  0  0  0
 49 50  1  0  0  0
 49 53  1  0  0  0
 49 64  1  0  0  0
 49119  1  0  0  0
 50 51  1  0  0  0
 50120  1  0  0  0
 50121  1  0  0  0
 51 52  1  0  0  0
 51122  1  0  0  0
 51123  1  0  0  0
 52124  1  0  0  0
 52125  1  0  0  0
 53 54  1  0  0  0
 54 55  2  0  0  0
 54126  1  0  0  0
 55 57  1  0  0  0
 55127  1  0  0  0
 56 69  2  0  0  0
 57 58  2  0  0  0
 57128  1  0  0  0
 58129  1  0  0  0
 59 60  1  0  0  0
 59 61  1  0  0  0
 59 62  1  0  0  0
 60130  1  0  0  0
 60131  1  0  0  0
 60132  1  0  0  0
 61133  1  0  0  0
 61134  1  0  0  0
 61135  1  0  0  0
 62136  1  0  0  0
 62137  1  0  0  0
 62138  1  0  0  0
 63 65  1  0  0  0
 63139  1  0  0  0
 63140  1  0  0  0
 63141  1  0  0  0
 64142  1  0  0  0
 65143  1  0  0  0
 68 80  1  0  0  0
 71 72  2  0  0  0
 71 84  1  0  0  0
 71144  1  0  0  0
 72 77  1  0  0  0
 72 81  1  0  0  0
 73 81  2  0  0  0
 73 82  1  0  0  0
 73 84  1  0  0  0
 74145  1  0  0  0
 74146  1  0  0  0
 74147  1  0  0  0
 74 78  1  0  0  0
 75 78  1  0  0  0
 75148  1  0  0  0
 75149  1  0  0  0
 75150  1  0  0  0
 76151  1  0  0  0
 76152  1  0  0  0
 76153  1  0  0  0
 76 79  1  0  0  0
 77 83  1  0  0  0
 77154  1  0  0  0
 77155  1  0  0  0
 78 80  1  0  0  0
 78156  1  0  0  0
 79 80  1  0  0  0
 79 82  1  0  0  0
 79157  1  0  0  0
 80158  1  0  0  0
 82159  1  0  0  0
 83160  1  0  0  0
M  ISO  4   1 100  68 101  80 101  83 100
M  END
> <chiral flag>
0

> <version>
0

> <s_m_source_file>
/data/baiqing/PycharmProjects/Reinvent-master-3.2/result/LINK_invent/BTK/process_docking_weight1_custom_product_contain_oxygen_bond_distance_aromatic_linkinvent_7_9_3/rearranged_h_0190.sdf

> <i_m_source_file_index>
21

> <r_mmod_Potential_Energy-OPLS-2005>
14.4795598983765

> <r_mmod_Stretch_Energy-OPLS-2005>
134.868865966797

> <r_mmod_Bend_Energy-OPLS-2005>
193.093017578125

> <r_mmod_Torsional_Energy-OPLS-2005>
205.775466918945

> <r_mmod_Improper_Torsional_Energy-OPLS-2005>
6.04210472106934

> <r_mmod_Van_der_Waal_Energy-OPLS-2005>
115.499481201172

> <r_mmod_Electrostatic_Energy-OPLS-2005>
-512.230590820312

> <r_mmod_Solvation_Energy-OPLS-2005>
-222.510208129883

> <b_mmod_Minimization_Converged-OPLS-2005>
0

> <r_mmod_RMS_Derivative-OPLS-2005>
4.62285232543945

$$$$
21
                    3D
 Structure written by MMmdl.
155163  0  0  1  0            999 V2000
  -30.6850  -14.5604   20.5102 C   0  0  0  0  0  0
  -30.4124  -12.3446   19.4515 C   0  0  0  0  0  0
  -29.4952  -12.5067   18.2221 C   0  0  0  0  0  0
  -28.0222  -12.3366   18.6395 C   0  0  0  0  0  0
  -27.6494  -13.2136   19.8647 C   0  0  2  0  0  0
  -28.6922  -13.0717   20.9967 C   0  0  0  0  0  0
  -25.2528  -13.8172   20.5720 C   0  0  0  0  0  0
  -24.1791  -13.0441   20.9195 C   0  0  0  0  0  0
  -24.6348  -11.6911   20.8764 C   0  0  0  0  0  0
  -23.9021  -10.4292   21.0415 C   0  0  0  0  0  0
  -24.3594   -9.4210   21.9189 C   0  0  0  0  0  0
  -23.6274   -8.2240   22.0768 C   0  0  0  0  0  0
  -22.4251   -8.0270   21.3571 C   0  0  0  0  0  0
  -21.9869   -9.0241   20.4681 C   0  0  0  0  0  0
  -22.7190  -10.2128   20.3072 C   0  0  0  0  0  0
  -21.6838   -6.0736   22.5282 C   0  0  0  0  0  0
  -21.4020   -6.5644   23.8213 C   0  0  0  0  0  0
  -21.3664   -5.6788   24.9170 C   0  0  0  0  0  0
  -21.6038   -4.3056   24.7226 C   0  0  0  0  0  0
  -21.8802   -3.8151   23.4337 C   0  0  0  0  0  0
  -21.9191   -4.6973   22.3396 C   0  0  0  0  0  0
  -22.7805  -13.5257   21.1847 C   0  0  0  0  0  0
  -22.1653   -4.2155   21.0972 F   0  0  0  0  0  0
  -21.5627   -3.4531   25.7740 F   0  0  0  0  0  0
  -30.0096  -13.3754   20.4271 N   0  0  0  0  0  0
  -26.2942  -12.9353   20.3318 N   0  0  0  0  0  0
  -25.9275  -11.6513   20.5762 N   0  0  0  0  0  0
  -22.0428  -12.8283   22.0415 N   0  0  0  0  0  0
  -25.4263  -15.1880   20.4144 N   0  0  0  0  0  0
  -31.8547  -14.6360   20.1261 O   0  0  0  0  0  0
  -21.6622   -6.8872   21.4242 O   0  0  0  0  0  0
  -22.3511  -14.5553   20.6689 O   0  0  0  0  0  0
  -24.6176  -31.8652   23.2096 C   0  0  0  0  0  0
  -25.9066  -32.4800   23.8395 C   0  0  1  0  0  0
  -27.2203  -27.3874   20.1198 C   0  0  0  0  0  0
  -25.5896  -33.8600   24.2311 N   0  0  0  0  0  0
  -23.4081  -30.4879   21.5499 C   0  0  2  0  0  0
  -24.8550  -28.9467   20.1165 C   0  0  0  0  0  0
  -22.7412  -29.4646   22.4985 C   0  0  0  0  0  0
  -18.0269  -28.1387   22.8485 C   0  0  0  0  0  0
  -24.1464  -36.7277   23.2649 C   0  0  0  0  0  0
  -25.9436  -30.8131   21.3759 C   0  0  0  0  0  0
  -26.0173  -29.4460   20.7184 C   0  0  0  0  0  0
  -27.2074  -28.6751   20.7151 C   0  0  0  0  0  0
  -26.0472  -26.9133   19.5041 C   0  0  0  0  0  0
  -24.8653  -27.6808   19.5046 C   0  0  0  0  0  0
  -23.6198  -29.8209   20.1644 C   0  0  0  0  0  0
  -25.4097  -36.3089   24.0341 C   0  0  1  0  0  0
  -20.5858  -28.3671   23.1314 C   0  0  2  0  0  0
  -20.6750  -26.9404   22.5432 C   0  0  0  0  0  0
  -19.5741  -26.6399   21.5211 C   0  0  0  0  0  0
  -18.1914  -26.7936   22.1610 C   0  0  0  0  0  0
  -19.1524  -28.8847   23.2892 C   0  0  0  0  0  0
  -18.9452  -30.1446   23.8910 C   0  0  0  0  0  0
  -17.6458  -30.6589   24.0573 C   0  0  0  0  0  0
  -25.9036  -34.9460   23.5128 C   0  0  0  0  0  0
  -16.5345  -29.9089   23.6341 C   0  0  0  0  0  0
  -16.7259  -28.6509   23.0353 C   0  0  0  0  0  0
  -26.4494  -31.6613   25.0754 C   0  0  0  0  0  0
  -25.3769  -31.3717   26.1512 C   0  0  0  0  0  0
  -27.0383  -30.3049   24.6217 C   0  0  0  0  0  0
  -27.6047  -32.4375   25.7498 C   0  0  0  0  0  0
  -27.5565  -37.1790   24.8462 C   0  0  0  0  0  0
  -21.4140  -29.3035   22.3721 N   0  0  0  0  0  0
  -26.4268  -37.3786   23.9421 N   0  0  0  0  0  0
  -24.6744  -31.0711   22.1008 N   0  0  0  0  0  0
  -23.4172  -28.8210   23.3068 O   0  0  0  0  0  0
  -28.3409  -26.5762   20.1082 O   0  0  0  0  0  0
  -26.5608  -34.8916   22.4695 O   0  0  0  0  0  0
  -23.5355  -32.1449   23.7440 O   0  0  0  0  0  0
  -31.7315  -17.4284   20.8518 C   0  0  0  0  0  0
  -30.4047  -17.0652   20.8114 C   0  0  0  0  0  0
  -30.2329  -19.3735   20.7004 C   0  0  0  0  0  0
  -27.3522  -21.0909   20.2742 C   0  0  0  0  0  0
  -28.0263  -24.1781   21.1247 C   0  0  0  0  0  0
  -28.4753  -25.6871   21.2455 C   0  0  0  0  0  0
  -28.6495  -21.5804   20.9255 C   0  0  2  0  0  0
  -29.0025  -23.0807   20.5587 C   0  0  2  0  0  0
  -29.5470  -18.2058   20.7693 N   0  0  0  0  0  0
  -29.9653  -15.6788   20.8328 N   0  0  0  0  0  0
  -29.7802  -20.7013   20.5954 N   0  0  0  0  0  0
  -30.3182  -23.2995   21.0476 O   0  0  0  0  0  0
  -31.9702  -19.1455   20.7415 S   0  0  0  0  0  0
  -31.4596  -12.4212   19.1585 H   0  0  0  0  0  0
  -30.2992  -11.3489   19.8849 H   0  0  0  0  0  0
  -29.7555  -11.7819   17.4504 H   0  0  0  0  0  0
  -29.6399  -13.4940   17.7797 H   0  0  0  0  0  0
  -27.8668  -11.2840   18.8831 H   0  0  0  0  0  0
  -27.3603  -12.5536   17.8001 H   0  0  0  0  0  0
  -27.6739  -14.2472   19.5206 H   0  0  0  0  0  0
  -28.6824  -12.0565   21.3971 H   0  0  0  0  0  0
  -28.4519  -13.7270   21.8366 H   0  0  0  0  0  0
  -25.2737   -9.5684   22.4766 H   0  0  0  0  0  0
  -23.9990   -7.4614   22.7458 H   0  0  0  0  0  0
  -21.0810   -8.8755   19.8974 H   0  0  0  0  0  0
  -22.3638  -10.9676   19.6189 H   0  0  0  0  0  0
  -21.2024   -7.6153   23.9723 H   0  0  0  0  0  0
  -21.1502   -6.0524   25.9074 H   0  0  0  0  0  0
  -22.0591   -2.7618   23.2830 H   0  0  0  0  0  0
  -22.4033  -11.9963   22.4837 H   0  0  0  0  0  0
  -21.1065  -13.1362   22.2624 H   0  0  0  0  0  0
  -24.6667  -15.8481   20.5431 H   0  0  0  0  0  0
  -26.2704  -15.6259   20.0700 H   0  0  0  0  0  0
  -26.7129  -32.5480   23.1142 H   0  0  0  0  0  0
  -25.0019  -33.9763   25.0432 H   0  0  0  0  0  0
  -22.6991  -31.3069   21.4094 H   0  0  0  0  0  0
  -23.3738  -35.9596   23.3329 H   0  0  0  0  0  0
  -24.3544  -36.8878   22.2058 H   0  0  0  0  0  0
  -23.7206  -37.6474   23.6664 H   0  0  0  0  0  0
  -26.0813  -31.5872   20.6193 H   0  0  0  0  0  0
  -26.8200  -30.8482   22.0115 H   0  0  0  0  0  0
  -28.1039  -29.0556   21.1835 H   0  0  0  0  0  0
  -26.0431  -25.9386   19.0384 H   0  0  0  0  0  0
  -23.9716  -27.2883   19.0397 H   0  0  0  0  0  0
  -23.7316  -30.6000   19.4089 H   0  0  0  0  0  0
  -22.7431  -29.2458   19.8625 H   0  0  0  0  0  0
  -25.1272  -36.1943   25.0832 H   0  0  0  0  0  0
  -20.9930  -28.3257   24.1442 H   0  0  0  0  0  0
  -20.5612  -26.2298   23.3631 H   0  0  0  0  0  0
  -21.6629  -26.7424   22.1264 H   0  0  0  0  0  0
  -19.6903  -25.6315   21.1228 H   0  0  0  0  0  0
  -19.6687  -27.3225   20.6753 H   0  0  0  0  0  0
  -17.4187  -26.6693   21.4003 H   0  0  0  0  0  0
  -18.0297  -26.0072   22.8994 H   0  0  0  0  0  0
  -19.7934  -30.7247   24.2288 H   0  0  0  0  0  0
  -17.5023  -31.6264   24.5181 H   0  0  0  0  0  0
  -15.5352  -30.2997   23.7660 H   0  0  0  0  0  0
  -15.8654  -28.0827   22.7072 H   0  0  0  0  0  0
  -24.5890  -30.7131   25.7842 H   0  0  0  0  0  0
  -24.9040  -32.2880   26.5047 H   0  0  0  0  0  0
  -25.8135  -30.8805   27.0219 H   0  0  0  0  0  0
  -26.2994  -29.6757   24.1245 H   0  0  0  0  0  0
  -27.4101  -29.7332   25.4733 H   0  0  0  0  0  0
  -27.8838  -30.4353   23.9459 H   0  0  0  0  0  0
  -27.2627  -33.3626   26.2142 H   0  0  0  0  0  0
  -28.3796  -32.7032   25.0300 H   0  0  0  0  0  0
  -28.0810  -31.8502   26.5355 H   0  0  0  0  0  0
  -28.2591  -38.0072   24.7499 H   0  0  0  0  0  0
  -28.1039  -36.2610   24.6284 H   0  0  0  0  0  0
  -27.2290  -37.1449   25.8862 H   0  0  0  0  0  0
  -20.9310  -29.8764   21.6936 H   0  0  0  0  0  0
  -26.0147  -38.2850   24.1442 H   0  0  0  0  0  0
  -32.6073  -16.7983   20.9146 H   0  0  0  0  0  0
  -26.5028  -21.6918   20.5995 H   0  0  0  0  0  0
  -27.1321  -20.0575   20.5526 H   0  0  0  0  0  0
  -27.4026  -21.1445   19.1859 H   0  0  0  0  0  0
  -27.0776  -24.1263   20.5902 H   0  0  0  0  0  0
  -27.7829  -23.8647   22.1419 H   0  0  0  0  0  0
  -29.5088  -25.7456   21.5901 H   0  0  0  0  0  0
  -27.9054  -26.1171   22.0725 H   0  0  0  0  0  0
  -28.5279  -21.5160   22.0076 H   0  0  0  0  0  0
  -29.0492  -23.1883   19.4738 H   0  0  0  0  0  0
  -28.9874  -15.5256   21.0231 H   0  0  0  0  0  0
  -30.5754  -21.3332   20.5442 H   0  0  0  0  0  0
  -30.6644  -24.0574   20.5903 H   0  0  0  0  0  0
  1 25  1  0  0  0
  1 30  2  0  0  0
  1 80  1  0  0  0
  2  3  1  0  0  0
  2 25  1  0  0  0
  2 84  1  0  0  0
  2 85  1  0  0  0
  3  4  1  0  0  0
  3 86  1  0  0  0
  3 87  1  0  0  0
  4  5  1  0  0  0
  4 88  1  0  0  0
  4 89  1  0  0  0
  5  6  1  0  0  0
  5 26  1  0  0  0
  5 90  1  0  0  0
  6 25  1  0  0  0
  6 91  1  0  0  0
  6 92  1  0  0  0
  7  8  2  0  0  0
  7 26  1  0  0  0
  7 29  1  0  0  0
  8  9  1  0  0  0
  8 22  1  0  0  0
  9 10  1  0  0  0
  9 27  2  0  0  0
 10 11  2  0  0  0
 10 15  1  0  0  0
 11 12  1  0  0  0
 11 93  1  0  0  0
 12 13  2  0  0  0
 12 94  1  0  0  0
 13 14  1  0  0  0
 13 31  1  0  0  0
 14 15  2  0  0  0
 14 95  1  0  0  0
 15 96  1  0  0  0
 16 17  2  0  0  0
 16 21  1  0  0  0
 16 31  1  0  0  0
 17 18  1  0  0  0
 17 97  1  0  0  0
 18 19  2  0  0  0
 18 98  1  0  0  0
 19 20  1  0  0  0
 19 24  1  0  0  0
 20 21  2  0  0  0
 20 99  1  0  0  0
 21 23  1  0  0  0
 22 28  1  0  0  0
 22 32  2  0  0  0
 26 27  1  0  0  0
 28100  1  0  0  0
 28101  1  0  0  0
 29102  1  0  0  0
 29103  1  0  0  0
 33 34  1  0  0  0
 33 66  1  0  0  0
 33 70  2  0  0  0
 34 36  1  0  0  0
 34 59  1  0  0  0
 34104  1  0  0  0
 35 44  2  0  0  0
 35 45  1  0  0  0
 35 68  1  0  0  0
 36 56  1  0  0  0
 36105  1  0  0  0
 37 39  1  0  0  0
 37 47  1  0  0  0
 37 66  1  0  0  0
 37106  1  0  0  0
 38 43  2  0  0  0
 38 46  1  0  0  0
 38 47  1  0  0  0
 39 64  1  0  0  0
 39 67  2  0  0  0
 40 52  1  0  0  0
 40 53  2  0  0  0
 40 58  1  0  0  0
 41107  1  0  0  0
 41108  1  0  0  0
 41109  1  0  0  0
 41 48  1  0  0  0
 42 43  1  0  0  0
 42 66  1  0  0  0
 42110  1  0  0  0
 42111  1  0  0  0
 43 44  1  0  0  0
 44112  1  0  0  0
 45 46  2  0  0  0
 45113  1  0  0  0
 46114  1  0  0  0
 47115  1  0  0  0
 47116  1  0  0  0
 48 56  1  0  0  0
 48 65  1  0  0  0
 48117  1  0  0  0
 49 50  1  0  0  0
 49 53  1  0  0  0
 49 64  1  0  0  0
 49118  1  0  0  0
 50 51  1  0  0  0
 50119  1  0  0  0
 50120  1  0  0  0
 51 52  1  0  0  0
 51121  1  0  0  0
 51122  1  0  0  0
 52123  1  0  0  0
 52124  1  0  0  0
 53 54  1  0  0  0
 54 55  2  0  0  0
 54125  1  0  0  0
 55 57  1  0  0  0
 55126  1  0  0  0
 56 69  2  0  0  0
 57 58  2  0  0  0
 57127  1  0  0  0
 58128  1  0  0  0
 59 60  1  0  0  0
 59 61  1  0  0  0
 59 62  1  0  0  0
 60129  1  0  0  0
 60130  1  0  0  0
 60131  1  0  0  0
 61132  1  0  0  0
 61133  1  0  0  0
 61134  1  0  0  0
 62135  1  0  0  0
 62136  1  0  0  0
 62137  1  0  0  0
 63 65  1  0  0  0
 63138  1  0  0  0
 63139  1  0  0  0
 63140  1  0  0  0
 64141  1  0  0  0
 65142  1  0  0  0
 68 76  1  0  0  0
 71 72  2  0  0  0
 71 83  1  0  0  0
 71143  1  0  0  0
 72 79  1  0  0  0
 72 80  1  0  0  0
 73 79  2  0  0  0
 73 81  1  0  0  0
 73 83  1  0  0  0
 74144  1  0  0  0
 74145  1  0  0  0
 74146  1  0  0  0
 74 77  1  0  0  0
 75 76  1  0  0  0
 75 78  1  0  0  0
 75147  1  0  0  0
 75148  1  0  0  0
 76149  1  0  0  0
 76150  1  0  0  0
 77 78  1  0  0  0
 77 81  1  0  0  0
 77151  1  0  0  0
 78 82  1  0  0  0
 78152  1  0  0  0
 80153  1  0  0  0
 81154  1  0  0  0
 82155  1  0  0  0
M  ISO  4   1 100  68 101  76 101  80 100
M  END
> <chiral flag>
0

> <version>
0

> <s_m_source_file>
/data/baiqing/PycharmProjects/Reinvent-master-3.2/result/LINK_invent/BTK/process_docking_weight1_custom_product_contain_oxygen_bond_distance_aromatic_linkinvent_7_9_3/rearranged_h_0190.sdf

> <i_m_source_file_index>
22

> <r_mmod_Potential_Energy-OPLS-2005>
-116.560043334961

> <r_mmod_Stretch_Energy-OPLS-2005>
53.1100425720215

> <r_mmod_Bend_Energy-OPLS-2005>
135.640289306641

> <r_mmod_Torsional_Energy-OPLS-2005>
268.40625

> <r_mmod_Improper_Torsional_Energy-OPLS-2005>
6.17619514465332

> <r_mmod_Van_der_Waal_Energy-OPLS-2005>
130.307846069336

> <r_mmod_Electrostatic_Energy-OPLS-2005>
-517.837097167969

> <r_mmod_Solvation_Energy-OPLS-2005>
-220.575424194336

> <b_mmod_Minimization_Converged-OPLS-2005>
0

> <r_mmod_RMS_Derivative-OPLS-2005>
3.76546192169189

$$$$
22
                    3D
 Structure written by MMmdl.
157165  0  0  1  0            999 V2000
  -30.7148  -14.4681   20.5226 C   0  0  0  0  0  0
  -30.4221  -12.2865   19.4409 C   0  0  0  0  0  0
  -29.5019  -12.4828   18.2194 C   0  0  0  0  0  0
  -28.0249  -12.3383   18.6296 C   0  0  0  0  0  0
  -27.6620  -13.2049   19.8671 C   0  0  2  0  0  0
  -28.7027  -13.0159   20.9968 C   0  0  0  0  0  0
  -25.2571  -13.8159   20.5636 C   0  0  0  0  0  0
  -24.1830  -13.0412   20.9156 C   0  0  0  0  0  0
  -24.6413  -11.6900   20.8730 C   0  0  0  0  0  0
  -23.9080  -10.4283   21.0397 C   0  0  0  0  0  0
  -24.3631   -9.4196   21.9167 C   0  0  0  0  0  0
  -23.6298   -8.2236   22.0744 C   0  0  0  0  0  0
  -22.4278   -8.0280   21.3549 C   0  0  0  0  0  0
  -21.9921   -9.0252   20.4647 C   0  0  0  0  0  0
  -22.7259  -10.2126   20.3042 C   0  0  0  0  0  0
  -21.6847   -6.0740   22.5294 C   0  0  0  0  0  0
  -21.4017   -6.5645   23.8226 C   0  0  0  0  0  0
  -21.3647   -5.6790   24.9185 C   0  0  0  0  0  0
  -21.6041   -4.3052   24.7233 C   0  0  0  0  0  0
  -21.8817   -3.8151   23.4354 C   0  0  0  0  0  0
  -21.9191   -4.6969   22.3414 C   0  0  0  0  0  0
  -22.7860  -13.5188   21.1857 C   0  0  0  0  0  0
  -22.1647   -4.2157   21.0983 F   0  0  0  0  0  0
  -21.5632   -3.4537   25.7743 F   0  0  0  0  0  0
  -30.0385  -13.2911   20.4432 N   0  0  0  0  0  0
  -26.3021  -12.9328   20.3310 N   0  0  0  0  0  0
  -25.9339  -11.6502   20.5764 N   0  0  0  0  0  0
  -22.0536  -12.8153   22.0426 N   0  0  0  0  0  0
  -25.4255  -15.1886   20.4065 N   0  0  0  0  0  0
  -31.8611  -14.6121   20.0934 O   0  0  0  0  0  0
  -21.6637   -6.8890   21.4254 O   0  0  0  0  0  0
  -22.3528  -14.5499   20.6731 O   0  0  0  0  0  0
  -24.6158  -31.8694   23.2072 C   0  0  0  0  0  0
  -25.9033  -32.4826   23.8389 C   0  0  1  0  0  0
  -27.2454  -27.4423   20.0739 C   0  0  0  0  0  0
  -25.5858  -33.8624   24.2328 N   0  0  0  0  0  0
  -23.4027  -30.4933   21.5465 C   0  0  2  0  0  0
  -24.8484  -28.9532   20.1181 C   0  0  0  0  0  0
  -22.7375  -29.4715   22.4992 C   0  0  0  0  0  0
  -18.0288  -28.1309   22.8477 C   0  0  0  0  0  0
  -24.1489  -36.7317   23.2650 C   0  0  0  0  0  0
  -25.9339  -30.8310   21.3663 C   0  0  0  0  0  0
  -26.0066  -29.4651   20.7138 C   0  0  0  0  0  0
  -27.2006  -28.7101   20.7004 C   0  0  0  0  0  0
  -26.0566  -26.9354   19.4941 C   0  0  0  0  0  0
  -24.8662  -27.6856   19.5127 C   0  0  0  0  0  0
  -23.6098  -29.8163   20.1653 C   0  0  0  0  0  0
  -25.4107  -36.3141   24.0363 C   0  0  1  0  0  0
  -20.5870  -28.3647   23.1311 C   0  0  2  0  0  0
  -20.6785  -26.9393   22.5370 C   0  0  0  0  0  0
  -19.5772  -26.6383   21.5167 C   0  0  0  0  0  0
  -18.1956  -26.7872   22.1589 C   0  0  0  0  0  0
  -19.1518  -28.8774   23.2904 C   0  0  0  0  0  0
  -18.9440  -30.1383   23.8911 C   0  0  0  0  0  0
  -17.6446  -30.6515   24.0542 C   0  0  0  0  0  0
  -25.9014  -34.9490   23.5155 C   0  0  0  0  0  0
  -16.5342  -29.9002   23.6293 C   0  0  0  0  0  0
  -16.7274  -28.6426   23.0302 C   0  0  0  0  0  0
  -26.4449  -31.6599   25.0716 C   0  0  0  0  0  0
  -25.3724  -31.3723   26.1468 C   0  0  0  0  0  0
  -27.0288  -30.3040   24.6120 C   0  0  0  0  0  0
  -27.6006  -32.4344   25.7466 C   0  0  0  0  0  0
  -27.5595  -37.1810   24.8468 C   0  0  0  0  0  0
  -21.4093  -29.3091   22.3732 N   0  0  0  0  0  0
  -26.4313  -37.3802   23.9406 N   0  0  0  0  0  0
  -24.6682  -31.0814   22.0960 N   0  0  0  0  0  0
  -23.4127  -28.8259   23.3039 O   0  0  0  0  0  0
  -28.4484  -26.7597   20.0865 O   0  0  0  0  0  0
  -26.5600  -34.8951   22.4733 O   0  0  0  0  0  0
  -23.5346  -32.1441   23.7448 O   0  0  0  0  0  0
  -29.3651  -17.7524   22.6818 C   0  0  0  0  0  0
  -29.5835  -19.3277   20.8613 C   0  0  0  0  0  0
  -28.8602  -18.8100   23.4500 C   0  0  0  0  0  0
  -29.7406  -18.0097   21.3516 C   0  0  0  0  0  0
  -29.0318  -20.3371   21.6864 C   0  0  0  0  0  0
  -27.8276  -22.4742   21.3071 C   0  0  0  0  0  0
  -30.3273  -16.9107   20.4730 C   0  0  0  0  0  0
  -27.8924  -23.9418   20.8218 C   0  0  0  0  0  0
  -28.7209  -25.7229   19.1310 C   0  0  0  0  0  0
  -28.9776  -24.3432   19.7977 C   0  0  1  0  0  0
  -28.6945  -20.0593   22.9680 N   0  0  0  0  0  0
  -28.8852  -21.6482   21.1445 N   0  0  0  0  0  0
  -29.9811  -15.5357   20.8656 N   0  0  0  0  0  0
  -26.7679  -22.1012   21.8211 O   0  0  0  0  0  0
  -30.2632  -24.3493   20.4032 O   0  0  0  0  0  0
  -31.4685  -12.3661   19.1407 H   0  0  0  0  0  0
  -30.3121  -11.2836   19.8568 H   0  0  0  0  0  0
  -29.7497  -11.7586   17.4429 H   0  0  0  0  0  0
  -29.6690  -13.4685   17.7832 H   0  0  0  0  0  0
  -27.8507  -11.2834   18.8530 H   0  0  0  0  0  0
  -27.3716  -12.5780   17.7904 H   0  0  0  0  0  0
  -27.6992  -14.2440   19.5435 H   0  0  0  0  0  0
  -28.6715  -11.9906   21.3683 H   0  0  0  0  0  0
  -28.4725  -13.6546   21.8516 H   0  0  0  0  0  0
  -25.2794   -9.5637   22.4722 H   0  0  0  0  0  0
  -24.0002   -7.4614   22.7458 H   0  0  0  0  0  0
  -21.0852   -8.8787   19.8945 H   0  0  0  0  0  0
  -22.3748  -10.9660   19.6129 H   0  0  0  0  0  0
  -21.2016   -7.6156   23.9729 H   0  0  0  0  0  0
  -21.1461   -6.0529   25.9088 H   0  0  0  0  0  0
  -22.0610   -2.7617   23.2864 H   0  0  0  0  0  0
  -22.4189  -11.9796   22.4744 H   0  0  0  0  0  0
  -21.1165  -13.1161   22.2709 H   0  0  0  0  0  0
  -24.6557  -15.8377   20.5281 H   0  0  0  0  0  0
  -26.2768  -15.6392   20.0926 H   0  0  0  0  0  0
  -26.7124  -32.5559   23.1175 H   0  0  0  0  0  0
  -24.9983  -33.9762   25.0462 H   0  0  0  0  0  0
  -22.6935  -31.3106   21.4015 H   0  0  0  0  0  0
  -23.3762  -35.9634   23.3324 H   0  0  0  0  0  0
  -24.3587  -36.8904   22.2061 H   0  0  0  0  0  0
  -23.7222  -37.6527   23.6634 H   0  0  0  0  0  0
  -26.0615  -31.5941   20.5967 H   0  0  0  0  0  0
  -26.8166  -30.8749   21.9922 H   0  0  0  0  0  0
  -28.0972  -29.1001   21.1623 H   0  0  0  0  0  0
  -26.0127  -25.9613   19.0334 H   0  0  0  0  0  0
  -23.9689  -27.2810   19.0649 H   0  0  0  0  0  0
  -23.7107  -30.5793   19.3911 H   0  0  0  0  0  0
  -22.7377  -29.2242   19.8860 H   0  0  0  0  0  0
  -25.1296  -36.2014   25.0858 H   0  0  0  0  0  0
  -20.9978  -28.3191   24.1424 H   0  0  0  0  0  0
  -20.5665  -26.2253   23.3538 H   0  0  0  0  0  0
  -21.6651  -26.7408   22.1161 H   0  0  0  0  0  0
  -19.6696  -27.3233   20.6723 H   0  0  0  0  0  0
  -19.6957  -25.6316   21.1132 H   0  0  0  0  0  0
  -17.4206  -26.6586   21.4023 H   0  0  0  0  0  0
  -18.0387  -25.9973   22.8948 H   0  0  0  0  0  0
  -19.7935  -30.7178   24.2298 H   0  0  0  0  0  0
  -17.4995  -31.6185   24.5170 H   0  0  0  0  0  0
  -15.5346  -30.2878   23.7599 H   0  0  0  0  0  0
  -15.8693  -28.0735   22.6999 H   0  0  0  0  0  0
  -24.5840  -30.7127   25.7829 H   0  0  0  0  0  0
  -24.8977  -32.2894   26.4967 H   0  0  0  0  0  0
  -25.8073  -30.8858   27.0200 H   0  0  0  0  0  0
  -26.2843  -29.6768   24.1192 H   0  0  0  0  0  0
  -27.4066  -29.7305   25.4591 H   0  0  0  0  0  0
  -27.8679  -30.4369   23.9277 H   0  0  0  0  0  0
  -27.2580  -33.3610   26.2084 H   0  0  0  0  0  0
  -28.3758  -32.6961   25.0251 H   0  0  0  0  0  0
  -28.0721  -31.8453   26.5337 H   0  0  0  0  0  0
  -28.2645  -38.0083   24.7513 H   0  0  0  0  0  0
  -28.1066  -36.2616   24.6304 H   0  0  0  0  0  0
  -27.2303  -37.1477   25.8871 H   0  0  0  0  0  0
  -20.9259  -29.8813   21.6957 H   0  0  0  0  0  0
  -26.0225  -38.2908   24.1319 H   0  0  0  0  0  0
  -29.4767  -16.7721   23.1225 H   0  0  0  0  0  0
  -29.8666  -19.5526   19.8419 H   0  0  0  0  0  0
  -28.5830  -18.6525   24.4813 H   0  0  0  0  0  0
  -31.4077  -17.0519   20.4702 H   0  0  0  0  0  0
  -29.9985  -17.0549   19.4427 H   0  0  0  0  0  0
  -27.9461  -24.6019   21.6891 H   0  0  0  0  0  0
  -26.9252  -24.1458   20.3634 H   0  0  0  0  0  0
  -27.9461  -25.6229   18.3743 H   0  0  0  0  0  0
  -29.6008  -26.0294   18.5632 H   0  0  0  0  0  0
  -28.9994  -23.6010   18.9955 H   0  0  0  0  0  0
  -29.6730  -22.0170   20.6293 H   0  0  0  0  0  0
  -29.0475  -15.3738   21.2077 H   0  0  0  0  0  0
  -30.8940  -24.6156   19.7393 H   0  0  0  0  0  0
  1 25  1  0  0  0
  1 30  2  0  0  0
  1 83  1  0  0  0
  2  3  1  0  0  0
  2 25  1  0  0  0
  2 86  1  0  0  0
  2 87  1  0  0  0
  3  4  1  0  0  0
  3 88  1  0  0  0
  3 89  1  0  0  0
  4  5  1  0  0  0
  4 90  1  0  0  0
  4 91  1  0  0  0
  5  6  1  0  0  0
  5 26  1  0  0  0
  5 92  1  0  0  0
  6 25  1  0  0  0
  6 93  1  0  0  0
  6 94  1  0  0  0
  7  8  2  0  0  0
  7 26  1  0  0  0
  7 29  1  0  0  0
  8  9  1  0  0  0
  8 22  1  0  0  0
  9 10  1  0  0  0
  9 27  2  0  0  0
 10 11  2  0  0  0
 10 15  1  0  0  0
 11 12  1  0  0  0
 11 95  1  0  0  0
 12 13  2  0  0  0
 12 96  1  0  0  0
 13 14  1  0  0  0
 13 31  1  0  0  0
 14 15  2  0  0  0
 14 97  1  0  0  0
 15 98  1  0  0  0
 16 17  2  0  0  0
 16 21  1  0  0  0
 16 31  1  0  0  0
 17 18  1  0  0  0
 17 99  1  0  0  0
 18 19  2  0  0  0
 18100  1  0  0  0
 19 20  1  0  0  0
 19 24  1  0  0  0
 20 21  2  0  0  0
 20101  1  0  0  0
 21 23  1  0  0  0
 22 28  1  0  0  0
 22 32  2  0  0  0
 26 27  1  0  0  0
 28102  1  0  0  0
 28103  1  0  0  0
 29104  1  0  0  0
 29105  1  0  0  0
 33 34  1  0  0  0
 33 66  1  0  0  0
 33 70  2  0  0  0
 34 36  1  0  0  0
 34 59  1  0  0  0
 34106  1  0  0  0
 35 44  2  0  0  0
 35 45  1  0  0  0
 35 68  1  0  0  0
 36 56  1  0  0  0
 36107  1  0  0  0
 37 39  1  0  0  0
 37 47  1  0  0  0
 37 66  1  0  0  0
 37108  1  0  0  0
 38 43  2  0  0  0
 38 46  1  0  0  0
 38 47  1  0  0  0
 39 64  1  0  0  0
 39 67  2  0  0  0
 40 52  1  0  0  0
 40 53  2  0  0  0
 40 58  1  0  0  0
 41109  1  0  0  0
 41110  1  0  0  0
 41111  1  0  0  0
 41 48  1  0  0  0
 42 43  1  0  0  0
 42 66  1  0  0  0
 42112  1  0  0  0
 42113  1  0  0  0
 43 44  1  0  0  0
 44114  1  0  0  0
 45 46  2  0  0  0
 45115  1  0  0  0
 46116  1  0  0  0
 47117  1  0  0  0
 47118  1  0  0  0
 48 56  1  0  0  0
 48 65  1  0  0  0
 48119  1  0  0  0
 49 50  1  0  0  0
 49 53  1  0  0  0
 49 64  1  0  0  0
 49120  1  0  0  0
 50 51  1  0  0  0
 50121  1  0  0  0
 50122  1  0  0  0
 51 52  1  0  0  0
 51123  1  0  0  0
 51124  1  0  0  0
 52125  1  0  0  0
 52126  1  0  0  0
 53 54  1  0  0  0
 54 55  2  0  0  0
 54127  1  0  0  0
 55 57  1  0  0  0
 55128  1  0  0  0
 56 69  2  0  0  0
 57 58  2  0  0  0
 57129  1  0  0  0
 58130  1  0  0  0
 59 60  1  0  0  0
 59 61  1  0  0  0
 59 62  1  0  0  0
 60131  1  0  0  0
 60132  1  0  0  0
 60133  1  0  0  0
 61134  1  0  0  0
 61135  1  0  0  0
 61136  1  0  0  0
 62137  1  0  0  0
 62138  1  0  0  0
 62139  1  0  0  0
 63 65  1  0  0  0
 63140  1  0  0  0
 63141  1  0  0  0
 63142  1  0  0  0
 64143  1  0  0  0
 65144  1  0  0  0
 68 79  1  0  0  0
 71 73  2  0  0  0
 71 74  1  0  0  0
 71145  1  0  0  0
 72 74  2  0  0  0
 72 75  1  0  0  0
 72146  1  0  0  0
 73 81  1  0  0  0
 73147  1  0  0  0
 74 77  1  0  0  0
 75 81  2  0  0  0
 75 82  1  0  0  0
 76 78  1  0  0  0
 76 82  1  0  0  0
 76 84  2  0  0  0
 77 83  1  0  0  0
 77148  1  0  0  0
 77149  1  0  0  0
 78 80  1  0  0  0
 78150  1  0  0  0
 78151  1  0  0  0
 79 80  1  0  0  0
 79152  1  0  0  0
 79153  1  0  0  0
 80 85  1  0  0  0
 80154  1  0  0  0
 82155  1  0  0  0
 83156  1  0  0  0
 85157  1  0  0  0
M  ISO  4   1 100  68 101  79 101  83 100
M  END
> <chiral flag>
0

> <version>
0

> <s_m_source_file>
/data/baiqing/PycharmProjects/Reinvent-master-3.2/result/LINK_invent/BTK/process_docking_weight1_custom_product_contain_oxygen_bond_distance_aromatic_linkinvent_7_9_3/rearranged_h_0190.sdf

> <i_m_source_file_index>
23

> <r_mmod_Potential_Energy-OPLS-2005>
-341.870178222656

> <r_mmod_Stretch_Energy-OPLS-2005>
36.9713859558105

> <r_mmod_Bend_Energy-OPLS-2005>
109.060157775879

> <r_mmod_Torsional_Energy-OPLS-2005>
226.008697509766

> <r_mmod_Improper_Torsional_Energy-OPLS-2005>
6.36488628387451

> <r_mmod_Van_der_Waal_Energy-OPLS-2005>
160.44709777832

> <r_mmod_Electrostatic_Energy-OPLS-2005>
-617.060791015625

> <r_mmod_Solvation_Energy-OPLS-2005>
-278.560150146484

> <b_mmod_Minimization_Converged-OPLS-2005>
0

> <r_mmod_RMS_Derivative-OPLS-2005>
3.47400259971619

$$$$
23
                    3D
 Structure written by MMmdl.
168176  0  0  1  0            999 V2000
  -30.6226  -14.5892   20.5134 C   0  0  0  0  0  0
  -30.4377  -12.3650   19.4289 C   0  0  0  0  0  0
  -29.5016  -12.4959   18.2088 C   0  0  0  0  0  0
  -28.0223  -12.3427   18.6205 C   0  0  0  0  0  0
  -27.6490  -13.2055   19.8534 C   0  0  2  0  0  0
  -28.6950  -13.0497   20.9793 C   0  0  0  0  0  0
  -25.2571  -13.8135   20.5653 C   0  0  0  0  0  0
  -24.1835  -13.0433   20.9201 C   0  0  0  0  0  0
  -24.6375  -11.6901   20.8747 C   0  0  0  0  0  0
  -23.9041  -10.4294   21.0426 C   0  0  0  0  0  0
  -24.3606   -9.4212   21.9195 C   0  0  0  0  0  0
  -23.6295   -8.2243   22.0763 C   0  0  0  0  0  0
  -22.4285   -8.0288   21.3546 C   0  0  0  0  0  0
  -21.9910   -9.0254   20.4653 C   0  0  0  0  0  0
  -22.7223  -10.2141   20.3066 C   0  0  0  0  0  0
  -21.6848   -6.0746   22.5271 C   0  0  0  0  0  0
  -21.4012   -6.5643   23.8210 C   0  0  0  0  0  0
  -21.3655   -5.6795   24.9167 C   0  0  0  0  0  0
  -21.6054   -4.3057   24.7216 C   0  0  0  0  0  0
  -21.8813   -3.8156   23.4328 C   0  0  0  0  0  0
  -21.9192   -4.6973   22.3393 C   0  0  0  0  0  0
  -22.7856  -13.5263   21.1859 C   0  0  0  0  0  0
  -22.1664   -4.2173   21.0964 F   0  0  0  0  0  0
  -21.5635   -3.4529   25.7715 F   0  0  0  0  0  0
  -30.0084  -13.3758   20.4061 N   0  0  0  0  0  0
  -26.2965  -12.9291   20.3263 N   0  0  0  0  0  0
  -25.9293  -11.6465   20.5731 N   0  0  0  0  0  0
  -22.0454  -12.8284   22.0401 N   0  0  0  0  0  0
  -25.4298  -15.1853   20.4042 N   0  0  0  0  0  0
  -31.8177  -14.7497   20.2460 O   0  0  0  0  0  0
  -21.6646   -6.8891   21.4244 O   0  0  0  0  0  0
  -22.3574  -14.5580   20.6704 O   0  0  0  0  0  0
  -24.6236  -31.8660   23.2083 C   0  0  0  0  0  0
  -25.9097  -32.4838   23.8412 C   0  0  1  0  0  0
  -27.2262  -27.3850   20.1135 C   0  0  0  0  0  0
  -25.5938  -33.8637   24.2360 N   0  0  0  0  0  0
  -23.4136  -30.4893   21.5494 C   0  0  2  0  0  0
  -24.8557  -28.9512   20.1110 C   0  0  0  0  0  0
  -22.7456  -29.4642   22.4965 C   0  0  0  0  0  0
  -18.0282  -28.1420   22.8521 C   0  0  0  0  0  0
  -24.1447  -36.7274   23.2642 C   0  0  0  0  0  0
  -25.9433  -30.8250   21.3553 C   0  0  0  0  0  0
  -26.0188  -29.4503   20.7106 C   0  0  0  0  0  0
  -27.2074  -28.6777   20.7043 C   0  0  0  0  0  0
  -26.0452  -26.9178   19.4951 C   0  0  0  0  0  0
  -24.8676  -27.6886   19.4932 C   0  0  0  0  0  0
  -23.6239  -29.8280   20.1597 C   0  0  0  0  0  0
  -25.4075  -36.3112   24.0363 C   0  0  1  0  0  0
  -20.5884  -28.3701   23.1317 C   0  0  2  0  0  0
  -20.6748  -26.9421   22.5436 C   0  0  0  0  0  0
  -19.5710  -26.6416   21.5236 C   0  0  0  0  0  0
  -18.1897  -26.7972   22.1649 C   0  0  0  0  0  0
  -19.1543  -28.8878   23.2918 C   0  0  0  0  0  0
  -18.9463  -30.1474   23.8939 C   0  0  0  0  0  0
  -17.6468  -30.6613   24.0592 C   0  0  0  0  0  0
  -25.9035  -34.9493   23.5144 C   0  0  0  0  0  0
  -16.5356  -29.9138   23.6325 C   0  0  0  0  0  0
  -16.7274  -28.6550   23.0360 C   0  0  0  0  0  0
  -26.4522  -31.6635   25.0748 C   0  0  0  0  0  0
  -25.3822  -31.3728   26.1515 C   0  0  0  0  0  0
  -27.0357  -30.3109   24.6077 C   0  0  0  0  0  0
  -27.6109  -32.4360   25.7500 C   0  0  0  0  0  0
  -27.5549  -37.1781   24.8485 C   0  0  0  0  0  0
  -21.4178  -29.3055   22.3714 N   0  0  0  0  0  0
  -26.4242  -37.3820   23.9462 N   0  0  0  0  0  0
  -24.6799  -31.0729   22.0983 N   0  0  0  0  0  0
  -23.4204  -28.8159   23.3005 O   0  0  0  0  0  0
  -28.3815  -26.6152   20.1131 O   0  0  0  0  0  0
  -26.5563  -34.8968   22.4689 O   0  0  0  0  0  0
  -23.5412  -32.1397   23.7466 O   0  0  0  0  0  0
  -29.8216  -16.8585   22.6222 C   0  0  0  0  0  0
  -29.5766  -19.2969   22.7072 C   0  0  0  0  0  0
  -29.6459  -18.0361   23.3601 C   0  0  0  0  0  0
  -29.8303  -16.9031   21.2237 C   0  0  0  0  0  0
  -29.5204  -19.2828   21.2745 C   0  0  0  0  0  0
  -30.4497  -20.6228   24.7914 C   0  0  0  0  0  0
  -30.9930  -22.0812   20.7904 C   0  0  0  0  0  0
  -28.1317  -18.0049   25.1393 C   0  0  0  0  0  0
  -29.5002  -20.5658   23.5778 C   0  0  0  0  0  0
  -28.8782  -22.7201   19.4343 C   0  0  0  0  0  0
  -28.2820  -25.1938   20.4398 C   0  0  0  0  0  0
  -29.4801  -21.8449   20.6011 C   0  0  1  0  0  0
  -29.0047  -24.3031   19.3813 C   0  0  1  0  0  0
  -29.6368  -18.1037   20.5896 N   0  0  0  0  0  0
  -29.7512  -15.6350   20.5558 N   0  0  0  0  0  0
  -29.2386  -20.3867   20.4106 N   0  0  0  0  0  0
  -30.3576  -24.7126   19.3429 O   0  0  0  0  0  0
  -29.4862  -17.8847   24.7114 O   0  0  0  0  0  0
  -31.4769  -12.5044   19.1245 H   0  0  0  0  0  0
  -30.3765  -11.3657   19.8607 H   0  0  0  0  0  0
  -29.7631  -11.7435   17.4649 H   0  0  0  0  0  0
  -29.6525  -13.4667   17.7328 H   0  0  0  0  0  0
  -27.8531  -11.2883   18.8421 H   0  0  0  0  0  0
  -27.3700  -12.5831   17.7795 H   0  0  0  0  0  0
  -27.6664  -14.2405   19.5145 H   0  0  0  0  0  0
  -28.6901  -12.0315   21.3718 H   0  0  0  0  0  0
  -28.4500  -13.6988   21.8212 H   0  0  0  0  0  0
  -25.2733   -9.5707   22.4784 H   0  0  0  0  0  0
  -24.0005   -7.4637   22.7481 H   0  0  0  0  0  0
  -21.0840   -8.8762   19.8958 H   0  0  0  0  0  0
  -22.3663  -10.9687   19.6190 H   0  0  0  0  0  0
  -21.1994   -7.6147   23.9721 H   0  0  0  0  0  0
  -21.1495   -6.0517   25.9079 H   0  0  0  0  0  0
  -22.0601   -2.7623   23.2802 H   0  0  0  0  0  0
  -22.4019  -11.9938   22.4799 H   0  0  0  0  0  0
  -21.1078  -13.1372   22.2583 H   0  0  0  0  0  0
  -24.6544  -15.8325   20.4981 H   0  0  0  0  0  0
  -26.2597  -15.6195   20.0227 H   0  0  0  0  0  0
  -26.7177  -32.5559   23.1195 H   0  0  0  0  0  0
  -25.0230  -33.9821   25.0598 H   0  0  0  0  0  0
  -22.7027  -31.3062   21.4110 H   0  0  0  0  0  0
  -23.3754  -35.9559   23.3329 H   0  0  0  0  0  0
  -24.3515  -36.8864   22.2040 H   0  0  0  0  0  0
  -23.7168  -37.6483   23.6635 H   0  0  0  0  0  0
  -26.0409  -31.5816   20.5744 H   0  0  0  0  0  0
  -26.8382  -30.9003   21.9622 H   0  0  0  0  0  0
  -28.1044  -29.0656   21.1692 H   0  0  0  0  0  0
  -26.0258  -25.9572   19.0011 H   0  0  0  0  0  0
  -23.9789  -27.3085   19.0085 H   0  0  0  0  0  0
  -23.7519  -30.6100   19.4085 H   0  0  0  0  0  0
  -22.7421  -29.2651   19.8497 H   0  0  0  0  0  0
  -25.1240  -36.1955   25.0858 H   0  0  0  0  0  0
  -21.0004  -28.3268   24.1427 H   0  0  0  0  0  0
  -20.5655  -26.2304   23.3641 H   0  0  0  0  0  0
  -21.6608  -26.7439   22.1207 H   0  0  0  0  0  0
  -19.6857  -25.6336   21.1252 H   0  0  0  0  0  0
  -19.6652  -27.3239   20.6778 H   0  0  0  0  0  0
  -17.4168  -26.6778   21.4041 H   0  0  0  0  0  0
  -18.0243  -26.0119   22.9034 H   0  0  0  0  0  0
  -19.7936  -30.7279   24.2323 H   0  0  0  0  0  0
  -17.5030  -31.6287   24.5198 H   0  0  0  0  0  0
  -15.5364  -30.3066   23.7622 H   0  0  0  0  0  0
  -15.8666  -28.0883   22.7061 H   0  0  0  0  0  0
  -24.5977  -30.7078   25.7890 H   0  0  0  0  0  0
  -24.9025  -32.2867   26.5024 H   0  0  0  0  0  0
  -25.8211  -30.8887   27.0245 H   0  0  0  0  0  0
  -26.2866  -29.6862   24.1189 H   0  0  0  0  0  0
  -27.4262  -29.7348   25.4475 H   0  0  0  0  0  0
  -27.8645  -30.4527   23.9139 H   0  0  0  0  0  0
  -27.2753  -33.3672   26.2086 H   0  0  0  0  0  0
  -28.3903  -32.6905   25.0307 H   0  0  0  0  0  0
  -28.0802  -31.8491   26.5405 H   0  0  0  0  0  0
  -28.2591  -38.0054   24.7525 H   0  0  0  0  0  0
  -28.1015  -36.2591   24.6295 H   0  0  0  0  0  0
  -27.2276  -37.1421   25.8894 H   0  0  0  0  0  0
  -20.9340  -29.8849   21.6995 H   0  0  0  0  0  0
  -26.0118  -38.2885   24.1553 H   0  0  0  0  0  0
  -29.8699  -15.9145   23.1470 H   0  0  0  0  0  0
  -30.4369  -21.6225   25.2257 H   0  0  0  0  0  0
  -31.4814  -20.4045   24.5105 H   0  0  0  0  0  0
  -30.1677  -19.9513   25.5998 H   0  0  0  0  0  0
  -31.5371  -21.9226   19.8581 H   0  0  0  0  0  0
  -31.4300  -21.4117   21.5320 H   0  0  0  0  0  0
  -31.2022  -23.0942   21.1293 H   0  0  0  0  0  0
  -27.9099  -19.0250   25.4554 H   0  0  0  0  0  0
  -27.9615  -17.3488   25.9935 H   0  0  0  0  0  0
  -27.4147  -17.7257   24.3625 H   0  0  0  0  0  0
  -28.4677  -20.7305   23.8867 H   0  0  0  0  0  0
  -29.7931  -21.4437   23.0334 H   0  0  0  0  0  0
  -27.8121  -22.4942   19.3713 H   0  0  0  0  0  0
  -29.2924  -22.3436   18.4991 H   0  0  0  0  0  0
  -28.7260  -25.0338   21.4239 H   0  0  0  0  0  0
  -27.2471  -24.8682   20.5392 H   0  0  0  0  0  0
  -28.9127  -22.1848   21.4627 H   0  0  0  0  0  0
  -28.5856  -24.5987   18.4179 H   0  0  0  0  0  0
  -28.8073  -15.3456   20.3722 H   0  0  0  0  0  0
  -29.1083  -20.1105   19.4446 H   0  0  0  0  0  0
  -30.3450  -25.6651   19.2893 H   0  0  0  0  0  0
  1 25  1  0  0  0
  1 30  2  0  0  0
  1 85  1  0  0  0
  2  3  1  0  0  0
  2 25  1  0  0  0
  2 89  1  0  0  0
  2 90  1  0  0  0
  3  4  1  0  0  0
  3 91  1  0  0  0
  3 92  1  0  0  0
  4  5  1  0  0  0
  4 93  1  0  0  0
  4 94  1  0  0  0
  5  6  1  0  0  0
  5 26  1  0  0  0
  5 95  1  0  0  0
  6 25  1  0  0  0
  6 96  1  0  0  0
  6 97  1  0  0  0
  7  8  2  0  0  0
  7 26  1  0  0  0
  7 29  1  0  0  0
  8  9  1  0  0  0
  8 22  1  0  0  0
  9 10  1  0  0  0
  9 27  2  0  0  0
 10 11  2  0  0  0
 10 15  1  0  0  0
 11 12  1  0  0  0
 11 98  1  0  0  0
 12 13  2  0  0  0
 12 99  1  0  0  0
 13 14  1  0  0  0
 13 31  1  0  0  0
 14 15  2  0  0  0
 14100  1  0  0  0
 15101  1  0  0  0
 16 17  2  0  0  0
 16 21  1  0  0  0
 16 31  1  0  0  0
 17 18  1  0  0  0
 17102  1  0  0  0
 18 19  2  0  0  0
 18103  1  0  0  0
 19 20  1  0  0  0
 19 24  1  0  0  0
 20 21  2  0  0  0
 20104  1  0  0  0
 21 23  1  0  0  0
 22 28  1  0  0  0
 22 32  2  0  0  0
 26 27  1  0  0  0
 28105  1  0  0  0
 28106  1  0  0  0
 29107  1  0  0  0
 29108  1  0  0  0
 33 34  1  0  0  0
 33 66  1  0  0  0
 33 70  2  0  0  0
 34 36  1  0  0  0
 34 59  1  0  0  0
 34109  1  0  0  0
 35 44  2  0  0  0
 35 45  1  0  0  0
 35 68  1  0  0  0
 36 56  1  0  0  0
 36110  1  0  0  0
 37 39  1  0  0  0
 37 47  1  0  0  0
 37 66  1  0  0  0
 37111  1  0  0  0
 38 43  2  0  0  0
 38 46  1  0  0  0
 38 47  1  0  0  0
 39 64  1  0  0  0
 39 67  2  0  0  0
 40 52  1  0  0  0
 40 53  2  0  0  0
 40 58  1  0  0  0
 41112  1  0  0  0
 41113  1  0  0  0
 41114  1  0  0  0
 41 48  1  0  0  0
 42 43  1  0  0  0
 42 66  1  0  0  0
 42115  1  0  0  0
 42116  1  0  0  0
 43 44  1  0  0  0
 44117  1  0  0  0
 45 46  2  0  0  0
 45118  1  0  0  0
 46119  1  0  0  0
 47120  1  0  0  0
 47121  1  0  0  0
 48 56  1  0  0  0
 48 65  1  0  0  0
 48122  1  0  0  0
 49 50  1  0  0  0
 49 53  1  0  0  0
 49 64  1  0  0  0
 49123  1  0  0  0
 50 51  1  0  0  0
 50124  1  0  0  0
 50125  1  0  0  0
 51 52  1  0  0  0
 51126  1  0  0  0
 51127  1  0  0  0
 52128  1  0  0  0
 52129  1  0  0  0
 53 54  1  0  0  0
 54 55  2  0  0  0
 54130  1  0  0  0
 55 57  1  0  0  0
 55131  1  0  0  0
 56 69  2  0  0  0
 57 58  2  0  0  0
 57132  1  0  0  0
 58133  1  0  0  0
 59 60  1  0  0  0
 59 61  1  0  0  0
 59 62  1  0  0  0
 60134  1  0  0  0
 60135  1  0  0  0
 60136  1  0  0  0
 61137  1  0  0  0
 61138  1  0  0  0
 61139  1  0  0  0
 62140  1  0  0  0
 62141  1  0  0  0
 62142  1  0  0  0
 63 65  1  0  0  0
 63143  1  0  0  0
 63144  1  0  0  0
 63145  1  0  0  0
 64146  1  0  0  0
 65147  1  0  0  0
 68 81  1  0  0  0
 71 73  2  0  0  0
 71 74  1  0  0  0
 71148  1  0  0  0
 72 73  1  0  0  0
 72 75  2  0  0  0
 72 79  1  0  0  0
 73 88  1  0  0  0
 74 84  2  0  0  0
 74 85  1  0  0  0
 75 84  1  0  0  0
 75 86  1  0  0  0
 76 79  1  0  0  0
 76149  1  0  0  0
 76150  1  0  0  0
 76151  1  0  0  0
 77152  1  0  0  0
 77153  1  0  0  0
 77154  1  0  0  0
 77 82  1  0  0  0
 78 88  1  0  0  0
 78155  1  0  0  0
 78156  1  0  0  0
 78157  1  0  0  0
 79158  1  0  0  0
 79159  1  0  0  0
 80 82  1  0  0  0
 80 83  1  0  0  0
 80160  1  0  0  0
 80161  1  0  0  0
 81 83  1  0  0  0
 81162  1  0  0  0
 81163  1  0  0  0
 82 86  1  0  0  0
 82164  1  0  0  0
 83 87  1  0  0  0
 83165  1  0  0  0
 85166  1  0  0  0
 86167  1  0  0  0
 87168  1  0  0  0
M  ISO  4   1 100  68 101  81 101  85 100
M  END
> <chiral flag>
0

> <version>
0

> <s_m_source_file>
/data/baiqing/PycharmProjects/Reinvent-master-3.2/result/LINK_invent/BTK/process_docking_weight1_custom_product_contain_oxygen_bond_distance_aromatic_linkinvent_7_9_3/rearranged_h_0190.sdf

> <i_m_source_file_index>
24

> <r_mmod_Potential_Energy-OPLS-2005>
-47.7258338928223

> <r_mmod_Stretch_Energy-OPLS-2005>
61.5559463500977

> <r_mmod_Bend_Energy-OPLS-2005>
171.109481811523

> <r_mmod_Torsional_Energy-OPLS-2005>
313.224945068359

> <r_mmod_Improper_Torsional_Energy-OPLS-2005>
15.0057487487793

> <r_mmod_Van_der_Waal_Energy-OPLS-2005>
156.243927001953

> <r_mmod_Electrostatic_Energy-OPLS-2005>
-553.092041015625

> <r_mmod_Solvation_Energy-OPLS-2005>
-244.240036010742

> <b_mmod_Minimization_Converged-OPLS-2005>
0

> <r_mmod_RMS_Derivative-OPLS-2005>
3.34135007858276

$$$$
24
                    3D
 Structure written by MMmdl.
154161  0  0  1  0            999 V2000
  -30.4149  -15.2045   20.3427 C   0  0  0  0  0  0
  -30.4483  -12.7498   19.5293 C   0  0  0  0  0  0
  -29.5420  -12.5495   18.2882 C   0  0  0  0  0  0
  -28.0841  -12.2904   18.7106 C   0  0  0  0  0  0
  -27.6158  -13.2676   19.8178 C   0  0  2  0  0  0
  -28.6451  -13.4089   20.9537 C   0  0  0  0  0  0
  -25.2423  -13.8243   20.5728 C   0  0  0  0  0  0
  -24.1762  -13.0437   20.9241 C   0  0  0  0  0  0
  -24.6416  -11.6930   20.8780 C   0  0  0  0  0  0
  -23.9114  -10.4289   21.0430 C   0  0  0  0  0  0
  -24.3657   -9.4202   21.9211 C   0  0  0  0  0  0
  -23.6312   -8.2250   22.0776 C   0  0  0  0  0  0
  -22.4297   -8.0298   21.3556 C   0  0  0  0  0  0
  -21.9943   -9.0280   20.4668 C   0  0  0  0  0  0
  -22.7289  -10.2144   20.3073 C   0  0  0  0  0  0
  -21.6860   -6.0753   22.5287 C   0  0  0  0  0  0
  -21.4009   -6.5652   23.8223 C   0  0  0  0  0  0
  -21.3645   -5.6798   24.9181 C   0  0  0  0  0  0
  -21.6041   -4.3061   24.7234 C   0  0  0  0  0  0
  -21.8816   -3.8158   23.4351 C   0  0  0  0  0  0
  -21.9192   -4.6979   22.3406 C   0  0  0  0  0  0
  -22.7783  -13.5202   21.1893 C   0  0  0  0  0  0
  -22.1659   -4.2171   21.0984 F   0  0  0  0  0  0
  -21.5626   -3.4541   25.7739 F   0  0  0  0  0  0
  -29.8933  -13.8864   20.3454 N   0  0  0  0  0  0
  -26.2834  -12.9501   20.3170 N   0  0  0  0  0  0
  -25.9344  -11.6617   20.5704 N   0  0  0  0  0  0
  -22.0437  -12.8195   22.0457 N   0  0  0  0  0  0
  -25.4087  -15.1979   20.4187 N   0  0  0  0  0  0
  -31.6488  -15.2166   20.2082 O   0  0  0  0  0  0
  -21.6638   -6.8907   21.4253 O   0  0  0  0  0  0
  -22.3461  -14.5505   20.6738 O   0  0  0  0  0  0
  -24.6583  -31.8260   23.1715 C   0  0  0  0  0  0
  -25.9282  -32.4592   23.8172 C   0  0  1  0  0  0
  -27.2047  -26.9508   20.1862 C   0  0  0  0  0  0
  -25.5980  -33.8418   24.2095 N   0  0  0  0  0  0
  -23.4721  -30.4429   21.5179 C   0  0  2  0  0  0
  -24.9224  -28.8358   20.1093 C   0  0  0  0  0  0
  -22.7655  -29.4467   22.4762 C   0  0  0  0  0  0
  -18.0320  -28.1424   22.8463 C   0  0  0  0  0  0
  -24.1481  -36.7186   23.2661 C   0  0  0  0  0  0
  -26.0420  -30.6427   21.3947 C   0  0  0  0  0  0
  -26.1067  -29.2355   20.7408 C   0  0  0  0  0  0
  -27.2456  -28.3155   20.7527 C   0  0  0  0  0  0
  -25.9922  -26.6975   19.5066 C   0  0  0  0  0  0
  -24.8912  -27.5855   19.4710 C   0  0  0  0  0  0
  -23.7099  -29.7615   20.1421 C   0  0  0  0  0  0
  -25.4120  -36.2967   24.0328 C   0  0  1  0  0  0
  -20.5946  -28.3737   23.1198 C   0  0  2  0  0  0
  -20.6809  -26.9433   22.5404 C   0  0  0  0  0  0
  -19.5786  -26.6390   21.5214 C   0  0  0  0  0  0
  -18.1952  -26.7965   22.1608 C   0  0  0  0  0  0
  -19.1590  -28.8901   23.2823 C   0  0  0  0  0  0
  -18.9518  -30.1504   23.8845 C   0  0  0  0  0  0
  -17.6517  -30.6613   24.0561 C   0  0  0  0  0  0
  -25.9093  -34.9365   23.5021 C   0  0  0  0  0  0
  -16.5401  -29.9113   23.6347 C   0  0  0  0  0  0
  -16.7309  -28.6541   23.0342 C   0  0  0  0  0  0
  -26.4550  -31.6523   25.0676 C   0  0  0  0  0  0
  -25.3680  -31.3772   26.1326 C   0  0  0  0  0  0
  -27.0463  -30.2902   24.6368 C   0  0  0  0  0  0
  -27.6064  -32.4306   25.7460 C   0  0  0  0  0  0
  -27.5554  -37.1750   24.8487 C   0  0  0  0  0  0
  -21.4325  -29.3052   22.3558 N   0  0  0  0  0  0
  -26.4253  -37.3715   23.9438 N   0  0  0  0  0  0
  -24.7463  -30.9961   22.0817 N   0  0  0  0  0  0
  -23.4235  -28.8017   23.2967 O   0  0  0  0  0  0
  -28.2139  -25.8634   20.2253 O   0  0  0  0  0  0
  -26.5717  -34.8908   22.4620 O   0  0  0  0  0  0
  -23.5660  -32.1215   23.6826 O   0  0  0  0  0  0
  -28.6948  -21.1322   20.6426 C   0  0  0  0  0  0
  -30.7706  -18.4541   21.7383 C   0  0  0  0  0  0
  -28.9430  -22.6487   18.5244 C   0  0  0  0  0  0
  -30.2915  -23.1362   20.5868 C   0  0  0  0  0  0
  -29.5511  -16.7096   20.1076 C   0  0  0  0  0  0
  -27.9377  -24.2520   20.3878 C   0  0  0  0  0  0
  -29.5407  -18.3433   20.8290 C   0  0  2  0  0  0
  -28.8930  -22.7703   20.0597 C   0  0  0  0  0  0
  -29.2883  -19.8600   20.1862 N   0  0  0  0  0  0
  -27.9746  -21.0430   21.6355 O   0  0  0  0  0  0
  -31.4726  -12.9466   19.2043 H   0  0  0  0  0  0
  -30.4979  -11.8357   20.1235 H   0  0  0  0  0  0
  -29.9087  -11.7195   17.6819 H   0  0  0  0  0  0
  -29.5885  -13.4380   17.6552 H   0  0  0  0  0  0
  -28.0302  -11.2684   19.0861 H   0  0  0  0  0  0
  -27.4191  -12.3337   17.8484 H   0  0  0  0  0  0
  -27.5421  -14.2393   19.3285 H   0  0  0  0  0  0
  -28.7878  -12.4642   21.4802 H   0  0  0  0  0  0
  -28.2984  -14.1321   21.6946 H   0  0  0  0  0  0
  -25.2804   -9.5659   22.4797 H   0  0  0  0  0  0
  -24.0010   -7.4629   22.7499 H   0  0  0  0  0  0
  -21.0879   -8.8821   19.8971 H   0  0  0  0  0  0
  -22.3781  -10.9694   19.6185 H   0  0  0  0  0  0
  -21.1996   -7.6169   23.9736 H   0  0  0  0  0  0
  -21.1461   -6.0532   25.9091 H   0  0  0  0  0  0
  -22.0606   -2.7630   23.2848 H   0  0  0  0  0  0
  -22.4019  -11.9816   22.4804 H   0  0  0  0  0  0
  -21.1062  -13.1232   22.2680 H   0  0  0  0  0  0
  -24.6449  -15.8524   20.5453 H   0  0  0  0  0  0
  -26.2594  -15.6425   20.1013 H   0  0  0  0  0  0
  -26.7329  -32.5132   23.0868 H   0  0  0  0  0  0
  -25.0103  -33.9510   25.0227 H   0  0  0  0  0  0
  -22.7843  -31.2738   21.3459 H   0  0  0  0  0  0
  -23.3778  -35.9487   23.3292 H   0  0  0  0  0  0
  -24.3532  -36.8828   22.2077 H   0  0  0  0  0  0
  -23.7218  -37.6367   23.6698 H   0  0  0  0  0  0
  -26.2184  -31.3851   20.6151 H   0  0  0  0  0  0
  -26.9077  -30.6968   22.0441 H   0  0  0  0  0  0
  -28.1423  -28.6209   21.2698 H   0  0  0  0  0  0
  -25.8623  -25.7476   19.0079 H   0  0  0  0  0  0
  -23.9918  -27.2752   18.9587 H   0  0  0  0  0  0
  -23.8700  -30.5315   19.3867 H   0  0  0  0  0  0
  -22.8188  -29.2201   19.8181 H   0  0  0  0  0  0
  -25.1313  -36.1746   25.0818 H   0  0  0  0  0  0
  -21.0045  -28.3327   24.1313 H   0  0  0  0  0  0
  -20.5691  -26.2359   23.3644 H   0  0  0  0  0  0
  -21.6668  -26.7442   22.1203 H   0  0  0  0  0  0
  -19.6959  -25.6294   21.1255 H   0  0  0  0  0  0
  -19.6712  -27.3201   20.6755 H   0  0  0  0  0  0
  -17.4233  -26.6705   21.4002 H   0  0  0  0  0  0
  -18.0312  -26.0144   22.9037 H   0  0  0  0  0  0
  -19.8009  -30.7326   24.2168 H   0  0  0  0  0  0
  -17.5089  -31.6273   24.5194 H   0  0  0  0  0  0
  -15.5407  -30.3005   23.7729 H   0  0  0  0  0  0
  -15.8699  -28.0873   22.7064 H   0  0  0  0  0  0
  -24.5948  -30.6997   25.7666 H   0  0  0  0  0  0
  -24.8775  -32.2968   26.4525 H   0  0  0  0  0  0
  -25.7932  -30.9136   27.0231 H   0  0  0  0  0  0
  -26.3132  -29.6553   24.1365 H   0  0  0  0  0  0
  -27.4051  -29.7248   25.4983 H   0  0  0  0  0  0
  -27.9018  -30.4132   23.9726 H   0  0  0  0  0  0
  -27.2690  -33.3708   26.1810 H   0  0  0  0  0  0
  -28.3988  -32.6662   25.0352 H   0  0  0  0  0  0
  -28.0566  -31.8542   26.5552 H   0  0  0  0  0  0
  -28.2578  -38.0039   24.7527 H   0  0  0  0  0  0
  -28.1041  -36.2576   24.6311 H   0  0  0  0  0  0
  -27.2255  -37.1369   25.8884 H   0  0  0  0  0  0
  -20.9568  -29.8790   21.6731 H   0  0  0  0  0  0
  -26.0092  -38.2754   24.1490 H   0  0  0  0  0  0
  -30.8663  -17.5724   22.3761 H   0  0  0  0  0  0
  -30.6994  -19.3207   22.3974 H   0  0  0  0  0  0
  -31.6877  -18.5453   21.1564 H   0  0  0  0  0  0
  -29.6302  -21.8702   18.1935 H   0  0  0  0  0  0
  -29.2614  -23.5824   18.0589 H   0  0  0  0  0  0
  -27.9607  -22.4024   18.1215 H   0  0  0  0  0  0
  -31.0190  -22.3471   20.3922 H   0  0  0  0  0  0
  -30.2577  -23.3028   21.6654 H   0  0  0  0  0  0
  -30.6747  -24.0493   20.1278 H   0  0  0  0  0  0
  -29.7602  -16.9038   19.0568 H   0  0  0  0  0  0
  -28.5048  -16.4035   20.0924 H   0  0  0  0  0  0
  -27.6565  -24.1603   21.4377 H   0  0  0  0  0  0
  -26.9951  -24.0814   19.8675 H   0  0  0  0  0  0
  -28.6967  -18.2749   21.5168 H   0  0  0  0  0  0
  -29.7994  -19.9914   19.3232 H   0  0  0  0  0  0
  1 25  1  0  0  0
  1 30  2  0  0  0
  1 75  1  0  0  0
  2  3  1  0  0  0
  2 25  1  0  0  0
  2 81  1  0  0  0
  2 82  1  0  0  0
  3  4  1  0  0  0
  3 83  1  0  0  0
  3 84  1  0  0  0
  4  5  1  0  0  0
  4 85  1  0  0  0
  4 86  1  0  0  0
  5  6  1  0  0  0
  5 26  1  0  0  0
  5 87  1  0  0  0
  6 25  1  0  0  0
  6 88  1  0  0  0
  6 89  1  0  0  0
  7  8  2  0  0  0
  7 26  1  0  0  0
  7 29  1  0  0  0
  8  9  1  0  0  0
  8 22  1  0  0  0
  9 10  1  0  0  0
  9 27  2  0  0  0
 10 11  2  0  0  0
 10 15  1  0  0  0
 11 12  1  0  0  0
 11 90  1  0  0  0
 12 13  2  0  0  0
 12 91  1  0  0  0
 13 14  1  0  0  0
 13 31  1  0  0  0
 14 15  2  0  0  0
 14 92  1  0  0  0
 15 93  1  0  0  0
 16 17  2  0  0  0
 16 21  1  0  0  0
 16 31  1  0  0  0
 17 18  1  0  0  0
 17 94  1  0  0  0
 18 19  2  0  0  0
 18 95  1  0  0  0
 19 20  1  0  0  0
 19 24  1  0  0  0
 20 21  2  0  0  0
 20 96  1  0  0  0
 21 23  1  0  0  0
 22 28  1  0  0  0
 22 32  2  0  0  0
 26 27  1  0  0  0
 28 97  1  0  0  0
 28 98  1  0  0  0
 29 99  1  0  0  0
 29100  1  0  0  0
 33 34  1  0  0  0
 33 66  1  0  0  0
 33 70  2  0  0  0
 34 36  1  0  0  0
 34 59  1  0  0  0
 34101  1  0  0  0
 35 44  2  0  0  0
 35 45  1  0  0  0
 35 68  1  0  0  0
 36 56  1  0  0  0
 36102  1  0  0  0
 37 39  1  0  0  0
 37 47  1  0  0  0
 37 66  1  0  0  0
 37103  1  0  0  0
 38 43  2  0  0  0
 38 46  1  0  0  0
 38 47  1  0  0  0
 39 64  1  0  0  0
 39 67  2  0  0  0
 40 52  1  0  0  0
 40 53  2  0  0  0
 40 58  1  0  0  0
 41104  1  0  0  0
 41105  1  0  0  0
 41106  1  0  0  0
 41 48  1  0  0  0
 42 43  1  0  0  0
 42 66  1  0  0  0
 42107  1  0  0  0
 42108  1  0  0  0
 43 44  1  0  0  0
 44109  1  0  0  0
 45 46  2  0  0  0
 45110  1  0  0  0
 46111  1  0  0  0
 47112  1  0  0  0
 47113  1  0  0  0
 48 56  1  0  0  0
 48 65  1  0  0  0
 48114  1  0  0  0
 49 50  1  0  0  0
 49 53  1  0  0  0
 49 64  1  0  0  0
 49115  1  0  0  0
 50 51  1  0  0  0
 50116  1  0  0  0
 50117  1  0  0  0
 51 52  1  0  0  0
 51118  1  0  0  0
 51119  1  0  0  0
 52120  1  0  0  0
 52121  1  0  0  0
 53 54  1  0  0  0
 54 55  2  0  0  0
 54122  1  0  0  0
 55 57  1  0  0  0
 55123  1  0  0  0
 56 69  2  0  0  0
 57 58  2  0  0  0
 57124  1  0  0  0
 58125  1  0  0  0
 59 60  1  0  0  0
 59 61  1  0  0  0
 59 62  1  0  0  0
 60126  1  0  0  0
 60127  1  0  0  0
 60128  1  0  0  0
 61129  1  0  0  0
 61130  1  0  0  0
 61131  1  0  0  0
 62132  1  0  0  0
 62133  1  0  0  0
 62134  1  0  0  0
 63 65  1  0  0  0
 63135  1  0  0  0
 63136  1  0  0  0
 63137  1  0  0  0
 64138  1  0  0  0
 65139  1  0  0  0
 68 76  1  0  0  0
 71 78  1  0  0  0
 71 79  1  0  0  0
 71 80  2  0  0  0
 72140  1  0  0  0
 72141  1  0  0  0
 72142  1  0  0  0
 72 77  1  0  0  0
 73143  1  0  0  0
 73144  1  0  0  0
 73145  1  0  0  0
 73 78  1  0  0  0
 74 78  1  0  0  0
 74146  1  0  0  0
 74147  1  0  0  0
 74148  1  0  0  0
 75 77  1  0  0  0
 75149  1  0  0  0
 75150  1  0  0  0
 76 78  1  0  0  0
 76151  1  0  0  0
 76152  1  0  0  0
 77 79  1  0  0  0
 77153  1  0  0  0
 79154  1  0  0  0
M  ISO  4   1 100  68 101  75 100  76 101
M  END
> <chiral flag>
0

> <version>
0

> <s_m_source_file>
/data/baiqing/PycharmProjects/Reinvent-master-3.2/result/LINK_invent/BTK/process_docking_weight1_custom_product_contain_oxygen_bond_distance_aromatic_linkinvent_7_9_3/rearranged_h_0190.sdf

> <i_m_source_file_index>
25

> <r_mmod_Potential_Energy-OPLS-2005>
1189.46887207031

> <r_mmod_Stretch_Energy-OPLS-2005>
572.558166503906

> <r_mmod_Bend_Energy-OPLS-2005>
428.343200683594

> <r_mmod_Torsional_Energy-OPLS-2005>
222.111328125

> <r_mmod_Improper_Torsional_Energy-OPLS-2005>
9.84895133972168

> <r_mmod_Van_der_Waal_Energy-OPLS-2005>
103.64656829834

> <r_mmod_Electrostatic_Energy-OPLS-2005>
-335.642761230469

> <r_mmod_Solvation_Energy-OPLS-2005>
-219.727722167969

> <b_mmod_Minimization_Converged-OPLS-2005>
0

> <r_mmod_RMS_Derivative-OPLS-2005>
3.69642496109009

$$$$
25
                    3D
 Structure written by MMmdl.
157165  0  0  1  0            999 V2000
  -30.6354  -14.6089   20.4550 C   0  0  0  0  0  0
  -30.4256  -12.3634   19.4547 C   0  0  0  0  0  0
  -29.5048  -12.5012   18.2222 C   0  0  0  0  0  0
  -28.0249  -12.3501   18.6301 C   0  0  0  0  0  0
  -27.6520  -13.2168   19.8625 C   0  0  2  0  0  0
  -28.6958  -13.0767   20.9949 C   0  0  0  0  0  0
  -25.2549  -13.8172   20.5672 C   0  0  0  0  0  0
  -24.1833  -13.0430   20.9200 C   0  0  0  0  0  0
  -24.6408  -11.6905   20.8752 C   0  0  0  0  0  0
  -23.9085  -10.4291   21.0410 C   0  0  0  0  0  0
  -24.3638   -9.4206   21.9183 C   0  0  0  0  0  0
  -23.6306   -8.2244   22.0753 C   0  0  0  0  0  0
  -22.4282   -8.0296   21.3543 C   0  0  0  0  0  0
  -21.9920   -9.0277   20.4647 C   0  0  0  0  0  0
  -22.7258  -10.2151   20.3053 C   0  0  0  0  0  0
  -21.6852   -6.0752   22.5283 C   0  0  0  0  0  0
  -21.4017   -6.5647   23.8222 C   0  0  0  0  0  0
  -21.3655   -5.6792   24.9176 C   0  0  0  0  0  0
  -21.6039   -4.3053   24.7221 C   0  0  0  0  0  0
  -21.8817   -3.8158   23.4339 C   0  0  0  0  0  0
  -21.9193   -4.6982   22.3400 C   0  0  0  0  0  0
  -22.7858  -13.5222   21.1859 C   0  0  0  0  0  0
  -22.1656   -4.2171   21.0976 F   0  0  0  0  0  0
  -21.5628   -3.4531   25.7731 F   0  0  0  0  0  0
  -30.0161  -13.3908   20.4314 N   0  0  0  0  0  0
  -26.2988  -12.9363   20.3321 N   0  0  0  0  0  0
  -25.9330  -11.6519   20.5773 N   0  0  0  0  0  0
  -22.0483  -12.8233   22.0419 N   0  0  0  0  0  0
  -25.4218  -15.1903   20.4087 N   0  0  0  0  0  0
  -31.8158  -14.7314   20.1201 O   0  0  0  0  0  0
  -21.6630   -6.8907   21.4248 O   0  0  0  0  0  0
  -22.3554  -14.5526   20.6701 O   0  0  0  0  0  0
  -24.6210  -31.8626   23.2033 C   0  0  0  0  0  0
  -25.9082  -32.4802   23.8337 C   0  0  1  0  0  0
  -27.2233  -27.3602   20.1290 C   0  0  0  0  0  0
  -25.5935  -33.8601   24.2288 N   0  0  0  0  0  0
  -23.4119  -30.4856   21.5440 C   0  0  2  0  0  0
  -24.8596  -28.9381   20.1167 C   0  0  0  0  0  0
  -22.7442  -29.4641   22.4941 C   0  0  0  0  0  0
  -18.0293  -28.1372   22.8517 C   0  0  0  0  0  0
  -24.1489  -36.7297   23.2633 C   0  0  0  0  0  0
  -25.9467  -30.8084   21.3648 C   0  0  0  0  0  0
  -26.0240  -29.4348   20.7185 C   0  0  0  0  0  0
  -27.2129  -28.6546   20.7186 C   0  0  0  0  0  0
  -26.0482  -26.9011   19.5041 C   0  0  0  0  0  0
  -24.8697  -27.6729   19.5036 C   0  0  0  0  0  0
  -23.6252  -29.8154   20.1602 C   0  0  0  0  0  0
  -25.4111  -36.3103   24.0339 C   0  0  1  0  0  0
  -20.5887  -28.3674   23.1310 C   0  0  2  0  0  0
  -20.6780  -26.9402   22.5417 C   0  0  0  0  0  0
  -19.5746  -26.6386   21.5218 C   0  0  0  0  0  0
  -18.1929  -26.7924   22.1633 C   0  0  0  0  0  0
  -19.1544  -28.8837   23.2918 C   0  0  0  0  0  0
  -18.9463  -30.1449   23.8912 C   0  0  0  0  0  0
  -17.6460  -30.6581   24.0569 C   0  0  0  0  0  0
  -25.9043  -34.9482   23.5104 C   0  0  0  0  0  0
  -16.5353  -29.9084   23.6333 C   0  0  0  0  0  0
  -16.7282  -28.6501   23.0363 C   0  0  0  0  0  0
  -26.4483  -31.6573   25.0682 C   0  0  0  0  0  0
  -25.3732  -31.3693   26.1415 C   0  0  0  0  0  0
  -27.0281  -30.3003   24.6053 C   0  0  0  0  0  0
  -27.6055  -32.4270   25.7493 C   0  0  0  0  0  0
  -27.5575  -37.1805   24.8472 C   0  0  0  0  0  0
  -21.4160  -29.3036   22.3697 N   0  0  0  0  0  0
  -26.4288  -37.3803   23.9421 N   0  0  0  0  0  0
  -24.6783  -31.0691   22.0945 N   0  0  0  0  0  0
  -23.4196  -28.8198   23.3015 O   0  0  0  0  0  0
  -28.3459  -26.5379   20.1187 O   0  0  0  0  0  0
  -26.5598  -34.8957   22.4662 O   0  0  0  0  0  0
  -23.5394  -32.1405   23.7400 O   0  0  0  0  0  0
  -28.6119  -19.2730   19.8200 C   0  0  0  0  0  0
  -29.7854  -20.6278   21.3183 C   0  0  0  0  0  0
  -28.7706  -20.5892   20.3962 C   0  0  0  0  0  0
  -29.5080  -18.3128   20.2666 C   0  0  0  0  0  0
  -27.7758  -23.0137   20.0901 C   0  0  0  0  0  0
  -30.7210  -16.9448   18.5212 C   0  0  0  0  0  0
  -27.3670  -25.4235   22.1932 C   0  0  0  0  0  0
  -28.8785  -23.9847   20.6027 C   0  0  0  0  0  0
  -29.6967  -16.8997   19.6732 C   0  0  2  0  0  0
  -28.4605  -25.4450   21.0990 C   0  0  1  0  0  0
  -27.8545  -21.6495   20.0295 N   0  0  0  0  0  0
  -29.8073  -15.6934   20.5715 N   0  0  0  0  0  0
  -26.7351  -23.5185   19.6717 O   0  0  0  0  0  0
  -30.5698  -19.0487   21.4536 S   0  0  0  0  0  0
  -31.4692  -12.4683   19.1552 H   0  0  0  0  0  0
  -30.3377  -11.3677   19.8932 H   0  0  0  0  0  0
  -29.7650  -11.7523   17.4716 H   0  0  0  0  0  0
  -29.6570  -13.4728   17.7496 H   0  0  0  0  0  0
  -27.8521  -11.2979   18.8554 H   0  0  0  0  0  0
  -27.3751  -12.5907   17.7875 H   0  0  0  0  0  0
  -27.6669  -14.2502   19.5197 H   0  0  0  0  0  0
  -28.6931  -12.0617   21.3965 H   0  0  0  0  0  0
  -28.4543  -13.7329   21.8321 H   0  0  0  0  0  0
  -25.2779   -9.5680   22.4759 H   0  0  0  0  0  0
  -24.0014   -7.4633   22.7459 H   0  0  0  0  0  0
  -21.0852   -8.8813   19.8953 H   0  0  0  0  0  0
  -22.3721  -10.9707   19.6173 H   0  0  0  0  0  0
  -21.2008   -7.6151   23.9739 H   0  0  0  0  0  0
  -21.1474   -6.0511   25.9087 H   0  0  0  0  0  0
  -22.0601   -2.7623   23.2826 H   0  0  0  0  0  0
  -22.4086  -11.9897   22.4823 H   0  0  0  0  0  0
  -21.1105  -13.1293   22.2593 H   0  0  0  0  0  0
  -24.6472  -15.8372   20.5156 H   0  0  0  0  0  0
  -26.2658  -15.6391   20.0782 H   0  0  0  0  0  0
  -26.7146  -32.5491   23.1091 H   0  0  0  0  0  0
  -25.0167  -33.9763   25.0486 H   0  0  0  0  0  0
  -22.7008  -31.3022   21.4015 H   0  0  0  0  0  0
  -23.3770  -35.9610   23.3303 H   0  0  0  0  0  0
  -24.3563  -36.8894   22.2039 H   0  0  0  0  0  0
  -23.7234  -37.6506   23.6629 H   0  0  0  0  0  0
  -26.0599  -31.5642   20.5857 H   0  0  0  0  0  0
  -26.8345  -30.8684   21.9829 H   0  0  0  0  0  0
  -28.1080  -29.0320   21.1931 H   0  0  0  0  0  0
  -26.0374  -25.9279   19.0337 H   0  0  0  0  0  0
  -23.9791  -27.2841   19.0313 H   0  0  0  0  0  0
  -23.7445  -30.5902   19.4017 H   0  0  0  0  0  0
  -22.7463  -29.2429   19.8581 H   0  0  0  0  0  0
  -25.1297  -36.1953   25.0835 H   0  0  0  0  0  0
  -20.9993  -28.3233   24.1426 H   0  0  0  0  0  0
  -20.5692  -26.2272   23.3606 H   0  0  0  0  0  0
  -21.6645  -26.7444   22.1184 H   0  0  0  0  0  0
  -19.6901  -25.6302   21.1225 H   0  0  0  0  0  0
  -19.6677  -27.3216   20.6758 H   0  0  0  0  0  0
  -17.4202  -26.6714   21.4031 H   0  0  0  0  0  0
  -18.0319  -26.0045   22.9006 H   0  0  0  0  0  0
  -19.7939  -30.7287   24.2260 H   0  0  0  0  0  0
  -17.5011  -31.6262   24.5168 H   0  0  0  0  0  0
  -15.5354  -30.2984   23.7635 H   0  0  0  0  0  0
  -15.8690  -28.0814   22.7057 H   0  0  0  0  0  0
  -24.5941  -30.7004   25.7744 H   0  0  0  0  0  0
  -24.8894  -32.2853   26.4810 H   0  0  0  0  0  0
  -25.8081  -30.8899   27.0193 H   0  0  0  0  0  0
  -26.2809  -29.6831   24.1049 H   0  0  0  0  0  0
  -27.3977  -29.7181   25.4499 H   0  0  0  0  0  0
  -27.8688  -30.4310   23.9241 H   0  0  0  0  0  0
  -27.2654  -33.3572   26.2069 H   0  0  0  0  0  0
  -28.3895  -32.6803   25.0342 H   0  0  0  0  0  0
  -28.0679  -31.8371   26.5418 H   0  0  0  0  0  0
  -28.2619  -38.0081   24.7528 H   0  0  0  0  0  0
  -28.1055  -36.2625   24.6299 H   0  0  0  0  0  0
  -27.2289  -37.1455   25.8872 H   0  0  0  0  0  0
  -20.9304  -29.8741   21.6912 H   0  0  0  0  0  0
  -26.0178  -38.2886   24.1418 H   0  0  0  0  0  0
  -27.8654  -19.0751   19.0638 H   0  0  0  0  0  0
  -30.1265  -21.4462   21.9393 H   0  0  0  0  0  0
  -30.7513  -16.0091   17.9628 H   0  0  0  0  0  0
  -31.7276  -17.1621   18.8796 H   0  0  0  0  0  0
  -30.4569  -17.7230   17.8036 H   0  0  0  0  0  0
  -27.5916  -24.6759   22.9542 H   0  0  0  0  0  0
  -26.3849  -25.1868   21.7847 H   0  0  0  0  0  0
  -27.2956  -26.3838   22.7046 H   0  0  0  0  0  0
  -29.6375  -24.0671   19.8253 H   0  0  0  0  0  0
  -29.3704  -23.4903   21.4382 H   0  0  0  0  0  0
  -28.7535  -16.6857   19.1662 H   0  0  0  0  0  0
  -29.3480  -25.7715   21.6417 H   0  0  0  0  0  0
  -27.0291  -21.2942   19.5686 H   0  0  0  0  0  0
  -28.9294  -15.4494   21.0044 H   0  0  0  0  0  0
  1 25  1  0  0  0
  1 30  2  0  0  0
  1 82  1  0  0  0
  2  3  1  0  0  0
  2 25  1  0  0  0
  2 85  1  0  0  0
  2 86  1  0  0  0
  3  4  1  0  0  0
  3 87  1  0  0  0
  3 88  1  0  0  0
  4  5  1  0  0  0
  4 89  1  0  0  0
  4 90  1  0  0  0
  5  6  1  0  0  0
  5 26  1  0  0  0
  5 91  1  0  0  0
  6 25  1  0  0  0
  6 92  1  0  0  0
  6 93  1  0  0  0
  7  8  2  0  0  0
  7 26  1  0  0  0
  7 29  1  0  0  0
  8  9  1  0  0  0
  8 22  1  0  0  0
  9 10  1  0  0  0
  9 27  2  0  0  0
 10 11  2  0  0  0
 10 15  1  0  0  0
 11 12  1  0  0  0
 11 94  1  0  0  0
 12 13  2  0  0  0
 12 95  1  0  0  0
 13 14  1  0  0  0
 13 31  1  0  0  0
 14 15  2  0  0  0
 14 96  1  0  0  0
 15 97  1  0  0  0
 16 17  2  0  0  0
 16 21  1  0  0  0
 16 31  1  0  0  0
 17 18  1  0  0  0
 17 98  1  0  0  0
 18 19  2  0  0  0
 18 99  1  0  0  0
 19 20  1  0  0  0
 19 24  1  0  0  0
 20 21  2  0  0  0
 20100  1  0  0  0
 21 23  1  0  0  0
 22 28  1  0  0  0
 22 32  2  0  0  0
 26 27  1  0  0  0
 28101  1  0  0  0
 28102  1  0  0  0
 29103  1  0  0  0
 29104  1  0  0  0
 33 34  1  0  0  0
 33 66  1  0  0  0
 33 70  2  0  0  0
 34 36  1  0  0  0
 34 59  1  0  0  0
 34105  1  0  0  0
 35 44  2  0  0  0
 35 45  1  0  0  0
 35 68  1  0  0  0
 36 56  1  0  0  0
 36106  1  0  0  0
 37 39  1  0  0  0
 37 47  1  0  0  0
 37 66  1  0  0  0
 37107  1  0  0  0
 38 43  2  0  0  0
 38 46  1  0  0  0
 38 47  1  0  0  0
 39 64  1  0  0  0
 39 67  2  0  0  0
 40 52  1  0  0  0
 40 53  2  0  0  0
 40 58  1  0  0  0
 41108  1  0  0  0
 41109  1  0  0  0
 41110  1  0  0  0
 41 48  1  0  0  0
 42 43  1  0  0  0
 42 66  1  0  0  0
 42111  1  0  0  0
 42112  1  0  0  0
 43 44  1  0  0  0
 44113  1  0  0  0
 45 46  2  0  0  0
 45114  1  0  0  0
 46115  1  0  0  0
 47116  1  0  0  0
 47117  1  0  0  0
 48 56  1  0  0  0
 48 65  1  0  0  0
 48118  1  0  0  0
 49 50  1  0  0  0
 49 53  1  0  0  0
 49 64  1  0  0  0
 49119  1  0  0  0
 50 51  1  0  0  0
 50120  1  0  0  0
 50121  1  0  0  0
 51 52  1  0  0  0
 51122  1  0  0  0
 51123  1  0  0  0
 52124  1  0  0  0
 52125  1  0  0  0
 53 54  1  0  0  0
 54 55  2  0  0  0
 54126  1  0  0  0
 55 57  1  0  0  0
 55127  1  0  0  0
 56 69  2  0  0  0
 57 58  2  0  0  0
 57128  1  0  0  0
 58129  1  0  0  0
 59 60  1  0  0  0
 59 61  1  0  0  0
 59 62  1  0  0  0
 60130  1  0  0  0
 60131  1  0  0  0
 60132  1  0  0  0
 61133  1  0  0  0
 61134  1  0  0  0
 61135  1  0  0  0
 62136  1  0  0  0
 62137  1  0  0  0
 62138  1  0  0  0
 63 65  1  0  0  0
 63139  1  0  0  0
 63140  1  0  0  0
 63141  1  0  0  0
 64142  1  0  0  0
 65143  1  0  0  0
 68 80  1  0  0  0
 71 73  1  0  0  0
 71 74  2  0  0  0
 71144  1  0  0  0
 72 73  2  0  0  0
 72 84  1  0  0  0
 72145  1  0  0  0
 73 81  1  0  0  0
 74 79  1  0  0  0
 74 84  1  0  0  0
 75 78  1  0  0  0
 75 81  1  0  0  0
 75 83  2  0  0  0
 76146  1  0  0  0
 76147  1  0  0  0
 76148  1  0  0  0
 76 79  1  0  0  0
 77149  1  0  0  0
 77150  1  0  0  0
 77151  1  0  0  0
 77 80  1  0  0  0
 78 80  1  0  0  0
 78152  1  0  0  0
 78153  1  0  0  0
 79 82  1  0  0  0
 79154  1  0  0  0
 80155  1  0  0  0
 81156  1  0  0  0
 82157  1  0  0  0
M  ISO  4   1 100  68 101  80 101  82 100
M  END
> <chiral flag>
0

> <version>
0

> <s_m_source_file>
/data/baiqing/PycharmProjects/Reinvent-master-3.2/result/LINK_invent/BTK/process_docking_weight1_custom_product_contain_oxygen_bond_distance_aromatic_linkinvent_7_9_3/rearranged_h_0190.sdf

> <i_m_source_file_index>
26

> <r_mmod_Potential_Energy-OPLS-2005>
26.1935768127441

> <r_mmod_Stretch_Energy-OPLS-2005>
64.4383773803711

> <r_mmod_Bend_Energy-OPLS-2005>
197.391479492188

> <r_mmod_Torsional_Energy-OPLS-2005>
245.350677490234

> <r_mmod_Improper_Torsional_Energy-OPLS-2005>
10.837306022644

> <r_mmod_Van_der_Waal_Energy-OPLS-2005>
113.492835998535

> <r_mmod_Electrostatic_Energy-OPLS-2005>
-411.034515380859

> <r_mmod_Solvation_Energy-OPLS-2005>
-231.313323974609

> <b_mmod_Minimization_Converged-OPLS-2005>
0

> <r_mmod_RMS_Derivative-OPLS-2005>
2.36681652069092

$$$$
26
                    3D
 Structure written by MMmdl.
163171  0  0  1  0            999 V2000
  -30.6786  -14.5758   20.5142 C   0  0  0  0  0  0
  -30.4253  -12.3544   19.4462 C   0  0  0  0  0  0
  -29.5016  -12.4960   18.2182 C   0  0  0  0  0  0
  -28.0253  -12.3420   18.6329 C   0  0  0  0  0  0
  -27.6538  -13.2144   19.8613 C   0  0  2  0  0  0
  -28.6990  -13.0746   20.9913 C   0  0  0  0  0  0
  -25.2577  -13.8177   20.5677 C   0  0  0  0  0  0
  -24.1844  -13.0439   20.9193 C   0  0  0  0  0  0
  -24.6408  -11.6908   20.8741 C   0  0  0  0  0  0
  -23.9074  -10.4291   21.0406 C   0  0  0  0  0  0
  -24.3622   -9.4206   21.9185 C   0  0  0  0  0  0
  -23.6297   -8.2243   22.0759 C   0  0  0  0  0  0
  -22.4280   -8.0282   21.3547 C   0  0  0  0  0  0
  -21.9915   -9.0255   20.4646 C   0  0  0  0  0  0
  -22.7246  -10.2133   20.3056 C   0  0  0  0  0  0
  -21.6855   -6.0736   22.5278 C   0  0  0  0  0  0
  -21.4014   -6.5639   23.8209 C   0  0  0  0  0  0
  -21.3662   -5.6796   24.9173 C   0  0  0  0  0  0
  -21.6045   -4.3057   24.7226 C   0  0  0  0  0  0
  -21.8819   -3.8146   23.4346 C   0  0  0  0  0  0
  -21.9192   -4.6964   22.3401 C   0  0  0  0  0  0
  -22.7860  -13.5228   21.1853 C   0  0  0  0  0  0
  -22.1661   -4.2149   21.0981 F   0  0  0  0  0  0
  -21.5632   -3.4544   25.7737 F   0  0  0  0  0  0
  -30.0199  -13.3823   20.4226 N   0  0  0  0  0  0
  -26.3002  -12.9350   20.3317 N   0  0  0  0  0  0
  -25.9335  -11.6505   20.5759 N   0  0  0  0  0  0
  -22.0505  -12.8212   22.0403 N   0  0  0  0  0  0
  -25.4281  -15.1896   20.4068 N   0  0  0  0  0  0
  -31.8510  -14.6885   20.1418 O   0  0  0  0  0  0
  -21.6642   -6.8879   21.4241 O   0  0  0  0  0  0
  -22.3542  -14.5537   20.6706 O   0  0  0  0  0  0
  -24.6191  -31.8629   23.2046 C   0  0  0  0  0  0
  -25.9070  -32.4789   23.8356 C   0  0  1  0  0  0
  -27.2263  -27.3821   20.1130 C   0  0  0  0  0  0
  -25.5912  -33.8588   24.2271 N   0  0  0  0  0  0
  -23.4100  -30.4843   21.5494 C   0  0  2  0  0  0
  -24.8559  -28.9486   20.1099 C   0  0  0  0  0  0
  -22.7442  -29.4601   22.4986 C   0  0  0  0  0  0
  -18.0266  -28.1376   22.8471 C   0  0  0  0  0  0
  -24.1500  -36.7315   23.2638 C   0  0  0  0  0  0
  -25.9436  -30.8135   21.3656 C   0  0  0  0  0  0
  -26.0204  -29.4473   20.7086 C   0  0  0  0  0  0
  -27.2101  -28.6749   20.6985 C   0  0  0  0  0  0
  -26.0480  -26.9197   19.4864 C   0  0  0  0  0  0
  -24.8694  -27.6887   19.4904 C   0  0  0  0  0  0
  -23.6196  -29.8184   20.1635 C   0  0  0  0  0  0
  -25.4118  -36.3096   24.0328 C   0  0  1  0  0  0
  -20.5866  -28.3648   23.1323 C   0  0  2  0  0  0
  -20.6768  -26.9390   22.5424 C   0  0  0  0  0  0
  -19.5758  -26.6375   21.5214 C   0  0  0  0  0  0
  -18.1927  -26.7922   22.1598 C   0  0  0  0  0  0
  -19.1523  -28.8821   23.2883 C   0  0  0  0  0  0
  -18.9454  -30.1431   23.8892 C   0  0  0  0  0  0
  -17.6454  -30.6580   24.0552 C   0  0  0  0  0  0
  -25.9045  -34.9459   23.5092 C   0  0  0  0  0  0
  -16.5343  -29.9073   23.6338 C   0  0  0  0  0  0
  -16.7256  -28.6500   23.0347 C   0  0  0  0  0  0
  -26.4490  -31.6593   25.0708 C   0  0  0  0  0  0
  -25.3737  -31.3725   26.1448 C   0  0  0  0  0  0
  -27.0337  -30.3031   24.6104 C   0  0  0  0  0  0
  -27.6045  -32.4334   25.7475 C   0  0  0  0  0  0
  -27.5585  -37.1793   24.8453 C   0  0  0  0  0  0
  -21.4159  -29.2999   22.3722 N   0  0  0  0  0  0
  -26.4298  -37.3787   23.9404 N   0  0  0  0  0  0
  -24.6769  -31.0680   22.0981 N   0  0  0  0  0  0
  -23.4177  -28.8137   23.3044 O   0  0  0  0  0  0
  -28.3597  -26.5809   20.1835 O   0  0  0  0  0  0
  -26.5620  -34.8920   22.4660 O   0  0  0  0  0  0
  -23.5364  -32.1421   23.7415 O   0  0  0  0  0  0
  -30.4178  -19.5714   20.5799 C   0  0  0  0  0  0
  -31.5880  -18.9262   20.9383 C   0  0  0  0  0  0
  -30.2521  -17.0650   20.7870 C   0  0  0  0  0  0
  -30.1775  -21.0129   20.2086 C   0  0  0  0  0  0
  -29.8861  -23.3889   22.9559 C   0  0  0  0  0  0
  -30.4051  -24.6920   25.1158 C   0  0  0  0  0  0
  -27.4430  -25.0766   21.8993 C   0  0  0  0  0  0
  -30.6294  -24.5682   23.5964 C   0  0  0  0  0  0
  -29.5918  -24.4461   20.5270 C   0  0  0  0  0  0
  -29.9977  -23.2020   21.4314 C   0  0  2  0  0  0
  -28.1939  -25.1716   20.5540 C   0  0  2  0  0  0
  -31.4757  -17.5335   21.0685 N   0  0  0  0  0  0
  -32.8333  -19.5193   21.1681 N   0  0  0  0  0  0
  -29.9120  -15.6595   20.8201 N   0  0  0  0  0  0
  -29.5400  -21.8298   21.0720 N   0  0  0  0  0  0
  -30.7066  -21.4696   19.1931 O   0  0  0  0  0  0
  -29.2390  -22.6054   23.6595 O   0  0  0  0  0  0
  -29.1134  -18.3902   20.4217 S   0  0  0  0  0  0
  -31.4703  -12.4498   19.1477 H   0  0  0  0  0  0
  -30.3323  -11.3596   19.8845 H   0  0  0  0  0  0
  -29.7572  -11.7491   17.4664 H   0  0  0  0  0  0
  -29.6545  -13.4683   17.7475 H   0  0  0  0  0  0
  -27.8585  -11.2897   18.8638 H   0  0  0  0  0  0
  -27.3701  -12.5753   17.7932 H   0  0  0  0  0  0
  -27.6721  -14.2479   19.5163 H   0  0  0  0  0  0
  -28.6956  -12.0621   21.3978 H   0  0  0  0  0  0
  -28.4577  -13.7314   21.8276 H   0  0  0  0  0  0
  -25.2769   -9.5681   22.4758 H   0  0  0  0  0  0
  -24.0007   -7.4633   22.7479 H   0  0  0  0  0  0
  -21.0848   -8.8769   19.8946 H   0  0  0  0  0  0
  -22.3706  -10.9672   19.6162 H   0  0  0  0  0  0
  -21.2002   -7.6146   23.9711 H   0  0  0  0  0  0
  -21.1487   -6.0526   25.9075 H   0  0  0  0  0  0
  -22.0595   -2.7610   23.2846 H   0  0  0  0  0  0
  -22.4120  -11.9866   22.4777 H   0  0  0  0  0  0
  -21.1122  -13.1226   22.2608 H   0  0  0  0  0  0
  -24.6560  -15.8400   20.5065 H   0  0  0  0  0  0
  -26.2659  -15.6257   20.0442 H   0  0  0  0  0  0
  -26.7123  -32.5486   23.1100 H   0  0  0  0  0  0
  -25.0088  -33.9753   25.0430 H   0  0  0  0  0  0
  -22.7019  -31.3021   21.4062 H   0  0  0  0  0  0
  -23.3757  -35.9656   23.3315 H   0  0  0  0  0  0
  -24.3588  -36.8945   22.2050 H   0  0  0  0  0  0
  -23.7269  -37.6522   23.6656 H   0  0  0  0  0  0
  -26.0659  -31.5789   20.5977 H   0  0  0  0  0  0
  -26.8272  -30.8622   21.9895 H   0  0  0  0  0  0
  -28.1063  -29.0489   21.1738 H   0  0  0  0  0  0
  -26.0248  -25.9548   19.0027 H   0  0  0  0  0  0
  -23.9773  -27.3007   19.0173 H   0  0  0  0  0  0
  -23.7302  -30.5946   19.4053 H   0  0  0  0  0  0
  -22.7423  -29.2407   19.8668 H   0  0  0  0  0  0
  -25.1302  -36.1956   25.0827 H   0  0  0  0  0  0
  -20.9920  -28.3205   24.1454 H   0  0  0  0  0  0
  -20.5705  -26.2235   23.3596 H   0  0  0  0  0  0
  -21.6633  -26.7458   22.1196 H   0  0  0  0  0  0
  -19.6953  -25.6293   21.1233 H   0  0  0  0  0  0
  -19.6742  -27.3185   20.6751 H   0  0  0  0  0  0
  -17.4217  -26.6671   21.3985 H   0  0  0  0  0  0
  -18.0306  -26.0072   22.8991 H   0  0  0  0  0  0
  -19.7930  -30.7241   24.2260 H   0  0  0  0  0  0
  -17.5015  -31.6262   24.5144 H   0  0  0  0  0  0
  -15.5336  -30.2966   23.7692 H   0  0  0  0  0  0
  -15.8655  -28.0817   22.7067 H   0  0  0  0  0  0
  -24.5892  -30.7104   25.7778 H   0  0  0  0  0  0
  -24.8950  -32.2898   26.4879 H   0  0  0  0  0  0
  -25.8068  -30.8887   27.0211 H   0  0  0  0  0  0
  -26.2884  -29.6766   24.1186 H   0  0  0  0  0  0
  -27.4159  -29.7293   25.4560 H   0  0  0  0  0  0
  -27.8697  -30.4370   23.9235 H   0  0  0  0  0  0
  -27.2649  -33.3631   26.2046 H   0  0  0  0  0  0
  -28.3847  -32.6910   25.0304 H   0  0  0  0  0  0
  -28.0720  -31.8479   26.5402 H   0  0  0  0  0  0
  -28.2579  -38.0109   24.7510 H   0  0  0  0  0  0
  -28.1106  -36.2633   24.6264 H   0  0  0  0  0  0
  -27.2296  -37.1442   25.8855 H   0  0  0  0  0  0
  -20.9327  -29.8732   21.6950 H   0  0  0  0  0  0
  -26.0197  -38.2869   24.1399 H   0  0  0  0  0  0
  -30.8715  -25.5975   25.5050 H   0  0  0  0  0  0
  -30.8344  -23.8432   25.6500 H   0  0  0  0  0  0
  -29.3433  -24.7383   25.3634 H   0  0  0  0  0  0
  -27.3043  -24.0391   22.2000 H   0  0  0  0  0  0
  -26.4410  -25.5003   21.8417 H   0  0  0  0  0  0
  -27.9699  -25.6032   22.6946 H   0  0  0  0  0  0
  -30.3073  -25.4858   23.1062 H   0  0  0  0  0  0
  -31.6947  -24.4609   23.3909 H   0  0  0  0  0  0
  -29.8235  -24.2062   19.4887 H   0  0  0  0  0  0
  -30.3183  -25.2221   20.7754 H   0  0  0  0  0  0
  -31.0772  -23.1528   21.2739 H   0  0  0  0  0  0
  -27.5822  -24.6691   19.8048 H   0  0  0  0  0  0
  -33.0040  -20.4701   20.8588 H   0  0  0  0  0  0
  -33.6672  -18.9456   21.2328 H   0  0  0  0  0  0
  -28.9355  -15.4577   20.9587 H   0  0  0  0  0  0
  -29.0919  -21.3665   21.8536 H   0  0  0  0  0  0
  1 25  1  0  0  0
  1 30  2  0  0  0
  1 84  1  0  0  0
  2  3  1  0  0  0
  2 25  1  0  0  0
  2 89  1  0  0  0
  2 90  1  0  0  0
  3  4  1  0  0  0
  3 91  1  0  0  0
  3 92  1  0  0  0
  4  5  1  0  0  0
  4 93  1  0  0  0
  4 94  1  0  0  0
  5  6  1  0  0  0
  5 26  1  0  0  0
  5 95  1  0  0  0
  6 25  1  0  0  0
  6 96  1  0  0  0
  6 97  1  0  0  0
  7  8  2  0  0  0
  7 26  1  0  0  0
  7 29  1  0  0  0
  8  9  1  0  0  0
  8 22  1  0  0  0
  9 10  1  0  0  0
  9 27  2  0  0  0
 10 11  2  0  0  0
 10 15  1  0  0  0
 11 12  1  0  0  0
 11 98  1  0  0  0
 12 13  2  0  0  0
 12 99  1  0  0  0
 13 14  1  0  0  0
 13 31  1  0  0  0
 14 15  2  0  0  0
 14100  1  0  0  0
 15101  1  0  0  0
 16 17  2  0  0  0
 16 21  1  0  0  0
 16 31  1  0  0  0
 17 18  1  0  0  0
 17102  1  0  0  0
 18 19  2  0  0  0
 18103  1  0  0  0
 19 20  1  0  0  0
 19 24  1  0  0  0
 20 21  2  0  0  0
 20104  1  0  0  0
 21 23  1  0  0  0
 22 28  1  0  0  0
 22 32  2  0  0  0
 26 27  1  0  0  0
 28105  1  0  0  0
 28106  1  0  0  0
 29107  1  0  0  0
 29108  1  0  0  0
 33 34  1  0  0  0
 33 66  1  0  0  0
 33 70  2  0  0  0
 34 36  1  0  0  0
 34 59  1  0  0  0
 34109  1  0  0  0
 35 44  2  0  0  0
 35 45  1  0  0  0
 35 68  1  0  0  0
 36 56  1  0  0  0
 36110  1  0  0  0
 37 39  1  0  0  0
 37 47  1  0  0  0
 37 66  1  0  0  0
 37111  1  0  0  0
 38 43  2  0  0  0
 38 46  1  0  0  0
 38 47  1  0  0  0
 39 64  1  0  0  0
 39 67  2  0  0  0
 40 52  1  0  0  0
 40 53  2  0  0  0
 40 58  1  0  0  0
 41112  1  0  0  0
 41113  1  0  0  0
 41114  1  0  0  0
 41 48  1  0  0  0
 42 43  1  0  0  0
 42 66  1  0  0  0
 42115  1  0  0  0
 42116  1  0  0  0
 43 44  1  0  0  0
 44117  1  0  0  0
 45 46  2  0  0  0
 45118  1  0  0  0
 46119  1  0  0  0
 47120  1  0  0  0
 47121  1  0  0  0
 48 56  1  0  0  0
 48 65  1  0  0  0
 48122  1  0  0  0
 49 50  1  0  0  0
 49 53  1  0  0  0
 49 64  1  0  0  0
 49123  1  0  0  0
 50 51  1  0  0  0
 50124  1  0  0  0
 50125  1  0  0  0
 51 52  1  0  0  0
 51126  1  0  0  0
 51127  1  0  0  0
 52128  1  0  0  0
 52129  1  0  0  0
 53 54  1  0  0  0
 54 55  2  0  0  0
 54130  1  0  0  0
 55 57  1  0  0  0
 55131  1  0  0  0
 56 69  2  0  0  0
 57 58  2  0  0  0
 57132  1  0  0  0
 58133  1  0  0  0
 59 60  1  0  0  0
 59 61  1  0  0  0
 59 62  1  0  0  0
 60134  1  0  0  0
 60135  1  0  0  0
 60136  1  0  0  0
 61137  1  0  0  0
 61138  1  0  0  0
 61139  1  0  0  0
 62140  1  0  0  0
 62141  1  0  0  0
 62142  1  0  0  0
 63 65  1  0  0  0
 63143  1  0  0  0
 63144  1  0  0  0
 63145  1  0  0  0
 64146  1  0  0  0
 65147  1  0  0  0
 68 81  1  0  0  0
 71 72  2  0  0  0
 71 74  1  0  0  0
 71 88  1  0  0  0
 72 82  1  0  0  0
 72 83  1  0  0  0
 73 82  2  0  0  0
 73 84  1  0  0  0
 73 88  1  0  0  0
 74 85  1  0  0  0
 74 86  2  0  0  0
 75 78  1  0  0  0
 75 80  1  0  0  0
 75 87  2  0  0  0
 76 78  1  0  0  0
 76148  1  0  0  0
 76149  1  0  0  0
 76150  1  0  0  0
 77151  1  0  0  0
 77152  1  0  0  0
 77153  1  0  0  0
 77 81  1  0  0  0
 78154  1  0  0  0
 78155  1  0  0  0
 79 81  1  0  0  0
 79156  1  0  0  0
 79157  1  0  0  0
 79 80  1  0  0  0
 80 85  1  0  0  0
 80158  1  0  0  0
 81159  1  0  0  0
 83160  1  0  0  0
 83161  1  0  0  0
 84162  1  0  0  0
 85163  1  0  0  0
M  ISO  4   1 100  68 101  81 101  84 100
M  END
> <chiral flag>
0

> <version>
0

> <s_m_source_file>
/data/baiqing/PycharmProjects/Reinvent-master-3.2/result/LINK_invent/BTK/process_docking_weight1_custom_product_contain_oxygen_bond_distance_aromatic_linkinvent_7_9_3/rearranged_h_0190.sdf

> <i_m_source_file_index>
27

> <r_mmod_Potential_Energy-OPLS-2005>
-108.726631164551

> <r_mmod_Stretch_Energy-OPLS-2005>
55.3949813842773

> <r_mmod_Bend_Energy-OPLS-2005>
151.820877075195

> <r_mmod_Torsional_Energy-OPLS-2005>
275.251556396484

> <r_mmod_Improper_Torsional_Energy-OPLS-2005>
12.298394203186

> <r_mmod_Van_der_Waal_Energy-OPLS-2005>
127.023002624512

> <r_mmod_Electrostatic_Energy-OPLS-2005>
-503.753021240234

> <r_mmod_Solvation_Energy-OPLS-2005>
-257.854644775391

> <b_mmod_Minimization_Converged-OPLS-2005>
0

> <r_mmod_RMS_Derivative-OPLS-2005>
2.20558834075928

$$$$
27
                    3D
 Structure written by MMmdl.
160168  0  0  1  0            999 V2000
  -30.6911  -14.4632   20.5490 C   0  0  0  0  0  0
  -30.4235  -12.2942   19.4224 C   0  0  0  0  0  0
  -29.4920  -12.4902   18.2072 C   0  0  0  0  0  0
  -28.0140  -12.3527   18.6242 C   0  0  0  0  0  0
  -27.6603  -13.2006   19.8757 C   0  0  2  0  0  0
  -28.7034  -12.9892   20.9967 C   0  0  0  0  0  0
  -25.2591  -13.8150   20.5681 C   0  0  0  0  0  0
  -24.1835  -13.0439   20.9181 C   0  0  0  0  0  0
  -24.6378  -11.6901   20.8746 C   0  0  0  0  0  0
  -23.9040  -10.4289   21.0409 C   0  0  0  0  0  0
  -24.3595   -9.4203   21.9186 C   0  0  0  0  0  0
  -23.6273   -8.2240   22.0760 C   0  0  0  0  0  0
  -22.4256   -8.0278   21.3547 C   0  0  0  0  0  0
  -21.9888   -9.0254   20.4653 C   0  0  0  0  0  0
  -22.7213  -10.2132   20.3061 C   0  0  0  0  0  0
  -21.6851   -6.0726   22.5276 C   0  0  0  0  0  0
  -21.4017   -6.5633   23.8207 C   0  0  0  0  0  0
  -21.3658   -5.6790   24.9174 C   0  0  0  0  0  0
  -21.6043   -4.3051   24.7226 C   0  0  0  0  0  0
  -21.8817   -3.8138   23.4347 C   0  0  0  0  0  0
  -21.9189   -4.6954   22.3403 C   0  0  0  0  0  0
  -22.7864  -13.5255   21.1851 C   0  0  0  0  0  0
  -22.1654   -4.2134   21.0981 F   0  0  0  0  0  0
  -21.5628   -3.4539   25.7739 F   0  0  0  0  0  0
  -30.0312  -13.2818   20.4359 N   0  0  0  0  0  0
  -26.3014  -12.9303   20.3385 N   0  0  0  0  0  0
  -25.9299  -11.6470   20.5780 N   0  0  0  0  0  0
  -22.0502  -12.8253   22.0408 N   0  0  0  0  0  0
  -25.4342  -15.1865   20.4068 N   0  0  0  0  0  0
  -31.8411  -14.6411   20.1432 O   0  0  0  0  0  0
  -21.6633   -6.8866   21.4236 O   0  0  0  0  0  0
  -22.3558  -14.5569   20.6704 O   0  0  0  0  0  0
  -24.6111  -31.8699   23.2120 C   0  0  0  0  0  0
  -25.9018  -32.4831   23.8405 C   0  0  1  0  0  0
  -27.2457  -27.4545   20.1103 C   0  0  0  0  0  0
  -25.5879  -33.8630   24.2338 N   0  0  0  0  0  0
  -23.3985  -30.4909   21.5515 C   0  0  2  0  0  0
  -24.8480  -28.9557   20.1198 C   0  0  0  0  0  0
  -22.7392  -29.4666   22.5017 C   0  0  0  0  0  0
  -18.0268  -28.1371   22.8506 C   0  0  0  0  0  0
  -24.1483  -36.7326   23.2640 C   0  0  0  0  0  0
  -25.9216  -30.8447   21.3585 C   0  0  0  0  0  0
  -26.0029  -29.4761   20.7169 C   0  0  0  0  0  0
  -27.2028  -28.7354   20.7120 C   0  0  0  0  0  0
  -26.0795  -26.9506   19.5003 C   0  0  0  0  0  0
  -24.8792  -27.6886   19.5104 C   0  0  0  0  0  0
  -23.6070  -29.8184   20.1673 C   0  0  0  0  0  0
  -25.4107  -36.3130   24.0342 C   0  0  1  0  0  0
  -20.5857  -28.3655   23.1338 C   0  0  2  0  0  0
  -20.6755  -26.9394   22.5428 C   0  0  0  0  0  0
  -19.5731  -26.6385   21.5223 C   0  0  0  0  0  0
  -18.1912  -26.7919   22.1636 C   0  0  0  0  0  0
  -19.1518  -28.8830   23.2918 C   0  0  0  0  0  0
  -18.9449  -30.1441   23.8920 C   0  0  0  0  0  0
  -17.6449  -30.6581   24.0577 C   0  0  0  0  0  0
  -25.9031  -34.9489   23.5142 C   0  0  0  0  0  0
  -16.5344  -29.9085   23.6328 C   0  0  0  0  0  0
  -16.7260  -28.6503   23.0352 C   0  0  0  0  0  0
  -26.4474  -31.6588   25.0709 C   0  0  0  0  0  0
  -25.3739  -31.3633   26.1446 C   0  0  0  0  0  0
  -27.0339  -30.3058   24.6035 C   0  0  0  0  0  0
  -27.6031  -32.4320   25.7482 C   0  0  0  0  0  0
  -27.5585  -37.1805   24.8461 C   0  0  0  0  0  0
  -21.4126  -29.3024   22.3747 N   0  0  0  0  0  0
  -26.4296  -37.3814   23.9411 N   0  0  0  0  0  0
  -24.6620  -31.0823   22.0996 N   0  0  0  0  0  0
  -23.4174  -28.8227   23.3065 O   0  0  0  0  0  0
  -28.3838  -26.6801   20.0427 O   0  0  0  0  0  0
  -26.5603  -34.8939   22.4708 O   0  0  0  0  0  0
  -23.5316  -32.1442   23.7526 O   0  0  0  0  0  0
  -28.0995  -18.1372   21.7872 C   0  0  0  0  0  0
  -29.3951  -17.6740   21.8386 C   0  0  0  0  0  0
  -29.1843  -20.1284   21.6312 C   0  0  0  0  0  0
  -28.9846  -25.6535   23.5764 C   0  0  0  0  0  0
  -27.9269  -22.5449   23.2895 C   0  0  0  0  0  0
  -29.8610  -16.2545   22.0219 C   0  0  0  0  0  0
  -29.3341  -23.9854   21.6516 C   0  0  0  0  0  0
  -29.1548  -26.5294   21.2369 C   0  0  0  0  0  0
  -28.6771  -25.3286   22.0973 C   0  0  2  0  0  0
  -28.5354  -22.6678   21.8832 C   0  0  1  0  0  0
  -27.9924  -19.5318   21.6775 N   0  0  0  0  0  0
  -29.3826  -21.5063   21.6139 N   0  0  0  0  0  0
  -29.9007  -15.5252   20.7595 N   0  0  0  0  0  0
  -30.5327  -18.9968   21.6874 S   0  0  0  0  0  0
  -31.4676  -12.3953   19.1202 H   0  0  0  0  0  0
  -30.3262  -11.2851   19.8266 H   0  0  0  0  0  0
  -29.7302  -11.7614   17.4312 H   0  0  0  0  0  0
  -29.6590  -13.4737   17.7655 H   0  0  0  0  0  0
  -27.8308  -11.2978   18.8319 H   0  0  0  0  0  0
  -27.3591  -12.6164   17.7931 H   0  0  0  0  0  0
  -27.7020  -14.2458   19.5712 H   0  0  0  0  0  0
  -28.6746  -11.9607   21.3604 H   0  0  0  0  0  0
  -28.4783  -13.6154   21.8606 H   0  0  0  0  0  0
  -25.2733   -9.5680   22.4770 H   0  0  0  0  0  0
  -23.9974   -7.4635   22.7485 H   0  0  0  0  0  0
  -21.0813   -8.8771   19.8968 H   0  0  0  0  0  0
  -22.3662  -10.9673   19.6178 H   0  0  0  0  0  0
  -21.2018   -7.6144   23.9702 H   0  0  0  0  0  0
  -21.1482   -6.0529   25.9074 H   0  0  0  0  0  0
  -22.0597   -2.7601   23.2855 H   0  0  0  0  0  0
  -22.4099  -11.9892   22.4774 H   0  0  0  0  0  0
  -21.1144  -13.1318   22.2641 H   0  0  0  0  0  0
  -24.6676  -15.8445   20.4929 H   0  0  0  0  0  0
  -26.2877  -15.6104   20.0663 H   0  0  0  0  0  0
  -26.7093  -32.5570   23.1181 H   0  0  0  0  0  0
  -25.0005  -33.9802   25.0462 H   0  0  0  0  0  0
  -22.6861  -31.3064   21.4109 H   0  0  0  0  0  0
  -23.3747  -35.9660   23.3324 H   0  0  0  0  0  0
  -24.3563  -36.8922   22.2051 H   0  0  0  0  0  0
  -23.7240  -37.6538   23.6641 H   0  0  0  0  0  0
  -26.0221  -31.6056   20.5832 H   0  0  0  0  0  0
  -26.8134  -30.9092   21.9692 H   0  0  0  0  0  0
  -28.0899  -29.1667   21.1521 H   0  0  0  0  0  0
  -26.1018  -25.9793   19.0260 H   0  0  0  0  0  0
  -23.9925  -27.2795   19.0460 H   0  0  0  0  0  0
  -23.7101  -30.5906   19.4043 H   0  0  0  0  0  0
  -22.7332  -29.2322   19.8773 H   0  0  0  0  0  0
  -25.1280  -36.2008   25.0837 H   0  0  0  0  0  0
  -20.9952  -28.3208   24.1457 H   0  0  0  0  0  0
  -20.5657  -26.2260   23.3611 H   0  0  0  0  0  0
  -21.6625  -26.7429   22.1219 H   0  0  0  0  0  0
  -19.6889  -25.6304   21.1229 H   0  0  0  0  0  0
  -19.6667  -27.3215   20.6770 H   0  0  0  0  0  0
  -17.4185  -26.6691   21.4034 H   0  0  0  0  0  0
  -18.0296  -26.0049   22.9016 H   0  0  0  0  0  0
  -19.7927  -30.7257   24.2289 H   0  0  0  0  0  0
  -17.5009  -31.6261   24.5178 H   0  0  0  0  0  0
  -15.5346  -30.3000   23.7637 H   0  0  0  0  0  0
  -15.8660  -28.0836   22.7047 H   0  0  0  0  0  0
  -24.5953  -30.6933   25.7777 H   0  0  0  0  0  0
  -24.8873  -32.2766   26.4882 H   0  0  0  0  0  0
  -25.8109  -30.8816   27.0200 H   0  0  0  0  0  0
  -26.2889  -29.6798   24.1109 H   0  0  0  0  0  0
  -27.4180  -29.7297   25.4469 H   0  0  0  0  0  0
  -27.8677  -30.4438   23.9145 H   0  0  0  0  0  0
  -28.0838  -31.8365   26.5250 H   0  0  0  0  0  0
  -27.2571  -33.3497   26.2246 H   0  0  0  0  0  0
  -28.3739  -32.7100   25.0276 H   0  0  0  0  0  0
  -28.2630  -38.0078   24.7513 H   0  0  0  0  0  0
  -28.1055  -36.2618   24.6287 H   0  0  0  0  0  0
  -27.2303  -37.1461   25.8865 H   0  0  0  0  0  0
  -20.9287  -29.8730   21.6959 H   0  0  0  0  0  0
  -26.0196  -38.2896   24.1416 H   0  0  0  0  0  0
  -27.1962  -17.5458   21.8502 H   0  0  0  0  0  0
  -28.6632  -24.8781   24.2660 H   0  0  0  0  0  0
  -28.4786  -26.5692   23.8848 H   0  0  0  0  0  0
  -30.0535  -25.8024   23.7354 H   0  0  0  0  0  0
  -27.2088  -23.3412   23.4835 H   0  0  0  0  0  0
  -28.6957  -22.5774   24.0618 H   0  0  0  0  0  0
  -27.3808  -21.6099   23.4121 H   0  0  0  0  0  0
  -29.1917  -15.7359   22.7102 H   0  0  0  0  0  0
  -30.8466  -16.2485   22.4922 H   0  0  0  0  0  0
  -30.3149  -23.9127   22.1253 H   0  0  0  0  0  0
  -29.5407  -24.0462   20.5806 H   0  0  0  0  0  0
  -30.1983  -26.3863   20.9555 H   0  0  0  0  0  0
  -29.1556  -27.4441   21.8281 H   0  0  0  0  0  0
  -27.5943  -25.2480   21.9881 H   0  0  0  0  0  0
  -27.7123  -22.6418   21.1666 H   0  0  0  0  0  0
  -30.3645  -21.7432   21.5079 H   0  0  0  0  0  0
  -30.0018  -16.1815   20.0004 H   0  0  0  0  0  0
  1 25  1  0  0  0
  1 30  2  0  0  0
  1 83  1  0  0  0
  2  3  1  0  0  0
  2 25  1  0  0  0
  2 85  1  0  0  0
  2 86  1  0  0  0
  3  4  1  0  0  0
  3 87  1  0  0  0
  3 88  1  0  0  0
  4  5  1  0  0  0
  4 89  1  0  0  0
  4 90  1  0  0  0
  5  6  1  0  0  0
  5 26  1  0  0  0
  5 91  1  0  0  0
  6 25  1  0  0  0
  6 92  1  0  0  0
  6 93  1  0  0  0
  7  8  2  0  0  0
  7 26  1  0  0  0
  7 29  1  0  0  0
  8  9  1  0  0  0
  8 22  1  0  0  0
  9 10  1  0  0  0
  9 27  2  0  0  0
 10 11  2  0  0  0
 10 15  1  0  0  0
 11 12  1  0  0  0
 11 94  1  0  0  0
 12 13  2  0  0  0
 12 95  1  0  0  0
 13 14  1  0  0  0
 13 31  1  0  0  0
 14 15  2  0  0  0
 14 96  1  0  0  0
 15 97  1  0  0  0
 16 17  2  0  0  0
 16 21  1  0  0  0
 16 31  1  0  0  0
 17 18  1  0  0  0
 17 98  1  0  0  0
 18 19  2  0  0  0
 18 99  1  0  0  0
 19 20  1  0  0  0
 19 24  1  0  0  0
 20 21  2  0  0  0
 20100  1  0  0  0
 21 23  1  0  0  0
 22 28  1  0  0  0
 22 32  2  0  0  0
 26 27  1  0  0  0
 28101  1  0  0  0
 28102  1  0  0  0
 29103  1  0  0  0
 29104  1  0  0  0
 33 34  1  0  0  0
 33 66  1  0  0  0
 33 70  2  0  0  0
 34 36  1  0  0  0
 34 59  1  0  0  0
 34105  1  0  0  0
 35 44  2  0  0  0
 35 45  1  0  0  0
 35 68  1  0  0  0
 36 56  1  0  0  0
 36106  1  0  0  0
 37 39  1  0  0  0
 37 47  1  0  0  0
 37 66  1  0  0  0
 37107  1  0  0  0
 38 43  2  0  0  0
 38 46  1  0  0  0
 38 47  1  0  0  0
 39 64  1  0  0  0
 39 67  2  0  0  0
 40 52  1  0  0  0
 40 53  2  0  0  0
 40 58  1  0  0  0
 41108  1  0  0  0
 41109  1  0  0  0
 41110  1  0  0  0
 41 48  1  0  0  0
 42 43  1  0  0  0
 42 66  1  0  0  0
 42111  1  0  0  0
 42112  1  0  0  0
 43 44  1  0  0  0
 44113  1  0  0  0
 45 46  2  0  0  0
 45114  1  0  0  0
 46115  1  0  0  0
 47116  1  0  0  0
 47117  1  0  0  0
 48 56  1  0  0  0
 48 65  1  0  0  0
 48118  1  0  0  0
 49 50  1  0  0  0
 49 53  1  0  0  0
 49 64  1  0  0  0
 49119  1  0  0  0
 50 51  1  0  0  0
 50120  1  0  0  0
 50121  1  0  0  0
 51 52  1  0  0  0
 51122  1  0  0  0
 51123  1  0  0  0
 52124  1  0  0  0
 52125  1  0  0  0
 53 54  1  0  0  0
 54 55  2  0  0  0
 54126  1  0  0  0
 55 57  1  0  0  0
 55127  1  0  0  0
 56 69  2  0  0  0
 57 58  2  0  0  0
 57128  1  0  0  0
 58129  1  0  0  0
 59 60  1  0  0  0
 59 61  1  0  0  0
 59 62  1  0  0  0
 60130  1  0  0  0
 60131  1  0  0  0
 60132  1  0  0  0
 61133  1  0  0  0
 61134  1  0  0  0
 61135  1  0  0  0
 62136  1  0  0  0
 62137  1  0  0  0
 62138  1  0  0  0
 63 65  1  0  0  0
 63139  1  0  0  0
 63140  1  0  0  0
 63141  1  0  0  0
 64142  1  0  0  0
 65143  1  0  0  0
 68 78  1  0  0  0
 71 72  2  0  0  0
 71 81  1  0  0  0
 71144  1  0  0  0
 72 76  1  0  0  0
 72 84  1  0  0  0
 73 81  2  0  0  0
 73 82  1  0  0  0
 73 84  1  0  0  0
 74145  1  0  0  0
 74146  1  0  0  0
 74147  1  0  0  0
 74 79  1  0  0  0
 75148  1  0  0  0
 75149  1  0  0  0
 75150  1  0  0  0
 75 80  1  0  0  0
 76 83  1  0  0  0
 76151  1  0  0  0
 76152  1  0  0  0
 77 79  1  0  0  0
 77 80  1  0  0  0
 77153  1  0  0  0
 77154  1  0  0  0
 78 79  1  0  0  0
 78155  1  0  0  0
 78156  1  0  0  0
 79157  1  0  0  0
 80 82  1  0  0  0
 80158  1  0  0  0
 82159  1  0  0  0
 83160  1  0  0  0
M  ISO  4   1 100  68 101  78 101  83 100
M  END
> <chiral flag>
0

> <version>
0

> <s_m_source_file>
/data/baiqing/PycharmProjects/Reinvent-master-3.2/result/LINK_invent/BTK/process_docking_weight1_custom_product_contain_oxygen_bond_distance_aromatic_linkinvent_7_9_3/rearranged_h_0190.sdf

> <i_m_source_file_index>
28

> <r_mmod_Potential_Energy-OPLS-2005>
-91.1529159545898

> <r_mmod_Stretch_Energy-OPLS-2005>
33.506404876709

> <r_mmod_Bend_Energy-OPLS-2005>
104.936492919922

> <r_mmod_Torsional_Energy-OPLS-2005>
282.585876464844

> <r_mmod_Improper_Torsional_Energy-OPLS-2005>
15.8047952651978

> <r_mmod_Van_der_Waal_Energy-OPLS-2005>
123.239883422852

> <r_mmod_Electrostatic_Energy-OPLS-2005>
-446.013641357422

> <r_mmod_Solvation_Energy-OPLS-2005>
-216.845840454102

> <b_mmod_Minimization_Converged-OPLS-2005>
0

> <r_mmod_RMS_Derivative-OPLS-2005>
1.52226626873016

$$$$
28
                    3D
 Structure written by MMmdl.
160168  0  0  1  0            999 V2000
  -30.6711  -14.5298   20.5458 C   0  0  0  0  0  0
  -30.4234  -12.3371   19.4250 C   0  0  0  0  0  0
  -29.4908  -12.4974   18.2064 C   0  0  0  0  0  0
  -28.0144  -12.3450   18.6255 C   0  0  0  0  0  0
  -27.6545  -13.2053   19.8662 C   0  0  2  0  0  0
  -28.6985  -13.0216   20.9884 C   0  0  0  0  0  0
  -25.2571  -13.8158   20.5682 C   0  0  0  0  0  0
  -24.1818  -13.0441   20.9184 C   0  0  0  0  0  0
  -24.6367  -11.6902   20.8738 C   0  0  0  0  0  0
  -23.9033  -10.4291   21.0408 C   0  0  0  0  0  0
  -24.3593   -9.4211   21.9184 C   0  0  0  0  0  0
  -23.6279   -8.2243   22.0754 C   0  0  0  0  0  0
  -22.4265   -8.0273   21.3544 C   0  0  0  0  0  0
  -21.9894   -9.0239   20.4645 C   0  0  0  0  0  0
  -22.7211  -10.2125   20.3054 C   0  0  0  0  0  0
  -21.6854   -6.0728   22.5273 C   0  0  0  0  0  0
  -21.4013   -6.5633   23.8204 C   0  0  0  0  0  0
  -21.3662   -5.6793   24.9171 C   0  0  0  0  0  0
  -21.6043   -4.3054   24.7227 C   0  0  0  0  0  0
  -21.8823   -3.8142   23.4350 C   0  0  0  0  0  0
  -21.9189   -4.6954   22.3402 C   0  0  0  0  0  0
  -22.7845  -13.5239   21.1852 C   0  0  0  0  0  0
  -22.1662   -4.2135   21.0982 F   0  0  0  0  0  0
  -21.5631   -3.4543   25.7746 F   0  0  0  0  0  0
  -30.0177  -13.3398   20.4224 N   0  0  0  0  0  0
  -26.2992  -12.9312   20.3353 N   0  0  0  0  0  0
  -25.9291  -11.6479   20.5767 N   0  0  0  0  0  0
  -22.0502  -12.8221   22.0415 N   0  0  0  0  0  0
  -25.4327  -15.1871   20.4081 N   0  0  0  0  0  0
  -31.8234  -14.6953   20.1355 O   0  0  0  0  0  0
  -21.6644   -6.8864   21.4233 O   0  0  0  0  0  0
  -22.3539  -14.5561   20.6722 O   0  0  0  0  0  0
  -24.6193  -31.8659   23.2060 C   0  0  0  0  0  0
  -25.9074  -32.4799   23.8379 C   0  0  1  0  0  0
  -27.2299  -27.3910   20.0806 C   0  0  0  0  0  0
  -25.5916  -33.8601   24.2287 N   0  0  0  0  0  0
  -23.4075  -30.4911   21.5478 C   0  0  2  0  0  0
  -24.8522  -28.9530   20.1119 C   0  0  0  0  0  0
  -22.7440  -29.4656   22.4957 C   0  0  0  0  0  0
  -18.0291  -28.1362   22.8487 C   0  0  0  0  0  0
  -24.1500  -36.7294   23.2641 C   0  0  0  0  0  0
  -25.9441  -30.8157   21.3668 C   0  0  0  0  0  0
  -26.0163  -29.4491   20.7070 C   0  0  0  0  0  0
  -27.2064  -28.6753   20.6884 C   0  0  0  0  0  0
  -26.0343  -26.9177   19.5077 C   0  0  0  0  0  0
  -24.8569  -27.6850   19.5105 C   0  0  0  0  0  0
  -23.6147  -29.8214   20.1629 C   0  0  0  0  0  0
  -25.4125  -36.3080   24.0317 C   0  0  1  0  0  0
  -20.5889  -28.3677   23.1267 C   0  0  2  0  0  0
  -20.6771  -26.9406   22.5381 C   0  0  0  0  0  0
  -19.5747  -26.6368   21.5186 C   0  0  0  0  0  0
  -18.1932  -26.7912   22.1600 C   0  0  0  0  0  0
  -19.1546  -28.8836   23.2878 C   0  0  0  0  0  0
  -18.9474  -30.1443   23.8899 C   0  0  0  0  0  0
  -17.6477  -30.6577   24.0558 C   0  0  0  0  0  0
  -25.9054  -34.9452   23.5092 C   0  0  0  0  0  0
  -16.5373  -29.9063   23.6338 C   0  0  0  0  0  0
  -16.7281  -28.6476   23.0363 C   0  0  0  0  0  0
  -26.4488  -31.6623   25.0749 C   0  0  0  0  0  0
  -25.3703  -31.3750   26.1458 C   0  0  0  0  0  0
  -27.0374  -30.3067   24.6184 C   0  0  0  0  0  0
  -27.6061  -32.4388   25.7471 C   0  0  0  0  0  0
  -27.5580  -37.1787   24.8468 C   0  0  0  0  0  0
  -21.4171  -29.3042   22.3686 N   0  0  0  0  0  0
  -26.4302  -37.3768   23.9400 N   0  0  0  0  0  0
  -24.6757  -31.0719   22.0986 N   0  0  0  0  0  0
  -23.4209  -28.8191   23.2997 O   0  0  0  0  0  0
  -28.3947  -26.6341   20.1278 O   0  0  0  0  0  0
  -26.5617  -34.8906   22.4655 O   0  0  0  0  0  0
  -23.5375  -32.1456   23.7413 O   0  0  0  0  0  0
  -30.2911  -18.5427   19.4509 C   0  0  0  0  0  0
  -29.8519  -19.8741   19.1393 C   0  0  0  0  0  0
  -29.9581  -18.1271   20.7151 C   0  0  0  0  0  0
  -29.1502  -20.5026   20.1468 C   0  0  0  0  0  0
  -28.9737  -22.8667   19.4817 C   0  0  0  0  0  0
  -25.7323  -22.9963   18.6874 C   0  0  0  0  0  0
  -28.9027  -26.0365   17.8006 C   0  0  0  0  0  0
  -30.4372  -16.8850   21.4590 C   0  0  0  0  0  0
  -26.9876  -23.7659   18.2434 C   0  0  0  0  0  0
  -27.9927  -24.0940   19.3971 C   0  0  2  0  0  0
  -28.7056  -25.5175   19.2394 C   0  0  2  0  0  0
  -28.5846  -21.7567   20.1633 N   0  0  0  0  0  0
  -29.9388  -15.5602   21.0275 N   0  0  0  0  0  0
  -30.0658  -22.9224   18.9077 O   0  0  0  0  0  0
  -29.0008  -19.3819   21.4990 S   0  0  0  0  0  0
  -31.4665  -12.4446   19.1242 H   0  0  0  0  0  0
  -30.3359  -11.3351   19.8473 H   0  0  0  0  0  0
  -29.7395  -11.7598   17.4414 H   0  0  0  0  0  0
  -29.6415  -13.4769   17.7488 H   0  0  0  0  0  0
  -27.8422  -11.2900   18.8472 H   0  0  0  0  0  0
  -27.3560  -12.5913   17.7911 H   0  0  0  0  0  0
  -27.6874  -14.2465   19.5437 H   0  0  0  0  0  0
  -28.6932  -11.9940   21.3547 H   0  0  0  0  0  0
  -28.4575  -13.6397   21.8536 H   0  0  0  0  0  0
  -25.2739   -9.5697   22.4755 H   0  0  0  0  0  0
  -23.9994   -7.4643   22.7472 H   0  0  0  0  0  0
  -21.0834   -8.8746   19.8952 H   0  0  0  0  0  0
  -22.3663  -10.9658   19.6163 H   0  0  0  0  0  0
  -21.2009   -7.6141   23.9698 H   0  0  0  0  0  0
  -21.1484   -6.0530   25.9070 H   0  0  0  0  0  0
  -22.0600   -2.7600   23.2860 H   0  0  0  0  0  0
  -22.4134  -11.9861   22.4751 H   0  0  0  0  0  0
  -21.1126  -13.1237   22.2652 H   0  0  0  0  0  0
  -24.6704  -15.8474   20.5143 H   0  0  0  0  0  0
  -26.2861  -15.6203   20.0775 H   0  0  0  0  0  0
  -26.7138  -32.5495   23.1132 H   0  0  0  0  0  0
  -25.0157  -33.9801   25.0486 H   0  0  0  0  0  0
  -22.6990  -31.3097   21.4075 H   0  0  0  0  0  0
  -23.3759  -35.9631   23.3329 H   0  0  0  0  0  0
  -24.3620  -36.8911   22.2061 H   0  0  0  0  0  0
  -23.7241  -37.6485   23.6675 H   0  0  0  0  0  0
  -26.0720  -31.5810   20.6006 H   0  0  0  0  0  0
  -26.8261  -30.8612   21.9928 H   0  0  0  0  0  0
  -28.1073  -29.0573   21.1485 H   0  0  0  0  0  0
  -25.9720  -25.9366   19.0922 H   0  0  0  0  0  0
  -23.9561  -27.2870   19.0661 H   0  0  0  0  0  0
  -23.7136  -30.5937   19.4002 H   0  0  0  0  0  0
  -22.7407  -29.2342   19.8758 H   0  0  0  0  0  0
  -25.1294  -36.1942   25.0804 H   0  0  0  0  0  0
  -21.0001  -28.3241   24.1368 H   0  0  0  0  0  0
  -20.5648  -26.2303   23.3582 H   0  0  0  0  0  0
  -21.6644  -26.7405   22.1186 H   0  0  0  0  0  0
  -19.6916  -25.6259   21.1245 H   0  0  0  0  0  0
  -19.6672  -27.3154   20.6697 H   0  0  0  0  0  0
  -17.4183  -26.6686   21.4002 H   0  0  0  0  0  0
  -18.0346  -26.0025   22.8976 H   0  0  0  0  0  0
  -19.7958  -30.7271   24.2248 H   0  0  0  0  0  0
  -17.5030  -31.6258   24.5146 H   0  0  0  0  0  0
  -15.5370  -30.2956   23.7664 H   0  0  0  0  0  0
  -15.8692  -28.0792   22.7072 H   0  0  0  0  0  0
  -24.5875  -30.7112   25.7760 H   0  0  0  0  0  0
  -24.8883  -32.2915   26.4872 H   0  0  0  0  0  0
  -25.7978  -30.8911   27.0245 H   0  0  0  0  0  0
  -26.2954  -29.6772   24.1252 H   0  0  0  0  0  0
  -27.4167  -29.7381   25.4685 H   0  0  0  0  0  0
  -27.8767  -30.4421   23.9358 H   0  0  0  0  0  0
  -27.2696  -33.3721   26.1997 H   0  0  0  0  0  0
  -28.3839  -32.6906   25.0247 H   0  0  0  0  0  0
  -28.0767  -31.8560   26.5402 H   0  0  0  0  0  0
  -28.2575  -38.0106   24.7538 H   0  0  0  0  0  0
  -28.1086  -36.2625   24.6265 H   0  0  0  0  0  0
  -27.2317  -37.1423   25.8879 H   0  0  0  0  0  0
  -20.9343  -29.8806   21.6940 H   0  0  0  0  0  0
  -26.0188  -38.2840   24.1404 H   0  0  0  0  0  0
  -30.8829  -17.9647   18.7544 H   0  0  0  0  0  0
  -30.0800  -20.3236   18.1839 H   0  0  0  0  0  0
  -25.1047  -22.7639   17.8260 H   0  0  0  0  0  0
  -25.1274  -23.5796   19.3831 H   0  0  0  0  0  0
  -25.9787  -22.0520   19.1721 H   0  0  0  0  0  0
  -29.2351  -25.2420   17.1316 H   0  0  0  0  0  0
  -29.6640  -26.8179   17.7753 H   0  0  0  0  0  0
  -27.9917  -26.4654   17.3862 H   0  0  0  0  0  0
  -30.1744  -16.9853   22.5128 H   0  0  0  0  0  0
  -31.5287  -16.8808   21.4465 H   0  0  0  0  0  0
  -26.6670  -24.6499   17.7013 H   0  0  0  0  0  0
  -27.4891  -23.1847   17.4673 H   0  0  0  0  0  0
  -27.4493  -24.1272   20.3422 H   0  0  0  0  0  0
  -29.7283  -25.3370   19.5720 H   0  0  0  0  0  0
  -27.7459  -21.8561   20.7200 H   0  0  0  0  0  0
  -28.9867  -15.3398   21.2770 H   0  0  0  0  0  0
  1 25  1  0  0  0
  1 30  2  0  0  0
  1 83  1  0  0  0
  2  3  1  0  0  0
  2 25  1  0  0  0
  2 86  1  0  0  0
  2 87  1  0  0  0
  3  4  1  0  0  0
  3 88  1  0  0  0
  3 89  1  0  0  0
  4  5  1  0  0  0
  4 90  1  0  0  0
  4 91  1  0  0  0
  5  6  1  0  0  0
  5 26  1  0  0  0
  5 92  1  0  0  0
  6 25  1  0  0  0
  6 93  1  0  0  0
  6 94  1  0  0  0
  7  8  2  0  0  0
  7 26  1  0  0  0
  7 29  1  0  0  0
  8  9  1  0  0  0
  8 22  1  0  0  0
  9 10  1  0  0  0
  9 27  2  0  0  0
 10 11  2  0  0  0
 10 15  1  0  0  0
 11 12  1  0  0  0
 11 95  1  0  0  0
 12 13  2  0  0  0
 12 96  1  0  0  0
 13 14  1  0  0  0
 13 31  1  0  0  0
 14 15  2  0  0  0
 14 97  1  0  0  0
 15 98  1  0  0  0
 16 17  2  0  0  0
 16 21  1  0  0  0
 16 31  1  0  0  0
 17 18  1  0  0  0
 17 99  1  0  0  0
 18 19  2  0  0  0
 18100  1  0  0  0
 19 20  1  0  0  0
 19 24  1  0  0  0
 20 21  2  0  0  0
 20101  1  0  0  0
 21 23  1  0  0  0
 22 28  1  0  0  0
 22 32  2  0  0  0
 26 27  1  0  0  0
 28102  1  0  0  0
 28103  1  0  0  0
 29104  1  0  0  0
 29105  1  0  0  0
 33 34  1  0  0  0
 33 66  1  0  0  0
 33 70  2  0  0  0
 34 36  1  0  0  0
 34 59  1  0  0  0
 34106  1  0  0  0
 35 44  2  0  0  0
 35 45  1  0  0  0
 35 68  1  0  0  0
 36 56  1  0  0  0
 36107  1  0  0  0
 37 39  1  0  0  0
 37 47  1  0  0  0
 37 66  1  0  0  0
 37108  1  0  0  0
 38 43  2  0  0  0
 38 46  1  0  0  0
 38 47  1  0  0  0
 39 64  1  0  0  0
 39 67  2  0  0  0
 40 52  1  0  0  0
 40 53  2  0  0  0
 40 58  1  0  0  0
 41109  1  0  0  0
 41110  1  0  0  0
 41111  1  0  0  0
 41 48  1  0  0  0
 42 43  1  0  0  0
 42 66  1  0  0  0
 42112  1  0  0  0
 42113  1  0  0  0
 43 44  1  0  0  0
 44114  1  0  0  0
 45 46  2  0  0  0
 45115  1  0  0  0
 46116  1  0  0  0
 47117  1  0  0  0
 47118  1  0  0  0
 48 56  1  0  0  0
 48 65  1  0  0  0
 48119  1  0  0  0
 49 50  1  0  0  0
 49 53  1  0  0  0
 49 64  1  0  0  0
 49120  1  0  0  0
 50 51  1  0  0  0
 50121  1  0  0  0
 50122  1  0  0  0
 51 52  1  0  0  0
 51123  1  0  0  0
 51124  1  0  0  0
 52125  1  0  0  0
 52126  1  0  0  0
 53 54  1  0  0  0
 54 55  2  0  0  0
 54127  1  0  0  0
 55 57  1  0  0  0
 55128  1  0  0  0
 56 69  2  0  0  0
 57 58  2  0  0  0
 57129  1  0  0  0
 58130  1  0  0  0
 59 60  1  0  0  0
 59 61  1  0  0  0
 59 62  1  0  0  0
 60131  1  0  0  0
 60132  1  0  0  0
 60133  1  0  0  0
 61134  1  0  0  0
 61135  1  0  0  0
 61136  1  0  0  0
 62137  1  0  0  0
 62138  1  0  0  0
 62139  1  0  0  0
 63 65  1  0  0  0
 63140  1  0  0  0
 63141  1  0  0  0
 63142  1  0  0  0
 64143  1  0  0  0
 65144  1  0  0  0
 68 81  1  0  0  0
 71 72  1  0  0  0
 71 73  2  0  0  0
 71145  1  0  0  0
 72 74  2  0  0  0
 72146  1  0  0  0
 73 78  1  0  0  0
 73 85  1  0  0  0
 74 82  1  0  0  0
 74 85  1  0  0  0
 75 80  1  0  0  0
 75 82  1  0  0  0
 75 84  2  0  0  0
 76 79  1  0  0  0
 76147  1  0  0  0
 76148  1  0  0  0
 76149  1  0  0  0
 77150  1  0  0  0
 77151  1  0  0  0
 77152  1  0  0  0
 77 81  1  0  0  0
 78 83  1  0  0  0
 78153  1  0  0  0
 78154  1  0  0  0
 79155  1  0  0  0
 79156  1  0  0  0
 79 80  1  0  0  0
 80 81  1  0  0  0
 80157  1  0  0  0
 81158  1  0  0  0
 82159  1  0  0  0
 83160  1  0  0  0
M  ISO  4   1 100  68 101  81 101  83 100
M  END
> <chiral flag>
0

> <version>
0

> <s_m_source_file>
/data/baiqing/PycharmProjects/Reinvent-master-3.2/result/LINK_invent/BTK/process_docking_weight1_custom_product_contain_oxygen_bond_distance_aromatic_linkinvent_7_9_3/rearranged_h_0190.sdf

> <i_m_source_file_index>
29

> <r_mmod_Potential_Energy-OPLS-2005>
-44.0832176208496

> <r_mmod_Stretch_Energy-OPLS-2005>
53.9521026611328

> <r_mmod_Bend_Energy-OPLS-2005>
147.968597412109

> <r_mmod_Torsional_Energy-OPLS-2005>
220.054412841797

> <r_mmod_Improper_Torsional_Energy-OPLS-2005>
3.93351149559021

> <r_mmod_Van_der_Waal_Energy-OPLS-2005>
131.813629150391

> <r_mmod_Electrostatic_Energy-OPLS-2005>
-401.84716796875

> <r_mmod_Solvation_Energy-OPLS-2005>
-222.012649536133

> <b_mmod_Minimization_Converged-OPLS-2005>
0

> <r_mmod_RMS_Derivative-OPLS-2005>
2.51885437965393

$$$$
29
                    3D
 Structure written by MMmdl.
175183  0  0  1  0            999 V2000
  -30.6651  -14.4710   20.5224 C   0  0  0  0  0  0
  -30.4311  -12.2814   19.4159 C   0  0  0  0  0  0
  -29.4905  -12.4719   18.2041 C   0  0  0  0  0  0
  -28.0118  -12.3268   18.6233 C   0  0  0  0  0  0
  -27.6629  -13.1752   19.8748 C   0  0  2  0  0  0
  -28.7096  -12.9473   20.9912 C   0  0  0  0  0  0
  -25.2638  -13.8110   20.5662 C   0  0  0  0  0  0
  -24.1843  -13.0424   20.9200 C   0  0  0  0  0  0
  -24.6372  -11.6892   20.8782 C   0  0  0  0  0  0
  -23.9025  -10.4293   21.0430 C   0  0  0  0  0  0
  -24.3598   -9.4212   21.9195 C   0  0  0  0  0  0
  -23.6285   -8.2259   22.0781 C   0  0  0  0  0  0
  -22.4278   -8.0285   21.3562 C   0  0  0  0  0  0
  -21.9888   -9.0245   20.4664 C   0  0  0  0  0  0
  -22.7214  -10.2131   20.3061 C   0  0  0  0  0  0
  -21.6855   -6.0753   22.5281 C   0  0  0  0  0  0
  -21.4018   -6.5658   23.8203 C   0  0  0  0  0  0
  -21.3641   -5.6810   24.9157 C   0  0  0  0  0  0
  -21.6041   -4.3076   24.7227 C   0  0  0  0  0  0
  -21.8824   -3.8170   23.4348 C   0  0  0  0  0  0
  -21.9192   -4.6983   22.3401 C   0  0  0  0  0  0
  -22.7869  -13.5252   21.1876 C   0  0  0  0  0  0
  -22.1677   -4.2165   21.0984 F   0  0  0  0  0  0
  -21.5624   -3.4549   25.7733 F   0  0  0  0  0  0
  -30.0370  -13.2666   20.4310 N   0  0  0  0  0  0
  -26.3005  -12.9193   20.3362 N   0  0  0  0  0  0
  -25.9278  -11.6401   20.5820 N   0  0  0  0  0  0
  -22.0528  -12.8195   22.0427 N   0  0  0  0  0  0
  -25.4442  -15.1807   20.4110 N   0  0  0  0  0  0
  -31.8367  -14.6573   20.1774 O   0  0  0  0  0  0
  -21.6659   -6.8890   21.4241 O   0  0  0  0  0  0
  -22.3538  -14.5548   20.6755 O   0  0  0  0  0  0
  -24.6193  -31.8625   23.2105 C   0  0  0  0  0  0
  -25.9052  -32.4813   23.8408 C   0  0  1  0  0  0
  -27.2360  -27.4025   20.0971 C   0  0  0  0  0  0
  -25.5901  -33.8613   24.2339 N   0  0  0  0  0  0
  -23.4135  -30.4881   21.5503 C   0  0  2  0  0  0
  -24.8598  -28.9536   20.1153 C   0  0  0  0  0  0
  -22.7442  -29.4653   22.4965 C   0  0  0  0  0  0
  -18.0299  -28.1366   22.8486 C   0  0  0  0  0  0
  -24.1494  -36.7315   23.2647 C   0  0  0  0  0  0
  -25.9501  -30.8186   21.3731 C   0  0  0  0  0  0
  -26.0254  -29.4543   20.7105 C   0  0  0  0  0  0
  -27.2198  -28.6875   20.6934 C   0  0  0  0  0  0
  -26.0538  -26.9360   19.4804 C   0  0  0  0  0  0
  -24.8690  -27.6943   19.4979 C   0  0  0  0  0  0
  -23.6251  -29.8250   20.1659 C   0  0  0  0  0  0
  -25.4107  -36.3087   24.0340 C   0  0  1  0  0  0
  -20.5894  -28.3650   23.1290 C   0  0  2  0  0  0
  -20.6781  -26.9384   22.5411 C   0  0  0  0  0  0
  -19.5764  -26.6365   21.5210 C   0  0  0  0  0  0
  -18.1938  -26.7930   22.1605 C   0  0  0  0  0  0
  -19.1550  -28.8828   23.2886 C   0  0  0  0  0  0
  -18.9473  -30.1434   23.8892 C   0  0  0  0  0  0
  -17.6462  -30.6570   24.0550 C   0  0  0  0  0  0
  -25.9035  -34.9453   23.5132 C   0  0  0  0  0  0
  -16.5353  -29.9068   23.6334 C   0  0  0  0  0  0
  -16.7280  -28.6494   23.0354 C   0  0  0  0  0  0
  -26.4459  -31.6623   25.0765 C   0  0  0  0  0  0
  -25.3720  -31.3721   26.1519 C   0  0  0  0  0  0
  -27.0297  -30.3042   24.6195 C   0  0  0  0  0  0
  -27.6027  -32.4358   25.7521 C   0  0  0  0  0  0
  -27.5585  -37.1799   24.8467 C   0  0  0  0  0  0
  -21.4184  -29.3003   22.3699 N   0  0  0  0  0  0
  -26.4302  -37.3756   23.9410 N   0  0  0  0  0  0
  -24.6796  -31.0709   22.1017 N   0  0  0  0  0  0
  -23.4204  -28.8171   23.2970 O   0  0  0  0  0  0
  -28.3698  -26.6025   20.1144 O   0  0  0  0  0  0
  -26.5585  -34.8895   22.4683 O   0  0  0  0  0  0
  -23.5360  -32.1411   23.7451 O   0  0  0  0  0  0
  -29.3543  -19.0567   20.5427 C   0  0  0  0  0  0
  -30.4788  -19.2335   21.3293 C   0  0  0  0  0  0
  -30.0650  -16.8811   20.7364 C   0  0  0  0  0  0
  -24.4570  -19.0560   20.1193 C   0  0  0  0  0  0
  -29.9377  -24.4385   18.9896 C   0  0  0  0  0  0
  -27.4385  -22.7757   18.6422 C   0  0  0  0  0  0
  -26.2378  -20.9888   21.6378 C   0  0  0  0  0  0
  -26.9123  -18.6527   21.9128 C   0  0  0  0  0  0
  -25.9120  -19.3554   19.7162 C   0  0  0  0  0  0
  -28.1557  -25.2786   20.6783 C   0  0  0  0  0  0
  -28.2979  -20.1027   20.1526 C   0  0  1  0  0  0
  -29.0539  -24.0784   20.1984 C   0  0  1  0  0  0
  -28.1989  -22.7711   19.9881 C   0  0  2  0  0  0
  -26.8752  -19.8104   20.8600 C   0  0  0  0  0  0
  -29.1880  -17.7098   20.1584 N   0  0  0  0  0  0
  -30.9463  -20.4218   21.8953 N   0  0  0  0  0  0
  -29.8170  -15.4843   20.7499 N   0  0  0  0  0  0
  -28.9228  -21.4770   20.2621 N   0  3  0  0  0  0
  -31.3244  -17.7233   21.6314 S   0  0  0  0  0  0
  -31.4807  -12.3841   19.1305 H   0  0  0  0  0  0
  -30.3300  -11.2719   19.8184 H   0  0  0  0  0  0
  -29.7302  -11.7446   17.4278 H   0  0  0  0  0  0
  -29.6388  -13.4565   17.7587 H   0  0  0  0  0  0
  -27.8279  -11.2691   18.8209 H   0  0  0  0  0  0
  -27.3509  -12.5914   17.7971 H   0  0  0  0  0  0
  -27.7071  -14.2165   19.5652 H   0  0  0  0  0  0
  -28.6873  -11.9043   21.3139 H   0  0  0  0  0  0
  -28.4794  -13.5238   21.8874 H   0  0  0  0  0  0
  -25.2772   -9.5682   22.4716 H   0  0  0  0  0  0
  -23.9999   -7.4663   22.7517 H   0  0  0  0  0  0
  -21.0801   -8.8755   19.8993 H   0  0  0  0  0  0
  -22.3683  -10.9643   19.6145 H   0  0  0  0  0  0
  -21.2043   -7.6172   23.9690 H   0  0  0  0  0  0
  -21.1442   -6.0569   25.9049 H   0  0  0  0  0  0
  -22.0622   -2.7635   23.2855 H   0  0  0  0  0  0
  -22.4129  -11.9819   22.4740 H   0  0  0  0  0  0
  -21.1145  -13.1198   22.2671 H   0  0  0  0  0  0
  -24.6918  -15.8432   20.5495 H   0  0  0  0  0  0
  -26.2905  -15.6192   20.0680 H   0  0  0  0  0  0
  -26.7108  -32.5509   23.1169 H   0  0  0  0  0  0
  -25.0075  -33.9743   25.0497 H   0  0  0  0  0  0
  -22.7038  -31.3049   21.4085 H   0  0  0  0  0  0
  -23.3753  -35.9661   23.3315 H   0  0  0  0  0  0
  -24.3604  -36.8931   22.2066 H   0  0  0  0  0  0
  -23.7255  -37.6519   23.6663 H   0  0  0  0  0  0
  -26.0815  -31.5884   20.6113 H   0  0  0  0  0  0
  -26.8331  -30.8619   22.0004 H   0  0  0  0  0  0
  -28.1216  -29.0586   21.1571 H   0  0  0  0  0  0
  -26.0272  -25.9698   18.9979 H   0  0  0  0  0  0
  -23.9748  -27.2973   19.0411 H   0  0  0  0  0  0
  -23.7420  -30.6040   19.4102 H   0  0  0  0  0  0
  -22.7491  -29.2507   19.8622 H   0  0  0  0  0  0
  -25.1270  -36.1968   25.0830 H   0  0  0  0  0  0
  -20.9993  -28.3223   24.1403 H   0  0  0  0  0  0
  -20.5682  -26.2248   23.3584 H   0  0  0  0  0  0
  -21.6645  -26.7410   22.1188 H   0  0  0  0  0  0
  -19.6923  -25.6279   21.1230 H   0  0  0  0  0  0
  -19.6732  -27.3172   20.6731 H   0  0  0  0  0  0
  -17.4212  -26.6677   21.4002 H   0  0  0  0  0  0
  -18.0332  -26.0078   22.8991 H   0  0  0  0  0  0
  -19.7941  -30.7260   24.2273 H   0  0  0  0  0  0
  -17.5011  -31.6267   24.5119 H   0  0  0  0  0  0
  -15.5355  -30.2930   23.7695 H   0  0  0  0  0  0
  -15.8686  -28.0795   22.7067 H   0  0  0  0  0  0
  -24.5887  -30.7058   25.7878 H   0  0  0  0  0  0
  -24.8909  -32.2868   26.4966 H   0  0  0  0  0  0
  -25.8059  -30.8901   27.0293 H   0  0  0  0  0  0
  -26.2867  -29.6824   24.1178 H   0  0  0  0  0  0
  -27.3962  -29.7237   25.4680 H   0  0  0  0  0  0
  -27.8752  -30.4333   23.9433 H   0  0  0  0  0  0
  -27.2635  -33.3669   26.2070 H   0  0  0  0  0  0
  -28.3845  -32.6909   25.0357 H   0  0  0  0  0  0
  -28.0708  -31.8526   26.5464 H   0  0  0  0  0  0
  -28.2575  -38.0111   24.7522 H   0  0  0  0  0  0
  -28.1095  -36.2640   24.6293 H   0  0  0  0  0  0
  -27.2316  -37.1464   25.8867 H   0  0  0  0  0  0
  -20.9357  -29.8752   21.6952 H   0  0  0  0  0  0
  -26.0204  -38.2847   24.1383 H   0  0  0  0  0  0
  -23.9288  -19.9473   20.4612 H   0  0  0  0  0  0
  -24.3967  -18.3099   20.9099 H   0  0  0  0  0  0
  -23.9091  -18.6594   19.2649 H   0  0  0  0  0  0
  -30.5881  -25.2822   19.2241 H   0  0  0  0  0  0
  -29.3458  -24.7204   18.1216 H   0  0  0  0  0  0
  -30.5737  -23.6054   18.6944 H   0  0  0  0  0  0
  -28.0055  -22.2811   17.8554 H   0  0  0  0  0  0
  -27.2216  -23.7884   18.2940 H   0  0  0  0  0  0
  -26.4729  -22.2818   18.7360 H   0  0  0  0  0  0
  -25.4295  -20.6634   22.2936 H   0  0  0  0  0  0
  -25.7717  -21.7165   20.9760 H   0  0  0  0  0  0
  -26.9574  -21.4802   22.2945 H   0  0  0  0  0  0
  -25.9771  -18.5608   22.4670 H   0  0  0  0  0  0
  -27.6851  -18.8026   22.6644 H   0  0  0  0  0  0
  -27.0590  -17.6688   21.4664 H   0  0  0  0  0  0
  -25.8941  -20.0967   18.9162 H   0  0  0  0  0  0
  -26.3153  -18.4545   19.2492 H   0  0  0  0  0  0
  -28.2728  -25.3766   21.7571 H   0  0  0  0  0  0
  -27.1158  -24.9753   20.5805 H   0  0  0  0  0  0
  -28.1595  -19.9994   19.0752 H   0  0  0  0  0  0
  -29.7397  -23.8828   21.0252 H   0  0  0  0  0  0
  -27.4747  -22.8812   20.7772 H   0  0  0  0  0  0
  -31.1570  -20.3146   22.8865 H   0  0  0  0  0  0
  -31.8387  -20.7013   21.4947 H   0  0  0  0  0  0
  -28.8520  -15.2115   20.8264 H   0  0  0  0  0  0
  -29.6929  -21.4390   19.6133 H   0  0  0  0  0  0
  -29.3821  -21.4854   21.1684 H   0  0  0  0  0  0
  1 25  1  0  0  0
  1 30  2  0  0  0
  1 87  1  0  0  0
  2  3  1  0  0  0
  2 25  1  0  0  0
  2 90  1  0  0  0
  2 91  1  0  0  0
  3  4  1  0  0  0
  3 92  1  0  0  0
  3 93  1  0  0  0
  4  5  1  0  0  0
  4 94  1  0  0  0
  4 95  1  0  0  0
  5  6  1  0  0  0
  5 26  1  0  0  0
  5 96  1  0  0  0
  6 25  1  0  0  0
  6 97  1  0  0  0
  6 98  1  0  0  0
  7  8  2  0  0  0
  7 26  1  0  0  0
  7 29  1  0  0  0
  8  9  1  0  0  0
  8 22  1  0  0  0
  9 10  1  0  0  0
  9 27  2  0  0  0
 10 11  2  0  0  0
 10 15  1  0  0  0
 11 12  1  0  0  0
 11 99  1  0  0  0
 12 13  2  0  0  0
 12100  1  0  0  0
 13 14  1  0  0  0
 13 31  1  0  0  0
 14 15  2  0  0  0
 14101  1  0  0  0
 15102  1  0  0  0
 16 17  2  0  0  0
 16 21  1  0  0  0
 16 31  1  0  0  0
 17 18  1  0  0  0
 17103  1  0  0  0
 18 19  2  0  0  0
 18104  1  0  0  0
 19 20  1  0  0  0
 19 24  1  0  0  0
 20 21  2  0  0  0
 20105  1  0  0  0
 21 23  1  0  0  0
 22 28  1  0  0  0
 22 32  2  0  0  0
 26 27  1  0  0  0
 28106  1  0  0  0
 28107  1  0  0  0
 29108  1  0  0  0
 29109  1  0  0  0
 33 34  1  0  0  0
 33 66  1  0  0  0
 33 70  2  0  0  0
 34 36  1  0  0  0
 34 59  1  0  0  0
 34110  1  0  0  0
 35 44  2  0  0  0
 35 45  1  0  0  0
 35 68  1  0  0  0
 36 56  1  0  0  0
 36111  1  0  0  0
 37 39  1  0  0  0
 37 47  1  0  0  0
 37 66  1  0  0  0
 37112  1  0  0  0
 38 43  2  0  0  0
 38 46  1  0  0  0
 38 47  1  0  0  0
 39 64  1  0  0  0
 39 67  2  0  0  0
 40 52  1  0  0  0
 40 53  2  0  0  0
 40 58  1  0  0  0
 41113  1  0  0  0
 41114  1  0  0  0
 41115  1  0  0  0
 41 48  1  0  0  0
 42 43  1  0  0  0
 42 66  1  0  0  0
 42116  1  0  0  0
 42117  1  0  0  0
 43 44  1  0  0  0
 44118  1  0  0  0
 45 46  2  0  0  0
 45119  1  0  0  0
 46120  1  0  0  0
 47121  1  0  0  0
 47122  1  0  0  0
 48 56  1  0  0  0
 48 65  1  0  0  0
 48123  1  0  0  0
 49 50  1  0  0  0
 49 53  1  0  0  0
 49 64  1  0  0  0
 49124  1  0  0  0
 50 51  1  0  0  0
 50125  1  0  0  0
 50126  1  0  0  0
 51 52  1  0  0  0
 51127  1  0  0  0
 51128  1  0  0  0
 52129  1  0  0  0
 52130  1  0  0  0
 53 54  1  0  0  0
 54 55  2  0  0  0
 54131  1  0  0  0
 55 57  1  0  0  0
 55132  1  0  0  0
 56 69  2  0  0  0
 57 58  2  0  0  0
 57133  1  0  0  0
 58134  1  0  0  0
 59 60  1  0  0  0
 59 61  1  0  0  0
 59 62  1  0  0  0
 60135  1  0  0  0
 60136  1  0  0  0
 60137  1  0  0  0
 61138  1  0  0  0
 61139  1  0  0  0
 61140  1  0  0  0
 62141  1  0  0  0
 62142  1  0  0  0
 62143  1  0  0  0
 63 65  1  0  0  0
 63144  1  0  0  0
 63145  1  0  0  0
 63146  1  0  0  0
 64147  1  0  0  0
 65148  1  0  0  0
 68 80  1  0  0  0
 71 72  2  0  0  0
 71 81  1  0  0  0
 71 85  1  0  0  0
 72 86  1  0  0  0
 72 89  1  0  0  0
 73 85  2  0  0  0
 73 87  1  0  0  0
 73 89  1  0  0  0
 74 79  1  0  0  0
 74149  1  0  0  0
 74150  1  0  0  0
 74151  1  0  0  0
 75152  1  0  0  0
 75153  1  0  0  0
 75154  1  0  0  0
 75 82  1  0  0  0
 76155  1  0  0  0
 76156  1  0  0  0
 76157  1  0  0  0
 76 83  1  0  0  0
 77158  1  0  0  0
 77159  1  0  0  0
 77160  1  0  0  0
 77 84  1  0  0  0
 78 84  1  0  0  0
 78161  1  0  0  0
 78162  1  0  0  0
 78163  1  0  0  0
 79 84  1  0  0  0
 79164  1  0  0  0
 79165  1  0  0  0
 80 82  1  0  0  0
 80166  1  0  0  0
 80167  1  0  0  0
 81 84  1  0  0  0
 81 88  1  0  0  0
 81168  1  0  0  0
 82 83  1  0  0  0
 82169  1  0  0  0
 83 88  1  0  0  0
 83170  1  0  0  0
 86171  1  0  0  0
 86172  1  0  0  0
 87173  1  0  0  0
 88174  1  0  0  0
 88175  1  0  0  0
M  CHG  1  88   1
M  ISO  4   1 100  68 101  80 101  87 100
M  END
> <chiral flag>
0

> <version>
0

> <s_m_source_file>
/data/baiqing/PycharmProjects/Reinvent-master-3.2/result/LINK_invent/BTK/process_docking_weight1_custom_product_contain_oxygen_bond_distance_aromatic_linkinvent_7_9_3/rearranged_h_0190.sdf

> <i_m_source_file_index>
30

> <r_mmod_Potential_Energy-OPLS-2005>
-34.1786079406738

> <r_mmod_Stretch_Energy-OPLS-2005>
59.973762512207

> <r_mmod_Bend_Energy-OPLS-2005>
157.962341308594

> <r_mmod_Torsional_Energy-OPLS-2005>
322.630218505859

> <r_mmod_Improper_Torsional_Energy-OPLS-2005>
14.7557191848755

> <r_mmod_Van_der_Waal_Energy-OPLS-2005>
160.39924621582

> <r_mmod_Electrostatic_Energy-OPLS-2005>
-349.435760498047

> <r_mmod_Solvation_Energy-OPLS-2005>
-420.236938476562

> <b_mmod_Minimization_Converged-OPLS-2005>
0

> <r_mmod_RMS_Derivative-OPLS-2005>
5.73264074325562

$$$$
30
                    3D
 Structure written by MMmdl.
155163  0  0  1  0            999 V2000
  -30.5920  -14.6405   20.5389 C   0  0  0  0  0  0
  -30.4449  -12.3993   19.4475 C   0  0  0  0  0  0
  -29.5069  -12.5216   18.2246 C   0  0  0  0  0  0
  -28.0311  -12.3480   18.6355 C   0  0  0  0  0  0
  -27.6585  -13.2066   19.8732 C   0  0  2  0  0  0
  -28.7009  -13.0251   20.9994 C   0  0  0  0  0  0
  -25.2585  -13.8142   20.5672 C   0  0  0  0  0  0
  -24.1844  -13.0423   20.9171 C   0  0  0  0  0  0
  -24.6397  -11.6889   20.8728 C   0  0  0  0  0  0
  -23.9066  -10.4279   21.0396 C   0  0  0  0  0  0
  -24.3614   -9.4199   21.9181 C   0  0  0  0  0  0
  -23.6282   -8.2239   22.0763 C   0  0  0  0  0  0
  -22.4263   -8.0278   21.3548 C   0  0  0  0  0  0
  -21.9898   -9.0258   20.4654 C   0  0  0  0  0  0
  -22.7232  -10.2134   20.3055 C   0  0  0  0  0  0
  -21.6847   -6.0734   22.5281 C   0  0  0  0  0  0
  -21.4014   -6.5646   23.8210 C   0  0  0  0  0  0
  -21.3655   -5.6799   24.9178 C   0  0  0  0  0  0
  -21.6037   -4.3059   24.7231 C   0  0  0  0  0  0
  -21.8823   -3.8154   23.4352 C   0  0  0  0  0  0
  -21.9187   -4.6967   22.3403 C   0  0  0  0  0  0
  -22.7869  -13.5222   21.1847 C   0  0  0  0  0  0
  -22.1664   -4.2151   21.0982 F   0  0  0  0  0  0
  -21.5622   -3.4543   25.7743 F   0  0  0  0  0  0
  -30.0175  -13.3967   20.4504 N   0  0  0  0  0  0
  -26.3012  -12.9307   20.3350 N   0  0  0  0  0  0
  -25.9326  -11.6465   20.5755 N   0  0  0  0  0  0
  -22.0534  -12.8212   22.0414 N   0  0  0  0  0  0
  -25.4325  -15.1864   20.4078 N   0  0  0  0  0  0
  -31.7104  -14.8711   20.0646 O   0  0  0  0  0  0
  -21.6636   -6.8877   21.4237 O   0  0  0  0  0  0
  -22.3542  -14.5526   20.6704 O   0  0  0  0  0  0
  -24.6230  -31.8605   23.2014 C   0  0  0  0  0  0
  -25.9077  -32.4781   23.8350 C   0  0  1  0  0  0
  -27.2329  -27.3283   20.1105 C   0  0  0  0  0  0
  -25.5898  -33.8583   24.2284 N   0  0  0  0  0  0
  -23.4168  -30.4791   21.5470 C   0  0  2  0  0  0
  -24.8617  -28.9291   20.1132 C   0  0  0  0  0  0
  -22.7466  -29.4605   22.4988 C   0  0  0  0  0  0
  -18.0278  -28.1367   22.8495 C   0  0  0  0  0  0
  -24.1490  -36.7296   23.2643 C   0  0  0  0  0  0
  -25.9532  -30.7921   21.3690 C   0  0  0  0  0  0
  -26.0268  -29.4176   20.7145 C   0  0  0  0  0  0
  -27.2108  -28.6279   20.7027 C   0  0  0  0  0  0
  -26.0379  -26.8767   19.5045 C   0  0  0  0  0  0
  -24.8679  -27.6640   19.5020 C   0  0  0  0  0  0
  -23.6283  -29.8080   20.1636 C   0  0  0  0  0  0
  -25.4114  -36.3096   24.0341 C   0  0  1  0  0  0
  -20.5875  -28.3663   23.1314 C   0  0  2  0  0  0
  -20.6768  -26.9395   22.5421 C   0  0  0  0  0  0
  -19.5742  -26.6378   21.5221 C   0  0  0  0  0  0
  -18.1922  -26.7911   22.1632 C   0  0  0  0  0  0
  -19.1528  -28.8836   23.2894 C   0  0  0  0  0  0
  -18.9447  -30.1442   23.8904 C   0  0  0  0  0  0
  -17.6446  -30.6577   24.0555 C   0  0  0  0  0  0
  -25.9043  -34.9459   23.5117 C   0  0  0  0  0  0
  -16.5339  -29.9070   23.6325 C   0  0  0  0  0  0
  -16.7264  -28.6481   23.0361 C   0  0  0  0  0  0
  -26.4470  -31.6572   25.0707 C   0  0  0  0  0  0
  -25.3714  -31.3690   26.1447 C   0  0  0  0  0  0
  -27.0304  -30.3001   24.6114 C   0  0  0  0  0  0
  -27.6041  -32.4296   25.7465 C   0  0  0  0  0  0
  -27.5577  -37.1813   24.8473 C   0  0  0  0  0  0
  -21.4184  -29.3016   22.3720 N   0  0  0  0  0  0
  -26.4298  -37.3778   23.9408 N   0  0  0  0  0  0
  -24.6832  -31.0612   22.0963 N   0  0  0  0  0  0
  -23.4194  -28.8175   23.3085 O   0  0  0  0  0  0
  -28.4017  -26.5561   20.1459 O   0  0  0  0  0  0
  -26.5628  -34.8929   22.4695 O   0  0  0  0  0  0
  -23.5398  -32.1399   23.7354 O   0  0  0  0  0  0
  -29.5405  -17.7512   22.2536 C   0  0  0  0  0  0
  -29.2312  -19.1460   22.0431 C   0  0  0  0  0  0
  -29.7686  -16.9862   21.1307 C   0  0  0  0  0  0
  -29.2397  -19.5207   20.7138 C   0  0  0  0  0  0
  -28.8756  -20.0421   23.1926 C   0  0  0  0  0  0
  -28.4826  -25.1341   19.7432 C   0  0  0  0  0  0
  -29.2512  -22.6736   20.8933 C   0  0  0  0  0  0
  -28.4713  -24.0816   20.9277 C   0  0  2  0  0  0
  -27.1275  -23.9715   21.4719 N   0  0  0  0  0  0
  -29.8160  -15.5967   21.1368 N   0  0  0  0  0  0
  -29.2246  -21.1703   18.6063 O   0  0  0  0  0  0
  -27.1709  -21.0788   20.0679 O   0  0  0  0  0  0
  -29.6915  -18.0912   19.7375 S   0  0  0  0  0  0
  -28.6404  -21.1228   19.9583 S   0  0  0  0  0  0
  -31.4817  -12.5472   19.1421 H   0  0  0  0  0  0
  -30.3985  -11.3928   19.8681 H   0  0  0  0  0  0
  -29.7747  -11.7833   17.4671 H   0  0  0  0  0  0
  -29.6379  -13.4998   17.7602 H   0  0  0  0  0  0
  -27.8725  -11.2921   18.8588 H   0  0  0  0  0  0
  -27.3723  -12.5851   17.7990 H   0  0  0  0  0  0
  -27.6881  -14.2487   19.5522 H   0  0  0  0  0  0
  -28.7173  -11.9883   21.3408 H   0  0  0  0  0  0
  -28.4307  -13.6111   21.8781 H   0  0  0  0  0  0
  -25.2769   -9.5675   22.4742 H   0  0  0  0  0  0
  -24.0002   -7.4626   22.7473 H   0  0  0  0  0  0
  -21.0837   -8.8773   19.8948 H   0  0  0  0  0  0
  -22.3696  -10.9676   19.6158 H   0  0  0  0  0  0
  -21.2020   -7.6154   23.9717 H   0  0  0  0  0  0
  -21.1466   -6.0532   25.9075 H   0  0  0  0  0  0
  -22.0604   -2.7616   23.2853 H   0  0  0  0  0  0
  -22.4161  -11.9845   22.4745 H   0  0  0  0  0  0
  -21.1156  -13.1239   22.2651 H   0  0  0  0  0  0
  -24.6675  -15.8429   20.5193 H   0  0  0  0  0  0
  -26.2881  -15.6272   20.0950 H   0  0  0  0  0  0
  -26.7136  -32.5456   23.1096 H   0  0  0  0  0  0
  -25.0031  -33.9723   25.0419 H   0  0  0  0  0  0
  -22.7082  -31.2975   21.4044 H   0  0  0  0  0  0
  -23.3752  -35.9624   23.3321 H   0  0  0  0  0  0
  -24.3577  -36.8896   22.2050 H   0  0  0  0  0  0
  -23.7241  -37.6508   23.6646 H   0  0  0  0  0  0
  -26.0770  -31.5537   20.5985 H   0  0  0  0  0  0
  -26.8361  -30.8454   21.9940 H   0  0  0  0  0  0
  -28.1076  -29.0048   21.1737 H   0  0  0  0  0  0
  -25.9758  -25.9083   19.0335 H   0  0  0  0  0  0
  -23.9718  -27.2824   19.0323 H   0  0  0  0  0  0
  -23.7381  -30.5815   19.4027 H   0  0  0  0  0  0
  -22.7495  -29.2317   19.8692 H   0  0  0  0  0  0
  -25.1289  -36.1962   25.0830 H   0  0  0  0  0  0
  -20.9947  -28.3219   24.1444 H   0  0  0  0  0  0
  -20.5682  -26.2267   23.3614 H   0  0  0  0  0  0
  -21.6638  -26.7441   22.1206 H   0  0  0  0  0  0
  -19.6914  -25.6297   21.1236 H   0  0  0  0  0  0
  -19.6678  -27.3203   20.6765 H   0  0  0  0  0  0
  -17.4200  -26.6665   21.4026 H   0  0  0  0  0  0
  -18.0313  -26.0041   22.9014 H   0  0  0  0  0  0
  -19.7922  -30.7255   24.2279 H   0  0  0  0  0  0
  -17.5000  -31.6263   24.5148 H   0  0  0  0  0  0
  -15.5339  -30.2977   23.7643 H   0  0  0  0  0  0
  -15.8663  -28.0802   22.7087 H   0  0  0  0  0  0
  -24.5915  -30.6997   25.7792 H   0  0  0  0  0  0
  -24.8867  -32.2839   26.4864 H   0  0  0  0  0  0
  -25.8063  -30.8898   27.0229 H   0  0  0  0  0  0
  -26.2854  -29.6771   24.1149 H   0  0  0  0  0  0
  -27.4042  -29.7225   25.4581 H   0  0  0  0  0  0
  -27.8707  -30.4310   23.9292 H   0  0  0  0  0  0
  -27.2665  -33.3610   26.2020 H   0  0  0  0  0  0
  -28.3850  -32.6827   25.0280 H   0  0  0  0  0  0
  -28.0699  -31.8428   26.5392 H   0  0  0  0  0  0
  -28.2625  -38.0082   24.7500 H   0  0  0  0  0  0
  -28.1055  -36.2624   24.6335 H   0  0  0  0  0  0
  -27.2301  -37.1496   25.8878 H   0  0  0  0  0  0
  -20.9377  -29.8703   21.6894 H   0  0  0  0  0  0
  -26.0199  -38.2867   24.1373 H   0  0  0  0  0  0
  -29.5193  -17.3370   23.2524 H   0  0  0  0  0  0
  -28.5797  -19.4649   24.0690 H   0  0  0  0  0  0
  -28.0390  -20.6981   22.9532 H   0  0  0  0  0  0
  -29.7198  -20.6651   23.4893 H   0  0  0  0  0  0
  -27.7817  -24.8616   18.9565 H   0  0  0  0  0  0
  -29.4577  -25.0464   19.2625 H   0  0  0  0  0  0
  -29.3610  -22.3562   21.9242 H   0  0  0  0  0  0
  -30.2741  -22.8333   20.5585 H   0  0  0  0  0  0
  -29.0149  -24.6156   21.7082 H   0  0  0  0  0  0
  -26.7615  -24.9134   21.5787 H   0  0  0  0  0  0
  -26.5192  -23.5503   20.7771 H   0  0  0  0  0  0
  -29.0590  -15.1722   21.6514 H   0  0  0  0  0  0
  1 25  1  0  0  0
  1 30  2  0  0  0
  1 80  1  0  0  0
  2  3  1  0  0  0
  2 25  1  0  0  0
  2 85  1  0  0  0
  2 86  1  0  0  0
  3  4  1  0  0  0
  3 87  1  0  0  0
  3 88  1  0  0  0
  4  5  1  0  0  0
  4 89  1  0  0  0
  4 90  1  0  0  0
  5  6  1  0  0  0
  5 26  1  0  0  0
  5 91  1  0  0  0
  6 25  1  0  0  0
  6 92  1  0  0  0
  6 93  1  0  0  0
  7  8  2  0  0  0
  7 26  1  0  0  0
  7 29  1  0  0  0
  8  9  1  0  0  0
  8 22  1  0  0  0
  9 10  1  0  0  0
  9 27  2  0  0  0
 10 11  2  0  0  0
 10 15  1  0  0  0
 11 12  1  0  0  0
 11 94  1  0  0  0
 12 13  2  0  0  0
 12 95  1  0  0  0
 13 14  1  0  0  0
 13 31  1  0  0  0
 14 15  2  0  0  0
 14 96  1  0  0  0
 15 97  1  0  0  0
 16 17  2  0  0  0
 16 21  1  0  0  0
 16 31  1  0  0  0
 17 18  1  0  0  0
 17 98  1  0  0  0
 18 19  2  0  0  0
 18 99  1  0  0  0
 19 20  1  0  0  0
 19 24  1  0  0  0
 20 21  2  0  0  0
 20100  1  0  0  0
 21 23  1  0  0  0
 22 28  1  0  0  0
 22 32  2  0  0  0
 26 27  1  0  0  0
 28101  1  0  0  0
 28102  1  0  0  0
 29103  1  0  0  0
 29104  1  0  0  0
 33 34  1  0  0  0
 33 66  1  0  0  0
 33 70  2  0  0  0
 34 36  1  0  0  0
 34 59  1  0  0  0
 34105  1  0  0  0
 35 44  2  0  0  0
 35 45  1  0  0  0
 35 68  1  0  0  0
 36 56  1  0  0  0
 36106  1  0  0  0
 37 39  1  0  0  0
 37 47  1  0  0  0
 37 66  1  0  0  0
 37107  1  0  0  0
 38 43  2  0  0  0
 38 46  1  0  0  0
 38 47  1  0  0  0
 39 64  1  0  0  0
 39 67  2  0  0  0
 40 52  1  0  0  0
 40 53  2  0  0  0
 40 58  1  0  0  0
 41108  1  0  0  0
 41109  1  0  0  0
 41110  1  0  0  0
 41 48  1  0  0  0
 42 43  1  0  0  0
 42 66  1  0  0  0
 42111  1  0  0  0
 42112  1  0  0  0
 43 44  1  0  0  0
 44113  1  0  0  0
 45 46  2  0  0  0
 45114  1  0  0  0
 46115  1  0  0  0
 47116  1  0  0  0
 47117  1  0  0  0
 48 56  1  0  0  0
 48 65  1  0  0  0
 48118  1  0  0  0
 49 50  1  0  0  0
 49 53  1  0  0  0
 49 64  1  0  0  0
 49119  1  0  0  0
 50 51  1  0  0  0
 50120  1  0  0  0
 50121  1  0  0  0
 51 52  1  0  0  0
 51122  1  0  0  0
 51123  1  0  0  0
 52124  1  0  0  0
 52125  1  0  0  0
 53 54  1  0  0  0
 54 55  2  0  0  0
 54126  1  0  0  0
 55 57  1  0  0  0
 55127  1  0  0  0
 56 69  2  0  0  0
 57 58  2  0  0  0
 57128  1  0  0  0
 58129  1  0  0  0
 59 60  1  0  0  0
 59 61  1  0  0  0
 59 62  1  0  0  0
 60130  1  0  0  0
 60131  1  0  0  0
 60132  1  0  0  0
 61133  1  0  0  0
 61134  1  0  0  0
 61135  1  0  0  0
 62136  1  0  0  0
 62137  1  0  0  0
 62138  1  0  0  0
 63 65  1  0  0  0
 63139  1  0  0  0
 63140  1  0  0  0
 63141  1  0  0  0
 64142  1  0  0  0
 65143  1  0  0  0
 68 76  1  0  0  0
 71 72  1  0  0  0
 71 73  2  0  0  0
 71144  1  0  0  0
 72 74  2  0  0  0
 72 75  1  0  0  0
 73 80  1  0  0  0
 73 83  1  0  0  0
 74 83  1  0  0  0
 74 84  1  0  0  0
 75145  1  0  0  0
 75146  1  0  0  0
 75147  1  0  0  0
 76 78  1  0  0  0
 76148  1  0  0  0
 76149  1  0  0  0
 77 78  1  0  0  0
 77150  1  0  0  0
 77151  1  0  0  0
 77 84  1  0  0  0
 78 79  1  0  0  0
 78152  1  0  0  0
 79153  1  0  0  0
 79154  1  0  0  0
 80155  1  0  0  0
 81 84  2  0  0  0
 82 84  2  0  0  0
M  ISO  4   1 100  68 101  76 101  80 100
M  END
> <chiral flag>
0

> <version>
0

> <s_m_source_file>
/data/baiqing/PycharmProjects/Reinvent-master-3.2/result/LINK_invent/BTK/process_docking_weight1_custom_product_contain_oxygen_bond_distance_aromatic_linkinvent_7_9_3/rearranged_h_0190.sdf

> <i_m_source_file_index>
31

> <r_mmod_Potential_Energy-OPLS-2005>
42.0208129882812

> <r_mmod_Stretch_Energy-OPLS-2005>
79.3753890991211

> <r_mmod_Bend_Energy-OPLS-2005>
196.902267456055

> <r_mmod_Torsional_Energy-OPLS-2005>
235.449264526367

> <r_mmod_Improper_Torsional_Energy-OPLS-2005>
4.58561563491821

> <r_mmod_Van_der_Waal_Energy-OPLS-2005>
108.722351074219

> <r_mmod_Electrostatic_Energy-OPLS-2005>
-367.322265625

> <r_mmod_Solvation_Energy-OPLS-2005>
-259.520538330078

> <b_mmod_Minimization_Converged-OPLS-2005>
0

> <r_mmod_RMS_Derivative-OPLS-2005>
2.08765339851379

$$$$
31
                    3D
 Structure written by MMmdl.
172180  0  0  1  0            999 V2000
  -30.6160  -14.6954   20.4851 C   0  0  0  0  0  0
  -30.4335  -12.4250   19.4632 C   0  0  0  0  0  0
  -29.5085  -12.5103   18.2287 C   0  0  0  0  0  0
  -28.0323  -12.3414   18.6398 C   0  0  0  0  0  0
  -27.6459  -13.2236   19.8563 C   0  0  2  0  0  0
  -28.6904  -13.1158   20.9894 C   0  0  0  0  0  0
  -25.2527  -13.8182   20.5687 C   0  0  0  0  0  0
  -24.1810  -13.0440   20.9199 C   0  0  0  0  0  0
  -24.6390  -11.6912   20.8744 C   0  0  0  0  0  0
  -23.9065  -10.4292   21.0410 C   0  0  0  0  0  0
  -24.3613   -9.4209   21.9193 C   0  0  0  0  0  0
  -23.6292   -8.2245   22.0763 C   0  0  0  0  0  0
  -22.4276   -8.0277   21.3548 C   0  0  0  0  0  0
  -21.9905   -9.0252   20.4652 C   0  0  0  0  0  0
  -22.7236  -10.2135   20.3065 C   0  0  0  0  0  0
  -21.6854   -6.0733   22.5286 C   0  0  0  0  0  0
  -21.4012   -6.5640   23.8214 C   0  0  0  0  0  0
  -21.3658   -5.6793   24.9177 C   0  0  0  0  0  0
  -21.6043   -4.3056   24.7232 C   0  0  0  0  0  0
  -21.8818   -3.8149   23.4352 C   0  0  0  0  0  0
  -21.9191   -4.6959   22.3409 C   0  0  0  0  0  0
  -22.7829  -13.5226   21.1865 C   0  0  0  0  0  0
  -22.1661   -4.2143   21.0981 F   0  0  0  0  0  0
  -21.5627   -3.4543   25.7748 F   0  0  0  0  0  0
  -29.9995  -13.4671   20.4201 N   0  0  0  0  0  0
  -26.2945  -12.9373   20.3293 N   0  0  0  0  0  0
  -25.9317  -11.6522   20.5748 N   0  0  0  0  0  0
  -22.0471  -12.8221   22.0413 N   0  0  0  0  0  0
  -25.4226  -15.1912   20.4079 N   0  0  0  0  0  0
  -31.7946  -14.8097   20.1350 O   0  0  0  0  0  0
  -21.6641   -6.8878   21.4247 O   0  0  0  0  0  0
  -22.3522  -14.5538   20.6718 O   0  0  0  0  0  0
  -24.6310  -31.8557   23.2015 C   0  0  0  0  0  0
  -25.9142  -32.4761   23.8337 C   0  0  1  0  0  0
  -27.2189  -27.2789   20.1303 C   0  0  0  0  0  0
  -25.5929  -33.8561   24.2247 N   0  0  0  0  0  0
  -23.4258  -30.4805   21.5428 C   0  0  2  0  0  0
  -24.8723  -28.9332   20.1075 C   0  0  0  0  0  0
  -22.7502  -29.4608   22.4912 C   0  0  0  0  0  0
  -18.0275  -28.1388   22.8479 C   0  0  0  0  0  0
  -24.1488  -36.7295   23.2631 C   0  0  0  0  0  0
  -25.9704  -30.7786   21.3755 C   0  0  0  0  0  0
  -26.0433  -29.4034   20.7152 C   0  0  0  0  0  0
  -27.2189  -28.5887   20.7143 C   0  0  0  0  0  0
  -26.0257  -26.8767   19.4847 C   0  0  0  0  0  0
  -24.8684  -27.6774   19.4822 C   0  0  0  0  0  0
  -23.6410  -29.8157   20.1577 C   0  0  0  0  0  0
  -25.4117  -36.3083   24.0324 C   0  0  1  0  0  0
  -20.5882  -28.3696   23.1267 C   0  0  2  0  0  0
  -20.6773  -26.9411   22.5412 C   0  0  0  0  0  0
  -19.5748  -26.6382   21.5218 C   0  0  0  0  0  0
  -18.1921  -26.7928   22.1628 C   0  0  0  0  0  0
  -19.1530  -28.8859   23.2864 C   0  0  0  0  0  0
  -18.9458  -30.1456   23.8891 C   0  0  0  0  0  0
  -17.6461  -30.6593   24.0549 C   0  0  0  0  0  0
  -25.9065  -34.9448   23.5096 C   0  0  0  0  0  0
  -16.5348  -29.9099   23.6326 C   0  0  0  0  0  0
  -16.7261  -28.6511   23.0356 C   0  0  0  0  0  0
  -26.4512  -31.6593   25.0734 C   0  0  0  0  0  0
  -25.3718  -31.3742   26.1443 C   0  0  0  0  0  0
  -27.0351  -30.2999   24.6226 C   0  0  0  0  0  0
  -27.6066  -32.4339   25.7509 C   0  0  0  0  0  0
  -27.5576  -37.1793   24.8451 C   0  0  0  0  0  0
  -21.4204  -29.3047   22.3676 N   0  0  0  0  0  0
  -26.4288  -37.3790   23.9410 N   0  0  0  0  0  0
  -24.6947  -31.0552   22.0966 N   0  0  0  0  0  0
  -23.4216  -28.8130   23.2989 O   0  0  0  0  0  0
  -28.3198  -26.3999   20.2202 O   0  0  0  0  0  0
  -26.5646  -34.8908   22.4669 O   0  0  0  0  0  0
  -23.5472  -32.1354   23.7333 O   0  0  0  0  0  0
  -31.1722  -19.2504   20.4015 C   0  0  0  0  0  0
  -29.9443  -19.8483   20.6863 C   0  0  0  0  0  0
  -30.0257  -17.2428   20.6803 C   0  0  0  0  0  0
  -32.3902  -20.0535   20.1559 C   0  0  0  0  0  0
  -31.3534  -24.0816   21.8964 C   0  0  0  0  0  0
  -28.9354  -22.0320   16.1502 C   0  0  0  0  0  0
  -29.4606  -19.9400   17.3696 C   0  0  0  0  0  0
  -27.2878  -21.1261   17.7884 C   0  0  0  0  0  0
  -30.5854  -24.3203   20.5866 C   0  0  0  0  0  0
  -29.5071  -22.2029   18.5839 C   0  0  0  0  0  0
  -28.1396  -24.9343   19.9541 C   0  0  0  0  0  0
  -29.1176  -23.8143   20.6002 C   0  0  1  0  0  0
  -28.9987  -22.2742   20.0609 C   0  0  2  0  0  0
  -28.7904  -21.3193   17.5116 C   0  0  0  0  0  0
  -31.1955  -17.8256   20.3887 N   0  0  0  0  0  0
  -33.5337  -19.5460   19.9525 N   0  0  0  0  0  0
  -29.6585  -21.2498   20.9523 N   0  0  0  0  0  0
  -29.8146  -15.7841   20.7695 N   0  0  0  0  0  0
  -28.7775  -18.5207   20.9600 S   0  0  0  0  0  0
  -31.4754  -12.5467   19.1623 H   0  0  0  0  0  0
  -30.3704  -11.4368   19.9220 H   0  0  0  0  0  0
  -29.7810  -11.7483   17.4963 H   0  0  0  0  0  0
  -29.6436  -13.4731   17.7330 H   0  0  0  0  0  0
  -27.8765  -11.2894   18.8828 H   0  0  0  0  0  0
  -27.3770  -12.5564   17.7939 H   0  0  0  0  0  0
  -27.6516  -14.2525   19.4972 H   0  0  0  0  0  0
  -28.7127  -12.1029   21.3950 H   0  0  0  0  0  0
  -28.4303  -13.7667   21.8254 H   0  0  0  0  0  0
  -25.2759   -9.5686   22.4771 H   0  0  0  0  0  0
  -23.9997   -7.4638   22.7487 H   0  0  0  0  0  0
  -21.0839   -8.8778   19.8960 H   0  0  0  0  0  0
  -22.3700  -10.9674   19.6177 H   0  0  0  0  0  0
  -21.2005   -7.6150   23.9716 H   0  0  0  0  0  0
  -21.1480   -6.0526   25.9075 H   0  0  0  0  0  0
  -22.0595   -2.7612   23.2861 H   0  0  0  0  0  0
  -22.4064  -11.9876   22.4804 H   0  0  0  0  0  0
  -21.1088  -13.1261   22.2616 H   0  0  0  0  0  0
  -24.6489  -15.8396   20.5034 H   0  0  0  0  0  0
  -26.2567  -15.6279   20.0390 H   0  0  0  0  0  0
  -26.7206  -32.5409   23.1078 H   0  0  0  0  0  0
  -25.0022  -33.9695   25.0353 H   0  0  0  0  0  0
  -22.7202  -31.3014   21.3976 H   0  0  0  0  0  0
  -23.3757  -35.9623   23.3308 H   0  0  0  0  0  0
  -24.3551  -36.8925   22.2038 H   0  0  0  0  0  0
  -23.7248  -37.6494   23.6665 H   0  0  0  0  0  0
  -26.1032  -31.5422   20.6075 H   0  0  0  0  0  0
  -26.8519  -30.8300   22.0040 H   0  0  0  0  0  0
  -28.1158  -28.9407   21.2049 H   0  0  0  0  0  0
  -25.9530  -25.9189   18.9913 H   0  0  0  0  0  0
  -23.9696  -27.3148   19.0030 H   0  0  0  0  0  0
  -23.7560  -30.5921   19.4008 H   0  0  0  0  0  0
  -22.7618  -29.2437   19.8558 H   0  0  0  0  0  0
  -25.1299  -36.1928   25.0820 H   0  0  0  0  0  0
  -20.9944  -28.3285   24.1398 H   0  0  0  0  0  0
  -20.5672  -26.2303   23.3623 H   0  0  0  0  0  0
  -21.6639  -26.7432   22.1192 H   0  0  0  0  0  0
  -19.6913  -25.6297   21.1243 H   0  0  0  0  0  0
  -19.6700  -27.3198   20.6752 H   0  0  0  0  0  0
  -17.4187  -26.6664   21.4027 H   0  0  0  0  0  0
  -18.0309  -26.0080   22.9028 H   0  0  0  0  0  0
  -19.7936  -30.7254   24.2279 H   0  0  0  0  0  0
  -17.5019  -31.6265   24.5163 H   0  0  0  0  0  0
  -15.5347  -30.2995   23.7672 H   0  0  0  0  0  0
  -15.8653  -28.0825   22.7097 H   0  0  0  0  0  0
  -24.5902  -30.7092   25.7744 H   0  0  0  0  0  0
  -24.8884  -32.2905   26.4833 H   0  0  0  0  0  0
  -25.8005  -30.8918   27.0232 H   0  0  0  0  0  0
  -26.2918  -29.6757   24.1239 H   0  0  0  0  0  0
  -27.4002  -29.7274   25.4764 H   0  0  0  0  0  0
  -27.8825  -30.4262   23.9484 H   0  0  0  0  0  0
  -27.2672  -33.3646   26.2065 H   0  0  0  0  0  0
  -28.3885  -32.6889   25.0344 H   0  0  0  0  0  0
  -28.0725  -31.8471   26.5438 H   0  0  0  0  0  0
  -28.2582  -38.0098   24.7519 H   0  0  0  0  0  0
  -28.1090  -36.2631   24.6270 H   0  0  0  0  0  0
  -27.2278  -37.1425   25.8847 H   0  0  0  0  0  0
  -20.9411  -29.8773   21.6864 H   0  0  0  0  0  0
  -26.0173  -38.2866   24.1435 H   0  0  0  0  0  0
  -32.2699  -21.1402   20.1554 H   0  0  0  0  0  0
  -32.3553  -24.5098   21.8341 H   0  0  0  0  0  0
  -31.4689  -23.0230   22.1234 H   0  0  0  0  0  0
  -30.8500  -24.5565   22.7393 H   0  0  0  0  0  0
  -28.4894  -21.4578   15.3369 H   0  0  0  0  0  0
  -29.9846  -22.1970   15.8983 H   0  0  0  0  0  0
  -28.4464  -23.0078   16.1539 H   0  0  0  0  0  0
  -29.0877  -19.4043   16.4965 H   0  0  0  0  0  0
  -29.2617  -19.2992   18.2227 H   0  0  0  0  0  0
  -30.5419  -20.0276   17.2554 H   0  0  0  0  0  0
  -26.8078  -20.5847   16.9719 H   0  0  0  0  0  0
  -26.7718  -22.0799   17.8977 H   0  0  0  0  0  0
  -27.1142  -20.5432   18.6942 H   0  0  0  0  0  0
  -31.1476  -23.8940   19.7572 H   0  0  0  0  0  0
  -30.6005  -25.3935   20.4026 H   0  0  0  0  0  0
  -30.5791  -22.0067   18.5645 H   0  0  0  0  0  0
  -29.4499  -23.2203   18.2032 H   0  0  0  0  0  0
  -27.1435  -24.6430   20.2893 H   0  0  0  0  0  0
  -28.1255  -24.8247   18.8705 H   0  0  0  0  0  0
  -28.8083  -23.7901   21.6458 H   0  0  0  0  0  0
  -27.9352  -22.0483   20.0916 H   0  0  0  0  0  0
  -33.4523  -18.5335   19.9907 H   0  0  0  0  0  0
  -30.3412  -21.6849   21.5666 H   0  0  0  0  0  0
  -28.8744  -15.5237   21.0212 H   0  0  0  0  0  0
  1 25  1  0  0  0
  1 30  2  0  0  0
  1 88  1  0  0  0
  2  3  1  0  0  0
  2 25  1  0  0  0
  2 90  1  0  0  0
  2 91  1  0  0  0
  3  4  1  0  0  0
  3 92  1  0  0  0
  3 93  1  0  0  0
  4  5  1  0  0  0
  4 94  1  0  0  0
  4 95  1  0  0  0
  5  6  1  0  0  0
  5 26  1  0  0  0
  5 96  1  0  0  0
  6 25  1  0  0  0
  6 97  1  0  0  0
  6 98  1  0  0  0
  7  8  2  0  0  0
  7 26  1  0  0  0
  7 29  1  0  0  0
  8  9  1  0  0  0
  8 22  1  0  0  0
  9 10  1  0  0  0
  9 27  2  0  0  0
 10 11  2  0  0  0
 10 15  1  0  0  0
 11 12  1  0  0  0
 11 99  1  0  0  0
 12 13  2  0  0  0
 12100  1  0  0  0
 13 14  1  0  0  0
 13 31  1  0  0  0
 14 15  2  0  0  0
 14101  1  0  0  0
 15102  1  0  0  0
 16 17  2  0  0  0
 16 21  1  0  0  0
 16 31  1  0  0  0
 17 18  1  0  0  0
 17103  1  0  0  0
 18 19  2  0  0  0
 18104  1  0  0  0
 19 20  1  0  0  0
 19 24  1  0  0  0
 20 21  2  0  0  0
 20105  1  0  0  0
 21 23  1  0  0  0
 22 28  1  0  0  0
 22 32  2  0  0  0
 26 27  1  0  0  0
 28106  1  0  0  0
 28107  1  0  0  0
 29108  1  0  0  0
 29109  1  0  0  0
 33 34  1  0  0  0
 33 66  1  0  0  0
 33 70  2  0  0  0
 34 36  1  0  0  0
 34 59  1  0  0  0
 34110  1  0  0  0
 35 44  2  0  0  0
 35 45  1  0  0  0
 35 68  1  0  0  0
 36 56  1  0  0  0
 36111  1  0  0  0
 37 39  1  0  0  0
 37 47  1  0  0  0
 37 66  1  0  0  0
 37112  1  0  0  0
 38 43  2  0  0  0
 38 46  1  0  0  0
 38 47  1  0  0  0
 39 64  1  0  0  0
 39 67  2  0  0  0
 40 52  1  0  0  0
 40 53  2  0  0  0
 40 58  1  0  0  0
 41113  1  0  0  0
 41114  1  0  0  0
 41115  1  0  0  0
 41 48  1  0  0  0
 42 43  1  0  0  0
 42 66  1  0  0  0
 42116  1  0  0  0
 42117  1  0  0  0
 43 44  1  0  0  0
 44118  1  0  0  0
 45 46  2  0  0  0
 45119  1  0  0  0
 46120  1  0  0  0
 47121  1  0  0  0
 47122  1  0  0  0
 48 56  1  0  0  0
 48 65  1  0  0  0
 48123  1  0  0  0
 49 50  1  0  0  0
 49 53  1  0  0  0
 49 64  1  0  0  0
 49124  1  0  0  0
 50 51  1  0  0  0
 50125  1  0  0  0
 50126  1  0  0  0
 51 52  1  0  0  0
 51127  1  0  0  0
 51128  1  0  0  0
 52129  1  0  0  0
 52130  1  0  0  0
 53 54  1  0  0  0
 54 55  2  0  0  0
 54131  1  0  0  0
 55 57  1  0  0  0
 55132  1  0  0  0
 56 69  2  0  0  0
 57 58  2  0  0  0
 57133  1  0  0  0
 58134  1  0  0  0
 59 60  1  0  0  0
 59 61  1  0  0  0
 59 62  1  0  0  0
 60135  1  0  0  0
 60136  1  0  0  0
 60137  1  0  0  0
 61138  1  0  0  0
 61139  1  0  0  0
 61140  1  0  0  0
 62141  1  0  0  0
 62142  1  0  0  0
 62143  1  0  0  0
 63 65  1  0  0  0
 63144  1  0  0  0
 63145  1  0  0  0
 63146  1  0  0  0
 64147  1  0  0  0
 65148  1  0  0  0
 68 81  1  0  0  0
 71 72  2  0  0  0
 71 74  1  0  0  0
 71 85  1  0  0  0
 72 87  1  0  0  0
 72 89  1  0  0  0
 73 85  2  0  0  0
 73 88  1  0  0  0
 73 89  1  0  0  0
 74 86  2  0  0  0
 74149  1  0  0  0
 75 79  1  0  0  0
 75150  1  0  0  0
 75151  1  0  0  0
 75152  1  0  0  0
 76153  1  0  0  0
 76154  1  0  0  0
 76155  1  0  0  0
 76 84  1  0  0  0
 77 84  1  0  0  0
 77156  1  0  0  0
 77157  1  0  0  0
 77158  1  0  0  0
 78 84  1  0  0  0
 78159  1  0  0  0
 78160  1  0  0  0
 78161  1  0  0  0
 79162  1  0  0  0
 79163  1  0  0  0
 79 82  1  0  0  0
 80 84  1  0  0  0
 80164  1  0  0  0
 80165  1  0  0  0
 80 83  1  0  0  0
 81 82  1  0  0  0
 81166  1  0  0  0
 81167  1  0  0  0
 82 83  1  0  0  0
 82168  1  0  0  0
 83 87  1  0  0  0
 83169  1  0  0  0
 86170  1  0  0  0
 87171  1  0  0  0
 88172  1  0  0  0
M  ISO  4   1 100  68 101  81 101  88 100
M  END
> <chiral flag>
0

> <version>
0

> <s_m_source_file>
/data/baiqing/PycharmProjects/Reinvent-master-3.2/result/LINK_invent/BTK/process_docking_weight1_custom_product_contain_oxygen_bond_distance_aromatic_linkinvent_7_9_3/rearranged_h_0190.sdf

> <i_m_source_file_index>
32

> <r_mmod_Potential_Energy-OPLS-2005>
285.659149169922

> <r_mmod_Stretch_Energy-OPLS-2005>
112.934455871582

> <r_mmod_Bend_Energy-OPLS-2005>
184.312561035156

> <r_mmod_Torsional_Energy-OPLS-2005>
274.720886230469

> <r_mmod_Improper_Torsional_Energy-OPLS-2005>
7.59494781494141

> <r_mmod_Van_der_Waal_Energy-OPLS-2005>
120.241798400879

> <r_mmod_Electrostatic_Energy-OPLS-2005>
-254.746795654297

> <r_mmod_Solvation_Energy-OPLS-2005>
-228.651245117188

> <b_mmod_Minimization_Converged-OPLS-2005>
0

> <r_mmod_RMS_Derivative-OPLS-2005>
1.98595333099365

$$$$
32
                    3D
 Structure written by MMmdl.
168176  0  0  1  0            999 V2000
  -30.7126  -14.4219   20.6304 C   0  0  0  0  0  0
  -30.4272  -12.2966   19.4058 C   0  0  0  0  0  0
  -29.4931  -12.5191   18.1989 C   0  0  0  0  0  0
  -28.0143  -12.3769   18.6116 C   0  0  0  0  0  0
  -27.6672  -13.1994   19.8810 C   0  0  2  0  0  0
  -28.7057  -12.9364   20.9942 C   0  0  0  0  0  0
  -25.2613  -13.8144   20.5672 C   0  0  0  0  0  0
  -24.1848  -13.0434   20.9164 C   0  0  0  0  0  0
  -24.6391  -11.6896   20.8719 C   0  0  0  0  0  0
  -23.9055  -10.4289   21.0396 C   0  0  0  0  0  0
  -24.3609   -9.4207   21.9176 C   0  0  0  0  0  0
  -23.6287   -8.2244   22.0749 C   0  0  0  0  0  0
  -22.4268   -8.0282   21.3545 C   0  0  0  0  0  0
  -21.9903   -9.0253   20.4645 C   0  0  0  0  0  0
  -22.7229  -10.2132   20.3046 C   0  0  0  0  0  0
  -21.6852   -6.0732   22.5280 C   0  0  0  0  0  0
  -21.4014   -6.5633   23.8214 C   0  0  0  0  0  0
  -21.3657   -5.6785   24.9174 C   0  0  0  0  0  0
  -21.6043   -4.3049   24.7223 C   0  0  0  0  0  0
  -21.8820   -3.8143   23.4344 C   0  0  0  0  0  0
  -21.9192   -4.6962   22.3401 C   0  0  0  0  0  0
  -22.7872  -13.5242   21.1835 C   0  0  0  0  0  0
  -22.1661   -4.2150   21.0977 F   0  0  0  0  0  0
  -21.5629   -3.4532   25.7736 F   0  0  0  0  0  0
  -30.0442  -13.2504   20.4573 N   0  0  0  0  0  0
  -26.3047  -12.9301   20.3377 N   0  0  0  0  0  0
  -25.9314  -11.6466   20.5749 N   0  0  0  0  0  0
  -22.0505  -12.8240   22.0388 N   0  0  0  0  0  0
  -25.4354  -15.1861   20.4087 N   0  0  0  0  0  0
  -31.7932  -14.6676   20.0843 O   0  0  0  0  0  0
  -21.6634   -6.8877   21.4243 O   0  0  0  0  0  0
  -22.3563  -14.5556   20.6691 O   0  0  0  0  0  0
  -24.6101  -31.8706   23.2121 C   0  0  0  0  0  0
  -25.9010  -32.4837   23.8411 C   0  0  1  0  0  0
  -27.2556  -27.4640   20.1064 C   0  0  0  0  0  0
  -25.5880  -33.8633   24.2345 N   0  0  0  0  0  0
  -23.3980  -30.4915   21.5513 C   0  0  2  0  0  0
  -24.8502  -28.9554   20.1245 C   0  0  0  0  0  0
  -22.7389  -29.4667   22.5012 C   0  0  0  0  0  0
  -18.0268  -28.1377   22.8495 C   0  0  0  0  0  0
  -24.1485  -36.7322   23.2639 C   0  0  0  0  0  0
  -25.9210  -30.8460   21.3603 C   0  0  0  0  0  0
  -26.0038  -29.4765   20.7225 C   0  0  0  0  0  0
  -27.2073  -28.7400   20.7184 C   0  0  0  0  0  0
  -26.0867  -26.9570   19.5027 C   0  0  0  0  0  0
  -24.8836  -27.6893   19.5144 C   0  0  0  0  0  0
  -23.6086  -29.8173   20.1683 C   0  0  0  0  0  0
  -25.4101  -36.3118   24.0345 C   0  0  1  0  0  0
  -20.5854  -28.3659   23.1332 C   0  0  2  0  0  0
  -20.6758  -26.9400   22.5423 C   0  0  0  0  0  0
  -19.5741  -26.6391   21.5210 C   0  0  0  0  0  0
  -18.1917  -26.7928   22.1618 C   0  0  0  0  0  0
  -19.1516  -28.8833   23.2912 C   0  0  0  0  0  0
  -18.9448  -30.1441   23.8919 C   0  0  0  0  0  0
  -17.6451  -30.6584   24.0569 C   0  0  0  0  0  0
  -25.9025  -34.9483   23.5142 C   0  0  0  0  0  0
  -16.5343  -29.9090   23.6323 C   0  0  0  0  0  0
  -16.7260  -28.6505   23.0345 C   0  0  0  0  0  0
  -26.4457  -31.6600   25.0718 C   0  0  0  0  0  0
  -25.3742  -31.3694   26.1483 C   0  0  0  0  0  0
  -27.0282  -30.3053   24.6050 C   0  0  0  0  0  0
  -27.6044  -32.4311   25.7471 C   0  0  0  0  0  0
  -27.5581  -37.1813   24.8463 C   0  0  0  0  0  0
  -21.4120  -29.3033   22.3745 N   0  0  0  0  0  0
  -26.4291  -37.3798   23.9411 N   0  0  0  0  0  0
  -24.6609  -31.0836   22.1006 N   0  0  0  0  0  0
  -23.4171  -28.8212   23.3049 O   0  0  0  0  0  0
  -28.3914  -26.6905   19.9927 O   0  0  0  0  0  0
  -26.5588  -34.8928   22.4703 O   0  0  0  0  0  0
  -23.5302  -32.1443   23.7533 O   0  0  0  0  0  0
  -31.3006  -17.4510   21.0488 C   0  0  0  0  0  0
  -30.2899  -16.6499   21.5399 C   0  0  0  0  0  0
  -30.1170  -19.0556   22.1609 C   0  0  0  0  0  0
  -30.9907  -19.5797   24.9560 C   0  0  0  0  0  0
  -27.7021  -22.8663   22.9213 C   0  0  0  0  0  0
  -30.7851  -20.7157   23.9368 C   0  0  0  0  0  0
  -29.3275  -24.1356   21.3864 C   0  0  0  0  0  0
  -29.3791  -26.7020   21.0225 C   0  0  0  0  0  0
  -29.7965  -20.3952   22.7833 C   0  0  1  0  0  0
  -29.1391  -22.9274   22.3538 C   0  0  2  0  0  0
  -29.6243  -21.5630   21.7451 C   0  0  2  0  0  0
  -29.1497  -25.5432   22.0210 C   0  0  2  0  0  0
  -31.1880  -18.8040   21.4017 N   0  0  0  0  0  0
  -30.0720  -15.3131   21.4064 N   0  0  0  0  0  0
  -28.7544  -21.1663   20.6160 N   0  3  0  0  0  0
  -30.0742  -25.6959   23.0866 O   0  0  0  0  0  0
  -29.1529  -17.6112   22.4575 S   0  0  0  0  0  0
  -31.4702  -12.4052   19.1031 H   0  0  0  0  0  0
  -30.3329  -11.2756   19.7785 H   0  0  0  0  0  0
  -29.7289  -11.8098   17.4044 H   0  0  0  0  0  0
  -29.6639  -13.5126   17.7811 H   0  0  0  0  0  0
  -27.8201  -11.3190   18.7923 H   0  0  0  0  0  0
  -27.3636  -12.6675   17.7861 H   0  0  0  0  0  0
  -27.7255  -14.2537   19.6084 H   0  0  0  0  0  0
  -28.6762  -11.8871   21.2924 H   0  0  0  0  0  0
  -28.4542  -13.4908   21.8988 H   0  0  0  0  0  0
  -25.2757   -9.5683   22.4746 H   0  0  0  0  0  0
  -23.9999   -7.4633   22.7464 H   0  0  0  0  0  0
  -21.0838   -8.8770   19.8946 H   0  0  0  0  0  0
  -22.3692  -10.9667   19.6149 H   0  0  0  0  0  0
  -21.2008   -7.6141   23.9718 H   0  0  0  0  0  0
  -21.1474   -6.0512   25.9079 H   0  0  0  0  0  0
  -22.0600   -2.7607   23.2841 H   0  0  0  0  0  0
  -22.4101  -11.9889   22.4767 H   0  0  0  0  0  0
  -21.1123  -13.1274   22.2593 H   0  0  0  0  0  0
  -24.6714  -15.8445   20.5160 H   0  0  0  0  0  0
  -26.2947  -15.6229   20.0986 H   0  0  0  0  0  0
  -26.7087  -32.5581   23.1191 H   0  0  0  0  0  0
  -25.0033  -33.9802   25.0492 H   0  0  0  0  0  0
  -22.6849  -31.3062   21.4094 H   0  0  0  0  0  0
  -23.3739  -35.9663   23.3312 H   0  0  0  0  0  0
  -24.3582  -36.8923   22.2052 H   0  0  0  0  0  0
  -23.7244  -37.6535   23.6643 H   0  0  0  0  0  0
  -26.0217  -31.6055   20.5836 H   0  0  0  0  0  0
  -26.8126  -30.9127   21.9716 H   0  0  0  0  0  0
  -28.0865  -29.1857   21.1582 H   0  0  0  0  0  0
  -26.1123  -25.9900   19.0201 H   0  0  0  0  0  0
  -23.9988  -27.2796   19.0471 H   0  0  0  0  0  0
  -23.7141  -30.5881   19.4038 H   0  0  0  0  0  0
  -22.7356  -29.2311   19.8755 H   0  0  0  0  0  0
  -25.1272  -36.1989   25.0838 H   0  0  0  0  0  0
  -20.9947  -28.3220   24.1452 H   0  0  0  0  0  0
  -20.5661  -26.2262   23.3602 H   0  0  0  0  0  0
  -21.6632  -26.7447   22.1218 H   0  0  0  0  0  0
  -19.6902  -25.6305   21.1230 H   0  0  0  0  0  0
  -19.6683  -27.3210   20.6746 H   0  0  0  0  0  0
  -17.4191  -26.6688   21.4013 H   0  0  0  0  0  0
  -18.0311  -26.0058   22.9002 H   0  0  0  0  0  0
  -19.7923  -30.7250   24.2297 H   0  0  0  0  0  0
  -17.5009  -31.6265   24.5170 H   0  0  0  0  0  0
  -15.5346  -30.3003   23.7628 H   0  0  0  0  0  0
  -15.8659  -28.0833   22.7049 H   0  0  0  0  0  0
  -24.5896  -30.7061   25.7825 H   0  0  0  0  0  0
  -24.8953  -32.2849   26.4971 H   0  0  0  0  0  0
  -25.8111  -30.8834   27.0216 H   0  0  0  0  0  0
  -26.2808  -29.6823   24.1122 H   0  0  0  0  0  0
  -27.4097  -29.7273   25.4478 H   0  0  0  0  0  0
  -27.8622  -30.4394   23.9156 H   0  0  0  0  0  0
  -27.2673  -33.3597   26.2089 H   0  0  0  0  0  0
  -28.3828  -32.6894   25.0279 H   0  0  0  0  0  0
  -28.0741  -31.8411   26.5352 H   0  0  0  0  0  0
  -28.2604  -38.0104   24.7504 H   0  0  0  0  0  0
  -28.1069  -36.2637   24.6286 H   0  0  0  0  0  0
  -27.2305  -37.1470   25.8868 H   0  0  0  0  0  0
  -20.9276  -29.8752   21.6968 H   0  0  0  0  0  0
  -26.0184  -38.2881   24.1401 H   0  0  0  0  0  0
  -32.1452  -17.1516   20.4435 H   0  0  0  0  0  0
  -31.6375  -19.9064   25.7709 H   0  0  0  0  0  0
  -31.4613  -18.7058   24.5043 H   0  0  0  0  0  0
  -30.0434  -19.2643   25.3950 H   0  0  0  0  0  0
  -27.4653  -23.7653   23.4899 H   0  0  0  0  0  0
  -27.5646  -22.0358   23.6121 H   0  0  0  0  0  0
  -26.9520  -22.7760   22.1351 H   0  0  0  0  0  0
  -31.7557  -20.9806   23.5147 H   0  0  0  0  0  0
  -30.4465  -21.5877   24.4937 H   0  0  0  0  0  0
  -28.6285  -24.0468   20.5536 H   0  0  0  0  0  0
  -30.3215  -24.0828   20.9389 H   0  0  0  0  0  0
  -30.3508  -26.5828   20.5413 H   0  0  0  0  0  0
  -29.4364  -27.6498   21.5534 H   0  0  0  0  0  0
  -28.8267  -20.2508   23.2580 H   0  0  0  0  0  0
  -29.7944  -23.1397   23.1952 H   0  0  0  0  0  0
  -30.6127  -21.7303   21.3127 H   0  0  0  0  0  0
  -28.1440  -25.6444   22.4298 H   0  0  0  0  0  0
  -29.2326  -14.9588   21.8389 H   0  0  0  0  0  0
  -27.8146  -20.9774   20.9176 H   0  0  0  0  0  0
  -29.1222  -20.3414   20.1742 H   0  0  0  0  0  0
  -28.7267  -21.8901   19.9200 H   0  0  0  0  0  0
  -30.9512  -25.7206   22.7165 H   0  0  0  0  0  0
  1 25  1  0  0  0
  1 30  2  0  0  0
  1 84  1  0  0  0
  2  3  1  0  0  0
  2 25  1  0  0  0
  2 88  1  0  0  0
  2 89  1  0  0  0
  3  4  1  0  0  0
  3 90  1  0  0  0
  3 91  1  0  0  0
  4  5  1  0  0  0
  4 92  1  0  0  0
  4 93  1  0  0  0
  5  6  1  0  0  0
  5 26  1  0  0  0
  5 94  1  0  0  0
  6 25  1  0  0  0
  6 95  1  0  0  0
  6 96  1  0  0  0
  7  8  2  0  0  0
  7 26  1  0  0  0
  7 29  1  0  0  0
  8  9  1  0  0  0
  8 22  1  0  0  0
  9 10  1  0  0  0
  9 27  2  0  0  0
 10 11  2  0  0  0
 10 15  1  0  0  0
 11 12  1  0  0  0
 11 97  1  0  0  0
 12 13  2  0  0  0
 12 98  1  0  0  0
 13 14  1  0  0  0
 13 31  1  0  0  0
 14 15  2  0  0  0
 14 99  1  0  0  0
 15100  1  0  0  0
 16 17  2  0  0  0
 16 21  1  0  0  0
 16 31  1  0  0  0
 17 18  1  0  0  0
 17101  1  0  0  0
 18 19  2  0  0  0
 18102  1  0  0  0
 19 20  1  0  0  0
 19 24  1  0  0  0
 20 21  2  0  0  0
 20103  1  0  0  0
 21 23  1  0  0  0
 22 28  1  0  0  0
 22 32  2  0  0  0
 26 27  1  0  0  0
 28104  1  0  0  0
 28105  1  0  0  0
 29106  1  0  0  0
 29107  1  0  0  0
 33 34  1  0  0  0
 33 66  1  0  0  0
 33 70  2  0  0  0
 34 36  1  0  0  0
 34 59  1  0  0  0
 34108  1  0  0  0
 35 44  2  0  0  0
 35 45  1  0  0  0
 35 68  1  0  0  0
 36 56  1  0  0  0
 36109  1  0  0  0
 37 39  1  0  0  0
 37 47  1  0  0  0
 37 66  1  0  0  0
 37110  1  0  0  0
 38 43  2  0  0  0
 38 46  1  0  0  0
 38 47  1  0  0  0
 39 64  1  0  0  0
 39 67  2  0  0  0
 40 52  1  0  0  0
 40 53  2  0  0  0
 40 58  1  0  0  0
 41111  1  0  0  0
 41112  1  0  0  0
 41113  1  0  0  0
 41 48  1  0  0  0
 42 43  1  0  0  0
 42 66  1  0  0  0
 42114  1  0  0  0
 42115  1  0  0  0
 43 44  1  0  0  0
 44116  1  0  0  0
 45 46  2  0  0  0
 45117  1  0  0  0
 46118  1  0  0  0
 47119  1  0  0  0
 47120  1  0  0  0
 48 56  1  0  0  0
 48 65  1  0  0  0
 48121  1  0  0  0
 49 50  1  0  0  0
 49 53  1  0  0  0
 49 64  1  0  0  0
 49122  1  0  0  0
 50 51  1  0  0  0
 50123  1  0  0  0
 50124  1  0  0  0
 51 52  1  0  0  0
 51125  1  0  0  0
 51126  1  0  0  0
 52127  1  0  0  0
 52128  1  0  0  0
 53 54  1  0  0  0
 54 55  2  0  0  0
 54129  1  0  0  0
 55 57  1  0  0  0
 55130  1  0  0  0
 56 69  2  0  0  0
 57 58  2  0  0  0
 57131  1  0  0  0
 58132  1  0  0  0
 59 60  1  0  0  0
 59 61  1  0  0  0
 59 62  1  0  0  0
 60133  1  0  0  0
 60134  1  0  0  0
 60135  1  0  0  0
 61136  1  0  0  0
 61137  1  0  0  0
 61138  1  0  0  0
 62139  1  0  0  0
 62140  1  0  0  0
 62141  1  0  0  0
 63 65  1  0  0  0
 63142  1  0  0  0
 63143  1  0  0  0
 63144  1  0  0  0
 64145  1  0  0  0
 65146  1  0  0  0
 68 78  1  0  0  0
 71 72  2  0  0  0
 71 83  1  0  0  0
 71147  1  0  0  0
 72 84  1  0  0  0
 72 87  1  0  0  0
 73 79  1  0  0  0
 73 83  2  0  0  0
 73 87  1  0  0  0
 74 76  1  0  0  0
 74148  1  0  0  0
 74149  1  0  0  0
 74150  1  0  0  0
 75151  1  0  0  0
 75152  1  0  0  0
 75153  1  0  0  0
 75 80  1  0  0  0
 76154  1  0  0  0
 76155  1  0  0  0
 76 79  1  0  0  0
 77 80  1  0  0  0
 77 82  1  0  0  0
 77156  1  0  0  0
 77157  1  0  0  0
 78 82  1  0  0  0
 78158  1  0  0  0
 78159  1  0  0  0
 79 81  1  0  0  0
 79160  1  0  0  0
 80 81  1  0  0  0
 80161  1  0  0  0
 81 85  1  0  0  0
 81162  1  0  0  0
 82 86  1  0  0  0
 82163  1  0  0  0
 84164  1  0  0  0
 85165  1  0  0  0
 85166  1  0  0  0
 85167  1  0  0  0
 86168  1  0  0  0
M  CHG  1  85   1
M  ISO  4   1 100  68 101  78 101  84 100
M  END
> <chiral flag>
0

> <version>
0

> <s_m_source_file>
/data/baiqing/PycharmProjects/Reinvent-master-3.2/result/LINK_invent/BTK/process_docking_weight1_custom_product_contain_oxygen_bond_distance_aromatic_linkinvent_7_9_3/rearranged_h_0190.sdf

> <i_m_source_file_index>
33

> <r_mmod_Potential_Energy-OPLS-2005>
-308.299285888672

> <r_mmod_Stretch_Energy-OPLS-2005>
38.9857177734375

> <r_mmod_Bend_Energy-OPLS-2005>
115.905097961426

> <r_mmod_Torsional_Energy-OPLS-2005>
216.735076904297

> <r_mmod_Improper_Torsional_Energy-OPLS-2005>
2.57479429244995

> <r_mmod_Van_der_Waal_Energy-OPLS-2005>
134.080535888672

> <r_mmod_Electrostatic_Energy-OPLS-2005>
-330.277282714844

> <r_mmod_Solvation_Energy-OPLS-2005>
-493.392364501953

> <b_mmod_Minimization_Converged-OPLS-2005>
0

> <r_mmod_RMS_Derivative-OPLS-2005>
0.545940697193146

$$$$
33
                    3D
 Structure written by MMmdl.
160168  0  0  1  0            999 V2000
  -30.6415  -14.5589   20.5197 C   0  0  0  0  0  0
  -30.4270  -12.3410   19.4500 C   0  0  0  0  0  0
  -29.5039  -12.4901   18.2208 C   0  0  0  0  0  0
  -28.0178  -12.3678   18.6213 C   0  0  0  0  0  0
  -27.6505  -13.2148   19.8699 C   0  0  2  0  0  0
  -28.6920  -13.0287   20.9950 C   0  0  0  0  0  0
  -25.2534  -13.8157   20.5695 C   0  0  0  0  0  0
  -24.1793  -13.0412   20.9178 C   0  0  0  0  0  0
  -24.6366  -11.6888   20.8710 C   0  0  0  0  0  0
  -23.9041  -10.4271   21.0387 C   0  0  0  0  0  0
  -24.3609   -9.4204   21.9168 C   0  0  0  0  0  0
  -23.6286   -8.2251   22.0761 C   0  0  0  0  0  0
  -22.4264   -8.0277   21.3564 C   0  0  0  0  0  0
  -21.9890   -9.0228   20.4654 C   0  0  0  0  0  0
  -22.7216  -10.2097   20.3040 C   0  0  0  0  0  0
  -21.6826   -6.0758   22.5298 C   0  0  0  0  0  0
  -21.4002   -6.5660   23.8240 C   0  0  0  0  0  0
  -21.3688   -5.6808   24.9193 C   0  0  0  0  0  0
  -21.6036   -4.3073   24.7234 C   0  0  0  0  0  0
  -21.8808   -3.8173   23.4349 C   0  0  0  0  0  0
  -21.9192   -4.6992   22.3406 C   0  0  0  0  0  0
  -22.7825  -13.5247   21.1843 C   0  0  0  0  0  0
  -22.1669   -4.2195   21.0975 F   0  0  0  0  0  0
  -21.5652   -3.4568   25.7746 F   0  0  0  0  0  0
  -30.0130  -13.3493   20.4410 N   0  0  0  0  0  0
  -26.2961  -12.9333   20.3357 N   0  0  0  0  0  0
  -25.9304  -11.6484   20.5792 N   0  0  0  0  0  0
  -22.0433  -12.8245   22.0359 N   0  0  0  0  0  0
  -25.4199  -15.1879   20.4157 N   0  0  0  0  0  0
  -31.8175  -14.6956   20.1740 O   0  0  0  0  0  0
  -21.6622   -6.8877   21.4252 O   0  0  0  0  0  0
  -22.3565  -14.5598   20.6713 O   0  0  0  0  0  0
  -24.6211  -31.8646   23.2071 C   0  0  0  0  0  0
  -25.9073  -32.4816   23.8395 C   0  0  1  0  0  0
  -27.2179  -27.3670   20.1162 C   0  0  0  0  0  0
  -25.5914  -33.8617   24.2318 N   0  0  0  0  0  0
  -23.4100  -30.4890   21.5510 C   0  0  2  0  0  0
  -24.8545  -28.9446   20.1206 C   0  0  0  0  0  0
  -22.7436  -29.4644   22.4982 C   0  0  0  0  0  0
  -18.0260  -28.1402   22.8490 C   0  0  0  0  0  0
  -24.1490  -36.7317   23.2639 C   0  0  0  0  0  0
  -25.9454  -30.8073   21.3717 C   0  0  0  0  0  0
  -26.0189  -29.4336   20.7278 C   0  0  0  0  0  0
  -27.2062  -28.6527   20.7226 C   0  0  0  0  0  0
  -26.0426  -26.9202   19.4799 C   0  0  0  0  0  0
  -24.8650  -27.6893   19.4920 C   0  0  0  0  0  0
  -23.6215  -29.8213   20.1672 C   0  0  0  0  0  0
  -25.4111  -36.3115   24.0334 C   0  0  1  0  0  0
  -20.5862  -28.3691   23.1306 C   0  0  2  0  0  0
  -20.6769  -26.9417   22.5416 C   0  0  0  0  0  0
  -19.5741  -26.6373   21.5234 C   0  0  0  0  0  0
  -18.1909  -26.7944   22.1626 C   0  0  0  0  0  0
  -19.1514  -28.8860   23.2892 C   0  0  0  0  0  0
  -18.9454  -30.1465   23.8904 C   0  0  0  0  0  0
  -17.6460  -30.6613   24.0552 C   0  0  0  0  0  0
  -25.9037  -34.9478   23.5118 C   0  0  0  0  0  0
  -16.5344  -29.9110   23.6340 C   0  0  0  0  0  0
  -16.7250  -28.6525   23.0361 C   0  0  0  0  0  0
  -26.4473  -31.6608   25.0745 C   0  0  0  0  0  0
  -25.3704  -31.3721   26.1471 C   0  0  0  0  0  0
  -27.0349  -30.3070   24.6140 C   0  0  0  0  0  0
  -27.6037  -32.4343   25.7520 C   0  0  0  0  0  0
  -27.5581  -37.1812   24.8456 C   0  0  0  0  0  0
  -21.4153  -29.3058   22.3735 N   0  0  0  0  0  0
  -26.4298  -37.3796   23.9397 N   0  0  0  0  0  0
  -24.6772  -31.0703   22.1002 N   0  0  0  0  0  0
  -23.4181  -28.8171   23.3034 O   0  0  0  0  0  0
  -28.3630  -26.5860   20.0270 O   0  0  0  0  0  0
  -26.5595  -34.8920   22.4673 O   0  0  0  0  0  0
  -23.5387  -32.1437   23.7420 O   0  0  0  0  0  0
  -30.4805  -17.4719   19.2796 C   0  0  0  0  0  0
  -29.9275  -17.0077   20.4595 C   0  0  0  0  0  0
  -29.4810  -19.2818   20.6695 C   0  0  0  0  0  0
  -31.1122  -16.7296   18.1445 C   0  0  0  0  0  0
  -26.8629  -23.9218   22.0933 C   0  0  0  0  0  0
  -30.7242  -22.2445   20.8008 C   0  0  0  0  0  0
  -28.2653  -22.7833   20.2745 C   0  0  0  0  0  0
  -28.5411  -25.4586   20.9342 C   0  0  0  0  0  0
  -27.6542  -24.1542   20.7941 C   0  0  2  0  0  0
  -29.2599  -21.9477   21.1623 C   0  0  1  0  0  0
  -29.3156  -18.0514   21.2055 N   0  0  0  0  0  0
  -29.8437  -15.6139   20.8515 N   0  0  0  0  0  0
  -28.9911  -20.4850   21.2277 N   0  0  0  0  0  0
  -30.3673  -19.2204   19.1577 S   0  0  0  0  0  0
  -31.4727  -12.4495   19.1585 H   0  0  0  0  0  0
  -30.3385  -11.3392   19.8749 H   0  0  0  0  0  0
  -29.7492  -11.7312   17.4771 H   0  0  0  0  0  0
  -29.6856  -13.4508   17.7372 H   0  0  0  0  0  0
  -27.8147  -11.3118   18.8094 H   0  0  0  0  0  0
  -27.3802  -12.6523   17.7852 H   0  0  0  0  0  0
  -27.6757  -14.2602   19.5608 H   0  0  0  0  0  0
  -28.6867  -11.9981   21.3549 H   0  0  0  0  0  0
  -28.4541  -13.6449   21.8624 H   0  0  0  0  0  0
  -25.2735   -9.5719   22.4736 H   0  0  0  0  0  0
  -24.0013   -7.4677   22.7475 H   0  0  0  0  0  0
  -21.0828   -8.8716   19.8960 H   0  0  0  0  0  0
  -22.3659  -10.9632   19.6144 H   0  0  0  0  0  0
  -21.1976   -7.6174   23.9771 H   0  0  0  0  0  0
  -21.1532   -6.0529   25.9106 H   0  0  0  0  0  0
  -22.0561   -2.7650   23.2824 H   0  0  0  0  0  0
  -22.4030  -11.9922   22.4788 H   0  0  0  0  0  0
  -21.1079  -13.1340   22.2591 H   0  0  0  0  0  0
  -24.6422  -15.8278   20.5320 H   0  0  0  0  0  0
  -26.2772  -15.6542   20.1465 H   0  0  0  0  0  0
  -26.7144  -32.5510   23.1157 H   0  0  0  0  0  0
  -25.0139  -33.9794   25.0517 H   0  0  0  0  0  0
  -22.7014  -31.3068   21.4091 H   0  0  0  0  0  0
  -23.3763  -35.9638   23.3294 H   0  0  0  0  0  0
  -24.3594  -36.8945   22.2058 H   0  0  0  0  0  0
  -23.7228  -37.6505   23.6668 H   0  0  0  0  0  0
  -26.0607  -31.5644   20.5954 H   0  0  0  0  0  0
  -26.8333  -30.8691   21.9884 H   0  0  0  0  0  0
  -28.1105  -29.0303   21.1790 H   0  0  0  0  0  0
  -26.0315  -25.9840   18.9432 H   0  0  0  0  0  0
  -23.9770  -27.3196   18.9982 H   0  0  0  0  0  0
  -23.7312  -30.5955   19.4067 H   0  0  0  0  0  0
  -22.7440  -29.2447   19.8697 H   0  0  0  0  0  0
  -25.1296  -36.1992   25.0832 H   0  0  0  0  0  0
  -20.9929  -28.3260   24.1437 H   0  0  0  0  0  0
  -20.5720  -26.2295   23.3614 H   0  0  0  0  0  0
  -21.6636  -26.7494   22.1179 H   0  0  0  0  0  0
  -19.6903  -25.6271   21.1294 H   0  0  0  0  0  0
  -19.6695  -27.3163   20.6746 H   0  0  0  0  0  0
  -17.4190  -26.6714   21.4004 H   0  0  0  0  0  0
  -18.0271  -26.0078   22.9012 H   0  0  0  0  0  0
  -19.7931  -30.7274   24.2272 H   0  0  0  0  0  0
  -17.5022  -31.6307   24.5126 H   0  0  0  0  0  0
  -15.5355  -30.3026   23.7663 H   0  0  0  0  0  0
  -15.8645  -28.0856   22.7079 H   0  0  0  0  0  0
  -24.5880  -30.7078   25.7777 H   0  0  0  0  0  0
  -24.8891  -32.2883   26.4911 H   0  0  0  0  0  0
  -25.8020  -30.8880   27.0243 H   0  0  0  0  0  0
  -26.2940  -29.6814   24.1156 H   0  0  0  0  0  0
  -27.4108  -29.7320   25.4610 H   0  0  0  0  0  0
  -27.8756  -30.4435   23.9335 H   0  0  0  0  0  0
  -27.2664  -33.3661   26.2081 H   0  0  0  0  0  0
  -28.3865  -32.6875   25.0354 H   0  0  0  0  0  0
  -28.0685  -31.8473   26.5458 H   0  0  0  0  0  0
  -28.2577  -38.0129   24.7544 H   0  0  0  0  0  0
  -28.1106  -36.2664   24.6258 H   0  0  0  0  0  0
  -27.2298  -37.1424   25.8856 H   0  0  0  0  0  0
  -20.9318  -29.8840   21.7012 H   0  0  0  0  0  0
  -26.0196  -38.2876   24.1392 H   0  0  0  0  0  0
  -32.1550  -16.5042   18.3644 H   0  0  0  0  0  0
  -31.0942  -17.3207   17.2301 H   0  0  0  0  0  0
  -30.5996  -15.7924   17.9311 H   0  0  0  0  0  0
  -26.1673  -23.0876   21.9943 H   0  0  0  0  0  0
  -26.2799  -24.8054   22.3583 H   0  0  0  0  0  0
  -27.5273  -23.7042   22.9298 H   0  0  0  0  0  0
  -30.9603  -23.2932   20.9807 H   0  0  0  0  0  0
  -30.9321  -22.0464   19.7478 H   0  0  0  0  0  0
  -31.4207  -21.6530   21.3987 H   0  0  0  0  0  0
  -28.7024  -22.9333   19.2867 H   0  0  0  0  0  0
  -27.4055  -22.1390   20.0821 H   0  0  0  0  0  0
  -29.5899  -25.1713   20.8827 H   0  0  0  0  0  0
  -28.4257  -25.8660   21.9393 H   0  0  0  0  0  0
  -26.9026  -24.3872   20.0442 H   0  0  0  0  0  0
  -29.1258  -22.2734   22.1930 H   0  0  0  0  0  0
  -28.9836  -15.3514   21.3071 H   0  0  0  0  0  0
  -28.3306  -20.2805   21.9712 H   0  0  0  0  0  0
  1 25  1  0  0  0
  1 30  2  0  0  0
  1 82  1  0  0  0
  2  3  1  0  0  0
  2 25  1  0  0  0
  2 85  1  0  0  0
  2 86  1  0  0  0
  3  4  1  0  0  0
  3 87  1  0  0  0
  3 88  1  0  0  0
  4  5  1  0  0  0
  4 89  1  0  0  0
  4 90  1  0  0  0
  5  6  1  0  0  0
  5 26  1  0  0  0
  5 91  1  0  0  0
  6 25  1  0  0  0
  6 92  1  0  0  0
  6 93  1  0  0  0
  7  8  2  0  0  0
  7 26  1  0  0  0
  7 29  1  0  0  0
  8  9  1  0  0  0
  8 22  1  0  0  0
  9 10  1  0  0  0
  9 27  2  0  0  0
 10 11  2  0  0  0
 10 15  1  0  0  0
 11 12  1  0  0  0
 11 94  1  0  0  0
 12 13  2  0  0  0
 12 95  1  0  0  0
 13 14  1  0  0  0
 13 31  1  0  0  0
 14 15  2  0  0  0
 14 96  1  0  0  0
 15 97  1  0  0  0
 16 17  2  0  0  0
 16 21  1  0  0  0
 16 31  1  0  0  0
 17 18  1  0  0  0
 17 98  1  0  0  0
 18 19  2  0  0  0
 18 99  1  0  0  0
 19 20  1  0  0  0
 19 24  1  0  0  0
 20 21  2  0  0  0
 20100  1  0  0  0
 21 23  1  0  0  0
 22 28  1  0  0  0
 22 32  2  0  0  0
 26 27  1  0  0  0
 28101  1  0  0  0
 28102  1  0  0  0
 29103  1  0  0  0
 29104  1  0  0  0
 33 34  1  0  0  0
 33 66  1  0  0  0
 33 70  2  0  0  0
 34 36  1  0  0  0
 34 59  1  0  0  0
 34105  1  0  0  0
 35 44  2  0  0  0
 35 45  1  0  0  0
 35 68  1  0  0  0
 36 56  1  0  0  0
 36106  1  0  0  0
 37 39  1  0  0  0
 37 47  1  0  0  0
 37 66  1  0  0  0
 37107  1  0  0  0
 38 43  2  0  0  0
 38 46  1  0  0  0
 38 47  1  0  0  0
 39 64  1  0  0  0
 39 67  2  0  0  0
 40 52  1  0  0  0
 40 53  2  0  0  0
 40 58  1  0  0  0
 41108  1  0  0  0
 41109  1  0  0  0
 41110  1  0  0  0
 41 48  1  0  0  0
 42 43  1  0  0  0
 42 66  1  0  0  0
 42111  1  0  0  0
 42112  1  0  0  0
 43 44  1  0  0  0
 44113  1  0  0  0
 45 46  2  0  0  0
 45114  1  0  0  0
 46115  1  0  0  0
 47116  1  0  0  0
 47117  1  0  0  0
 48 56  1  0  0  0
 48 65  1  0  0  0
 48118  1  0  0  0
 49 50  1  0  0  0
 49 53  1  0  0  0
 49 64  1  0  0  0
 49119  1  0  0  0
 50 51  1  0  0  0
 50120  1  0  0  0
 50121  1  0  0  0
 51 52  1  0  0  0
 51122  1  0  0  0
 51123  1  0  0  0
 52124  1  0  0  0
 52125  1  0  0  0
 53 54  1  0  0  0
 54 55  2  0  0  0
 54126  1  0  0  0
 55 57  1  0  0  0
 55127  1  0  0  0
 56 69  2  0  0  0
 57 58  2  0  0  0
 57128  1  0  0  0
 58129  1  0  0  0
 59 60  1  0  0  0
 59 61  1  0  0  0
 59 62  1  0  0  0
 60130  1  0  0  0
 60131  1  0  0  0
 60132  1  0  0  0
 61133  1  0  0  0
 61134  1  0  0  0
 61135  1  0  0  0
 62136  1  0  0  0
 62137  1  0  0  0
 62138  1  0  0  0
 63 65  1  0  0  0
 63139  1  0  0  0
 63140  1  0  0  0
 63141  1  0  0  0
 64142  1  0  0  0
 65143  1  0  0  0
 68 78  1  0  0  0
 71 72  2  0  0  0
 71 74  1  0  0  0
 71 84  1  0  0  0
 72 81  1  0  0  0
 72 82  1  0  0  0
 73 81  2  0  0  0
 73 83  1  0  0  0
 73 84  1  0  0  0
 74144  1  0  0  0
 74145  1  0  0  0
 74146  1  0  0  0
 75147  1  0  0  0
 75148  1  0  0  0
 75149  1  0  0  0
 75 79  1  0  0  0
 76150  1  0  0  0
 76151  1  0  0  0
 76152  1  0  0  0
 76 80  1  0  0  0
 77 79  1  0  0  0
 77 80  1  0  0  0
 77153  1  0  0  0
 77154  1  0  0  0
 78 79  1  0  0  0
 78155  1  0  0  0
 78156  1  0  0  0
 79157  1  0  0  0
 80 83  1  0  0  0
 80158  1  0  0  0
 82159  1  0  0  0
 83160  1  0  0  0
M  ISO  4   1 100  68 101  78 101  82 100
M  END
> <chiral flag>
0

> <version>
0

> <s_m_source_file>
/data/baiqing/PycharmProjects/Reinvent-master-3.2/result/LINK_invent/BTK/process_docking_weight1_custom_product_contain_oxygen_bond_distance_aromatic_linkinvent_7_9_3/rearranged_h_0190.sdf

> <i_m_source_file_index>
34

> <r_mmod_Potential_Energy-OPLS-2005>
-4.21958446502686

> <r_mmod_Stretch_Energy-OPLS-2005>
56.3311996459961

> <r_mmod_Bend_Energy-OPLS-2005>
144.356918334961

> <r_mmod_Torsional_Energy-OPLS-2005>
272.093811035156

> <r_mmod_Improper_Torsional_Energy-OPLS-2005>
4.65064907073975

> <r_mmod_Van_der_Waal_Energy-OPLS-2005>
118.049797058105

> <r_mmod_Electrostatic_Energy-OPLS-2005>
-420.711273193359

> <r_mmod_Solvation_Energy-OPLS-2005>
-205.738616943359

> <b_mmod_Minimization_Converged-OPLS-2005>
0

> <r_mmod_RMS_Derivative-OPLS-2005>
3.79908299446106

$$$$
34
                    3D
 Structure written by MMmdl.
159167  0  0  1  0            999 V2000
  -30.8298  -14.3530   20.6374 C   0  0  0  0  0  0
  -30.3986  -12.2792   19.3971 C   0  0  0  0  0  0
  -29.4727  -12.5081   18.1906 C   0  0  0  0  0  0
  -28.0019  -12.3690   18.6134 C   0  0  0  0  0  0
  -27.6609  -13.2129   19.8713 C   0  0  2  0  0  0
  -28.7071  -13.0102   20.9949 C   0  0  0  0  0  0
  -25.2567  -13.8190   20.5724 C   0  0  0  0  0  0
  -24.1808  -13.0459   20.9179 C   0  0  0  0  0  0
  -24.6383  -11.6935   20.8727 C   0  0  0  0  0  0
  -23.9056  -10.4320   21.0401 C   0  0  0  0  0  0
  -24.3610   -9.4231   21.9186 C   0  0  0  0  0  0
  -23.6293   -8.2255   22.0753 C   0  0  0  0  0  0
  -22.4280   -8.0292   21.3542 C   0  0  0  0  0  0
  -21.9918   -9.0258   20.4638 C   0  0  0  0  0  0
  -22.7233  -10.2145   20.3050 C   0  0  0  0  0  0
  -21.6862   -6.0734   22.5292 C   0  0  0  0  0  0
  -21.4008   -6.5634   23.8220 C   0  0  0  0  0  0
  -21.3654   -5.6786   24.9182 C   0  0  0  0  0  0
  -21.6050   -4.3050   24.7234 C   0  0  0  0  0  0
  -21.8821   -3.8145   23.4348 C   0  0  0  0  0  0
  -21.9190   -4.6958   22.3407 C   0  0  0  0  0  0
  -22.7841  -13.5258   21.1853 C   0  0  0  0  0  0
  -22.1665   -4.2138   21.0987 F   0  0  0  0  0  0
  -21.5625   -3.4539   25.7741 F   0  0  0  0  0  0
  -30.0549  -13.2554   20.4441 N   0  0  0  0  0  0
  -26.3010  -12.9372   20.3378 N   0  0  0  0  0  0
  -25.9318  -11.6529   20.5769 N   0  0  0  0  0  0
  -22.0457  -12.8262   22.0394 N   0  0  0  0  0  0
  -25.4320  -15.1911   20.4234 N   0  0  0  0  0  0
  -31.8132  -14.6007   19.9363 O   0  0  0  0  0  0
  -21.6635   -6.8883   21.4265 O   0  0  0  0  0  0
  -22.3523  -14.5569   20.6718 O   0  0  0  0  0  0
  -24.6175  -31.8655   23.2076 C   0  0  0  0  0  0
  -25.9058  -32.4798   23.8382 C   0  0  1  0  0  0
  -27.2145  -27.3858   20.0985 C   0  0  0  0  0  0
  -25.5907  -33.8608   24.2297 N   0  0  0  0  0  0
  -23.4097  -30.4915   21.5460 C   0  0  2  0  0  0
  -24.8521  -28.9615   20.1079 C   0  0  0  0  0  0
  -22.7442  -29.4673   22.4947 C   0  0  0  0  0  0
  -18.0268  -28.1387   22.8368 C   0  0  0  0  0  0
  -24.1487  -36.7304   23.2633 C   0  0  0  0  0  0
  -25.9440  -30.8127   21.3747 C   0  0  0  0  0  0
  -26.0160  -29.4475   20.7172 C   0  0  0  0  0  0
  -27.1993  -28.6637   20.7144 C   0  0  0  0  0  0
  -26.0333  -26.9466   19.4540 C   0  0  0  0  0  0
  -24.8574  -27.7123   19.4722 C   0  0  0  0  0  0
  -23.6186  -29.8327   20.1585 C   0  0  0  0  0  0
  -25.4116  -36.3104   24.0324 C   0  0  1  0  0  0
  -20.5860  -28.3669   23.1193 C   0  0  2  0  0  0
  -20.6730  -26.9417   22.5254 C   0  0  0  0  0  0
  -19.5684  -26.6443   21.5062 C   0  0  0  0  0  0
  -18.1903  -26.7920   22.1510 C   0  0  0  0  0  0
  -19.1515  -28.8871   23.2774 C   0  0  0  0  0  0
  -18.9430  -30.1461   23.8788 C   0  0  0  0  0  0
  -17.6417  -30.6563   24.0505 C   0  0  0  0  0  0
  -25.9043  -34.9466   23.5108 C   0  0  0  0  0  0
  -16.5317  -29.9046   23.6278 C   0  0  0  0  0  0
  -16.7242  -28.6481   23.0225 C   0  0  0  0  0  0
  -26.4472  -31.6591   25.0722 C   0  0  0  0  0  0
  -25.3702  -31.3738   26.1442 C   0  0  0  0  0  0
  -27.0307  -30.3006   24.6160 C   0  0  0  0  0  0
  -27.6027  -32.4334   25.7500 C   0  0  0  0  0  0
  -27.5584  -37.1823   24.8475 C   0  0  0  0  0  0
  -21.4163  -29.3041   22.3660 N   0  0  0  0  0  0
  -26.4303  -37.3785   23.9405 N   0  0  0  0  0  0
  -24.6759  -31.0728   22.0998 N   0  0  0  0  0  0
  -23.4193  -28.8238   23.3017 O   0  0  0  0  0  0
  -28.3520  -26.5870   20.1495 O   0  0  0  0  0  0
  -26.5606  -34.8932   22.4677 O   0  0  0  0  0  0
  -23.5338  -32.1438   23.7428 O   0  0  0  0  0  0
  -30.9044  -17.3950   22.6776 C   0  0  0  0  0  0
  -30.8427  -17.8702   23.9708 C   0  0  0  0  0  0
  -30.0526  -19.4731   22.2725 C   0  0  0  0  0  0
  -29.3838  -21.8220   21.7166 C   0  0  0  0  0  0
  -28.6836  -22.0319   19.2340 C   0  0  0  0  0  0
  -31.5195  -16.1003   22.2257 C   0  0  0  0  0  0
  -28.1633  -25.1644   19.9130 C   0  0  0  0  0  0
  -28.7113  -22.7081   20.6260 C   0  0  2  0  0  0
  -29.2058  -24.2047   20.5651 C   0  0  1  0  0  0
  -30.4228  -18.3071   21.7263 N   0  0  0  0  0  0
  -31.2570  -17.2368   25.1415 N   0  0  0  0  0  0
  -29.5763  -20.5156   21.4319 N   0  0  0  0  0  0
  -30.5689  -15.1069   21.7114 N   0  0  0  0  0  0
  -29.6974  -22.3190   22.7981 O   0  0  0  0  0  0
  -30.4241  -24.2743   19.8263 O   0  0  0  0  0  0
  -30.2007  -19.4947   24.0339 S   0  0  0  0  0  0
  -31.4453  -12.3299   19.0900 H   0  0  0  0  0  0
  -30.2678  -11.2670   19.7887 H   0  0  0  0  0  0
  -29.7027  -11.7881   17.4036 H   0  0  0  0  0  0
  -29.6504  -13.4968   17.7626 H   0  0  0  0  0  0
  -27.8075  -11.3135   18.8122 H   0  0  0  0  0  0
  -27.3463  -12.6397   17.7832 H   0  0  0  0  0  0
  -27.7064  -14.2605   19.5654 H   0  0  0  0  0  0
  -28.6596  -11.9884   21.3753 H   0  0  0  0  0  0
  -28.4758  -13.6533   21.8434 H   0  0  0  0  0  0
  -25.2765   -9.5702   22.4734 H   0  0  0  0  0  0
  -24.0011   -7.4645   22.7477 H   0  0  0  0  0  0
  -21.0831   -8.8758   19.8943 H   0  0  0  0  0  0
  -22.3692  -10.9662   19.6120 H   0  0  0  0  0  0
  -21.2005   -7.6142   23.9727 H   0  0  0  0  0  0
  -21.1474   -6.0510   25.9078 H   0  0  0  0  0  0
  -22.0605   -2.7611   23.2855 H   0  0  0  0  0  0
  -22.4078  -11.9916   22.4767 H   0  0  0  0  0  0
  -21.1056  -13.1236   22.2561 H   0  0  0  0  0  0
  -24.6815  -15.8578   20.5660 H   0  0  0  0  0  0
  -26.3054  -15.6312   20.1673 H   0  0  0  0  0  0
  -26.7136  -32.5465   23.1139 H   0  0  0  0  0  0
  -25.0103  -33.9782   25.0475 H   0  0  0  0  0  0
  -22.7017  -31.3092   21.4029 H   0  0  0  0  0  0
  -23.3741  -35.9640   23.3310 H   0  0  0  0  0  0
  -24.3588  -36.8911   22.2046 H   0  0  0  0  0  0
  -23.7256  -37.6515   23.6653 H   0  0  0  0  0  0
  -26.0725  -31.5785   20.6090 H   0  0  0  0  0  0
  -26.8233  -30.8588   22.0037 H   0  0  0  0  0  0
  -28.0890  -29.0199   21.2150 H   0  0  0  0  0  0
  -25.9859  -26.0068   18.9236 H   0  0  0  0  0  0
  -23.9676  -27.3432   18.9787 H   0  0  0  0  0  0
  -23.7340  -30.6059   19.3989 H   0  0  0  0  0  0
  -22.7435  -29.2510   19.8561 H   0  0  0  0  0  0
  -25.1298  -36.1965   25.0811 H   0  0  0  0  0  0
  -20.9884  -28.3179   24.1343 H   0  0  0  0  0  0
  -20.5594  -26.2304   23.3441 H   0  0  0  0  0  0
  -21.6545  -26.7405   22.0954 H   0  0  0  0  0  0
  -19.6888  -25.6348   21.1109 H   0  0  0  0  0  0
  -19.6575  -27.3265   20.6592 H   0  0  0  0  0  0
  -17.4130  -26.6636   21.3961 H   0  0  0  0  0  0
  -18.0361  -26.0014   22.8853 H   0  0  0  0  0  0
  -19.7927  -30.7270   24.2150 H   0  0  0  0  0  0
  -17.4940  -31.6246   24.5141 H   0  0  0  0  0  0
  -15.5295  -30.2890   23.7577 H   0  0  0  0  0  0
  -15.8676  -28.0836   22.6853 H   0  0  0  0  0  0
  -24.5873  -30.7092   25.7791 H   0  0  0  0  0  0
  -24.8870  -32.2884   26.4870 H   0  0  0  0  0  0
  -25.7996  -30.8921   27.0222 H   0  0  0  0  0  0
  -26.2865  -29.6764   24.1188 H   0  0  0  0  0  0
  -27.4021  -29.7278   25.4679 H   0  0  0  0  0  0
  -27.8738  -30.4309   23.9365 H   0  0  0  0  0  0
  -27.2636  -33.3643   26.2066 H   0  0  0  0  0  0
  -28.3830  -32.6895   25.0324 H   0  0  0  0  0  0
  -28.0682  -31.8456   26.5420 H   0  0  0  0  0  0
  -28.2617  -38.0102   24.7490 H   0  0  0  0  0  0
  -28.1055  -36.2640   24.6328 H   0  0  0  0  0  0
  -27.2292  -37.1496   25.8872 H   0  0  0  0  0  0
  -20.9302  -29.8754   21.6894 H   0  0  0  0  0  0
  -26.0178  -38.2856   24.1397 H   0  0  0  0  0  0
  -28.1770  -21.0679   19.2598 H   0  0  0  0  0  0
  -29.6892  -21.8563   18.8489 H   0  0  0  0  0  0
  -28.1481  -22.6389   18.5050 H   0  0  0  0  0  0
  -32.0729  -15.6313   23.0409 H   0  0  0  0  0  0
  -32.2887  -16.3450   21.4901 H   0  0  0  0  0  0
  -27.2060  -24.8730   20.3506 H   0  0  0  0  0  0
  -28.0878  -24.9761   18.8415 H   0  0  0  0  0  0
  -27.6713  -22.7389   20.9586 H   0  0  0  0  0  0
  -29.3925  -24.5576   21.5790 H   0  0  0  0  0  0
  -31.7277  -16.3375   25.1510 H   0  0  0  0  0  0
  -31.2577  -17.6753   26.0566 H   0  0  0  0  0  0
  -29.3492  -20.2407   20.4900 H   0  0  0  0  0  0
  -29.7642  -14.8852   22.2753 H   0  0  0  0  0  0
  -30.2526  -23.9304   18.9544 H   0  0  0  0  0  0
  1 25  1  0  0  0
  1 30  2  0  0  0
  1 83  1  0  0  0
  2  3  1  0  0  0
  2 25  1  0  0  0
  2 87  1  0  0  0
  2 88  1  0  0  0
  3  4  1  0  0  0
  3 89  1  0  0  0
  3 90  1  0  0  0
  4  5  1  0  0  0
  4 91  1  0  0  0
  4 92  1  0  0  0
  5  6  1  0  0  0
  5 26  1  0  0  0
  5 93  1  0  0  0
  6 25  1  0  0  0
  6 94  1  0  0  0
  6 95  1  0  0  0
  7  8  2  0  0  0
  7 26  1  0  0  0
  7 29  1  0  0  0
  8  9  1  0  0  0
  8 22  1  0  0  0
  9 10  1  0  0  0
  9 27  2  0  0  0
 10 11  2  0  0  0
 10 15  1  0  0  0
 11 12  1  0  0  0
 11 96  1  0  0  0
 12 13  2  0  0  0
 12 97  1  0  0  0
 13 14  1  0  0  0
 13 31  1  0  0  0
 14 15  2  0  0  0
 14 98  1  0  0  0
 15 99  1  0  0  0
 16 17  2  0  0  0
 16 21  1  0  0  0
 16 31  1  0  0  0
 17 18  1  0  0  0
 17100  1  0  0  0
 18 19  2  0  0  0
 18101  1  0  0  0
 19 20  1  0  0  0
 19 24  1  0  0  0
 20 21  2  0  0  0
 20102  1  0  0  0
 21 23  1  0  0  0
 22 28  1  0  0  0
 22 32  2  0  0  0
 26 27  1  0  0  0
 28103  1  0  0  0
 28104  1  0  0  0
 29105  1  0  0  0
 29106  1  0  0  0
 33 34  1  0  0  0
 33 66  1  0  0  0
 33 70  2  0  0  0
 34 36  1  0  0  0
 34 59  1  0  0  0
 34107  1  0  0  0
 35 44  2  0  0  0
 35 45  1  0  0  0
 35 68  1  0  0  0
 36 56  1  0  0  0
 36108  1  0  0  0
 37 39  1  0  0  0
 37 47  1  0  0  0
 37 66  1  0  0  0
 37109  1  0  0  0
 38 43  2  0  0  0
 38 46  1  0  0  0
 38 47  1  0  0  0
 39 64  1  0  0  0
 39 67  2  0  0  0
 40 52  1  0  0  0
 40 53  2  0  0  0
 40 58  1  0  0  0
 41110  1  0  0  0
 41111  1  0  0  0
 41112  1  0  0  0
 41 48  1  0  0  0
 42 43  1  0  0  0
 42 66  1  0  0  0
 42113  1  0  0  0
 42114  1  0  0  0
 43 44  1  0  0  0
 44115  1  0  0  0
 45 46  2  0  0  0
 45116  1  0  0  0
 46117  1  0  0  0
 47118  1  0  0  0
 47119  1  0  0  0
 48 56  1  0  0  0
 48 65  1  0  0  0
 48120  1  0  0  0
 49 50  1  0  0  0
 49 53  1  0  0  0
 49 64  1  0  0  0
 49121  1  0  0  0
 50 51  1  0  0  0
 50122  1  0  0  0
 50123  1  0  0  0
 51 52  1  0  0  0
 51124  1  0  0  0
 51125  1  0  0  0
 52126  1  0  0  0
 52127  1  0  0  0
 53 54  1  0  0  0
 54 55  2  0  0  0
 54128  1  0  0  0
 55 57  1  0  0  0
 55129  1  0  0  0
 56 69  2  0  0  0
 57 58  2  0  0  0
 57130  1  0  0  0
 58131  1  0  0  0
 59 60  1  0  0  0
 59 61  1  0  0  0
 59 62  1  0  0  0
 60132  1  0  0  0
 60133  1  0  0  0
 60134  1  0  0  0
 61135  1  0  0  0
 61136  1  0  0  0
 61137  1  0  0  0
 62138  1  0  0  0
 62139  1  0  0  0
 62140  1  0  0  0
 63 65  1  0  0  0
 63141  1  0  0  0
 63142  1  0  0  0
 63143  1  0  0  0
 64144  1  0  0  0
 65145  1  0  0  0
 68 77  1  0  0  0
 71 72  2  0  0  0
 71 76  1  0  0  0
 71 80  1  0  0  0
 72 81  1  0  0  0
 72 86  1  0  0  0
 73 80  2  0  0  0
 73 82  1  0  0  0
 73 86  1  0  0  0
 74 78  1  0  0  0
 74 82  1  0  0  0
 74 84  2  0  0  0
 75146  1  0  0  0
 75147  1  0  0  0
 75148  1  0  0  0
 75 78  1  0  0  0
 76 83  1  0  0  0
 76149  1  0  0  0
 76150  1  0  0  0
 77 79  1  0  0  0
 77151  1  0  0  0
 77152  1  0  0  0
 78 79  1  0  0  0
 78153  1  0  0  0
 79 85  1  0  0  0
 79154  1  0  0  0
 81155  1  0  0  0
 81156  1  0  0  0
 82157  1  0  0  0
 83158  1  0  0  0
 85159  1  0  0  0
M  ISO  4   1 100  68 101  77 101  83 100
M  END
> <chiral flag>
0

> <version>
0

> <s_m_source_file>
/data/baiqing/PycharmProjects/Reinvent-master-3.2/result/LINK_invent/BTK/process_docking_weight1_custom_product_contain_oxygen_bond_distance_aromatic_linkinvent_7_9_3/rearranged_h_0190.sdf

> <i_m_source_file_index>
35

> <r_mmod_Potential_Energy-OPLS-2005>
-157.870941162109

> <r_mmod_Stretch_Energy-OPLS-2005>
42.8131484985352

> <r_mmod_Bend_Energy-OPLS-2005>
113.174186706543

> <r_mmod_Torsional_Energy-OPLS-2005>
211.63020324707

> <r_mmod_Improper_Torsional_Energy-OPLS-2005>
3.35301685333252

> <r_mmod_Van_der_Waal_Energy-OPLS-2005>
149.021423339844

> <r_mmod_Electrostatic_Energy-OPLS-2005>
-423.227416992188

> <r_mmod_Solvation_Energy-OPLS-2005>
-272.907104492188

> <b_mmod_Minimization_Converged-OPLS-2005>
0

> <r_mmod_RMS_Derivative-OPLS-2005>
5.38770389556885

$$$$
35
                    3D
 Structure written by MMmdl.
160168  0  0  1  0            999 V2000
  -30.6584  -14.5745   20.5075 C   0  0  0  0  0  0
  -30.4206  -12.3546   19.4390 C   0  0  0  0  0  0
  -29.4933  -12.5014   18.2126 C   0  0  0  0  0  0
  -28.0146  -12.3494   18.6250 C   0  0  0  0  0  0
  -27.6474  -13.2146   19.8614 C   0  0  2  0  0  0
  -28.6912  -13.0598   20.9904 C   0  0  0  0  0  0
  -25.2499  -13.8176   20.5687 C   0  0  0  0  0  0
  -24.1769  -13.0420   20.9220 C   0  0  0  0  0  0
  -24.6347  -11.6904   20.8749 C   0  0  0  0  0  0
  -23.9022  -10.4287   21.0415 C   0  0  0  0  0  0
  -24.3594   -9.4215   21.9185 C   0  0  0  0  0  0
  -23.6297   -8.2235   22.0742 C   0  0  0  0  0  0
  -22.4279   -8.0268   21.3528 C   0  0  0  0  0  0
  -21.9899   -9.0232   20.4627 C   0  0  0  0  0  0
  -22.7209  -10.2125   20.3053 C   0  0  0  0  0  0
  -21.6839   -6.0738   22.5285 C   0  0  0  0  0  0
  -21.4018   -6.5643   23.8224 C   0  0  0  0  0  0
  -21.3662   -5.6790   24.9184 C   0  0  0  0  0  0
  -21.6048   -4.3054   24.7232 C   0  0  0  0  0  0
  -21.8814   -3.8150   23.4346 C   0  0  0  0  0  0
  -21.9194   -4.6966   22.3406 C   0  0  0  0  0  0
  -22.7802  -13.5224   21.1913 C   0  0  0  0  0  0
  -22.1653   -4.2156   21.0983 F   0  0  0  0  0  0
  -21.5631   -3.4532   25.7735 F   0  0  0  0  0  0
  -30.0092  -13.3755   20.4187 N   0  0  0  0  0  0
  -26.2926  -12.9352   20.3313 N   0  0  0  0  0  0
  -25.9263  -11.6498   20.5753 N   0  0  0  0  0  0
  -22.0451  -12.8166   22.0457 N   0  0  0  0  0  0
  -25.4177  -15.1878   20.4057 N   0  0  0  0  0  0
  -31.8379  -14.7072   20.1753 O   0  0  0  0  0  0
  -21.6632   -6.8869   21.4244 O   0  0  0  0  0  0
  -22.3480  -14.5519   20.6775 O   0  0  0  0  0  0
  -24.6212  -31.8605   23.2058 C   0  0  0  0  0  0
  -25.9035  -32.4768   23.8402 C   0  0  1  0  0  0
  -27.2256  -27.3553   20.0543 C   0  0  0  0  0  0
  -25.5878  -33.8596   24.2304 N   0  0  0  0  0  0
  -23.4140  -30.4812   21.5553 C   0  0  2  0  0  0
  -24.8560  -28.9457   20.1154 C   0  0  0  0  0  0
  -22.7442  -29.4582   22.5034 C   0  0  0  0  0  0
  -18.0241  -28.1329   22.8464 C   0  0  0  0  0  0
  -24.1450  -36.7296   23.2647 C   0  0  0  0  0  0
  -25.9571  -30.7858   21.3826 C   0  0  0  0  0  0
  -26.0244  -29.4163   20.7290 C   0  0  0  0  0  0
  -27.2058  -28.6237   20.7122 C   0  0  0  0  0  0
  -26.0319  -26.9323   19.4350 C   0  0  0  0  0  0
  -24.8587  -27.7061   19.4652 C   0  0  0  0  0  0
  -23.6188  -29.8101   20.1719 C   0  0  0  0  0  0
  -25.4084  -36.3075   24.0302 C   0  0  1  0  0  0
  -20.5843  -28.3594   23.1343 C   0  0  2  0  0  0
  -20.6692  -26.9331   22.5432 C   0  0  0  0  0  0
  -19.5685  -26.6340   21.5191 C   0  0  0  0  0  0
  -18.1880  -26.7863   22.1607 C   0  0  0  0  0  0
  -19.1502  -28.8772   23.2881 C   0  0  0  0  0  0
  -18.9417  -30.1377   23.8861 C   0  0  0  0  0  0
  -17.6421  -30.6535   24.0509 C   0  0  0  0  0  0
  -25.9044  -34.9451   23.5110 C   0  0  0  0  0  0
  -16.5309  -29.9007   23.6336 C   0  0  0  0  0  0
  -16.7234  -28.6449   23.0326 C   0  0  0  0  0  0
  -26.4418  -31.6599   25.0790 C   0  0  0  0  0  0
  -25.3637  -31.3708   26.1519 C   0  0  0  0  0  0
  -27.0265  -30.3027   24.6270 C   0  0  0  0  0  0
  -27.5980  -32.4367   25.7534 C   0  0  0  0  0  0
  -27.5563  -37.1773   24.8461 C   0  0  0  0  0  0
  -21.4151  -29.2968   22.3788 N   0  0  0  0  0  0
  -26.4254  -37.3781   23.9431 N   0  0  0  0  0  0
  -24.6827  -31.0608   22.1018 N   0  0  0  0  0  0
  -23.4220  -28.8089   23.3036 O   0  0  0  0  0  0
  -28.3517  -26.5262   20.0652 O   0  0  0  0  0  0
  -26.5665  -34.8892   22.4712 O   0  0  0  0  0  0
  -23.5361  -32.1433   23.7356 O   0  0  0  0  0  0
  -30.6017  -20.1104   21.6055 C   0  0  0  0  0  0
  -29.8252  -19.6921   20.5507 C   0  0  0  0  0  0
  -29.5070  -22.0109   20.4562 C   0  0  0  0  0  0
  -26.9094  -22.1896   17.9218 C   0  0  0  0  0  0
  -26.9930  -23.5316   18.6651 C   0  0  0  0  0  0
  -30.3190  -17.0898   20.9690 C   0  0  0  0  0  0
  -28.6294  -25.6164   18.9468 C   0  0  0  0  0  0
  -29.5523  -18.2156   20.1458 C   0  0  2  0  0  0
  -28.4312  -24.0266   18.9763 C   0  0  1  0  0  0
  -29.2659  -20.8154   19.8640 N   0  0  0  0  0  0
  -29.0621  -23.3094   20.1026 N   0  0  0  0  0  0
  -29.8869  -15.6642   20.7730 N   0  0  0  0  0  0
  -29.7977  -18.0585   18.7080 N   0  3  0  0  0  0
  -30.5563  -21.8396   21.8555 S   0  0  0  0  0  0
  -31.4640  -12.4657   19.1378 H   0  0  0  0  0  0
  -30.3344  -11.3538   19.8658 H   0  0  0  0  0  0
  -29.7444  -11.7561   17.4560 H   0  0  0  0  0  0
  -29.6522  -13.4760   17.7481 H   0  0  0  0  0  0
  -27.8365  -11.2968   18.8437 H   0  0  0  0  0  0
  -27.3651  -12.5971   17.7861 H   0  0  0  0  0  0
  -27.6693  -14.2519   19.5297 H   0  0  0  0  0  0
  -28.6801  -12.0398   21.3789 H   0  0  0  0  0  0
  -28.4479  -13.7068   21.8351 H   0  0  0  0  0  0
  -25.2729   -9.5695   22.4766 H   0  0  0  0  0  0
  -24.0010   -7.4618   22.7442 H   0  0  0  0  0  0
  -21.0842   -8.8751   19.8911 H   0  0  0  0  0  0
  -22.3671  -10.9671   19.6171 H   0  0  0  0  0  0
  -21.2010   -7.6149   23.9734 H   0  0  0  0  0  0
  -21.1488   -6.0514   25.9086 H   0  0  0  0  0  0
  -22.0591   -2.7613   23.2847 H   0  0  0  0  0  0
  -22.4059  -11.9806   22.4816 H   0  0  0  0  0  0
  -21.1079  -13.1165   22.2695 H   0  0  0  0  0  0
  -24.6443  -15.8359   20.5043 H   0  0  0  0  0  0
  -26.2536  -15.6268   20.0408 H   0  0  0  0  0  0
  -26.7116  -32.5416   23.1175 H   0  0  0  0  0  0
  -24.9852  -33.9773   25.0331 H   0  0  0  0  0  0
  -22.7032  -31.2977   21.4124 H   0  0  0  0  0  0
  -23.3675  -35.9664   23.3301 H   0  0  0  0  0  0
  -24.3534  -36.8980   22.2074 H   0  0  0  0  0  0
  -23.7254  -37.6505   23.6704 H   0  0  0  0  0  0
  -26.1048  -31.5248   20.5954 H   0  0  0  0  0  0
  -26.8379  -30.8346   22.0126 H   0  0  0  0  0  0
  -28.1010  -28.9813   21.2037 H   0  0  0  0  0  0
  -25.9815  -25.9859   18.9340 H   0  0  0  0  0  0
  -23.9627  -27.3479   18.9775 H   0  0  0  0  0  0
  -23.7076  -30.5750   19.4021 H   0  0  0  0  0  0
  -22.7432  -29.2127   19.9030 H   0  0  0  0  0  0
  -25.1261  -36.1923   25.0785 H   0  0  0  0  0  0
  -20.9876  -28.3103   24.1480 H   0  0  0  0  0  0
  -20.5549  -26.2174   23.3599 H   0  0  0  0  0  0
  -21.6559  -26.7324   22.1268 H   0  0  0  0  0  0
  -19.6837  -25.6262   21.1197 H   0  0  0  0  0  0
  -19.6626  -27.3122   20.6702 H   0  0  0  0  0  0
  -17.4146  -26.6540   21.4028 H   0  0  0  0  0  0
  -18.0297  -26.0017   22.9015 H   0  0  0  0  0  0
  -19.7902  -30.7180   24.2261 H   0  0  0  0  0  0
  -17.4979  -31.6239   24.5046 H   0  0  0  0  0  0
  -15.5297  -30.2858   23.7744 H   0  0  0  0  0  0
  -15.8633  -28.0779   22.7045 H   0  0  0  0  0  0
  -24.5777  -30.7101   25.7860 H   0  0  0  0  0  0
  -24.8807  -32.2813   26.5038 H   0  0  0  0  0  0
  -25.7943  -30.8837   27.0279 H   0  0  0  0  0  0
  -26.2852  -29.6782   24.1273 H   0  0  0  0  0  0
  -27.3902  -29.7326   25.4843 H   0  0  0  0  0  0
  -27.8758  -30.4346   23.9574 H   0  0  0  0  0  0
  -27.2605  -33.3684   26.2091 H   0  0  0  0  0  0
  -28.3752  -32.6929   25.0318 H   0  0  0  0  0  0
  -28.0651  -31.8511   26.5459 H   0  0  0  0  0  0
  -28.2557  -38.0098   24.7566 H   0  0  0  0  0  0
  -28.1073  -36.2629   24.6190 H   0  0  0  0  0  0
  -27.2289  -37.1359   25.8870 H   0  0  0  0  0  0
  -20.9289  -29.8798   21.7132 H   0  0  0  0  0  0
  -26.0090  -38.2843   24.1444 H   0  0  0  0  0  0
  -31.1730  -19.4975   22.2886 H   0  0  0  0  0  0
  -25.8936  -22.0208   17.5657 H   0  0  0  0  0  0
  -27.1604  -21.3365   18.5504 H   0  0  0  0  0  0
  -27.5639  -22.1853   17.0485 H   0  0  0  0  0  0
  -26.3778  -23.5046   19.5656 H   0  0  0  0  0  0
  -26.5214  -24.2279   17.9766 H   0  0  0  0  0  0
  -30.1806  -17.2925   22.0323 H   0  0  0  0  0  0
  -31.3922  -17.1875   20.7993 H   0  0  0  0  0  0
  -28.1543  -26.0046   18.0443 H   0  0  0  0  0  0
  -29.6884  -25.7772   18.7376 H   0  0  0  0  0  0
  -28.4862  -18.0445   20.2935 H   0  0  0  0  0  0
  -29.0166  -23.7069   18.1118 H   0  0  0  0  0  0
  -29.2878  -23.9690   20.8416 H   0  0  0  0  0  0
  -28.9160  -15.4638   20.9647 H   0  0  0  0  0  0
  -30.7802  -18.1010   18.5072 H   0  0  0  0  0  0
  -29.3431  -18.8155   18.2285 H   0  0  0  0  0  0
  -29.4270  -17.1901   18.3703 H   0  0  0  0  0  0
  1 25  1  0  0  0
  1 30  2  0  0  0
  1 82  1  0  0  0
  2  3  1  0  0  0
  2 25  1  0  0  0
  2 85  1  0  0  0
  2 86  1  0  0  0
  3  4  1  0  0  0
  3 87  1  0  0  0
  3 88  1  0  0  0
  4  5  1  0  0  0
  4 89  1  0  0  0
  4 90  1  0  0  0
  5  6  1  0  0  0
  5 26  1  0  0  0
  5 91  1  0  0  0
  6 25  1  0  0  0
  6 92  1  0  0  0
  6 93  1  0  0  0
  7  8  2  0  0  0
  7 26  1  0  0  0
  7 29  1  0  0  0
  8  9  1  0  0  0
  8 22  1  0  0  0
  9 10  1  0  0  0
  9 27  2  0  0  0
 10 11  2  0  0  0
 10 15  1  0  0  0
 11 12  1  0  0  0
 11 94  1  0  0  0
 12 13  2  0  0  0
 12 95  1  0  0  0
 13 14  1  0  0  0
 13 31  1  0  0  0
 14 15  2  0  0  0
 14 96  1  0  0  0
 15 97  1  0  0  0
 16 17  2  0  0  0
 16 21  1  0  0  0
 16 31  1  0  0  0
 17 18  1  0  0  0
 17 98  1  0  0  0
 18 19  2  0  0  0
 18 99  1  0  0  0
 19 20  1  0  0  0
 19 24  1  0  0  0
 20 21  2  0  0  0
 20100  1  0  0  0
 21 23  1  0  0  0
 22 28  1  0  0  0
 22 32  2  0  0  0
 26 27  1  0  0  0
 28101  1  0  0  0
 28102  1  0  0  0
 29103  1  0  0  0
 29104  1  0  0  0
 33 34  1  0  0  0
 33 66  1  0  0  0
 33 70  2  0  0  0
 34 36  1  0  0  0
 34 59  1  0  0  0
 34105  1  0  0  0
 35 44  2  0  0  0
 35 45  1  0  0  0
 35 68  1  0  0  0
 36 56  1  0  0  0
 36106  1  0  0  0
 37 39  1  0  0  0
 37 47  1  0  0  0
 37 66  1  0  0  0
 37107  1  0  0  0
 38 43  2  0  0  0
 38 46  1  0  0  0
 38 47  1  0  0  0
 39 64  1  0  0  0
 39 67  2  0  0  0
 40 52  1  0  0  0
 40 53  2  0  0  0
 40 58  1  0  0  0
 41108  1  0  0  0
 41109  1  0  0  0
 41110  1  0  0  0
 41 48  1  0  0  0
 42 43  1  0  0  0
 42 66  1  0  0  0
 42111  1  0  0  0
 42112  1  0  0  0
 43 44  1  0  0  0
 44113  1  0  0  0
 45 46  2  0  0  0
 45114  1  0  0  0
 46115  1  0  0  0
 47116  1  0  0  0
 47117  1  0  0  0
 48 56  1  0  0  0
 48 65  1  0  0  0
 48118  1  0  0  0
 49 50  1  0  0  0
 49 53  1  0  0  0
 49 64  1  0  0  0
 49119  1  0  0  0
 50 51  1  0  0  0
 50120  1  0  0  0
 50121  1  0  0  0
 51 52  1  0  0  0
 51122  1  0  0  0
 51123  1  0  0  0
 52124  1  0  0  0
 52125  1  0  0  0
 53 54  1  0  0  0
 54 55  2  0  0  0
 54126  1  0  0  0
 55 57  1  0  0  0
 55127  1  0  0  0
 56 69  2  0  0  0
 57 58  2  0  0  0
 57128  1  0  0  0
 58129  1  0  0  0
 59 60  1  0  0  0
 59 61  1  0  0  0
 59 62  1  0  0  0
 60130  1  0  0  0
 60131  1  0  0  0
 60132  1  0  0  0
 61133  1  0  0  0
 61134  1  0  0  0
 61135  1  0  0  0
 62136  1  0  0  0
 62137  1  0  0  0
 62138  1  0  0  0
 63 65  1  0  0  0
 63139  1  0  0  0
 63140  1  0  0  0
 63141  1  0  0  0
 64142  1  0  0  0
 65143  1  0  0  0
 68 77  1  0  0  0
 71 72  2  0  0  0
 71 84  1  0  0  0
 71144  1  0  0  0
 72 78  1  0  0  0
 72 80  1  0  0  0
 73 80  2  0  0  0
 73 81  1  0  0  0
 73 84  1  0  0  0
 74 75  1  0  0  0
 74145  1  0  0  0
 74146  1  0  0  0
 74147  1  0  0  0
 75148  1  0  0  0
 75149  1  0  0  0
 75 79  1  0  0  0
 76 78  1  0  0  0
 76 82  1  0  0  0
 76150  1  0  0  0
 76151  1  0  0  0
 77 79  1  0  0  0
 77152  1  0  0  0
 77153  1  0  0  0
 78 83  1  0  0  0
 78154  1  0  0  0
 79 81  1  0  0  0
 79155  1  0  0  0
 81156  1  0  0  0
 82157  1  0  0  0
 83158  1  0  0  0
 83159  1  0  0  0
 83160  1  0  0  0
M  CHG  1  83   1
M  ISO  4   1 100  68 101  77 101  82 100
M  END
> <chiral flag>
0

> <version>
0

> <s_m_source_file>
/data/baiqing/PycharmProjects/Reinvent-master-3.2/result/LINK_invent/BTK/process_docking_weight1_custom_product_contain_oxygen_bond_distance_aromatic_linkinvent_7_9_3/rearranged_h_0190.sdf

> <i_m_source_file_index>
36

> <r_mmod_Potential_Energy-OPLS-2005>
-444.083770751953

> <r_mmod_Stretch_Energy-OPLS-2005>
67.0630187988281

> <r_mmod_Bend_Energy-OPLS-2005>
154.039581298828

> <r_mmod_Torsional_Energy-OPLS-2005>
252.544357299805

> <r_mmod_Improper_Torsional_Energy-OPLS-2005>
5.06119823455811

> <r_mmod_Van_der_Waal_Energy-OPLS-2005>
119.418266296387

> <r_mmod_Electrostatic_Energy-OPLS-2005>
-561.416259765625

> <r_mmod_Solvation_Energy-OPLS-2005>
-516.243713378906

> <b_mmod_Minimization_Converged-OPLS-2005>
0

> <r_mmod_RMS_Derivative-OPLS-2005>
5.6865668296814

$$$$
36
                    3D
 Structure written by MMmdl.
159167  0  0  1  0            999 V2000
  -30.7542  -14.4079   20.6273 C   0  0  0  0  0  0
  -30.4107  -12.2952   19.4117 C   0  0  0  0  0  0
  -29.4832  -12.5151   18.2022 C   0  0  0  0  0  0
  -28.0084  -12.3705   18.6199 C   0  0  0  0  0  0
  -27.6599  -13.2075   19.8801 C   0  0  2  0  0  0
  -28.7006  -12.9831   21.0010 C   0  0  0  0  0  0
  -25.2567  -13.8164   20.5702 C   0  0  0  0  0  0
  -24.1816  -13.0443   20.9182 C   0  0  0  0  0  0
  -24.6361  -11.6904   20.8718 C   0  0  0  0  0  0
  -23.9030  -10.4291   21.0392 C   0  0  0  0  0  0
  -24.3600   -9.4213   21.9171 C   0  0  0  0  0  0
  -23.6292   -8.2237   22.0744 C   0  0  0  0  0  0
  -22.4273   -8.0263   21.3533 C   0  0  0  0  0  0
  -21.9892   -9.0231   20.4635 C   0  0  0  0  0  0
  -22.7202  -10.2125   20.3042 C   0  0  0  0  0  0
  -21.6856   -6.0716   22.5269 C   0  0  0  0  0  0
  -21.4017   -6.5627   23.8200 C   0  0  0  0  0  0
  -21.3656   -5.6790   24.9171 C   0  0  0  0  0  0
  -21.6048   -4.3052   24.7232 C   0  0  0  0  0  0
  -21.8814   -3.8128   23.4355 C   0  0  0  0  0  0
  -21.9197   -4.6939   22.3404 C   0  0  0  0  0  0
  -22.7838  -13.5225   21.1876 C   0  0  0  0  0  0
  -22.1663   -4.2118   21.0985 F   0  0  0  0  0  0
  -21.5637   -3.4544   25.7754 F   0  0  0  0  0  0
  -30.0379  -13.2670   20.4502 N   0  0  0  0  0  0
  -26.3001  -12.9336   20.3393 N   0  0  0  0  0  0
  -25.9289  -11.6483   20.5740 N   0  0  0  0  0  0
  -22.0510  -12.8180   22.0430 N   0  0  0  0  0  0
  -25.4329  -15.1877   20.4125 N   0  0  0  0  0  0
  -31.8418  -14.6091   20.0821 O   0  0  0  0  0  0
  -21.6644   -6.8856   21.4231 O   0  0  0  0  0  0
  -22.3508  -14.5543   20.6757 O   0  0  0  0  0  0
  -24.6128  -31.8711   23.2140 C   0  0  0  0  0  0
  -25.9026  -32.4834   23.8421 C   0  0  1  0  0  0
  -27.2270  -27.4522   20.0736 C   0  0  0  0  0  0
  -25.5895  -33.8631   24.2357 N   0  0  0  0  0  0
  -23.3988  -30.4968   21.5554 C   0  0  2  0  0  0
  -24.8384  -28.9671   20.1186 C   0  0  0  0  0  0
  -22.7397  -29.4688   22.5029 C   0  0  0  0  0  0
  -18.0292  -28.1382   22.8534 C   0  0  0  0  0  0
  -24.1494  -36.7323   23.2631 C   0  0  0  0  0  0
  -25.9257  -30.8420   21.3631 C   0  0  0  0  0  0
  -26.0000  -29.4776   20.7083 C   0  0  0  0  0  0
  -27.1949  -28.7259   20.6852 C   0  0  0  0  0  0
  -26.0366  -26.9501   19.4922 C   0  0  0  0  0  0
  -24.8486  -27.7007   19.5127 C   0  0  0  0  0  0
  -23.6045  -29.8342   20.1684 C   0  0  0  0  0  0
  -25.4110  -36.3116   24.0339 C   0  0  1  0  0  0
  -20.5881  -28.3677   23.1370 C   0  0  2  0  0  0
  -20.6799  -26.9431   22.5431 C   0  0  0  0  0  0
  -19.5746  -26.6405   21.5259 C   0  0  0  0  0  0
  -18.1934  -26.7915   22.1688 C   0  0  0  0  0  0
  -19.1538  -28.8842   23.2950 C   0  0  0  0  0  0
  -18.9449  -30.1461   23.8934 C   0  0  0  0  0  0
  -17.6452  -30.6595   24.0570 C   0  0  0  0  0  0
  -25.9028  -34.9479   23.5142 C   0  0  0  0  0  0
  -16.5348  -29.9098   23.6322 C   0  0  0  0  0  0
  -16.7287  -28.6520   23.0358 C   0  0  0  0  0  0
  -26.4466  -31.6597   25.0731 C   0  0  0  0  0  0
  -25.3741  -31.3682   26.1486 C   0  0  0  0  0  0
  -27.0293  -30.3055   24.6065 C   0  0  0  0  0  0
  -27.6051  -32.4305   25.7478 C   0  0  0  0  0  0
  -27.5589  -37.1816   24.8464 C   0  0  0  0  0  0
  -21.4126  -29.3053   22.3777 N   0  0  0  0  0  0
  -26.4304  -37.3798   23.9397 N   0  0  0  0  0  0
  -24.6636  -31.0845   22.1026 N   0  0  0  0  0  0
  -23.4181  -28.8221   23.3061 O   0  0  0  0  0  0
  -28.4255  -26.7659   20.0662 O   0  0  0  0  0  0
  -26.5580  -34.8931   22.4705 O   0  0  0  0  0  0
  -23.5331  -32.1458   23.7571 O   0  0  0  0  0  0
  -29.8155  -17.7162   22.0047 C   0  0  0  0  0  0
  -29.1000  -17.8608   23.1721 C   0  0  0  0  0  0
  -28.7422  -19.6685   21.5462 C   0  0  0  0  0  0
  -27.7890  -21.9105   21.0667 C   0  0  0  0  0  0
  -29.1237  -16.9710   24.3708 C   0  0  0  0  0  0
  -26.4013  -22.8910   19.2149 C   0  0  0  0  0  0
  -30.8086  -16.6423   21.6658 C   0  0  0  0  0  0
  -27.9501  -24.4118   20.5760 C   0  0  0  0  0  0
  -28.4692  -25.4356   19.5466 C   0  0  0  0  0  0
  -27.7318  -22.9982   19.9820 C   0  0  1  0  0  0
  -29.5762  -18.7377   21.0790 N   0  0  0  0  0  0
  -28.4755  -20.8028   20.7474 N   0  0  0  0  0  0
  -30.1890  -15.3458   21.3953 N   0  0  0  0  0  0
  -27.2161  -22.0912   22.1454 O   0  0  0  0  0  0
  -28.1244  -19.3104   23.1571 S   0  0  0  0  0  0
  -31.4558  -12.3800   19.1096 H   0  0  0  0  0  0
  -30.3015  -11.2819   19.8002 H   0  0  0  0  0  0
  -29.7213  -11.7989   17.4157 H   0  0  0  0  0  0
  -29.6510  -13.5063   17.7775 H   0  0  0  0  0  0
  -27.8240  -11.3137   18.8175 H   0  0  0  0  0  0
  -27.3515  -12.6421   17.7928 H   0  0  0  0  0  0
  -27.7075  -14.2569   19.5911 H   0  0  0  0  0  0
  -28.6640  -11.9503   21.3499 H   0  0  0  0  0  0
  -28.4572  -13.5906   21.8736 H   0  0  0  0  0  0
  -25.2752   -9.5692   22.4742 H   0  0  0  0  0  0
  -24.0003   -7.4618   22.7451 H   0  0  0  0  0  0
  -21.0831   -8.8726   19.8936 H   0  0  0  0  0  0
  -22.3645  -10.9659   19.6145 H   0  0  0  0  0  0
  -21.2006   -7.6132   23.9691 H   0  0  0  0  0  0
  -21.1497   -6.0531   25.9075 H   0  0  0  0  0  0
  -22.0605   -2.7587   23.2872 H   0  0  0  0  0  0
  -22.4166  -11.9828   22.4765 H   0  0  0  0  0  0
  -21.1120  -13.1150   22.2693 H   0  0  0  0  0  0
  -24.6724  -15.8492   20.5233 H   0  0  0  0  0  0
  -26.2930  -15.6242   20.1048 H   0  0  0  0  0  0
  -26.7094  -32.5573   23.1184 H   0  0  0  0  0  0
  -25.0030  -33.9802   25.0494 H   0  0  0  0  0  0
  -22.6875  -31.3130   21.4185 H   0  0  0  0  0  0
  -23.3751  -35.9665   23.3304 H   0  0  0  0  0  0
  -24.3583  -36.8926   22.2042 H   0  0  0  0  0  0
  -23.7270  -37.6539   23.6642 H   0  0  0  0  0  0
  -26.0373  -31.6129   20.5991 H   0  0  0  0  0  0
  -26.8136  -30.8939   21.9812 H   0  0  0  0  0  0
  -28.0944  -29.1229   21.1340 H   0  0  0  0  0  0
  -25.9914  -25.9841   19.0145 H   0  0  0  0  0  0
  -23.9507  -27.3015   19.0604 H   0  0  0  0  0  0
  -23.7173  -30.6100   19.4109 H   0  0  0  0  0  0
  -22.7290  -29.2536   19.8706 H   0  0  0  0  0  0
  -25.1301  -36.1960   25.0835 H   0  0  0  0  0  0
  -20.9988  -28.3237   24.1482 H   0  0  0  0  0  0
  -21.6671  -26.7539   22.1179 H   0  0  0  0  0  0
  -20.5789  -26.2273   23.3603 H   0  0  0  0  0  0
  -19.6925  -25.6352   21.1213 H   0  0  0  0  0  0
  -19.6637  -27.3269   20.6817 H   0  0  0  0  0  0
  -17.4205  -26.6653   21.4099 H   0  0  0  0  0  0
  -18.0326  -26.0058   22.9084 H   0  0  0  0  0  0
  -19.7932  -30.7263   24.2323 H   0  0  0  0  0  0
  -17.5012  -31.6262   24.5184 H   0  0  0  0  0  0
  -15.5354  -30.3001   23.7650 H   0  0  0  0  0  0
  -15.8696  -28.0834   22.7045 H   0  0  0  0  0  0
  -24.5910  -30.7033   25.7829 H   0  0  0  0  0  0
  -24.8931  -32.2826   26.4963 H   0  0  0  0  0  0
  -25.8100  -30.8829   27.0227 H   0  0  0  0  0  0
  -26.2838  -29.6821   24.1120 H   0  0  0  0  0  0
  -27.4095  -29.7262   25.4484 H   0  0  0  0  0  0
  -27.8653  -30.4396   23.9200 H   0  0  0  0  0  0
  -27.2680  -33.3588   26.2105 H   0  0  0  0  0  0
  -28.3826  -32.6886   25.0276 H   0  0  0  0  0  0
  -28.0757  -31.8392   26.5341 H   0  0  0  0  0  0
  -28.2615  -38.0103   24.7508 H   0  0  0  0  0  0
  -28.1068  -36.2633   24.6289 H   0  0  0  0  0  0
  -27.2302  -37.1491   25.8867 H   0  0  0  0  0  0
  -20.9283  -29.8787   21.7017 H   0  0  0  0  0  0
  -26.0185  -38.2881   24.1373 H   0  0  0  0  0  0
  -28.5202  -17.3763   25.1846 H   0  0  0  0  0  0
  -30.1432  -16.8511   24.7404 H   0  0  0  0  0  0
  -28.7375  -15.9826   24.1235 H   0  0  0  0  0  0
  -25.5493  -23.1302   19.8532 H   0  0  0  0  0  0
  -26.2503  -21.8794   18.8331 H   0  0  0  0  0  0
  -26.3780  -23.5667   18.3619 H   0  0  0  0  0  0
  -31.5209  -16.5216   22.4830 H   0  0  0  0  0  0
  -31.4020  -16.9600   20.8053 H   0  0  0  0  0  0
  -27.0183  -24.7583   21.0215 H   0  0  0  0  0  0
  -28.6677  -24.3745   21.3970 H   0  0  0  0  0  0
  -29.5108  -25.2072   19.3203 H   0  0  0  0  0  0
  -27.9594  -25.3631   18.5863 H   0  0  0  0  0  0
  -28.5437  -22.8023   19.2793 H   0  0  0  0  0  0
  -28.8861  -20.7877   19.8262 H   0  0  0  0  0  0
  -29.2777  -15.1666   21.7845 H   0  0  0  0  0  0
  1 25  1  0  0  0
  1 30  2  0  0  0
  1 83  1  0  0  0
  2  3  1  0  0  0
  2 25  1  0  0  0
  2 86  1  0  0  0
  2 87  1  0  0  0
  3  4  1  0  0  0
  3 88  1  0  0  0
  3 89  1  0  0  0
  4  5  1  0  0  0
  4 90  1  0  0  0
  4 91  1  0  0  0
  5  6  1  0  0  0
  5 26  1  0  0  0
  5 92  1  0  0  0
  6 25  1  0  0  0
  6 93  1  0  0  0
  6 94  1  0  0  0
  7  8  2  0  0  0
  7 26  1  0  0  0
  7 29  1  0  0  0
  8  9  1  0  0  0
  8 22  1  0  0  0
  9 10  1  0  0  0
  9 27  2  0  0  0
 10 11  2  0  0  0
 10 15  1  0  0  0
 11 12  1  0  0  0
 11 95  1  0  0  0
 12 13  2  0  0  0
 12 96  1  0  0  0
 13 14  1  0  0  0
 13 31  1  0  0  0
 14 15  2  0  0  0
 14 97  1  0  0  0
 15 98  1  0  0  0
 16 17  2  0  0  0
 16 21  1  0  0  0
 16 31  1  0  0  0
 17 18  1  0  0  0
 17 99  1  0  0  0
 18 19  2  0  0  0
 18100  1  0  0  0
 19 20  1  0  0  0
 19 24  1  0  0  0
 20 21  2  0  0  0
 20101  1  0  0  0
 21 23  1  0  0  0
 22 28  1  0  0  0
 22 32  2  0  0  0
 26 27  1  0  0  0
 28102  1  0  0  0
 28103  1  0  0  0
 29104  1  0  0  0
 29105  1  0  0  0
 33 34  1  0  0  0
 33 66  1  0  0  0
 33 70  2  0  0  0
 34 36  1  0  0  0
 34 59  1  0  0  0
 34106  1  0  0  0
 35 44  2  0  0  0
 35 45  1  0  0  0
 35 68  1  0  0  0
 36 56  1  0  0  0
 36107  1  0  0  0
 37 39  1  0  0  0
 37 47  1  0  0  0
 37 66  1  0  0  0
 37108  1  0  0  0
 38 43  2  0  0  0
 38 46  1  0  0  0
 38 47  1  0  0  0
 39 64  1  0  0  0
 39 67  2  0  0  0
 40 52  1  0  0  0
 40 53  2  0  0  0
 40 58  1  0  0  0
 41109  1  0  0  0
 41110  1  0  0  0
 41111  1  0  0  0
 41 48  1  0  0  0
 42 43  1  0  0  0
 42 66  1  0  0  0
 42112  1  0  0  0
 42113  1  0  0  0
 43 44  1  0  0  0
 44114  1  0  0  0
 45 46  2  0  0  0
 45115  1  0  0  0
 46116  1  0  0  0
 47117  1  0  0  0
 47118  1  0  0  0
 48 56  1  0  0  0
 48 65  1  0  0  0
 48119  1  0  0  0
 49 50  1  0  0  0
 49 53  1  0  0  0
 49 64  1  0  0  0
 49120  1  0  0  0
 50 51  1  0  0  0
 50121  1  0  0  0
 50122  1  0  0  0
 51 52  1  0  0  0
 51123  1  0  0  0
 51124  1  0  0  0
 52125  1  0  0  0
 52126  1  0  0  0
 53 54  1  0  0  0
 54 55  2  0  0  0
 54127  1  0  0  0
 55 57  1  0  0  0
 55128  1  0  0  0
 56 69  2  0  0  0
 57 58  2  0  0  0
 57129  1  0  0  0
 58130  1  0  0  0
 59 60  1  0  0  0
 59 61  1  0  0  0
 59 62  1  0  0  0
 60131  1  0  0  0
 60132  1  0  0  0
 60133  1  0  0  0
 61134  1  0  0  0
 61135  1  0  0  0
 61136  1  0  0  0
 62137  1  0  0  0
 62138  1  0  0  0
 62139  1  0  0  0
 63 65  1  0  0  0
 63140  1  0  0  0
 63141  1  0  0  0
 63142  1  0  0  0
 64143  1  0  0  0
 65144  1  0  0  0
 68 79  1  0  0  0
 71 72  2  0  0  0
 71 77  1  0  0  0
 71 81  1  0  0  0
 72 75  1  0  0  0
 72 85  1  0  0  0
 73 81  2  0  0  0
 73 82  1  0  0  0
 73 85  1  0  0  0
 74 80  1  0  0  0
 74 82  1  0  0  0
 74 84  2  0  0  0
 75145  1  0  0  0
 75146  1  0  0  0
 75147  1  0  0  0
 76148  1  0  0  0
 76149  1  0  0  0
 76150  1  0  0  0
 76 80  1  0  0  0
 77 83  1  0  0  0
 77151  1  0  0  0
 77152  1  0  0  0
 78 79  1  0  0  0
 78 80  1  0  0  0
 78153  1  0  0  0
 78154  1  0  0  0
 79155  1  0  0  0
 79156  1  0  0  0
 80157  1  0  0  0
 82158  1  0  0  0
 83159  1  0  0  0
M  ISO  4   1 100  68 101  79 101  83 100
M  END
> <chiral flag>
0

> <version>
0

> <s_m_source_file>
/data/baiqing/PycharmProjects/Reinvent-master-3.2/result/LINK_invent/BTK/process_docking_weight1_custom_product_contain_oxygen_bond_distance_aromatic_linkinvent_7_9_3/rearranged_h_0190.sdf

> <i_m_source_file_index>
37

> <r_mmod_Potential_Energy-OPLS-2005>
-300.682739257812

> <r_mmod_Stretch_Energy-OPLS-2005>
31.3233890533447

> <r_mmod_Bend_Energy-OPLS-2005>
99.9408416748047

> <r_mmod_Torsional_Energy-OPLS-2005>
193.6005859375

> <r_mmod_Improper_Torsional_Energy-OPLS-2005>
1.93184614181519

> <r_mmod_Van_der_Waal_Energy-OPLS-2005>
136.737579345703

> <r_mmod_Electrostatic_Energy-OPLS-2005>
-544.9931640625

> <r_mmod_Solvation_Energy-OPLS-2005>
-228.773483276367

> <b_mmod_Minimization_Converged-OPLS-2005>
0

> <r_mmod_RMS_Derivative-OPLS-2005>
2.40131568908691

$$$$
37
                    3D
 Structure written by MMmdl.
154163  0  0  1  0            999 V2000
  -30.6150  -14.7518   20.4477 C   0  0  0  0  0  0
  -30.4319  -12.4549   19.4839 C   0  0  0  0  0  0
  -29.5145  -12.5102   18.2423 C   0  0  0  0  0  0
  -28.0398  -12.3347   18.6530 C   0  0  0  0  0  0
  -27.6439  -13.2340   19.8545 C   0  0  2  0  0  0
  -28.6875  -13.1721   20.9925 C   0  0  0  0  0  0
  -25.2520  -13.8200   20.5704 C   0  0  0  0  0  0
  -24.1810  -13.0441   20.9204 C   0  0  0  0  0  0
  -24.6400  -11.6919   20.8746 C   0  0  0  0  0  0
  -23.9074  -10.4296   21.0402 C   0  0  0  0  0  0
  -24.3626   -9.4211   21.9178 C   0  0  0  0  0  0
  -23.6301   -8.2244   22.0747 C   0  0  0  0  0  0
  -22.4279   -8.0283   21.3544 C   0  0  0  0  0  0
  -21.9919   -9.0254   20.4644 C   0  0  0  0  0  0
  -22.7246  -10.2134   20.3053 C   0  0  0  0  0  0
  -21.6853   -6.0742   22.5281 C   0  0  0  0  0  0
  -21.4013   -6.5642   23.8215 C   0  0  0  0  0  0
  -21.3660   -5.6793   24.9176 C   0  0  0  0  0  0
  -21.6046   -4.3055   24.7225 C   0  0  0  0  0  0
  -21.8819   -3.8151   23.4344 C   0  0  0  0  0  0
  -21.9190   -4.6970   22.3404 C   0  0  0  0  0  0
  -22.7829  -13.5223   21.1863 C   0  0  0  0  0  0
  -22.1661   -4.2155   21.0981 F   0  0  0  0  0  0
  -21.5633   -3.4539   25.7738 F   0  0  0  0  0  0
  -29.9914  -13.5218   20.4153 N   0  0  0  0  0  0
  -26.2951  -12.9410   20.3298 N   0  0  0  0  0  0
  -25.9334  -11.6550   20.5755 N   0  0  0  0  0  0
  -22.0471  -12.8216   22.0422 N   0  0  0  0  0  0
  -25.4209  -15.1928   20.4144 N   0  0  0  0  0  0
  -31.7991  -14.8303   20.1046 O   0  0  0  0  0  0
  -21.6643   -6.8882   21.4242 O   0  0  0  0  0  0
  -22.3512  -14.5530   20.6711 O   0  0  0  0  0  0
  -24.6322  -31.8547   23.1989 C   0  0  0  0  0  0
  -25.9148  -32.4750   23.8333 C   0  0  1  0  0  0
  -27.2142  -27.2497   20.1262 C   0  0  0  0  0  0
  -25.5941  -33.8554   24.2253 N   0  0  0  0  0  0
  -23.4290  -30.4787   21.5427 C   0  0  2  0  0  0
  -24.8753  -28.9279   20.1069 C   0  0  0  0  0  0
  -22.7508  -29.4600   22.4908 C   0  0  0  0  0  0
  -18.0293  -28.1384   22.8484 C   0  0  0  0  0  0
  -24.1493  -36.7283   23.2636 C   0  0  0  0  0  0
  -25.9770  -30.7623   21.3829 C   0  0  0  0  0  0
  -26.0474  -29.3853   20.7224 C   0  0  0  0  0  0
  -27.2179  -28.5580   20.7236 C   0  0  0  0  0  0
  -26.0240  -26.8770   19.4593 C   0  0  0  0  0  0
  -24.8699  -27.6826   19.4636 C   0  0  0  0  0  0
  -23.6470  -29.8157   20.1576 C   0  0  0  0  0  0
  -25.4119  -36.3067   24.0323 C   0  0  1  0  0  0
  -20.5898  -28.3697   23.1266 C   0  0  2  0  0  0
  -20.6780  -26.9413   22.5407 C   0  0  0  0  0  0
  -19.5755  -26.6379   21.5211 C   0  0  0  0  0  0
  -18.1936  -26.7925   22.1624 C   0  0  0  0  0  0
  -19.1548  -28.8858   23.2869 C   0  0  0  0  0  0
  -18.9466  -30.1457   23.8888 C   0  0  0  0  0  0
  -17.6465  -30.6584   24.0557 C   0  0  0  0  0  0
  -25.9063  -34.9437   23.5093 C   0  0  0  0  0  0
  -16.5356  -29.9079   23.6332 C   0  0  0  0  0  0
  -16.7279  -28.6497   23.0354 C   0  0  0  0  0  0
  -26.4502  -31.6580   25.0731 C   0  0  0  0  0  0
  -25.3716  -31.3745   26.1445 C   0  0  0  0  0  0
  -27.0346  -30.2989   24.6241 C   0  0  0  0  0  0
  -27.6059  -32.4320   25.7502 C   0  0  0  0  0  0
  -27.5584  -37.1793   24.8459 C   0  0  0  0  0  0
  -21.4214  -29.3044   22.3654 N   0  0  0  0  0  0
  -26.4292  -37.3770   23.9409 N   0  0  0  0  0  0
  -24.6986  -31.0501   22.0974 N   0  0  0  0  0  0
  -23.4205  -28.8136   23.3006 O   0  0  0  0  0  0
  -28.2966  -26.3357   20.2128 O   0  0  0  0  0  0
  -26.5639  -34.8914   22.4664 O   0  0  0  0  0  0
  -23.5471  -32.1380   23.7277 O   0  0  0  0  0  0
  -30.9449  -17.6883   19.3335 C   0  0  0  0  0  0
  -30.0901  -17.3171   20.3426 C   0  0  0  0  0  0
  -29.8863  -19.7222   20.4210 C   0  0  0  0  0  0
  -30.3351  -23.3852   20.2628 C   0  0  0  0  0  0
  -28.4091  -22.1268   20.6276 C   0  0  0  0  0  0
  -28.8879  -23.6603   20.6797 C   0  0  2  0  0  0
  -29.6571  -21.1995   21.0074 C   0  0  1  0  0  0
  -28.0726  -24.8617   19.9475 C   0  0  0  0  0  0
  -29.8776  -21.1380   22.5541 C   0  0  0  0  0  0
  -29.4473  -18.4956   20.8928 N   0  0  0  0  0  0
  -30.6846  -22.0993   20.4569 N   0  0  0  0  0  0
  -29.8581  -15.8928   20.7064 N   0  0  0  0  0  0
  -31.0871  -24.2466   19.8085 O   0  0  0  0  0  0
  -31.0074  -20.4863   22.8393 F   0  0  0  0  0  0
  -29.9686  -22.3432   23.1193 F   0  0  0  0  0  0
  -28.8629  -20.5011   23.1394 F   0  0  0  0  0  0
  -31.0122  -19.4269   19.0834 S   0  0  0  0  0  0
  -31.4756  -12.5675   19.1842 H   0  0  0  0  0  0
  -30.3684  -11.4786   19.9666 H   0  0  0  0  0  0
  -29.7996  -11.7381   17.5265 H   0  0  0  0  0  0
  -29.6434  -13.4653   17.7299 H   0  0  0  0  0  0
  -27.8964  -11.2856   18.9150 H   0  0  0  0  0  0
  -27.3837  -12.5272   17.8034 H   0  0  0  0  0  0
  -27.6372  -14.2553   19.4736 H   0  0  0  0  0  0
  -28.7223  -12.1757   21.4357 H   0  0  0  0  0  0
  -28.4204  -13.8552   21.8002 H   0  0  0  0  0  0
  -25.2769   -9.5693   22.4752 H   0  0  0  0  0  0
  -24.0018   -7.4633   22.7464 H   0  0  0  0  0  0
  -21.0848   -8.8771   19.8950 H   0  0  0  0  0  0
  -22.3699  -10.9674   19.6164 H   0  0  0  0  0  0
  -21.2005   -7.6148   23.9722 H   0  0  0  0  0  0
  -21.1484   -6.0522   25.9081 H   0  0  0  0  0  0
  -22.0598   -2.7615   23.2837 H   0  0  0  0  0  0
  -22.4088  -11.9882   22.4824 H   0  0  0  0  0  0
  -21.1085  -13.1237   22.2616 H   0  0  0  0  0  0
  -24.6543  -15.8455   20.5347 H   0  0  0  0  0  0
  -26.2693  -15.6373   20.0878 H   0  0  0  0  0  0
  -26.7214  -32.5390   23.1070 H   0  0  0  0  0  0
  -25.0069  -33.9689   25.0384 H   0  0  0  0  0  0
  -22.7259  -31.3016   21.3982 H   0  0  0  0  0  0
  -23.3755  -35.9616   23.3296 H   0  0  0  0  0  0
  -24.3584  -36.8910   22.2053 H   0  0  0  0  0  0
  -23.7247  -37.6483   23.6664 H   0  0  0  0  0  0
  -26.1215  -31.5233   20.6149 H   0  0  0  0  0  0
  -26.8531  -30.8072   22.0186 H   0  0  0  0  0  0
  -28.1114  -28.8993   21.2274 H   0  0  0  0  0  0
  -25.9486  -25.9367   18.9346 H   0  0  0  0  0  0
  -23.9763  -27.3328   18.9646 H   0  0  0  0  0  0
  -23.7712  -30.5935   19.4034 H   0  0  0  0  0  0
  -22.7648  -29.2499   19.8526 H   0  0  0  0  0  0
  -25.1300  -36.1912   25.0816 H   0  0  0  0  0  0
  -20.9990  -28.3274   24.1384 H   0  0  0  0  0  0
  -20.5674  -26.2308   23.3613 H   0  0  0  0  0  0
  -21.6647  -26.7430   22.1202 H   0  0  0  0  0  0
  -19.6914  -25.6286   21.1246 H   0  0  0  0  0  0
  -19.6691  -27.3183   20.6736 H   0  0  0  0  0  0
  -17.4205  -26.6671   21.4027 H   0  0  0  0  0  0
  -18.0336  -26.0067   22.9020 H   0  0  0  0  0  0
  -19.7942  -30.7276   24.2252 H   0  0  0  0  0  0
  -17.5018  -31.6266   24.5154 H   0  0  0  0  0  0
  -15.5355  -30.2976   23.7660 H   0  0  0  0  0  0
  -15.8680  -28.0811   22.7072 H   0  0  0  0  0  0
  -24.5891  -30.7093   25.7768 H   0  0  0  0  0  0
  -24.8903  -32.2919   26.4847 H   0  0  0  0  0  0
  -25.8017  -30.8933   27.0237 H   0  0  0  0  0  0
  -26.2937  -29.6736   24.1246 H   0  0  0  0  0  0
  -27.3985  -29.7257   25.4778 H   0  0  0  0  0  0
  -27.8836  -30.4243   23.9518 H   0  0  0  0  0  0
  -27.2668  -33.3622   26.2076 H   0  0  0  0  0  0
  -28.3871  -32.6880   25.0333 H   0  0  0  0  0  0
  -28.0727  -31.8449   26.5421 H   0  0  0  0  0  0
  -28.2586  -38.0105   24.7529 H   0  0  0  0  0  0
  -28.1096  -36.2639   24.6254 H   0  0  0  0  0  0
  -27.2307  -37.1403   25.8862 H   0  0  0  0  0  0
  -20.9399  -29.8773   21.6864 H   0  0  0  0  0  0
  -26.0168  -38.2842   24.1415 H   0  0  0  0  0  0
  -31.5527  -17.0476   18.7074 H   0  0  0  0  0  0
  -28.0839  -21.8911   19.6134 H   0  0  0  0  0  0
  -27.5587  -21.9361   21.2821 H   0  0  0  0  0  0
  -28.9256  -23.9565   21.7267 H   0  0  0  0  0  0
  -27.0416  -24.6351   20.2167 H   0  0  0  0  0  0
  -28.1322  -24.7141   18.8684 H   0  0  0  0  0  0
  -31.6145  -21.7540   20.2752 H   0  0  0  0  0  0
  -28.9596  -15.7059   21.1224 H   0  0  0  0  0  0
  1 25  1  0  0  0
  1 30  2  0  0  0
  1 82  1  0  0  0
  2  3  1  0  0  0
  2 25  1  0  0  0
  2 88  1  0  0  0
  2 89  1  0  0  0
  3  4  1  0  0  0
  3 90  1  0  0  0
  3 91  1  0  0  0
  4  5  1  0  0  0
  4 92  1  0  0  0
  4 93  1  0  0  0
  5  6  1  0  0  0
  5 26  1  0  0  0
  5 94  1  0  0  0
  6 25  1  0  0  0
  6 95  1  0  0  0
  6 96  1  0  0  0
  7  8  2  0  0  0
  7 26  1  0  0  0
  7 29  1  0  0  0
  8  9  1  0  0  0
  8 22  1  0  0  0
  9 10  1  0  0  0
  9 27  2  0  0  0
 10 11  2  0  0  0
 10 15  1  0  0  0
 11 12  1  0  0  0
 11 97  1  0  0  0
 12 13  2  0  0  0
 12 98  1  0  0  0
 13 14  1  0  0  0
 13 31  1  0  0  0
 14 15  2  0  0  0
 14 99  1  0  0  0
 15100  1  0  0  0
 16 17  2  0  0  0
 16 21  1  0  0  0
 16 31  1  0  0  0
 17 18  1  0  0  0
 17101  1  0  0  0
 18 19  2  0  0  0
 18102  1  0  0  0
 19 20  1  0  0  0
 19 24  1  0  0  0
 20 21  2  0  0  0
 20103  1  0  0  0
 21 23  1  0  0  0
 22 28  1  0  0  0
 22 32  2  0  0  0
 26 27  1  0  0  0
 28104  1  0  0  0
 28105  1  0  0  0
 29106  1  0  0  0
 29107  1  0  0  0
 33 34  1  0  0  0
 33 66  1  0  0  0
 33 70  2  0  0  0
 34 36  1  0  0  0
 34 59  1  0  0  0
 34108  1  0  0  0
 35 44  2  0  0  0
 35 45  1  0  0  0
 35 68  1  0  0  0
 36 56  1  0  0  0
 36109  1  0  0  0
 37 39  1  0  0  0
 37 47  1  0  0  0
 37 66  1  0  0  0
 37110  1  0  0  0
 38 43  2  0  0  0
 38 46  1  0  0  0
 38 47  1  0  0  0
 39 64  1  0  0  0
 39 67  2  0  0  0
 40 52  1  0  0  0
 40 53  2  0  0  0
 40 58  1  0  0  0
 41111  1  0  0  0
 41112  1  0  0  0
 41113  1  0  0  0
 41 48  1  0  0  0
 42 43  1  0  0  0
 42 66  1  0  0  0
 42114  1  0  0  0
 42115  1  0  0  0
 43 44  1  0  0  0
 44116  1  0  0  0
 45 46  2  0  0  0
 45117  1  0  0  0
 46118  1  0  0  0
 47119  1  0  0  0
 47120  1  0  0  0
 48 56  1  0  0  0
 48 65  1  0  0  0
 48121  1  0  0  0
 49 50  1  0  0  0
 49 53  1  0  0  0
 49 64  1  0  0  0
 49122  1  0  0  0
 50 51  1  0  0  0
 50123  1  0  0  0
 50124  1  0  0  0
 51 52  1  0  0  0
 51125  1  0  0  0
 51126  1  0  0  0
 52127  1  0  0  0
 52128  1  0  0  0
 53 54  1  0  0  0
 54 55  2  0  0  0
 54129  1  0  0  0
 55 57  1  0  0  0
 55130  1  0  0  0
 56 69  2  0  0  0
 57 58  2  0  0  0
 57131  1  0  0  0
 58132  1  0  0  0
 59 60  1  0  0  0
 59 61  1  0  0  0
 59 62  1  0  0  0
 60133  1  0  0  0
 60134  1  0  0  0
 60135  1  0  0  0
 61136  1  0  0  0
 61137  1  0  0  0
 61138  1  0  0  0
 62139  1  0  0  0
 62140  1  0  0  0
 62141  1  0  0  0
 63 65  1  0  0  0
 63142  1  0  0  0
 63143  1  0  0  0
 63144  1  0  0  0
 64145  1  0  0  0
 65146  1  0  0  0
 68 78  1  0  0  0
 71 72  2  0  0  0
 71 87  1  0  0  0
 71147  1  0  0  0
 72 80  1  0  0  0
 72 82  1  0  0  0
 73 80  2  0  0  0
 73 87  1  0  0  0
 73 77  1  0  0  0
 74 76  1  0  0  0
 74 81  1  0  0  0
 74 83  2  0  0  0
 75 76  1  0  0  0
 75 77  1  0  0  0
 75148  1  0  0  0
 75149  1  0  0  0
 76 78  1  0  0  0
 76150  1  0  0  0
 77 79  1  0  0  0
 77 81  1  0  0  0
 78151  1  0  0  0
 78152  1  0  0  0
 79 84  1  0  0  0
 79 85  1  0  0  0
 79 86  1  0  0  0
 81153  1  0  0  0
 82154  1  0  0  0
M  ISO  4   1 100  68 101  78 101  82 100
M  END
> <chiral flag>
0

> <version>
0

> <s_m_source_file>
/data/baiqing/PycharmProjects/Reinvent-master-3.2/result/LINK_invent/BTK/process_docking_weight1_custom_product_contain_oxygen_bond_distance_aromatic_linkinvent_7_9_3/rearranged_h_0190.sdf

> <i_m_source_file_index>
38

> <r_mmod_Potential_Energy-OPLS-2005>
120.85962677002

> <r_mmod_Stretch_Energy-OPLS-2005>
130.973602294922

> <r_mmod_Bend_Energy-OPLS-2005>
223.087280273438

> <r_mmod_Torsional_Energy-OPLS-2005>
225.200958251953

> <r_mmod_Improper_Torsional_Energy-OPLS-2005>
4.61510133743286

> <r_mmod_Van_der_Waal_Energy-OPLS-2005>
126.596138000488

> <r_mmod_Electrostatic_Energy-OPLS-2005>
-438.474182128906

> <r_mmod_Solvation_Energy-OPLS-2005>
-242.698455810547

> <b_mmod_Minimization_Converged-OPLS-2005>
0

> <r_mmod_RMS_Derivative-OPLS-2005>
0.855925679206848

$$$$
38
                    3D
 Structure written by MMmdl.
162170  0  0  1  0            999 V2000
  -30.6030  -14.6932   20.4887 C   0  0  0  0  0  0
  -30.4286  -12.4129   19.4759 C   0  0  0  0  0  0
  -29.5140  -12.5220   18.2370 C   0  0  0  0  0  0
  -28.0353  -12.3520   18.6329 C   0  0  0  0  0  0
  -27.6487  -13.2208   19.8620 C   0  0  2  0  0  0
  -28.6871  -13.0959   20.9995 C   0  0  0  0  0  0
  -25.2526  -13.8170   20.5670 C   0  0  0  0  0  0
  -24.1802  -13.0428   20.9223 C   0  0  0  0  0  0
  -24.6377  -11.6919   20.8740 C   0  0  0  0  0  0
  -23.9047  -10.4299   21.0347 C   0  0  0  0  0  0
  -24.3609   -9.4223   21.9121 C   0  0  0  0  0  0
  -23.6316   -8.2237   22.0699 C   0  0  0  0  0  0
  -22.4287   -8.0260   21.3517 C   0  0  0  0  0  0
  -21.9908   -9.0214   20.4595 C   0  0  0  0  0  0
  -22.7200  -10.2108   20.2983 C   0  0  0  0  0  0
  -21.6862   -6.0719   22.5288 C   0  0  0  0  0  0
  -21.4016   -6.5642   23.8229 C   0  0  0  0  0  0
  -21.3673   -5.6794   24.9197 C   0  0  0  0  0  0
  -21.6038   -4.3033   24.7240 C   0  0  0  0  0  0
  -21.8821   -3.8137   23.4356 C   0  0  0  0  0  0
  -21.9207   -4.6963   22.3412 C   0  0  0  0  0  0
  -22.7838  -13.5201   21.1924 C   0  0  0  0  0  0
  -22.1654   -4.2139   21.1004 F   0  0  0  0  0  0
  -21.5644   -3.4541   25.7750 F   0  0  0  0  0  0
  -29.9991  -13.4515   20.4391 N   0  0  0  0  0  0
  -26.2973  -12.9369   20.3318 N   0  0  0  0  0  0
  -25.9308  -11.6516   20.5763 N   0  0  0  0  0  0
  -22.0504  -12.8166   22.0467 N   0  0  0  0  0  0
  -25.4227  -15.1904   20.4054 N   0  0  0  0  0  0
  -31.7630  -14.8264   20.0872 O   0  0  0  0  0  0
  -21.6639   -6.8838   21.4221 O   0  0  0  0  0  0
  -22.3521  -14.5507   20.6794 O   0  0  0  0  0  0
  -24.6283  -31.8569   23.1934 C   0  0  0  0  0  0
  -25.9144  -32.4735   23.8270 C   0  0  1  0  0  0
  -27.1979  -27.2456   20.1321 C   0  0  0  0  0  0
  -25.5989  -33.8555   24.2183 N   0  0  0  0  0  0
  -23.4236  -30.4859   21.5328 C   0  0  2  0  0  0
  -24.8705  -28.9339   20.0944 C   0  0  0  0  0  0
  -22.7499  -29.4674   22.4832 C   0  0  0  0  0  0
  -18.0325  -28.1418   22.8467 C   0  0  0  0  0  0
  -24.1505  -36.7241   23.2634 C   0  0  0  0  0  0
  -25.9731  -30.7553   21.3928 C   0  0  0  0  0  0
  -26.0391  -29.3834   20.7241 C   0  0  0  0  0  0
  -27.2003  -28.5470   20.7428 C   0  0  0  0  0  0
  -26.0362  -26.9083   19.4046 C   0  0  0  0  0  0
  -24.8748  -27.7058   19.4197 C   0  0  0  0  0  0
  -23.6425  -29.8228   20.1461 C   0  0  0  0  0  0
  -25.4157  -36.3038   24.0289 C   0  0  1  0  0  0
  -20.5915  -28.3757   23.1222 C   0  0  2  0  0  0
  -20.6846  -26.9480   22.5347 C   0  0  0  0  0  0
  -19.5813  -26.6396   21.5172 C   0  0  0  0  0  0
  -18.1997  -26.7976   22.1578 C   0  0  0  0  0  0
  -19.1567  -28.8912   23.2835 C   0  0  0  0  0  0
  -18.9508  -30.1524   23.8832 C   0  0  0  0  0  0
  -17.6493  -30.6608   24.0582 C   0  0  0  0  0  0
  -25.9085  -34.9425   23.5011 C   0  0  0  0  0  0
  -16.5395  -29.9094   23.6342 C   0  0  0  0  0  0
  -16.7316  -28.6522   23.0342 C   0  0  0  0  0  0
  -26.4523  -31.6616   25.0703 C   0  0  0  0  0  0
  -25.3700  -31.3819   26.1375 C   0  0  0  0  0  0
  -27.0443  -30.3034   24.6319 C   0  0  0  0  0  0
  -27.6061  -32.4398   25.7479 C   0  0  0  0  0  0
  -27.5567  -37.1795   24.8463 C   0  0  0  0  0  0
  -21.4198  -29.3112   22.3599 N   0  0  0  0  0  0
  -26.4305  -37.3760   23.9399 N   0  0  0  0  0  0
  -24.6905  -31.0561   22.0880 N   0  0  0  0  0  0
  -23.4190  -28.8237   23.2973 O   0  0  0  0  0  0
  -28.2579  -26.3143   20.2699 O   0  0  0  0  0  0
  -26.5624  -34.8898   22.4553 O   0  0  0  0  0  0
  -23.5440  -32.1412   23.7220 O   0  0  0  0  0  0
  -30.3209  -19.2416   19.5394 C   0  0  0  0  0  0
  -29.4327  -19.7935   20.4602 C   0  0  0  0  0  0
  -29.8650  -17.2233   20.6431 C   0  0  0  0  0  0
  -31.0945  -22.2828   21.1469 C   0  0  0  0  0  0
  -30.9900  -19.9650   18.3990 C   0  0  0  0  0  0
  -31.9667  -22.5293   23.5553 C   0  0  0  0  0  0
  -26.7324  -24.2327   20.5820 C   0  0  0  0  0  0
  -31.0526  -21.7633   22.5918 C   0  0  0  0  0  0
  -29.1790  -23.8979   20.8586 C   0  0  0  0  0  0
  -29.7353  -22.4223   20.4136 C   0  0  2  0  0  0
  -28.0919  -24.8088   20.0948 C   0  0  2  0  0  0
  -30.5722  -17.8409   19.6763 N   0  0  0  0  0  0
  -28.9364  -21.1526   20.6472 N   0  0  0  0  0  0
  -29.8251  -15.7601   20.8969 N   0  0  0  0  0  0
  -32.1720  -22.5661   20.6169 O   0  0  0  0  0  0
  -28.8460  -18.4482   21.4828 S   0  0  0  0  0  0
  -31.4749  -12.5165   19.1883 H   0  0  0  0  0  0
  -30.3444  -11.4218   19.9191 H   0  0  0  0  0  0
  -29.7939  -11.7716   17.4967 H   0  0  0  0  0  0
  -29.6554  -13.4944   17.7636 H   0  0  0  0  0  0
  -27.8827  -11.2988   18.8663 H   0  0  0  0  0  0
  -27.3830  -12.5737   17.7858 H   0  0  0  0  0  0
  -27.6618  -14.2549   19.5227 H   0  0  0  0  0  0
  -28.7047  -12.0805   21.4003 H   0  0  0  0  0  0
  -28.4227  -13.7417   21.8361 H   0  0  0  0  0  0
  -25.2722   -9.5760   22.4705 H   0  0  0  0  0  0
  -24.0075   -7.4625   22.7417 H   0  0  0  0  0  0
  -21.0844   -8.8666   19.8902 H   0  0  0  0  0  0
  -22.3592  -10.9634   19.6105 H   0  0  0  0  0  0
  -21.1952   -7.6133   23.9728 H   0  0  0  0  0  0
  -21.1518   -6.0520   25.9117 H   0  0  0  0  0  0
  -22.0580   -2.7601   23.2862 H   0  0  0  0  0  0
  -22.4180  -11.9844   22.4833 H   0  0  0  0  0  0
  -21.1085  -13.1066   22.2611 H   0  0  0  0  0  0
  -24.6380  -15.8297   20.4632 H   0  0  0  0  0  0
  -26.2575  -15.6246   20.0317 H   0  0  0  0  0  0
  -26.7223  -32.5342   23.1020 H   0  0  0  0  0  0
  -25.0337  -33.9730   25.0462 H   0  0  0  0  0  0
  -22.7190  -31.3078   21.3895 H   0  0  0  0  0  0
  -23.3743  -35.9581   23.3321 H   0  0  0  0  0  0
  -24.3571  -36.8817   22.2032 H   0  0  0  0  0  0
  -23.7308  -37.6465   23.6665 H   0  0  0  0  0  0
  -26.1593  -31.5187   20.6349 H   0  0  0  0  0  0
  -26.8333  -30.7683   22.0530 H   0  0  0  0  0  0
  -28.0803  -28.8760   21.2798 H   0  0  0  0  0  0
  -25.9935  -26.0055   18.8248 H   0  0  0  0  0  0
  -23.9946  -27.3745   18.8864 H   0  0  0  0  0  0
  -23.7729  -30.5969   19.3898 H   0  0  0  0  0  0
  -22.7581  -29.2632   19.8405 H   0  0  0  0  0  0
  -25.1376  -36.1795   25.0787 H   0  0  0  0  0  0
  -21.0068  -28.3342   24.1313 H   0  0  0  0  0  0
  -20.5797  -26.2378   23.3553 H   0  0  0  0  0  0
  -21.6738  -26.7545   22.1142 H   0  0  0  0  0  0
  -19.6971  -25.6271   21.1281 H   0  0  0  0  0  0
  -19.6768  -27.3158   20.6666 H   0  0  0  0  0  0
  -17.4298  -26.6748   21.3953 H   0  0  0  0  0  0
  -18.0393  -26.0113   22.8977 H   0  0  0  0  0  0
  -19.7997  -30.7390   24.2129 H   0  0  0  0  0  0
  -17.5063  -31.6277   24.5232 H   0  0  0  0  0  0
  -15.5404  -30.2987   23.7705 H   0  0  0  0  0  0
  -15.8734  -28.0825   22.7055 H   0  0  0  0  0  0
  -24.5861  -30.7224   25.7652 H   0  0  0  0  0  0
  -24.8931  -32.3032   26.4750 H   0  0  0  0  0  0
  -25.7939  -30.8983   27.0179 H   0  0  0  0  0  0
  -26.3079  -29.6689   24.1391 H   0  0  0  0  0  0
  -27.4167  -29.7430   25.4902 H   0  0  0  0  0  0
  -27.8928  -30.4318   23.9583 H   0  0  0  0  0  0
  -27.2668  -33.3725   26.2014 H   0  0  0  0  0  0
  -28.3900  -32.6922   25.0317 H   0  0  0  0  0  0
  -28.0731  -31.8564   26.5430 H   0  0  0  0  0  0
  -28.2616  -38.0049   24.7496 H   0  0  0  0  0  0
  -28.1022  -36.2603   24.6336 H   0  0  0  0  0  0
  -27.2260  -37.1473   25.8846 H   0  0  0  0  0  0
  -20.9365  -29.8701   21.6709 H   0  0  0  0  0  0
  -26.0093  -38.2789   24.1407 H   0  0  0  0  0  0
  -31.8657  -20.5214   18.7369 H   0  0  0  0  0  0
  -30.3076  -20.6600   17.9086 H   0  0  0  0  0  0
  -31.3289  -19.2798   17.6243 H   0  0  0  0  0  0
  -31.9580  -22.0708   24.5444 H   0  0  0  0  0  0
  -31.6265  -23.5597   23.6693 H   0  0  0  0  0  0
  -33.0011  -22.5402   23.2117 H   0  0  0  0  0  0
  -25.9542  -24.2098   19.8211 H   0  0  0  0  0  0
  -26.3603  -24.7707   21.4556 H   0  0  0  0  0  0
  -26.8267  -23.1861   20.8770 H   0  0  0  0  0  0
  -31.3449  -20.7140   22.5760 H   0  0  0  0  0  0
  -30.0225  -21.8007   22.9490 H   0  0  0  0  0  0
  -30.0546  -24.5500   20.8802 H   0  0  0  0  0  0
  -28.8867  -23.8498   21.9072 H   0  0  0  0  0  0
  -29.9480  -22.4735   19.3442 H   0  0  0  0  0  0
  -28.1920  -24.6206   19.0248 H   0  0  0  0  0  0
  -28.2271  -21.2373   21.3709 H   0  0  0  0  0  0
  -28.9959  -15.4610   21.3837 H   0  0  0  0  0  0
  1 25  1  0  0  0
  1 30  2  0  0  0
  1 84  1  0  0  0
  2  3  1  0  0  0
  2 25  1  0  0  0
  2 87  1  0  0  0
  2 88  1  0  0  0
  3  4  1  0  0  0
  3 89  1  0  0  0
  3 90  1  0  0  0
  4  5  1  0  0  0
  4 91  1  0  0  0
  4 92  1  0  0  0
  5  6  1  0  0  0
  5 26  1  0  0  0
  5 93  1  0  0  0
  6 25  1  0  0  0
  6 94  1  0  0  0
  6 95  1  0  0  0
  7  8  2  0  0  0
  7 26  1  0  0  0
  7 29  1  0  0  0
  8  9  1  0  0  0
  8 22  1  0  0  0
  9 10  1  0  0  0
  9 27  2  0  0  0
 10 11  2  0  0  0
 10 15  1  0  0  0
 11 12  1  0  0  0
 11 96  1  0  0  0
 12 13  2  0  0  0
 12 97  1  0  0  0
 13 14  1  0  0  0
 13 31  1  0  0  0
 14 15  2  0  0  0
 14 98  1  0  0  0
 15 99  1  0  0  0
 16 17  2  0  0  0
 16 21  1  0  0  0
 16 31  1  0  0  0
 17 18  1  0  0  0
 17100  1  0  0  0
 18 19  2  0  0  0
 18101  1  0  0  0
 19 20  1  0  0  0
 19 24  1  0  0  0
 20 21  2  0  0  0
 20102  1  0  0  0
 21 23  1  0  0  0
 22 28  1  0  0  0
 22 32  2  0  0  0
 26 27  1  0  0  0
 28103  1  0  0  0
 28104  1  0  0  0
 29105  1  0  0  0
 29106  1  0  0  0
 33 34  1  0  0  0
 33 66  1  0  0  0
 33 70  2  0  0  0
 34 36  1  0  0  0
 34 59  1  0  0  0
 34107  1  0  0  0
 35 44  2  0  0  0
 35 45  1  0  0  0
 35 68  1  0  0  0
 36 56  1  0  0  0
 36108  1  0  0  0
 37 39  1  0  0  0
 37 47  1  0  0  0
 37 66  1  0  0  0
 37109  1  0  0  0
 38 43  2  0  0  0
 38 46  1  0  0  0
 38 47  1  0  0  0
 39 64  1  0  0  0
 39 67  2  0  0  0
 40 52  1  0  0  0
 40 53  2  0  0  0
 40 58  1  0  0  0
 41110  1  0  0  0
 41111  1  0  0  0
 41112  1  0  0  0
 41 48  1  0  0  0
 42 43  1  0  0  0
 42 66  1  0  0  0
 42113  1  0  0  0
 42114  1  0  0  0
 43 44  1  0  0  0
 44115  1  0  0  0
 45 46  2  0  0  0
 45116  1  0  0  0
 46117  1  0  0  0
 47118  1  0  0  0
 47119  1  0  0  0
 48 56  1  0  0  0
 48 65  1  0  0  0
 48120  1  0  0  0
 49 50  1  0  0  0
 49 53  1  0  0  0
 49 64  1  0  0  0
 49121  1  0  0  0
 50 51  1  0  0  0
 50122  1  0  0  0
 50123  1  0  0  0
 51 52  1  0  0  0
 51124  1  0  0  0
 51125  1  0  0  0
 52126  1  0  0  0
 52127  1  0  0  0
 53 54  1  0  0  0
 54 55  2  0  0  0
 54128  1  0  0  0
 55 57  1  0  0  0
 55129  1  0  0  0
 56 69  2  0  0  0
 57 58  2  0  0  0
 57130  1  0  0  0
 58131  1  0  0  0
 59 60  1  0  0  0
 59 61  1  0  0  0
 59 62  1  0  0  0
 60132  1  0  0  0
 60133  1  0  0  0
 60134  1  0  0  0
 61135  1  0  0  0
 61136  1  0  0  0
 61137  1  0  0  0
 62138  1  0  0  0
 62139  1  0  0  0
 62140  1  0  0  0
 63 65  1  0  0  0
 63141  1  0  0  0
 63142  1  0  0  0
 63143  1  0  0  0
 64144  1  0  0  0
 65145  1  0  0  0
 68 81  1  0  0  0
 71 72  2  0  0  0
 71 75  1  0  0  0
 71 82  1  0  0  0
 72 83  1  0  0  0
 72 86  1  0  0  0
 73 82  2  0  0  0
 73 84  1  0  0  0
 73 86  1  0  0  0
 74 78  1  0  0  0
 74 80  1  0  0  0
 74 85  2  0  0  0
 75146  1  0  0  0
 75147  1  0  0  0
 75148  1  0  0  0
 76 78  1  0  0  0
 76149  1  0  0  0
 76150  1  0  0  0
 76151  1  0  0  0
 77152  1  0  0  0
 77153  1  0  0  0
 77154  1  0  0  0
 77 81  1  0  0  0
 78155  1  0  0  0
 78156  1  0  0  0
 79 81  1  0  0  0
 79157  1  0  0  0
 79158  1  0  0  0
 79 80  1  0  0  0
 80 83  1  0  0  0
 80159  1  0  0  0
 81160  1  0  0  0
 83161  1  0  0  0
 84162  1  0  0  0
M  ISO  4   1 100  68 101  81 101  84 100
M  END
> <chiral flag>
0

> <version>
0

> <s_m_source_file>
/data/baiqing/PycharmProjects/Reinvent-master-3.2/result/LINK_invent/BTK/process_docking_weight1_custom_product_contain_oxygen_bond_distance_aromatic_linkinvent_7_9_3/rearranged_h_0190.sdf

> <i_m_source_file_index>
39

> <r_mmod_Potential_Energy-OPLS-2005>
190.023696899414

> <r_mmod_Stretch_Energy-OPLS-2005>
123.773429870605

> <r_mmod_Bend_Energy-OPLS-2005>
198.605941772461

> <r_mmod_Torsional_Energy-OPLS-2005>
243.87614440918

> <r_mmod_Improper_Torsional_Energy-OPLS-2005>
5.84544086456299

> <r_mmod_Van_der_Waal_Energy-OPLS-2005>
123.832206726074

> <r_mmod_Electrostatic_Energy-OPLS-2005>
-351.177276611328

> <r_mmod_Solvation_Energy-OPLS-2005>
-239.18229675293

> <b_mmod_Minimization_Converged-OPLS-2005>
0

> <r_mmod_RMS_Derivative-OPLS-2005>
6.23956775665283

$$$$
39
                    3D
 Structure written by MMmdl.
165173  0  0  1  0            999 V2000
  -30.7236  -14.4518   20.6274 C   0  0  0  0  0  0
  -30.4244  -12.3098   19.4321 C   0  0  0  0  0  0
  -29.4978  -12.5236   18.2173 C   0  0  0  0  0  0
  -28.0175  -12.3832   18.6221 C   0  0  0  0  0  0
  -27.6646  -13.2124   19.8863 C   0  0  2  0  0  0
  -28.7026  -12.9798   21.0086 C   0  0  0  0  0  0
  -25.2578  -13.8182   20.5691 C   0  0  0  0  0  0
  -24.1828  -13.0458   20.9182 C   0  0  0  0  0  0
  -24.6382  -11.6919   20.8725 C   0  0  0  0  0  0
  -23.9041  -10.4302   21.0390 C   0  0  0  0  0  0
  -24.3597   -9.4216   21.9172 C   0  0  0  0  0  0
  -23.6283   -8.2245   22.0739 C   0  0  0  0  0  0
  -22.4266   -8.0278   21.3532 C   0  0  0  0  0  0
  -21.9897   -9.0239   20.4636 C   0  0  0  0  0  0
  -22.7210  -10.2126   20.3043 C   0  0  0  0  0  0
  -21.6861   -6.0720   22.5272 C   0  0  0  0  0  0
  -21.4011   -6.5626   23.8204 C   0  0  0  0  0  0
  -21.3662   -5.6782   24.9171 C   0  0  0  0  0  0
  -21.6052   -4.3048   24.7225 C   0  0  0  0  0  0
  -21.8819   -3.8129   23.4352 C   0  0  0  0  0  0
  -21.9190   -4.6943   22.3400 C   0  0  0  0  0  0
  -22.7847  -13.5237   21.1841 C   0  0  0  0  0  0
  -22.1662   -4.2132   21.0978 F   0  0  0  0  0  0
  -21.5631   -3.4532   25.7735 F   0  0  0  0  0  0
  -30.0428  -13.2818   20.4721 N   0  0  0  0  0  0
  -26.3033  -12.9365   20.3418 N   0  0  0  0  0  0
  -25.9323  -11.6515   20.5790 N   0  0  0  0  0  0
  -22.0484  -12.8223   22.0414 N   0  0  0  0  0  0
  -25.4312  -15.1898   20.4056 N   0  0  0  0  0  0
  -31.8204  -14.6459   20.0909 O   0  0  0  0  0  0
  -21.6640   -6.8863   21.4233 O   0  0  0  0  0  0
  -22.3535  -14.5541   20.6708 O   0  0  0  0  0  0
  -24.6138  -31.8707   23.2086 C   0  0  0  0  0  0
  -25.9013  -32.4837   23.8413 C   0  0  1  0  0  0
  -27.2590  -27.4532   20.1034 C   0  0  0  0  0  0
  -25.5852  -33.8617   24.2347 N   0  0  0  0  0  0
  -23.4042  -30.4865   21.5488 C   0  0  2  0  0  0
  -24.8580  -28.9443   20.1254 C   0  0  0  0  0  0
  -22.7439  -29.4633   22.4998 C   0  0  0  0  0  0
  -18.0277  -28.1363   22.8487 C   0  0  0  0  0  0
  -24.1486  -36.7327   23.2646 C   0  0  0  0  0  0
  -25.9287  -30.8353   21.3625 C   0  0  0  0  0  0
  -26.0122  -29.4619   20.7313 C   0  0  0  0  0  0
  -27.2130  -28.7181   20.7327 C   0  0  0  0  0  0
  -26.0931  -26.9467   19.4947 C   0  0  0  0  0  0
  -24.8903  -27.6782   19.5123 C   0  0  0  0  0  0
  -23.6181  -29.8092   20.1656 C   0  0  0  0  0  0
  -25.4101  -36.3134   24.0363 C   0  0  1  0  0  0
  -20.5867  -28.3634   23.1334 C   0  0  2  0  0  0
  -20.6769  -26.9359   22.5428 C   0  0  0  0  0  0
  -19.5751  -26.6361   21.5209 C   0  0  0  0  0  0
  -18.1927  -26.7911   22.1604 C   0  0  0  0  0  0
  -19.1530  -28.8810   23.2908 C   0  0  0  0  0  0
  -18.9461  -30.1420   23.8901 C   0  0  0  0  0  0
  -17.6475  -30.6567   24.0559 C   0  0  0  0  0  0
  -25.9000  -34.9491   23.5151 C   0  0  0  0  0  0
  -16.5358  -29.9076   23.6310 C   0  0  0  0  0  0
  -16.7272  -28.6496   23.0330 C   0  0  0  0  0  0
  -26.4429  -31.6605   25.0734 C   0  0  0  0  0  0
  -25.3706  -31.3739   26.1501 C   0  0  0  0  0  0
  -27.0276  -30.3090   24.6032 C   0  0  0  0  0  0
  -27.6030  -32.4306   25.7481 C   0  0  0  0  0  0
  -27.5578  -37.1810   24.8460 C   0  0  0  0  0  0
  -21.4160  -29.3012   22.3764 N   0  0  0  0  0  0
  -26.4289  -37.3823   23.9426 N   0  0  0  0  0  0
  -24.6667  -31.0792   22.1002 N   0  0  0  0  0  0
  -23.4238  -28.8173   23.3021 O   0  0  0  0  0  0
  -28.4237  -26.7352   19.9673 O   0  0  0  0  0  0
  -26.5588  -34.8950   22.4726 O   0  0  0  0  0  0
  -23.5329  -32.1400   23.7492 O   0  0  0  0  0  0
  -31.1263  -18.8341   20.7012 C   0  0  0  0  0  0
  -29.8647  -19.2628   21.0434 C   0  0  0  0  0  0
  -30.2221  -16.8122   21.2565 C   0  0  0  0  0  0
  -28.9043  -19.9082   18.3258 C   0  0  0  0  0  0
  -28.6871  -21.9418   23.8582 C   0  0  0  0  0  0
  -29.1842  -21.0417   19.3251 C   0  0  0  0  0  0
  -29.2057  -24.0251   22.4720 C   0  0  0  0  0  0
  -29.0697  -26.2680   21.1516 C   0  0  0  0  0  0
  -29.2283  -20.6212   20.8163 C   0  0  2  0  0  0
  -28.8287  -22.5199   22.4391 C   0  0  1  0  0  0
  -29.0519  -24.7170   21.0994 C   0  0  1  0  0  0
  -31.3242  -17.4520   20.8397 N   0  0  0  0  0  0
  -30.0972  -15.3940   21.3609 N   0  0  0  0  0  0
  -29.7994  -21.7294   21.6325 N   0  3  0  0  0  0
  -30.1183  -24.2411   20.2895 O   0  0  0  0  0  0
  -28.8932  -17.9132   21.6134 S   0  0  0  0  0  0
  -31.4682  -12.4080   19.1297 H   0  0  0  0  0  0
  -30.3249  -11.2942   19.8194 H   0  0  0  0  0  0
  -29.7398  -11.8113   17.4278 H   0  0  0  0  0  0
  -29.6673  -13.5174   17.7984 H   0  0  0  0  0  0
  -27.8186  -11.3258   18.8040 H   0  0  0  0  0  0
  -27.3720  -12.6754   17.7933 H   0  0  0  0  0  0
  -27.7147  -14.2643   19.6021 H   0  0  0  0  0  0
  -28.6750  -11.9402   21.3379 H   0  0  0  0  0  0
  -28.4537  -13.5661   21.8942 H   0  0  0  0  0  0
  -25.2738   -9.5705   22.4750 H   0  0  0  0  0  0
  -23.9996   -7.4638   22.7455 H   0  0  0  0  0  0
  -21.0828   -8.8742   19.8943 H   0  0  0  0  0  0
  -22.3650  -10.9658   19.6149 H   0  0  0  0  0  0
  -21.2002   -7.6138   23.9705 H   0  0  0  0  0  0
  -21.1492   -6.0513   25.9073 H   0  0  0  0  0  0
  -22.0597   -2.7594   23.2849 H   0  0  0  0  0  0
  -22.4086  -11.9874   22.4791 H   0  0  0  0  0  0
  -21.1095  -13.1234   22.2602 H   0  0  0  0  0  0
  -24.6627  -15.8455   20.4919 H   0  0  0  0  0  0
  -26.2796  -15.6192   20.0608 H   0  0  0  0  0  0
  -26.7083  -32.5550   23.1186 H   0  0  0  0  0  0
  -25.0031  -33.9796   25.0504 H   0  0  0  0  0  0
  -22.6914  -31.3030   21.4035 H   0  0  0  0  0  0
  -23.3744  -35.9649   23.3308 H   0  0  0  0  0  0
  -24.3598  -36.8929   22.2053 H   0  0  0  0  0  0
  -23.7220  -37.6539   23.6634 H   0  0  0  0  0  0
  -26.0288  -31.5884   20.5799 H   0  0  0  0  0  0
  -26.8249  -30.9094   21.9680 H   0  0  0  0  0  0
  -28.1089  -29.1238   21.1823 H   0  0  0  0  0  0
  -26.1258  -25.9865   18.9969 H   0  0  0  0  0  0
  -24.0058  -27.2746   19.0414 H   0  0  0  0  0  0
  -23.7307  -30.5826   19.4042 H   0  0  0  0  0  0
  -22.7434  -29.2288   19.8645 H   0  0  0  0  0  0
  -25.1264  -36.2012   25.0853 H   0  0  0  0  0  0
  -20.9922  -28.3151   24.1467 H   0  0  0  0  0  0
  -20.5632  -26.2222   23.3606 H   0  0  0  0  0  0
  -21.6650  -26.7376   22.1233 H   0  0  0  0  0  0
  -19.6918  -25.6278   21.1210 H   0  0  0  0  0  0
  -19.6716  -27.3208   20.6765 H   0  0  0  0  0  0
  -17.4212  -26.6658   21.3995 H   0  0  0  0  0  0
  -18.0316  -26.0061   22.8984 H   0  0  0  0  0  0
  -19.7953  -30.7225   24.2265 H   0  0  0  0  0  0
  -17.5046  -31.6250   24.5160 H   0  0  0  0  0  0
  -15.5369  -30.2991   23.7652 H   0  0  0  0  0  0
  -15.8666  -28.0840   22.7009 H   0  0  0  0  0  0
  -24.5854  -30.7092   25.7871 H   0  0  0  0  0  0
  -24.8902  -32.2907   26.4934 H   0  0  0  0  0  0
  -25.8055  -30.8941   27.0270 H   0  0  0  0  0  0
  -26.2824  -29.6864   24.1070 H   0  0  0  0  0  0
  -27.4127  -29.7296   25.4421 H   0  0  0  0  0  0
  -27.8594  -30.4516   23.9140 H   0  0  0  0  0  0
  -27.2675  -33.3596   26.2099 H   0  0  0  0  0  0
  -28.3807  -32.6857   25.0273 H   0  0  0  0  0  0
  -28.0714  -31.8391   26.5356 H   0  0  0  0  0  0
  -28.2594  -38.0116   24.7530 H   0  0  0  0  0  0
  -28.1090  -36.2646   24.6240 H   0  0  0  0  0  0
  -27.2322  -37.1404   25.8877 H   0  0  0  0  0  0
  -20.9311  -29.8783   21.7031 H   0  0  0  0  0  0
  -26.0188  -38.2906   24.1439 H   0  0  0  0  0  0
  -31.9215  -19.4300   20.2707 H   0  0  0  0  0  0
  -28.7320  -20.3133   17.3279 H   0  0  0  0  0  0
  -28.0243  -19.3291   18.6063 H   0  0  0  0  0  0
  -29.7506  -19.2246   18.2556 H   0  0  0  0  0  0
  -27.9462  -22.5026   24.4298 H   0  0  0  0  0  0
  -29.6279  -21.9846   24.4061 H   0  0  0  0  0  0
  -28.3573  -20.9018   23.8330 H   0  0  0  0  0  0
  -28.4391  -21.8278   19.1951 H   0  0  0  0  0  0
  -30.1359  -21.4925   19.0369 H   0  0  0  0  0  0
  -30.2100  -24.1723   22.8708 H   0  0  0  0  0  0
  -28.5432  -24.5271   23.1782 H   0  0  0  0  0  0
  -30.0909  -26.6555   21.1926 H   0  0  0  0  0  0
  -28.5612  -26.6305   22.0479 H   0  0  0  0  0  0
  -28.1862  -20.5015   21.1143 H   0  0  0  0  0  0
  -27.8473  -22.4741   21.9642 H   0  0  0  0  0  0
  -28.1058  -24.4053   20.6532 H   0  0  0  0  0  0
  -29.2588  -15.0716   21.8163 H   0  0  0  0  0  0
  -30.1884  -22.4056   20.9802 H   0  0  0  0  0  0
  -30.5562  -21.4015   22.2087 H   0  0  0  0  0  0
  -30.0870  -24.7256   19.4667 H   0  0  0  0  0  0
  1 25  1  0  0  0
  1 30  2  0  0  0
  1 83  1  0  0  0
  2  3  1  0  0  0
  2 25  1  0  0  0
  2 87  1  0  0  0
  2 88  1  0  0  0
  3  4  1  0  0  0
  3 89  1  0  0  0
  3 90  1  0  0  0
  4  5  1  0  0  0
  4 91  1  0  0  0
  4 92  1  0  0  0
  5  6  1  0  0  0
  5 26  1  0  0  0
  5 93  1  0  0  0
  6 25  1  0  0  0
  6 94  1  0  0  0
  6 95  1  0  0  0
  7  8  2  0  0  0
  7 26  1  0  0  0
  7 29  1  0  0  0
  8  9  1  0  0  0
  8 22  1  0  0  0
  9 10  1  0  0  0
  9 27  2  0  0  0
 10 11  2  0  0  0
 10 15  1  0  0  0
 11 12  1  0  0  0
 11 96  1  0  0  0
 12 13  2  0  0  0
 12 97  1  0  0  0
 13 14  1  0  0  0
 13 31  1  0  0  0
 14 15  2  0  0  0
 14 98  1  0  0  0
 15 99  1  0  0  0
 16 17  2  0  0  0
 16 21  1  0  0  0
 16 31  1  0  0  0
 17 18  1  0  0  0
 17100  1  0  0  0
 18 19  2  0  0  0
 18101  1  0  0  0
 19 20  1  0  0  0
 19 24  1  0  0  0
 20 21  2  0  0  0
 20102  1  0  0  0
 21 23  1  0  0  0
 22 28  1  0  0  0
 22 32  2  0  0  0
 26 27  1  0  0  0
 28103  1  0  0  0
 28104  1  0  0  0
 29105  1  0  0  0
 29106  1  0  0  0
 33 34  1  0  0  0
 33 66  1  0  0  0
 33 70  2  0  0  0
 34 36  1  0  0  0
 34 59  1  0  0  0
 34107  1  0  0  0
 35 44  2  0  0  0
 35 45  1  0  0  0
 35 68  1  0  0  0
 36 56  1  0  0  0
 36108  1  0  0  0
 37 39  1  0  0  0
 37 47  1  0  0  0
 37 66  1  0  0  0
 37109  1  0  0  0
 38 43  2  0  0  0
 38 46  1  0  0  0
 38 47  1  0  0  0
 39 64  1  0  0  0
 39 67  2  0  0  0
 40 52  1  0  0  0
 40 53  2  0  0  0
 40 58  1  0  0  0
 41110  1  0  0  0
 41111  1  0  0  0
 41112  1  0  0  0
 41 48  1  0  0  0
 42 43  1  0  0  0
 42 66  1  0  0  0
 42113  1  0  0  0
 42114  1  0  0  0
 43 44  1  0  0  0
 44115  1  0  0  0
 45 46  2  0  0  0
 45116  1  0  0  0
 46117  1  0  0  0
 47118  1  0  0  0
 47119  1  0  0  0
 48 56  1  0  0  0
 48 65  1  0  0  0
 48120  1  0  0  0
 49 50  1  0  0  0
 49 53  1  0  0  0
 49 64  1  0  0  0
 49121  1  0  0  0
 50 51  1  0  0  0
 50122  1  0  0  0
 50123  1  0  0  0
 51 52  1  0  0  0
 51124  1  0  0  0
 51125  1  0  0  0
 52126  1  0  0  0
 52127  1  0  0  0
 53 54  1  0  0  0
 54 55  2  0  0  0
 54128  1  0  0  0
 55 57  1  0  0  0
 55129  1  0  0  0
 56 69  2  0  0  0
 57 58  2  0  0  0
 57130  1  0  0  0
 58131  1  0  0  0
 59 60  1  0  0  0
 59 61  1  0  0  0
 59 62  1  0  0  0
 60132  1  0  0  0
 60133  1  0  0  0
 60134  1  0  0  0
 61135  1  0  0  0
 61136  1  0  0  0
 61137  1  0  0  0
 62138  1  0  0  0
 62139  1  0  0  0
 62140  1  0  0  0
 63 65  1  0  0  0
 63141  1  0  0  0
 63142  1  0  0  0
 63143  1  0  0  0
 64144  1  0  0  0
 65145  1  0  0  0
 68 78  1  0  0  0
 71 72  2  0  0  0
 71 82  1  0  0  0
 71146  1  0  0  0
 72 79  1  0  0  0
 72 86  1  0  0  0
 73 82  2  0  0  0
 73 83  1  0  0  0
 73 86  1  0  0  0
 74 76  1  0  0  0
 74147  1  0  0  0
 74148  1  0  0  0
 74149  1  0  0  0
 75150  1  0  0  0
 75151  1  0  0  0
 75152  1  0  0  0
 75 80  1  0  0  0
 76153  1  0  0  0
 76154  1  0  0  0
 76 79  1  0  0  0
 77 80  1  0  0  0
 77 81  1  0  0  0
 77155  1  0  0  0
 77156  1  0  0  0
 78 81  1  0  0  0
 78157  1  0  0  0
 78158  1  0  0  0
 79 84  1  0  0  0
 79159  1  0  0  0
 80 84  1  0  0  0
 80160  1  0  0  0
 81 85  1  0  0  0
 81161  1  0  0  0
 83162  1  0  0  0
 84163  1  0  0  0
 84164  1  0  0  0
 85165  1  0  0  0
M  CHG  1  84   1
M  ISO  4   1 100  68 101  78 101  83 100
M  END
> <chiral flag>
0

> <version>
0

> <s_m_source_file>
/data/baiqing/PycharmProjects/Reinvent-master-3.2/result/LINK_invent/BTK/process_docking_weight1_custom_product_contain_oxygen_bond_distance_aromatic_linkinvent_7_9_3/rearranged_h_0190.sdf

> <i_m_source_file_index>
40

> <r_mmod_Potential_Energy-OPLS-2005>
-263.994445800781

> <r_mmod_Stretch_Energy-OPLS-2005>
36.6831893920898

> <r_mmod_Bend_Energy-OPLS-2005>
106.590110778809

> <r_mmod_Torsional_Energy-OPLS-2005>
251.799545288086

> <r_mmod_Improper_Torsional_Energy-OPLS-2005>
4.25847482681274

> <r_mmod_Van_der_Waal_Energy-OPLS-2005>
125.058334350586

> <r_mmod_Electrostatic_Energy-OPLS-2005>
-345.207916259766

> <r_mmod_Solvation_Energy-OPLS-2005>
-452.529022216797

> <b_mmod_Minimization_Converged-OPLS-2005>
0

> <r_mmod_RMS_Derivative-OPLS-2005>
4.05581903457642

$$$$
40
                    3D
 Structure written by MMmdl.
156164  0  0  1  0            999 V2000
  -30.7364  -14.3704   20.6859 C   0  0  0  0  0  0
  -30.4221  -12.2957   19.3852 C   0  0  0  0  0  0
  -29.4846  -12.5349   18.1854 C   0  0  0  0  0  0
  -28.0065  -12.3887   18.5996 C   0  0  0  0  0  0
  -27.6642  -13.1981   19.8787 C   0  0  2  0  0  0
  -28.7004  -12.9127   20.9852 C   0  0  0  0  0  0
  -25.2581  -13.8150   20.5639 C   0  0  0  0  0  0
  -24.1828  -13.0439   20.9142 C   0  0  0  0  0  0
  -24.6380  -11.6904   20.8719 C   0  0  0  0  0  0
  -23.9055  -10.4294   21.0407 C   0  0  0  0  0  0
  -24.3609   -9.4212   21.9184 C   0  0  0  0  0  0
  -23.6280   -8.2251   22.0771 C   0  0  0  0  0  0
  -22.4251   -8.0295   21.3567 C   0  0  0  0  0  0
  -21.9885   -9.0267   20.4667 C   0  0  0  0  0  0
  -22.7222  -10.2141   20.3062 C   0  0  0  0  0  0
  -21.6849   -6.0733   22.5281 C   0  0  0  0  0  0
  -21.4030   -6.5634   23.8215 C   0  0  0  0  0  0
  -21.3656   -5.6795   24.9174 C   0  0  0  0  0  0
  -21.6030   -4.3054   24.7226 C   0  0  0  0  0  0
  -21.8817   -3.8142   23.4348 C   0  0  0  0  0  0
  -21.9192   -4.6962   22.3407 C   0  0  0  0  0  0
  -22.7847  -13.5254   21.1809 C   0  0  0  0  0  0
  -22.1652   -4.2148   21.0983 F   0  0  0  0  0  0
  -21.5626   -3.4540   25.7740 F   0  0  0  0  0  0
  -30.0399  -13.2280   20.4535 N   0  0  0  0  0  0
  -26.3020  -12.9309   20.3345 N   0  0  0  0  0  0
  -25.9299  -11.6475   20.5722 N   0  0  0  0  0  0
  -22.0487  -12.8264   22.0379 N   0  0  0  0  0  0
  -25.4324  -15.1866   20.4055 N   0  0  0  0  0  0
  -31.7793  -14.6659   20.0935 O   0  0  0  0  0  0
  -21.6633   -6.8874   21.4245 O   0  0  0  0  0  0
  -22.3547  -14.5557   20.6655 O   0  0  0  0  0  0
  -24.6122  -31.8697   23.2107 C   0  0  0  0  0  0
  -25.9024  -32.4830   23.8405 C   0  0  1  0  0  0
  -27.2258  -27.4570   20.0876 C   0  0  0  0  0  0
  -25.5889  -33.8631   24.2334 N   0  0  0  0  0  0
  -23.3980  -30.4946   21.5515 C   0  0  2  0  0  0
  -24.8418  -28.9655   20.1119 C   0  0  0  0  0  0
  -22.7388  -29.4677   22.4992 C   0  0  0  0  0  0
  -18.0271  -28.1373   22.8505 C   0  0  0  0  0  0
  -24.1485  -36.7326   23.2640 C   0  0  0  0  0  0
  -25.9255  -30.8447   21.3582 C   0  0  0  0  0  0
  -26.0030  -29.4824   20.7015 C   0  0  0  0  0  0
  -27.2022  -28.7371   20.6789 C   0  0  0  0  0  0
  -26.0483  -26.9480   19.4960 C   0  0  0  0  0  0
  -24.8592  -27.6978   19.5061 C   0  0  0  0  0  0
  -23.6022  -29.8274   20.1655 C   0  0  0  0  0  0
  -25.4106  -36.3119   24.0338 C   0  0  1  0  0  0
  -20.5860  -28.3660   23.1316 C   0  0  2  0  0  0
  -20.6748  -26.9397   22.5416 C   0  0  0  0  0  0
  -19.5729  -26.6382   21.5211 C   0  0  0  0  0  0
  -18.1911  -26.7929   22.1623 C   0  0  0  0  0  0
  -19.1518  -28.8829   23.2919 C   0  0  0  0  0  0
  -18.9450  -30.1435   23.8927 C   0  0  0  0  0  0
  -17.6451  -30.6578   24.0570 C   0  0  0  0  0  0
  -25.9027  -34.9481   23.5134 C   0  0  0  0  0  0
  -16.5345  -29.9083   23.6323 C   0  0  0  0  0  0
  -16.7259  -28.6498   23.0352 C   0  0  0  0  0  0
  -26.4463  -31.6619   25.0729 C   0  0  0  0  0  0
  -25.3733  -31.3723   26.1493 C   0  0  0  0  0  0
  -27.0301  -30.3065   24.6107 C   0  0  0  0  0  0
  -27.6045  -32.4345   25.7475 C   0  0  0  0  0  0
  -27.5585  -37.1807   24.8459 C   0  0  0  0  0  0
  -21.4116  -29.3033   22.3722 N   0  0  0  0  0  0
  -26.4288  -37.3801   23.9402 N   0  0  0  0  0  0
  -24.6640  -31.0823   22.0993 N   0  0  0  0  0  0
  -23.4171  -28.8212   23.3022 O   0  0  0  0  0  0
  -28.3877  -26.7236   20.1034 O   0  0  0  0  0  0
  -26.5597  -34.8925   22.4698 O   0  0  0  0  0  0
  -23.5314  -32.1451   23.7506 O   0  0  0  0  0  0
  -29.0608  -17.8221   20.7871 C   0  0  0  0  0  0
  -30.0057  -17.6325   21.7730 C   0  0  0  0  0  0
  -29.1127  -19.9136   21.6461 C   0  0  0  0  0  0
  -29.2297  -22.2940   21.1908 C   0  0  0  0  0  0
  -30.5576  -23.4434   22.9687 C   0  0  0  0  0  0
  -30.7636  -16.3961   22.1582 C   0  0  0  0  0  0
  -29.5102  -24.8838   21.1713 C   0  0  0  0  0  0
  -28.2290  -25.3496   20.4663 C   0  0  0  0  0  0
  -29.3595  -23.5897   22.0110 C   0  0  1  0  0  0
  -28.5512  -19.1282   20.7223 N   0  0  0  0  0  0
  -28.7296  -21.2491   21.8620 N   0  0  0  0  0  0
  -30.2023  -15.1586   21.6265 N   0  0  0  0  0  0
  -29.5523  -22.2562   20.0003 O   0  0  0  0  0  0
  -30.2909  -19.1052   22.6621 S   0  0  0  0  0  0
  -31.4641  -12.4121   19.0814 H   0  0  0  0  0  0
  -30.3346  -11.2682   19.7410 H   0  0  0  0  0  0
  -29.7164  -11.8395   17.3780 H   0  0  0  0  0  0
  -29.6540  -13.5339   17.7791 H   0  0  0  0  0  0
  -27.8054  -11.3291   18.7638 H   0  0  0  0  0  0
  -27.3573  -12.6981   17.7793 H   0  0  0  0  0  0
  -27.7304  -14.2546   19.6222 H   0  0  0  0  0  0
  -28.6651  -11.8579   21.2651 H   0  0  0  0  0  0
  -28.4447  -13.4526   21.8971 H   0  0  0  0  0  0
  -25.2767   -9.5682   22.4743 H   0  0  0  0  0  0
  -23.9995   -7.4639   22.7472 H   0  0  0  0  0  0
  -21.0823   -8.8786   19.8964 H   0  0  0  0  0  0
  -22.3698  -10.9676   19.6158 H   0  0  0  0  0  0
  -21.2041   -7.6153   23.9718 H   0  0  0  0  0  0
  -21.1471   -6.0525   25.9073 H   0  0  0  0  0  0
  -22.0599   -2.7609   23.2850 H   0  0  0  0  0  0
  -22.4100  -11.9957   22.4825 H   0  0  0  0  0  0
  -21.1115  -13.1323   22.2586 H   0  0  0  0  0  0
  -24.6682  -15.8444   20.5145 H   0  0  0  0  0  0
  -26.2853  -15.6227   20.0782 H   0  0  0  0  0  0
  -26.7097  -32.5550   23.1169 H   0  0  0  0  0  0
  -25.0025  -33.9809   25.0471 H   0  0  0  0  0  0
  -22.6873  -31.3120   21.4131 H   0  0  0  0  0  0
  -23.3737  -35.9669   23.3315 H   0  0  0  0  0  0
  -24.3592  -36.8936   22.2054 H   0  0  0  0  0  0
  -23.7242  -37.6534   23.6656 H   0  0  0  0  0  0
  -26.0362  -31.6135   20.5920 H   0  0  0  0  0  0
  -26.8144  -30.8959   21.9762 H   0  0  0  0  0  0
  -28.1032  -29.1325   21.1274 H   0  0  0  0  0  0
  -26.0420  -25.9734   19.0295 H   0  0  0  0  0  0
  -23.9658  -27.2950   19.0485 H   0  0  0  0  0  0
  -23.7014  -30.6022   19.4045 H   0  0  0  0  0  0
  -22.7269  -29.2425   19.8744 H   0  0  0  0  0  0
  -25.1273  -36.1994   25.0830 H   0  0  0  0  0  0
  -20.9974  -28.3222   24.1428 H   0  0  0  0  0  0
  -20.5628  -26.2271   23.3598 H   0  0  0  0  0  0
  -21.6619  -26.7415   22.1223 H   0  0  0  0  0  0
  -19.6882  -25.6300   21.1220 H   0  0  0  0  0  0
  -19.6657  -27.3198   20.6746 H   0  0  0  0  0  0
  -17.4176  -26.6690   21.4032 H   0  0  0  0  0  0
  -18.0308  -26.0060   22.9001 H   0  0  0  0  0  0
  -19.7923  -30.7248   24.2302 H   0  0  0  0  0  0
  -17.5004  -31.6257   24.5165 H   0  0  0  0  0  0
  -15.5346  -30.2980   23.7633 H   0  0  0  0  0  0
  -15.8666  -28.0809   22.7060 H   0  0  0  0  0  0
  -24.5883  -30.7107   25.7822 H   0  0  0  0  0  0
  -24.8956  -32.2884   26.4974 H   0  0  0  0  0  0
  -25.8089  -30.8856   27.0228 H   0  0  0  0  0  0
  -26.2848  -29.6812   24.1182 H   0  0  0  0  0  0
  -27.4103  -29.7325   25.4565 H   0  0  0  0  0  0
  -27.8664  -30.4394   23.9238 H   0  0  0  0  0  0
  -27.2671  -33.3630   26.2091 H   0  0  0  0  0  0
  -28.3814  -32.6942   25.0271 H   0  0  0  0  0  0
  -28.0767  -31.8463   26.5348 H   0  0  0  0  0  0
  -28.2594  -38.0111   24.7524 H   0  0  0  0  0  0
  -28.1088  -36.2648   24.6254 H   0  0  0  0  0  0
  -27.2324  -37.1429   25.8868 H   0  0  0  0  0  0
  -20.9258  -29.8776   21.6978 H   0  0  0  0  0  0
  -26.0186  -38.2883   24.1408 H   0  0  0  0  0  0
  -28.6867  -17.0802   20.0953 H   0  0  0  0  0  0
  -30.4551  -22.5731   23.6190 H   0  0  0  0  0  0
  -30.6574  -24.3144   23.6167 H   0  0  0  0  0  0
  -31.4915  -23.3333   22.4169 H   0  0  0  0  0  0
  -30.7580  -16.3030   23.2455 H   0  0  0  0  0  0
  -31.8121  -16.5076   21.8753 H   0  0  0  0  0  0
  -29.8218  -25.6844   21.8427 H   0  0  0  0  0  0
  -30.3170  -24.7812   20.4458 H   0  0  0  0  0  0
  -27.3904  -25.2368   21.1564 H   0  0  0  0  0  0
  -28.0173  -24.7411   19.5857 H   0  0  0  0  0  0
  -28.4581  -23.6879   22.6180 H   0  0  0  0  0  0
  -28.4792  -21.4597   22.8169 H   0  0  0  0  0  0
  -29.3604  -14.8167   22.0645 H   0  0  0  0  0  0
  1 25  1  0  0  0
  1 30  2  0  0  0
  1 82  1  0  0  0
  2  3  1  0  0  0
  2 25  1  0  0  0
  2 85  1  0  0  0
  2 86  1  0  0  0
  3  4  1  0  0  0
  3 87  1  0  0  0
  3 88  1  0  0  0
  4  5  1  0  0  0
  4 89  1  0  0  0
  4 90  1  0  0  0
  5  6  1  0  0  0
  5 26  1  0  0  0
  5 91  1  0  0  0
  6 25  1  0  0  0
  6 92  1  0  0  0
  6 93  1  0  0  0
  7  8  2  0  0  0
  7 26  1  0  0  0
  7 29  1  0  0  0
  8  9  1  0  0  0
  8 22  1  0  0  0
  9 10  1  0  0  0
  9 27  2  0  0  0
 10 11  2  0  0  0
 10 15  1  0  0  0
 11 12  1  0  0  0
 11 94  1  0  0  0
 12 13  2  0  0  0
 12 95  1  0  0  0
 13 14  1  0  0  0
 13 31  1  0  0  0
 14 15  2  0  0  0
 14 96  1  0  0  0
 15 97  1  0  0  0
 16 17  2  0  0  0
 16 21  1  0  0  0
 16 31  1  0  0  0
 17 18  1  0  0  0
 17 98  1  0  0  0
 18 19  2  0  0  0
 18 99  1  0  0  0
 19 20  1  0  0  0
 19 24  1  0  0  0
 20 21  2  0  0  0
 20100  1  0  0  0
 21 23  1  0  0  0
 22 28  1  0  0  0
 22 32  2  0  0  0
 26 27  1  0  0  0
 28101  1  0  0  0
 28102  1  0  0  0
 29103  1  0  0  0
 29104  1  0  0  0
 33 34  1  0  0  0
 33 66  1  0  0  0
 33 70  2  0  0  0
 34 36  1  0  0  0
 34 59  1  0  0  0
 34105  1  0  0  0
 35 44  2  0  0  0
 35 45  1  0  0  0
 35 68  1  0  0  0
 36 56  1  0  0  0
 36106  1  0  0  0
 37 39  1  0  0  0
 37 47  1  0  0  0
 37 66  1  0  0  0
 37107  1  0  0  0
 38 43  2  0  0  0
 38 46  1  0  0  0
 38 47  1  0  0  0
 39 64  1  0  0  0
 39 67  2  0  0  0
 40 52  1  0  0  0
 40 53  2  0  0  0
 40 58  1  0  0  0
 41108  1  0  0  0
 41109  1  0  0  0
 41110  1  0  0  0
 41 48  1  0  0  0
 42 43  1  0  0  0
 42 66  1  0  0  0
 42111  1  0  0  0
 42112  1  0  0  0
 43 44  1  0  0  0
 44113  1  0  0  0
 45 46  2  0  0  0
 45114  1  0  0  0
 46115  1  0  0  0
 47116  1  0  0  0
 47117  1  0  0  0
 48 56  1  0  0  0
 48 65  1  0  0  0
 48118  1  0  0  0
 49 50  1  0  0  0
 49 53  1  0  0  0
 49 64  1  0  0  0
 49119  1  0  0  0
 50 51  1  0  0  0
 50120  1  0  0  0
 50121  1  0  0  0
 51 52  1  0  0  0
 51122  1  0  0  0
 51123  1  0  0  0
 52124  1  0  0  0
 52125  1  0  0  0
 53 54  1  0  0  0
 54 55  2  0  0  0
 54126  1  0  0  0
 55 57  1  0  0  0
 55127  1  0  0  0
 56 69  2  0  0  0
 57 58  2  0  0  0
 57128  1  0  0  0
 58129  1  0  0  0
 59 60  1  0  0  0
 59 61  1  0  0  0
 59 62  1  0  0  0
 60130  1  0  0  0
 60131  1  0  0  0
 60132  1  0  0  0
 61133  1  0  0  0
 61134  1  0  0  0
 61135  1  0  0  0
 62136  1  0  0  0
 62137  1  0  0  0
 62138  1  0  0  0
 63 65  1  0  0  0
 63139  1  0  0  0
 63140  1  0  0  0
 63141  1  0  0  0
 64142  1  0  0  0
 65143  1  0  0  0
 68 78  1  0  0  0
 71 72  2  0  0  0
 71 80  1  0  0  0
 71144  1  0  0  0
 72 76  1  0  0  0
 72 84  1  0  0  0
 73 80  2  0  0  0
 73 81  1  0  0  0
 73 84  1  0  0  0
 74 79  1  0  0  0
 74 81  1  0  0  0
 74 83  2  0  0  0
 75145  1  0  0  0
 75146  1  0  0  0
 75147  1  0  0  0
 75 79  1  0  0  0
 76 82  1  0  0  0
 76148  1  0  0  0
 76149  1  0  0  0
 77 78  1  0  0  0
 77 79  1  0  0  0
 77150  1  0  0  0
 77151  1  0  0  0
 78152  1  0  0  0
 78153  1  0  0  0
 79154  1  0  0  0
 81155  1  0  0  0
 82156  1  0  0  0
M  ISO  4   1 100  68 101  78 101  82 100
M  END
> <chiral flag>
0

> <version>
0

> <s_m_source_file>
/data/baiqing/PycharmProjects/Reinvent-master-3.2/result/LINK_invent/BTK/process_docking_weight1_custom_product_contain_oxygen_bond_distance_aromatic_linkinvent_7_9_3/rearranged_h_0190.sdf

> <i_m_source_file_index>
41

> <r_mmod_Potential_Energy-OPLS-2005>
-203.366348266602

> <r_mmod_Stretch_Energy-OPLS-2005>
31.0150966644287

> <r_mmod_Bend_Energy-OPLS-2005>
93.0349349975586

> <r_mmod_Torsional_Energy-OPLS-2005>
237.303985595703

> <r_mmod_Improper_Torsional_Energy-OPLS-2005>
4.45728397369385

> <r_mmod_Van_der_Waal_Energy-OPLS-2005>
131.564071655273

> <r_mmod_Electrostatic_Energy-OPLS-2005>
-460.310241699219

> <r_mmod_Solvation_Energy-OPLS-2005>
-248.695404052734

> <b_mmod_Minimization_Converged-OPLS-2005>
0

> <r_mmod_RMS_Derivative-OPLS-2005>
2.45675277709961

$$$$
41
                    3D
 Structure written by MMmdl.
153161  0  0  1  0            999 V2000
  -30.6334  -14.7348   20.4538 C   0  0  0  0  0  0
  -30.4269  -12.4472   19.4796 C   0  0  0  0  0  0
  -29.5091  -12.5037   18.2395 C   0  0  0  0  0  0
  -28.0359  -12.3299   18.6541 C   0  0  0  0  0  0
  -27.6414  -13.2354   19.8526 C   0  0  2  0  0  0
  -28.6879  -13.1785   20.9884 C   0  0  0  0  0  0
  -25.2496  -13.8197   20.5676 C   0  0  0  0  0  0
  -24.1793  -13.0432   20.9188 C   0  0  0  0  0  0
  -24.6383  -11.6914   20.8744 C   0  0  0  0  0  0
  -23.9061  -10.4298   21.0405 C   0  0  0  0  0  0
  -24.3609   -9.4215   21.9178 C   0  0  0  0  0  0
  -23.6291   -8.2244   22.0752 C   0  0  0  0  0  0
  -22.4281   -8.0274   21.3537 C   0  0  0  0  0  0
  -21.9903   -9.0250   20.4641 C   0  0  0  0  0  0
  -22.7229  -10.2132   20.3053 C   0  0  0  0  0  0
  -21.6856   -6.0725   22.5278 C   0  0  0  0  0  0
  -21.4012   -6.5633   23.8212 C   0  0  0  0  0  0
  -21.3659   -5.6789   24.9173 C   0  0  0  0  0  0
  -21.6054   -4.3050   24.7226 C   0  0  0  0  0  0
  -21.8820   -3.8139   23.4346 C   0  0  0  0  0  0
  -21.9192   -4.6952   22.3402 C   0  0  0  0  0  0
  -22.7815  -13.5211   21.1861 C   0  0  0  0  0  0
  -22.1662   -4.2138   21.0978 F   0  0  0  0  0  0
  -21.5633   -3.4534   25.7736 F   0  0  0  0  0  0
  -29.9912  -13.5177   20.4064 N   0  0  0  0  0  0
  -26.2934  -12.9415   20.3290 N   0  0  0  0  0  0
  -25.9323  -11.6550   20.5767 N   0  0  0  0  0  0
  -22.0465  -12.8211   22.0424 N   0  0  0  0  0  0
  -25.4153  -15.1916   20.4081 N   0  0  0  0  0  0
  -31.8191  -14.8129   20.1266 O   0  0  0  0  0  0
  -21.6642   -6.8868   21.4242 O   0  0  0  0  0  0
  -22.3487  -14.5505   20.6697 O   0  0  0  0  0  0
  -24.6319  -31.8546   23.1980 C   0  0  0  0  0  0
  -25.9138  -32.4747   23.8319 C   0  0  1  0  0  0
  -27.2193  -27.2527   20.1209 C   0  0  0  0  0  0
  -25.5950  -33.8556   24.2256 N   0  0  0  0  0  0
  -23.4298  -30.4784   21.5408 C   0  0  2  0  0  0
  -24.8755  -28.9259   20.1071 C   0  0  0  0  0  0
  -22.7502  -29.4619   22.4896 C   0  0  0  0  0  0
  -18.0292  -28.1401   22.8493 C   0  0  0  0  0  0
  -24.1490  -36.7277   23.2636 C   0  0  0  0  0  0
  -25.9767  -30.7645   21.3802 C   0  0  0  0  0  0
  -26.0466  -29.3867   20.7197 C   0  0  0  0  0  0
  -27.2178  -28.5604   20.7208 C   0  0  0  0  0  0
  -26.0263  -26.8752   19.4617 C   0  0  0  0  0  0
  -24.8700  -27.6776   19.4682 C   0  0  0  0  0  0
  -23.6476  -29.8142   20.1560 C   0  0  0  0  0  0
  -25.4116  -36.3067   24.0330 C   0  0  1  0  0  0
  -20.5908  -28.3719   23.1258 C   0  0  2  0  0  0
  -20.6786  -26.9436   22.5398 C   0  0  0  0  0  0
  -19.5761  -26.6403   21.5205 C   0  0  0  0  0  0
  -18.1943  -26.7947   22.1619 C   0  0  0  0  0  0
  -19.1555  -28.8871   23.2876 C   0  0  0  0  0  0
  -18.9474  -30.1471   23.8896 C   0  0  0  0  0  0
  -17.6476  -30.6600   24.0578 C   0  0  0  0  0  0
  -25.9063  -34.9436   23.5095 C   0  0  0  0  0  0
  -16.5363  -29.9106   23.6343 C   0  0  0  0  0  0
  -16.7279  -28.6524   23.0360 C   0  0  0  0  0  0
  -26.4505  -31.6585   25.0714 C   0  0  0  0  0  0
  -25.3731  -31.3763   26.1446 C   0  0  0  0  0  0
  -27.0344  -30.2991   24.6218 C   0  0  0  0  0  0
  -27.6077  -32.4310   25.7474 C   0  0  0  0  0  0
  -27.5578  -37.1787   24.8468 C   0  0  0  0  0  0
  -21.4210  -29.3065   22.3639 N   0  0  0  0  0  0
  -26.4288  -37.3770   23.9416 N   0  0  0  0  0  0
  -24.6991  -31.0498   22.0960 N   0  0  0  0  0  0
  -23.4197  -28.8157   23.2998 O   0  0  0  0  0  0
  -28.3164  -26.3568   20.2143 O   0  0  0  0  0  0
  -26.5628  -34.8921   22.4654 O   0  0  0  0  0  0
  -23.5469  -32.1368   23.7285 O   0  0  0  0  0  0
  -29.5196  -18.6253   20.6597 C   0  0  0  0  0  0
  -28.4546  -18.7673   21.5308 C   0  0  0  0  0  0
  -29.0967  -20.9882   20.5155 C   0  0  0  0  0  0
  -28.6715  -24.8657   18.3367 C   0  0  0  0  0  0
  -30.3617  -17.3192   20.3342 C   0  0  0  0  0  0
  -28.9886  -23.7633   20.6727 C   0  0  0  0  0  0
  -28.2243  -24.9042   19.8057 C   0  0  1  0  0  0
  -29.8330  -19.9172   20.0844 N   0  0  0  0  0  0
  -27.8269  -17.7878   22.2966 N   0  0  0  0  0  0
  -29.2160  -22.3701   20.1042 N   0  0  0  0  0  0
  -29.8946  -15.8928   20.6351 N   0  0  0  0  0  0
  -27.8995  -20.4425   21.6871 S   0  0  0  0  0  0
  -31.4688  -12.5580   19.1776 H   0  0  0  0  0  0
  -30.3619  -11.4731   19.9668 H   0  0  0  0  0  0
  -29.7969  -11.7309   17.5243 H   0  0  0  0  0  0
  -29.6395  -13.4585   17.7293 H   0  0  0  0  0  0
  -27.8976  -11.2814   18.9234 H   0  0  0  0  0  0
  -27.3781  -12.5129   17.8046 H   0  0  0  0  0  0
  -27.6350  -14.2563   19.4697 H   0  0  0  0  0  0
  -28.7150  -12.1878   21.4430 H   0  0  0  0  0  0
  -28.4231  -13.8721   21.7875 H   0  0  0  0  0  0
  -25.2746   -9.5696   22.4752 H   0  0  0  0  0  0
  -24.0005   -7.4639   22.7461 H   0  0  0  0  0  0
  -21.0836   -8.8753   19.8955 H   0  0  0  0  0  0
  -22.3666  -10.9662   19.6167 H   0  0  0  0  0  0
  -21.2004   -7.6143   23.9705 H   0  0  0  0  0  0
  -21.1484   -6.0521   25.9075 H   0  0  0  0  0  0
  -22.0599   -2.7600   23.2848 H   0  0  0  0  0  0
  -22.4086  -11.9883   22.4833 H   0  0  0  0  0  0
  -21.1080  -13.1238   22.2632 H   0  0  0  0  0  0
  -24.6498  -15.8438   20.5358 H   0  0  0  0  0  0
  -26.2776  -15.6466   20.1380 H   0  0  0  0  0  0
  -26.7216  -32.5396   23.1076 H   0  0  0  0  0  0
  -25.0119  -33.9694   25.0418 H   0  0  0  0  0  0
  -22.7282  -31.3020   21.3930 H   0  0  0  0  0  0
  -23.3759  -35.9603   23.3299 H   0  0  0  0  0  0
  -24.3591  -36.8890   22.2049 H   0  0  0  0  0  0
  -23.7224  -37.6473   23.6658 H   0  0  0  0  0  0
  -26.1163  -31.5276   20.6124 H   0  0  0  0  0  0
  -26.8542  -30.8125   22.0141 H   0  0  0  0  0  0
  -28.1116  -28.9034   21.2249 H   0  0  0  0  0  0
  -25.9433  -25.9350   18.9402 H   0  0  0  0  0  0
  -23.9774  -27.3212   18.9721 H   0  0  0  0  0  0
  -23.7736  -30.5912   19.4011 H   0  0  0  0  0  0
  -22.7648  -29.2506   19.8491 H   0  0  0  0  0  0
  -25.1300  -36.1909   25.0825 H   0  0  0  0  0  0
  -21.0013  -28.3294   24.1376 H   0  0  0  0  0  0
  -20.5681  -26.2330   23.3610 H   0  0  0  0  0  0
  -21.6649  -26.7474   22.1181 H   0  0  0  0  0  0
  -19.6929  -25.6315   21.1228 H   0  0  0  0  0  0
  -19.6686  -27.3217   20.6743 H   0  0  0  0  0  0
  -17.4211  -26.6699   21.4019 H   0  0  0  0  0  0
  -18.0354  -26.0086   22.9011 H   0  0  0  0  0  0
  -19.7953  -30.7287   24.2257 H   0  0  0  0  0  0
  -17.5037  -31.6267   24.5187 H   0  0  0  0  0  0
  -15.5367  -30.3009   23.7661 H   0  0  0  0  0  0
  -15.8683  -28.0839   22.7078 H   0  0  0  0  0  0
  -24.5904  -30.7107   25.7787 H   0  0  0  0  0  0
  -24.8923  -32.2945   26.4830 H   0  0  0  0  0  0
  -25.8042  -30.8966   27.0243 H   0  0  0  0  0  0
  -26.2922  -29.6726   24.1251 H   0  0  0  0  0  0
  -27.4025  -29.7271   25.4744 H   0  0  0  0  0  0
  -27.8817  -30.4259   23.9475 H   0  0  0  0  0  0
  -27.2719  -33.3639   26.2027 H   0  0  0  0  0  0
  -28.3898  -32.6810   25.0290 H   0  0  0  0  0  0
  -28.0741  -31.8431   26.5397 H   0  0  0  0  0  0
  -28.2605  -38.0074   24.7518 H   0  0  0  0  0  0
  -28.1060  -36.2602   24.6296 H   0  0  0  0  0  0
  -27.2310  -37.1452   25.8877 H   0  0  0  0  0  0
  -20.9380  -29.8791   21.6857 H   0  0  0  0  0  0
  -26.0166  -38.2847   24.1413 H   0  0  0  0  0  0
  -28.6061  -23.8618   17.9180 H   0  0  0  0  0  0
  -29.7017  -25.2025   18.2346 H   0  0  0  0  0  0
  -28.0491  -25.5117   17.7181 H   0  0  0  0  0  0
  -31.3276  -17.4297   20.8302 H   0  0  0  0  0  0
  -30.6030  -17.3362   19.2704 H   0  0  0  0  0  0
  -28.4889  -23.6624   21.6384 H   0  0  0  0  0  0
  -29.9832  -24.1469   20.9045 H   0  0  0  0  0  0
  -27.1892  -24.5803   19.8514 H   0  0  0  0  0  0
  -28.3332  -16.9610   22.5939 H   0  0  0  0  0  0
  -27.1375  -18.0631   22.9901 H   0  0  0  0  0  0
  -29.8361  -22.4314   19.3037 H   0  0  0  0  0  0
  -28.9191  -15.7834   20.8655 H   0  0  0  0  0  0
  1 25  1  0  0  0
  1 30  2  0  0  0
  1 81  1  0  0  0
  2  3  1  0  0  0
  2 25  1  0  0  0
  2 83  1  0  0  0
  2 84  1  0  0  0
  3  4  1  0  0  0
  3 85  1  0  0  0
  3 86  1  0  0  0
  4  5  1  0  0  0
  4 87  1  0  0  0
  4 88  1  0  0  0
  5  6  1  0  0  0
  5 26  1  0  0  0
  5 89  1  0  0  0
  6 25  1  0  0  0
  6 90  1  0  0  0
  6 91  1  0  0  0
  7  8  2  0  0  0
  7 26  1  0  0  0
  7 29  1  0  0  0
  8  9  1  0  0  0
  8 22  1  0  0  0
  9 10  1  0  0  0
  9 27  2  0  0  0
 10 11  2  0  0  0
 10 15  1  0  0  0
 11 12  1  0  0  0
 11 92  1  0  0  0
 12 13  2  0  0  0
 12 93  1  0  0  0
 13 14  1  0  0  0
 13 31  1  0  0  0
 14 15  2  0  0  0
 14 94  1  0  0  0
 15 95  1  0  0  0
 16 17  2  0  0  0
 16 21  1  0  0  0
 16 31  1  0  0  0
 17 18  1  0  0  0
 17 96  1  0  0  0
 18 19  2  0  0  0
 18 97  1  0  0  0
 19 20  1  0  0  0
 19 24  1  0  0  0
 20 21  2  0  0  0
 20 98  1  0  0  0
 21 23  1  0  0  0
 22 28  1  0  0  0
 22 32  2  0  0  0
 26 27  1  0  0  0
 28 99  1  0  0  0
 28100  1  0  0  0
 29101  1  0  0  0
 29102  1  0  0  0
 33 34  1  0  0  0
 33 66  1  0  0  0
 33 70  2  0  0  0
 34 36  1  0  0  0
 34 59  1  0  0  0
 34103  1  0  0  0
 35 44  2  0  0  0
 35 45  1  0  0  0
 35 68  1  0  0  0
 36 56  1  0  0  0
 36104  1  0  0  0
 37 39  1  0  0  0
 37 47  1  0  0  0
 37 66  1  0  0  0
 37105  1  0  0  0
 38 43  2  0  0  0
 38 46  1  0  0  0
 38 47  1  0  0  0
 39 64  1  0  0  0
 39 67  2  0  0  0
 40 52  1  0  0  0
 40 53  2  0  0  0
 40 58  1  0  0  0
 41106  1  0  0  0
 41107  1  0  0  0
 41108  1  0  0  0
 41 48  1  0  0  0
 42 43  1  0  0  0
 42 66  1  0  0  0
 42109  1  0  0  0
 42110  1  0  0  0
 43 44  1  0  0  0
 44111  1  0  0  0
 45 46  2  0  0  0
 45112  1  0  0  0
 46113  1  0  0  0
 47114  1  0  0  0
 47115  1  0  0  0
 48 56  1  0  0  0
 48 65  1  0  0  0
 48116  1  0  0  0
 49 50  1  0  0  0
 49 53  1  0  0  0
 49 64  1  0  0  0
 49117  1  0  0  0
 50 51  1  0  0  0
 50118  1  0  0  0
 50119  1  0  0  0
 51 52  1  0  0  0
 51120  1  0  0  0
 51121  1  0  0  0
 52122  1  0  0  0
 52123  1  0  0  0
 53 54  1  0  0  0
 54 55  2  0  0  0
 54124  1  0  0  0
 55 57  1  0  0  0
 55125  1  0  0  0
 56 69  2  0  0  0
 57 58  2  0  0  0
 57126  1  0  0  0
 58127  1  0  0  0
 59 60  1  0  0  0
 59 61  1  0  0  0
 59 62  1  0  0  0
 60128  1  0  0  0
 60129  1  0  0  0
 60130  1  0  0  0
 61131  1  0  0  0
 61132  1  0  0  0
 61133  1  0  0  0
 62134  1  0  0  0
 62135  1  0  0  0
 62136  1  0  0  0
 63 65  1  0  0  0
 63137  1  0  0  0
 63138  1  0  0  0
 63139  1  0  0  0
 64140  1  0  0  0
 65141  1  0  0  0
 68 77  1  0  0  0
 71 72  2  0  0  0
 71 75  1  0  0  0
 71 78  1  0  0  0
 72 79  1  0  0  0
 72 82  1  0  0  0
 73 78  2  0  0  0
 73 80  1  0  0  0
 73 82  1  0  0  0
 74142  1  0  0  0
 74143  1  0  0  0
 74144  1  0  0  0
 74 77  1  0  0  0
 75 81  1  0  0  0
 75145  1  0  0  0
 75146  1  0  0  0
 76 77  1  0  0  0
 76 80  1  0  0  0
 76147  1  0  0  0
 76148  1  0  0  0
 77149  1  0  0  0
 79150  1  0  0  0
 79151  1  0  0  0
 80152  1  0  0  0
 81153  1  0  0  0
M  ISO  4   1 100  68 101  77 101  81 100
M  END
> <chiral flag>
0

> <version>
0

> <s_m_source_file>
/data/baiqing/PycharmProjects/Reinvent-master-3.2/result/LINK_invent/BTK/process_docking_weight1_custom_product_contain_oxygen_bond_distance_aromatic_linkinvent_7_9_3/rearranged_h_0190.sdf

> <i_m_source_file_index>
42

> <r_mmod_Potential_Energy-OPLS-2005>
50.5676231384277

> <r_mmod_Stretch_Energy-OPLS-2005>
118.003890991211

> <r_mmod_Bend_Energy-OPLS-2005>
165.60188293457

> <r_mmod_Torsional_Energy-OPLS-2005>
205.375610351562

> <r_mmod_Improper_Torsional_Energy-OPLS-2005>
9.16680145263672

> <r_mmod_Van_der_Waal_Energy-OPLS-2005>
116.765823364258

> <r_mmod_Electrostatic_Energy-OPLS-2005>
-425.732574462891

> <r_mmod_Solvation_Energy-OPLS-2005>
-225.4228515625

> <b_mmod_Minimization_Converged-OPLS-2005>
0

> <r_mmod_RMS_Derivative-OPLS-2005>
2.71603584289551

$$$$
42
                    3D
 Structure written by MMmdl.
167175  0  0  1  0            999 V2000
  -30.5882  -14.7071   20.4519 C   0  0  0  0  0  0
  -30.4334  -12.4315   19.4713 C   0  0  0  0  0  0
  -29.5063  -12.5195   18.2368 C   0  0  0  0  0  0
  -28.0285  -12.3543   18.6450 C   0  0  0  0  0  0
  -27.6470  -13.2257   19.8710 C   0  0  2  0  0  0
  -28.6913  -13.1068   21.0036 C   0  0  0  0  0  0
  -25.2532  -13.8177   20.5732 C   0  0  0  0  0  0
  -24.1810  -13.0439   20.9222 C   0  0  0  0  0  0
  -24.6398  -11.6909   20.8780 C   0  0  0  0  0  0
  -23.9062  -10.4296   21.0406 C   0  0  0  0  0  0
  -24.3620   -9.4203   21.9181 C   0  0  0  0  0  0
  -23.6319   -8.2224   22.0712 C   0  0  0  0  0  0
  -22.4277   -8.0274   21.3531 C   0  0  0  0  0  0
  -21.9929   -9.0238   20.4620 C   0  0  0  0  0  0
  -22.7240  -10.2140   20.3050 C   0  0  0  0  0  0
  -21.6846   -6.0750   22.5277 C   0  0  0  0  0  0
  -21.4010   -6.5625   23.8230 C   0  0  0  0  0  0
  -21.3670   -5.6774   24.9177 C   0  0  0  0  0  0
  -21.6046   -4.3048   24.7208 C   0  0  0  0  0  0
  -21.8818   -3.8154   23.4336 C   0  0  0  0  0  0
  -21.9203   -4.6987   22.3402 C   0  0  0  0  0  0
  -22.7844  -13.5237   21.1913 C   0  0  0  0  0  0
  -22.1663   -4.2174   21.0986 F   0  0  0  0  0  0
  -21.5651   -3.4532   25.7725 F   0  0  0  0  0  0
  -29.9970  -13.4664   20.4373 N   0  0  0  0  0  0
  -26.2967  -12.9367   20.3394 N   0  0  0  0  0  0
  -25.9329  -11.6507   20.5802 N   0  0  0  0  0  0
  -22.0496  -12.8207   22.0457 N   0  0  0  0  0  0
  -25.4283  -15.1886   20.4108 N   0  0  0  0  0  0
  -31.7460  -14.8442   20.0464 O   0  0  0  0  0  0
  -21.6632   -6.8877   21.4228 O   0  0  0  0  0  0
  -22.3518  -14.5524   20.6730 O   0  0  0  0  0  0
  -24.6321  -31.8586   23.2017 C   0  0  0  0  0  0
  -25.9143  -32.4797   23.8364 C   0  0  1  0  0  0
  -27.2084  -27.2556   20.1071 C   0  0  0  0  0  0
  -25.5960  -33.8598   24.2260 N   0  0  0  0  0  0
  -23.4272  -30.4864   21.5449 C   0  0  2  0  0  0
  -24.8669  -28.9354   20.1109 C   0  0  0  0  0  0
  -22.7502  -29.4646   22.4902 C   0  0  0  0  0  0
  -18.0317  -28.1394   22.8474 C   0  0  0  0  0  0
  -24.1489  -36.7265   23.2632 C   0  0  0  0  0  0
  -25.9732  -30.7706   21.3816 C   0  0  0  0  0  0
  -26.0425  -29.3918   20.7182 C   0  0  0  0  0  0
  -27.2128  -28.5651   20.7076 C   0  0  0  0  0  0
  -25.9992  -26.8730   19.4799 C   0  0  0  0  0  0
  -24.8500  -27.6828   19.4877 C   0  0  0  0  0  0
  -23.6410  -29.8231   20.1613 C   0  0  0  0  0  0
  -25.4124  -36.3075   24.0297 C   0  0  1  0  0  0
  -20.5920  -28.3702   23.1243 C   0  0  2  0  0  0
  -20.6776  -26.9417   22.5380 C   0  0  0  0  0  0
  -19.5765  -26.6370   21.5174 C   0  0  0  0  0  0
  -18.1957  -26.7945   22.1591 C   0  0  0  0  0  0
  -19.1579  -28.8859   23.2860 C   0  0  0  0  0  0
  -18.9480  -30.1464   23.8879 C   0  0  0  0  0  0
  -17.6477  -30.6583   24.0567 C   0  0  0  0  0  0
  -25.9069  -34.9457   23.5067 C   0  0  0  0  0  0
  -16.5366  -29.9072   23.6341 C   0  0  0  0  0  0
  -16.7299  -28.6491   23.0345 C   0  0  0  0  0  0
  -26.4502  -31.6658   25.0776 C   0  0  0  0  0  0
  -25.3705  -31.3760   26.1475 C   0  0  0  0  0  0
  -27.0363  -30.3097   24.6278 C   0  0  0  0  0  0
  -27.6103  -32.4383   25.7512 C   0  0  0  0  0  0
  -27.5593  -37.1782   24.8458 C   0  0  0  0  0  0
  -21.4216  -29.3080   22.3646 N   0  0  0  0  0  0
  -26.4278  -37.3782   23.9423 N   0  0  0  0  0  0
  -24.6965  -31.0562   22.0981 N   0  0  0  0  0  0
  -23.4198  -28.8191   23.2989 O   0  0  0  0  0  0
  -28.3229  -26.3771   20.1621 O   0  0  0  0  0  0
  -26.5638  -34.8916   22.4635 O   0  0  0  0  0  0
  -23.5466  -32.1384   23.7314 O   0  0  0  0  0  0
  -29.5147  -19.5061   20.0342 C   0  0  0  0  0  0
  -29.6576  -19.1538   18.7026 C   0  0  0  0  0  0
  -29.7931  -17.1366   20.1964 C   0  0  0  0  0  0
  -32.8826  -21.3340   22.7487 C   0  0  0  0  0  0
  -32.0777  -23.3876   21.5958 C   0  0  0  0  0  0
  -30.6002  -22.1511   23.2697 C   0  0  0  0  0  0
  -29.0098  -22.2492   19.8559 C   0  0  0  0  0  0
  -31.1201  -21.1155   20.9723 C   0  0  0  0  0  0
  -28.3016  -24.9614   19.6394 C   0  0  0  0  0  0
  -29.5937  -20.9585   20.6646 C   0  0  2  0  0  0
  -28.7212  -23.6966   20.5511 C   0  0  1  0  0  0
  -31.6354  -22.0088   22.1361 C   0  0  0  0  0  0
  -29.5448  -18.3121   20.8500 N   0  0  0  0  0  0
  -29.6858  -19.9821   17.5840 N   0  0  0  0  0  0
  -29.8229  -15.8001   20.8085 N   0  0  0  0  0  0
  -27.6558  -23.5157   21.4667 O   0  0  0  0  0  0
  -29.9211  -17.4263   18.4639 S   0  0  0  0  0  0
  -31.4719  -12.5631   19.1625 H   0  0  0  0  0  0
  -30.3850  -11.4401   19.9243 H   0  0  0  0  0  0
  -29.7802  -11.7603   17.5007 H   0  0  0  0  0  0
  -29.6396  -13.4863   17.7444 H   0  0  0  0  0  0
  -27.8648  -11.3007   18.8755 H   0  0  0  0  0  0
  -27.3726  -12.5839   17.8030 H   0  0  0  0  0  0
  -27.6581  -14.2598   19.5248 H   0  0  0  0  0  0
  -28.7219  -12.0876   21.3924 H   0  0  0  0  0  0
  -28.4331  -13.7458   21.8494 H   0  0  0  0  0  0
  -25.2756   -9.5692   22.4780 H   0  0  0  0  0  0
  -24.0057   -7.4579   22.7376 H   0  0  0  0  0  0
  -21.0900   -8.8747   19.8889 H   0  0  0  0  0  0
  -22.3682  -10.9695   19.6188 H   0  0  0  0  0  0
  -21.1955   -7.6123   23.9746 H   0  0  0  0  0  0
  -21.1513   -6.0492   25.9097 H   0  0  0  0  0  0
  -22.0594   -2.7623   23.2817 H   0  0  0  0  0  0
  -22.4167  -11.9876   22.4833 H   0  0  0  0  0  0
  -21.1105  -13.1173   22.2666 H   0  0  0  0  0  0
  -24.6672  -15.8490   20.5176 H   0  0  0  0  0  0
  -26.2776  -15.6185   20.0676 H   0  0  0  0  0  0
  -26.7233  -32.5465   23.1132 H   0  0  0  0  0  0
  -25.0167  -33.9758   25.0449 H   0  0  0  0  0  0
  -22.7231  -31.3083   21.4018 H   0  0  0  0  0  0
  -23.3783  -35.9572   23.3261 H   0  0  0  0  0  0
  -24.3573  -36.8926   22.2058 H   0  0  0  0  0  0
  -23.7189  -37.6413   23.6700 H   0  0  0  0  0  0
  -26.1155  -31.5332   20.6160 H   0  0  0  0  0  0
  -26.8488  -30.8167   22.0146 H   0  0  0  0  0  0
  -28.1106  -28.9092   21.2002 H   0  0  0  0  0  0
  -25.8732  -25.9268   18.9865 H   0  0  0  0  0  0
  -23.9446  -27.3198   19.0169 H   0  0  0  0  0  0
  -23.7672  -30.5986   19.4044 H   0  0  0  0  0  0
  -22.7582  -29.2561   19.8597 H   0  0  0  0  0  0
  -25.1314  -36.1874   25.0775 H   0  0  0  0  0  0
  -21.0024  -28.3253   24.1349 H   0  0  0  0  0  0
  -20.5605  -26.2319   23.3585 H   0  0  0  0  0  0
  -21.6655  -26.7408   22.1220 H   0  0  0  0  0  0
  -19.6926  -25.6256   21.1259 H   0  0  0  0  0  0
  -19.6725  -27.3122   20.6658 H   0  0  0  0  0  0
  -17.4218  -26.6690   21.4006 H   0  0  0  0  0  0
  -18.0393  -26.0081   22.8983 H   0  0  0  0  0  0
  -19.7940  -30.7319   24.2206 H   0  0  0  0  0  0
  -17.5011  -31.6268   24.5180 H   0  0  0  0  0  0
  -15.5359  -30.2962   23.7672 H   0  0  0  0  0  0
  -15.8691  -28.0802   22.7055 H   0  0  0  0  0  0
  -24.5866  -30.7169   25.7713 H   0  0  0  0  0  0
  -24.8916  -32.2901   26.4998 H   0  0  0  0  0  0
  -25.7963  -30.8808   27.0208 H   0  0  0  0  0  0
  -26.2947  -29.6844   24.1298 H   0  0  0  0  0  0
  -27.4034  -29.7388   25.4814 H   0  0  0  0  0  0
  -27.8828  -30.4405   23.9534 H   0  0  0  0  0  0
  -27.2801  -33.3702   26.2100 H   0  0  0  0  0  0
  -28.3883  -32.6906   25.0300 H   0  0  0  0  0  0
  -28.0828  -31.8509   26.5390 H   0  0  0  0  0  0
  -28.2560  -38.0144   24.7606 H   0  0  0  0  0  0
  -28.1141  -36.2671   24.6147 H   0  0  0  0  0  0
  -27.2340  -37.1251   25.8869 H   0  0  0  0  0  0
  -20.9364  -29.8808   21.6890 H   0  0  0  0  0  0
  -26.0143  -38.2821   24.1509 H   0  0  0  0  0  0
  -33.3086  -21.9425   23.5446 H   0  0  0  0  0  0
  -33.6653  -21.1779   22.0043 H   0  0  0  0  0  0
  -32.6496  -20.3595   23.1801 H   0  0  0  0  0  0
  -33.1642  -23.4640   21.5195 H   0  0  0  0  0  0
  -31.7451  -24.1997   22.2424 H   0  0  0  0  0  0
  -31.6986  -23.5868   20.5925 H   0  0  0  0  0  0
  -31.0430  -22.6105   24.1527 H   0  0  0  0  0  0
  -30.2041  -21.1820   23.5761 H   0  0  0  0  0  0
  -29.7582  -22.7756   22.9846 H   0  0  0  0  0  0
  -28.0795  -21.9319   19.3840 H   0  0  0  0  0  0
  -29.6897  -22.4273   19.0237 H   0  0  0  0  0  0
  -31.6420  -21.3484   20.0422 H   0  0  0  0  0  0
  -31.4884  -20.1161   21.2071 H   0  0  0  0  0  0
  -27.3758  -24.6785   19.1541 H   0  0  0  0  0  0
  -29.0065  -24.9750   18.8095 H   0  0  0  0  0  0
  -29.0241  -20.9044   21.5917 H   0  0  0  0  0  0
  -29.5967  -24.0039   21.1118 H   0  0  0  0  0  0
  -29.4710  -20.9727   17.6179 H   0  0  0  0  0  0
  -29.9114  -19.6649   16.6460 H   0  0  0  0  0  0
  -29.0141  -15.5861   21.3706 H   0  0  0  0  0  0
  -27.5405  -24.3447   21.9246 H   0  0  0  0  0  0
  1 25  1  0  0  0
  1 30  2  0  0  0
  1 85  1  0  0  0
  2  3  1  0  0  0
  2 25  1  0  0  0
  2 88  1  0  0  0
  2 89  1  0  0  0
  3  4  1  0  0  0
  3 90  1  0  0  0
  3 91  1  0  0  0
  4  5  1  0  0  0
  4 92  1  0  0  0
  4 93  1  0  0  0
  5  6  1  0  0  0
  5 26  1  0  0  0
  5 94  1  0  0  0
  6 25  1  0  0  0
  6 95  1  0  0  0
  6 96  1  0  0  0
  7  8  2  0  0  0
  7 26  1  0  0  0
  7 29  1  0  0  0
  8  9  1  0  0  0
  8 22  1  0  0  0
  9 10  1  0  0  0
  9 27  2  0  0  0
 10 11  2  0  0  0
 10 15  1  0  0  0
 11 12  1  0  0  0
 11 97  1  0  0  0
 12 13  2  0  0  0
 12 98  1  0  0  0
 13 14  1  0  0  0
 13 31  1  0  0  0
 14 15  2  0  0  0
 14 99  1  0  0  0
 15100  1  0  0  0
 16 17  2  0  0  0
 16 21  1  0  0  0
 16 31  1  0  0  0
 17 18  1  0  0  0
 17101  1  0  0  0
 18 19  2  0  0  0
 18102  1  0  0  0
 19 20  1  0  0  0
 19 24  1  0  0  0
 20 21  2  0  0  0
 20103  1  0  0  0
 21 23  1  0  0  0
 22 28  1  0  0  0
 22 32  2  0  0  0
 26 27  1  0  0  0
 28104  1  0  0  0
 28105  1  0  0  0
 29106  1  0  0  0
 29107  1  0  0  0
 33 34  1  0  0  0
 33 66  1  0  0  0
 33 70  2  0  0  0
 34 36  1  0  0  0
 34 59  1  0  0  0
 34108  1  0  0  0
 35 44  2  0  0  0
 35 45  1  0  0  0
 35 68  1  0  0  0
 36 56  1  0  0  0
 36109  1  0  0  0
 37 39  1  0  0  0
 37 47  1  0  0  0
 37 66  1  0  0  0
 37110  1  0  0  0
 38 43  2  0  0  0
 38 46  1  0  0  0
 38 47  1  0  0  0
 39 64  1  0  0  0
 39 67  2  0  0  0
 40 52  1  0  0  0
 40 53  2  0  0  0
 40 58  1  0  0  0
 41111  1  0  0  0
 41112  1  0  0  0
 41113  1  0  0  0
 41 48  1  0  0  0
 42 43  1  0  0  0
 42 66  1  0  0  0
 42114  1  0  0  0
 42115  1  0  0  0
 43 44  1  0  0  0
 44116  1  0  0  0
 45 46  2  0  0  0
 45117  1  0  0  0
 46118  1  0  0  0
 47119  1  0  0  0
 47120  1  0  0  0
 48 56  1  0  0  0
 48 65  1  0  0  0
 48121  1  0  0  0
 49 50  1  0  0  0
 49 53  1  0  0  0
 49 64  1  0  0  0
 49122  1  0  0  0
 50 51  1  0  0  0
 50123  1  0  0  0
 50124  1  0  0  0
 51 52  1  0  0  0
 51125  1  0  0  0
 51126  1  0  0  0
 52127  1  0  0  0
 52128  1  0  0  0
 53 54  1  0  0  0
 54 55  2  0  0  0
 54129  1  0  0  0
 55 57  1  0  0  0
 55130  1  0  0  0
 56 69  2  0  0  0
 57 58  2  0  0  0
 57131  1  0  0  0
 58132  1  0  0  0
 59 60  1  0  0  0
 59 61  1  0  0  0
 59 62  1  0  0  0
 60133  1  0  0  0
 60134  1  0  0  0
 60135  1  0  0  0
 61136  1  0  0  0
 61137  1  0  0  0
 61138  1  0  0  0
 62139  1  0  0  0
 62140  1  0  0  0
 62141  1  0  0  0
 63 65  1  0  0  0
 63142  1  0  0  0
 63143  1  0  0  0
 63144  1  0  0  0
 64145  1  0  0  0
 65146  1  0  0  0
 68 79  1  0  0  0
 71 72  2  0  0  0
 71 80  1  0  0  0
 71 83  1  0  0  0
 72 84  1  0  0  0
 72 87  1  0  0  0
 73 83  2  0  0  0
 73 85  1  0  0  0
 73 87  1  0  0  0
 74147  1  0  0  0
 74148  1  0  0  0
 74149  1  0  0  0
 74 82  1  0  0  0
 75 82  1  0  0  0
 75150  1  0  0  0
 75151  1  0  0  0
 75152  1  0  0  0
 76 82  1  0  0  0
 76153  1  0  0  0
 76154  1  0  0  0
 76155  1  0  0  0
 77 81  1  0  0  0
 77156  1  0  0  0
 77157  1  0  0  0
 77 80  1  0  0  0
 78 80  1  0  0  0
 78 82  1  0  0  0
 78158  1  0  0  0
 78159  1  0  0  0
 79 81  1  0  0  0
 79160  1  0  0  0
 79161  1  0  0  0
 80162  1  0  0  0
 81 86  1  0  0  0
 81163  1  0  0  0
 84164  1  0  0  0
 84165  1  0  0  0
 85166  1  0  0  0
 86167  1  0  0  0
M  ISO  4   1 100  68 101  79 101  85 100
M  END
> <chiral flag>
0

> <version>
0

> <s_m_source_file>
/data/baiqing/PycharmProjects/Reinvent-master-3.2/result/LINK_invent/BTK/process_docking_weight1_custom_product_contain_oxygen_bond_distance_aromatic_linkinvent_7_9_3/rearranged_h_0190.sdf

> <i_m_source_file_index>
43

> <r_mmod_Potential_Energy-OPLS-2005>
190.840255737305

> <r_mmod_Stretch_Energy-OPLS-2005>
121.186058044434

> <r_mmod_Bend_Energy-OPLS-2005>
198.043258666992

> <r_mmod_Torsional_Energy-OPLS-2005>
262.251861572266

> <r_mmod_Improper_Torsional_Energy-OPLS-2005>
5.55177307128906

> <r_mmod_Van_der_Waal_Energy-OPLS-2005>
126.952461242676

> <r_mmod_Electrostatic_Energy-OPLS-2005>
-374.001556396484

> <r_mmod_Solvation_Energy-OPLS-2005>
-224.604309082031

> <b_mmod_Minimization_Converged-OPLS-2005>
0

> <r_mmod_RMS_Derivative-OPLS-2005>
4.93193626403809

$$$$
43
                    3D
 Structure written by MMmdl.
156164  0  0  1  0            999 V2000
  -30.6537  -14.6009   20.4882 C   0  0  0  0  0  0
  -30.4269  -12.3623   19.4582 C   0  0  0  0  0  0
  -29.5078  -12.4940   18.2259 C   0  0  0  0  0  0
  -28.0284  -12.3454   18.6321 C   0  0  0  0  0  0
  -27.6523  -13.2193   19.8612 C   0  0  2  0  0  0
  -28.6938  -13.0784   20.9940 C   0  0  0  0  0  0
  -25.2557  -13.8191   20.5673 C   0  0  0  0  0  0
  -24.1829  -13.0452   20.9203 C   0  0  0  0  0  0
  -24.6395  -11.6921   20.8742 C   0  0  0  0  0  0
  -23.9072  -10.4304   21.0398 C   0  0  0  0  0  0
  -24.3627   -9.4223   21.9176 C   0  0  0  0  0  0
  -23.6313   -8.2250   22.0746 C   0  0  0  0  0  0
  -22.4289   -8.0285   21.3546 C   0  0  0  0  0  0
  -21.9924   -9.0252   20.4646 C   0  0  0  0  0  0
  -22.7244  -10.2138   20.3053 C   0  0  0  0  0  0
  -21.6852   -6.0740   22.5276 C   0  0  0  0  0  0
  -21.4005   -6.5641   23.8212 C   0  0  0  0  0  0
  -21.3670   -5.6791   24.9178 C   0  0  0  0  0  0
  -21.6049   -4.3054   24.7227 C   0  0  0  0  0  0
  -21.8823   -3.8151   23.4344 C   0  0  0  0  0  0
  -21.9192   -4.6965   22.3404 C   0  0  0  0  0  0
  -22.7850  -13.5242   21.1865 C   0  0  0  0  0  0
  -22.1657   -4.2156   21.0979 F   0  0  0  0  0  0
  -21.5645   -3.4535   25.7738 F   0  0  0  0  0  0
  -30.0145  -13.3929   20.4314 N   0  0  0  0  0  0
  -26.2985  -12.9373   20.3298 N   0  0  0  0  0  0
  -25.9330  -11.6524   20.5757 N   0  0  0  0  0  0
  -22.0476  -12.8246   22.0415 N   0  0  0  0  0  0
  -25.4287  -15.1912   20.4056 N   0  0  0  0  0  0
  -31.8266  -14.7115   20.1214 O   0  0  0  0  0  0
  -21.6650   -6.8881   21.4240 O   0  0  0  0  0  0
  -22.3534  -14.5534   20.6691 O   0  0  0  0  0  0
  -24.6222  -31.8593   23.2011 C   0  0  0  0  0  0
  -25.9083  -32.4776   23.8338 C   0  0  1  0  0  0
  -27.2452  -27.3467   20.1218 C   0  0  0  0  0  0
  -25.5911  -33.8582   24.2273 N   0  0  0  0  0  0
  -23.4149  -30.4795   21.5408 C   0  0  2  0  0  0
  -24.8639  -28.9276   20.1125 C   0  0  0  0  0  0
  -22.7440  -29.4623   22.4938 C   0  0  0  0  0  0
  -18.0271  -28.1373   22.8482 C   0  0  0  0  0  0
  -24.1489  -36.7300   23.2641 C   0  0  0  0  0  0
  -25.9500  -30.7998   21.3660 C   0  0  0  0  0  0
  -26.0257  -29.4278   20.7110 C   0  0  0  0  0  0
  -27.2116  -28.6462   20.7063 C   0  0  0  0  0  0
  -26.0515  -26.8679   19.5394 C   0  0  0  0  0  0
  -24.8763  -27.6510   19.5223 C   0  0  0  0  0  0
  -23.6290  -29.8045   20.1578 C   0  0  0  0  0  0
  -25.4116  -36.3089   24.0328 C   0  0  1  0  0  0
  -20.5870  -28.3680   23.1288 C   0  0  2  0  0  0
  -20.6768  -26.9407   22.5418 C   0  0  0  0  0  0
  -19.5754  -26.6372   21.5212 C   0  0  0  0  0  0
  -18.1922  -26.7916   22.1609 C   0  0  0  0  0  0
  -19.1522  -28.8840   23.2877 C   0  0  0  0  0  0
  -18.9455  -30.1444   23.8894 C   0  0  0  0  0  0
  -17.6462  -30.6580   24.0565 C   0  0  0  0  0  0
  -25.9049  -34.9458   23.5104 C   0  0  0  0  0  0
  -16.5353  -29.9079   23.6333 C   0  0  0  0  0  0
  -16.7263  -28.6502   23.0354 C   0  0  0  0  0  0
  -26.4494  -31.6585   25.0705 C   0  0  0  0  0  0
  -25.3744  -31.3734   26.1446 C   0  0  0  0  0  0
  -27.0340  -30.3006   24.6156 C   0  0  0  0  0  0
  -27.6049  -32.4327   25.7479 C   0  0  0  0  0  0
  -27.5584  -37.1802   24.8460 C   0  0  0  0  0  0
  -21.4160  -29.3026   22.3673 N   0  0  0  0  0  0
  -26.4297  -37.3779   23.9408 N   0  0  0  0  0  0
  -24.6804  -31.0628   22.0937 N   0  0  0  0  0  0
  -23.4172  -28.8191   23.3031 O   0  0  0  0  0  0
  -28.4280  -26.6034   20.1886 O   0  0  0  0  0  0
  -26.5616  -34.8930   22.4666 O   0  0  0  0  0  0
  -23.5393  -32.1380   23.7355 O   0  0  0  0  0  0
  -31.0976  -17.5731   19.6782 C   0  0  0  0  0  0
  -30.0740  -17.0953   20.4635 C   0  0  0  0  0  0
  -29.5252  -19.3754   20.3801 C   0  0  0  0  0  0
  -29.5034  -23.1629   20.9399 C   0  0  0  0  0  0
  -28.4577  -25.3829   17.9963 C   0  0  0  0  0  0
  -30.4037  -21.3642   22.3092 C   0  0  0  0  0  0
  -28.7387  -20.6937   20.5868 C   0  0  0  0  0  0
  -28.3555  -23.9104   20.1709 C   0  0  0  0  0  0
  -28.7085  -25.3262   19.5127 C   0  0  2  0  0  0
  -29.1878  -18.1423   20.8496 N   0  0  0  0  0  0
  -29.8854  -15.6913   20.8040 N   0  0  0  0  0  0
  -29.5242  -21.8071   21.2118 N   0  0  0  0  0  0
  -30.4025  -23.8786   21.3973 O   0  0  0  0  0  0
  -30.9887  -19.3000   19.4004 S   0  0  0  0  0  0
  -31.4722  -12.4646   19.1610 H   0  0  0  0  0  0
  -30.3401  -11.3686   19.9001 H   0  0  0  0  0  0
  -29.7691  -11.7394   17.4836 H   0  0  0  0  0  0
  -29.6685  -13.4614   17.7470 H   0  0  0  0  0  0
  -27.8566  -11.2928   18.8612 H   0  0  0  0  0  0
  -27.3796  -12.5795   17.7877 H   0  0  0  0  0  0
  -27.6714  -14.2549   19.5217 H   0  0  0  0  0  0
  -28.6905  -12.0636   21.3924 H   0  0  0  0  0  0
  -28.4482  -13.7305   21.8327 H   0  0  0  0  0  0
  -25.2766   -9.5710   22.4753 H   0  0  0  0  0  0
  -24.0031   -7.4643   22.7459 H   0  0  0  0  0  0
  -21.0856   -8.8772   19.8952 H   0  0  0  0  0  0
  -22.3690  -10.9679   19.6173 H   0  0  0  0  0  0
  -21.1967   -7.6139   23.9725 H   0  0  0  0  0  0
  -21.1499   -6.0511   25.9087 H   0  0  0  0  0  0
  -22.0586   -2.7608   23.2841 H   0  0  0  0  0  0
  -22.4072  -11.9931   22.4855 H   0  0  0  0  0  0
  -21.1075  -13.1272   22.2562 H   0  0  0  0  0  0
  -24.6647  -15.8496   20.5140 H   0  0  0  0  0  0
  -26.2805  -15.6270   20.0762 H   0  0  0  0  0  0
  -26.7153  -32.5463   23.1086 H   0  0  0  0  0  0
  -25.0074  -33.9716   25.0433 H   0  0  0  0  0  0
  -22.7073  -31.2976   21.3935 H   0  0  0  0  0  0
  -23.3747  -35.9635   23.3309 H   0  0  0  0  0  0
  -24.3579  -36.8918   22.2055 H   0  0  0  0  0  0
  -23.7245  -37.6507   23.6660 H   0  0  0  0  0  0
  -26.0750  -31.5629   20.5960 H   0  0  0  0  0  0
  -26.8318  -30.8489   21.9940 H   0  0  0  0  0  0
  -28.1074  -29.0276   21.1762 H   0  0  0  0  0  0
  -25.9964  -25.8705   19.1324 H   0  0  0  0  0  0
  -23.9782  -27.2481   19.0756 H   0  0  0  0  0  0
  -23.7437  -30.5748   19.3940 H   0  0  0  0  0  0
  -22.7515  -29.2261   19.8640 H   0  0  0  0  0  0
  -25.1297  -36.1945   25.0820 H   0  0  0  0  0  0
  -20.9954  -28.3259   24.1412 H   0  0  0  0  0  0
  -20.5660  -26.2295   23.3616 H   0  0  0  0  0  0
  -21.6643  -26.7438   22.1228 H   0  0  0  0  0  0
  -19.6926  -25.6279   21.1244 H   0  0  0  0  0  0
  -19.6701  -27.3181   20.6742 H   0  0  0  0  0  0
  -17.4208  -26.6666   21.3998 H   0  0  0  0  0  0
  -18.0312  -26.0045   22.8990 H   0  0  0  0  0  0
  -19.7944  -30.7238   24.2263 H   0  0  0  0  0  0
  -17.5034  -31.6262   24.5157 H   0  0  0  0  0  0
  -15.5356  -30.2992   23.7659 H   0  0  0  0  0  0
  -15.8658  -28.0822   22.7073 H   0  0  0  0  0  0
  -24.5886  -30.7110   25.7796 H   0  0  0  0  0  0
  -24.8977  -32.2913   26.4896 H   0  0  0  0  0  0
  -25.8074  -30.8898   27.0207 H   0  0  0  0  0  0
  -26.2911  -29.6737   24.1200 H   0  0  0  0  0  0
  -27.4062  -29.7280   25.4663 H   0  0  0  0  0  0
  -27.8771  -30.4294   23.9359 H   0  0  0  0  0  0
  -27.2633  -33.3599   26.2088 H   0  0  0  0  0  0
  -28.3838  -32.6927   25.0305 H   0  0  0  0  0  0
  -28.0735  -31.8440   26.5367 H   0  0  0  0  0  0
  -28.2603  -38.0099   24.7503 H   0  0  0  0  0  0
  -28.1069  -36.2621   24.6282 H   0  0  0  0  0  0
  -27.2296  -37.1462   25.8864 H   0  0  0  0  0  0
  -20.9321  -29.8742   21.6894 H   0  0  0  0  0  0
  -26.0176  -38.2857   24.1399 H   0  0  0  0  0  0
  -31.9124  -17.0243   19.2232 H   0  0  0  0  0  0
  -29.0512  -24.6233   17.4847 H   0  0  0  0  0  0
  -28.7519  -26.3501   17.5883 H   0  0  0  0  0  0
  -27.4209  -25.1998   17.7275 H   0  0  0  0  0  0
  -30.1604  -20.3694   22.6848 H   0  0  0  0  0  0
  -30.3224  -22.0291   23.1708 H   0  0  0  0  0  0
  -31.4469  -21.3605   21.9892 H   0  0  0  0  0  0
  -27.8693  -20.4899   21.2129 H   0  0  0  0  0  0
  -28.3592  -21.0029   19.6132 H   0  0  0  0  0  0
  -27.5125  -24.0241   20.8512 H   0  0  0  0  0  0
  -28.0062  -23.2435   19.3843 H   0  0  0  0  0  0
  -29.7979  -25.3664   19.5321 H   0  0  0  0  0  0
  -28.9876  -15.4620   21.2022 H   0  0  0  0  0  0
  1 25  1  0  0  0
  1 30  2  0  0  0
  1 81  1  0  0  0
  2  3  1  0  0  0
  2 25  1  0  0  0
  2 85  1  0  0  0
  2 86  1  0  0  0
  3  4  1  0  0  0
  3 87  1  0  0  0
  3 88  1  0  0  0
  4  5  1  0  0  0
  4 89  1  0  0  0
  4 90  1  0  0  0
  5  6  1  0  0  0
  5 26  1  0  0  0
  5 91  1  0  0  0
  6 25  1  0  0  0
  6 92  1  0  0  0
  6 93  1  0  0  0
  7  8  2  0  0  0
  7 26  1  0  0  0
  7 29  1  0  0  0
  8  9  1  0  0  0
  8 22  1  0  0  0
  9 10  1  0  0  0
  9 27  2  0  0  0
 10 11  2  0  0  0
 10 15  1  0  0  0
 11 12  1  0  0  0
 11 94  1  0  0  0
 12 13  2  0  0  0
 12 95  1  0  0  0
 13 14  1  0  0  0
 13 31  1  0  0  0
 14 15  2  0  0  0
 14 96  1  0  0  0
 15 97  1  0  0  0
 16 17  2  0  0  0
 16 21  1  0  0  0
 16 31  1  0  0  0
 17 18  1  0  0  0
 17 98  1  0  0  0
 18 19  2  0  0  0
 18 99  1  0  0  0
 19 20  1  0  0  0
 19 24  1  0  0  0
 20 21  2  0  0  0
 20100  1  0  0  0
 21 23  1  0  0  0
 22 28  1  0  0  0
 22 32  2  0  0  0
 26 27  1  0  0  0
 28101  1  0  0  0
 28102  1  0  0  0
 29103  1  0  0  0
 29104  1  0  0  0
 33 34  1  0  0  0
 33 66  1  0  0  0
 33 70  2  0  0  0
 34 36  1  0  0  0
 34 59  1  0  0  0
 34105  1  0  0  0
 35 44  2  0  0  0
 35 45  1  0  0  0
 35 68  1  0  0  0
 36 56  1  0  0  0
 36106  1  0  0  0
 37 39  1  0  0  0
 37 47  1  0  0  0
 37 66  1  0  0  0
 37107  1  0  0  0
 38 43  2  0  0  0
 38 46  1  0  0  0
 38 47  1  0  0  0
 39 64  1  0  0  0
 39 67  2  0  0  0
 40 52  1  0  0  0
 40 53  2  0  0  0
 40 58  1  0  0  0
 41108  1  0  0  0
 41109  1  0  0  0
 41110  1  0  0  0
 41 48  1  0  0  0
 42 43  1  0  0  0
 42 66  1  0  0  0
 42111  1  0  0  0
 42112  1  0  0  0
 43 44  1  0  0  0
 44113  1  0  0  0
 45 46  2  0  0  0
 45114  1  0  0  0
 46115  1  0  0  0
 47116  1  0  0  0
 47117  1  0  0  0
 48 56  1  0  0  0
 48 65  1  0  0  0
 48118  1  0  0  0
 49 50  1  0  0  0
 49 53  1  0  0  0
 49 64  1  0  0  0
 49119  1  0  0  0
 50 51  1  0  0  0
 50120  1  0  0  0
 50121  1  0  0  0
 51 52  1  0  0  0
 51122  1  0  0  0
 51123  1  0  0  0
 52124  1  0  0  0
 52125  1  0  0  0
 53 54  1  0  0  0
 54 55  2  0  0  0
 54126  1  0  0  0
 55 57  1  0  0  0
 55127  1  0  0  0
 56 69  2  0  0  0
 57 58  2  0  0  0
 57128  1  0  0  0
 58129  1  0  0  0
 59 60  1  0  0  0
 59 61  1  0  0  0
 59 62  1  0  0  0
 60130  1  0  0  0
 60131  1  0  0  0
 60132  1  0  0  0
 61133  1  0  0  0
 61134  1  0  0  0
 61135  1  0  0  0
 62136  1  0  0  0
 62137  1  0  0  0
 62138  1  0  0  0
 63 65  1  0  0  0
 63139  1  0  0  0
 63140  1  0  0  0
 63141  1  0  0  0
 64142  1  0  0  0
 65143  1  0  0  0
 68 79  1  0  0  0
 71 72  2  0  0  0
 71 84  1  0  0  0
 71144  1  0  0  0
 72 80  1  0  0  0
 72 81  1  0  0  0
 73 77  1  0  0  0
 73 80  2  0  0  0
 73 84  1  0  0  0
 74 78  1  0  0  0
 74 82  1  0  0  0
 74 83  2  0  0  0
 75145  1  0  0  0
 75146  1  0  0  0
 75147  1  0  0  0
 75 79  1  0  0  0
 76 82  1  0  0  0
 76148  1  0  0  0
 76149  1  0  0  0
 76150  1  0  0  0
 77 82  1  0  0  0
 77151  1  0  0  0
 77152  1  0  0  0
 78 79  1  0  0  0
 78153  1  0  0  0
 78154  1  0  0  0
 79155  1  0  0  0
 81156  1  0  0  0
M  ISO  4   1 100  68 101  79 101  81 100
M  END
> <chiral flag>
0

> <version>
0

> <s_m_source_file>
/data/baiqing/PycharmProjects/Reinvent-master-3.2/result/LINK_invent/BTK/process_docking_weight1_custom_product_contain_oxygen_bond_distance_aromatic_linkinvent_7_9_3/rearranged_h_0190.sdf

> <i_m_source_file_index>
44

> <r_mmod_Potential_Energy-OPLS-2005>
-8.68756580352783

> <r_mmod_Stretch_Energy-OPLS-2005>
73.4307708740234

> <r_mmod_Bend_Energy-OPLS-2005>
173.543441772461

> <r_mmod_Torsional_Energy-OPLS-2005>
217.795883178711

> <r_mmod_Improper_Torsional_Energy-OPLS-2005>
4.92682981491089

> <r_mmod_Van_der_Waal_Energy-OPLS-2005>
135.012023925781

> <r_mmod_Electrostatic_Energy-OPLS-2005>
-413.892608642578

> <r_mmod_Solvation_Energy-OPLS-2005>
-236.153030395508

> <b_mmod_Minimization_Converged-OPLS-2005>
0

> <r_mmod_RMS_Derivative-OPLS-2005>
2.50725412368774

$$$$
44
                    3D
 Structure written by MMmdl.
161169  0  0  1  0            999 V2000
  -30.6652  -14.7653   20.4819 C   0  0  0  0  0  0
  -30.4345  -12.4895   19.4586 C   0  0  0  0  0  0
  -29.5073  -12.4952   18.2277 C   0  0  0  0  0  0
  -28.0411  -12.3091   18.6608 C   0  0  0  0  0  0
  -27.6358  -13.2405   19.8346 C   0  0  2  0  0  0
  -28.6886  -13.2251   20.9636 C   0  0  0  0  0  0
  -25.2503  -13.8201   20.5724 C   0  0  0  0  0  0
  -24.1806  -13.0440   20.9235 C   0  0  0  0  0  0
  -24.6407  -11.6920   20.8753 C   0  0  0  0  0  0
  -23.9075  -10.4280   21.0390 C   0  0  0  0  0  0
  -24.3607   -9.4182   21.9174 C   0  0  0  0  0  0
  -23.6271   -8.2225   22.0756 C   0  0  0  0  0  0
  -22.4253   -8.0257   21.3549 C   0  0  0  0  0  0
  -21.9892   -9.0242   20.4665 C   0  0  0  0  0  0
  -22.7235  -10.2114   20.3062 C   0  0  0  0  0  0
  -21.6850   -6.0688   22.5262 C   0  0  0  0  0  0
  -21.4003   -6.5599   23.8189 C   0  0  0  0  0  0
  -21.3677   -5.6771   24.9163 C   0  0  0  0  0  0
  -21.6057   -4.3033   24.7227 C   0  0  0  0  0  0
  -21.8821   -3.8112   23.4347 C   0  0  0  0  0  0
  -21.9193   -4.6917   22.3392 C   0  0  0  0  0  0
  -22.7818  -13.5220   21.1834 C   0  0  0  0  0  0
  -22.1659   -4.2091   21.0977 F   0  0  0  0  0  0
  -21.5647   -3.4534   25.7749 F   0  0  0  0  0  0
  -29.9778  -13.5765   20.3550 N   0  0  0  0  0  0
  -26.2922  -12.9442   20.3253 N   0  0  0  0  0  0
  -25.9336  -11.6567   20.5742 N   0  0  0  0  0  0
  -22.0430  -12.8286   22.0413 N   0  0  0  0  0  0
  -25.4148  -15.1927   20.4111 N   0  0  0  0  0  0
  -31.8786  -14.7647   20.2687 O   0  0  0  0  0  0
  -21.6639   -6.8838   21.4215 O   0  0  0  0  0  0
  -22.3517  -14.5506   20.6610 O   0  0  0  0  0  0
  -24.6325  -31.8561   23.1948 C   0  0  0  0  0  0
  -25.9163  -32.4750   23.8291 C   0  0  1  0  0  0
  -27.2239  -27.2663   20.1260 C   0  0  0  0  0  0
  -25.5975  -33.8552   24.2240 N   0  0  0  0  0  0
  -23.4284  -30.4778   21.5360 C   0  0  2  0  0  0
  -24.8762  -28.9216   20.1072 C   0  0  0  0  0  0
  -22.7505  -29.4627   22.4872 C   0  0  0  0  0  0
  -18.0309  -28.1382   22.8480 C   0  0  0  0  0  0
  -24.1499  -36.7271   23.2626 C   0  0  0  0  0  0
  -25.9745  -30.7635   21.3810 C   0  0  0  0  0  0
  -26.0462  -29.3872   20.7219 C   0  0  0  0  0  0
  -27.2241  -28.5705   20.7229 C   0  0  0  0  0  0
  -26.0405  -26.8778   19.4617 C   0  0  0  0  0  0
  -24.8786  -27.6732   19.4643 C   0  0  0  0  0  0
  -23.6468  -29.8090   20.1534 C   0  0  0  0  0  0
  -25.4128  -36.3069   24.0319 C   0  0  1  0  0  0
  -20.5918  -28.3730   23.1244 C   0  0  2  0  0  0
  -20.6805  -26.9440   22.5389 C   0  0  0  0  0  0
  -19.5771  -26.6387   21.5200 C   0  0  0  0  0  0
  -18.1956  -26.7927   22.1618 C   0  0  0  0  0  0
  -19.1564  -28.8864   23.2866 C   0  0  0  0  0  0
  -18.9476  -30.1464   23.8886 C   0  0  0  0  0  0
  -17.6472  -30.6572   24.0576 C   0  0  0  0  0  0
  -25.9071  -34.9438   23.5075 C   0  0  0  0  0  0
  -16.5369  -29.9069   23.6325 C   0  0  0  0  0  0
  -16.7302  -28.6490   23.0349 C   0  0  0  0  0  0
  -26.4530  -31.6564   25.0676 C   0  0  0  0  0  0
  -25.3765  -31.3723   26.1411 C   0  0  0  0  0  0
  -27.0370  -30.2975   24.6168 C   0  0  0  0  0  0
  -27.6066  -32.4320   25.7464 C   0  0  0  0  0  0
  -27.5585  -37.1801   24.8456 C   0  0  0  0  0  0
  -21.4214  -29.3080   22.3618 N   0  0  0  0  0  0
  -26.4296  -37.3774   23.9406 N   0  0  0  0  0  0
  -24.6955  -31.0530   22.0925 N   0  0  0  0  0  0
  -23.4199  -28.8185   23.2987 O   0  0  0  0  0  0
  -28.2994  -26.3522   20.1555 O   0  0  0  0  0  0
  -26.5613  -34.8915   22.4630 O   0  0  0  0  0  0
  -23.5480  -32.1399   23.7246 O   0  0  0  0  0  0
  -29.9527  -18.5970   20.3954 C   0  0  0  0  0  0
  -30.3709  -19.3992   19.3350 C   0  0  0  0  0  0
  -29.1795  -21.0955   20.4100 C   0  0  0  0  0  0
  -30.4767  -17.2213   20.8972 C   0  0  0  0  0  0
  -28.8235  -23.7062   20.0987 C   0  0  0  0  0  0
  -33.4383  -19.9334   17.1335 C   0  0  0  0  0  0
  -33.0360  -20.5712   19.5244 C   0  0  0  0  0  0
  -33.6955  -18.2473   18.9322 C   0  0  0  0  0  0
  -31.3577  -19.0206   18.2549 C   0  0  0  0  0  0
  -28.0015  -24.9640   20.6642 C   0  0  0  0  0  0
  -32.8512  -19.4503   18.4747 C   0  0  0  0  0  0
  -29.8754  -20.7401   19.3211 N   0  0  0  0  0  0
  -28.6483  -22.4542   20.6786 N   0  0  0  0  0  0
  -29.9677  -15.9730   20.5491 N   0  0  0  0  0  0
  -31.4421  -17.2962   21.6625 O   0  0  0  0  0  0
  -29.5960  -23.8889   19.1534 O   0  0  0  0  0  0
  -28.9892  -19.6473   21.4777 S   0  0  0  0  0  0
  -31.4704  -12.6212   19.1360 H   0  0  0  0  0  0
  -30.4042  -11.5256   19.9689 H   0  0  0  0  0  0
  -29.7960  -11.6990   17.5386 H   0  0  0  0  0  0
  -29.6195  -13.4315   17.6790 H   0  0  0  0  0  0
  -27.9343  -11.2705   18.9717 H   0  0  0  0  0  0
  -27.3704  -12.4437   17.8115 H   0  0  0  0  0  0
  -27.6140  -14.2498   19.4214 H   0  0  0  0  0  0
  -28.7444  -12.2477   21.4445 H   0  0  0  0  0  0
  -28.4201  -13.9389   21.7449 H   0  0  0  0  0  0
  -25.2729   -9.5662   22.4780 H   0  0  0  0  0  0
  -23.9964   -7.4624   22.7483 H   0  0  0  0  0  0
  -21.0824   -8.8761   19.8992 H   0  0  0  0  0  0
  -22.3673  -10.9643   19.6188 H   0  0  0  0  0  0
  -21.1979   -7.6111   23.9675 H   0  0  0  0  0  0
  -21.1511   -6.0504   25.9067 H   0  0  0  0  0  0
  -22.0591   -2.7569   23.2868 H   0  0  0  0  0  0
  -22.4022  -12.0008   22.4931 H   0  0  0  0  0  0
  -21.1009  -13.1316   22.2454 H   0  0  0  0  0  0
  -24.6416  -15.8384   20.5230 H   0  0  0  0  0  0
  -26.2558  -15.6396   20.0713 H   0  0  0  0  0  0
  -26.7218  -32.5416   23.1020 H   0  0  0  0  0  0
  -25.0271  -33.9676   25.0490 H   0  0  0  0  0  0
  -22.7260  -31.3016   21.3875 H   0  0  0  0  0  0
  -23.3773  -35.9590   23.3277 H   0  0  0  0  0  0
  -24.3581  -36.8909   22.2037 H   0  0  0  0  0  0
  -23.7237  -37.6464   23.6649 H   0  0  0  0  0  0
  -26.1288  -31.5241   20.6135 H   0  0  0  0  0  0
  -26.8457  -30.8032   22.0222 H   0  0  0  0  0  0
  -28.1164  -28.9213   21.2228 H   0  0  0  0  0  0
  -26.0085  -25.9352   18.9353 H   0  0  0  0  0  0
  -23.9930  -27.3154   18.9574 H   0  0  0  0  0  0
  -23.7782  -30.5832   19.3960 H   0  0  0  0  0  0
  -22.7638  -29.2453   19.8470 H   0  0  0  0  0  0
  -25.1321  -36.1905   25.0812 H   0  0  0  0  0  0
  -21.0047  -28.3319   24.1353 H   0  0  0  0  0  0
  -20.5723  -26.2335   23.3614 H   0  0  0  0  0  0
  -21.6672  -26.7467   22.1181 H   0  0  0  0  0  0
  -19.6942  -25.6293   21.1243 H   0  0  0  0  0  0
  -19.6696  -27.3185   20.6723 H   0  0  0  0  0  0
  -17.4240  -26.6695   21.4010 H   0  0  0  0  0  0
  -18.0345  -26.0057   22.8999 H   0  0  0  0  0  0
  -19.7951  -30.7286   24.2239 H   0  0  0  0  0  0
  -17.5022  -31.6246   24.5192 H   0  0  0  0  0  0
  -15.5368  -30.2976   23.7614 H   0  0  0  0  0  0
  -15.8713  -28.0794   22.7065 H   0  0  0  0  0  0
  -24.5924  -30.7090   25.7741 H   0  0  0  0  0  0
  -24.8975  -32.2896   26.4850 H   0  0  0  0  0  0
  -25.8109  -30.8885   27.0176 H   0  0  0  0  0  0
  -26.2932  -29.6723   24.1215 H   0  0  0  0  0  0
  -27.4076  -29.7246   25.4680 H   0  0  0  0  0  0
  -27.8812  -30.4237   23.9391 H   0  0  0  0  0  0
  -27.2645  -33.3625   26.2025 H   0  0  0  0  0  0
  -28.3889  -32.6904   25.0302 H   0  0  0  0  0  0
  -28.0725  -31.8468   26.5411 H   0  0  0  0  0  0
  -28.2608  -38.0097   24.7540 H   0  0  0  0  0  0
  -28.1097  -36.2640   24.6269 H   0  0  0  0  0  0
  -27.2302  -37.1423   25.8857 H   0  0  0  0  0  0
  -20.9380  -29.8796   21.6831 H   0  0  0  0  0  0
  -26.0181  -38.2855   24.1406 H   0  0  0  0  0  0
  -34.4974  -20.1809   17.2202 H   0  0  0  0  0  0
  -32.9241  -20.8219   16.7610 H   0  0  0  0  0  0
  -33.3518  -19.1600   16.3691 H   0  0  0  0  0  0
  -34.0855  -20.8467   19.6439 H   0  0  0  0  0  0
  -32.6681  -20.2723   20.5064 H   0  0  0  0  0  0
  -32.5063  -21.4793   19.2377 H   0  0  0  0  0  0
  -34.7411  -18.5338   19.0573 H   0  0  0  0  0  0
  -33.6711  -17.4347   18.2043 H   0  0  0  0  0  0
  -33.3565  -17.8538   19.8905 H   0  0  0  0  0  0
  -31.0027  -19.4749   17.3277 H   0  0  0  0  0  0
  -31.2990  -17.9514   18.0484 H   0  0  0  0  0  0
  -28.1554  -24.9901   21.7442 H   0  0  0  0  0  0
  -26.9477  -24.7143   20.5374 H   0  0  0  0  0  0
  -28.0254  -22.4737   21.4725 H   0  0  0  0  0  0
  -29.0018  -15.9502   20.2672 H   0  0  0  0  0  0
  1 25  1  0  0  0
  1 30  2  0  0  0
  1 84  1  0  0  0
  2  3  1  0  0  0
  2 25  1  0  0  0
  2 88  1  0  0  0
  2 89  1  0  0  0
  3  4  1  0  0  0
  3 90  1  0  0  0
  3 91  1  0  0  0
  4  5  1  0  0  0
  4 92  1  0  0  0
  4 93  1  0  0  0
  5  6  1  0  0  0
  5 26  1  0  0  0
  5 94  1  0  0  0
  6 25  1  0  0  0
  6 95  1  0  0  0
  6 96  1  0  0  0
  7  8  2  0  0  0
  7 26  1  0  0  0
  7 29  1  0  0  0
  8  9  1  0  0  0
  8 22  1  0  0  0
  9 10  1  0  0  0
  9 27  2  0  0  0
 10 11  2  0  0  0
 10 15  1  0  0  0
 11 12  1  0  0  0
 11 97  1  0  0  0
 12 13  2  0  0  0
 12 98  1  0  0  0
 13 14  1  0  0  0
 13 31  1  0  0  0
 14 15  2  0  0  0
 14 99  1  0  0  0
 15100  1  0  0  0
 16 17  2  0  0  0
 16 21  1  0  0  0
 16 31  1  0  0  0
 17 18  1  0  0  0
 17101  1  0  0  0
 18 19  2  0  0  0
 18102  1  0  0  0
 19 20  1  0  0  0
 19 24  1  0  0  0
 20 21  2  0  0  0
 20103  1  0  0  0
 21 23  1  0  0  0
 22 28  1  0  0  0
 22 32  2  0  0  0
 26 27  1  0  0  0
 28104  1  0  0  0
 28105  1  0  0  0
 29106  1  0  0  0
 29107  1  0  0  0
 33 34  1  0  0  0
 33 66  1  0  0  0
 33 70  2  0  0  0
 34 36  1  0  0  0
 34 59  1  0  0  0
 34108  1  0  0  0
 35 44  2  0  0  0
 35 45  1  0  0  0
 35 68  1  0  0  0
 36 56  1  0  0  0
 36109  1  0  0  0
 37 39  1  0  0  0
 37 47  1  0  0  0
 37 66  1  0  0  0
 37110  1  0  0  0
 38 43  2  0  0  0
 38 46  1  0  0  0
 38 47  1  0  0  0
 39 64  1  0  0  0
 39 67  2  0  0  0
 40 52  1  0  0  0
 40 53  2  0  0  0
 40 58  1  0  0  0
 41111  1  0  0  0
 41112  1  0  0  0
 41113  1  0  0  0
 41 48  1  0  0  0
 42 43  1  0  0  0
 42 66  1  0  0  0
 42114  1  0  0  0
 42115  1  0  0  0
 43 44  1  0  0  0
 44116  1  0  0  0
 45 46  2  0  0  0
 45117  1  0  0  0
 46118  1  0  0  0
 47119  1  0  0  0
 47120  1  0  0  0
 48 56  1  0  0  0
 48 65  1  0  0  0
 48121  1  0  0  0
 49 50  1  0  0  0
 49 53  1  0  0  0
 49 64  1  0  0  0
 49122  1  0  0  0
 50 51  1  0  0  0
 50123  1  0  0  0
 50124  1  0  0  0
 51 52  1  0  0  0
 51125  1  0  0  0
 51126  1  0  0  0
 52127  1  0  0  0
 52128  1  0  0  0
 53 54  1  0  0  0
 54 55  2  0  0  0
 54129  1  0  0  0
 55 57  1  0  0  0
 55130  1  0  0  0
 56 69  2  0  0  0
 57 58  2  0  0  0
 57131  1  0  0  0
 58132  1  0  0  0
 59 60  1  0  0  0
 59 61  1  0  0  0
 59 62  1  0  0  0
 60133  1  0  0  0
 60134  1  0  0  0
 60135  1  0  0  0
 61136  1  0  0  0
 61137  1  0  0  0
 61138  1  0  0  0
 62139  1  0  0  0
 62140  1  0  0  0
 62141  1  0  0  0
 63 65  1  0  0  0
 63142  1  0  0  0
 63143  1  0  0  0
 63144  1  0  0  0
 64145  1  0  0  0
 65146  1  0  0  0
 68 80  1  0  0  0
 71 72  2  0  0  0
 71 74  1  0  0  0
 71 87  1  0  0  0
 72 79  1  0  0  0
 72 82  1  0  0  0
 73 82  2  0  0  0
 73 83  1  0  0  0
 73 87  1  0  0  0
 74 84  1  0  0  0
 74 85  2  0  0  0
 75 80  1  0  0  0
 75 83  1  0  0  0
 75 86  2  0  0  0
 76147  1  0  0  0
 76148  1  0  0  0
 76149  1  0  0  0
 76 81  1  0  0  0
 77 81  1  0  0  0
 77150  1  0  0  0
 77151  1  0  0  0
 77152  1  0  0  0
 78 81  1  0  0  0
 78153  1  0  0  0
 78154  1  0  0  0
 78155  1  0  0  0
 79 81  1  0  0  0
 79156  1  0  0  0
 79157  1  0  0  0
 80158  1  0  0  0
 80159  1  0  0  0
 83160  1  0  0  0
 84161  1  0  0  0
M  ISO  4   1 100  68 101  80 101  84 100
M  END
> <chiral flag>
0

> <version>
0

> <s_m_source_file>
/data/baiqing/PycharmProjects/Reinvent-master-3.2/result/LINK_invent/BTK/process_docking_weight1_custom_product_contain_oxygen_bond_distance_aromatic_linkinvent_7_9_3/rearranged_h_0190.sdf

> <i_m_source_file_index>
45

> <r_mmod_Potential_Energy-OPLS-2005>
95.4464645385742

> <r_mmod_Stretch_Energy-OPLS-2005>
116.251480102539

> <r_mmod_Bend_Energy-OPLS-2005>
182.994857788086

> <r_mmod_Torsional_Energy-OPLS-2005>
284.193756103516

> <r_mmod_Improper_Torsional_Energy-OPLS-2005>
9.46120738983154

> <r_mmod_Van_der_Waal_Energy-OPLS-2005>
116.35425567627

> <r_mmod_Electrostatic_Energy-OPLS-2005>
-447.925964355469

> <r_mmod_Solvation_Energy-OPLS-2005>
-263.817077636719

> <b_mmod_Minimization_Converged-OPLS-2005>
0

> <r_mmod_RMS_Derivative-OPLS-2005>
3.4342098236084

$$$$
45
                    3D
 Structure written by MMmdl.
160168  0  0  1  0            999 V2000
  -30.6233  -14.7290   20.4771 C   0  0  0  0  0  0
  -30.4447  -12.4560   19.4540 C   0  0  0  0  0  0
  -29.5104  -12.5085   18.2259 C   0  0  0  0  0  0
  -28.0332  -12.3406   18.6394 C   0  0  0  0  0  0
  -27.6431  -13.2324   19.8469 C   0  0  2  0  0  0
  -28.6958  -13.1592   20.9746 C   0  0  0  0  0  0
  -25.2520  -13.8209   20.5719 C   0  0  0  0  0  0
  -24.1822  -13.0458   20.9237 C   0  0  0  0  0  0
  -24.6415  -11.6936   20.8783 C   0  0  0  0  0  0
  -23.9095  -10.4313   21.0431 C   0  0  0  0  0  0
  -24.3641   -9.4215   21.9200 C   0  0  0  0  0  0
  -23.6309   -8.2247   22.0761 C   0  0  0  0  0  0
  -22.4282   -8.0300   21.3553 C   0  0  0  0  0  0
  -21.9928   -9.0287   20.4659 C   0  0  0  0  0  0
  -22.7275  -10.2157   20.3074 C   0  0  0  0  0  0
  -21.6855   -6.0761   22.5288 C   0  0  0  0  0  0
  -21.4020   -6.5657   23.8229 C   0  0  0  0  0  0
  -21.3652   -5.6803   24.9193 C   0  0  0  0  0  0
  -21.6036   -4.3065   24.7232 C   0  0  0  0  0  0
  -21.8814   -3.8163   23.4352 C   0  0  0  0  0  0
  -21.9195   -4.6988   22.3418 C   0  0  0  0  0  0
  -22.7823  -13.5228   21.1884 C   0  0  0  0  0  0
  -22.1660   -4.2181   21.0991 F   0  0  0  0  0  0
  -21.5617   -3.4545   25.7735 F   0  0  0  0  0  0
  -29.9943  -13.5104   20.3863 N   0  0  0  0  0  0
  -26.2950  -12.9425   20.3285 N   0  0  0  0  0  0
  -25.9346  -11.6568   20.5768 N   0  0  0  0  0  0
  -22.0459  -12.8233   22.0428 N   0  0  0  0  0  0
  -25.4149  -15.1955   20.4146 N   0  0  0  0  0  0
  -31.8288  -14.8238   20.2280 O   0  0  0  0  0  0
  -21.6636   -6.8906   21.4244 O   0  0  0  0  0  0
  -22.3517  -14.5542   20.6716 O   0  0  0  0  0  0
  -24.6329  -31.8559   23.2007 C   0  0  0  0  0  0
  -25.9151  -32.4769   23.8339 C   0  0  1  0  0  0
  -27.2060  -27.2778   20.1248 C   0  0  0  0  0  0
  -25.5947  -33.8561   24.2261 N   0  0  0  0  0  0
  -23.4262  -30.4827   21.5467 C   0  0  2  0  0  0
  -24.8675  -28.9330   20.1090 C   0  0  0  0  0  0
  -22.7500  -29.4627   22.4950 C   0  0  0  0  0  0
  -18.0278  -28.1431   22.8479 C   0  0  0  0  0  0
  -24.1494  -36.7275   23.2636 C   0  0  0  0  0  0
  -25.9713  -30.7762   21.3745 C   0  0  0  0  0  0
  -26.0435  -29.4015   20.7131 C   0  0  0  0  0  0
  -27.2203  -28.5873   20.7069 C   0  0  0  0  0  0
  -26.0174  -26.8803   19.4778 C   0  0  0  0  0  0
  -24.8599  -27.6811   19.4788 C   0  0  0  0  0  0
  -23.6393  -29.8195   20.1614 C   0  0  0  0  0  0
  -25.4124  -36.3067   24.0325 C   0  0  1  0  0  0
  -20.5885  -28.3713   23.1280 C   0  0  2  0  0  0
  -20.6798  -26.9439   22.5421 C   0  0  0  0  0  0
  -19.5773  -26.6415   21.5226 C   0  0  0  0  0  0
  -18.1938  -26.7966   22.1625 C   0  0  0  0  0  0
  -19.1538  -28.8885   23.2882 C   0  0  0  0  0  0
  -18.9466  -30.1488   23.8901 C   0  0  0  0  0  0
  -17.6472  -30.6630   24.0565 C   0  0  0  0  0  0
  -25.9056  -34.9434   23.5089 C   0  0  0  0  0  0
  -16.5358  -29.9126   23.6360 C   0  0  0  0  0  0
  -16.7262  -28.6551   23.0355 C   0  0  0  0  0  0
  -26.4512  -31.6567   25.0712 C   0  0  0  0  0  0
  -25.3743  -31.3720   26.1442 C   0  0  0  0  0  0
  -27.0348  -30.2986   24.6180 C   0  0  0  0  0  0
  -27.6077  -32.4292   25.7501 C   0  0  0  0  0  0
  -27.5577  -37.1801   24.8471 C   0  0  0  0  0  0
  -21.4204  -29.3057   22.3660 N   0  0  0  0  0  0
  -26.4303  -37.3773   23.9385 N   0  0  0  0  0  0
  -24.6964  -31.0533   22.0987 N   0  0  0  0  0  0
  -23.4199  -28.8163   23.3046 O   0  0  0  0  0  0
  -28.2764  -26.3603   20.1859 O   0  0  0  0  0  0
  -26.5633  -34.8899   22.4661 O   0  0  0  0  0  0
  -23.5481  -32.1372   23.7328 O   0  0  0  0  0  0
  -29.9384  -19.6453   20.7013 C   0  0  0  0  0  0
  -30.8274  -19.4692   21.7442 C   0  0  0  0  0  0
  -30.1307  -17.2615   20.7945 C   0  0  0  0  0  0
  -27.8748  -25.2356   22.2407 C   0  0  0  0  0  0
  -27.2160  -21.8820   19.8914 C   0  0  0  0  0  0
  -28.3059  -21.8598   22.1334 C   0  0  0  0  0  0
  -29.5970  -21.0524   20.0468 C   0  0  0  0  0  0
  -28.9489  -23.7216   20.3829 C   0  0  0  0  0  0
  -27.9753  -24.9848   20.7217 C   0  0  2  0  0  0
  -28.5437  -22.1468   20.6331 C   0  0  0  0  0  0
  -29.5231  -18.3494   20.2088 N   0  0  0  0  0  0
  -31.4392  -20.4523   22.5091 N   0  0  0  0  0  0
  -29.8151  -15.8494   20.5311 N   0  0  0  0  0  0
  -31.2277  -17.7829   22.0659 S   0  0  0  0  0  0
  -31.4797  -12.5979   19.1397 H   0  0  0  0  0  0
  -30.4093  -11.4784   19.9360 H   0  0  0  0  0  0
  -29.7861  -11.7376   17.5054 H   0  0  0  0  0  0
  -29.6358  -13.4650   17.7142 H   0  0  0  0  0  0
  -27.8740  -11.2919   18.8889 H   0  0  0  0  0  0
  -27.3805  -12.5525   17.7916 H   0  0  0  0  0  0
  -27.6354  -14.2543   19.4664 H   0  0  0  0  0  0
  -28.7310  -12.1605   21.4119 H   0  0  0  0  0  0
  -28.4413  -13.8444   21.7854 H   0  0  0  0  0  0
  -25.2793   -9.5685   22.4783 H   0  0  0  0  0  0
  -24.0028   -7.4628   22.7478 H   0  0  0  0  0  0
  -21.0858   -8.8828   19.8957 H   0  0  0  0  0  0
  -22.3757  -10.9708   19.6187 H   0  0  0  0  0  0
  -21.2012   -7.6161   23.9757 H   0  0  0  0  0  0
  -21.1468   -6.0524   25.9101 H   0  0  0  0  0  0
  -22.0592   -2.7623   23.2849 H   0  0  0  0  0  0
  -22.4046  -11.9892   22.4840 H   0  0  0  0  0  0
  -21.1078  -13.1276   22.2629 H   0  0  0  0  0  0
  -24.6352  -15.8356   20.5257 H   0  0  0  0  0  0
  -26.2478  -15.6489   20.0629 H   0  0  0  0  0  0
  -26.7206  -32.5426   23.1078 H   0  0  0  0  0  0
  -25.0069  -33.9667   25.0387 H   0  0  0  0  0  0
  -22.7243  -31.3072   21.4032 H   0  0  0  0  0  0
  -23.3753  -35.9613   23.3316 H   0  0  0  0  0  0
  -24.3581  -36.8892   22.2046 H   0  0  0  0  0  0
  -23.7267  -37.6487   23.6654 H   0  0  0  0  0  0
  -26.1083  -31.5367   20.6021 H   0  0  0  0  0  0
  -26.8534  -30.8267   22.0017 H   0  0  0  0  0  0
  -28.1232  -28.9335   21.1903 H   0  0  0  0  0  0
  -25.9616  -25.9258   18.9755 H   0  0  0  0  0  0
  -23.9597  -27.3221   18.9976 H   0  0  0  0  0  0
  -23.7665  -30.5983   19.4082 H   0  0  0  0  0  0
  -22.7565  -29.2553   19.8572 H   0  0  0  0  0  0
  -25.1318  -36.1905   25.0829 H   0  0  0  0  0  0
  -20.9987  -28.3320   24.1398 H   0  0  0  0  0  0
  -20.5748  -26.2322   23.3619 H   0  0  0  0  0  0
  -21.6660  -26.7519   22.1185 H   0  0  0  0  0  0
  -19.6952  -25.6329   21.1250 H   0  0  0  0  0  0
  -19.6732  -27.3235   20.6759 H   0  0  0  0  0  0
  -17.4223  -26.6698   21.4025 H   0  0  0  0  0  0
  -18.0346  -26.0125   22.9037 H   0  0  0  0  0  0
  -19.7935  -30.7303   24.2290 H   0  0  0  0  0  0
  -17.5020  -31.6303   24.5176 H   0  0  0  0  0  0
  -15.5364  -30.3030   23.7695 H   0  0  0  0  0  0
  -15.8646  -28.0870   22.7083 H   0  0  0  0  0  0
  -24.5923  -30.7070   25.7773 H   0  0  0  0  0  0
  -24.8928  -32.2883   26.4851 H   0  0  0  0  0  0
  -25.8058  -30.8909   27.0223 H   0  0  0  0  0  0
  -26.2929  -29.6763   24.1172 H   0  0  0  0  0  0
  -27.3993  -29.7230   25.4693 H   0  0  0  0  0  0
  -27.8816  -30.4267   23.9451 H   0  0  0  0  0  0
  -27.2690  -33.3582   26.2101 H   0  0  0  0  0  0
  -28.3885  -32.6869   25.0335 H   0  0  0  0  0  0
  -28.0743  -31.8396   26.5407 H   0  0  0  0  0  0
  -28.2623  -38.0070   24.7474 H   0  0  0  0  0  0
  -28.1044  -36.2591   24.6360 H   0  0  0  0  0  0
  -27.2266  -37.1538   25.8873 H   0  0  0  0  0  0
  -20.9408  -29.8692   21.6771 H   0  0  0  0  0  0
  -26.0169  -38.2843   24.1395 H   0  0  0  0  0  0
  -27.1408  -26.0095   22.4685 H   0  0  0  0  0  0
  -28.8327  -25.5662   22.6446 H   0  0  0  0  0  0
  -27.5659  -24.3630   22.8052 H   0  0  0  0  0  0
  -26.3859  -22.4476   20.3160 H   0  0  0  0  0  0
  -26.9422  -20.8233   19.9296 H   0  0  0  0  0  0
  -27.2909  -22.1583   18.8385 H   0  0  0  0  0  0
  -29.1282  -22.2181   22.7513 H   0  0  0  0  0  0
  -28.1779  -20.7938   22.3266 H   0  0  0  0  0  0
  -27.3883  -22.3129   22.5058 H   0  0  0  0  0  0
  -29.3637  -20.8837   18.9964 H   0  0  0  0  0  0
  -30.5484  -21.5831   19.9849 H   0  0  0  0  0  0
  -29.8959  -23.9031   20.8906 H   0  0  0  0  0  0
  -29.1939  -23.8123   19.3241 H   0  0  0  0  0  0
  -26.9914  -24.6801   20.3760 H   0  0  0  0  0  0
  -31.7516  -20.1806   23.4363 H   0  0  0  0  0  0
  -30.9748  -21.3550   22.5325 H   0  0  0  0  0  0
  -28.8345  -15.6526   20.4386 H   0  0  0  0  0  0
  1 25  1  0  0  0
  1 30  2  0  0  0
  1 83  1  0  0  0
  2  3  1  0  0  0
  2 25  1  0  0  0
  2 85  1  0  0  0
  2 86  1  0  0  0
  3  4  1  0  0  0
  3 87  1  0  0  0
  3 88  1  0  0  0
  4  5  1  0  0  0
  4 89  1  0  0  0
  4 90  1  0  0  0
  5  6  1  0  0  0
  5 26  1  0  0  0
  5 91  1  0  0  0
  6 25  1  0  0  0
  6 92  1  0  0  0
  6 93  1  0  0  0
  7  8  2  0  0  0
  7 26  1  0  0  0
  7 29  1  0  0  0
  8  9  1  0  0  0
  8 22  1  0  0  0
  9 10  1  0  0  0
  9 27  2  0  0  0
 10 11  2  0  0  0
 10 15  1  0  0  0
 11 12  1  0  0  0
 11 94  1  0  0  0
 12 13  2  0  0  0
 12 95  1  0  0  0
 13 14  1  0  0  0
 13 31  1  0  0  0
 14 15  2  0  0  0
 14 96  1  0  0  0
 15 97  1  0  0  0
 16 17  2  0  0  0
 16 21  1  0  0  0
 16 31  1  0  0  0
 17 18  1  0  0  0
 17 98  1  0  0  0
 18 19  2  0  0  0
 18 99  1  0  0  0
 19 20  1  0  0  0
 19 24  1  0  0  0
 20 21  2  0  0  0
 20100  1  0  0  0
 21 23  1  0  0  0
 22 28  1  0  0  0
 22 32  2  0  0  0
 26 27  1  0  0  0
 28101  1  0  0  0
 28102  1  0  0  0
 29103  1  0  0  0
 29104  1  0  0  0
 33 34  1  0  0  0
 33 66  1  0  0  0
 33 70  2  0  0  0
 34 36  1  0  0  0
 34 59  1  0  0  0
 34105  1  0  0  0
 35 44  2  0  0  0
 35 45  1  0  0  0
 35 68  1  0  0  0
 36 56  1  0  0  0
 36106  1  0  0  0
 37 39  1  0  0  0
 37 47  1  0  0  0
 37 66  1  0  0  0
 37107  1  0  0  0
 38 43  2  0  0  0
 38 46  1  0  0  0
 38 47  1  0  0  0
 39 64  1  0  0  0
 39 67  2  0  0  0
 40 52  1  0  0  0
 40 53  2  0  0  0
 40 58  1  0  0  0
 41108  1  0  0  0
 41109  1  0  0  0
 41110  1  0  0  0
 41 48  1  0  0  0
 42 43  1  0  0  0
 42 66  1  0  0  0
 42111  1  0  0  0
 42112  1  0  0  0
 43 44  1  0  0  0
 44113  1  0  0  0
 45 46  2  0  0  0
 45114  1  0  0  0
 46115  1  0  0  0
 47116  1  0  0  0
 47117  1  0  0  0
 48 56  1  0  0  0
 48 65  1  0  0  0
 48118  1  0  0  0
 49 50  1  0  0  0
 49 53  1  0  0  0
 49 64  1  0  0  0
 49119  1  0  0  0
 50 51  1  0  0  0
 50120  1  0  0  0
 50121  1  0  0  0
 51 52  1  0  0  0
 51122  1  0  0  0
 51123  1  0  0  0
 52124  1  0  0  0
 52125  1  0  0  0
 53 54  1  0  0  0
 54 55  2  0  0  0
 54126  1  0  0  0
 55 57  1  0  0  0
 55127  1  0  0  0
 56 69  2  0  0  0
 57 58  2  0  0  0
 57128  1  0  0  0
 58129  1  0  0  0
 59 60  1  0  0  0
 59 61  1  0  0  0
 59 62  1  0  0  0
 60130  1  0  0  0
 60131  1  0  0  0
 60132  1  0  0  0
 61133  1  0  0  0
 61134  1  0  0  0
 61135  1  0  0  0
 62136  1  0  0  0
 62137  1  0  0  0
 62138  1  0  0  0
 63 65  1  0  0  0
 63139  1  0  0  0
 63140  1  0  0  0
 63141  1  0  0  0
 64142  1  0  0  0
 65143  1  0  0  0
 68 79  1  0  0  0
 71 72  2  0  0  0
 71 77  1  0  0  0
 71 81  1  0  0  0
 72 82  1  0  0  0
 72 84  1  0  0  0
 73 81  2  0  0  0
 73 83  1  0  0  0
 73 84  1  0  0  0
 74144  1  0  0  0
 74145  1  0  0  0
 74146  1  0  0  0
 74 79  1  0  0  0
 75147  1  0  0  0
 75148  1  0  0  0
 75149  1  0  0  0
 75 80  1  0  0  0
 76 80  1  0  0  0
 76150  1  0  0  0
 76151  1  0  0  0
 76152  1  0  0  0
 77 80  1  0  0  0
 77153  1  0  0  0
 77154  1  0  0  0
 78 79  1  0  0  0
 78 80  1  0  0  0
 78155  1  0  0  0
 78156  1  0  0  0
 79157  1  0  0  0
 82158  1  0  0  0
 82159  1  0  0  0
 83160  1  0  0  0
M  ISO  4   1 100  68 101  79 101  83 100
M  END
> <chiral flag>
0

> <version>
0

> <s_m_source_file>
/data/baiqing/PycharmProjects/Reinvent-master-3.2/result/LINK_invent/BTK/process_docking_weight1_custom_product_contain_oxygen_bond_distance_aromatic_linkinvent_7_9_3/rearranged_h_0190.sdf

> <i_m_source_file_index>
46

> <r_mmod_Potential_Energy-OPLS-2005>
195.678756713867

> <r_mmod_Stretch_Energy-OPLS-2005>
123.408973693848

> <r_mmod_Bend_Energy-OPLS-2005>
171.083648681641

> <r_mmod_Torsional_Energy-OPLS-2005>
246.533996582031

> <r_mmod_Improper_Torsional_Energy-OPLS-2005>
13.386326789856

> <r_mmod_Van_der_Waal_Energy-OPLS-2005>
118.090324401855

> <r_mmod_Electrostatic_Energy-OPLS-2005>
-348.372436523438

> <r_mmod_Solvation_Energy-OPLS-2005>
-211.726943969727

> <b_mmod_Minimization_Converged-OPLS-2005>
0

> <r_mmod_RMS_Derivative-OPLS-2005>
3.79681038856506

$$$$
46
                    3D
 Structure written by MMmdl.
151159  0  0  1  0            999 V2000
  -30.6252  -14.7457   20.4479 C   0  0  0  0  0  0
  -30.4301  -12.4515   19.4877 C   0  0  0  0  0  0
  -29.5143  -12.5110   18.2445 C   0  0  0  0  0  0
  -28.0399  -12.3354   18.6549 C   0  0  0  0  0  0
  -27.6442  -13.2362   19.8551 C   0  0  2  0  0  0
  -28.6872  -13.1798   20.9945 C   0  0  0  0  0  0
  -25.2525  -13.8205   20.5712 C   0  0  0  0  0  0
  -24.1817  -13.0446   20.9215 C   0  0  0  0  0  0
  -24.6407  -11.6924   20.8751 C   0  0  0  0  0  0
  -23.9084  -10.4293   21.0404 C   0  0  0  0  0  0
  -24.3631   -9.4208   21.9186 C   0  0  0  0  0  0
  -23.6304   -8.2247   22.0752 C   0  0  0  0  0  0
  -22.4285   -8.0284   21.3546 C   0  0  0  0  0  0
  -21.9923   -9.0257   20.4648 C   0  0  0  0  0  0
  -22.7255  -10.2135   20.3058 C   0  0  0  0  0  0
  -21.6856   -6.0741   22.5280 C   0  0  0  0  0  0
  -21.4013   -6.5642   23.8214 C   0  0  0  0  0  0
  -21.3661   -5.6794   24.9175 C   0  0  0  0  0  0
  -21.6048   -4.3057   24.7222 C   0  0  0  0  0  0
  -21.8819   -3.8150   23.4341 C   0  0  0  0  0  0
  -21.9193   -4.6969   22.3400 C   0  0  0  0  0  0
  -22.7834  -13.5226   21.1873 C   0  0  0  0  0  0
  -22.1665   -4.2157   21.0978 F   0  0  0  0  0  0
  -21.5627   -3.4538   25.7734 F   0  0  0  0  0  0
  -29.9934  -13.5209   20.4186 N   0  0  0  0  0  0
  -26.2957  -12.9424   20.3308 N   0  0  0  0  0  0
  -25.9342  -11.6556   20.5762 N   0  0  0  0  0  0
  -22.0479  -12.8210   22.0422 N   0  0  0  0  0  0
  -25.4203  -15.1933   20.4124 N   0  0  0  0  0  0
  -31.8030  -14.8269   20.0901 O   0  0  0  0  0  0
  -21.6645   -6.8885   21.4243 O   0  0  0  0  0  0
  -22.3518  -14.5529   20.6715 O   0  0  0  0  0  0
  -24.6335  -31.8548   23.2000 C   0  0  0  0  0  0
  -25.9149  -32.4760   23.8342 C   0  0  1  0  0  0
  -27.2126  -27.2502   20.1297 C   0  0  0  0  0  0
  -25.5935  -33.8564   24.2263 N   0  0  0  0  0  0
  -23.4310  -30.4801   21.5424 C   0  0  2  0  0  0
  -24.8801  -28.9357   20.1028 C   0  0  0  0  0  0
  -22.7514  -29.4598   22.4889 C   0  0  0  0  0  0
  -18.0299  -28.1397   22.8480 C   0  0  0  0  0  0
  -24.1489  -36.7282   23.2639 C   0  0  0  0  0  0
  -25.9797  -30.7651   21.3837 C   0  0  0  0  0  0
  -26.0526  -29.3888   20.7219 C   0  0  0  0  0  0
  -27.2223  -28.5581   20.7279 C   0  0  0  0  0  0
  -26.0271  -26.8918   19.4455 C   0  0  0  0  0  0
  -24.8744  -27.6963   19.4511 C   0  0  0  0  0  0
  -23.6504  -29.8210   20.1561 C   0  0  0  0  0  0
  -25.4118  -36.3077   24.0330 C   0  0  1  0  0  0
  -20.5904  -28.3706   23.1256 C   0  0  2  0  0  0
  -20.6789  -26.9420   22.5400 C   0  0  0  0  0  0
  -19.5760  -26.6390   21.5207 C   0  0  0  0  0  0
  -18.1939  -26.7940   22.1622 C   0  0  0  0  0  0
  -19.1555  -28.8869   23.2866 C   0  0  0  0  0  0
  -18.9473  -30.1468   23.8888 C   0  0  0  0  0  0
  -17.6469  -30.6592   24.0566 C   0  0  0  0  0  0
  -25.9058  -34.9446   23.5105 C   0  0  0  0  0  0
  -16.5361  -29.9088   23.6333 C   0  0  0  0  0  0
  -16.7285  -28.6510   23.0346 C   0  0  0  0  0  0
  -26.4505  -31.6587   25.0736 C   0  0  0  0  0  0
  -25.3713  -31.3726   26.1443 C   0  0  0  0  0  0
  -27.0346  -30.3007   24.6221 C   0  0  0  0  0  0
  -27.6068  -32.4314   25.7499 C   0  0  0  0  0  0
  -27.5583  -37.1801   24.8469 C   0  0  0  0  0  0
  -21.4221  -29.3053   22.3642 N   0  0  0  0  0  0
  -26.4295  -37.3777   23.9413 N   0  0  0  0  0  0
  -24.7006  -31.0505   22.0985 N   0  0  0  0  0  0
  -23.4212  -28.8124   23.2980 O   0  0  0  0  0  0
  -28.2609  -26.2956   20.2394 O   0  0  0  0  0  0
  -26.5624  -34.8919   22.4669 O   0  0  0  0  0  0
  -23.5478  -32.1363   23.7286 O   0  0  0  0  0  0
  -29.1399  -19.7856   19.9656 C   0  0  0  0  0  0
  -30.1468  -20.9190   21.7354 C   0  0  0  0  0  0
  -29.3332  -21.0803   20.6412 C   0  0  0  0  0  0
  -29.8231  -18.6782   20.5116 C   0  0  0  0  0  0
  -28.9955  -23.7000   20.5548 C   0  0  0  0  0  0
  -26.9618  -24.7092   21.6397 C   0  0  0  0  0  0
  -30.0902  -17.2375   19.9081 C   0  0  0  0  0  0
  -27.8660  -24.8331   20.3892 C   0  0  1  0  0  0
  -28.6892  -22.3704   20.2745 N   0  0  0  0  0  0
  -29.8702  -15.8990   20.6213 N   0  0  0  0  0  0
  -30.1174  -24.0346   20.9458 O   0  0  0  0  0  0
  -30.6746  -19.2443   21.9365 S   0  0  0  0  0  0
  -31.4750  -12.5557   19.1904 H   0  0  0  0  0  0
  -30.3583  -11.4764   19.9707 H   0  0  0  0  0  0
  -29.7973  -11.7393   17.5272 H   0  0  0  0  0  0
  -29.6444  -13.4664   17.7333 H   0  0  0  0  0  0
  -27.8969  -11.2865   18.9182 H   0  0  0  0  0  0
  -27.3838  -12.5260   17.8049 H   0  0  0  0  0  0
  -27.6364  -14.2569   19.4720 H   0  0  0  0  0  0
  -28.7177  -12.1873   21.4444 H   0  0  0  0  0  0
  -28.4236  -13.8719   21.7962 H   0  0  0  0  0  0
  -25.2773   -9.5680   22.4763 H   0  0  0  0  0  0
  -24.0013   -7.4631   22.7464 H   0  0  0  0  0  0
  -21.0855   -8.8775   19.8949 H   0  0  0  0  0  0
  -22.3713  -10.9675   19.6168 H   0  0  0  0  0  0
  -21.2004   -7.6149   23.9720 H   0  0  0  0  0  0
  -21.1489   -6.0522   25.9081 H   0  0  0  0  0  0
  -22.0598   -2.7613   23.2840 H   0  0  0  0  0  0
  -22.4093  -11.9876   22.4819 H   0  0  0  0  0  0
  -21.1090  -13.1223   22.2618 H   0  0  0  0  0  0
  -24.6500  -15.8444   20.5177 H   0  0  0  0  0  0
  -26.2660  -15.6336   20.0729 H   0  0  0  0  0  0
  -26.7218  -32.5407   23.1085 H   0  0  0  0  0  0
  -25.0091  -33.9694   25.0416 H   0  0  0  0  0  0
  -22.7294  -31.3047   21.3988 H   0  0  0  0  0  0
  -23.3761  -35.9607   23.3303 H   0  0  0  0  0  0
  -24.3581  -36.8899   22.2053 H   0  0  0  0  0  0
  -23.7231  -37.6483   23.6657 H   0  0  0  0  0  0
  -26.1219  -31.5269   20.6153 H   0  0  0  0  0  0
  -26.8567  -30.8117   22.0179 H   0  0  0  0  0  0
  -28.1104  -28.8888   21.2480 H   0  0  0  0  0  0
  -25.9479  -25.9534   18.9207 H   0  0  0  0  0  0
  -23.9826  -27.3511   18.9450 H   0  0  0  0  0  0
  -23.7737  -30.6003   19.4033 H   0  0  0  0  0  0
  -22.7690  -29.2550   19.8494 H   0  0  0  0  0  0
  -25.1302  -36.1931   25.0824 H   0  0  0  0  0  0
  -21.0009  -28.3288   24.1374 H   0  0  0  0  0  0
  -20.5685  -26.2312   23.3607 H   0  0  0  0  0  0
  -21.6652  -26.7435   22.1197 H   0  0  0  0  0  0
  -19.6918  -25.6297   21.1244 H   0  0  0  0  0  0
  -19.6705  -27.3193   20.6734 H   0  0  0  0  0  0
  -17.4208  -26.6680   21.4030 H   0  0  0  0  0  0
  -18.0349  -26.0086   22.9027 H   0  0  0  0  0  0
  -19.7945  -30.7288   24.2256 H   0  0  0  0  0  0
  -17.5020  -31.6270   24.5168 H   0  0  0  0  0  0
  -15.5360  -30.2987   23.7665 H   0  0  0  0  0  0
  -15.8686  -28.0832   22.7062 H   0  0  0  0  0  0
  -24.5926  -30.7038   25.7760 H   0  0  0  0  0  0
  -24.8855  -32.2878   26.4835 H   0  0  0  0  0  0
  -25.8022  -30.8933   27.0240 H   0  0  0  0  0  0
  -26.2928  -29.6760   24.1234 H   0  0  0  0  0  0
  -27.4015  -29.7275   25.4743 H   0  0  0  0  0  0
  -27.8814  -30.4293   23.9477 H   0  0  0  0  0  0
  -27.2712  -33.3643   26.2040 H   0  0  0  0  0  0
  -28.3893  -32.6817   25.0324 H   0  0  0  0  0  0
  -28.0711  -31.8447   26.5435 H   0  0  0  0  0  0
  -28.2605  -38.0094   24.7521 H   0  0  0  0  0  0
  -28.1074  -36.2629   24.6296 H   0  0  0  0  0  0
  -27.2297  -37.1448   25.8869 H   0  0  0  0  0  0
  -20.9405  -29.8791   21.6860 H   0  0  0  0  0  0
  -26.0178  -38.2856   24.1408 H   0  0  0  0  0  0
  -28.5443  -19.7225   19.0648 H   0  0  0  0  0  0
  -30.4678  -21.6685   22.4493 H   0  0  0  0  0  0
  -26.0269  -25.2572   21.5390 H   0  0  0  0  0  0
  -27.4697  -25.0933   22.5252 H   0  0  0  0  0  0
  -26.6863  -23.6732   21.8431 H   0  0  0  0  0  0
  -31.1240  -17.2454   19.5582 H   0  0  0  0  0  0
  -29.5083  -17.1607   18.9886 H   0  0  0  0  0  0
  -27.3181  -24.5173   19.5034 H   0  0  0  0  0  0
  -27.8077  -22.2675   19.7898 H   0  0  0  0  0  0
  -28.9350  -15.7470   20.9676 H   0  0  0  0  0  0
  1 25  1  0  0  0
  1 30  2  0  0  0
  1 80  1  0  0  0
  2  3  1  0  0  0
  2 25  1  0  0  0
  2 83  1  0  0  0
  2 84  1  0  0  0
  3  4  1  0  0  0
  3 85  1  0  0  0
  3 86  1  0  0  0
  4  5  1  0  0  0
  4 87  1  0  0  0
  4 88  1  0  0  0
  5  6  1  0  0  0
  5 26  1  0  0  0
  5 89  1  0  0  0
  6 25  1  0  0  0
  6 90  1  0  0  0
  6 91  1  0  0  0
  7  8  2  0  0  0
  7 26  1  0  0  0
  7 29  1  0  0  0
  8  9  1  0  0  0
  8 22  1  0  0  0
  9 10  1  0  0  0
  9 27  2  0  0  0
 10 11  2  0  0  0
 10 15  1  0  0  0
 11 12  1  0  0  0
 11 92  1  0  0  0
 12 13  2  0  0  0
 12 93  1  0  0  0
 13 14  1  0  0  0
 13 31  1  0  0  0
 14 15  2  0  0  0
 14 94  1  0  0  0
 15 95  1  0  0  0
 16 17  2  0  0  0
 16 21  1  0  0  0
 16 31  1  0  0  0
 17 18  1  0  0  0
 17 96  1  0  0  0
 18 19  2  0  0  0
 18 97  1  0  0  0
 19 20  1  0  0  0
 19 24  1  0  0  0
 20 21  2  0  0  0
 20 98  1  0  0  0
 21 23  1  0  0  0
 22 28  1  0  0  0
 22 32  2  0  0  0
 26 27  1  0  0  0
 28 99  1  0  0  0
 28100  1  0  0  0
 29101  1  0  0  0
 29102  1  0  0  0
 33 34  1  0  0  0
 33 66  1  0  0  0
 33 70  2  0  0  0
 34 36  1  0  0  0
 34 59  1  0  0  0
 34103  1  0  0  0
 35 44  2  0  0  0
 35 45  1  0  0  0
 35 68  1  0  0  0
 36 56  1  0  0  0
 36104  1  0  0  0
 37 39  1  0  0  0
 37 47  1  0  0  0
 37 66  1  0  0  0
 37105  1  0  0  0
 38 43  2  0  0  0
 38 46  1  0  0  0
 38 47  1  0  0  0
 39 64  1  0  0  0
 39 67  2  0  0  0
 40 52  1  0  0  0
 40 53  2  0  0  0
 40 58  1  0  0  0
 41106  1  0  0  0
 41107  1  0  0  0
 41108  1  0  0  0
 41 48  1  0  0  0
 42 43  1  0  0  0
 42 66  1  0  0  0
 42109  1  0  0  0
 42110  1  0  0  0
 43 44  1  0  0  0
 44111  1  0  0  0
 45 46  2  0  0  0
 45112  1  0  0  0
 46113  1  0  0  0
 47114  1  0  0  0
 47115  1  0  0  0
 48 56  1  0  0  0
 48 65  1  0  0  0
 48116  1  0  0  0
 49 50  1  0  0  0
 49 53  1  0  0  0
 49 64  1  0  0  0
 49117  1  0  0  0
 50 51  1  0  0  0
 50118  1  0  0  0
 50119  1  0  0  0
 51 52  1  0  0  0
 51120  1  0  0  0
 51121  1  0  0  0
 52122  1  0  0  0
 52123  1  0  0  0
 53 54  1  0  0  0
 54 55  2  0  0  0
 54124  1  0  0  0
 55 57  1  0  0  0
 55125  1  0  0  0
 56 69  2  0  0  0
 57 58  2  0  0  0
 57126  1  0  0  0
 58127  1  0  0  0
 59 60  1  0  0  0
 59 61  1  0  0  0
 59 62  1  0  0  0
 60128  1  0  0  0
 60129  1  0  0  0
 60130  1  0  0  0
 61131  1  0  0  0
 61132  1  0  0  0
 61133  1  0  0  0
 62134  1  0  0  0
 62135  1  0  0  0
 62136  1  0  0  0
 63 65  1  0  0  0
 63137  1  0  0  0
 63138  1  0  0  0
 63139  1  0  0  0
 64140  1  0  0  0
 65141  1  0  0  0
 68 78  1  0  0  0
 71 73  1  0  0  0
 71 74  2  0  0  0
 71142  1  0  0  0
 72 73  2  0  0  0
 72 82  1  0  0  0
 72143  1  0  0  0
 73 79  1  0  0  0
 74 77  1  0  0  0
 74 82  1  0  0  0
 75 78  1  0  0  0
 75 79  1  0  0  0
 75 81  2  0  0  0
 76144  1  0  0  0
 76145  1  0  0  0
 76146  1  0  0  0
 76 78  1  0  0  0
 77 80  1  0  0  0
 77147  1  0  0  0
 77148  1  0  0  0
 78149  1  0  0  0
 79150  1  0  0  0
 80151  1  0  0  0
M  ISO  4   1 100  68 101  78 101  80 100
M  END
> <chiral flag>
0

> <version>
0

> <s_m_source_file>
/data/baiqing/PycharmProjects/Reinvent-master-3.2/result/LINK_invent/BTK/process_docking_weight1_custom_product_contain_oxygen_bond_distance_aromatic_linkinvent_7_9_3/rearranged_h_0190.sdf

> <i_m_source_file_index>
47

> <r_mmod_Potential_Energy-OPLS-2005>
118.720016479492

> <r_mmod_Stretch_Energy-OPLS-2005>
125.505142211914

> <r_mmod_Bend_Energy-OPLS-2005>
173.698791503906

> <r_mmod_Torsional_Energy-OPLS-2005>
246.897399902344

> <r_mmod_Improper_Torsional_Energy-OPLS-2005>
8.99724864959717

> <r_mmod_Van_der_Waal_Energy-OPLS-2005>
123.588760375977

> <r_mmod_Electrostatic_Energy-OPLS-2005>
-407.076324462891

> <r_mmod_Solvation_Energy-OPLS-2005>
-248.999908447266

> <b_mmod_Minimization_Converged-OPLS-2005>
0

> <r_mmod_RMS_Derivative-OPLS-2005>
1.21321952342987

$$$$
47
                    3D
 Structure written by MMmdl.
168176  0  0  1  0            999 V2000
  -30.7717  -14.3325   20.7023 C   0  0  0  0  0  0
  -30.4194  -12.2784   19.3802 C   0  0  0  0  0  0
  -29.4825  -12.5329   18.1850 C   0  0  0  0  0  0
  -28.0072  -12.3874   18.6034 C   0  0  0  0  0  0
  -27.6704  -13.1975   19.8823 C   0  0  2  0  0  0
  -28.7075  -12.9126   20.9903 C   0  0  0  0  0  0
  -25.2630  -13.8144   20.5672 C   0  0  0  0  0  0
  -24.1861  -13.0435   20.9154 C   0  0  0  0  0  0
  -24.6397  -11.6897   20.8715 C   0  0  0  0  0  0
  -23.9055  -10.4290   21.0396 C   0  0  0  0  0  0
  -24.3609   -9.4210   21.9175 C   0  0  0  0  0  0
  -23.6287   -8.2244   22.0751 C   0  0  0  0  0  0
  -22.4269   -8.0280   21.3543 C   0  0  0  0  0  0
  -21.9900   -9.0251   20.4645 C   0  0  0  0  0  0
  -22.7226  -10.2132   20.3050 C   0  0  0  0  0  0
  -21.6854   -6.0733   22.5278 C   0  0  0  0  0  0
  -21.4013   -6.5636   23.8211 C   0  0  0  0  0  0
  -21.3660   -5.6790   24.9174 C   0  0  0  0  0  0
  -21.6045   -4.3053   24.7225 C   0  0  0  0  0  0
  -21.8820   -3.8145   23.4347 C   0  0  0  0  0  0
  -21.9193   -4.6960   22.3403 C   0  0  0  0  0  0
  -22.7886  -13.5244   21.1830 C   0  0  0  0  0  0
  -22.1662   -4.2146   21.0980 F   0  0  0  0  0  0
  -21.5630   -3.4538   25.7738 F   0  0  0  0  0  0
  -30.0557  -13.2047   20.4607 N   0  0  0  0  0  0
  -26.3069  -12.9299   20.3387 N   0  0  0  0  0  0
  -25.9321  -11.6464   20.5744 N   0  0  0  0  0  0
  -22.0524  -12.8240   22.0388 N   0  0  0  0  0  0
  -25.4378  -15.1860   20.4091 N   0  0  0  0  0  0
  -31.7763  -14.6509   20.0559 O   0  0  0  0  0  0
  -21.6638   -6.8875   21.4239 O   0  0  0  0  0  0
  -22.3575  -14.5558   20.6690 O   0  0  0  0  0  0
  -24.6065  -31.8722   23.2114 C   0  0  0  0  0  0
  -25.8982  -32.4846   23.8397 C   0  0  1  0  0  0
  -27.2597  -27.4963   20.1148 C   0  0  0  0  0  0
  -25.5848  -33.8636   24.2337 N   0  0  0  0  0  0
  -23.3914  -30.4951   21.5501 C   0  0  2  0  0  0
  -24.8428  -28.9663   20.1179 C   0  0  0  0  0  0
  -22.7366  -29.4688   22.5010 C   0  0  0  0  0  0
  -18.0264  -28.1375   22.8498 C   0  0  0  0  0  0
  -24.1483  -36.7339   23.2652 C   0  0  0  0  0  0
  -25.9101  -30.8688   21.3447 C   0  0  0  0  0  0
  -25.9963  -29.5060   20.6969 C   0  0  0  0  0  0
  -27.2084  -28.7930   20.6701 C   0  0  0  0  0  0
  -26.0911  -26.9676   19.5256 C   0  0  0  0  0  0
  -24.8837  -27.6944   19.5204 C   0  0  0  0  0  0
  -23.5972  -29.8204   20.1665 C   0  0  0  0  0  0
  -25.4097  -36.3126   24.0356 C   0  0  1  0  0  0
  -20.5849  -28.3650   23.1346 C   0  0  2  0  0  0
  -20.6752  -26.9399   22.5423 C   0  0  0  0  0  0
  -19.5732  -26.6393   21.5213 C   0  0  0  0  0  0
  -18.1910  -26.7926   22.1624 C   0  0  0  0  0  0
  -19.1513  -28.8826   23.2921 C   0  0  0  0  0  0
  -18.9450  -30.1435   23.8926 C   0  0  0  0  0  0
  -17.6457  -30.6586   24.0568 C   0  0  0  0  0  0
  -25.9014  -34.9489   23.5149 C   0  0  0  0  0  0
  -16.5345  -29.9093   23.6323 C   0  0  0  0  0  0
  -16.7257  -28.6507   23.0346 C   0  0  0  0  0  0
  -26.4440  -31.6599   25.0691 C   0  0  0  0  0  0
  -25.3737  -31.3691   26.1469 C   0  0  0  0  0  0
  -27.0252  -30.3055   24.5990 C   0  0  0  0  0  0
  -27.6023  -32.4313   25.7439 C   0  0  0  0  0  0
  -27.5583  -37.1815   24.8466 C   0  0  0  0  0  0
  -21.4102  -29.3030   22.3752 N   0  0  0  0  0  0
  -26.4289  -37.3799   23.9418 N   0  0  0  0  0  0
  -24.6544  -31.0906   22.0961 N   0  0  0  0  0  0
  -23.4177  -28.8246   23.3036 O   0  0  0  0  0  0
  -28.3838  -26.7029   20.0564 O   0  0  0  0  0  0
  -26.5588  -34.8937   22.4716 O   0  0  0  0  0  0
  -23.5280  -32.1422   23.7567 O   0  0  0  0  0  0
  -31.7581  -17.0678   21.8389 C   0  0  0  0  0  0
  -31.6306  -18.4128   22.2841 C   0  0  0  0  0  0
  -30.4233  -18.7074   22.8549 C   0  0  0  0  0  0
  -30.6219  -16.3247   22.0697 C   0  0  0  0  0  0
  -28.9839  -24.3878   21.9469 C   0  0  0  0  0  0
  -29.3311  -27.4706   22.3622 C   0  0  0  0  0  0
  -27.9580  -22.1222   24.1047 C   0  0  0  0  0  0
  -27.0195  -21.9537   21.7798 C   0  0  0  0  0  0
  -29.9113  -20.0228   23.3382 C   0  0  0  0  0  0
  -29.9327  -25.3021   21.1467 C   0  0  0  0  0  0
  -29.4008  -22.9045   22.0988 C   0  0  1  0  0  0
  -29.4835  -26.7732   20.9841 C   0  0  1  0  0  0
  -28.3226  -21.8908   22.6166 C   0  0  0  0  0  0
  -30.3297  -15.0413   21.7496 N   0  0  0  0  0  0
  -28.8801  -20.5308   22.4073 N   0  3  0  0  0  0
  -27.9488  -24.8219   22.4574 O   0  0  0  0  0  0
  -29.9282  -22.3991   20.8710 O   0  0  0  0  0  0
  -32.5889  -19.2951   22.1190 F   0  0  0  0  0  0
  -29.4295  -17.2783   22.9205 S   0  0  0  0  0  0
  -31.4619  -12.3830   19.0730 H   0  0  0  0  0  0
  -30.3178  -11.2492   19.7283 H   0  0  0  0  0  0
  -29.7104  -11.8406   17.3734 H   0  0  0  0  0  0
  -29.6551  -13.5352   17.7893 H   0  0  0  0  0  0
  -27.8105  -11.3279   18.7726 H   0  0  0  0  0  0
  -27.3532  -12.6894   17.7848 H   0  0  0  0  0  0
  -27.7373  -14.2550   19.6256 H   0  0  0  0  0  0
  -28.6639  -11.8620   21.2814 H   0  0  0  0  0  0
  -28.4489  -13.4644   21.8938 H   0  0  0  0  0  0
  -25.2758   -9.5686   22.4742 H   0  0  0  0  0  0
  -24.0000   -7.4638   22.7470 H   0  0  0  0  0  0
  -21.0831   -8.8766   19.8954 H   0  0  0  0  0  0
  -22.3684  -10.9665   19.6157 H   0  0  0  0  0  0
  -21.2003   -7.6145   23.9713 H   0  0  0  0  0  0
  -21.1483   -6.0521   25.9076 H   0  0  0  0  0  0
  -22.0599   -2.7606   23.2848 H   0  0  0  0  0  0
  -22.4130  -11.9891   22.4767 H   0  0  0  0  0  0
  -21.1145  -13.1271   22.2597 H   0  0  0  0  0  0
  -24.6743  -15.8451   20.5149 H   0  0  0  0  0  0
  -26.2983  -15.6220   20.1013 H   0  0  0  0  0  0
  -26.7064  -32.5601   23.1188 H   0  0  0  0  0  0
  -24.9941  -33.9788   25.0442 H   0  0  0  0  0  0
  -22.6767  -31.3087   21.4109 H   0  0  0  0  0  0
  -23.3728  -35.9690   23.3315 H   0  0  0  0  0  0
  -24.3590  -36.8946   22.2069 H   0  0  0  0  0  0
  -23.7254  -37.6558   23.6652 H   0  0  0  0  0  0
  -26.0041  -31.6369   20.5760 H   0  0  0  0  0  0
  -26.8039  -30.9323   21.9529 H   0  0  0  0  0  0
  -28.0903  -29.2747   21.0534 H   0  0  0  0  0  0
  -26.1184  -25.9860   19.0734 H   0  0  0  0  0  0
  -23.9993  -27.2712   19.0652 H   0  0  0  0  0  0
  -23.6966  -30.5907   19.4008 H   0  0  0  0  0  0
  -22.7249  -29.2319   19.8767 H   0  0  0  0  0  0
  -25.1280  -36.1994   25.0850 H   0  0  0  0  0  0
  -20.9936  -28.3211   24.1471 H   0  0  0  0  0  0
  -20.5655  -26.2261   23.3599 H   0  0  0  0  0  0
  -21.6625  -26.7456   22.1218 H   0  0  0  0  0  0
  -19.6889  -25.6311   21.1224 H   0  0  0  0  0  0
  -19.6672  -27.3218   20.6757 H   0  0  0  0  0  0
  -17.4184  -26.6687   21.4020 H   0  0  0  0  0  0
  -18.0311  -26.0066   22.9016 H   0  0  0  0  0  0
  -19.7934  -30.7232   24.2313 H   0  0  0  0  0  0
  -17.5024  -31.6273   24.5162 H   0  0  0  0  0  0
  -15.5346  -30.3007   23.7634 H   0  0  0  0  0  0
  -15.8658  -28.0832   22.7049 H   0  0  0  0  0  0
  -24.5882  -30.7065   25.7816 H   0  0  0  0  0  0
  -24.8962  -32.2851   26.4954 H   0  0  0  0  0  0
  -25.8108  -30.8832   27.0200 H   0  0  0  0  0  0
  -26.2758  -29.6844   24.1067 H   0  0  0  0  0  0
  -27.4088  -29.7255   25.4395 H   0  0  0  0  0  0
  -27.8563  -30.4407   23.9067 H   0  0  0  0  0  0
  -27.2629  -33.3581   26.2077 H   0  0  0  0  0  0
  -28.3779  -32.6928   25.0230 H   0  0  0  0  0  0
  -28.0740  -31.8407   26.5302 H   0  0  0  0  0  0
  -28.2588  -38.0120   24.7502 H   0  0  0  0  0  0
  -28.1088  -36.2650   24.6284 H   0  0  0  0  0  0
  -27.2315  -37.1460   25.8873 H   0  0  0  0  0  0
  -20.9237  -29.8749   21.6985 H   0  0  0  0  0  0
  -26.0188  -38.2888   24.1387 H   0  0  0  0  0  0
  -32.6568  -16.7152   21.3543 H   0  0  0  0  0  0
  -30.0595  -27.0803   23.0733 H   0  0  0  0  0  0
  -28.3435  -27.3322   22.8024 H   0  0  0  0  0  0
  -29.5414  -28.5374   22.3095 H   0  0  0  0  0  0
  -27.4147  -23.0553   24.2479 H   0  0  0  0  0  0
  -28.8404  -22.1752   24.7422 H   0  0  0  0  0  0
  -27.3168  -21.3271   24.4868 H   0  0  0  0  0  0
  -26.4598  -22.8727   21.9466 H   0  0  0  0  0  0
  -26.3406  -21.1391   22.0349 H   0  0  0  0  0  0
  -27.2209  -21.8885   20.7097 H   0  0  0  0  0  0
  -30.7337  -20.7342   23.4205 H   0  0  0  0  0  0
  -29.4969  -19.9008   24.3394 H   0  0  0  0  0  0
  -30.0802  -24.8715   20.1567 H   0  0  0  0  0  0
  -30.9036  -25.2773   21.6409 H   0  0  0  0  0  0
  -30.2257  -22.9173   22.8126 H   0  0  0  0  0  0
  -30.2860  -27.2911   20.4569 H   0  0  0  0  0  0
  -29.5237  -14.6411   22.2068 H   0  0  0  0  0  0
  -28.1296  -19.8637   22.3534 H   0  0  0  0  0  0
  -29.3126  -20.6074   21.4946 H   0  0  0  0  0  0
  -30.6653  -22.9484   20.6222 H   0  0  0  0  0  0
  1 25  1  0  0  0
  1 30  2  0  0  0
  1 84  1  0  0  0
  2  3  1  0  0  0
  2 25  1  0  0  0
  2 90  1  0  0  0
  2 91  1  0  0  0
  3  4  1  0  0  0
  3 92  1  0  0  0
  3 93  1  0  0  0
  4  5  1  0  0  0
  4 94  1  0  0  0
  4 95  1  0  0  0
  5  6  1  0  0  0
  5 26  1  0  0  0
  5 96  1  0  0  0
  6 25  1  0  0  0
  6 97  1  0  0  0
  6 98  1  0  0  0
  7  8  2  0  0  0
  7 26  1  0  0  0
  7 29  1  0  0  0
  8  9  1  0  0  0
  8 22  1  0  0  0
  9 10  1  0  0  0
  9 27  2  0  0  0
 10 11  2  0  0  0
 10 15  1  0  0  0
 11 12  1  0  0  0
 11 99  1  0  0  0
 12 13  2  0  0  0
 12100  1  0  0  0
 13 14  1  0  0  0
 13 31  1  0  0  0
 14 15  2  0  0  0
 14101  1  0  0  0
 15102  1  0  0  0
 16 17  2  0  0  0
 16 21  1  0  0  0
 16 31  1  0  0  0
 17 18  1  0  0  0
 17103  1  0  0  0
 18 19  2  0  0  0
 18104  1  0  0  0
 19 20  1  0  0  0
 19 24  1  0  0  0
 20 21  2  0  0  0
 20105  1  0  0  0
 21 23  1  0  0  0
 22 28  1  0  0  0
 22 32  2  0  0  0
 26 27  1  0  0  0
 28106  1  0  0  0
 28107  1  0  0  0
 29108  1  0  0  0
 29109  1  0  0  0
 33 34  1  0  0  0
 33 66  1  0  0  0
 33 70  2  0  0  0
 34 36  1  0  0  0
 34 59  1  0  0  0
 34110  1  0  0  0
 35 44  2  0  0  0
 35 45  1  0  0  0
 35 68  1  0  0  0
 36 56  1  0  0  0
 36111  1  0  0  0
 37 39  1  0  0  0
 37 47  1  0  0  0
 37 66  1  0  0  0
 37112  1  0  0  0
 38 43  2  0  0  0
 38 46  1  0  0  0
 38 47  1  0  0  0
 39 64  1  0  0  0
 39 67  2  0  0  0
 40 52  1  0  0  0
 40 53  2  0  0  0
 40 58  1  0  0  0
 41113  1  0  0  0
 41114  1  0  0  0
 41115  1  0  0  0
 41 48  1  0  0  0
 42 43  1  0  0  0
 42 66  1  0  0  0
 42116  1  0  0  0
 42117  1  0  0  0
 43 44  1  0  0  0
 44118  1  0  0  0
 45 46  2  0  0  0
 45119  1  0  0  0
 46120  1  0  0  0
 47121  1  0  0  0
 47122  1  0  0  0
 48 56  1  0  0  0
 48 65  1  0  0  0
 48123  1  0  0  0
 49 50  1  0  0  0
 49 53  1  0  0  0
 49 64  1  0  0  0
 49124  1  0  0  0
 50 51  1  0  0  0
 50125  1  0  0  0
 50126  1  0  0  0
 51 52  1  0  0  0
 51127  1  0  0  0
 51128  1  0  0  0
 52129  1  0  0  0
 52130  1  0  0  0
 53 54  1  0  0  0
 54 55  2  0  0  0
 54131  1  0  0  0
 55 57  1  0  0  0
 55132  1  0  0  0
 56 69  2  0  0  0
 57 58  2  0  0  0
 57133  1  0  0  0
 58134  1  0  0  0
 59 60  1  0  0  0
 59 61  1  0  0  0
 59 62  1  0  0  0
 60135  1  0  0  0
 60136  1  0  0  0
 60137  1  0  0  0
 61138  1  0  0  0
 61139  1  0  0  0
 61140  1  0  0  0
 62141  1  0  0  0
 62142  1  0  0  0
 62143  1  0  0  0
 63 65  1  0  0  0
 63144  1  0  0  0
 63145  1  0  0  0
 63146  1  0  0  0
 64147  1  0  0  0
 65148  1  0  0  0
 68 82  1  0  0  0
 71 72  1  0  0  0
 71 74  2  0  0  0
 71149  1  0  0  0
 72 73  2  0  0  0
 72 88  1  0  0  0
 73 79  1  0  0  0
 73 89  1  0  0  0
 74 84  1  0  0  0
 74 89  1  0  0  0
 75 80  1  0  0  0
 75 81  1  0  0  0
 75 86  2  0  0  0
 76150  1  0  0  0
 76151  1  0  0  0
 76152  1  0  0  0
 76 82  1  0  0  0
 77153  1  0  0  0
 77154  1  0  0  0
 77155  1  0  0  0
 77 83  1  0  0  0
 78 83  1  0  0  0
 78156  1  0  0  0
 78157  1  0  0  0
 78158  1  0  0  0
 79 85  1  0  0  0
 79159  1  0  0  0
 79160  1  0  0  0
 80 82  1  0  0  0
 80161  1  0  0  0
 80162  1  0  0  0
 81 83  1  0  0  0
 81 87  1  0  0  0
 81163  1  0  0  0
 82164  1  0  0  0
 83 85  1  0  0  0
 84165  1  0  0  0
 85166  1  0  0  0
 85167  1  0  0  0
 87168  1  0  0  0
M  CHG  1  85   1
M  ISO  4   1 100  68 101  82 101  84 100
M  END
> <chiral flag>
0

> <version>
0

> <s_m_source_file>
/data/baiqing/PycharmProjects/Reinvent-master-3.2/result/LINK_invent/BTK/process_docking_weight1_custom_product_contain_oxygen_bond_distance_aromatic_linkinvent_7_9_3/rearranged_h_0190.sdf

> <i_m_source_file_index>
48

> <r_mmod_Potential_Energy-OPLS-2005>
-239.718154907227

> <r_mmod_Stretch_Energy-OPLS-2005>
36.1451873779297

> <r_mmod_Bend_Energy-OPLS-2005>
143.801742553711

> <r_mmod_Torsional_Energy-OPLS-2005>
216.326278686523

> <r_mmod_Improper_Torsional_Energy-OPLS-2005>
2.78316259384155

> <r_mmod_Van_der_Waal_Energy-OPLS-2005>
150.868942260742

> <r_mmod_Electrostatic_Energy-OPLS-2005>
-340.703125

> <r_mmod_Solvation_Energy-OPLS-2005>
-455.219512939453

> <b_mmod_Minimization_Converged-OPLS-2005>
0

> <r_mmod_RMS_Derivative-OPLS-2005>
0.934574902057648

$$$$
48
                    3D
 Structure written by MMmdl.
168176  0  0  1  0            999 V2000
  -30.7633  -14.4163   20.5700 C   0  0  0  0  0  0
  -30.4100  -12.2788   19.4021 C   0  0  0  0  0  0
  -29.4783  -12.4980   18.1944 C   0  0  0  0  0  0
  -28.0015  -12.3708   18.6142 C   0  0  0  0  0  0
  -27.6631  -13.2125   19.8743 C   0  0  2  0  0  0
  -28.7145  -13.0007   20.9890 C   0  0  0  0  0  0
  -25.2597  -13.8190   20.5750 C   0  0  0  0  0  0
  -24.1870  -13.0461   20.9230 C   0  0  0  0  0  0
  -24.6428  -11.6927   20.8787 C   0  0  0  0  0  0
  -23.9097  -10.4303   21.0425 C   0  0  0  0  0  0
  -24.3651   -9.4216   21.9197 C   0  0  0  0  0  0
  -23.6318   -8.2261   22.0760 C   0  0  0  0  0  0
  -22.4287   -8.0308   21.3571 C   0  0  0  0  0  0
  -21.9943   -9.0284   20.4662 C   0  0  0  0  0  0
  -22.7271  -10.2158   20.3071 C   0  0  0  0  0  0
  -21.6853   -6.0769   22.5302 C   0  0  0  0  0  0
  -21.3993   -6.5661   23.8235 C   0  0  0  0  0  0
  -21.3660   -5.6818   24.9198 C   0  0  0  0  0  0
  -21.6054   -4.3086   24.7235 C   0  0  0  0  0  0
  -21.8814   -3.8181   23.4342 C   0  0  0  0  0  0
  -21.9174   -4.7000   22.3405 C   0  0  0  0  0  0
  -22.7885  -13.5241   21.1867 C   0  0  0  0  0  0
  -22.1649   -4.2194   21.0988 F   0  0  0  0  0  0
  -21.5625   -3.4544   25.7733 F   0  0  0  0  0  0
  -30.0458  -13.2738   20.4224 N   0  0  0  0  0  0
  -26.3056  -12.9398   20.3436 N   0  0  0  0  0  0
  -25.9370  -11.6549   20.5858 N   0  0  0  0  0  0
  -22.0512  -12.8243   22.0408 N   0  0  0  0  0  0
  -25.4298  -15.1924   20.4194 N   0  0  0  0  0  0
  -31.8888  -14.5702   20.0931 O   0  0  0  0  0  0
  -21.6654   -6.8906   21.4260 O   0  0  0  0  0  0
  -22.3579  -14.5544   20.6674 O   0  0  0  0  0  0
  -24.6129  -31.8694   23.2075 C   0  0  0  0  0  0
  -25.9034  -32.4838   23.8369 C   0  0  1  0  0  0
  -27.2465  -27.4561   20.0813 C   0  0  0  0  0  0
  -25.5935  -33.8634   24.2315 N   0  0  0  0  0  0
  -23.4004  -30.4892   21.5487 C   0  0  2  0  0  0
  -24.8482  -28.9587   20.1097 C   0  0  0  0  0  0
  -22.7410  -29.4668   22.5001 C   0  0  0  0  0  0
  -18.0268  -28.1382   22.8479 C   0  0  0  0  0  0
  -24.1492  -36.7318   23.2630 C   0  0  0  0  0  0
  -25.9257  -30.8413   21.3559 C   0  0  0  0  0  0
  -26.0055  -29.4777   20.7014 C   0  0  0  0  0  0
  -27.2086  -28.7370   20.6773 C   0  0  0  0  0  0
  -26.0732  -26.9547   19.4751 C   0  0  0  0  0  0
  -24.8777  -27.6984   19.4880 C   0  0  0  0  0  0
  -23.6060  -29.8172   20.1632 C   0  0  0  0  0  0
  -25.4114  -36.3111   24.0320 C   0  0  1  0  0  0
  -20.5862  -28.3668   23.1321 C   0  0  2  0  0  0
  -20.6747  -26.9413   22.5403 C   0  0  0  0  0  0
  -19.5734  -26.6384   21.5195 C   0  0  0  0  0  0
  -18.1916  -26.7924   22.1607 C   0  0  0  0  0  0
  -19.1524  -28.8841   23.2888 C   0  0  0  0  0  0
  -18.9443  -30.1446   23.8894 C   0  0  0  0  0  0
  -17.6449  -30.6568   24.0575 C   0  0  0  0  0  0
  -25.9055  -34.9492   23.5114 C   0  0  0  0  0  0
  -16.5340  -29.9069   23.6336 C   0  0  0  0  0  0
  -16.7267  -28.6499   23.0331 C   0  0  0  0  0  0
  -26.4471  -31.6594   25.0680 C   0  0  0  0  0  0
  -25.3748  -31.3683   26.1431 C   0  0  0  0  0  0
  -27.0291  -30.3041   24.6022 C   0  0  0  0  0  0
  -27.6052  -32.4302   25.7453 C   0  0  0  0  0  0
  -27.5577  -37.1793   24.8464 C   0  0  0  0  0  0
  -21.4146  -29.3042   22.3735 N   0  0  0  0  0  0
  -26.4296  -37.3783   23.9413 N   0  0  0  0  0  0
  -24.6637  -31.0794   22.0961 N   0  0  0  0  0  0
  -23.4188  -28.8225   23.3048 O   0  0  0  0  0  0
  -28.4266  -26.7418   20.0916 O   0  0  0  0  0  0
  -26.5579  -34.8935   22.4658 O   0  0  0  0  0  0
  -23.5327  -32.1450   23.7478 O   0  0  0  0  0  0
  -29.7381  -17.8482   21.5017 C   0  0  0  0  0  0
  -28.8376  -18.1326   22.5110 C   0  0  0  0  0  0
  -28.8686  -19.7873   20.6845 C   0  0  0  0  0  0
  -28.3310  -22.1181   20.0809 C   0  0  0  0  0  0
  -29.9294  -19.4906   24.9288 C   0  0  0  0  0  0
  -28.4761  -15.9822   23.8857 C   0  0  0  0  0  0
  -26.6541  -23.2042   18.5601 C   0  0  0  0  0  0
  -30.7483  -16.7360   21.4389 C   0  0  0  0  0  0
  -29.6914  -17.9728   24.9027 C   0  0  0  0  0  0
  -28.7855  -24.5095   19.1055 C   0  0  0  0  0  0
  -28.3340  -25.3323   20.3340 C   0  0  0  0  0  0
  -28.6429  -17.5085   23.8687 C   0  0  1  0  0  0
  -28.1522  -23.0994   18.9049 C   0  0  1  0  0  0
  -29.7134  -18.7806   20.4527 N   0  0  0  0  0  0
  -28.8130  -20.8923   19.8016 N   0  0  0  0  0  0
  -30.1389  -15.4323   21.1738 N   0  0  0  0  0  0
  -28.0193  -22.4771   21.2165 O   0  0  0  0  0  0
  -27.8802  -19.5425   22.1177 S   0  0  0  0  0  0
  -31.4540  -12.3473   19.0941 H   0  0  0  0  0  0
  -30.2869  -11.2699   19.7991 H   0  0  0  0  0  0
  -29.7065  -11.7796   17.4054 H   0  0  0  0  0  0
  -29.6530  -13.4862   17.7661 H   0  0  0  0  0  0
  -27.7981  -11.3159   18.8032 H   0  0  0  0  0  0
  -27.3485  -12.6612   17.7901 H   0  0  0  0  0  0
  -27.7081  -14.2600   19.5756 H   0  0  0  0  0  0
  -28.6813  -11.9740   21.3551 H   0  0  0  0  0  0
  -28.4970  -13.6228   21.8576 H   0  0  0  0  0  0
  -25.2789   -9.5686   22.4783 H   0  0  0  0  0  0
  -24.0028   -7.4643   22.7464 H   0  0  0  0  0  0
  -21.0879   -8.8806   19.8950 H   0  0  0  0  0  0
  -22.3739  -10.9712   19.6190 H   0  0  0  0  0  0
  -21.1974   -7.6174   23.9752 H   0  0  0  0  0  0
  -21.1495   -6.0545   25.9110 H   0  0  0  0  0  0
  -22.0581   -2.7642   23.2835 H   0  0  0  0  0  0
  -22.4096  -11.9892   22.4817 H   0  0  0  0  0  0
  -21.1117  -13.1283   22.2568 H   0  0  0  0  0  0
  -24.6589  -15.8388   20.5433 H   0  0  0  0  0  0
  -26.2808  -15.6468   20.1155 H   0  0  0  0  0  0
  -26.7113  -32.5534   23.1141 H   0  0  0  0  0  0
  -25.0181  -33.9823   25.0519 H   0  0  0  0  0  0
  -22.6883  -31.3030   21.4053 H   0  0  0  0  0  0
  -23.3751  -35.9652   23.3304 H   0  0  0  0  0  0
  -24.3585  -36.8916   22.2041 H   0  0  0  0  0  0
  -23.7243  -37.6523   23.6641 H   0  0  0  0  0  0
  -26.0345  -31.6101   20.5890 H   0  0  0  0  0  0
  -26.8148  -30.8967   21.9716 H   0  0  0  0  0  0
  -28.1061  -29.1441   21.1207 H   0  0  0  0  0  0
  -26.0796  -25.9961   18.9777 H   0  0  0  0  0  0
  -23.9946  -27.2999   19.0088 H   0  0  0  0  0  0
  -23.7068  -30.5877   19.3977 H   0  0  0  0  0  0
  -22.7337  -29.2255   19.8764 H   0  0  0  0  0  0
  -25.1279  -36.1978   25.0798 H   0  0  0  0  0  0
  -20.9931  -28.3213   24.1451 H   0  0  0  0  0  0
  -20.5655  -26.2276   23.3582 H   0  0  0  0  0  0
  -21.6618  -26.7469   22.1201 H   0  0  0  0  0  0
  -19.6919  -25.6296   21.1215 H   0  0  0  0  0  0
  -19.6668  -27.3189   20.6724 H   0  0  0  0  0  0
  -17.4189  -26.6679   21.3999 H   0  0  0  0  0  0
  -18.0344  -26.0057   22.9004 H   0  0  0  0  0  0
  -19.7919  -30.7263   24.2251 H   0  0  0  0  0  0
  -17.5001  -31.6250   24.5175 H   0  0  0  0  0  0
  -15.5340  -30.2969   23.7642 H   0  0  0  0  0  0
  -15.8671  -28.0816   22.7036 H   0  0  0  0  0  0
  -24.5928  -30.7036   25.7740 H   0  0  0  0  0  0
  -24.8940  -32.2840   26.4887 H   0  0  0  0  0  0
  -25.8103  -30.8823   27.0175 H   0  0  0  0  0  0
  -26.2800  -29.6800   24.1132 H   0  0  0  0  0  0
  -27.4145  -29.7271   25.4434 H   0  0  0  0  0  0
  -27.8599  -30.4354   23.9087 H   0  0  0  0  0  0
  -27.2674  -33.3590   26.2061 H   0  0  0  0  0  0
  -28.3850  -32.6877   25.0275 H   0  0  0  0  0  0
  -28.0748  -31.8409   26.5338 H   0  0  0  0  0  0
  -28.2590  -38.0089   24.7527 H   0  0  0  0  0  0
  -28.1064  -36.2627   24.6275 H   0  0  0  0  0  0
  -27.2304  -37.1430   25.8863 H   0  0  0  0  0  0
  -20.9320  -29.8783   21.6973 H   0  0  0  0  0  0
  -26.0195  -38.2861   24.1402 H   0  0  0  0  0  0
  -30.4259  -19.8332   24.0216 H   0  0  0  0  0  0
  -28.9929  -20.0414   25.0241 H   0  0  0  0  0  0
  -30.5607  -19.7641   25.7721 H   0  0  0  0  0  0
  -27.6844  -15.6528   23.2125 H   0  0  0  0  0  0
  -28.2186  -15.6506   24.8922 H   0  0  0  0  0  0
  -29.3968  -15.4637   23.6264 H   0  0  0  0  0  0
  -26.2357  -22.2226   18.3341 H   0  0  0  0  0  0
  -26.4908  -23.8399   17.6875 H   0  0  0  0  0  0
  -26.0704  -23.6129   19.3869 H   0  0  0  0  0  0
  -31.4934  -16.9695   20.6728 H   0  0  0  0  0  0
  -31.3045  -16.6822   22.3767 H   0  0  0  0  0  0
  -29.3758  -17.6457   25.8950 H   0  0  0  0  0  0
  -30.6493  -17.4855   24.7141 H   0  0  0  0  0  0
  -29.8724  -24.4159   19.1343 H   0  0  0  0  0  0
  -28.5806  -25.0953   18.2102 H   0  0  0  0  0  0
  -28.9959  -25.1036   21.1696 H   0  0  0  0  0  0
  -27.3414  -25.0396   20.6759 H   0  0  0  0  0  0
  -27.6887  -17.8854   24.2385 H   0  0  0  0  0  0
  -28.6552  -22.6584   18.0422 H   0  0  0  0  0  0
  -29.1769  -20.7314   18.8741 H   0  0  0  0  0  0
  -29.1835  -15.2967   21.4609 H   0  0  0  0  0  0
  1 25  1  0  0  0
  1 30  2  0  0  0
  1 86  1  0  0  0
  2  3  1  0  0  0
  2 25  1  0  0  0
  2 89  1  0  0  0
  2 90  1  0  0  0
  3  4  1  0  0  0
  3 91  1  0  0  0
  3 92  1  0  0  0
  4  5  1  0  0  0
  4 93  1  0  0  0
  4 94  1  0  0  0
  5  6  1  0  0  0
  5 26  1  0  0  0
  5 95  1  0  0  0
  6 25  1  0  0  0
  6 96  1  0  0  0
  6 97  1  0  0  0
  7  8  2  0  0  0
  7 26  1  0  0  0
  7 29  1  0  0  0
  8  9  1  0  0  0
  8 22  1  0  0  0
  9 10  1  0  0  0
  9 27  2  0  0  0
 10 11  2  0  0  0
 10 15  1  0  0  0
 11 12  1  0  0  0
 11 98  1  0  0  0
 12 13  2  0  0  0
 12 99  1  0  0  0
 13 14  1  0  0  0
 13 31  1  0  0  0
 14 15  2  0  0  0
 14100  1  0  0  0
 15101  1  0  0  0
 16 17  2  0  0  0
 16 21  1  0  0  0
 16 31  1  0  0  0
 17 18  1  0  0  0
 17102  1  0  0  0
 18 19  2  0  0  0
 18103  1  0  0  0
 19 20  1  0  0  0
 19 24  1  0  0  0
 20 21  2  0  0  0
 20104  1  0  0  0
 21 23  1  0  0  0
 22 28  1  0  0  0
 22 32  2  0  0  0
 26 27  1  0  0  0
 28105  1  0  0  0
 28106  1  0  0  0
 29107  1  0  0  0
 29108  1  0  0  0
 33 34  1  0  0  0
 33 66  1  0  0  0
 33 70  2  0  0  0
 34 36  1  0  0  0
 34 59  1  0  0  0
 34109  1  0  0  0
 35 44  2  0  0  0
 35 45  1  0  0  0
 35 68  1  0  0  0
 36 56  1  0  0  0
 36110  1  0  0  0
 37 39  1  0  0  0
 37 47  1  0  0  0
 37 66  1  0  0  0
 37111  1  0  0  0
 38 43  2  0  0  0
 38 46  1  0  0  0
 38 47  1  0  0  0
 39 64  1  0  0  0
 39 67  2  0  0  0
 40 52  1  0  0  0
 40 53  2  0  0  0
 40 58  1  0  0  0
 41112  1  0  0  0
 41113  1  0  0  0
 41114  1  0  0  0
 41 48  1  0  0  0
 42 43  1  0  0  0
 42 66  1  0  0  0
 42115  1  0  0  0
 42116  1  0  0  0
 43 44  1  0  0  0
 44117  1  0  0  0
 45 46  2  0  0  0
 45118  1  0  0  0
 46119  1  0  0  0
 47120  1  0  0  0
 47121  1  0  0  0
 48 56  1  0  0  0
 48 65  1  0  0  0
 48122  1  0  0  0
 49 50  1  0  0  0
 49 53  1  0  0  0
 49 64  1  0  0  0
 49123  1  0  0  0
 50 51  1  0  0  0
 50124  1  0  0  0
 50125  1  0  0  0
 51 52  1  0  0  0
 51126  1  0  0  0
 51127  1  0  0  0
 52128  1  0  0  0
 52129  1  0  0  0
 53 54  1  0  0  0
 54 55  2  0  0  0
 54130  1  0  0  0
 55 57  1  0  0  0
 55131  1  0  0  0
 56 69  2  0  0  0
 57 58  2  0  0  0
 57132  1  0  0  0
 58133  1  0  0  0
 59 60  1  0  0  0
 59 61  1  0  0  0
 59 62  1  0  0  0
 60134  1  0  0  0
 60135  1  0  0  0
 60136  1  0  0  0
 61137  1  0  0  0
 61138  1  0  0  0
 61139  1  0  0  0
 62140  1  0  0  0
 62141  1  0  0  0
 62142  1  0  0  0
 63 65  1  0  0  0
 63143  1  0  0  0
 63144  1  0  0  0
 63145  1  0  0  0
 64146  1  0  0  0
 65147  1  0  0  0
 68 81  1  0  0  0
 71 72  2  0  0  0
 71 78  1  0  0  0
 71 84  1  0  0  0
 72 82  1  0  0  0
 72 88  1  0  0  0
 73 84  2  0  0  0
 73 85  1  0  0  0
 73 88  1  0  0  0
 74 83  1  0  0  0
 74 85  1  0  0  0
 74 87  2  0  0  0
 75 79  1  0  0  0
 75148  1  0  0  0
 75149  1  0  0  0
 75150  1  0  0  0
 76151  1  0  0  0
 76152  1  0  0  0
 76153  1  0  0  0
 76 82  1  0  0  0
 77154  1  0  0  0
 77155  1  0  0  0
 77156  1  0  0  0
 77 83  1  0  0  0
 78 86  1  0  0  0
 78157  1  0  0  0
 78158  1  0  0  0
 79 82  1  0  0  0
 79159  1  0  0  0
 79160  1  0  0  0
 80 81  1  0  0  0
 80 83  1  0  0  0
 80161  1  0  0  0
 80162  1  0  0  0
 81163  1  0  0  0
 81164  1  0  0  0
 82165  1  0  0  0
 83166  1  0  0  0
 85167  1  0  0  0
 86168  1  0  0  0
M  ISO  4   1 100  68 101  81 101  86 100
M  END
> <chiral flag>
0

> <version>
0

> <s_m_source_file>
/data/baiqing/PycharmProjects/Reinvent-master-3.2/result/LINK_invent/BTK/process_docking_weight1_custom_product_contain_oxygen_bond_distance_aromatic_linkinvent_7_9_3/rearranged_h_0190.sdf

> <i_m_source_file_index>
49

> <r_mmod_Potential_Energy-OPLS-2005>
-288.318023681641

> <r_mmod_Stretch_Energy-OPLS-2005>
33.8478965759277

> <r_mmod_Bend_Energy-OPLS-2005>
106.30632019043

> <r_mmod_Torsional_Energy-OPLS-2005>
209.817947387695

> <r_mmod_Improper_Torsional_Energy-OPLS-2005>
2.75391817092896

> <r_mmod_Van_der_Waal_Energy-OPLS-2005>
127.806587219238

> <r_mmod_Electrostatic_Energy-OPLS-2005>
-561.143310546875

> <r_mmod_Solvation_Energy-OPLS-2005>
-219.513900756836

> <b_mmod_Minimization_Converged-OPLS-2005>
0

> <r_mmod_RMS_Derivative-OPLS-2005>
3.80116868019104

$$$$
49
                    3D
 Structure written by MMmdl.
160168  0  0  1  0            999 V2000
  -30.7048  -14.5242   20.6118 C   0  0  0  0  0  0
  -30.4266  -12.3561   19.4305 C   0  0  0  0  0  0
  -29.5008  -12.5382   18.2092 C   0  0  0  0  0  0
  -28.0245  -12.3727   18.6179 C   0  0  0  0  0  0
  -27.6597  -13.2171   19.8680 C   0  0  2  0  0  0
  -28.7009  -13.0267   20.9970 C   0  0  0  0  0  0
  -25.2594  -13.8187   20.5694 C   0  0  0  0  0  0
  -24.1850  -13.0459   20.9159 C   0  0  0  0  0  0
  -24.6403  -11.6909   20.8732 C   0  0  0  0  0  0
  -23.9060  -10.4288   21.0406 C   0  0  0  0  0  0
  -24.3613   -9.4207   21.9179 C   0  0  0  0  0  0
  -23.6296   -8.2245   22.0757 C   0  0  0  0  0  0
  -22.4273   -8.0275   21.3547 C   0  0  0  0  0  0
  -21.9902   -9.0257   20.4658 C   0  0  0  0  0  0
  -22.7233  -10.2129   20.3061 C   0  0  0  0  0  0
  -21.6858   -6.0732   22.5285 C   0  0  0  0  0  0
  -21.4021   -6.5641   23.8223 C   0  0  0  0  0  0
  -21.3665   -5.6784   24.9187 C   0  0  0  0  0  0
  -21.6049   -4.3046   24.7229 C   0  0  0  0  0  0
  -21.8825   -3.8146   23.4351 C   0  0  0  0  0  0
  -21.9188   -4.6959   22.3411 C   0  0  0  0  0  0
  -22.7868  -13.5261   21.1837 C   0  0  0  0  0  0
  -22.1661   -4.2147   21.0988 F   0  0  0  0  0  0
  -21.5621   -3.4531   25.7744 F   0  0  0  0  0  0
  -30.0290  -13.3499   20.4456 N   0  0  0  0  0  0
  -26.3029  -12.9379   20.3342 N   0  0  0  0  0  0
  -25.9333  -11.6519   20.5725 N   0  0  0  0  0  0
  -22.0485  -12.8280   22.0386 N   0  0  0  0  0  0
  -25.4345  -15.1915   20.4140 N   0  0  0  0  0  0
  -31.8105  -14.7134   20.0973 O   0  0  0  0  0  0
  -21.6639   -6.8873   21.4242 O   0  0  0  0  0  0
  -22.3577  -14.5573   20.6659 O   0  0  0  0  0  0
  -24.6249  -31.8699   23.2076 C   0  0  0  0  0  0
  -25.9136  -32.4806   23.8385 C   0  0  1  0  0  0
  -27.2138  -27.3837   20.0840 C   0  0  0  0  0  0
  -25.5995  -33.8607   24.2334 N   0  0  0  0  0  0
  -23.4122  -30.4997   21.5492 C   0  0  2  0  0  0
  -24.8508  -28.9657   20.1133 C   0  0  0  0  0  0
  -22.7491  -29.4698   22.4931 C   0  0  0  0  0  0
  -18.0328  -28.1264   22.8650 C   0  0  0  0  0  0
  -24.1489  -36.7294   23.2620 C   0  0  0  0  0  0
  -25.9488  -30.8177   21.3686 C   0  0  0  0  0  0
  -26.0187  -29.4523   20.7109 C   0  0  0  0  0  0
  -27.2054  -28.6691   20.6917 C   0  0  0  0  0  0
  -26.0181  -26.9406   19.4679 C   0  0  0  0  0  0
  -24.8459  -27.7090   19.4936 C   0  0  0  0  0  0
  -23.6212  -29.8432   20.1630 C   0  0  0  0  0  0
  -25.4119  -36.3100   24.0324 C   0  0  1  0  0  0
  -20.5914  -28.3720   23.1213 C   0  0  2  0  0  0
  -20.6943  -26.9511   22.5163 C   0  0  0  0  0  0
  -19.5665  -26.6230   21.5339 C   0  0  0  0  0  0
  -18.2042  -26.7628   22.2146 C   0  0  0  0  0  0
  -19.1559  -28.8853   23.2836 C   0  0  0  0  0  0
  -18.9445  -30.1540   23.8682 C   0  0  0  0  0  0
  -17.6424  -30.6630   24.0335 C   0  0  0  0  0  0
  -25.9073  -34.9464   23.5121 C   0  0  0  0  0  0
  -16.5335  -29.9018   23.6261 C   0  0  0  0  0  0
  -16.7292  -28.6345   23.0483 C   0  0  0  0  0  0
  -26.4521  -31.6580   25.0714 C   0  0  0  0  0  0
  -25.3781  -31.3722   26.1461 C   0  0  0  0  0  0
  -27.0321  -30.3011   24.6091 C   0  0  0  0  0  0
  -27.6094  -32.4293   25.7502 C   0  0  0  0  0  0
  -27.5586  -37.1811   24.8461 C   0  0  0  0  0  0
  -21.4200  -29.3178   22.3735 N   0  0  0  0  0  0
  -26.4295  -37.3801   23.9412 N   0  0  0  0  0  0
  -24.6803  -31.0777   22.0992 N   0  0  0  0  0  0
  -23.4250  -28.8158   23.2923 O   0  0  0  0  0  0
  -28.3515  -26.5789   20.1058 O   0  0  0  0  0  0
  -26.5586  -34.8911   22.4644 O   0  0  0  0  0  0
  -23.5436  -32.1461   23.7462 O   0  0  0  0  0  0
  -28.6557  -18.2681   20.7018 C   0  0  0  0  0  0
  -28.3074  -19.6486   20.4586 C   0  0  0  0  0  0
  -29.8880  -18.0725   21.2824 C   0  0  0  0  0  0
  -29.3149  -20.5327   20.7968 C   0  0  0  0  0  0
  -29.1060  -22.7512   19.7484 C   0  0  0  0  0  0
  -26.9455  -20.0614   19.9660 C   0  0  0  0  0  0
  -32.0218  -16.8858   22.1529 C   0  0  0  0  0  0
  -27.6845  -24.8752   21.7216 C   0  0  0  0  0  0
  -29.3945  -24.2657   19.9425 C   0  0  0  0  0  0
  -30.5048  -16.7957   21.8742 C   0  0  2  0  0  0
  -28.1470  -25.1401   20.2761 C   0  0  1  0  0  0
  -29.3493  -21.9052   20.7799 N   0  0  0  0  0  0
  -30.0592  -15.4857   21.3202 N   0  0  0  0  0  0
  -28.6989  -22.3733   18.6478 O   0  0  0  0  0  0
  -30.6626  -19.6388   21.4773 S   0  0  0  0  0  0
  -31.4719  -12.4622   19.1324 H   0  0  0  0  0  0
  -30.3326  -11.3479   19.8361 H   0  0  0  0  0  0
  -29.7577  -11.8263   17.4228 H   0  0  0  0  0  0
  -29.6523  -13.5313   17.7819 H   0  0  0  0  0  0
  -27.8560  -11.3152   18.8243 H   0  0  0  0  0  0
  -27.3702  -12.6276   17.7837 H   0  0  0  0  0  0
  -27.6935  -14.2612   19.5558 H   0  0  0  0  0  0
  -28.6952  -11.9986   21.3645 H   0  0  0  0  0  0
  -28.4379  -13.6409   21.8598 H   0  0  0  0  0  0
  -25.2756   -9.5704   22.4733 H   0  0  0  0  0  0
  -24.0018   -7.4654   22.7489 H   0  0  0  0  0  0
  -21.0821   -8.8791   19.8975 H   0  0  0  0  0  0
  -22.3707  -10.9666   19.6161 H   0  0  0  0  0  0
  -21.2026   -7.6142   23.9743 H   0  0  0  0  0  0
  -21.1478   -6.0501   25.9090 H   0  0  0  0  0  0
  -22.0590   -2.7599   23.2857 H   0  0  0  0  0  0
  -22.4069  -11.9943   22.4817 H   0  0  0  0  0  0
  -21.1112  -13.1383   22.2564 H   0  0  0  0  0  0
  -24.6723  -15.8506   20.5278 H   0  0  0  0  0  0
  -26.2930  -15.6241   20.1040 H   0  0  0  0  0  0
  -26.7189  -32.5489   23.1129 H   0  0  0  0  0  0
  -25.0218  -33.9765   25.0534 H   0  0  0  0  0  0
  -22.7032  -31.3198   21.4151 H   0  0  0  0  0  0
  -23.3738  -35.9639   23.3288 H   0  0  0  0  0  0
  -24.3572  -36.8906   22.2027 H   0  0  0  0  0  0
  -23.7247  -37.6497   23.6641 H   0  0  0  0  0  0
  -26.0740  -31.5819   20.6000 H   0  0  0  0  0  0
  -26.8312  -30.8648   21.9931 H   0  0  0  0  0  0
  -28.1059  -29.0387   21.1596 H   0  0  0  0  0  0
  -25.9440  -26.0014   18.9440 H   0  0  0  0  0  0
  -23.9460  -27.3290   19.0285 H   0  0  0  0  0  0
  -23.7397  -30.6224   19.4098 H   0  0  0  0  0  0
  -22.7405  -29.2759   19.8586 H   0  0  0  0  0  0
  -25.1283  -36.1951   25.0814 H   0  0  0  0  0  0
  -21.0008  -28.3231   24.1322 H   0  0  0  0  0  0
  -20.6437  -26.2291   23.3325 H   0  0  0  0  0  0
  -21.6681  -26.7895   22.0544 H   0  0  0  0  0  0
  -19.6848  -25.6071   21.1525 H   0  0  0  0  0  0
  -19.6227  -27.2893   20.6727 H   0  0  0  0  0  0
  -17.4004  -26.5771   21.5004 H   0  0  0  0  0  0
  -18.1037  -26.0076   22.9951 H   0  0  0  0  0  0
  -19.7930  -30.7463   24.1810 H   0  0  0  0  0  0
  -17.4970  -31.6408   24.4704 H   0  0  0  0  0  0
  -15.5309  -30.2868   23.7544 H   0  0  0  0  0  0
  -15.8714  -28.0540   22.7380 H   0  0  0  0  0  0
  -24.5948  -30.7070   25.7807 H   0  0  0  0  0  0
  -24.8964  -32.2883   26.4898 H   0  0  0  0  0  0
  -25.8124  -30.8902   27.0232 H   0  0  0  0  0  0
  -26.2842  -29.6796   24.1145 H   0  0  0  0  0  0
  -27.4068  -29.7236   25.4548 H   0  0  0  0  0  0
  -27.8710  -30.4268   23.9244 H   0  0  0  0  0  0
  -27.2708  -33.3599   26.2079 H   0  0  0  0  0  0
  -28.3927  -32.6854   25.0352 H   0  0  0  0  0  0
  -28.0734  -31.8403   26.5428 H   0  0  0  0  0  0
  -28.2600  -38.0114   24.7517 H   0  0  0  0  0  0
  -28.1090  -36.2642   24.6278 H   0  0  0  0  0  0
  -27.2305  -37.1445   25.8867 H   0  0  0  0  0  0
  -20.9368  -29.9116   21.7152 H   0  0  0  0  0  0
  -26.0164  -38.2868   24.1440 H   0  0  0  0  0  0
  -27.9553  -17.4705   20.5077 H   0  0  0  0  0  0
  -26.3527  -19.2122   19.6272 H   0  0  0  0  0  0
  -26.9904  -20.7491   19.1274 H   0  0  0  0  0  0
  -26.3817  -20.5611   20.7542 H   0  0  0  0  0  0
  -32.2321  -17.6397   22.9116 H   0  0  0  0  0  0
  -32.5896  -17.1479   21.2602 H   0  0  0  0  0  0
  -32.4186  -15.9481   22.5463 H   0  0  0  0  0  0
  -27.3388  -23.8485   21.8421 H   0  0  0  0  0  0
  -26.8608  -25.5274   22.0148 H   0  0  0  0  0  0
  -28.5014  -25.0318   22.4266 H   0  0  0  0  0  0
  -29.8272  -24.6224   19.0057 H   0  0  0  0  0  0
  -30.1714  -24.3891   20.6974 H   0  0  0  0  0  0
  -30.0751  -16.7444   22.8744 H   0  0  0  0  0  0
  -27.3797  -24.7730   19.6043 H   0  0  0  0  0  0
  -29.7389  -22.3394   21.6061 H   0  0  0  0  0  0
  -29.1577  -15.1925   21.6566 H   0  0  0  0  0  0
  1 25  1  0  0  0
  1 30  2  0  0  0
  1 83  1  0  0  0
  2  3  1  0  0  0
  2 25  1  0  0  0
  2 86  1  0  0  0
  2 87  1  0  0  0
  3  4  1  0  0  0
  3 88  1  0  0  0
  3 89  1  0  0  0
  4  5  1  0  0  0
  4 90  1  0  0  0
  4 91  1  0  0  0
  5  6  1  0  0  0
  5 26  1  0  0  0
  5 92  1  0  0  0
  6 25  1  0  0  0
  6 93  1  0  0  0
  6 94  1  0  0  0
  7  8  2  0  0  0
  7 26  1  0  0  0
  7 29  1  0  0  0
  8  9  1  0  0  0
  8 22  1  0  0  0
  9 10  1  0  0  0
  9 27  2  0  0  0
 10 11  2  0  0  0
 10 15  1  0  0  0
 11 12  1  0  0  0
 11 95  1  0  0  0
 12 13  2  0  0  0
 12 96  1  0  0  0
 13 14  1  0  0  0
 13 31  1  0  0  0
 14 15  2  0  0  0
 14 97  1  0  0  0
 15 98  1  0  0  0
 16 17  2  0  0  0
 16 21  1  0  0  0
 16 31  1  0  0  0
 17 18  1  0  0  0
 17 99  1  0  0  0
 18 19  2  0  0  0
 18100  1  0  0  0
 19 20  1  0  0  0
 19 24  1  0  0  0
 20 21  2  0  0  0
 20101  1  0  0  0
 21 23  1  0  0  0
 22 28  1  0  0  0
 22 32  2  0  0  0
 26 27  1  0  0  0
 28102  1  0  0  0
 28103  1  0  0  0
 29104  1  0  0  0
 29105  1  0  0  0
 33 34  1  0  0  0
 33 66  1  0  0  0
 33 70  2  0  0  0
 34 36  1  0  0  0
 34 59  1  0  0  0
 34106  1  0  0  0
 35 44  2  0  0  0
 35 45  1  0  0  0
 35 68  1  0  0  0
 36 56  1  0  0  0
 36107  1  0  0  0
 37 39  1  0  0  0
 37 47  1  0  0  0
 37 66  1  0  0  0
 37108  1  0  0  0
 38 43  2  0  0  0
 38 46  1  0  0  0
 38 47  1  0  0  0
 39 64  1  0  0  0
 39 67  2  0  0  0
 40 52  1  0  0  0
 40 53  2  0  0  0
 40 58  1  0  0  0
 41109  1  0  0  0
 41110  1  0  0  0
 41111  1  0  0  0
 41 48  1  0  0  0
 42 43  1  0  0  0
 42 66  1  0  0  0
 42112  1  0  0  0
 42113  1  0  0  0
 43 44  1  0  0  0
 44114  1  0  0  0
 45 46  2  0  0  0
 45115  1  0  0  0
 46116  1  0  0  0
 47117  1  0  0  0
 47118  1  0  0  0
 48 56  1  0  0  0
 48 65  1  0  0  0
 48119  1  0  0  0
 49 50  1  0  0  0
 49 53  1  0  0  0
 49 64  1  0  0  0
 49120  1  0  0  0
 50 51  1  0  0  0
 50121  1  0  0  0
 50122  1  0  0  0
 51 52  1  0  0  0
 51123  1  0  0  0
 51124  1  0  0  0
 52125  1  0  0  0
 52126  1  0  0  0
 53 54  1  0  0  0
 54 55  2  0  0  0
 54127  1  0  0  0
 55 57  1  0  0  0
 55128  1  0  0  0
 56 69  2  0  0  0
 57 58  2  0  0  0
 57129  1  0  0  0
 58130  1  0  0  0
 59 60  1  0  0  0
 59 61  1  0  0  0
 59 62  1  0  0  0
 60131  1  0  0  0
 60132  1  0  0  0
 60133  1  0  0  0
 61134  1  0  0  0
 61135  1  0  0  0
 61136  1  0  0  0
 62137  1  0  0  0
 62138  1  0  0  0
 62139  1  0  0  0
 63 65  1  0  0  0
 63140  1  0  0  0
 63141  1  0  0  0
 63142  1  0  0  0
 64143  1  0  0  0
 65144  1  0  0  0
 68 81  1  0  0  0
 71 72  1  0  0  0
 71 73  2  0  0  0
 71145  1  0  0  0
 72 74  2  0  0  0
 72 76  1  0  0  0
 73 80  1  0  0  0
 73 85  1  0  0  0
 74 82  1  0  0  0
 74 85  1  0  0  0
 75 79  1  0  0  0
 75 82  1  0  0  0
 75 84  2  0  0  0
 76146  1  0  0  0
 76147  1  0  0  0
 76148  1  0  0  0
 77149  1  0  0  0
 77150  1  0  0  0
 77151  1  0  0  0
 77 80  1  0  0  0
 78152  1  0  0  0
 78153  1  0  0  0
 78154  1  0  0  0
 78 81  1  0  0  0
 79 81  1  0  0  0
 79155  1  0  0  0
 79156  1  0  0  0
 80 83  1  0  0  0
 80157  1  0  0  0
 81158  1  0  0  0
 82159  1  0  0  0
 83160  1  0  0  0
M  ISO  4   1 100  68 101  81 101  83 100
M  END
> <chiral flag>
0

> <version>
0

> <s_m_source_file>
/data/baiqing/PycharmProjects/Reinvent-master-3.2/result/LINK_invent/BTK/process_docking_weight1_custom_product_contain_oxygen_bond_distance_aromatic_linkinvent_7_9_3/rearranged_h_0190.sdf

> <i_m_source_file_index>
50

> <r_mmod_Potential_Energy-OPLS-2005>
-112.522415161133

> <r_mmod_Stretch_Energy-OPLS-2005>
50.2497787475586

> <r_mmod_Bend_Energy-OPLS-2005>
132.600479125977

> <r_mmod_Torsional_Energy-OPLS-2005>
206.151901245117

> <r_mmod_Improper_Torsional_Energy-OPLS-2005>
3.52283549308777

> <r_mmod_Van_der_Waal_Energy-OPLS-2005>
134.226654052734

> <r_mmod_Electrostatic_Energy-OPLS-2005>
-433.803009033203

> <r_mmod_Solvation_Energy-OPLS-2005>
-228.184188842773

> <b_mmod_Minimization_Converged-OPLS-2005>
0

> <r_mmod_RMS_Derivative-OPLS-2005>
4.96798086166382

$$$$
50
                    3D
 Structure written by MMmdl.
167175  0  0  1  0            999 V2000
  -30.7749  -14.3934   20.7184 C   0  0  0  0  0  0
  -30.4217  -12.3212   19.4070 C   0  0  0  0  0  0
  -29.4921  -12.5435   18.1991 C   0  0  0  0  0  0
  -28.0206  -12.3718   18.6161 C   0  0  0  0  0  0
  -27.6639  -13.2097   19.8701 C   0  0  2  0  0  0
  -28.6958  -12.9845   20.9972 C   0  0  0  0  0  0
  -25.2599  -13.8161   20.5682 C   0  0  0  0  0  0
  -24.1843  -13.0444   20.9182 C   0  0  0  0  0  0
  -24.6387  -11.6912   20.8694 C   0  0  0  0  0  0
  -23.9037  -10.4297   21.0366 C   0  0  0  0  0  0
  -24.3585   -9.4221   21.9154 C   0  0  0  0  0  0
  -23.6272   -8.2247   22.0741 C   0  0  0  0  0  0
  -22.4260   -8.0265   21.3533 C   0  0  0  0  0  0
  -21.9877   -9.0237   20.4639 C   0  0  0  0  0  0
  -22.7200  -10.2125   20.3029 C   0  0  0  0  0  0
  -21.6856   -6.0708   22.5274 C   0  0  0  0  0  0
  -21.4020   -6.5614   23.8208 C   0  0  0  0  0  0
  -21.3667   -5.6777   24.9172 C   0  0  0  0  0  0
  -21.6045   -4.3035   24.7236 C   0  0  0  0  0  0
  -21.8822   -3.8120   23.4355 C   0  0  0  0  0  0
  -21.9200   -4.6934   22.3414 C   0  0  0  0  0  0
  -22.7862  -13.5248   21.1847 C   0  0  0  0  0  0
  -22.1670   -4.2117   21.0990 F   0  0  0  0  0  0
  -21.5625   -3.4526   25.7742 F   0  0  0  0  0  0
  -30.0505  -13.2628   20.4779 N   0  0  0  0  0  0
  -26.3023  -12.9349   20.3291 N   0  0  0  0  0  0
  -25.9305  -11.6498   20.5668 N   0  0  0  0  0  0
  -22.0491  -12.8243   22.0395 N   0  0  0  0  0  0
  -25.4333  -15.1883   20.4142 N   0  0  0  0  0  0
  -31.7177  -14.7327   19.9957 O   0  0  0  0  0  0
  -21.6639   -6.8844   21.4232 O   0  0  0  0  0  0
  -22.3550  -14.5557   20.6703 O   0  0  0  0  0  0
  -24.6157  -31.8684   23.2125 C   0  0  0  0  0  0
  -25.9053  -32.4818   23.8411 C   0  0  1  0  0  0
  -27.2247  -27.4261   20.0844 C   0  0  0  0  0  0
  -25.5903  -33.8615   24.2332 N   0  0  0  0  0  0
  -23.4027  -30.4957   21.5537 C   0  0  2  0  0  0
  -24.8442  -28.9655   20.1161 C   0  0  0  0  0  0
  -22.7412  -29.4666   22.4994 C   0  0  0  0  0  0
  -18.0268  -28.1367   22.8486 C   0  0  0  0  0  0
  -24.1490  -36.7316   23.2637 C   0  0  0  0  0  0
  -25.9350  -30.8302   21.3693 C   0  0  0  0  0  0
  -26.0089  -29.4664   20.7103 C   0  0  0  0  0  0
  -27.2013  -28.7046   20.6912 C   0  0  0  0  0  0
  -26.0350  -26.9465   19.4849 C   0  0  0  0  0  0
  -24.8523  -27.7042   19.5034 C   0  0  0  0  0  0
  -23.6095  -29.8339   20.1671 C   0  0  0  0  0  0
  -25.4106  -36.3103   24.0336 C   0  0  1  0  0  0
  -20.5856  -28.3659   23.1314 C   0  0  2  0  0  0
  -20.6759  -26.9395   22.5419 C   0  0  0  0  0  0
  -19.5743  -26.6375   21.5209 C   0  0  0  0  0  0
  -18.1917  -26.7918   22.1610 C   0  0  0  0  0  0
  -19.1516  -28.8830   23.2898 C   0  0  0  0  0  0
  -18.9447  -30.1438   23.8913 C   0  0  0  0  0  0
  -17.6449  -30.6579   24.0558 C   0  0  0  0  0  0
  -25.9034  -34.9468   23.5126 C   0  0  0  0  0  0
  -16.5342  -29.9077   23.6322 C   0  0  0  0  0  0
  -16.7256  -28.6490   23.0348 C   0  0  0  0  0  0
  -26.4480  -31.6600   25.0746 C   0  0  0  0  0  0
  -25.3747  -31.3725   26.1503 C   0  0  0  0  0  0
  -27.0302  -30.3028   24.6140 C   0  0  0  0  0  0
  -27.6061  -32.4322   25.7495 C   0  0  0  0  0  0
  -27.5580  -37.1810   24.8457 C   0  0  0  0  0  0
  -21.4138  -29.3038   22.3734 N   0  0  0  0  0  0
  -26.4290  -37.3790   23.9404 N   0  0  0  0  0  0
  -24.6695  -31.0789   22.1025 N   0  0  0  0  0  0
  -23.4181  -28.8188   23.3023 O   0  0  0  0  0  0
  -28.3923  -26.6828   20.0982 O   0  0  0  0  0  0
  -26.5596  -34.8921   22.4687 O   0  0  0  0  0  0
  -23.5351  -32.1442   23.7517 O   0  0  0  0  0  0
  -28.0244  -18.5574   21.7640 C   0  0  0  0  0  0
  -29.1804  -18.5382   21.0162 C   0  0  0  0  0  0
  -28.7151  -20.7860   21.0299 C   0  0  0  0  0  0
  -29.0187  -22.6888   18.3773 C   0  0  0  0  0  0
  -30.3850  -16.4511   21.8928 C   0  0  0  0  0  0
  -29.3746  -22.6480   15.8312 C   0  0  0  0  0  0
  -30.0002  -24.7266   21.6128 C   0  0  0  0  0  0
  -30.6751  -14.3899   23.1328 C   0  0  0  0  0  0
  -29.9977  -17.3015   20.6482 C   0  0  0  0  0  0
  -29.9945  -22.9001   17.2176 C   0  0  0  0  0  0
  -28.2731  -25.2738   19.8270 C   0  0  0  0  0  0
  -29.5474  -22.9539   19.8043 C   0  0  1  0  0  0
  -29.5711  -24.4871   20.1516 C   0  0  2  0  0  0
  -29.5402  -19.8319   20.5724 N   0  0  0  0  0  0
  -28.8122  -22.1500   20.7824 N   0  0  0  0  0  0
  -30.4654  -15.0866   21.8454 N   0  0  0  0  0  0
  -27.8519  -22.3445   18.1587 O   0  0  0  0  0  0
  -30.5712  -17.0527   22.9607 O   0  0  0  0  0  0
  -27.4021  -20.1658   22.0099 S   0  0  0  0  0  0
  -31.4659  -12.4270   19.1043 H   0  0  0  0  0  0
  -30.3220  -11.2985   19.7730 H   0  0  0  0  0  0
  -29.7397  -11.8458   17.3972 H   0  0  0  0  0  0
  -29.6502  -13.5433   17.7902 H   0  0  0  0  0  0
  -27.8539  -11.3136   18.8207 H   0  0  0  0  0  0
  -27.3601  -12.6311   17.7879 H   0  0  0  0  0  0
  -27.7148  -14.2595   19.5786 H   0  0  0  0  0  0
  -28.6503  -11.9552   21.3564 H   0  0  0  0  0  0
  -28.4233  -13.6044   21.8512 H   0  0  0  0  0  0
  -25.2736   -9.5706   22.4719 H   0  0  0  0  0  0
  -23.9995   -7.4643   22.7466 H   0  0  0  0  0  0
  -21.0803   -8.8748   19.8960 H   0  0  0  0  0  0
  -22.3647  -10.9641   19.6122 H   0  0  0  0  0  0
  -21.2011   -7.6127   23.9693 H   0  0  0  0  0  0
  -21.1484   -6.0509   25.9072 H   0  0  0  0  0  0
  -22.0592   -2.7582   23.2872 H   0  0  0  0  0  0
  -22.4094  -11.9926   22.4827 H   0  0  0  0  0  0
  -21.1096  -13.1272   22.2563 H   0  0  0  0  0  0
  -24.6658  -15.8411   20.5208 H   0  0  0  0  0  0
  -26.2825  -15.6244   20.0790 H   0  0  0  0  0  0
  -26.7118  -32.5523   23.1169 H   0  0  0  0  0  0
  -25.0069  -33.9784   25.0486 H   0  0  0  0  0  0
  -22.6914  -31.3127   21.4176 H   0  0  0  0  0  0
  -23.3740  -35.9662   23.3308 H   0  0  0  0  0  0
  -24.3595  -36.8919   22.2050 H   0  0  0  0  0  0
  -23.7261  -37.6530   23.6654 H   0  0  0  0  0  0
  -26.0567  -31.6000   20.6069 H   0  0  0  0  0  0
  -26.8193  -30.8749   21.9933 H   0  0  0  0  0  0
  -28.1004  -29.0884   21.1538 H   0  0  0  0  0  0
  -25.9865  -25.9866   18.9929 H   0  0  0  0  0  0
  -23.9557  -27.3112   19.0442 H   0  0  0  0  0  0
  -23.7212  -30.6101   19.4094 H   0  0  0  0  0  0
  -22.7316  -29.2576   19.8697 H   0  0  0  0  0  0
  -25.1280  -36.1969   25.0829 H   0  0  0  0  0  0
  -20.9944  -28.3222   24.1437 H   0  0  0  0  0  0
  -20.5657  -26.2258   23.3603 H   0  0  0  0  0  0
  -21.6633  -26.7448   22.1217 H   0  0  0  0  0  0
  -19.6911  -25.6290   21.1234 H   0  0  0  0  0  0
  -19.6685  -27.3185   20.6736 H   0  0  0  0  0  0
  -17.4192  -26.6669   21.4004 H   0  0  0  0  0  0
  -18.0316  -26.0056   22.9000 H   0  0  0  0  0  0
  -19.7927  -30.7244   24.2288 H   0  0  0  0  0  0
  -17.5012  -31.6267   24.5148 H   0  0  0  0  0  0
  -15.5340  -30.2982   23.7653 H   0  0  0  0  0  0
  -15.8649  -28.0818   22.7062 H   0  0  0  0  0  0
  -24.5872  -30.7128   25.7848 H   0  0  0  0  0  0
  -24.9001  -32.2898   26.5000 H   0  0  0  0  0  0
  -25.8102  -30.8849   27.0234 H   0  0  0  0  0  0
  -26.2848  -29.6801   24.1182 H   0  0  0  0  0  0
  -27.4030  -29.7266   25.4620 H   0  0  0  0  0  0
  -27.8709  -30.4323   23.9320 H   0  0  0  0  0  0
  -27.2681  -33.3603   26.2121 H   0  0  0  0  0  0
  -28.3838  -32.6914   25.0299 H   0  0  0  0  0  0
  -28.0770  -31.8419   26.5371 H   0  0  0  0  0  0
  -28.2594  -38.0107   24.7500 H   0  0  0  0  0  0
  -28.1071  -36.2636   24.6273 H   0  0  0  0  0  0
  -27.2313  -37.1463   25.8865 H   0  0  0  0  0  0
  -20.9285  -29.8768   21.6971 H   0  0  0  0  0  0
  -26.0174  -38.2868   24.1393 H   0  0  0  0  0  0
  -27.5112  -17.7214   22.2206 H   0  0  0  0  0  0
  -30.1033  -22.8264   15.0406 H   0  0  0  0  0  0
  -28.5241  -23.3063   15.6499 H   0  0  0  0  0  0
  -29.0255  -21.6189   15.7344 H   0  0  0  0  0  0
  -30.1613  -25.7873   21.8090 H   0  0  0  0  0  0
  -30.9307  -24.2066   21.8402 H   0  0  0  0  0  0
  -29.2429  -24.3788   22.3164 H   0  0  0  0  0  0
  -29.9129  -14.6781   23.8596 H   0  0  0  0  0  0
  -31.6498  -14.6476   23.5507 H   0  0  0  0  0  0
  -30.6415  -13.3028   23.0552 H   0  0  0  0  0  0
  -30.9144  -17.5828   20.1290 H   0  0  0  0  0  0
  -29.4230  -16.6951   19.9487 H   0  0  0  0  0  0
  -30.8479  -22.2392   17.3653 H   0  0  0  0  0  0
  -30.3744  -23.9197   17.2681 H   0  0  0  0  0  0
  -27.4526  -24.8447   20.4044 H   0  0  0  0  0  0
  -28.0297  -25.1620   18.7704 H   0  0  0  0  0  0
  -30.5772  -22.5976   19.8425 H   0  0  0  0  0  0
  -30.3498  -24.9276   19.5259 H   0  0  0  0  0  0
  -28.0620  -22.6631   21.2267 H   0  0  0  0  0  0
  1 25  1  0  0  0
  1 30  2  0  0  0
  1 86  1  0  0  0
  2  3  1  0  0  0
  2 25  1  0  0  0
  2 90  1  0  0  0
  2 91  1  0  0  0
  3  4  1  0  0  0
  3 92  1  0  0  0
  3 93  1  0  0  0
  4  5  1  0  0  0
  4 94  1  0  0  0
  4 95  1  0  0  0
  5  6  1  0  0  0
  5 26  1  0  0  0
  5 96  1  0  0  0
  6 25  1  0  0  0
  6 97  1  0  0  0
  6 98  1  0  0  0
  7  8  2  0  0  0
  7 26  1  0  0  0
  7 29  1  0  0  0
  8  9  1  0  0  0
  8 22  1  0  0  0
  9 10  1  0  0  0
  9 27  2  0  0  0
 10 11  2  0  0  0
 10 15  1  0  0  0
 11 12  1  0  0  0
 11 99  1  0  0  0
 12 13  2  0  0  0
 12100  1  0  0  0
 13 14  1  0  0  0
 13 31  1  0  0  0
 14 15  2  0  0  0
 14101  1  0  0  0
 15102  1  0  0  0
 16 17  2  0  0  0
 16 21  1  0  0  0
 16 31  1  0  0  0
 17 18  1  0  0  0
 17103  1  0  0  0
 18 19  2  0  0  0
 18104  1  0  0  0
 19 20  1  0  0  0
 19 24  1  0  0  0
 20 21  2  0  0  0
 20105  1  0  0  0
 21 23  1  0  0  0
 22 28  1  0  0  0
 22 32  2  0  0  0
 26 27  1  0  0  0
 28106  1  0  0  0
 28107  1  0  0  0
 29108  1  0  0  0
 29109  1  0  0  0
 33 34  1  0  0  0
 33 66  1  0  0  0
 33 70  2  0  0  0
 34 36  1  0  0  0
 34 59  1  0  0  0
 34110  1  0  0  0
 35 44  2  0  0  0
 35 45  1  0  0  0
 35 68  1  0  0  0
 36 56  1  0  0  0
 36111  1  0  0  0
 37 39  1  0  0  0
 37 47  1  0  0  0
 37 66  1  0  0  0
 37112  1  0  0  0
 38 43  2  0  0  0
 38 46  1  0  0  0
 38 47  1  0  0  0
 39 64  1  0  0  0
 39 67  2  0  0  0
 40 52  1  0  0  0
 40 53  2  0  0  0
 40 58  1  0  0  0
 41113  1  0  0  0
 41114  1  0  0  0
 41115  1  0  0  0
 41 48  1  0  0  0
 42 43  1  0  0  0
 42 66  1  0  0  0
 42116  1  0  0  0
 42117  1  0  0  0
 43 44  1  0  0  0
 44118  1  0  0  0
 45 46  2  0  0  0
 45119  1  0  0  0
 46120  1  0  0  0
 47121  1  0  0  0
 47122  1  0  0  0
 48 56  1  0  0  0
 48 65  1  0  0  0
 48123  1  0  0  0
 49 50  1  0  0  0
 49 53  1  0  0  0
 49 64  1  0  0  0
 49124  1  0  0  0
 50 51  1  0  0  0
 50125  1  0  0  0
 50126  1  0  0  0
 51 52  1  0  0  0
 51127  1  0  0  0
 51128  1  0  0  0
 52129  1  0  0  0
 52130  1  0  0  0
 53 54  1  0  0  0
 54 55  2  0  0  0
 54131  1  0  0  0
 55 57  1  0  0  0
 55132  1  0  0  0
 56 69  2  0  0  0
 57 58  2  0  0  0
 57133  1  0  0  0
 58134  1  0  0  0
 59 60  1  0  0  0
 59 61  1  0  0  0
 59 62  1  0  0  0
 60135  1  0  0  0
 60136  1  0  0  0
 60137  1  0  0  0
 61138  1  0  0  0
 61139  1  0  0  0
 61140  1  0  0  0
 62141  1  0  0  0
 62142  1  0  0  0
 62143  1  0  0  0
 63 65  1  0  0  0
 63144  1  0  0  0
 63145  1  0  0  0
 63146  1  0  0  0
 64147  1  0  0  0
 65148  1  0  0  0
 68 81  1  0  0  0
 71 72  2  0  0  0
 71 89  1  0  0  0
 71149  1  0  0  0
 72 79  1  0  0  0
 72 84  1  0  0  0
 73 84  2  0  0  0
 73 85  1  0  0  0
 73 89  1  0  0  0
 74 80  1  0  0  0
 74 82  1  0  0  0
 74 87  2  0  0  0
 75 79  1  0  0  0
 75 86  1  0  0  0
 75 88  2  0  0  0
 76 80  1  0  0  0
 76150  1  0  0  0
 76151  1  0  0  0
 76152  1  0  0  0
 77153  1  0  0  0
 77154  1  0  0  0
 77155  1  0  0  0
 77 83  1  0  0  0
 78 86  1  0  0  0
 78156  1  0  0  0
 78157  1  0  0  0
 78158  1  0  0  0
 79159  1  0  0  0
 79160  1  0  0  0
 80161  1  0  0  0
 80162  1  0  0  0
 81 83  1  0  0  0
 81163  1  0  0  0
 81164  1  0  0  0
 82 83  1  0  0  0
 82 85  1  0  0  0
 82165  1  0  0  0
 83166  1  0  0  0
 85167  1  0  0  0
M  ISO  4   1 100  68 101  81 101  86 100
M  END
> <chiral flag>
0

> <version>
0

> <s_m_source_file>
/data/baiqing/PycharmProjects/Reinvent-master-3.2/result/LINK_invent/BTK/process_docking_weight1_custom_product_contain_oxygen_bond_distance_aromatic_linkinvent_7_9_3/rearranged_h_0190.sdf

> <i_m_source_file_index>
51

> <r_mmod_Potential_Energy-OPLS-2005>
-9.83571624755859

> <r_mmod_Stretch_Energy-OPLS-2005>
45.252384185791

> <r_mmod_Bend_Energy-OPLS-2005>
103.473861694336

> <r_mmod_Torsional_Energy-OPLS-2005>
277.129425048828

> <r_mmod_Improper_Torsional_Energy-OPLS-2005>
4.31097841262817

> <r_mmod_Van_der_Waal_Energy-OPLS-2005>
146.107223510742

> <r_mmod_Electrostatic_Energy-OPLS-2005>
-380.548217773438

> <r_mmod_Solvation_Energy-OPLS-2005>
-217.320098876953

> <b_mmod_Minimization_Converged-OPLS-2005>
0

> <r_mmod_RMS_Derivative-OPLS-2005>
2.21705961227417

$$$$
51
                    3D
 Structure written by MMmdl.
159167  0  0  1  0            999 V2000
  -30.7279  -14.5202   20.5970 C   0  0  0  0  0  0
  -30.4171  -12.3542   19.4345 C   0  0  0  0  0  0
  -29.4940  -12.5339   18.2120 C   0  0  0  0  0  0
  -28.0129  -12.3911   18.6125 C   0  0  0  0  0  0
  -27.6527  -13.2244   19.8678 C   0  0  2  0  0  0
  -28.6908  -12.9798   20.9793 C   0  0  0  0  0  0
  -25.2483  -13.8243   20.5664 C   0  0  0  0  0  0
  -24.1777  -13.0455   20.9196 C   0  0  0  0  0  0
  -24.6390  -11.6954   20.8744 C   0  0  0  0  0  0
  -23.9091  -10.4302   21.0402 C   0  0  0  0  0  0
  -24.3640   -9.4205   21.9172 C   0  0  0  0  0  0
  -23.6291   -8.2243   22.0761 C   0  0  0  0  0  0
  -22.4259   -8.0305   21.3557 C   0  0  0  0  0  0
  -21.9898   -9.0289   20.4656 C   0  0  0  0  0  0
  -22.7271  -10.2136   20.3032 C   0  0  0  0  0  0
  -21.6861   -6.0743   22.5289 C   0  0  0  0  0  0
  -21.4045   -6.5640   23.8233 C   0  0  0  0  0  0
  -21.3648   -5.6774   24.9176 C   0  0  0  0  0  0
  -21.6018   -4.3037   24.7217 C   0  0  0  0  0  0
  -21.8828   -3.8151   23.4339 C   0  0  0  0  0  0
  -21.9190   -4.6967   22.3402 C   0  0  0  0  0  0
  -22.7796  -13.5226   21.1852 C   0  0  0  0  0  0
  -22.1642   -4.2145   21.0982 F   0  0  0  0  0  0
  -21.5597   -3.4529   25.7737 F   0  0  0  0  0  0
  -30.0134  -13.3548   20.4474 N   0  0  0  0  0  0
  -26.2940  -12.9435   20.3295 N   0  0  0  0  0  0
  -25.9304  -11.6581   20.5760 N   0  0  0  0  0  0
  -22.0452  -12.8235   22.0449 N   0  0  0  0  0  0
  -25.4200  -15.1971   20.4109 N   0  0  0  0  0  0
  -31.8599  -14.6010   20.1086 O   0  0  0  0  0  0
  -21.6625   -6.8896   21.4259 O   0  0  0  0  0  0
  -22.3454  -14.5506   20.6694 O   0  0  0  0  0  0
  -24.6134  -31.8713   23.2127 C   0  0  0  0  0  0
  -25.9027  -32.4856   23.8438 C   0  0  1  0  0  0
  -27.2276  -27.4207   20.1034 C   0  0  0  0  0  0
  -25.5880  -33.8648   24.2355 N   0  0  0  0  0  0
  -23.4017  -30.4976   21.5522 C   0  0  2  0  0  0
  -24.8492  -28.9699   20.1114 C   0  0  0  0  0  0
  -22.7408  -29.4673   22.4982 C   0  0  0  0  0  0
  -18.0274  -28.1372   22.8506 C   0  0  0  0  0  0
  -24.1488  -36.7350   23.2636 C   0  0  0  0  0  0
  -25.9330  -30.8339   21.3692 C   0  0  0  0  0  0
  -26.0091  -29.4660   20.7184 C   0  0  0  0  0  0
  -27.1971  -28.6958   20.7193 C   0  0  0  0  0  0
  -26.0471  -26.9556   19.4729 C   0  0  0  0  0  0
  -24.8649  -27.7152   19.4845 C   0  0  0  0  0  0
  -23.6103  -29.8354   20.1652 C   0  0  0  0  0  0
  -25.4103  -36.3143   24.0347 C   0  0  1  0  0  0
  -20.5869  -28.3654   23.1319 C   0  0  2  0  0  0
  -20.6761  -26.9389   22.5413 C   0  0  0  0  0  0
  -19.5729  -26.6380   21.5215 C   0  0  0  0  0  0
  -18.1913  -26.7918   22.1634 C   0  0  0  0  0  0
  -19.1525  -28.8828   23.2915 C   0  0  0  0  0  0
  -18.9449  -30.1435   23.8921 C   0  0  0  0  0  0
  -17.6450  -30.6575   24.0566 C   0  0  0  0  0  0
  -25.9018  -34.9506   23.5152 C   0  0  0  0  0  0
  -16.5344  -29.9077   23.6331 C   0  0  0  0  0  0
  -16.7262  -28.6495   23.0357 C   0  0  0  0  0  0
  -26.4440  -31.6633   25.0767 C   0  0  0  0  0  0
  -25.3699  -31.3780   26.1521 C   0  0  0  0  0  0
  -27.0249  -30.3073   24.6140 C   0  0  0  0  0  0
  -27.6026  -32.4348   25.7514 C   0  0  0  0  0  0
  -27.5594  -37.1824   24.8451 C   0  0  0  0  0  0
  -21.4138  -29.3037   22.3728 N   0  0  0  0  0  0
  -26.4298  -37.3817   23.9406 N   0  0  0  0  0  0
  -24.6682  -31.0810   22.1033 N   0  0  0  0  0  0
  -23.4195  -28.8202   23.2998 O   0  0  0  0  0  0
  -28.3914  -26.6681   20.1489 O   0  0  0  0  0  0
  -26.5569  -34.8934   22.4702 O   0  0  0  0  0  0
  -23.5323  -32.1455   23.7524 O   0  0  0  0  0  0
  -29.9150  -19.4532   20.7044 C   0  0  0  0  0  0
  -28.5362  -20.1539   18.8573 C   0  0  0  0  0  0
  -29.8383  -18.1287   20.2029 C   0  0  0  0  0  0
  -29.2833  -20.5069   20.0020 C   0  0  0  0  0  0
  -29.0524  -17.9062   19.0553 C   0  0  0  0  0  0
  -29.4011  -22.9767   19.6697 C   0  0  0  0  0  0
  -30.8308  -25.0247   20.0953 C   0  0  0  0  0  0
  -29.1867  -15.7681   22.1735 C   0  0  0  0  0  0
  -30.7278  -17.0144   20.7857 C   0  0  0  0  0  0
  -28.2976  -25.2746   19.7946 C   0  0  0  0  0  0
  -29.4516  -24.3793   20.3296 C   0  0  1  0  0  0
  -28.4064  -18.8913   18.4051 N   0  0  0  0  0  0
  -29.4016  -21.8683   20.4485 N   0  0  0  0  0  0
  -30.1179  -15.6755   21.0420 N   0  0  0  0  0  0
  -29.3914  -22.9055   18.4387 O   0  0  0  0  0  0
  -28.9539  -16.6558   18.5467 F   0  0  0  0  0  0
  -31.4578  -12.4443   19.1210 H   0  0  0  0  0  0
  -30.3319  -11.3428   19.8386 H   0  0  0  0  0  0
  -29.7425  -11.7996   17.4450 H   0  0  0  0  0  0
  -29.6639  -13.5183   17.7693 H   0  0  0  0  0  0
  -27.8287  -11.3354   18.8106 H   0  0  0  0  0  0
  -27.3682  -12.6683   17.7777 H   0  0  0  0  0  0
  -27.6949  -14.2798   19.5851 H   0  0  0  0  0  0
  -28.6979  -11.9241   21.2479 H   0  0  0  0  0  0
  -28.4048  -13.4587   21.9071 H   0  0  0  0  0  0
  -25.2796   -9.5641   22.4719 H   0  0  0  0  0  0
  -23.9980   -7.4633   22.7488 H   0  0  0  0  0  0
  -21.0797   -8.8843   19.9005 H   0  0  0  0  0  0
  -22.3774  -10.9659   19.6088 H   0  0  0  0  0  0
  -21.2097   -7.6155   23.9742 H   0  0  0  0  0  0
  -21.1430   -6.0501   25.9070 H   0  0  0  0  0  0
  -22.0623   -2.7619   23.2854 H   0  0  0  0  0  0
  -22.4098  -11.9869   22.4770 H   0  0  0  0  0  0
  -21.1113  -13.1302   22.2770 H   0  0  0  0  0  0
  -24.6690  -15.8653   20.5531 H   0  0  0  0  0  0
  -26.2731  -15.6286   20.0784 H   0  0  0  0  0  0
  -26.7105  -32.5575   23.1213 H   0  0  0  0  0  0
  -25.0061  -33.9829   25.0522 H   0  0  0  0  0  0
  -22.6915  -31.3156   21.4168 H   0  0  0  0  0  0
  -23.3750  -35.9682   23.3289 H   0  0  0  0  0  0
  -24.3597  -36.8966   22.2053 H   0  0  0  0  0  0
  -23.7232  -37.6554   23.6642 H   0  0  0  0  0  0
  -26.0407  -31.5976   20.5982 H   0  0  0  0  0  0
  -26.8232  -30.8946   21.9842 H   0  0  0  0  0  0
  -28.0838  -29.0680   21.2150 H   0  0  0  0  0  0
  -26.0082  -26.0047   18.9635 H   0  0  0  0  0  0
  -23.9763  -27.3332   19.0020 H   0  0  0  0  0  0
  -23.7085  -30.6115   19.4043 H   0  0  0  0  0  0
  -22.7363  -29.2509   19.8731 H   0  0  0  0  0  0
  -25.1275  -36.2035   25.0842 H   0  0  0  0  0  0
  -20.9974  -28.3204   24.1434 H   0  0  0  0  0  0
  -20.5667  -26.2249   23.3597 H   0  0  0  0  0  0
  -21.6630  -26.7427   22.1195 H   0  0  0  0  0  0
  -19.6883  -25.6298   21.1224 H   0  0  0  0  0  0
  -19.6666  -27.3211   20.6765 H   0  0  0  0  0  0
  -17.4182  -26.6680   21.4038 H   0  0  0  0  0  0
  -18.0304  -26.0053   22.9023 H   0  0  0  0  0  0
  -19.7929  -30.7248   24.2300 H   0  0  0  0  0  0
  -17.5007  -31.6264   24.5161 H   0  0  0  0  0  0
  -15.5343  -30.2983   23.7650 H   0  0  0  0  0  0
  -15.8661  -28.0819   22.7061 H   0  0  0  0  0  0
  -24.5834  -30.7160   25.7881 H   0  0  0  0  0  0
  -24.8926  -32.2956   26.4973 H   0  0  0  0  0  0
  -25.8036  -30.8950   27.0283 H   0  0  0  0  0  0
  -26.2805  -29.6887   24.1109 H   0  0  0  0  0  0
  -27.3920  -29.7268   25.4613 H   0  0  0  0  0  0
  -27.8685  -30.4397   23.9360 H   0  0  0  0  0  0
  -27.2647  -33.3625   26.2142 H   0  0  0  0  0  0
  -28.3796  -32.6945   25.0315 H   0  0  0  0  0  0
  -28.0726  -31.8442   26.5383 H   0  0  0  0  0  0
  -28.2602  -38.0134   24.7524 H   0  0  0  0  0  0
  -28.1105  -36.2670   24.6238 H   0  0  0  0  0  0
  -27.2323  -37.1431   25.8856 H   0  0  0  0  0  0
  -20.9278  -29.8792   21.6996 H   0  0  0  0  0  0
  -26.0211  -38.2906   24.1395 H   0  0  0  0  0  0
  -30.5041  -19.6702   21.5850 H   0  0  0  0  0  0
  -28.0059  -20.8959   18.2836 H   0  0  0  0  0  0
  -31.6369  -24.3351   20.3477 H   0  0  0  0  0  0
  -30.9530  -25.9120   20.7169 H   0  0  0  0  0  0
  -30.9660  -25.3296   19.0562 H   0  0  0  0  0  0
  -29.4062  -15.0271   22.9429 H   0  0  0  0  0  0
  -28.1564  -15.6562   21.8321 H   0  0  0  0  0  0
  -29.2469  -16.7321   22.6797 H   0  0  0  0  0  0
  -31.1775  -17.3723   21.7140 H   0  0  0  0  0  0
  -31.5669  -16.9546   20.0937 H   0  0  0  0  0  0
  -27.3809  -24.8456   20.2022 H   0  0  0  0  0  0
  -28.2290  -25.2049   18.7071 H   0  0  0  0  0  0
  -29.3179  -24.2609   21.4056 H   0  0  0  0  0  0
  -29.5543  -22.0126   21.4398 H   0  0  0  0  0  0
  1 25  1  0  0  0
  1 30  2  0  0  0
  1 84  1  0  0  0
  2  3  1  0  0  0
  2 25  1  0  0  0
  2 87  1  0  0  0
  2 88  1  0  0  0
  3  4  1  0  0  0
  3 89  1  0  0  0
  3 90  1  0  0  0
  4  5  1  0  0  0
  4 91  1  0  0  0
  4 92  1  0  0  0
  5  6  1  0  0  0
  5 26  1  0  0  0
  5 93  1  0  0  0
  6 25  1  0  0  0
  6 94  1  0  0  0
  6 95  1  0  0  0
  7  8  2  0  0  0
  7 26  1  0  0  0
  7 29  1  0  0  0
  8  9  1  0  0  0
  8 22  1  0  0  0
  9 10  1  0  0  0
  9 27  2  0  0  0
 10 11  2  0  0  0
 10 15  1  0  0  0
 11 12  1  0  0  0
 11 96  1  0  0  0
 12 13  2  0  0  0
 12 97  1  0  0  0
 13 14  1  0  0  0
 13 31  1  0  0  0
 14 15  2  0  0  0
 14 98  1  0  0  0
 15 99  1  0  0  0
 16 17  2  0  0  0
 16 21  1  0  0  0
 16 31  1  0  0  0
 17 18  1  0  0  0
 17100  1  0  0  0
 18 19  2  0  0  0
 18101  1  0  0  0
 19 20  1  0  0  0
 19 24  1  0  0  0
 20 21  2  0  0  0
 20102  1  0  0  0
 21 23  1  0  0  0
 22 28  1  0  0  0
 22 32  2  0  0  0
 26 27  1  0  0  0
 28103  1  0  0  0
 28104  1  0  0  0
 29105  1  0  0  0
 29106  1  0  0  0
 33 34  1  0  0  0
 33 66  1  0  0  0
 33 70  2  0  0  0
 34 36  1  0  0  0
 34 59  1  0  0  0
 34107  1  0  0  0
 35 44  2  0  0  0
 35 45  1  0  0  0
 35 68  1  0  0  0
 36 56  1  0  0  0
 36108  1  0  0  0
 37 39  1  0  0  0
 37 47  1  0  0  0
 37 66  1  0  0  0
 37109  1  0  0  0
 38 43  2  0  0  0
 38 46  1  0  0  0
 38 47  1  0  0  0
 39 64  1  0  0  0
 39 67  2  0  0  0
 40 52  1  0  0  0
 40 53  2  0  0  0
 40 58  1  0  0  0
 41110  1  0  0  0
 41111  1  0  0  0
 41112  1  0  0  0
 41 48  1  0  0  0
 42 43  1  0  0  0
 42 66  1  0  0  0
 42113  1  0  0  0
 42114  1  0  0  0
 43 44  1  0  0  0
 44115  1  0  0  0
 45 46  2  0  0  0
 45116  1  0  0  0
 46117  1  0  0  0
 47118  1  0  0  0
 47119  1  0  0  0
 48 56  1  0  0  0
 48 65  1  0  0  0
 48120  1  0  0  0
 49 50  1  0  0  0
 49 53  1  0  0  0
 49 64  1  0  0  0
 49121  1  0  0  0
 50 51  1  0  0  0
 50122  1  0  0  0
 50123  1  0  0  0
 51 52  1  0  0  0
 51124  1  0  0  0
 51125  1  0  0  0
 52126  1  0  0  0
 52127  1  0  0  0
 53 54  1  0  0  0
 54 55  2  0  0  0
 54128  1  0  0  0
 55 57  1  0  0  0
 55129  1  0  0  0
 56 69  2  0  0  0
 57 58  2  0  0  0
 57130  1  0  0  0
 58131  1  0  0  0
 59 60  1  0  0  0
 59 61  1  0  0  0
 59 62  1  0  0  0
 60132  1  0  0  0
 60133  1  0  0  0
 60134  1  0  0  0
 61135  1  0  0  0
 61136  1  0  0  0
 61137  1  0  0  0
 62138  1  0  0  0
 62139  1  0  0  0
 62140  1  0  0  0
 63 65  1  0  0  0
 63141  1  0  0  0
 63142  1  0  0  0
 63143  1  0  0  0
 64144  1  0  0  0
 65145  1  0  0  0
 68 80  1  0  0  0
 71 73  2  0  0  0
 71 74  1  0  0  0
 71146  1  0  0  0
 72 74  2  0  0  0
 72 82  1  0  0  0
 72147  1  0  0  0
 73 75  1  0  0  0
 73 79  1  0  0  0
 74 83  1  0  0  0
 75 82  2  0  0  0
 75 86  1  0  0  0
 76 81  1  0  0  0
 76 83  1  0  0  0
 76 85  2  0  0  0
 77148  1  0  0  0
 77149  1  0  0  0
 77150  1  0  0  0
 77 81  1  0  0  0
 78 84  1  0  0  0
 78151  1  0  0  0
 78152  1  0  0  0
 78153  1  0  0  0
 79 84  1  0  0  0
 79154  1  0  0  0
 79155  1  0  0  0
 80 81  1  0  0  0
 80156  1  0  0  0
 80157  1  0  0  0
 81158  1  0  0  0
 83159  1  0  0  0
M  ISO  4   1 100  68 101  80 101  84 100
M  END
> <chiral flag>
0

> <version>
0

> <s_m_source_file>
/data/baiqing/PycharmProjects/Reinvent-master-3.2/result/LINK_invent/BTK/process_docking_weight1_custom_product_contain_oxygen_bond_distance_aromatic_linkinvent_7_9_3/rearranged_h_0190.sdf

> <i_m_source_file_index>
52

> <r_mmod_Potential_Energy-OPLS-2005>
-84.065071105957

> <r_mmod_Stretch_Energy-OPLS-2005>
49.6682548522949

> <r_mmod_Bend_Energy-OPLS-2005>
125.606285095215

> <r_mmod_Torsional_Energy-OPLS-2005>
263.052947998047

> <r_mmod_Improper_Torsional_Energy-OPLS-2005>
8.19680881500244

> <r_mmod_Van_der_Waal_Energy-OPLS-2005>
179.089721679688

> <r_mmod_Electrostatic_Energy-OPLS-2005>
-502.165222167969

> <r_mmod_Solvation_Energy-OPLS-2005>
-226.368408203125

> <b_mmod_Minimization_Converged-OPLS-2005>
0

> <r_mmod_RMS_Derivative-OPLS-2005>
4.47332668304443

$$$$
52
                    3D
 Structure written by MMmdl.
158166  0  0  1  0            999 V2000
  -30.6553  -14.5070   20.5727 C   0  0  0  0  0  0
  -30.4407  -12.3210   19.4312 C   0  0  0  0  0  0
  -29.5094  -12.4996   18.2133 C   0  0  0  0  0  0
  -28.0282  -12.3549   18.6184 C   0  0  0  0  0  0
  -27.6633  -13.1991   19.8696 C   0  0  2  0  0  0
  -28.7009  -12.9667   20.9925 C   0  0  0  0  0  0
  -25.2609  -13.8154   20.5648 C   0  0  0  0  0  0
  -24.1855  -13.0440   20.9164 C   0  0  0  0  0  0
  -24.6391  -11.6905   20.8714 C   0  0  0  0  0  0
  -23.9052  -10.4299   21.0395 C   0  0  0  0  0  0
  -24.3606   -9.4218   21.9179 C   0  0  0  0  0  0
  -23.6282   -8.2255   22.0761 C   0  0  0  0  0  0
  -22.4267   -8.0284   21.3553 C   0  0  0  0  0  0
  -21.9894   -9.0260   20.4664 C   0  0  0  0  0  0
  -22.7220  -10.2138   20.3052 C   0  0  0  0  0  0
  -21.6865   -6.0728   22.5283 C   0  0  0  0  0  0
  -21.4022   -6.5628   23.8215 C   0  0  0  0  0  0
  -21.3659   -5.6780   24.9179 C   0  0  0  0  0  0
  -21.6039   -4.3044   24.7233 C   0  0  0  0  0  0
  -21.8819   -3.8136   23.4355 C   0  0  0  0  0  0
  -21.9191   -4.6952   22.3409 C   0  0  0  0  0  0
  -22.7882  -13.5258   21.1815 C   0  0  0  0  0  0
  -22.1659   -4.2133   21.0990 F   0  0  0  0  0  0
  -21.5618   -3.4527   25.7746 F   0  0  0  0  0  0
  -30.0337  -13.2990   20.4540 N   0  0  0  0  0  0
  -26.3025  -12.9300   20.3289 N   0  0  0  0  0  0
  -25.9309  -11.6472   20.5702 N   0  0  0  0  0  0
  -22.0493  -12.8292   22.0382 N   0  0  0  0  0  0
  -25.4334  -15.1878   20.4085 N   0  0  0  0  0  0
  -31.7811  -14.7206   20.1073 O   0  0  0  0  0  0
  -21.6637   -6.8877   21.4252 O   0  0  0  0  0  0
  -22.3582  -14.5557   20.6634 O   0  0  0  0  0  0
  -24.6124  -31.8690   23.2079 C   0  0  0  0  0  0
  -25.8999  -32.4838   23.8396 C   0  0  1  0  0  0
  -27.2379  -27.4360   20.1068 C   0  0  0  0  0  0
  -25.5829  -33.8638   24.2332 N   0  0  0  0  0  0
  -23.4015  -30.4927   21.5463 C   0  0  2  0  0  0
  -24.8523  -28.9546   20.1144 C   0  0  0  0  0  0
  -22.7387  -29.4668   22.4949 C   0  0  0  0  0  0
  -18.0274  -28.1387   22.8509 C   0  0  0  0  0  0
  -24.1480  -36.7327   23.2645 C   0  0  0  0  0  0
  -25.9265  -30.8425   21.3520 C   0  0  0  0  0  0
  -26.0107  -29.4708   20.7093 C   0  0  0  0  0  0
  -27.2098  -28.7229   20.6961 C   0  0  0  0  0  0
  -26.0655  -26.9325   19.5104 C   0  0  0  0  0  0
  -24.8727  -27.6851   19.5097 C   0  0  0  0  0  0
  -23.6141  -29.8224   20.1617 C   0  0  0  0  0  0
  -25.4099  -36.3128   24.0352 C   0  0  1  0  0  0
  -20.5862  -28.3665   23.1314 C   0  0  2  0  0  0
  -20.6750  -26.9390   22.5425 C   0  0  0  0  0  0
  -19.5733  -26.6397   21.5211 C   0  0  0  0  0  0
  -18.1916  -26.7936   22.1634 C   0  0  0  0  0  0
  -19.1518  -28.8836   23.2930 C   0  0  0  0  0  0
  -18.9454  -30.1444   23.8946 C   0  0  0  0  0  0
  -17.6455  -30.6598   24.0576 C   0  0  0  0  0  0
  -25.9020  -34.9490   23.5159 C   0  0  0  0  0  0
  -16.5354  -29.9117   23.6308 C   0  0  0  0  0  0
  -16.7262  -28.6524   23.0346 C   0  0  0  0  0  0
  -26.4431  -31.6584   25.0692 C   0  0  0  0  0  0
  -25.3705  -31.3669   26.1442 C   0  0  0  0  0  0
  -27.0250  -30.3041   24.6003 C   0  0  0  0  0  0
  -27.6041  -32.4249   25.7446 C   0  0  0  0  0  0
  -27.5589  -37.1805   24.8466 C   0  0  0  0  0  0
  -21.4115  -29.3046   22.3711 N   0  0  0  0  0  0
  -26.4292  -37.3798   23.9419 N   0  0  0  0  0  0
  -24.6663  -31.0818   22.0955 N   0  0  0  0  0  0
  -23.4166  -28.8200   23.2984 O   0  0  0  0  0  0
  -28.3814  -26.6629   20.0784 O   0  0  0  0  0  0
  -26.5619  -34.8929   22.4740 O   0  0  0  0  0  0
  -23.5312  -32.1429   23.7470 O   0  0  0  0  0  0
  -30.6885  -19.0118   20.7395 C   0  0  0  0  0  0
  -29.5006  -19.3336   21.3632 C   0  0  0  0  0  0
  -29.9329  -16.8857   21.1126 C   0  0  0  0  0  0
  -28.9769  -20.6366   21.7814 C   0  0  0  0  0  0
  -30.0424  -23.4046   22.9084 C   0  0  0  0  0  0
  -29.4408  -26.4689   22.1829 C   0  0  0  0  0  0
  -29.0639  -24.3489   20.6912 C   0  0  0  0  0  0
  -29.0605  -23.1798   21.7398 C   0  0  1  0  0  0
  -28.5251  -25.7433   21.1777 C   0  0  2  0  0  0
  -30.9203  -17.6266   20.5938 N   0  0  0  0  0  0
  -28.1529  -20.6649   22.8420 N   0  0  0  0  0  0
  -29.8879  -15.4571   21.1513 N   0  0  0  0  0  0
  -29.3041  -21.8143   21.1765 N   0  3  0  0  0  0
  -28.6154  -17.8658   21.7586 S   0  0  0  0  0  0
  -31.4824  -12.4426   19.1304 H   0  0  0  0  0  0
  -30.3659  -11.3076   19.8280 H   0  0  0  0  0  0
  -29.7608  -11.7675   17.4440 H   0  0  0  0  0  0
  -29.6719  -13.4817   17.7673 H   0  0  0  0  0  0
  -27.8465  -11.2996   18.8234 H   0  0  0  0  0  0
  -27.3849  -12.6149   17.7770 H   0  0  0  0  0  0
  -27.7076  -14.2469   19.5704 H   0  0  0  0  0  0
  -28.6868  -11.9213   21.3059 H   0  0  0  0  0  0
  -28.4460  -13.5337   21.8886 H   0  0  0  0  0  0
  -25.2757   -9.5692   22.4744 H   0  0  0  0  0  0
  -23.9989   -7.4659   22.7492 H   0  0  0  0  0  0
  -21.0814   -8.8773   19.8995 H   0  0  0  0  0  0
  -22.3676  -10.9661   19.6144 H   0  0  0  0  0  0
  -21.2020   -7.6134   23.9717 H   0  0  0  0  0  0
  -21.1479   -6.0510   25.9079 H   0  0  0  0  0  0
  -22.0599   -2.7594   23.2857 H   0  0  0  0  0  0
  -22.4048  -11.9950   22.4810 H   0  0  0  0  0  0
  -21.1114  -13.1358   22.2546 H   0  0  0  0  0  0
  -24.6637  -15.8386   20.5212 H   0  0  0  0  0  0
  -26.2731  -15.6274   20.0551 H   0  0  0  0  0  0
  -26.7066  -32.5562   23.1165 H   0  0  0  0  0  0
  -24.9852  -33.9802   25.0389 H   0  0  0  0  0  0
  -22.6896  -31.3092   21.4048 H   0  0  0  0  0  0
  -23.3737  -35.9665   23.3322 H   0  0  0  0  0  0
  -24.3587  -36.8920   22.2053 H   0  0  0  0  0  0
  -23.7222  -37.6537   23.6652 H   0  0  0  0  0  0
  -26.0191  -31.6009   20.5727 H   0  0  0  0  0  0
  -26.8207  -30.9131   21.9590 H   0  0  0  0  0  0
  -28.1078  -29.1315   21.1397 H   0  0  0  0  0  0
  -26.0763  -25.9566   19.0465 H   0  0  0  0  0  0
  -23.9816  -27.2832   19.0464 H   0  0  0  0  0  0
  -23.7238  -30.5975   19.4011 H   0  0  0  0  0  0
  -22.7404  -29.2405   19.8666 H   0  0  0  0  0  0
  -25.1276  -36.2012   25.0847 H   0  0  0  0  0  0
  -20.9990  -28.3247   24.1423 H   0  0  0  0  0  0
  -20.5576  -26.2298   23.3636 H   0  0  0  0  0  0
  -21.6637  -26.7397   22.1265 H   0  0  0  0  0  0
  -19.6877  -25.6309   21.1242 H   0  0  0  0  0  0
  -19.6670  -27.3218   20.6748 H   0  0  0  0  0  0
  -17.4178  -26.6681   21.4045 H   0  0  0  0  0  0
  -18.0323  -26.0068   22.9021 H   0  0  0  0  0  0
  -19.7932  -30.7224   24.2360 H   0  0  0  0  0  0
  -17.5029  -31.6276   24.5179 H   0  0  0  0  0  0
  -15.5365  -30.3046   23.7589 H   0  0  0  0  0  0
  -15.8672  -28.0865   22.7043 H   0  0  0  0  0  0
  -24.5890  -30.6997   25.7768 H   0  0  0  0  0  0
  -24.8867  -32.2810   26.4892 H   0  0  0  0  0  0
  -25.8054  -30.8834   27.0201 H   0  0  0  0  0  0
  -26.2764  -29.6795   24.1104 H   0  0  0  0  0  0
  -27.4083  -29.7268   25.4427 H   0  0  0  0  0  0
  -27.8567  -30.4385   23.9081 H   0  0  0  0  0  0
  -27.2735  -33.3555   26.2082 H   0  0  0  0  0  0
  -28.3843  -32.6770   25.0247 H   0  0  0  0  0  0
  -28.0711  -31.8294   26.5296 H   0  0  0  0  0  0
  -28.2626  -38.0088   24.7521 H   0  0  0  0  0  0
  -28.1068  -36.2625   24.6291 H   0  0  0  0  0  0
  -27.2329  -37.1458   25.8876 H   0  0  0  0  0  0
  -20.9238  -29.8822   21.6999 H   0  0  0  0  0  0
  -26.0196  -38.2884   24.1422 H   0  0  0  0  0  0
  -31.4427  -19.7054   20.3949 H   0  0  0  0  0  0
  -29.5466  -23.8934   23.7467 H   0  0  0  0  0  0
  -30.8953  -24.0165   22.6118 H   0  0  0  0  0  0
  -30.4458  -22.4698   23.3003 H   0  0  0  0  0  0
  -29.0952  -27.4820   22.3840 H   0  0  0  0  0  0
  -30.4623  -26.5383   21.8105 H   0  0  0  0  0  0
  -29.4632  -25.9797   23.1516 H   0  0  0  0  0  0
  -28.4597  -24.0342   19.8400 H   0  0  0  0  0  0
  -30.0705  -24.4795   20.2933 H   0  0  0  0  0  0
  -28.0518  -23.1503   22.1529 H   0  0  0  0  0  0
  -27.5524  -25.5802   21.6468 H   0  0  0  0  0  0
  -27.9344  -19.8113   23.3348 H   0  0  0  0  0  0
  -27.6607  -21.4941   23.1312 H   0  0  0  0  0  0
  -29.0364  -15.0835   21.5401 H   0  0  0  0  0  0
  -29.9044  -21.7704   20.3641 H   0  0  0  0  0  0
  1 25  1  0  0  0
  1 30  2  0  0  0
  1 82  1  0  0  0
  2  3  1  0  0  0
  2 25  1  0  0  0
  2 85  1  0  0  0
  2 86  1  0  0  0
  3  4  1  0  0  0
  3 87  1  0  0  0
  3 88  1  0  0  0
  4  5  1  0  0  0
  4 89  1  0  0  0
  4 90  1  0  0  0
  5  6  1  0  0  0
  5 26  1  0  0  0
  5 91  1  0  0  0
  6 25  1  0  0  0
  6 92  1  0  0  0
  6 93  1  0  0  0
  7  8  2  0  0  0
  7 26  1  0  0  0
  7 29  1  0  0  0
  8  9  1  0  0  0
  8 22  1  0  0  0
  9 10  1  0  0  0
  9 27  2  0  0  0
 10 11  2  0  0  0
 10 15  1  0  0  0
 11 12  1  0  0  0
 11 94  1  0  0  0
 12 13  2  0  0  0
 12 95  1  0  0  0
 13 14  1  0  0  0
 13 31  1  0  0  0
 14 15  2  0  0  0
 14 96  1  0  0  0
 15 97  1  0  0  0
 16 17  2  0  0  0
 16 21  1  0  0  0
 16 31  1  0  0  0
 17 18  1  0  0  0
 17 98  1  0  0  0
 18 19  2  0  0  0
 18 99  1  0  0  0
 19 20  1  0  0  0
 19 24  1  0  0  0
 20 21  2  0  0  0
 20100  1  0  0  0
 21 23  1  0  0  0
 22 28  1  0  0  0
 22 32  2  0  0  0
 26 27  1  0  0  0
 28101  1  0  0  0
 28102  1  0  0  0
 29103  1  0  0  0
 29104  1  0  0  0
 33 34  1  0  0  0
 33 66  1  0  0  0
 33 70  2  0  0  0
 34 36  1  0  0  0
 34 59  1  0  0  0
 34105  1  0  0  0
 35 44  2  0  0  0
 35 45  1  0  0  0
 35 68  1  0  0  0
 36 56  1  0  0  0
 36106  1  0  0  0
 37 39  1  0  0  0
 37 47  1  0  0  0
 37 66  1  0  0  0
 37107  1  0  0  0
 38 43  2  0  0  0
 38 46  1  0  0  0
 38 47  1  0  0  0
 39 64  1  0  0  0
 39 67  2  0  0  0
 40 52  1  0  0  0
 40 53  2  0  0  0
 40 58  1  0  0  0
 41108  1  0  0  0
 41109  1  0  0  0
 41110  1  0  0  0
 41 48  1  0  0  0
 42 43  1  0  0  0
 42 66  1  0  0  0
 42111  1  0  0  0
 42112  1  0  0  0
 43 44  1  0  0  0
 44113  1  0  0  0
 45 46  2  0  0  0
 45114  1  0  0  0
 46115  1  0  0  0
 47116  1  0  0  0
 47117  1  0  0  0
 48 56  1  0  0  0
 48 65  1  0  0  0
 48118  1  0  0  0
 49 50  1  0  0  0
 49 53  1  0  0  0
 49 64  1  0  0  0
 49119  1  0  0  0
 50 51  1  0  0  0
 50120  1  0  0  0
 50121  1  0  0  0
 51 52  1  0  0  0
 51122  1  0  0  0
 51123  1  0  0  0
 52124  1  0  0  0
 52125  1  0  0  0
 53 54  1  0  0  0
 54 55  2  0  0  0
 54126  1  0  0  0
 55 57  1  0  0  0
 55127  1  0  0  0
 56 69  2  0  0  0
 57 58  2  0  0  0
 57128  1  0  0  0
 58129  1  0  0  0
 59 60  1  0  0  0
 59 61  1  0  0  0
 59 62  1  0  0  0
 60130  1  0  0  0
 60131  1  0  0  0
 60132  1  0  0  0
 61133  1  0  0  0
 61134  1  0  0  0
 61135  1  0  0  0
 62136  1  0  0  0
 62137  1  0  0  0
 62138  1  0  0  0
 63 65  1  0  0  0
 63139  1  0  0  0
 63140  1  0  0  0
 63141  1  0  0  0
 64142  1  0  0  0
 65143  1  0  0  0
 68 79  1  0  0  0
 71 72  2  0  0  0
 71 80  1  0  0  0
 71144  1  0  0  0
 72 74  1  0  0  0
 72 84  1  0  0  0
 73 80  2  0  0  0
 73 82  1  0  0  0
 73 84  1  0  0  0
 74 81  1  0  0  0
 74 83  2  0  0  0
 75145  1  0  0  0
 75146  1  0  0  0
 75147  1  0  0  0
 75 78  1  0  0  0
 76148  1  0  0  0
 76149  1  0  0  0
 76150  1  0  0  0
 76 79  1  0  0  0
 77 78  1  0  0  0
 77 79  1  0  0  0
 77151  1  0  0  0
 77152  1  0  0  0
 78 83  1  0  0  0
 78153  1  0  0  0
 79154  1  0  0  0
 81155  1  0  0  0
 81156  1  0  0  0
 82157  1  0  0  0
 83158  1  0  0  0
M  CHG  1  83   1
M  ISO  4   1 100  68 101  79 101  82 100
M  END
> <chiral flag>
0

> <version>
0

> <s_m_source_file>
/data/baiqing/PycharmProjects/Reinvent-master-3.2/result/LINK_invent/BTK/process_docking_weight1_custom_product_contain_oxygen_bond_distance_aromatic_linkinvent_7_9_3/rearranged_h_0190.sdf

> <i_m_source_file_index>
53

> <r_mmod_Potential_Energy-OPLS-2005>
-216.921188354492

> <r_mmod_Stretch_Energy-OPLS-2005>
43.0400009155273

> <r_mmod_Bend_Energy-OPLS-2005>
110.721031188965

> <r_mmod_Torsional_Energy-OPLS-2005>
231.171585083008

> <r_mmod_Improper_Torsional_Energy-OPLS-2005>
3.83801484107971

> <r_mmod_Van_der_Waal_Energy-OPLS-2005>
131.373001098633

> <r_mmod_Electrostatic_Energy-OPLS-2005>
-268.759674072266

> <r_mmod_Solvation_Energy-OPLS-2005>
-482.785583496094

> <b_mmod_Minimization_Converged-OPLS-2005>
0

> <r_mmod_RMS_Derivative-OPLS-2005>
2.79604196548462

$$$$
53
                    3D
 Structure written by MMmdl.
161169  0  0  1  0            999 V2000
  -30.7093  -14.4751   20.5613 C   0  0  0  0  0  0
  -30.4180  -12.3021   19.4294 C   0  0  0  0  0  0
  -29.4994  -12.5185   18.2086 C   0  0  0  0  0  0
  -28.0178  -12.3818   18.6139 C   0  0  0  0  0  0
  -27.6629  -13.2140   19.8768 C   0  0  2  0  0  0
  -28.7056  -12.9955   21.0013 C   0  0  0  0  0  0
  -25.2604  -13.8162   20.5733 C   0  0  0  0  0  0
  -24.1850  -13.0431   20.9178 C   0  0  0  0  0  0
  -24.6411  -11.6904   20.8709 C   0  0  0  0  0  0
  -23.9067  -10.4296   21.0377 C   0  0  0  0  0  0
  -24.3626   -9.4222   21.9166 C   0  0  0  0  0  0
  -23.6305   -8.2251   22.0745 C   0  0  0  0  0  0
  -22.4281   -8.0286   21.3542 C   0  0  0  0  0  0
  -21.9908   -9.0251   20.4635 C   0  0  0  0  0  0
  -22.7239  -10.2130   20.3030 C   0  0  0  0  0  0
  -21.6858   -6.0743   22.5282 C   0  0  0  0  0  0
  -21.4011   -6.5644   23.8218 C   0  0  0  0  0  0
  -21.3651   -5.6796   24.9173 C   0  0  0  0  0  0
  -21.6040   -4.3055   24.7215 C   0  0  0  0  0  0
  -21.8824   -3.8152   23.4341 C   0  0  0  0  0  0
  -21.9199   -4.6972   22.3406 C   0  0  0  0  0  0
  -22.7877  -13.5225   21.1846 C   0  0  0  0  0  0
  -22.1667   -4.2165   21.0978 F   0  0  0  0  0  0
  -21.5629   -3.4529   25.7723 F   0  0  0  0  0  0
  -30.0393  -13.2939   20.4536 N   0  0  0  0  0  0
  -26.3042  -12.9360   20.3361 N   0  0  0  0  0  0
  -25.9340  -11.6500   20.5744 N   0  0  0  0  0  0
  -22.0497  -12.8196   22.0387 N   0  0  0  0  0  0
  -25.4319  -15.1903   20.4254 N   0  0  0  0  0  0
  -31.8268  -14.6482   20.0669 O   0  0  0  0  0  0
  -21.6653   -6.8882   21.4237 O   0  0  0  0  0  0
  -22.3560  -14.5540   20.6731 O   0  0  0  0  0  0
  -24.6109  -31.8693   23.2057 C   0  0  0  0  0  0
  -25.8998  -32.4840   23.8372 C   0  0  1  0  0  0
  -27.2422  -27.4210   20.0896 C   0  0  0  0  0  0
  -25.5875  -33.8652   24.2285 N   0  0  0  0  0  0
  -23.4026  -30.4912   21.5418 C   0  0  2  0  0  0
  -24.8497  -28.9501   20.1101 C   0  0  0  0  0  0
  -22.7412  -29.4684   22.4922 C   0  0  0  0  0  0
  -18.0297  -28.1396   22.8479 C   0  0  0  0  0  0
  -24.1490  -36.7281   23.2660 C   0  0  0  0  0  0
  -25.9334  -30.8250   21.3655 C   0  0  0  0  0  0
  -26.0090  -29.4608   20.7046 C   0  0  0  0  0  0
  -27.2021  -28.7018   20.6954 C   0  0  0  0  0  0
  -26.0584  -26.9198   19.5027 C   0  0  0  0  0  0
  -24.8666  -27.6749   19.5148 C   0  0  0  0  0  0
  -23.6122  -29.8204   20.1581 C   0  0  0  0  0  0
  -25.4115  -36.3127   24.0361 C   0  0  1  0  0  0
  -20.5884  -28.3685   23.1278 C   0  0  2  0  0  0
  -20.6769  -26.9408   22.5411 C   0  0  0  0  0  0
  -19.5765  -26.6378   21.5187 C   0  0  0  0  0  0
  -18.1926  -26.7961   22.1571 C   0  0  0  0  0  0
  -19.1554  -28.8853   23.2878 C   0  0  0  0  0  0
  -18.9496  -30.1451   23.8895 C   0  0  0  0  0  0
  -17.6519  -30.6593   24.0586 C   0  0  0  0  0  0
  -25.9052  -34.9513   23.5114 C   0  0  0  0  0  0
  -16.5377  -29.9128   23.6345 C   0  0  0  0  0  0
  -16.7284  -28.6549   23.0335 C   0  0  0  0  0  0
  -26.4403  -31.6702   25.0750 C   0  0  0  0  0  0
  -25.3658  -31.3913   26.1520 C   0  0  0  0  0  0
  -27.0236  -30.3136   24.6205 C   0  0  0  0  0  0
  -27.6012  -32.4455   25.7439 C   0  0  0  0  0  0
  -27.5587  -37.1777   24.8453 C   0  0  0  0  0  0
  -21.4156  -29.3026   22.3660 N   0  0  0  0  0  0
  -26.4274  -37.3808   23.9452 N   0  0  0  0  0  0
  -24.6664  -31.0785   22.0958 N   0  0  0  0  0  0
  -23.4214  -28.8246   23.2952 O   0  0  0  0  0  0
  -28.4333  -26.7168   20.1194 O   0  0  0  0  0  0
  -26.5607  -34.8975   22.4674 O   0  0  0  0  0  0
  -23.5284  -32.1456   23.7422 O   0  0  0  0  0  0
  -30.5278  -17.3514   19.5906 C   0  0  0  0  0  0
  -30.1919  -16.8245   20.8198 C   0  0  0  0  0  0
  -30.3247  -19.3420   20.7172 C   0  0  0  0  0  0
  -28.2968  -21.7154   21.9600 C   0  0  0  0  0  0
  -27.0108  -20.8956   21.9546 C   0  0  0  0  0  0
  -29.4767  -23.2050   20.2280 C   0  0  0  0  0  0
  -28.6217  -25.5301   19.3278 C   0  0  0  0  0  0
  -30.4582  -20.8460   20.9581 C   0  0  2  0  0  0
  -29.1753  -21.7238   20.6953 C   0  0  1  0  0  0
  -28.2669  -24.1787   20.0411 C   0  0  1  0  0  0
  -30.5719  -18.7528   19.5369 N   0  0  0  0  0  0
  -30.0517  -15.4994   21.1481 N   0  0  0  0  0  0
  -31.5966  -21.1897   20.0831 N   0  3  0  0  0  0
  -28.6262  -22.3463   22.9675 O   0  0  0  0  0  0
  -27.2707  -23.5034   19.2902 O   0  0  0  0  0  0
  -29.8946  -18.1404   21.9542 S   0  0  0  0  0  0
  -31.4667  -12.3759   19.1373 H   0  0  0  0  0  0
  -30.2914  -11.2905   19.8198 H   0  0  0  0  0  0
  -29.7389  -11.8014   17.4222 H   0  0  0  0  0  0
  -29.6743  -13.5079   17.7812 H   0  0  0  0  0  0
  -27.8231  -11.3245   18.7983 H   0  0  0  0  0  0
  -27.3717  -12.6656   17.7815 H   0  0  0  0  0  0
  -27.7071  -14.2639   19.5853 H   0  0  0  0  0  0
  -28.6779  -11.9599   21.3431 H   0  0  0  0  0  0
  -28.4708  -13.6004   21.8775 H   0  0  0  0  0  0
  -25.2771   -9.5706   22.4728 H   0  0  0  0  0  0
  -24.0023   -7.4645   22.7457 H   0  0  0  0  0  0
  -21.0844   -8.8756   19.8950 H   0  0  0  0  0  0
  -22.3694  -10.9654   19.6128 H   0  0  0  0  0  0
  -21.1992   -7.6154   23.9722 H   0  0  0  0  0  0
  -21.1461   -6.0520   25.9080 H   0  0  0  0  0  0
  -22.0608   -2.7613   23.2829 H   0  0  0  0  0  0
  -22.4113  -11.9851   22.4776 H   0  0  0  0  0  0
  -21.1099  -13.1201   22.2550 H   0  0  0  0  0  0
  -24.6685  -15.8423   20.5630 H   0  0  0  0  0  0
  -26.2951  -15.6397   20.1489 H   0  0  0  0  0  0
  -26.7068  -32.5510   23.1130 H   0  0  0  0  0  0
  -25.0059  -33.9845   25.0449 H   0  0  0  0  0  0
  -22.6879  -31.3057   21.3927 H   0  0  0  0  0  0
  -23.3815  -35.9542   23.3283 H   0  0  0  0  0  0
  -24.3581  -36.8907   22.2070 H   0  0  0  0  0  0
  -23.7180  -37.6449   23.6694 H   0  0  0  0  0  0
  -26.0630  -31.5971   20.6070 H   0  0  0  0  0  0
  -26.8155  -30.8571   21.9941 H   0  0  0  0  0  0
  -28.0978  -29.1000   21.1529 H   0  0  0  0  0  0
  -26.0294  -25.9375   19.0518 H   0  0  0  0  0  0
  -23.9731  -27.2581   19.0753 H   0  0  0  0  0  0
  -23.7262  -30.5969   19.3983 H   0  0  0  0  0  0
  -22.7350  -29.2428   19.8578 H   0  0  0  0  0  0
  -25.1288  -36.1935   25.0846 H   0  0  0  0  0  0
  -20.9978  -28.3235   24.1399 H   0  0  0  0  0  0
  -20.5567  -26.2315   23.3626 H   0  0  0  0  0  0
  -21.6657  -26.7381   22.1248 H   0  0  0  0  0  0
  -19.6955  -25.6287   21.1224 H   0  0  0  0  0  0
  -19.6769  -27.3191   20.6728 H   0  0  0  0  0  0
  -17.4235  -26.6756   21.3923 H   0  0  0  0  0  0
  -18.0268  -26.0081   22.8927 H   0  0  0  0  0  0
  -19.7989  -30.7236   24.2252 H   0  0  0  0  0  0
  -17.5100  -31.6267   24.5216 H   0  0  0  0  0  0
  -15.5390  -30.3037   23.7712 H   0  0  0  0  0  0
  -15.8668  -28.0889   22.7030 H   0  0  0  0  0  0
  -24.5856  -30.7177   25.7932 H   0  0  0  0  0  0
  -24.8796  -32.3103   26.4808 H   0  0  0  0  0  0
  -25.7983  -30.9259   27.0380 H   0  0  0  0  0  0
  -26.2804  -29.6899   24.1227 H   0  0  0  0  0  0
  -27.3922  -29.7381   25.4692 H   0  0  0  0  0  0
  -27.8665  -30.4429   23.9430 H   0  0  0  0  0  0
  -27.2681  -33.3779   26.2001 H   0  0  0  0  0  0
  -28.3781  -32.7000   25.0222 H   0  0  0  0  0  0
  -28.0753  -31.8634   26.5334 H   0  0  0  0  0  0
  -28.2603  -38.0084   24.7520 H   0  0  0  0  0  0
  -28.1072  -36.2614   24.6195 H   0  0  0  0  0  0
  -27.2328  -37.1306   25.8863 H   0  0  0  0  0  0
  -20.9313  -29.8762   21.6903 H   0  0  0  0  0  0
  -26.0158  -38.2856   24.1534 H   0  0  0  0  0  0
  -30.7470  -16.7931   18.6894 H   0  0  0  0  0  0
  -27.2220  -19.8359   21.8102 H   0  0  0  0  0  0
  -26.3402  -21.2363   21.1662 H   0  0  0  0  0  0
  -26.4911  -21.0116   22.9086 H   0  0  0  0  0  0
  -30.0072  -23.1670   19.2747 H   0  0  0  0  0  0
  -30.1749  -23.6722   20.9263 H   0  0  0  0  0  0
  -28.1277  -25.6225   18.3574 H   0  0  0  0  0  0
  -29.6821  -25.5264   19.0725 H   0  0  0  0  0  0
  -30.8061  -20.9949   21.9834 H   0  0  0  0  0  0
  -28.6071  -21.2586   19.8898 H   0  0  0  0  0  0
  -27.8372  -24.4034   21.0155 H   0  0  0  0  0  0
  -29.2606  -15.2538   21.7250 H   0  0  0  0  0  0
  -31.3794  -20.9028   19.1441 H   0  0  0  0  0  0
  -32.4005  -20.6620   20.3729 H   0  0  0  0  0  0
  -31.8243  -22.1673   20.1119 H   0  0  0  0  0  0
  -27.5889  -23.3854   18.4008 H   0  0  0  0  0  0
  1 25  1  0  0  0
  1 30  2  0  0  0
  1 82  1  0  0  0
  2  3  1  0  0  0
  2 25  1  0  0  0
  2 87  1  0  0  0
  2 88  1  0  0  0
  3  4  1  0  0  0
  3 89  1  0  0  0
  3 90  1  0  0  0
  4  5  1  0  0  0
  4 91  1  0  0  0
  4 92  1  0  0  0
  5  6  1  0  0  0
  5 26  1  0  0  0
  5 93  1  0  0  0
  6 25  1  0  0  0
  6 94  1  0  0  0
  6 95  1  0  0  0
  7  8  2  0  0  0
  7 26  1  0  0  0
  7 29  1  0  0  0
  8  9  1  0  0  0
  8 22  1  0  0  0
  9 10  1  0  0  0
  9 27  2  0  0  0
 10 11  2  0  0  0
 10 15  1  0  0  0
 11 12  1  0  0  0
 11 96  1  0  0  0
 12 13  2  0  0  0
 12 97  1  0  0  0
 13 14  1  0  0  0
 13 31  1  0  0  0
 14 15  2  0  0  0
 14 98  1  0  0  0
 15 99  1  0  0  0
 16 17  2  0  0  0
 16 21  1  0  0  0
 16 31  1  0  0  0
 17 18  1  0  0  0
 17100  1  0  0  0
 18 19  2  0  0  0
 18101  1  0  0  0
 19 20  1  0  0  0
 19 24  1  0  0  0
 20 21  2  0  0  0
 20102  1  0  0  0
 21 23  1  0  0  0
 22 28  1  0  0  0
 22 32  2  0  0  0
 26 27  1  0  0  0
 28103  1  0  0  0
 28104  1  0  0  0
 29105  1  0  0  0
 29106  1  0  0  0
 33 34  1  0  0  0
 33 66  1  0  0  0
 33 70  2  0  0  0
 34 36  1  0  0  0
 34 59  1  0  0  0
 34107  1  0  0  0
 35 44  2  0  0  0
 35 45  1  0  0  0
 35 68  1  0  0  0
 36 56  1  0  0  0
 36108  1  0  0  0
 37 39  1  0  0  0
 37 47  1  0  0  0
 37 66  1  0  0  0
 37109  1  0  0  0
 38 43  2  0  0  0
 38 46  1  0  0  0
 38 47  1  0  0  0
 39 64  1  0  0  0
 39 67  2  0  0  0
 40 52  1  0  0  0
 40 53  2  0  0  0
 40 58  1  0  0  0
 41110  1  0  0  0
 41111  1  0  0  0
 41112  1  0  0  0
 41 48  1  0  0  0
 42 43  1  0  0  0
 42 66  1  0  0  0
 42113  1  0  0  0
 42114  1  0  0  0
 43 44  1  0  0  0
 44115  1  0  0  0
 45 46  2  0  0  0
 45116  1  0  0  0
 46117  1  0  0  0
 47118  1  0  0  0
 47119  1  0  0  0
 48 56  1  0  0  0
 48 65  1  0  0  0
 48120  1  0  0  0
 49 50  1  0  0  0
 49 53  1  0  0  0
 49 64  1  0  0  0
 49121  1  0  0  0
 50 51  1  0  0  0
 50122  1  0  0  0
 50123  1  0  0  0
 51 52  1  0  0  0
 51124  1  0  0  0
 51125  1  0  0  0
 52126  1  0  0  0
 52127  1  0  0  0
 53 54  1  0  0  0
 54 55  2  0  0  0
 54128  1  0  0  0
 55 57  1  0  0  0
 55129  1  0  0  0
 56 69  2  0  0  0
 57 58  2  0  0  0
 57130  1  0  0  0
 58131  1  0  0  0
 59 60  1  0  0  0
 59 61  1  0  0  0
 59 62  1  0  0  0
 60132  1  0  0  0
 60133  1  0  0  0
 60134  1  0  0  0
 61135  1  0  0  0
 61136  1  0  0  0
 61137  1  0  0  0
 62138  1  0  0  0
 62139  1  0  0  0
 62140  1  0  0  0
 63 65  1  0  0  0
 63141  1  0  0  0
 63142  1  0  0  0
 63143  1  0  0  0
 64144  1  0  0  0
 65145  1  0  0  0
 68 77  1  0  0  0
 71 72  2  0  0  0
 71 81  1  0  0  0
 71146  1  0  0  0
 72 82  1  0  0  0
 72 86  1  0  0  0
 73 78  1  0  0  0
 73 81  2  0  0  0
 73 86  1  0  0  0
 74 75  1  0  0  0
 74 79  1  0  0  0
 74 84  2  0  0  0
 75147  1  0  0  0
 75148  1  0  0  0
 75149  1  0  0  0
 76 80  1  0  0  0
 76150  1  0  0  0
 76151  1  0  0  0
 76 79  1  0  0  0
 77 80  1  0  0  0
 77152  1  0  0  0
 77153  1  0  0  0
 78 79  1  0  0  0
 78 83  1  0  0  0
 78154  1  0  0  0
 79155  1  0  0  0
 80 85  1  0  0  0
 80156  1  0  0  0
 82157  1  0  0  0
 83158  1  0  0  0
 83159  1  0  0  0
 83160  1  0  0  0
 85161  1  0  0  0
M  CHG  1  83   1
M  ISO  4   1 100  68 101  77 101  82 100
M  END
> <chiral flag>
0

> <version>
0

> <s_m_source_file>
/data/baiqing/PycharmProjects/Reinvent-master-3.2/result/LINK_invent/BTK/process_docking_weight1_custom_product_contain_oxygen_bond_distance_aromatic_linkinvent_7_9_3/rearranged_h_0190.sdf

> <i_m_source_file_index>
54

> <r_mmod_Potential_Energy-OPLS-2005>
-512.334228515625

> <r_mmod_Stretch_Energy-OPLS-2005>
46.852668762207

> <r_mmod_Bend_Energy-OPLS-2005>
114.56485748291

> <r_mmod_Torsional_Energy-OPLS-2005>
225.956527709961

> <r_mmod_Improper_Torsional_Energy-OPLS-2005>
3.184645652771

> <r_mmod_Van_der_Waal_Energy-OPLS-2005>
134.575698852539

> <r_mmod_Electrostatic_Energy-OPLS-2005>
-516.734497070312

> <r_mmod_Solvation_Energy-OPLS-2005>
-535.048767089844

> <b_mmod_Minimization_Converged-OPLS-2005>
0

> <r_mmod_RMS_Derivative-OPLS-2005>
5.02223014831543

$$$$
54
                    3D
 Structure written by MMmdl.
159167  0  0  1  0            999 V2000
  -30.7537  -14.4598   20.5362 C   0  0  0  0  0  0
  -30.3957  -12.2911   19.4360 C   0  0  0  0  0  0
  -29.4943  -12.4871   18.2033 C   0  0  0  0  0  0
  -28.0117  -12.3633   18.6032 C   0  0  0  0  0  0
  -27.6451  -13.2239   19.8431 C   0  0  2  0  0  0
  -28.6819  -13.0675   20.9773 C   0  0  0  0  0  0
  -25.2462  -13.8158   20.5493 C   0  0  0  0  0  0
  -24.1792  -13.0444   20.9151 C   0  0  0  0  0  0
  -24.6378  -11.6915   20.8658 C   0  0  0  0  0  0
  -23.9030  -10.4298   21.0359 C   0  0  0  0  0  0
  -24.3602   -9.4224   21.9127 C   0  0  0  0  0  0
  -23.6289   -8.2255   22.0699 C   0  0  0  0  0  0
  -22.4255   -8.0285   21.3527 C   0  0  0  0  0  0
  -21.9858   -9.0244   20.4640 C   0  0  0  0  0  0
  -22.7173  -10.2143   20.3051 C   0  0  0  0  0  0
  -21.6872   -6.0716   22.5272 C   0  0  0  0  0  0
  -21.4024   -6.5618   23.8225 C   0  0  0  0  0  0
  -21.3654   -5.6793   24.9175 C   0  0  0  0  0  0
  -21.6058   -4.3054   24.7263 C   0  0  0  0  0  0
  -21.8805   -3.8132   23.4367 C   0  0  0  0  0  0
  -21.9190   -4.6926   22.3432 C   0  0  0  0  0  0
  -22.7800  -13.5215   21.1876 C   0  0  0  0  0  0
  -22.1650   -4.2104   21.1001 F   0  0  0  0  0  0
  -21.5634   -3.4547   25.7768 F   0  0  0  0  0  0
  -30.0202  -13.3191   20.4194 N   0  0  0  0  0  0
  -26.2914  -12.9370   20.3160 N   0  0  0  0  0  0
  -25.9321  -11.6529   20.5653 N   0  0  0  0  0  0
  -22.0428  -12.8214   22.0441 N   0  0  0  0  0  0
  -25.4079  -15.1854   20.3610 N   0  0  0  0  0  0
  -31.9058  -14.5504   20.1107 O   0  0  0  0  0  0
  -21.6675   -6.8856   21.4233 O   0  0  0  0  0  0
  -22.3482  -14.5496   20.6717 O   0  0  0  0  0  0
  -24.6186  -31.8727   23.2151 C   0  0  0  0  0  0
  -25.9091  -32.4870   23.8447 C   0  0  1  0  0  0
  -27.2289  -27.4507   20.0822 C   0  0  0  0  0  0
  -25.5936  -33.8661   24.2438 N   0  0  0  0  0  0
  -23.4060  -30.5008   21.5537 C   0  0  2  0  0  0
  -24.8546  -28.9726   20.1095 C   0  0  0  0  0  0
  -22.7442  -29.4710   22.4969 C   0  0  0  0  0  0
  -18.0307  -28.1429   22.8544 C   0  0  0  0  0  0
  -24.1439  -36.7278   23.2643 C   0  0  0  0  0  0
  -25.9359  -30.8386   21.3720 C   0  0  0  0  0  0
  -26.0138  -29.4743   20.7181 C   0  0  0  0  0  0
  -27.2045  -28.7150   20.7143 C   0  0  0  0  0  0
  -26.0708  -26.9806   19.4380 C   0  0  0  0  0  0
  -24.8773  -27.7219   19.4680 C   0  0  0  0  0  0
  -23.6157  -29.8354   20.1666 C   0  0  0  0  0  0
  -25.4057  -36.3141   24.0379 C   0  0  1  0  0  0
  -20.5894  -28.3692   23.1323 C   0  0  2  0  0  0
  -20.6773  -26.9421   22.5420 C   0  0  0  0  0  0
  -19.5721  -26.6427   21.5248 C   0  0  0  0  0  0
  -18.1925  -26.7997   22.1672 C   0  0  0  0  0  0
  -19.1549  -28.8888   23.2958 C   0  0  0  0  0  0
  -18.9465  -30.1502   23.8957 C   0  0  0  0  0  0
  -17.6450  -30.6628   24.0605 C   0  0  0  0  0  0
  -25.8990  -34.9495   23.5186 C   0  0  0  0  0  0
  -16.5357  -29.9128   23.6341 C   0  0  0  0  0  0
  -16.7297  -28.6555   23.0379 C   0  0  0  0  0  0
  -26.4502  -31.6630   25.0775 C   0  0  0  0  0  0
  -25.3740  -31.3718   26.1489 C   0  0  0  0  0  0
  -27.0310  -30.3072   24.6139 C   0  0  0  0  0  0
  -27.6096  -32.4300   25.7560 C   0  0  0  0  0  0
  -27.5567  -37.1791   24.8484 C   0  0  0  0  0  0
  -21.4183  -29.3036   22.3681 N   0  0  0  0  0  0
  -26.4256  -37.3823   23.9468 N   0  0  0  0  0  0
  -24.6730  -31.0793   22.1075 N   0  0  0  0  0  0
  -23.4204  -28.8249   23.3032 O   0  0  0  0  0  0
  -28.3511  -26.6563   20.1046 O   0  0  0  0  0  0
  -26.5507  -34.8914   22.4720 O   0  0  0  0  0  0
  -23.5372  -32.1495   23.7501 O   0  0  0  0  0  0
  -29.7011  -18.0007   20.9046 C   0  0  0  0  0  0
  -28.3102  -19.9813   20.7841 C   0  0  0  0  0  0
  -26.3972  -23.9247   22.8340 C   0  0  0  0  0  0
  -25.7580  -21.1935   22.1019 C   0  0  0  0  0  0
  -30.7294  -16.9098   20.8033 C   0  0  0  0  0  0
  -27.6847  -24.2875   20.6484 C   0  0  0  0  0  0
  -28.2934  -25.6384   21.1174 C   0  0  0  0  0  0
  -27.3038  -23.2733   21.7653 C   0  0  2  0  0  0
  -26.6415  -22.0101   21.1369 C   0  0  1  0  0  0
  -28.8626  -18.1024   21.9431 N   0  0  0  0  0  0
  -28.0858  -19.2534   21.8852 N   0  0  0  0  0  0
  -27.6341  -21.1628   20.4697 N   0  0  0  0  0  0
  -30.1191  -15.5714   20.9420 N   0  0  0  0  0  0
  -29.5414  -19.3047   19.7188 S   0  0  0  0  0  0
  -31.4467  -12.3268   19.1467 H   0  0  0  0  0  0
  -30.2442  -11.2993   19.8644 H   0  0  0  0  0  0
  -29.7429  -11.7520   17.4349 H   0  0  0  0  0  0
  -29.6687  -13.4694   17.7601 H   0  0  0  0  0  0
  -27.8227  -11.3080   18.8073 H   0  0  0  0  0  0
  -27.3755  -12.6367   17.7612 H   0  0  0  0  0  0
  -27.6690  -14.2632   19.5085 H   0  0  0  0  0  0
  -28.6401  -12.0603   21.3928 H   0  0  0  0  0  0
  -28.4449  -13.7404   21.8022 H   0  0  0  0  0  0
  -25.2750   -9.5724   22.4675 H   0  0  0  0  0  0
  -24.0034   -7.4646   22.7374 H   0  0  0  0  0  0
  -21.0793   -8.8739   19.8964 H   0  0  0  0  0  0
  -22.3559  -10.9663   19.6179 H   0  0  0  0  0  0
  -21.2015   -7.6127   23.9729 H   0  0  0  0  0  0
  -21.1482   -6.0497   25.9104 H   0  0  0  0  0  0
  -22.0581   -2.7586   23.2882 H   0  0  0  0  0  0
  -22.3930  -11.9878   22.4880 H   0  0  0  0  0  0
  -21.1043  -13.1293   22.2599 H   0  0  0  0  0  0
  -24.6092  -15.8100   20.3672 H   0  0  0  0  0  0
  -26.2350  -15.6016   19.9520 H   0  0  0  0  0  0
  -26.7215  -32.5644   23.1254 H   0  0  0  0  0  0
  -25.0208  -33.9838   25.0676 H   0  0  0  0  0  0
  -22.6975  -31.3201   21.4201 H   0  0  0  0  0  0
  -23.3731  -35.9585   23.3330 H   0  0  0  0  0  0
  -24.3542  -36.8826   22.2050 H   0  0  0  0  0  0
  -23.7114  -37.6472   23.6601 H   0  0  0  0  0  0
  -26.0423  -31.6077   20.6048 H   0  0  0  0  0  0
  -26.8279  -30.8992   21.9837 H   0  0  0  0  0  0
  -28.0930  -29.0916   21.2032 H   0  0  0  0  0  0
  -26.0952  -26.0467   18.8975 H   0  0  0  0  0  0
  -23.9948  -27.3377   18.9747 H   0  0  0  0  0  0
  -23.7228  -30.6156   19.4096 H   0  0  0  0  0  0
  -22.7418  -29.2515   19.8738 H   0  0  0  0  0  0
  -25.1222  -36.2038   25.0878 H   0  0  0  0  0  0
  -21.0078  -28.3251   24.1411 H   0  0  0  0  0  0
  -20.5739  -26.2309   23.3629 H   0  0  0  0  0  0
  -21.6640  -26.7473   22.1173 H   0  0  0  0  0  0
  -19.6841  -25.6358   21.1250 H   0  0  0  0  0  0
  -19.6636  -27.3276   20.6812 H   0  0  0  0  0  0
  -17.4203  -26.6851   21.4060 H   0  0  0  0  0  0
  -18.0257  -26.0130   22.9037 H   0  0  0  0  0  0
  -19.7922  -30.7349   24.2329 H   0  0  0  0  0  0
  -17.4985  -31.6318   24.5197 H   0  0  0  0  0  0
  -15.5354  -30.3051   23.7609 H   0  0  0  0  0  0
  -15.8720  -28.0894   22.7032 H   0  0  0  0  0  0
  -24.5933  -30.7078   25.7775 H   0  0  0  0  0  0
  -24.8894  -32.2841   26.4963 H   0  0  0  0  0  0
  -25.8030  -30.8851   27.0250 H   0  0  0  0  0  0
  -26.2815  -29.6815   24.1279 H   0  0  0  0  0  0
  -27.4164  -29.7365   25.4604 H   0  0  0  0  0  0
  -27.8630  -30.4413   23.9225 H   0  0  0  0  0  0
  -27.2784  -33.3583   26.2227 H   0  0  0  0  0  0
  -28.3875  -32.6874   25.0363 H   0  0  0  0  0  0
  -28.0806  -31.8366   26.5409 H   0  0  0  0  0  0
  -28.2616  -38.0062   24.7558 H   0  0  0  0  0  0
  -28.1025  -36.2604   24.6278 H   0  0  0  0  0  0
  -27.2304  -37.1411   25.8890 H   0  0  0  0  0  0
  -20.9356  -29.8748   21.6873 H   0  0  0  0  0  0
  -26.0153  -38.2905   24.1507 H   0  0  0  0  0  0
  -26.8902  -24.7339   23.3686 H   0  0  0  0  0  0
  -26.1251  -23.2266   23.6237 H   0  0  0  0  0  0
  -25.4776  -24.3078   22.3911 H   0  0  0  0  0  0
  -26.2878  -20.9575   23.0261 H   0  0  0  0  0  0
  -25.4366  -20.2528   21.6536 H   0  0  0  0  0  0
  -24.8485  -21.7326   22.3717 H   0  0  0  0  0  0
  -31.2644  -17.0133   19.8528 H   0  0  0  0  0  0
  -31.4717  -17.0709   21.5866 H   0  0  0  0  0  0
  -28.3944  -23.8194   19.9655 H   0  0  0  0  0  0
  -26.7842  -24.4549   20.0655 H   0  0  0  0  0  0
  -29.3056  -25.4632   21.4787 H   0  0  0  0  0  0
  -27.7434  -26.0403   21.9691 H   0  0  0  0  0  0
  -28.2137  -22.9637   22.2809 H   0  0  0  0  0  0
  -25.9612  -22.3568   20.3585 H   0  0  0  0  0  0
  -27.8440  -21.4799   19.5294 H   0  0  0  0  0  0
  -29.1539  -15.5191   21.2303 H   0  0  0  0  0  0
  1 25  1  0  0  0
  1 30  2  0  0  0
  1 83  1  0  0  0
  2  3  1  0  0  0
  2 25  1  0  0  0
  2 85  1  0  0  0
  2 86  1  0  0  0
  3  4  1  0  0  0
  3 87  1  0  0  0
  3 88  1  0  0  0
  4  5  1  0  0  0
  4 89  1  0  0  0
  4 90  1  0  0  0
  5  6  1  0  0  0
  5 26  1  0  0  0
  5 91  1  0  0  0
  6 25  1  0  0  0
  6 92  1  0  0  0
  6 93  1  0  0  0
  7  8  2  0  0  0
  7 26  1  0  0  0
  7 29  1  0  0  0
  8  9  1  0  0  0
  8 22  1  0  0  0
  9 10  1  0  0  0
  9 27  2  0  0  0
 10 11  2  0  0  0
 10 15  1  0  0  0
 11 12  1  0  0  0
 11 94  1  0  0  0
 12 13  2  0  0  0
 12 95  1  0  0  0
 13 14  1  0  0  0
 13 31  1  0  0  0
 14 15  2  0  0  0
 14 96  1  0  0  0
 15 97  1  0  0  0
 16 17  2  0  0  0
 16 21  1  0  0  0
 16 31  1  0  0  0
 17 18  1  0  0  0
 17 98  1  0  0  0
 18 19  2  0  0  0
 18 99  1  0  0  0
 19 20  1  0  0  0
 19 24  1  0  0  0
 20 21  2  0  0  0
 20100  1  0  0  0
 21 23  1  0  0  0
 22 28  1  0  0  0
 22 32  2  0  0  0
 26 27  1  0  0  0
 28101  1  0  0  0
 28102  1  0  0  0
 29103  1  0  0  0
 29104  1  0  0  0
 33 34  1  0  0  0
 33 66  1  0  0  0
 33 70  2  0  0  0
 34 36  1  0  0  0
 34 59  1  0  0  0
 34105  1  0  0  0
 35 44  2  0  0  0
 35 45  1  0  0  0
 35 68  1  0  0  0
 36 56  1  0  0  0
 36106  1  0  0  0
 37 39  1  0  0  0
 37 47  1  0  0  0
 37 66  1  0  0  0
 37107  1  0  0  0
 38 43  2  0  0  0
 38 46  1  0  0  0
 38 47  1  0  0  0
 39 64  1  0  0  0
 39 67  2  0  0  0
 40 52  1  0  0  0
 40 53  2  0  0  0
 40 58  1  0  0  0
 41108  1  0  0  0
 41109  1  0  0  0
 41110  1  0  0  0
 41 48  1  0  0  0
 42 43  1  0  0  0
 42 66  1  0  0  0
 42111  1  0  0  0
 42112  1  0  0  0
 43 44  1  0  0  0
 44113  1  0  0  0
 45 46  2  0  0  0
 45114  1  0  0  0
 46115  1  0  0  0
 47116  1  0  0  0
 47117  1  0  0  0
 48 56  1  0  0  0
 48 65  1  0  0  0
 48118  1  0  0  0
 49 50  1  0  0  0
 49 53  1  0  0  0
 49 64  1  0  0  0
 49119  1  0  0  0
 50 51  1  0  0  0
 50120  1  0  0  0
 50121  1  0  0  0
 51 52  1  0  0  0
 51122  1  0  0  0
 51123  1  0  0  0
 52124  1  0  0  0
 52125  1  0  0  0
 53 54  1  0  0  0
 54 55  2  0  0  0
 54126  1  0  0  0
 55 57  1  0  0  0
 55127  1  0  0  0
 56 69  2  0  0  0
 57 58  2  0  0  0
 57128  1  0  0  0
 58129  1  0  0  0
 59 60  1  0  0  0
 59 61  1  0  0  0
 59 62  1  0  0  0
 60130  1  0  0  0
 60131  1  0  0  0
 60132  1  0  0  0
 61133  1  0  0  0
 61134  1  0  0  0
 61135  1  0  0  0
 62136  1  0  0  0
 62137  1  0  0  0
 62138  1  0  0  0
 63 65  1  0  0  0
 63139  1  0  0  0
 63140  1  0  0  0
 63141  1  0  0  0
 64142  1  0  0  0
 65143  1  0  0  0
 68 77  1  0  0  0
 71 75  1  0  0  0
 71 80  2  0  0  0
 71 84  1  0  0  0
 72 81  2  0  0  0
 72 82  1  0  0  0
 72 84  1  0  0  0
 73144  1  0  0  0
 73145  1  0  0  0
 73146  1  0  0  0
 73 78  1  0  0  0
 74147  1  0  0  0
 74148  1  0  0  0
 74149  1  0  0  0
 74 79  1  0  0  0
 75 83  1  0  0  0
 75150  1  0  0  0
 75151  1  0  0  0
 76 77  1  0  0  0
 76 78  1  0  0  0
 76152  1  0  0  0
 76153  1  0  0  0
 77154  1  0  0  0
 77155  1  0  0  0
 78 79  1  0  0  0
 78156  1  0  0  0
 79 82  1  0  0  0
 79157  1  0  0  0
 80 81  1  0  0  0
 82158  1  0  0  0
 83159  1  0  0  0
M  ISO  4   1 100  68 101  77 101  83 100
M  END
> <chiral flag>
0

> <version>
0

> <s_m_source_file>
/data/baiqing/PycharmProjects/Reinvent-master-3.2/result/LINK_invent/BTK/process_docking_weight1_custom_product_contain_oxygen_bond_distance_aromatic_linkinvent_7_9_3/rearranged_h_0190.sdf

> <i_m_source_file_index>
55

> <r_mmod_Potential_Energy-OPLS-2005>
-207.001586914062

> <r_mmod_Stretch_Energy-OPLS-2005>
35.8103637695312

> <r_mmod_Bend_Energy-OPLS-2005>
102.016815185547

> <r_mmod_Torsional_Energy-OPLS-2005>
232.946350097656

> <r_mmod_Improper_Torsional_Energy-OPLS-2005>
5.56365776062012

> <r_mmod_Van_der_Waal_Energy-OPLS-2005>
139.530242919922

> <r_mmod_Electrostatic_Energy-OPLS-2005>
-521.228454589844

> <r_mmod_Solvation_Energy-OPLS-2005>
-221.693054199219

> <b_mmod_Minimization_Converged-OPLS-2005>
0

> <r_mmod_RMS_Derivative-OPLS-2005>
6.4140567779541

$$$$
55
                    3D
 Structure written by MMmdl.
152160  0  0  1  0            999 V2000
  -30.7058  -14.4682   20.5762 C   0  0  0  0  0  0
  -30.4183  -12.3007   19.4291 C   0  0  0  0  0  0
  -29.4949  -12.5016   18.2100 C   0  0  0  0  0  0
  -28.0163  -12.3589   18.6202 C   0  0  0  0  0  0
  -27.6594  -13.2084   19.8686 C   0  0  2  0  0  0
  -28.6995  -13.0154   20.9943 C   0  0  0  0  0  0
  -25.2595  -13.8166   20.5677 C   0  0  0  0  0  0
  -24.1842  -13.0442   20.9171 C   0  0  0  0  0  0
  -24.6398  -11.6911   20.8727 C   0  0  0  0  0  0
  -23.9068  -10.4293   21.0404 C   0  0  0  0  0  0
  -24.3623   -9.4214   21.9183 C   0  0  0  0  0  0
  -23.6299   -8.2247   22.0754 C   0  0  0  0  0  0
  -22.4281   -8.0282   21.3542 C   0  0  0  0  0  0
  -21.9912   -9.0256   20.4647 C   0  0  0  0  0  0
  -22.7239  -10.2136   20.3055 C   0  0  0  0  0  0
  -21.6857   -6.0738   22.5282 C   0  0  0  0  0  0
  -21.4013   -6.5643   23.8213 C   0  0  0  0  0  0
  -21.3654   -5.6795   24.9175 C   0  0  0  0  0  0
  -21.6042   -4.3057   24.7224 C   0  0  0  0  0  0
  -21.8819   -3.8149   23.4344 C   0  0  0  0  0  0
  -21.9198   -4.6966   22.3404 C   0  0  0  0  0  0
  -22.7867  -13.5246   21.1842 C   0  0  0  0  0  0
  -22.1665   -4.2155   21.0977 F   0  0  0  0  0  0
  -21.5630   -3.4537   25.7731 F   0  0  0  0  0  0
  -30.0330  -13.2934   20.4445 N   0  0  0  0  0  0
  -26.3021  -12.9336   20.3339 N   0  0  0  0  0  0
  -25.9324  -11.6498   20.5755 N   0  0  0  0  0  0
  -22.0511  -12.8224   22.0399 N   0  0  0  0  0  0
  -25.4352  -15.1880   20.4107 N   0  0  0  0  0  0
  -31.8409  -14.6139   20.1126 O   0  0  0  0  0  0
  -21.6647   -6.8878   21.4238 O   0  0  0  0  0  0
  -22.3548  -14.5560   20.6709 O   0  0  0  0  0  0
  -24.6139  -31.8685   23.2094 C   0  0  0  0  0  0
  -25.9038  -32.4825   23.8397 C   0  0  1  0  0  0
  -27.2376  -27.4454   20.1001 C   0  0  0  0  0  0
  -25.5906  -33.8624   24.2330 N   0  0  0  0  0  0
  -23.4015  -30.4903   21.5501 C   0  0  2  0  0  0
  -24.8482  -28.9510   20.1203 C   0  0  0  0  0  0
  -22.7403  -29.4663   22.5001 C   0  0  0  0  0  0
  -18.0272  -28.1383   22.8491 C   0  0  0  0  0  0
  -24.1487  -36.7311   23.2641 C   0  0  0  0  0  0
  -25.9278  -30.8377   21.3589 C   0  0  0  0  0  0
  -26.0075  -29.4706   20.7107 C   0  0  0  0  0  0
  -27.2080  -28.7262   20.6941 C   0  0  0  0  0  0
  -26.0632  -26.9312   19.5130 C   0  0  0  0  0  0
  -24.8694  -27.6789   19.5198 C   0  0  0  0  0  0
  -23.6088  -29.8168   20.1667 C   0  0  0  0  0  0
  -25.4110  -36.3113   24.0342 C   0  0  1  0  0  0
  -20.5860  -28.3663   23.1325 C   0  0  2  0  0  0
  -20.6756  -26.9399   22.5425 C   0  0  0  0  0  0
  -19.5740  -26.6382   21.5214 C   0  0  0  0  0  0
  -18.1913  -26.7936   22.1609 C   0  0  0  0  0  0
  -19.1522  -28.8841   23.2902 C   0  0  0  0  0  0
  -18.9450  -30.1446   23.8917 C   0  0  0  0  0  0
  -17.6450  -30.6584   24.0576 C   0  0  0  0  0  0
  -25.9036  -34.9480   23.5129 C   0  0  0  0  0  0
  -16.5341  -29.9084   23.6336 C   0  0  0  0  0  0
  -16.7259  -28.6504   23.0352 C   0  0  0  0  0  0
  -26.4466  -31.6608   25.0726 C   0  0  0  0  0  0
  -25.3740  -31.3715   26.1482 C   0  0  0  0  0  0
  -27.0289  -30.3052   24.6091 C   0  0  0  0  0  0
  -27.6054  -32.4327   25.7478 C   0  0  0  0  0  0
  -27.5582  -37.1806   24.8465 C   0  0  0  0  0  0
  -21.4135  -29.3028   22.3729 N   0  0  0  0  0  0
  -26.4296  -37.3798   23.9411 N   0  0  0  0  0  0
  -24.6659  -31.0801   22.0981 N   0  0  0  0  0  0
  -23.4175  -28.8220   23.3055 O   0  0  0  0  0  0
  -28.4061  -26.7235   20.0542 O   0  0  0  0  0  0
  -26.5596  -34.8935   22.4688 O   0  0  0  0  0  0
  -23.5336  -32.1423   23.7503 O   0  0  0  0  0  0
  -29.6828  -18.9209   22.4221 C   0  0  0  0  0  0
  -30.1271  -18.3284   21.2665 C   0  0  0  0  0  0
  -29.2067  -20.6380   20.9619 C   0  0  0  0  0  0
  -29.0367  -22.9894   20.8775 C   0  0  0  0  0  0
  -28.5204  -24.2504   20.1680 C   0  0  0  0  0  0
  -29.8814  -23.2545   22.1274 C   0  0  0  0  0  0
  -30.8477  -17.0143   21.0925 C   0  0  0  0  0  0
  -28.4655  -25.5920   20.9393 C   0  0  0  0  0  0
  -29.9948  -15.7150   21.1682 C   0  0  0  0  0  0
  -29.1499  -20.2055   22.2303 N   0  0  0  0  0  0
  -28.8037  -21.8123   20.4052 N   0  0  0  0  0  0
  -28.1165  -24.2059   18.9979 O   0  0  0  0  0  0
  -29.8239  -19.3702   19.8947 S   0  0  0  0  0  0
  -31.4640  -12.3874   19.1294 H   0  0  0  0  0  0
  -30.3088  -11.2928   19.8320 H   0  0  0  0  0  0
  -29.7364  -11.7787   17.4300 H   0  0  0  0  0  0
  -29.6635  -13.4888   17.7761 H   0  0  0  0  0  0
  -27.8280  -11.3038   18.8221 H   0  0  0  0  0  0
  -27.3658  -12.6267   17.7874 H   0  0  0  0  0  0
  -27.6964  -14.2513   19.5547 H   0  0  0  0  0  0
  -28.6668  -11.9932   21.3731 H   0  0  0  0  0  0
  -28.4619  -13.6502   21.8475 H   0  0  0  0  0  0
  -25.2773   -9.5686   22.4753 H   0  0  0  0  0  0
  -24.0012   -7.4637   22.7470 H   0  0  0  0  0  0
  -21.0846   -8.8777   19.8949 H   0  0  0  0  0  0
  -22.3709  -10.9677   19.6160 H   0  0  0  0  0  0
  -21.1999   -7.6155   23.9716 H   0  0  0  0  0  0
  -21.1472   -6.0526   25.9078 H   0  0  0  0  0  0
  -22.0601   -2.7612   23.2844 H   0  0  0  0  0  0
  -22.4129  -11.9879   22.4768 H   0  0  0  0  0  0
  -21.1134  -13.1244   22.2623 H   0  0  0  0  0  0
  -24.6748  -15.8490   20.5254 H   0  0  0  0  0  0
  -26.2987  -15.6261   20.1133 H   0  0  0  0  0  0
  -26.7121  -32.5539   23.1178 H   0  0  0  0  0  0
  -25.0104  -33.9794   25.0508 H   0  0  0  0  0  0
  -22.6903  -31.3066   21.4096 H   0  0  0  0  0  0
  -23.3757  -35.9635   23.3310 H   0  0  0  0  0  0
  -24.3594  -36.8913   22.2054 H   0  0  0  0  0  0
  -23.7223  -37.6513   23.6649 H   0  0  0  0  0  0
  -26.0361  -31.6020   20.5882 H   0  0  0  0  0  0
  -26.8170  -30.8931   21.9756 H   0  0  0  0  0  0
  -28.1081  -29.1297   21.1372 H   0  0  0  0  0  0
  -26.0728  -25.9588   19.0421 H   0  0  0  0  0  0
  -23.9778  -27.2724   19.0625 H   0  0  0  0  0  0
  -23.7177  -30.5894   19.4052 H   0  0  0  0  0  0
  -22.7325  -29.2362   19.8719 H   0  0  0  0  0  0
  -25.1286  -36.1976   25.0838 H   0  0  0  0  0  0
  -20.9943  -28.3221   24.1451 H   0  0  0  0  0  0
  -20.5650  -26.2274   23.3612 H   0  0  0  0  0  0
  -21.6626  -26.7435   22.1217 H   0  0  0  0  0  0
  -19.6897  -25.6292   21.1239 H   0  0  0  0  0  0
  -19.6693  -27.3206   20.6756 H   0  0  0  0  0  0
  -17.4188  -26.6715   21.4001 H   0  0  0  0  0  0
  -18.0290  -26.0061   22.8983 H   0  0  0  0  0  0
  -19.7925  -30.7260   24.2290 H   0  0  0  0  0  0
  -17.5004  -31.6272   24.5163 H   0  0  0  0  0  0
  -15.5345  -30.2994   23.7653 H   0  0  0  0  0  0
  -15.8656  -28.0833   22.7064 H   0  0  0  0  0  0
  -24.5948  -30.7008   25.7842 H   0  0  0  0  0  0
  -24.8892  -32.2862   26.4902 H   0  0  0  0  0  0
  -25.8107  -30.8934   27.0256 H   0  0  0  0  0  0
  -26.2819  -29.6812   24.1167 H   0  0  0  0  0  0
  -27.4082  -29.7291   25.4540 H   0  0  0  0  0  0
  -27.8645  -30.4384   23.9216 H   0  0  0  0  0  0
  -27.2692  -33.3634   26.2064 H   0  0  0  0  0  0
  -28.3854  -32.6867   25.0288 H   0  0  0  0  0  0
  -28.0726  -31.8441   26.5383 H   0  0  0  0  0  0
  -28.2601  -38.0102   24.7511 H   0  0  0  0  0  0
  -28.1074  -36.2635   24.6285 H   0  0  0  0  0  0
  -27.2313  -37.1432   25.8873 H   0  0  0  0  0  0
  -20.9298  -29.8754   21.6952 H   0  0  0  0  0  0
  -26.0185  -38.2872   24.1432 H   0  0  0  0  0  0
  -29.7355  -18.5154   23.4232 H   0  0  0  0  0  0
  -30.6011  -24.0524   21.9456 H   0  0  0  0  0  0
  -30.4795  -22.3971   22.4254 H   0  0  0  0  0  0
  -29.2437  -23.5381   22.9642 H   0  0  0  0  0  0
  -31.6440  -16.9497   21.8351 H   0  0  0  0  0  0
  -31.3623  -17.0541   20.1312 H   0  0  0  0  0  0
  -29.3543  -25.7203   21.5537 H   0  0  0  0  0  0
  -27.6138  -25.5788   21.6210 H   0  0  0  0  0  0
  -29.0774  -15.8672   20.6005 H   0  0  0  0  0  0
  -29.7040  -15.5254   22.2012 H   0  0  0  0  0  0
  1 25  1  0  0  0
  1 30  2  0  0  0
  1 79  1  0  0  0
  2  3  1  0  0  0
  2 25  1  0  0  0
  2 84  1  0  0  0
  2 85  1  0  0  0
  3  4  1  0  0  0
  3 86  1  0  0  0
  3 87  1  0  0  0
  4  5  1  0  0  0
  4 88  1  0  0  0
  4 89  1  0  0  0
  5  6  1  0  0  0
  5 26  1  0  0  0
  5 90  1  0  0  0
  6 25  1  0  0  0
  6 91  1  0  0  0
  6 92  1  0  0  0
  7  8  2  0  0  0
  7 26  1  0  0  0
  7 29  1  0  0  0
  8  9  1  0  0  0
  8 22  1  0  0  0
  9 10  1  0  0  0
  9 27  2  0  0  0
 10 11  2  0  0  0
 10 15  1  0  0  0
 11 12  1  0  0  0
 11 93  1  0  0  0
 12 13  2  0  0  0
 12 94  1  0  0  0
 13 14  1  0  0  0
 13 31  1  0  0  0
 14 15  2  0  0  0
 14 95  1  0  0  0
 15 96  1  0  0  0
 16 17  2  0  0  0
 16 21  1  0  0  0
 16 31  1  0  0  0
 17 18  1  0  0  0
 17 97  1  0  0  0
 18 19  2  0  0  0
 18 98  1  0  0  0
 19 20  1  0  0  0
 19 24  1  0  0  0
 20 21  2  0  0  0
 20 99  1  0  0  0
 21 23  1  0  0  0
 22 28  1  0  0  0
 22 32  2  0  0  0
 26 27  1  0  0  0
 28100  1  0  0  0
 28101  1  0  0  0
 29102  1  0  0  0
 29103  1  0  0  0
 33 34  1  0  0  0
 33 66  1  0  0  0
 33 70  2  0  0  0
 34 36  1  0  0  0
 34 59  1  0  0  0
 34104  1  0  0  0
 35 44  2  0  0  0
 35 45  1  0  0  0
 35 68  1  0  0  0
 36 56  1  0  0  0
 36105  1  0  0  0
 37 39  1  0  0  0
 37 47  1  0  0  0
 37 66  1  0  0  0
 37106  1  0  0  0
 38 43  2  0  0  0
 38 46  1  0  0  0
 38 47  1  0  0  0
 39 64  1  0  0  0
 39 67  2  0  0  0
 40 52  1  0  0  0
 40 53  2  0  0  0
 40 58  1  0  0  0
 41107  1  0  0  0
 41108  1  0  0  0
 41109  1  0  0  0
 41 48  1  0  0  0
 42 43  1  0  0  0
 42 66  1  0  0  0
 42110  1  0  0  0
 42111  1  0  0  0
 43 44  1  0  0  0
 44112  1  0  0  0
 45 46  2  0  0  0
 45113  1  0  0  0
 46114  1  0  0  0
 47115  1  0  0  0
 47116  1  0  0  0
 48 56  1  0  0  0
 48 65  1  0  0  0
 48117  1  0  0  0
 49 50  1  0  0  0
 49 53  1  0  0  0
 49 64  1  0  0  0
 49118  1  0  0  0
 50 51  1  0  0  0
 50119  1  0  0  0
 50120  1  0  0  0
 51 52  1  0  0  0
 51121  1  0  0  0
 51122  1  0  0  0
 52123  1  0  0  0
 52124  1  0  0  0
 53 54  1  0  0  0
 54 55  2  0  0  0
 54125  1  0  0  0
 55 57  1  0  0  0
 55126  1  0  0  0
 56 69  2  0  0  0
 57 58  2  0  0  0
 57127  1  0  0  0
 58128  1  0  0  0
 59 60  1  0  0  0
 59 61  1  0  0  0
 59 62  1  0  0  0
 60129  1  0  0  0
 60130  1  0  0  0
 60131  1  0  0  0
 61132  1  0  0  0
 61133  1  0  0  0
 61134  1  0  0  0
 62135  1  0  0  0
 62136  1  0  0  0
 62137  1  0  0  0
 63 65  1  0  0  0
 63138  1  0  0  0
 63139  1  0  0  0
 63140  1  0  0  0
 64141  1  0  0  0
 65142  1  0  0  0
 68 78  1  0  0  0
 71 72  2  0  0  0
 71 80  1  0  0  0
 71143  1  0  0  0
 72 77  1  0  0  0
 72 83  1  0  0  0
 73 80  2  0  0  0
 73 81  1  0  0  0
 73 83  1  0  0  0
 74 75  1  0  0  0
 74 76  1  0  0  0
 74 81  2  0  0  0
 75 78  1  0  0  0
 75 82  2  0  0  0
 76144  1  0  0  0
 76145  1  0  0  0
 76146  1  0  0  0
 77 79  1  0  0  0
 77147  1  0  0  0
 77148  1  0  0  0
 78149  1  0  0  0
 78150  1  0  0  0
 79151  1  0  0  0
 79152  1  0  0  0
M  ISO  4   1 100  68 101  78 101  79 100
M  END
> <chiral flag>
0

> <version>
0

> <s_m_source_file>
/data/baiqing/PycharmProjects/Reinvent-master-3.2/result/LINK_invent/BTK/process_docking_weight1_custom_product_contain_oxygen_bond_distance_aromatic_linkinvent_7_9_3/rearranged_h_0190.sdf

> <i_m_source_file_index>
56

> <r_mmod_Potential_Energy-OPLS-2005>
-36.2356834411621

> <r_mmod_Stretch_Energy-OPLS-2005>
38.7116470336914

> <r_mmod_Bend_Energy-OPLS-2005>
110.330444335938

> <r_mmod_Torsional_Energy-OPLS-2005>
202.004943847656

> <r_mmod_Improper_Torsional_Energy-OPLS-2005>
3.67422294616699

> <r_mmod_Van_der_Waal_Energy-OPLS-2005>
134.721054077148

> <r_mmod_Electrostatic_Energy-OPLS-2005>
-311.704528808594

> <r_mmod_Solvation_Energy-OPLS-2005>
-225.931427001953

> <b_mmod_Minimization_Converged-OPLS-2005>
0

> <r_mmod_RMS_Derivative-OPLS-2005>
1.12151837348938

$$$$
56
                    3D
 Structure written by MMmdl.
151159  0  0  1  0            999 V2000
  -30.6090  -14.7872   20.4374 C   0  0  0  0  0  0
  -30.4323  -12.4740   19.4996 C   0  0  0  0  0  0
  -29.5195  -12.5113   18.2539 C   0  0  0  0  0  0
  -28.0456  -12.3298   18.6616 C   0  0  0  0  0  0
  -27.6425  -13.2397   19.8531 C   0  0  2  0  0  0
  -28.6837  -13.1993   20.9955 C   0  0  0  0  0  0
  -25.2507  -13.8210   20.5697 C   0  0  0  0  0  0
  -24.1808  -13.0446   20.9212 C   0  0  0  0  0  0
  -24.6406  -11.6922   20.8745 C   0  0  0  0  0  0
  -23.9083  -10.4294   21.0400 C   0  0  0  0  0  0
  -24.3626   -9.4208   21.9184 C   0  0  0  0  0  0
  -23.6297   -8.2244   22.0752 C   0  0  0  0  0  0
  -22.4282   -8.0282   21.3538 C   0  0  0  0  0  0
  -21.9920   -9.0258   20.4644 C   0  0  0  0  0  0
  -22.7252  -10.2136   20.3054 C   0  0  0  0  0  0
  -21.6853   -6.0734   22.5279 C   0  0  0  0  0  0
  -21.4015   -6.5637   23.8213 C   0  0  0  0  0  0
  -21.3658   -5.6790   24.9175 C   0  0  0  0  0  0
  -21.6047   -4.3052   24.7228 C   0  0  0  0  0  0
  -21.8817   -3.8142   23.4349 C   0  0  0  0  0  0
  -21.9191   -4.6960   22.3403 C   0  0  0  0  0  0
  -22.7822  -13.5221   21.1858 C   0  0  0  0  0  0
  -22.1658   -4.2143   21.0980 F   0  0  0  0  0  0
  -21.5629   -3.4536   25.7741 F   0  0  0  0  0  0
  -29.9862  -13.5531   20.4184 N   0  0  0  0  0  0
  -26.2945  -12.9438   20.3288 N   0  0  0  0  0  0
  -25.9343  -11.6567   20.5760 N   0  0  0  0  0  0
  -22.0459  -12.8220   22.0421 N   0  0  0  0  0  0
  -25.4186  -15.1939   20.4099 N   0  0  0  0  0  0
  -31.7850  -14.8662   20.0736 O   0  0  0  0  0  0
  -21.6640   -6.8881   21.4241 O   0  0  0  0  0  0
  -22.3505  -14.5522   20.6694 O   0  0  0  0  0  0
  -24.6354  -31.8523   23.1977 C   0  0  0  0  0  0
  -25.9165  -32.4743   23.8330 C   0  0  1  0  0  0
  -27.2090  -27.2143   20.1469 C   0  0  0  0  0  0
  -25.5956  -33.8547   24.2247 N   0  0  0  0  0  0
  -23.4355  -30.4753   21.5398 C   0  0  2  0  0  0
  -24.8858  -28.9226   20.1061 C   0  0  0  0  0  0
  -22.7530  -29.4589   22.4882 C   0  0  0  0  0  0
  -18.0303  -28.1410   22.8480 C   0  0  0  0  0  0
  -24.1488  -36.7268   23.2635 C   0  0  0  0  0  0
  -25.9855  -30.7473   21.3913 C   0  0  0  0  0  0
  -26.0555  -29.3649   20.7385 C   0  0  0  0  0  0
  -27.2192  -28.5203   20.7569 C   0  0  0  0  0  0
  -26.0429  -26.8912   19.4216 C   0  0  0  0  0  0
  -24.8870  -27.6936   19.4325 C   0  0  0  0  0  0
  -23.6585  -29.8132   20.1547 C   0  0  0  0  0  0
  -25.4119  -36.3059   24.0319 C   0  0  1  0  0  0
  -20.5910  -28.3723   23.1253 C   0  0  2  0  0  0
  -20.6793  -26.9436   22.5403 C   0  0  0  0  0  0
  -19.5763  -26.6398   21.5211 C   0  0  0  0  0  0
  -18.1945  -26.7950   22.1624 C   0  0  0  0  0  0
  -19.1558  -28.8883   23.2860 C   0  0  0  0  0  0
  -18.9478  -30.1481   23.8881 C   0  0  0  0  0  0
  -17.6477  -30.6602   24.0570 C   0  0  0  0  0  0
  -25.9064  -34.9432   23.5082 C   0  0  0  0  0  0
  -16.5368  -29.9102   23.6339 C   0  0  0  0  0  0
  -16.7288  -28.6525   23.0350 C   0  0  0  0  0  0
  -26.4516  -31.6582   25.0734 C   0  0  0  0  0  0
  -25.3727  -31.3750   26.1446 C   0  0  0  0  0  0
  -27.0372  -30.2991   24.6261 C   0  0  0  0  0  0
  -27.6063  -32.4329   25.7514 C   0  0  0  0  0  0
  -27.5576  -37.1796   24.8469 C   0  0  0  0  0  0
  -21.4233  -29.3055   22.3623 N   0  0  0  0  0  0
  -26.4290  -37.3765   23.9409 N   0  0  0  0  0  0
  -24.7042  -31.0451   22.0979 N   0  0  0  0  0  0
  -23.4205  -28.8125   23.2999 O   0  0  0  0  0  0
  -28.2585  -26.2494   20.1845 O   0  0  0  0  0  0
  -26.5628  -34.8911   22.4645 O   0  0  0  0  0  0
  -23.5492  -32.1372   23.7235 O   0  0  0  0  0  0
  -28.8799  -19.7100   20.1089 C   0  0  0  0  0  0
  -30.8278  -19.4177   20.9703 C   0  0  0  0  0  0
  -29.3475  -20.9787   20.5227 C   0  0  0  0  0  0
  -29.0448  -23.6299   20.4303 C   0  0  0  0  0  0
  -26.5736  -24.3185   20.8164 C   0  0  0  0  0  0
  -29.9985  -17.2539   19.8058 C   0  0  0  0  0  0
  -28.0259  -24.8512   20.7817 C   0  0  1  0  0  0
  -30.6036  -20.7437   21.0909 N   0  0  0  0  0  0
  -29.8696  -18.6946   20.3514 N   0  0  0  0  0  0
  -28.6330  -22.2907   20.4615 N   0  0  0  0  0  0
  -29.8561  -15.9499   20.6149 N   0  0  0  0  0  0
  -30.2081  -23.9211   20.1397 O   0  0  0  0  0  0
  -31.4763  -12.5840   19.2013 H   0  0  0  0  0  0
  -30.3696  -11.5035   19.9941 H   0  0  0  0  0  0
  -29.8112  -11.7320   17.5483 H   0  0  0  0  0  0
  -29.6476  -13.4619   17.7337 H   0  0  0  0  0  0
  -27.9110  -11.2830   18.9362 H   0  0  0  0  0  0
  -27.3902  -12.5040   17.8079 H   0  0  0  0  0  0
  -27.6304  -14.2573   19.4611 H   0  0  0  0  0  0
  -28.7241  -12.2091   21.4518 H   0  0  0  0  0  0
  -28.4114  -13.8924   21.7925 H   0  0  0  0  0  0
  -25.2767   -9.5680   22.4767 H   0  0  0  0  0  0
  -23.9991   -7.4640   22.7479 H   0  0  0  0  0  0
  -21.0845   -8.8783   19.8961 H   0  0  0  0  0  0
  -22.3706  -10.9672   19.6162 H   0  0  0  0  0  0
  -21.2010   -7.6144   23.9715 H   0  0  0  0  0  0
  -21.1483   -6.0520   25.9079 H   0  0  0  0  0  0
  -22.0599   -2.7604   23.2852 H   0  0  0  0  0  0
  -22.4058  -11.9880   22.4823 H   0  0  0  0  0  0
  -21.1073  -13.1246   22.2607 H   0  0  0  0  0  0
  -24.6499  -15.8466   20.5215 H   0  0  0  0  0  0
  -26.2629  -15.6331   20.0663 H   0  0  0  0  0  0
  -26.7228  -32.5383   23.1065 H   0  0  0  0  0  0
  -25.0142  -33.9684   25.0420 H   0  0  0  0  0  0
  -22.7337  -31.2988   21.3930 H   0  0  0  0  0  0
  -23.3757  -35.9594   23.3302 H   0  0  0  0  0  0
  -24.3575  -36.8886   22.2049 H   0  0  0  0  0  0
  -23.7235  -37.6466   23.6658 H   0  0  0  0  0  0
  -26.1318  -31.5022   20.6180 H   0  0  0  0  0  0
  -26.8599  -30.7981   22.0279 H   0  0  0  0  0  0
  -28.1067  -28.8450   21.2815 H   0  0  0  0  0  0
  -26.0063  -25.9757   18.8522 H   0  0  0  0  0  0
  -24.0066  -27.3645   18.8976 H   0  0  0  0  0  0
  -23.7854  -30.5907   19.4001 H   0  0  0  0  0  0
  -22.7769  -29.2486   19.8468 H   0  0  0  0  0  0
  -25.1302  -36.1898   25.0812 H   0  0  0  0  0  0
  -21.0004  -28.3313   24.1372 H   0  0  0  0  0  0
  -20.5703  -26.2333   23.3614 H   0  0  0  0  0  0
  -21.6661  -26.7462   22.1189 H   0  0  0  0  0  0
  -19.6920  -25.6302   21.1255 H   0  0  0  0  0  0
  -19.6704  -27.3197   20.6731 H   0  0  0  0  0  0
  -17.4215  -26.6693   21.4030 H   0  0  0  0  0  0
  -18.0346  -26.0104   22.9033 H   0  0  0  0  0  0
  -19.7954  -30.7305   24.2239 H   0  0  0  0  0  0
  -17.5033  -31.6277   24.5179 H   0  0  0  0  0  0
  -15.5369  -30.3002   23.7673 H   0  0  0  0  0  0
  -15.8689  -28.0845   22.7064 H   0  0  0  0  0  0
  -24.5918  -30.7072   25.7784 H   0  0  0  0  0  0
  -24.8899  -32.2924   26.4825 H   0  0  0  0  0  0
  -25.8045  -30.8973   27.0250 H   0  0  0  0  0  0
  -26.2976  -29.6734   24.1253 H   0  0  0  0  0  0
  -27.3997  -29.7262   25.4807 H   0  0  0  0  0  0
  -27.8881  -30.4251   23.9562 H   0  0  0  0  0  0
  -27.2668  -33.3640   26.2065 H   0  0  0  0  0  0
  -28.3901  -32.6867   25.0363 H   0  0  0  0  0  0
  -28.0700  -31.8465   26.5458 H   0  0  0  0  0  0
  -28.2598  -38.0088   24.7516 H   0  0  0  0  0  0
  -28.1066  -36.2622   24.6302 H   0  0  0  0  0  0
  -27.2294  -37.1457   25.8871 H   0  0  0  0  0  0
  -20.9427  -29.8768   21.6814 H   0  0  0  0  0  0
  -26.0160  -38.2831   24.1425 H   0  0  0  0  0  0
  -27.9589  -19.4574   19.6009 H   0  0  0  0  0  0
  -31.7658  -18.9713   21.2715 H   0  0  0  0  0  0
  -25.8864  -25.0388   21.2591 H   0  0  0  0  0  0
  -26.2164  -24.0447   19.8245 H   0  0  0  0  0  0
  -26.4877  -23.4312   21.4435 H   0  0  0  0  0  0
  -30.9615  -17.2181   19.2935 H   0  0  0  0  0  0
  -29.2699  -17.1714   18.9989 H   0  0  0  0  0  0
  -28.2576  -25.0330   21.8314 H   0  0  0  0  0  0
  -27.6278  -22.2059   20.5112 H   0  0  0  0  0  0
  -28.9337  -15.7959   20.9936 H   0  0  0  0  0  0
  1 25  1  0  0  0
  1 30  2  0  0  0
  1 81  1  0  0  0
  2  3  1  0  0  0
  2 25  1  0  0  0
  2 83  1  0  0  0
  2 84  1  0  0  0
  3  4  1  0  0  0
  3 85  1  0  0  0
  3 86  1  0  0  0
  4  5  1  0  0  0
  4 87  1  0  0  0
  4 88  1  0  0  0
  5  6  1  0  0  0
  5 26  1  0  0  0
  5 89  1  0  0  0
  6 25  1  0  0  0
  6 90  1  0  0  0
  6 91  1  0  0  0
  7  8  2  0  0  0
  7 26  1  0  0  0
  7 29  1  0  0  0
  8  9  1  0  0  0
  8 22  1  0  0  0
  9 10  1  0  0  0
  9 27  2  0  0  0
 10 11  2  0  0  0
 10 15  1  0  0  0
 11 12  1  0  0  0
 11 92  1  0  0  0
 12 13  2  0  0  0
 12 93  1  0  0  0
 13 14  1  0  0  0
 13 31  1  0  0  0
 14 15  2  0  0  0
 14 94  1  0  0  0
 15 95  1  0  0  0
 16 17  2  0  0  0
 16 21  1  0  0  0
 16 31  1  0  0  0
 17 18  1  0  0  0
 17 96  1  0  0  0
 18 19  2  0  0  0
 18 97  1  0  0  0
 19 20  1  0  0  0
 19 24  1  0  0  0
 20 21  2  0  0  0
 20 98  1  0  0  0
 21 23  1  0  0  0
 22 28  1  0  0  0
 22 32  2  0  0  0
 26 27  1  0  0  0
 28 99  1  0  0  0
 28100  1  0  0  0
 29101  1  0  0  0
 29102  1  0  0  0
 33 34  1  0  0  0
 33 66  1  0  0  0
 33 70  2  0  0  0
 34 36  1  0  0  0
 34 59  1  0  0  0
 34103  1  0  0  0
 35 44  2  0  0  0
 35 45  1  0  0  0
 35 68  1  0  0  0
 36 56  1  0  0  0
 36104  1  0  0  0
 37 39  1  0  0  0
 37 47  1  0  0  0
 37 66  1  0  0  0
 37105  1  0  0  0
 38 43  2  0  0  0
 38 46  1  0  0  0
 38 47  1  0  0  0
 39 64  1  0  0  0
 39 67  2  0  0  0
 40 52  1  0  0  0
 40 53  2  0  0  0
 40 58  1  0  0  0
 41106  1  0  0  0
 41107  1  0  0  0
 41108  1  0  0  0
 41 48  1  0  0  0
 42 43  1  0  0  0
 42 66  1  0  0  0
 42109  1  0  0  0
 42110  1  0  0  0
 43 44  1  0  0  0
 44111  1  0  0  0
 45 46  2  0  0  0
 45112  1  0  0  0
 46113  1  0  0  0
 47114  1  0  0  0
 47115  1  0  0  0
 48 56  1  0  0  0
 48 65  1  0  0  0
 48116  1  0  0  0
 49 50  1  0  0  0
 49 53  1  0  0  0
 49 64  1  0  0  0
 49117  1  0  0  0
 50 51  1  0  0  0
 50118  1  0  0  0
 50119  1  0  0  0
 51 52  1  0  0  0
 51120  1  0  0  0
 51121  1  0  0  0
 52122  1  0  0  0
 52123  1  0  0  0
 53 54  1  0  0  0
 54 55  2  0  0  0
 54124  1  0  0  0
 55 57  1  0  0  0
 55125  1  0  0  0
 56 69  2  0  0  0
 57 58  2  0  0  0
 57126  1  0  0  0
 58127  1  0  0  0
 59 60  1  0  0  0
 59 61  1  0  0  0
 59 62  1  0  0  0
 60128  1  0  0  0
 60129  1  0  0  0
 60130  1  0  0  0
 61131  1  0  0  0
 61132  1  0  0  0
 61133  1  0  0  0
 62134  1  0  0  0
 62135  1  0  0  0
 62136  1  0  0  0
 63 65  1  0  0  0
 63137  1  0  0  0
 63138  1  0  0  0
 63139  1  0  0  0
 64140  1  0  0  0
 65141  1  0  0  0
 68 77  1  0  0  0
 71 73  2  0  0  0
 71 79  1  0  0  0
 71142  1  0  0  0
 72 78  2  0  0  0
 72 79  1  0  0  0
 72143  1  0  0  0
 73 78  1  0  0  0
 73 80  1  0  0  0
 74 77  1  0  0  0
 74 80  1  0  0  0
 74 82  2  0  0  0
 75144  1  0  0  0
 75145  1  0  0  0
 75146  1  0  0  0
 75 77  1  0  0  0
 76 79  1  0  0  0
 76 81  1  0  0  0
 76147  1  0  0  0
 76148  1  0  0  0
 77149  1  0  0  0
 80150  1  0  0  0
 81151  1  0  0  0
M  ISO  4   1 100  68 101  77 101  81 100
M  END
> <chiral flag>
0

> <version>
0

> <s_m_source_file>
/data/baiqing/PycharmProjects/Reinvent-master-3.2/result/LINK_invent/BTK/process_docking_weight1_custom_product_contain_oxygen_bond_distance_aromatic_linkinvent_7_9_3/rearranged_h_0190.sdf

> <i_m_source_file_index>
57

> <r_mmod_Potential_Energy-OPLS-2005>
189.861968994141

> <r_mmod_Stretch_Energy-OPLS-2005>
152.161087036133

> <r_mmod_Bend_Energy-OPLS-2005>
220.409286499023

> <r_mmod_Torsional_Energy-OPLS-2005>
272.649627685547

> <r_mmod_Improper_Torsional_Energy-OPLS-2005>
10.3957815170288

> <r_mmod_Van_der_Waal_Energy-OPLS-2005>
123.075866699219

> <r_mmod_Electrostatic_Energy-OPLS-2005>
-419.634979248047

> <r_mmod_Solvation_Energy-OPLS-2005>
-283.814788818359

> <b_mmod_Minimization_Converged-OPLS-2005>
0

> <r_mmod_RMS_Derivative-OPLS-2005>
1.07931923866272

$$$$
57
                    3D
 Structure written by MMmdl.
167175  0  0  1  0            999 V2000
  -30.6311  -14.7699   20.4117 C   0  0  0  0  0  0
  -30.4200  -12.4578   19.4923 C   0  0  0  0  0  0
  -29.5149  -12.5095   18.2430 C   0  0  0  0  0  0
  -28.0390  -12.3327   18.6492 C   0  0  0  0  0  0
  -27.6375  -13.2406   19.8439 C   0  0  2  0  0  0
  -28.6801  -13.2116   20.9828 C   0  0  0  0  0  0
  -25.2489  -13.8229   20.5672 C   0  0  0  0  0  0
  -24.1794  -13.0443   20.9183 C   0  0  0  0  0  0
  -24.6412  -11.6944   20.8740 C   0  0  0  0  0  0
  -23.9100  -10.4303   21.0394 C   0  0  0  0  0  0
  -24.3640   -9.4226   21.9176 C   0  0  0  0  0  0
  -23.6306   -8.2262   22.0756 C   0  0  0  0  0  0
  -22.4286   -8.0295   21.3555 C   0  0  0  0  0  0
  -21.9924   -9.0260   20.4656 C   0  0  0  0  0  0
  -22.7270  -10.2130   20.3052 C   0  0  0  0  0  0
  -21.6870   -6.0745   22.5305 C   0  0  0  0  0  0
  -21.4028   -6.5636   23.8237 C   0  0  0  0  0  0
  -21.3655   -5.6776   24.9181 C   0  0  0  0  0  0
  -21.6053   -4.3044   24.7232 C   0  0  0  0  0  0
  -21.8819   -3.8145   23.4356 C   0  0  0  0  0  0
  -21.9186   -4.6965   22.3416 C   0  0  0  0  0  0
  -22.7811  -13.5214   21.1814 C   0  0  0  0  0  0
  -22.1658   -4.2152   21.0990 F   0  0  0  0  0  0
  -21.5602   -3.4533   25.7740 F   0  0  0  0  0  0
  -29.9808  -13.5495   20.3952 N   0  0  0  0  0  0
  -26.2925  -12.9456   20.3250 N   0  0  0  0  0  0
  -25.9350  -11.6596   20.5764 N   0  0  0  0  0  0
  -22.0465  -12.8227   22.0396 N   0  0  0  0  0  0
  -25.4131  -15.1956   20.4088 N   0  0  0  0  0  0
  -31.8442  -14.7727   20.1734 O   0  0  0  0  0  0
  -21.6654   -6.8895   21.4264 O   0  0  0  0  0  0
  -22.3512  -14.5515   20.6654 O   0  0  0  0  0  0
  -24.6340  -31.8533   23.1941 C   0  0  0  0  0  0
  -25.9183  -32.4745   23.8309 C   0  0  1  0  0  0
  -27.2285  -27.2457   20.1315 C   0  0  0  0  0  0
  -25.5980  -33.8564   24.2226 N   0  0  0  0  0  0
  -23.4285  -30.4716   21.5364 C   0  0  2  0  0  0
  -24.8750  -28.9051   20.1058 C   0  0  0  0  0  0
  -22.7493  -29.4606   22.4909 C   0  0  0  0  0  0
  -18.0283  -28.1377   22.8501 C   0  0  0  0  0  0
  -24.1500  -36.7253   23.2637 C   0  0  0  0  0  0
  -25.9749  -30.7571   21.3766 C   0  0  0  0  0  0
  -26.0426  -29.3802   20.7116 C   0  0  0  0  0  0
  -27.2167  -28.5621   20.7098 C   0  0  0  0  0  0
  -26.0315  -26.8258   19.5143 C   0  0  0  0  0  0
  -24.8732  -27.6375   19.4961 C   0  0  0  0  0  0
  -23.6455  -29.7953   20.1548 C   0  0  0  0  0  0
  -25.4148  -36.3083   24.0315 C   0  0  1  0  0  0
  -20.5898  -28.3699   23.1277 C   0  0  2  0  0  0
  -20.6781  -26.9409   22.5426 C   0  0  0  0  0  0
  -19.5749  -26.6371   21.5237 C   0  0  0  0  0  0
  -18.1923  -26.7918   22.1638 C   0  0  0  0  0  0
  -19.1536  -28.8847   23.2889 C   0  0  0  0  0  0
  -18.9459  -30.1457   23.8903 C   0  0  0  0  0  0
  -17.6458  -30.6590   24.0549 C   0  0  0  0  0  0
  -25.9098  -34.9453   23.5077 C   0  0  0  0  0  0
  -16.5351  -29.9076   23.6336 C   0  0  0  0  0  0
  -16.7274  -28.6487   23.0370 C   0  0  0  0  0  0
  -26.4536  -31.6610   25.0744 C   0  0  0  0  0  0
  -25.3728  -31.3772   26.1439 C   0  0  0  0  0  0
  -27.0405  -30.3015   24.6312 C   0  0  0  0  0  0
  -27.6080  -32.4363   25.7523 C   0  0  0  0  0  0
  -27.5593  -37.1790   24.8465 C   0  0  0  0  0  0
  -21.4198  -29.3042   22.3646 N   0  0  0  0  0  0
  -26.4316  -37.3792   23.9403 N   0  0  0  0  0  0
  -24.6964  -31.0482   22.0907 N   0  0  0  0  0  0
  -23.4179  -28.8174   23.3037 O   0  0  0  0  0  0
  -28.3646  -26.4101   20.2478 O   0  0  0  0  0  0
  -26.5657  -34.8938   22.4643 O   0  0  0  0  0  0
  -23.5493  -32.1375   23.7252 O   0  0  0  0  0  0
  -30.6356  -19.7070   18.7628 C   0  0  0  0  0  0
  -29.6997  -19.6687   19.8275 C   0  0  0  0  0  0
  -31.3164  -18.5129   18.4513 C   0  0  0  0  0  0
  -30.1544  -17.2937   20.0167 C   0  0  0  0  0  0
  -31.8504  -22.1656   23.2926 C   0  0  0  0  0  0
  -31.8817  -23.0160   20.2667 C   0  0  0  0  0  0
  -28.4783  -25.0763   18.1326 C   0  0  0  0  0  0
  -30.8776  -21.6802   22.2071 C   0  0  0  0  0  0
  -28.2803  -23.5646   20.2811 C   0  0  0  0  0  0
  -30.6087  -22.7023   21.0740 C   0  0  2  0  0  0
  -29.3865  -22.3581   20.1490 C   0  0  2  0  0  0
  -28.6374  -25.0428   19.6601 C   0  0  2  0  0  0
  -29.4596  -18.4231   20.4135 N   0  0  0  0  0  0
  -31.0707  -17.3529   19.0666 N   0  0  0  0  0  0
  -30.9052  -20.8499   18.0033 N   0  0  0  0  0  0
  -28.9827  -20.8745   20.2633 N   0  0  0  0  0  0
  -29.8981  -15.9611   20.5201 N   0  0  0  0  0  0
  -32.5281  -18.5056   17.2135 Cl  0  0  0  0  0  0
  -31.4690  -12.5461   19.2034 H   0  0  0  0  0  0
  -30.3297  -11.4922   19.9939 H   0  0  0  0  0  0
  -29.8085  -11.7333   17.5339 H   0  0  0  0  0  0
  -29.6487  -13.4647   17.7345 H   0  0  0  0  0  0
  -27.8939  -11.2841   18.9123 H   0  0  0  0  0  0
  -27.3883  -12.5209   17.7961 H   0  0  0  0  0  0
  -27.6222  -14.2571   19.4499 H   0  0  0  0  0  0
  -28.7173  -12.2312   21.4598 H   0  0  0  0  0  0
  -28.4152  -13.9234   21.7651 H   0  0  0  0  0  0
  -25.2793   -9.5681   22.4741 H   0  0  0  0  0  0
  -24.0009   -7.4665   22.7485 H   0  0  0  0  0  0
  -21.0857   -8.8797   19.8987 H   0  0  0  0  0  0
  -22.3756  -10.9644   19.6140 H   0  0  0  0  0  0
  -21.2064   -7.6148   23.9748 H   0  0  0  0  0  0
  -21.1458   -6.0503   25.9085 H   0  0  0  0  0  0
  -22.0605   -2.7614   23.2862 H   0  0  0  0  0  0
  -22.4065  -11.9892   22.4805 H   0  0  0  0  0  0
  -21.1094  -13.1290   22.2608 H   0  0  0  0  0  0
  -24.6323  -15.8344   20.5162 H   0  0  0  0  0  0
  -26.2484  -15.6518   20.0662 H   0  0  0  0  0  0
  -26.7239  -32.5369   23.1028 H   0  0  0  0  0  0
  -25.0142  -33.9715   25.0377 H   0  0  0  0  0  0
  -22.7281  -31.2955   21.3854 H   0  0  0  0  0  0
  -23.3815  -35.9535   23.3317 H   0  0  0  0  0  0
  -24.3545  -36.8879   22.2044 H   0  0  0  0  0  0
  -23.7196  -37.6433   23.6650 H   0  0  0  0  0  0
  -26.1307  -31.5219   20.6144 H   0  0  0  0  0  0
  -26.8466  -30.7921   22.0201 H   0  0  0  0  0  0
  -28.1123  -28.9221   21.1958 H   0  0  0  0  0  0
  -25.9553  -25.8384   19.0899 H   0  0  0  0  0  0
  -23.9704  -27.2638   19.0326 H   0  0  0  0  0  0
  -23.7708  -30.5665   19.3956 H   0  0  0  0  0  0
  -22.7612  -29.2338   19.8485 H   0  0  0  0  0  0
  -25.1330  -36.1916   25.0806 H   0  0  0  0  0  0
  -21.0011  -28.3310   24.1393 H   0  0  0  0  0  0
  -20.5695  -26.2327   23.3654 H   0  0  0  0  0  0
  -21.6647  -26.7447   22.1204 H   0  0  0  0  0  0
  -19.6912  -25.6273   21.1273 H   0  0  0  0  0  0
  -19.6672  -27.3183   20.6763 H   0  0  0  0  0  0
  -17.4204  -26.6713   21.4014 H   0  0  0  0  0  0
  -18.0284  -26.0045   22.9013 H   0  0  0  0  0  0
  -19.7947  -30.7260   24.2284 H   0  0  0  0  0  0
  -17.5019  -31.6271   24.5134 H   0  0  0  0  0  0
  -15.5345  -30.2964   23.7664 H   0  0  0  0  0  0
  -15.8691  -28.0789   22.7100 H   0  0  0  0  0  0
  -24.5890  -30.7145   25.7738 H   0  0  0  0  0  0
  -24.8933  -32.2947   26.4866 H   0  0  0  0  0  0
  -25.8017  -30.8923   27.0214 H   0  0  0  0  0  0
  -26.3021  -29.6745   24.1295 H   0  0  0  0  0  0
  -27.3984  -29.7334   25.4916 H   0  0  0  0  0  0
  -27.8952  -30.4289   23.9667 H   0  0  0  0  0  0
  -27.2668  -33.3653   26.2119 H   0  0  0  0  0  0
  -28.3884  -32.6943   25.0344 H   0  0  0  0  0  0
  -28.0764  -31.8486   26.5433 H   0  0  0  0  0  0
  -28.2622  -38.0083   24.7546 H   0  0  0  0  0  0
  -28.1078  -36.2610   24.6261 H   0  0  0  0  0  0
  -27.2295  -37.1422   25.8867 H   0  0  0  0  0  0
  -20.9391  -29.8729   21.6811 H   0  0  0  0  0  0
  -26.0199  -38.2874   24.1394 H   0  0  0  0  0  0
  -31.9761  -21.4026   24.0621 H   0  0  0  0  0  0
  -31.4819  -23.0627   23.7892 H   0  0  0  0  0  0
  -32.8373  -22.3800   22.8865 H   0  0  0  0  0  0
  -32.6244  -23.5337   20.8770 H   0  0  0  0  0  0
  -31.6632  -23.6685   19.4201 H   0  0  0  0  0  0
  -32.3568  -22.1115   19.8890 H   0  0  0  0  0  0
  -28.8884  -25.9978   17.7201 H   0  0  0  0  0  0
  -27.4413  -24.9893   17.8123 H   0  0  0  0  0  0
  -29.0178  -24.2504   17.6702 H   0  0  0  0  0  0
  -29.9349  -21.4321   22.6961 H   0  0  0  0  0  0
  -31.2657  -20.7494   21.7900 H   0  0  0  0  0  0
  -28.0193  -23.6736   21.3328 H   0  0  0  0  0  0
  -27.3605  -23.2260   19.8055 H   0  0  0  0  0  0
  -30.3673  -23.6337   21.5854 H   0  0  0  0  0  0
  -29.6750  -22.5014   19.1161 H   0  0  0  0  0  0
  -29.7188  -25.0638   19.7865 H   0  0  0  0  0  0
  -30.7445  -21.7250   18.4855 H   0  0  0  0  0  0
  -31.7719  -20.8408   17.4761 H   0  0  0  0  0  0
  -28.3335  -20.6826   21.0151 H   0  0  0  0  0  0
  -28.9666  -15.8339   20.8744 H   0  0  0  0  0  0
  1 25  1  0  0  0
  1 30  2  0  0  0
  1 87  1  0  0  0
  2  3  1  0  0  0
  2 25  1  0  0  0
  2 89  1  0  0  0
  2 90  1  0  0  0
  3  4  1  0  0  0
  3 91  1  0  0  0
  3 92  1  0  0  0
  4  5  1  0  0  0
  4 93  1  0  0  0
  4 94  1  0  0  0
  5  6  1  0  0  0
  5 26  1  0  0  0
  5 95  1  0  0  0
  6 25  1  0  0  0
  6 96  1  0  0  0
  6 97  1  0  0  0
  7  8  2  0  0  0
  7 26  1  0  0  0
  7 29  1  0  0  0
  8  9  1  0  0  0
  8 22  1  0  0  0
  9 10  1  0  0  0
  9 27  2  0  0  0
 10 11  2  0  0  0
 10 15  1  0  0  0
 11 12  1  0  0  0
 11 98  1  0  0  0
 12 13  2  0  0  0
 12 99  1  0  0  0
 13 14  1  0  0  0
 13 31  1  0  0  0
 14 15  2  0  0  0
 14100  1  0  0  0
 15101  1  0  0  0
 16 17  2  0  0  0
 16 21  1  0  0  0
 16 31  1  0  0  0
 17 18  1  0  0  0
 17102  1  0  0  0
 18 19  2  0  0  0
 18103  1  0  0  0
 19 20  1  0  0  0
 19 24  1  0  0  0
 20 21  2  0  0  0
 20104  1  0  0  0
 21 23  1  0  0  0
 22 28  1  0  0  0
 22 32  2  0  0  0
 26 27  1  0  0  0
 28105  1  0  0  0
 28106  1  0  0  0
 29107  1  0  0  0
 29108  1  0  0  0
 33 34  1  0  0  0
 33 66  1  0  0  0
 33 70  2  0  0  0
 34 36  1  0  0  0
 34 59  1  0  0  0
 34109  1  0  0  0
 35 44  2  0  0  0
 35 45  1  0  0  0
 35 68  1  0  0  0
 36 56  1  0  0  0
 36110  1  0  0  0
 37 39  1  0  0  0
 37 47  1  0  0  0
 37 66  1  0  0  0
 37111  1  0  0  0
 38 43  2  0  0  0
 38 46  1  0  0  0
 38 47  1  0  0  0
 39 64  1  0  0  0
 39 67  2  0  0  0
 40 52  1  0  0  0
 40 53  2  0  0  0
 40 58  1  0  0  0
 41112  1  0  0  0
 41113  1  0  0  0
 41114  1  0  0  0
 41 48  1  0  0  0
 42 43  1  0  0  0
 42 66  1  0  0  0
 42115  1  0  0  0
 42116  1  0  0  0
 43 44  1  0  0  0
 44117  1  0  0  0
 45 46  2  0  0  0
 45118  1  0  0  0
 46119  1  0  0  0
 47120  1  0  0  0
 47121  1  0  0  0
 48 56  1  0  0  0
 48 65  1  0  0  0
 48122  1  0  0  0
 49 50  1  0  0  0
 49 53  1  0  0  0
 49 64  1  0  0  0
 49123  1  0  0  0
 50 51  1  0  0  0
 50124  1  0  0  0
 50125  1  0  0  0
 51 52  1  0  0  0
 51126  1  0  0  0
 51127  1  0  0  0
 52128  1  0  0  0
 52129  1  0  0  0
 53 54  1  0  0  0
 54 55  2  0  0  0
 54130  1  0  0  0
 55 57  1  0  0  0
 55131  1  0  0  0
 56 69  2  0  0  0
 57 58  2  0  0  0
 57132  1  0  0  0
 58133  1  0  0  0
 59 60  1  0  0  0
 59 61  1  0  0  0
 59 62  1  0  0  0
 60134  1  0  0  0
 60135  1  0  0  0
 60136  1  0  0  0
 61137  1  0  0  0
 61138  1  0  0  0
 61139  1  0  0  0
 62140  1  0  0  0
 62141  1  0  0  0
 62142  1  0  0  0
 63 65  1  0  0  0
 63143  1  0  0  0
 63144  1  0  0  0
 63145  1  0  0  0
 64146  1  0  0  0
 65147  1  0  0  0
 68 82  1  0  0  0
 71 72  2  0  0  0
 71 73  1  0  0  0
 71 85  1  0  0  0
 72 83  1  0  0  0
 72 86  1  0  0  0
 73 84  2  0  0  0
 73 88  1  0  0  0
 74 83  2  0  0  0
 74 84  1  0  0  0
 74 87  1  0  0  0
 75 78  1  0  0  0
 75148  1  0  0  0
 75149  1  0  0  0
 75150  1  0  0  0
 76151  1  0  0  0
 76152  1  0  0  0
 76153  1  0  0  0
 76 80  1  0  0  0
 77154  1  0  0  0
 77155  1  0  0  0
 77156  1  0  0  0
 77 82  1  0  0  0
 78 80  1  0  0  0
 78157  1  0  0  0
 78158  1  0  0  0
 79 82  1  0  0  0
 79159  1  0  0  0
 79160  1  0  0  0
 79 81  1  0  0  0
 80 81  1  0  0  0
 80161  1  0  0  0
 81 86  1  0  0  0
 81162  1  0  0  0
 82163  1  0  0  0
 85164  1  0  0  0
 85165  1  0  0  0
 86166  1  0  0  0
 87167  1  0  0  0
M  ISO  4   1 100  68 101  82 101  87 100
M  END
> <chiral flag>
0

> <version>
0

> <s_m_source_file>
/data/baiqing/PycharmProjects/Reinvent-master-3.2/result/LINK_invent/BTK/process_docking_weight1_custom_product_contain_oxygen_bond_distance_aromatic_linkinvent_7_9_3/rearranged_h_0190.sdf

> <i_m_source_file_index>
58

> <r_mmod_Potential_Energy-OPLS-2005>
-105.262252807617

> <r_mmod_Stretch_Energy-OPLS-2005>
154.050765991211

> <r_mmod_Bend_Energy-OPLS-2005>
253.377456665039

> <r_mmod_Torsional_Energy-OPLS-2005>
251.099304199219

> <r_mmod_Improper_Torsional_Energy-OPLS-2005>
10.1220531463623

> <r_mmod_Van_der_Waal_Energy-OPLS-2005>
156.621871948242

> <r_mmod_Electrostatic_Energy-OPLS-2005>
-798.058227539062

> <r_mmod_Solvation_Energy-OPLS-2005>
-227.908813476562

> <b_mmod_Minimization_Converged-OPLS-2005>
0

> <r_mmod_RMS_Derivative-OPLS-2005>
3.55450916290283

$$$$
58
                    3D
 Structure written by MMmdl.
159167  0  0  1  0            999 V2000
  -30.5718  -14.7589   20.5081 C   0  0  0  0  0  0
  -30.4647  -12.4868   19.4762 C   0  0  0  0  0  0
  -29.5407  -12.5341   18.2381 C   0  0  0  0  0  0
  -28.0600  -12.3471   18.6326 C   0  0  0  0  0  0
  -27.6502  -13.2276   19.8449 C   0  0  2  0  0  0
  -28.6863  -13.1362   20.9875 C   0  0  0  0  0  0
  -25.2552  -13.8187   20.5604 C   0  0  0  0  0  0
  -24.1849  -13.0474   20.9179 C   0  0  0  0  0  0
  -24.6378  -11.6913   20.8710 C   0  0  0  0  0  0
  -23.9028  -10.4321   21.0372 C   0  0  0  0  0  0
  -24.3565   -9.4275   21.9177 C   0  0  0  0  0  0
  -23.6288   -8.2296   22.0781 C   0  0  0  0  0  0
  -22.4276   -8.0303   21.3568 C   0  0  0  0  0  0
  -21.9889   -9.0267   20.4666 C   0  0  0  0  0  0
  -22.7196  -10.2171   20.3050 C   0  0  0  0  0  0
  -21.6872   -6.0731   22.5281 C   0  0  0  0  0  0
  -21.4010   -6.5644   23.8203 C   0  0  0  0  0  0
  -21.3629   -5.6787   24.9169 C   0  0  0  0  0  0
  -21.6038   -4.3061   24.7223 C   0  0  0  0  0  0
  -21.8806   -3.8154   23.4337 C   0  0  0  0  0  0
  -21.9200   -4.6952   22.3398 C   0  0  0  0  0  0
  -22.7849  -13.5312   21.1791 C   0  0  0  0  0  0
  -22.1676   -4.2146   21.0974 F   0  0  0  0  0  0
  -21.5629   -3.4535   25.7720 F   0  0  0  0  0  0
  -29.9845  -13.5152   20.4235 N   0  0  0  0  0  0
  -26.2956  -12.9360   20.3130 N   0  0  0  0  0  0
  -25.9304  -11.6507   20.5608 N   0  0  0  0  0  0
  -22.0337  -12.8413   22.0291 N   0  0  0  0  0  0
  -25.4341  -15.1897   20.3901 N   0  0  0  0  0  0
  -31.7586  -14.8923   20.1914 O   0  0  0  0  0  0
  -21.6668   -6.8897   21.4248 O   0  0  0  0  0  0
  -22.3583  -14.5612   20.6589 O   0  0  0  0  0  0
  -24.6335  -31.8524   23.2011 C   0  0  0  0  0  0
  -25.9146  -32.4731   23.8343 C   0  0  1  0  0  0
  -27.1666  -27.2140   20.1666 C   0  0  0  0  0  0
  -25.5907  -33.8520   24.2259 N   0  0  0  0  0  0
  -23.4284  -30.4826   21.5455 C   0  0  2  0  0  0
  -24.8664  -28.9321   20.1062 C   0  0  0  0  0  0
  -22.7501  -29.4590   22.4898 C   0  0  0  0  0  0
  -18.0265  -28.1382   22.8497 C   0  0  0  0  0  0
  -24.1489  -36.7284   23.2645 C   0  0  0  0  0  0
  -25.9758  -30.7569   21.3822 C   0  0  0  0  0  0
  -26.0394  -29.3741   20.7325 C   0  0  0  0  0  0
  -27.1976  -28.5275   20.7529 C   0  0  0  0  0  0
  -25.9931  -26.8649   19.4708 C   0  0  0  0  0  0
  -24.8527  -27.6904   19.4538 C   0  0  0  0  0  0
  -23.6456  -29.8329   20.1545 C   0  0  0  0  0  0
  -25.4110  -36.3049   24.0342 C   0  0  1  0  0  0
  -20.5888  -28.3697   23.1278 C   0  0  2  0  0  0
  -20.6756  -26.9426   22.5411 C   0  0  0  0  0  0
  -19.5735  -26.6400   21.5203 C   0  0  0  0  0  0
  -18.1911  -26.7927   22.1618 C   0  0  0  0  0  0
  -19.1525  -28.8849   23.2874 C   0  0  0  0  0  0
  -18.9444  -30.1440   23.8912 C   0  0  0  0  0  0
  -17.6451  -30.6604   24.0555 C   0  0  0  0  0  0
  -25.9039  -34.9422   23.5114 C   0  0  0  0  0  0
  -16.5340  -29.9116   23.6313 C   0  0  0  0  0  0
  -16.7252  -28.6509   23.0375 C   0  0  0  0  0  0
  -26.4474  -31.6522   25.0735 C   0  0  0  0  0  0
  -25.3677  -31.3673   26.1447 C   0  0  0  0  0  0
  -27.0287  -30.2942   24.6195 C   0  0  0  0  0  0
  -27.6049  -32.4219   25.7497 C   0  0  0  0  0  0
  -27.5572  -37.1813   24.8455 C   0  0  0  0  0  0
  -21.4194  -29.3053   22.3673 N   0  0  0  0  0  0
  -26.4270  -37.3776   23.9418 N   0  0  0  0  0  0
  -24.6996  -31.0479   22.0998 N   0  0  0  0  0  0
  -23.4200  -28.8079   23.2960 O   0  0  0  0  0  0
  -28.1950  -26.2418   20.2132 O   0  0  0  0  0  0
  -26.5666  -34.8909   22.4716 O   0  0  0  0  0  0
  -23.5473  -32.1328   23.7309 O   0  0  0  0  0  0
  -27.9943  -18.5348   21.5685 C   0  0  0  0  0  0
  -29.1717  -18.5545   20.8627 C   0  0  0  0  0  0
  -28.5957  -20.8949   20.8717 C   0  0  0  0  0  0
  -26.3835  -23.3126   19.9164 C   0  0  0  0  0  0
  -23.7936  -23.4454   19.8054 C   0  0  0  0  0  0
  -29.2203  -25.0158   22.0745 C   0  0  0  0  0  0
  -30.0921  -17.3344   20.4575 C   0  0  0  0  0  0
  -25.0756  -23.7472   20.5908 C   0  0  0  0  0  0
  -27.6429  -23.4632   20.7736 C   0  0  2  0  0  0
  -28.0308  -25.0308   21.1133 C   0  0  2  0  0  0
  -29.4839  -19.9233   20.4963 N   0  0  0  0  0  0
  -28.6395  -22.3244   20.5976 N   0  0  0  0  0  0
  -29.7598  -15.8643   20.7351 N   0  0  0  0  0  0
  -26.3937  -22.8297   18.7785 O   0  0  0  0  0  0
  -27.2750  -20.1392   21.7750 S   0  0  0  0  0  0
  -31.4965  -12.6619   19.1661 H   0  0  0  0  0  0
  -30.4558  -11.5006   19.9389 H   0  0  0  0  0  0
  -29.8487  -11.7783   17.5139 H   0  0  0  0  0  0
  -29.6627  -13.4963   17.7381 H   0  0  0  0  0  0
  -27.9137  -11.2960   18.8781 H   0  0  0  0  0  0
  -27.4148  -12.5516   17.7765 H   0  0  0  0  0  0
  -27.6564  -14.2550   19.4799 H   0  0  0  0  0  0
  -28.7276  -12.1267   21.3978 H   0  0  0  0  0  0
  -28.4022  -13.7899   21.8115 H   0  0  0  0  0  0
  -25.2654   -9.5844   22.4775 H   0  0  0  0  0  0
  -23.9998   -7.4723   22.7533 H   0  0  0  0  0  0
  -21.0812   -8.8767   19.8999 H   0  0  0  0  0  0
  -22.3589  -10.9694   19.6182 H   0  0  0  0  0  0
  -21.2012   -7.6146   23.9708 H   0  0  0  0  0  0
  -21.1456   -6.0520   25.9073 H   0  0  0  0  0  0
  -22.0614   -2.7614   23.2817 H   0  0  0  0  0  0
  -22.3756  -12.0110   22.4892 H   0  0  0  0  0  0
  -21.0940  -13.1613   22.2216 H   0  0  0  0  0  0
  -24.6692  -15.8506   20.4699 H   0  0  0  0  0  0
  -26.2370  -15.5799   19.9155 H   0  0  0  0  0  0
  -26.7205  -32.5361   23.1059 H   0  0  0  0  0  0
  -24.9891  -33.9616   25.0290 H   0  0  0  0  0  0
  -22.7251  -31.3079   21.4117 H   0  0  0  0  0  0
  -23.3733  -35.9625   23.3268 H   0  0  0  0  0  0
  -24.3587  -36.8942   22.2063 H   0  0  0  0  0  0
  -23.7240  -37.6491   23.6669 H   0  0  0  0  0  0
  -26.1098  -31.5132   20.6071 H   0  0  0  0  0  0
  -26.8574  -30.8110   22.0095 H   0  0  0  0  0  0
  -28.0904  -28.8582   21.2624 H   0  0  0  0  0  0
  -25.9405  -25.9165   18.9565 H   0  0  0  0  0  0
  -23.9617  -27.3667   18.9303 H   0  0  0  0  0  0
  -23.7846  -30.6223   19.4150 H   0  0  0  0  0  0
  -22.7541  -29.2926   19.8317 H   0  0  0  0  0  0
  -25.1276  -36.1907   25.0832 H   0  0  0  0  0  0
  -20.9962  -28.3265   24.1408 H   0  0  0  0  0  0
  -20.5660  -26.2313   23.3605 H   0  0  0  0  0  0
  -21.6611  -26.7446   22.1203 H   0  0  0  0  0  0
  -19.6905  -25.6307   21.1235 H   0  0  0  0  0  0
  -19.6666  -27.3198   20.6721 H   0  0  0  0  0  0
  -17.4183  -26.6680   21.4012 H   0  0  0  0  0  0
  -18.0309  -26.0057   22.9003 H   0  0  0  0  0  0
  -19.7915  -30.7227   24.2337 H   0  0  0  0  0  0
  -17.5015  -31.6300   24.5120 H   0  0  0  0  0  0
  -15.5353  -30.3052   23.7589 H   0  0  0  0  0  0
  -15.8641  -28.0827   22.7134 H   0  0  0  0  0  0
  -24.5879  -30.6998   25.7760 H   0  0  0  0  0  0
  -24.8824  -32.2829   26.4838 H   0  0  0  0  0  0
  -25.7988  -30.8867   27.0242 H   0  0  0  0  0  0
  -26.2851  -29.6738   24.1207 H   0  0  0  0  0  0
  -27.3934  -29.7176   25.4695 H   0  0  0  0  0  0
  -27.8736  -30.4203   23.9436 H   0  0  0  0  0  0
  -27.2688  -33.3527   26.2073 H   0  0  0  0  0  0
  -28.3858  -32.6759   25.0315 H   0  0  0  0  0  0
  -28.0708  -31.8330   26.5410 H   0  0  0  0  0  0
  -28.2573  -38.0128   24.7498 H   0  0  0  0  0  0
  -28.1079  -36.2661   24.6237 H   0  0  0  0  0  0
  -27.2299  -37.1406   25.8860 H   0  0  0  0  0  0
  -20.9370  -29.8846   21.6939 H   0  0  0  0  0  0
  -26.0139  -38.2854   24.1404 H   0  0  0  0  0  0
  -27.4886  -17.6651   21.9698 H   0  0  0  0  0  0
  -22.9313  -23.8053   20.3677 H   0  0  0  0  0  0
  -23.6673  -22.3728   19.6577 H   0  0  0  0  0  0
  -23.7815  -23.9331   18.8297 H   0  0  0  0  0  0
  -29.0617  -24.2754   22.8597 H   0  0  0  0  0  0
  -29.3580  -25.9811   22.5552 H   0  0  0  0  0  0
  -30.1402  -24.7547   21.5566 H   0  0  0  0  0  0
  -31.0864  -17.5305   20.8556 H   0  0  0  0  0  0
  -30.2088  -17.3881   19.3755 H   0  0  0  0  0  0
  -25.1328  -24.8165   20.7836 H   0  0  0  0  0  0
  -25.0229  -23.2634   21.5673 H   0  0  0  0  0  0
  -27.2800  -23.1540   21.7549 H   0  0  0  0  0  0
  -27.1943  -25.3270   21.7525 H   0  0  0  0  0  0
  -29.4294  -22.5961   20.0258 H   0  0  0  0  0  0
  -28.7943  -15.6638   20.9346 H   0  0  0  0  0  0
  1 25  1  0  0  0
  1 30  2  0  0  0
  1 83  1  0  0  0
  2  3  1  0  0  0
  2 25  1  0  0  0
  2 86  1  0  0  0
  2 87  1  0  0  0
  3  4  1  0  0  0
  3 88  1  0  0  0
  3 89  1  0  0  0
  4  5  1  0  0  0
  4 90  1  0  0  0
  4 91  1  0  0  0
  5  6  1  0  0  0
  5 26  1  0  0  0
  5 92  1  0  0  0
  6 25  1  0  0  0
  6 93  1  0  0  0
  6 94  1  0  0  0
  7  8  2  0  0  0
  7 26  1  0  0  0
  7 29  1  0  0  0
  8  9  1  0  0  0
  8 22  1  0  0  0
  9 10  1  0  0  0
  9 27  2  0  0  0
 10 11  2  0  0  0
 10 15  1  0  0  0
 11 12  1  0  0  0
 11 95  1  0  0  0
 12 13  2  0  0  0
 12 96  1  0  0  0
 13 14  1  0  0  0
 13 31  1  0  0  0
 14 15  2  0  0  0
 14 97  1  0  0  0
 15 98  1  0  0  0
 16 17  2  0  0  0
 16 21  1  0  0  0
 16 31  1  0  0  0
 17 18  1  0  0  0
 17 99  1  0  0  0
 18 19  2  0  0  0
 18100  1  0  0  0
 19 20  1  0  0  0
 19 24  1  0  0  0
 20 21  2  0  0  0
 20101  1  0  0  0
 21 23  1  0  0  0
 22 28  1  0  0  0
 22 32  2  0  0  0
 26 27  1  0  0  0
 28102  1  0  0  0
 28103  1  0  0  0
 29104  1  0  0  0
 29105  1  0  0  0
 33 34  1  0  0  0
 33 66  1  0  0  0
 33 70  2  0  0  0
 34 36  1  0  0  0
 34 59  1  0  0  0
 34106  1  0  0  0
 35 44  2  0  0  0
 35 45  1  0  0  0
 35 68  1  0  0  0
 36 56  1  0  0  0
 36107  1  0  0  0
 37 39  1  0  0  0
 37 47  1  0  0  0
 37 66  1  0  0  0
 37108  1  0  0  0
 38 43  2  0  0  0
 38 46  1  0  0  0
 38 47  1  0  0  0
 39 64  1  0  0  0
 39 67  2  0  0  0
 40 52  1  0  0  0
 40 53  2  0  0  0
 40 58  1  0  0  0
 41109  1  0  0  0
 41110  1  0  0  0
 41111  1  0  0  0
 41 48  1  0  0  0
 42 43  1  0  0  0
 42 66  1  0  0  0
 42112  1  0  0  0
 42113  1  0  0  0
 43 44  1  0  0  0
 44114  1  0  0  0
 45 46  2  0  0  0
 45115  1  0  0  0
 46116  1  0  0  0
 47117  1  0  0  0
 47118  1  0  0  0
 48 56  1  0  0  0
 48 65  1  0  0  0
 48119  1  0  0  0
 49 50  1  0  0  0
 49 53  1  0  0  0
 49 64  1  0  0  0
 49120  1  0  0  0
 50 51  1  0  0  0
 50121  1  0  0  0
 50122  1  0  0  0
 51 52  1  0  0  0
 51123  1  0  0  0
 51124  1  0  0  0
 52125  1  0  0  0
 52126  1  0  0  0
 53 54  1  0  0  0
 54 55  2  0  0  0
 54127  1  0  0  0
 55 57  1  0  0  0
 55128  1  0  0  0
 56 69  2  0  0  0
 57 58  2  0  0  0
 57129  1  0  0  0
 58130  1  0  0  0
 59 60  1  0  0  0
 59 61  1  0  0  0
 59 62  1  0  0  0
 60131  1  0  0  0
 60132  1  0  0  0
 60133  1  0  0  0
 61134  1  0  0  0
 61135  1  0  0  0
 61136  1  0  0  0
 62137  1  0  0  0
 62138  1  0  0  0
 62139  1  0  0  0
 63 65  1  0  0  0
 63140  1  0  0  0
 63141  1  0  0  0
 63142  1  0  0  0
 64143  1  0  0  0
 65144  1  0  0  0
 68 80  1  0  0  0
 71 72  2  0  0  0
 71 85  1  0  0  0
 71145  1  0  0  0
 72 77  1  0  0  0
 72 81  1  0  0  0
 73 81  2  0  0  0
 73 82  1  0  0  0
 73 85  1  0  0  0
 74 78  1  0  0  0
 74 79  1  0  0  0
 74 84  2  0  0  0
 75 78  1  0  0  0
 75146  1  0  0  0
 75147  1  0  0  0
 75148  1  0  0  0
 76149  1  0  0  0
 76150  1  0  0  0
 76151  1  0  0  0
 76 80  1  0  0  0
 77 83  1  0  0  0
 77152  1  0  0  0
 77153  1  0  0  0
 78154  1  0  0  0
 78155  1  0  0  0
 79 80  1  0  0  0
 79 82  1  0  0  0
 79156  1  0  0  0
 80157  1  0  0  0
 82158  1  0  0  0
 83159  1  0  0  0
M  ISO  4   1 100  68 101  80 101  83 100
M  END
> <chiral flag>
0

> <version>
0

> <s_m_source_file>
/data/baiqing/PycharmProjects/Reinvent-master-3.2/result/LINK_invent/BTK/process_docking_weight1_custom_product_contain_oxygen_bond_distance_aromatic_linkinvent_7_9_3/rearranged_h_0190.sdf

> <i_m_source_file_index>
59

> <r_mmod_Potential_Energy-OPLS-2005>
11.5167036056519

> <r_mmod_Stretch_Energy-OPLS-2005>
128.34358215332

> <r_mmod_Bend_Energy-OPLS-2005>
214.628280639648

> <r_mmod_Torsional_Energy-OPLS-2005>
233.173187255859

> <r_mmod_Improper_Torsional_Energy-OPLS-2005>
6.66104698181152

> <r_mmod_Van_der_Waal_Energy-OPLS-2005>
101.842590332031

> <r_mmod_Electrostatic_Energy-OPLS-2005>
-546.752014160156

> <r_mmod_Solvation_Energy-OPLS-2005>
-238.315567016602

> <b_mmod_Minimization_Converged-OPLS-2005>
0

> <r_mmod_RMS_Derivative-OPLS-2005>
6.96937084197998

$$$$
59
                    3D
 Structure written by MMmdl.
161169  0  0  1  0            999 V2000
  -30.7583  -14.5073   20.5494 C   0  0  0  0  0  0
  -30.4166  -12.3234   19.4420 C   0  0  0  0  0  0
  -29.4976  -12.4933   18.2146 C   0  0  0  0  0  0
  -28.0234  -12.3465   18.6343 C   0  0  0  0  0  0
  -27.6582  -13.2193   19.8642 C   0  0  2  0  0  0
  -28.7054  -13.0796   20.9956 C   0  0  0  0  0  0
  -25.2556  -13.8187   20.5698 C   0  0  0  0  0  0
  -24.1828  -13.0441   20.9198 C   0  0  0  0  0  0
  -24.6406  -11.6914   20.8734 C   0  0  0  0  0  0
  -23.9080  -10.4289   21.0401 C   0  0  0  0  0  0
  -24.3620   -9.4195   21.9179 C   0  0  0  0  0  0
  -23.6272   -8.2241   22.0772 C   0  0  0  0  0  0
  -22.4255   -8.0298   21.3577 C   0  0  0  0  0  0
  -21.9889   -9.0265   20.4666 C   0  0  0  0  0  0
  -22.7239  -10.2134   20.3061 C   0  0  0  0  0  0
  -21.6859   -6.0741   22.5284 C   0  0  0  0  0  0
  -21.4014   -6.5634   23.8220 C   0  0  0  0  0  0
  -21.3656   -5.6784   24.9177 C   0  0  0  0  0  0
  -21.6050   -4.3048   24.7235 C   0  0  0  0  0  0
  -21.8799   -3.8150   23.4344 C   0  0  0  0  0  0
  -21.9186   -4.6960   22.3409 C   0  0  0  0  0  0
  -22.7840  -13.5222   21.1842 C   0  0  0  0  0  0
  -22.1654   -4.2154   21.0981 F   0  0  0  0  0  0
  -21.5627   -3.4539   25.7734 F   0  0  0  0  0  0
  -30.0326  -13.3545   20.4252 N   0  0  0  0  0  0
  -26.3012  -12.9400   20.3336 N   0  0  0  0  0  0
  -25.9347  -11.6551   20.5759 N   0  0  0  0  0  0
  -22.0469  -12.8241   22.0413 N   0  0  0  0  0  0
  -25.4204  -15.1910   20.4129 N   0  0  0  0  0  0
  -31.9025  -14.5954   20.1052 O   0  0  0  0  0  0
  -21.6630   -6.8883   21.4248 O   0  0  0  0  0  0
  -22.3533  -14.5538   20.6696 O   0  0  0  0  0  0
  -24.6171  -31.8681   23.2102 C   0  0  0  0  0  0
  -25.9059  -32.4828   23.8404 C   0  0  1  0  0  0
  -27.2447  -27.4322   20.0863 C   0  0  0  0  0  0
  -25.5902  -33.8626   24.2323 N   0  0  0  0  0  0
  -23.4059  -30.4938   21.5507 C   0  0  2  0  0  0
  -24.8539  -28.9601   20.1194 C   0  0  0  0  0  0
  -22.7420  -29.4669   22.4967 C   0  0  0  0  0  0
  -18.0283  -28.1388   22.8496 C   0  0  0  0  0  0
  -24.1481  -36.7310   23.2635 C   0  0  0  0  0  0
  -25.9386  -30.8315   21.3689 C   0  0  0  0  0  0
  -26.0177  -29.4671   20.7116 C   0  0  0  0  0  0
  -27.2171  -28.7151   20.6879 C   0  0  0  0  0  0
  -26.0608  -26.9496   19.4828 C   0  0  0  0  0  0
  -24.8698  -27.6976   19.5058 C   0  0  0  0  0  0
  -23.6176  -29.8293   20.1664 C   0  0  0  0  0  0
  -25.4108  -36.3111   24.0327 C   0  0  1  0  0  0
  -20.5874  -28.3680   23.1300 C   0  0  2  0  0  0
  -20.6772  -26.9412   22.5416 C   0  0  0  0  0  0
  -19.5747  -26.6389   21.5213 C   0  0  0  0  0  0
  -18.1920  -26.7934   22.1625 C   0  0  0  0  0  0
  -19.1531  -28.8838   23.2902 C   0  0  0  0  0  0
  -18.9468  -30.1444   23.8922 C   0  0  0  0  0  0
  -17.6469  -30.6587   24.0573 C   0  0  0  0  0  0
  -25.9036  -34.9477   23.5126 C   0  0  0  0  0  0
  -16.5360  -29.9097   23.6330 C   0  0  0  0  0  0
  -16.7266  -28.6511   23.0350 C   0  0  0  0  0  0
  -26.4484  -31.6614   25.0740 C   0  0  0  0  0  0
  -25.3735  -31.3757   26.1483 C   0  0  0  0  0  0
  -27.0311  -30.3036   24.6151 C   0  0  0  0  0  0
  -27.6059  -32.4337   25.7502 C   0  0  0  0  0  0
  -27.5579  -37.1816   24.8464 C   0  0  0  0  0  0
  -21.4140  -29.3047   22.3694 N   0  0  0  0  0  0
  -26.4296  -37.3795   23.9402 N   0  0  0  0  0  0
  -24.6718  -31.0787   22.1005 N   0  0  0  0  0  0
  -23.4179  -28.8207   23.3020 O   0  0  0  0  0  0
  -28.4088  -26.6825   20.0795 O   0  0  0  0  0  0
  -26.5602  -34.8931   22.4687 O   0  0  0  0  0  0
  -23.5366  -32.1426   23.7496 O   0  0  0  0  0  0
  -30.6387  -19.2267   21.3641 C   0  0  0  0  0  0
  -31.9737  -18.9691   21.6561 C   0  0  0  0  0  0
  -30.6725  -16.9091   21.1787 C   0  0  0  0  0  0
  -33.1017  -19.8700   22.0701 C   0  0  0  0  0  0
  -31.2768  -22.5263   22.0112 C   0  0  0  0  0  0
  -31.1020  -21.7683   19.5603 C   0  0  0  0  0  0
  -29.8071  -20.5275   21.4061 C   0  0  0  0  0  0
  -29.5061  -24.4116   20.3235 C   0  0  0  0  0  0
  -29.1818  -22.9309   20.7210 C   0  0  0  0  0  0
  -28.2459  -25.2989   20.4465 C   0  0  0  0  0  0
  -30.3680  -21.9213   20.9128 C   0  0  0  0  0  0
  -29.9251  -18.0232   21.1253 N   0  0  0  0  0  0
  -30.1079  -15.6034   21.0028 N   0  0  0  0  0  0
  -32.3506  -17.2611   21.5580 S   0  0  0  0  0  0
  -31.4640  -12.3848   19.1426 H   0  0  0  0  0  0
  -30.2943  -11.3300   19.8788 H   0  0  0  0  0  0
  -29.7424  -11.7517   17.4532 H   0  0  0  0  0  0
  -29.6599  -13.4701   17.7530 H   0  0  0  0  0  0
  -27.8495  -11.2950   18.8701 H   0  0  0  0  0  0
  -27.3659  -12.5831   17.7965 H   0  0  0  0  0  0
  -27.6803  -14.2531   19.5209 H   0  0  0  0  0  0
  -28.6858  -12.0721   21.4149 H   0  0  0  0  0  0
  -28.4720  -13.7520   21.8229 H   0  0  0  0  0  0
  -25.2763   -9.5662   22.4745 H   0  0  0  0  0  0
  -24.0002   -7.4613   22.7462 H   0  0  0  0  0  0
  -21.0831   -8.8776   19.8950 H   0  0  0  0  0  0
  -22.3708  -10.9671   19.6160 H   0  0  0  0  0  0
  -21.2022   -7.6147   23.9728 H   0  0  0  0  0  0
  -21.1499   -6.0516   25.9075 H   0  0  0  0  0  0
  -22.0588   -2.7615   23.2842 H   0  0  0  0  0  0
  -22.4091  -11.9935   22.4842 H   0  0  0  0  0  0
  -21.1092  -13.1293   22.2613 H   0  0  0  0  0  0
  -24.6410  -15.8338   20.5102 H   0  0  0  0  0  0
  -26.2677  -15.6395   20.0884 H   0  0  0  0  0  0
  -26.7137  -32.5542   23.1181 H   0  0  0  0  0  0
  -25.0059  -33.9791   25.0473 H   0  0  0  0  0  0
  -22.6958  -31.3117   21.4104 H   0  0  0  0  0  0
  -23.3731  -35.9661   23.3335 H   0  0  0  0  0  0
  -24.3567  -36.8886   22.2046 H   0  0  0  0  0  0
  -23.7252  -37.6531   23.6629 H   0  0  0  0  0  0
  -26.0618  -31.6006   20.6061 H   0  0  0  0  0  0
  -26.8218  -30.8777   21.9939 H   0  0  0  0  0  0
  -28.1167  -29.1071   21.1429 H   0  0  0  0  0  0
  -26.0401  -26.0016   18.9676 H   0  0  0  0  0  0
  -23.9793  -27.2975   19.0413 H   0  0  0  0  0  0
  -23.7358  -30.6056   19.4099 H   0  0  0  0  0  0
  -22.7406  -29.2556   19.8631 H   0  0  0  0  0  0
  -25.1291  -36.1982   25.0820 H   0  0  0  0  0  0
  -20.9980  -28.3262   24.1413 H   0  0  0  0  0  0
  -20.5673  -26.2290   23.3608 H   0  0  0  0  0  0
  -21.6644  -26.7453   22.1210 H   0  0  0  0  0  0
  -19.6914  -25.6299   21.1237 H   0  0  0  0  0  0
  -19.6684  -27.3202   20.6744 H   0  0  0  0  0  0
  -17.4193  -26.6674   21.4025 H   0  0  0  0  0  0
  -18.0329  -26.0071   22.9017 H   0  0  0  0  0  0
  -19.7936  -30.7249   24.2302 H   0  0  0  0  0  0
  -17.5027  -31.6268   24.5173 H   0  0  0  0  0  0
  -15.5364  -30.3018   23.7630 H   0  0  0  0  0  0
  -15.8657  -28.0840   22.7064 H   0  0  0  0  0  0
  -24.5886  -30.7126   25.7829 H   0  0  0  0  0  0
  -24.8957  -32.2936   26.4917 H   0  0  0  0  0  0
  -25.8071  -30.8932   27.0247 H   0  0  0  0  0  0
  -26.2869  -29.6806   24.1170 H   0  0  0  0  0  0
  -27.4013  -29.7283   25.4648 H   0  0  0  0  0  0
  -27.8742  -30.4329   23.9358 H   0  0  0  0  0  0
  -27.2666  -33.3618   26.2117 H   0  0  0  0  0  0
  -28.3851  -32.6923   25.0318 H   0  0  0  0  0  0
  -28.0741  -31.8431   26.5390 H   0  0  0  0  0  0
  -28.2625  -38.0084   24.7482 H   0  0  0  0  0  0
  -28.1041  -36.2616   24.6325 H   0  0  0  0  0  0
  -27.2290  -37.1514   25.8865 H   0  0  0  0  0  0
  -20.9285  -29.8771   21.6923 H   0  0  0  0  0  0
  -26.0182  -38.2876   24.1389 H   0  0  0  0  0  0
  -33.3462  -20.6102   21.3105 H   0  0  0  0  0  0
  -34.0115  -19.2902   22.2367 H   0  0  0  0  0  0
  -32.8952  -20.3746   23.0116 H   0  0  0  0  0  0
  -32.2635  -22.7952   21.6341 H   0  0  0  0  0  0
  -31.3934  -21.8588   22.8615 H   0  0  0  0  0  0
  -30.8525  -23.4247   22.4586 H   0  0  0  0  0  0
  -31.8937  -21.0199   19.5947 H   0  0  0  0  0  0
  -31.5567  -22.7056   19.2369 H   0  0  0  0  0  0
  -30.4108  -21.4597   18.7728 H   0  0  0  0  0  0
  -29.4213  -20.6568   22.4173 H   0  0  0  0  0  0
  -28.9105  -20.3355   20.8142 H   0  0  0  0  0  0
  -29.8871  -24.4489   19.3027 H   0  0  0  0  0  0
  -30.2905  -24.8432   20.9449 H   0  0  0  0  0  0
  -28.4810  -22.5306   19.9865 H   0  0  0  0  0  0
  -28.6217  -22.9605   21.6580 H   0  0  0  0  0  0
  -27.9011  -25.2797   21.4811 H   0  0  0  0  0  0
  -27.4756  -24.8117   19.8558 H   0  0  0  0  0  0
  -29.1265  -15.5062   21.2011 H   0  0  0  0  0  0
  1 25  1  0  0  0
  1 30  2  0  0  0
  1 83  1  0  0  0
  2  3  1  0  0  0
  2 25  1  0  0  0
  2 85  1  0  0  0
  2 86  1  0  0  0
  3  4  1  0  0  0
  3 87  1  0  0  0
  3 88  1  0  0  0
  4  5  1  0  0  0
  4 89  1  0  0  0
  4 90  1  0  0  0
  5  6  1  0  0  0
  5 26  1  0  0  0
  5 91  1  0  0  0
  6 25  1  0  0  0
  6 92  1  0  0  0
  6 93  1  0  0  0
  7  8  2  0  0  0
  7 26  1  0  0  0
  7 29  1  0  0  0
  8  9  1  0  0  0
  8 22  1  0  0  0
  9 10  1  0  0  0
  9 27  2  0  0  0
 10 11  2  0  0  0
 10 15  1  0  0  0
 11 12  1  0  0  0
 11 94  1  0  0  0
 12 13  2  0  0  0
 12 95  1  0  0  0
 13 14  1  0  0  0
 13 31  1  0  0  0
 14 15  2  0  0  0
 14 96  1  0  0  0
 15 97  1  0  0  0
 16 17  2  0  0  0
 16 21  1  0  0  0
 16 31  1  0  0  0
 17 18  1  0  0  0
 17 98  1  0  0  0
 18 19  2  0  0  0
 18 99  1  0  0  0
 19 20  1  0  0  0
 19 24  1  0  0  0
 20 21  2  0  0  0
 20100  1  0  0  0
 21 23  1  0  0  0
 22 28  1  0  0  0
 22 32  2  0  0  0
 26 27  1  0  0  0
 28101  1  0  0  0
 28102  1  0  0  0
 29103  1  0  0  0
 29104  1  0  0  0
 33 34  1  0  0  0
 33 66  1  0  0  0
 33 70  2  0  0  0
 34 36  1  0  0  0
 34 59  1  0  0  0
 34105  1  0  0  0
 35 44  2  0  0  0
 35 45  1  0  0  0
 35 68  1  0  0  0
 36 56  1  0  0  0
 36106  1  0  0  0
 37 39  1  0  0  0
 37 47  1  0  0  0
 37 66  1  0  0  0
 37107  1  0  0  0
 38 43  2  0  0  0
 38 46  1  0  0  0
 38 47  1  0  0  0
 39 64  1  0  0  0
 39 67  2  0  0  0
 40 52  1  0  0  0
 40 53  2  0  0  0
 40 58  1  0  0  0
 41108  1  0  0  0
 41109  1  0  0  0
 41110  1  0  0  0
 41 48  1  0  0  0
 42 43  1  0  0  0
 42 66  1  0  0  0
 42111  1  0  0  0
 42112  1  0  0  0
 43 44  1  0  0  0
 44113  1  0  0  0
 45 46  2  0  0  0
 45114  1  0  0  0
 46115  1  0  0  0
 47116  1  0  0  0
 47117  1  0  0  0
 48 56  1  0  0  0
 48 65  1  0  0  0
 48118  1  0  0  0
 49 50  1  0  0  0
 49 53  1  0  0  0
 49 64  1  0  0  0
 49119  1  0  0  0
 50 51  1  0  0  0
 50120  1  0  0  0
 50121  1  0  0  0
 51 52  1  0  0  0
 51122  1  0  0  0
 51123  1  0  0  0
 52124  1  0  0  0
 52125  1  0  0  0
 53 54  1  0  0  0
 54 55  2  0  0  0
 54126  1  0  0  0
 55 57  1  0  0  0
 55127  1  0  0  0
 56 69  2  0  0  0
 57 58  2  0  0  0
 57128  1  0  0  0
 58129  1  0  0  0
 59 60  1  0  0  0
 59 61  1  0  0  0
 59 62  1  0  0  0
 60130  1  0  0  0
 60131  1  0  0  0
 60132  1  0  0  0
 61133  1  0  0  0
 61134  1  0  0  0
 61135  1  0  0  0
 62136  1  0  0  0
 62137  1  0  0  0
 62138  1  0  0  0
 63 65  1  0  0  0
 63139  1  0  0  0
 63140  1  0  0  0
 63141  1  0  0  0
 64142  1  0  0  0
 65143  1  0  0  0
 68 80  1  0  0  0
 71 72  2  0  0  0
 71 77  1  0  0  0
 71 82  1  0  0  0
 72 74  1  0  0  0
 72 84  1  0  0  0
 73 82  2  0  0  0
 73 83  1  0  0  0
 73 84  1  0  0  0
 74144  1  0  0  0
 74145  1  0  0  0
 74146  1  0  0  0
 75147  1  0  0  0
 75148  1  0  0  0
 75149  1  0  0  0
 75 81  1  0  0  0
 76 81  1  0  0  0
 76150  1  0  0  0
 76151  1  0  0  0
 76152  1  0  0  0
 77 81  1  0  0  0
 77153  1  0  0  0
 77154  1  0  0  0
 78 79  1  0  0  0
 78 80  1  0  0  0
 78155  1  0  0  0
 78156  1  0  0  0
 79 81  1  0  0  0
 79157  1  0  0  0
 79158  1  0  0  0
 80159  1  0  0  0
 80160  1  0  0  0
 83161  1  0  0  0
M  ISO  4   1 100  68 101  80 101  83 100
M  END
> <chiral flag>
0

> <version>
0

> <s_m_source_file>
/data/baiqing/PycharmProjects/Reinvent-master-3.2/result/LINK_invent/BTK/process_docking_weight1_custom_product_contain_oxygen_bond_distance_aromatic_linkinvent_7_9_3/rearranged_h_0190.sdf

> <i_m_source_file_index>
60

> <r_mmod_Potential_Energy-OPLS-2005>
-21.3505802154541

> <r_mmod_Stretch_Energy-OPLS-2005>
47.9413642883301

> <r_mmod_Bend_Energy-OPLS-2005>
126.682479858398

> <r_mmod_Torsional_Energy-OPLS-2005>
232.525512695312

> <r_mmod_Improper_Torsional_Energy-OPLS-2005>
4.52375555038452

> <r_mmod_Van_der_Waal_Energy-OPLS-2005>
143.711929321289

> <r_mmod_Electrostatic_Energy-OPLS-2005>
-398.338531494141

> <r_mmod_Solvation_Energy-OPLS-2005>
-197.705200195312

> <b_mmod_Minimization_Converged-OPLS-2005>
0

> <r_mmod_RMS_Derivative-OPLS-2005>
3.90543413162231

$$$$
60
                    3D
 Structure written by MMmdl.
164172  0  0  1  0            999 V2000
  -30.7113  -14.6027   20.5344 C   0  0  0  0  0  0
  -30.4138  -12.3920   19.4521 C   0  0  0  0  0  0
  -29.4832  -12.4894   18.2255 C   0  0  0  0  0  0
  -28.0107  -12.3324   18.6446 C   0  0  0  0  0  0
  -27.6458  -13.2076   19.8694 C   0  0  2  0  0  0
  -28.6984  -13.0719   20.9919 C   0  0  0  0  0  0
  -25.2494  -13.8100   20.5679 C   0  0  0  0  0  0
  -24.1773  -13.0427   20.9303 C   0  0  0  0  0  0
  -24.6319  -11.6899   20.8862 C   0  0  0  0  0  0
  -23.8972  -10.4287   21.0461 C   0  0  0  0  0  0
  -24.3554   -9.4192   21.9209 C   0  0  0  0  0  0
  -23.6272   -8.2208   22.0702 C   0  0  0  0  0  0
  -22.4242   -8.0222   21.3506 C   0  0  0  0  0  0
  -21.9846   -9.0203   20.4618 C   0  0  0  0  0  0
  -22.7158  -10.2117   20.3086 C   0  0  0  0  0  0
  -21.6811   -6.0696   22.5265 C   0  0  0  0  0  0
  -21.3981   -6.5609   23.8193 C   0  0  0  0  0  0
  -21.3668   -5.6756   24.9159 C   0  0  0  0  0  0
  -21.6047   -4.3014   24.7207 C   0  0  0  0  0  0
  -21.8806   -3.8116   23.4325 C   0  0  0  0  0  0
  -21.9184   -4.6937   22.3385 C   0  0  0  0  0  0
  -22.7814  -13.5265   21.1893 C   0  0  0  0  0  0
  -22.1715   -4.2163   21.0951 F   0  0  0  0  0  0
  -21.5648   -3.4475   25.7719 F   0  0  0  0  0  0
  -29.9961  -13.4371   20.4141 N   0  0  0  0  0  0
  -26.2934  -12.9295   20.3412 N   0  0  0  0  0  0
  -25.9264  -11.6463   20.5925 N   0  0  0  0  0  0
  -22.0388  -12.8231   22.0383 N   0  0  0  0  0  0
  -25.4096  -15.1745   20.3837 N   0  0  0  0  0  0
  -31.8810  -14.6558   20.1543 O   0  0  0  0  0  0
  -21.6543   -6.8865   21.4245 O   0  0  0  0  0  0
  -22.3557  -14.5587   20.6696 O   0  0  0  0  0  0
  -24.6212  -31.8655   23.2047 C   0  0  0  0  0  0
  -25.9081  -32.4821   23.8347 C   0  0  1  0  0  0
  -27.2207  -27.3632   20.1260 C   0  0  0  0  0  0
  -25.5908  -33.8612   24.2268 N   0  0  0  0  0  0
  -23.4109  -30.4859   21.5487 C   0  0  2  0  0  0
  -24.8588  -28.9454   20.1133 C   0  0  0  0  0  0
  -22.7427  -29.4627   22.4978 C   0  0  0  0  0  0
  -18.0280  -28.1386   22.8495 C   0  0  0  0  0  0
  -24.1495  -36.7317   23.2629 C   0  0  0  0  0  0
  -25.9466  -30.8097   21.3682 C   0  0  0  0  0  0
  -26.0235  -29.4387   20.7180 C   0  0  0  0  0  0
  -27.2123  -28.6562   20.7178 C   0  0  0  0  0  0
  -26.0438  -26.9134   19.4907 C   0  0  0  0  0  0
  -24.8671  -27.6856   19.4916 C   0  0  0  0  0  0
  -23.6230  -29.8182   20.1646 C   0  0  0  0  0  0
  -25.4123  -36.3089   24.0315 C   0  0  1  0  0  0
  -20.5864  -28.3665   23.1318 C   0  0  2  0  0  0
  -20.6780  -26.9410   22.5414 C   0  0  0  0  0  0
  -19.5751  -26.6385   21.5227 C   0  0  0  0  0  0
  -18.1921  -26.7935   22.1632 C   0  0  0  0  0  0
  -19.1528  -28.8845   23.2898 C   0  0  0  0  0  0
  -18.9456  -30.1456   23.8902 C   0  0  0  0  0  0
  -17.6448  -30.6592   24.0558 C   0  0  0  0  0  0
  -25.9040  -34.9472   23.5083 C   0  0  0  0  0  0
  -16.5338  -29.9082   23.6336 C   0  0  0  0  0  0
  -16.7267  -28.6502   23.0357 C   0  0  0  0  0  0
  -26.4487  -31.6628   25.0708 C   0  0  0  0  0  0
  -25.3705  -31.3807   26.1424 C   0  0  0  0  0  0
  -27.0325  -30.3042   24.6175 C   0  0  0  0  0  0
  -27.6021  -32.4383   25.7502 C   0  0  0  0  0  0
  -27.5579  -37.1817   24.8457 C   0  0  0  0  0  0
  -21.4133  -29.3040   22.3721 N   0  0  0  0  0  0
  -26.4302  -37.3775   23.9389 N   0  0  0  0  0  0
  -24.6787  -31.0689   22.0993 N   0  0  0  0  0  0
  -23.4182  -28.8159   23.3026 O   0  0  0  0  0  0
  -28.3368  -26.5325   20.1357 O   0  0  0  0  0  0
  -26.5593  -34.8936   22.4640 O   0  0  0  0  0  0
  -23.5373  -32.1441   23.7392 O   0  0  0  0  0  0
  -27.1538  -18.1002   21.0210 C   0  0  0  0  0  0
  -28.4810  -17.7536   21.1370 C   0  0  0  0  0  0
  -28.6183  -20.0611   20.8616 C   0  0  0  0  0  0
  -27.5509  -17.3693   24.5768 C   0  0  0  0  0  0
  -27.7211  -14.8584   24.7415 C   0  0  0  0  0  0
  -29.1148  -16.0978   22.9960 C   0  0  0  0  0  0
  -28.5219  -22.6778   21.1719 C   0  0  0  0  0  0
  -28.1826  -25.2737   20.8715 C   0  0  0  0  0  0
  -28.9313  -16.3055   21.4707 C   0  0  2  0  0  0
  -27.7887  -16.0661   23.7953 C   0  0  0  0  0  0
  -28.8903  -23.9633   20.3323 C   0  0  1  0  0  0
  -29.3145  -18.9042   21.0189 N   0  0  0  0  0  0
  -29.1287  -21.3739   20.7816 N   0  0  0  0  0  0
  -30.1199  -15.8159   20.7492 N   0  0  0  0  0  0
  -30.2935  -24.1125   20.4727 O   0  0  0  0  0  0
  -26.8855  -19.8071   20.8246 S   0  0  0  0  0  0
  -31.4529  -12.4898   19.1331 H   0  0  0  0  0  0
  -30.3477  -11.4048   19.9102 H   0  0  0  0  0  0
  -29.7449  -11.7255   17.4917 H   0  0  0  0  0  0
  -29.6262  -13.4494   17.7289 H   0  0  0  0  0  0
  -27.8449  -11.2777   18.8765 H   0  0  0  0  0  0
  -27.3537  -12.5614   17.8056 H   0  0  0  0  0  0
  -27.6649  -14.2365   19.5139 H   0  0  0  0  0  0
  -28.7278  -12.0458   21.3671 H   0  0  0  0  0  0
  -28.4503  -13.6726   21.8608 H   0  0  0  0  0  0
  -25.2689   -9.5710   22.4805 H   0  0  0  0  0  0
  -24.0027   -7.4576   22.7367 H   0  0  0  0  0  0
  -21.0726   -8.8778   19.8993 H   0  0  0  0  0  0
  -22.3554  -10.9656   19.6228 H   0  0  0  0  0  0
  -21.1953   -7.6104   23.9670 H   0  0  0  0  0  0
  -21.1531   -6.0513   25.9050 H   0  0  0  0  0  0
  -22.0567   -2.7582   23.2832 H   0  0  0  0  0  0
  -22.3917  -11.9761   22.4628 H   0  0  0  0  0  0
  -21.1045  -13.1347   22.2636 H   0  0  0  0  0  0
  -24.5959  -15.7810   20.3900 H   0  0  0  0  0  0
  -26.1756  -15.5539   19.8442 H   0  0  0  0  0  0
  -26.7130  -32.5524   23.1069 H   0  0  0  0  0  0
  -25.0073  -33.9779   25.0425 H   0  0  0  0  0  0
  -22.7027  -31.3048   21.4027 H   0  0  0  0  0  0
  -23.3744  -35.9661   23.3303 H   0  0  0  0  0  0
  -24.3548  -36.8943   22.2033 H   0  0  0  0  0  0
  -23.7284  -37.6537   23.6655 H   0  0  0  0  0  0
  -26.0585  -31.5741   20.5976 H   0  0  0  0  0  0
  -26.8335  -30.8630   21.9883 H   0  0  0  0  0  0
  -28.1077  -29.0270   21.1958 H   0  0  0  0  0  0
  -26.0308  -25.9515   18.9976 H   0  0  0  0  0  0
  -23.9763  -27.3027   19.0130 H   0  0  0  0  0  0
  -23.7287  -30.5924   19.4056 H   0  0  0  0  0  0
  -22.7469  -29.2371   19.8692 H   0  0  0  0  0  0
  -25.1312  -36.1913   25.0807 H   0  0  0  0  0  0
  -20.9970  -28.3251   24.1433 H   0  0  0  0  0  0
  -20.5722  -26.2284   23.3604 H   0  0  0  0  0  0
  -21.6649  -26.7477   22.1182 H   0  0  0  0  0  0
  -19.6928  -25.6293   21.1265 H   0  0  0  0  0  0
  -19.6700  -27.3194   20.6756 H   0  0  0  0  0  0
  -17.4201  -26.6680   21.4023 H   0  0  0  0  0  0
  -18.0312  -26.0068   22.9020 H   0  0  0  0  0  0
  -19.7934  -30.7273   24.2278 H   0  0  0  0  0  0
  -17.5011  -31.6288   24.5141 H   0  0  0  0  0  0
  -15.5345  -30.2978   23.7688 H   0  0  0  0  0  0
  -15.8667  -28.0828   22.7078 H   0  0  0  0  0  0
  -24.5841  -30.7203   25.7760 H   0  0  0  0  0  0
  -24.8953  -32.3007   26.4827 H   0  0  0  0  0  0
  -25.7992  -30.8979   27.0204 H   0  0  0  0  0  0
  -26.2900  -29.6798   24.1200 H   0  0  0  0  0  0
  -27.3991  -29.7296   25.4690 H   0  0  0  0  0  0
  -27.8771  -30.4307   23.9404 H   0  0  0  0  0  0
  -27.2581  -33.3648   26.2103 H   0  0  0  0  0  0
  -28.3831  -32.7024   25.0365 H   0  0  0  0  0  0
  -28.0691  -31.8516   26.5418 H   0  0  0  0  0  0
  -28.2600  -38.0104   24.7472 H   0  0  0  0  0  0
  -28.1060  -36.2629   24.6319 H   0  0  0  0  0  0
  -27.2273  -37.1529   25.8851 H   0  0  0  0  0  0
  -20.9278  -29.8747   21.6927 H   0  0  0  0  0  0
  -26.0175  -38.2846   24.1374 H   0  0  0  0  0  0
  -26.2973  -17.4511   21.0972 H   0  0  0  0  0  0
  -26.5862  -17.3583   25.0861 H   0  0  0  0  0  0
  -27.5636  -18.2400   23.9227 H   0  0  0  0  0  0
  -28.3167  -17.5179   25.3382 H   0  0  0  0  0  0
  -26.7346  -14.7784   25.2004 H   0  0  0  0  0  0
  -28.4586  -14.9374   25.5427 H   0  0  0  0  0  0
  -27.9093  -13.9235   24.2113 H   0  0  0  0  0  0
  -29.7874  -16.8542   23.3969 H   0  0  0  0  0  0
  -29.6356  -15.1549   23.1666 H   0  0  0  0  0  0
  -27.4384  -22.5660   21.1736 H   0  0  0  0  0  0
  -28.7850  -22.8621   22.2155 H   0  0  0  0  0  0
  -28.5106  -25.4582   21.8948 H   0  0  0  0  0  0
  -27.1221  -25.0322   20.9601 H   0  0  0  0  0  0
  -28.1174  -15.6659   21.1510 H   0  0  0  0  0  0
  -26.9612  -15.9472   23.0937 H   0  0  0  0  0  0
  -28.6327  -23.8081   19.2815 H   0  0  0  0  0  0
  -30.1434  -21.3856   20.7751 H   0  0  0  0  0  0
  -30.7608  -16.5719   20.5580 H   0  0  0  0  0  0
  -30.7025  -23.4280   19.9514 H   0  0  0  0  0  0
  1 25  1  0  0  0
  1 30  2  0  0  0
  1 84  1  0  0  0
  2  3  1  0  0  0
  2 25  1  0  0  0
  2 87  1  0  0  0
  2 88  1  0  0  0
  3  4  1  0  0  0
  3 89  1  0  0  0
  3 90  1  0  0  0
  4  5  1  0  0  0
  4 91  1  0  0  0
  4 92  1  0  0  0
  5  6  1  0  0  0
  5 26  1  0  0  0
  5 93  1  0  0  0
  6 25  1  0  0  0
  6 94  1  0  0  0
  6 95  1  0  0  0
  7  8  2  0  0  0
  7 26  1  0  0  0
  7 29  1  0  0  0
  8  9  1  0  0  0
  8 22  1  0  0  0
  9 10  1  0  0  0
  9 27  2  0  0  0
 10 11  2  0  0  0
 10 15  1  0  0  0
 11 12  1  0  0  0
 11 96  1  0  0  0
 12 13  2  0  0  0
 12 97  1  0  0  0
 13 14  1  0  0  0
 13 31  1  0  0  0
 14 15  2  0  0  0
 14 98  1  0  0  0
 15 99  1  0  0  0
 16 17  2  0  0  0
 16 21  1  0  0  0
 16 31  1  0  0  0
 17 18  1  0  0  0
 17100  1  0  0  0
 18 19  2  0  0  0
 18101  1  0  0  0
 19 20  1  0  0  0
 19 24  1  0  0  0
 20 21  2  0  0  0
 20102  1  0  0  0
 21 23  1  0  0  0
 22 28  1  0  0  0
 22 32  2  0  0  0
 26 27  1  0  0  0
 28103  1  0  0  0
 28104  1  0  0  0
 29105  1  0  0  0
 29106  1  0  0  0
 33 34  1  0  0  0
 33 66  1  0  0  0
 33 70  2  0  0  0
 34 36  1  0  0  0
 34 59  1  0  0  0
 34107  1  0  0  0
 35 44  2  0  0  0
 35 45  1  0  0  0
 35 68  1  0  0  0
 36 56  1  0  0  0
 36108  1  0  0  0
 37 39  1  0  0  0
 37 47  1  0  0  0
 37 66  1  0  0  0
 37109  1  0  0  0
 38 43  2  0  0  0
 38 46  1  0  0  0
 38 47  1  0  0  0
 39 64  1  0  0  0
 39 67  2  0  0  0
 40 52  1  0  0  0
 40 53  2  0  0  0
 40 58  1  0  0  0
 41110  1  0  0  0
 41111  1  0  0  0
 41112  1  0  0  0
 41 48  1  0  0  0
 42 43  1  0  0  0
 42 66  1  0  0  0
 42113  1  0  0  0
 42114  1  0  0  0
 43 44  1  0  0  0
 44115  1  0  0  0
 45 46  2  0  0  0
 45116  1  0  0  0
 46117  1  0  0  0
 47118  1  0  0  0
 47119  1  0  0  0
 48 56  1  0  0  0
 48 65  1  0  0  0
 48120  1  0  0  0
 49 50  1  0  0  0
 49 53  1  0  0  0
 49 64  1  0  0  0
 49121  1  0  0  0
 50 51  1  0  0  0
 50122  1  0  0  0
 50123  1  0  0  0
 51 52  1  0  0  0
 51124  1  0  0  0
 51125  1  0  0  0
 52126  1  0  0  0
 52127  1  0  0  0
 53 54  1  0  0  0
 54 55  2  0  0  0
 54128  1  0  0  0
 55 57  1  0  0  0
 55129  1  0  0  0
 56 69  2  0  0  0
 57 58  2  0  0  0
 57130  1  0  0  0
 58131  1  0  0  0
 59 60  1  0  0  0
 59 61  1  0  0  0
 59 62  1  0  0  0
 60132  1  0  0  0
 60133  1  0  0  0
 60134  1  0  0  0
 61135  1  0  0  0
 61136  1  0  0  0
 61137  1  0  0  0
 62138  1  0  0  0
 62139  1  0  0  0
 62140  1  0  0  0
 63 65  1  0  0  0
 63141  1  0  0  0
 63142  1  0  0  0
 63143  1  0  0  0
 64144  1  0  0  0
 65145  1  0  0  0
 68 78  1  0  0  0
 71 72  2  0  0  0
 71 86  1  0  0  0
 71146  1  0  0  0
 72 79  1  0  0  0
 72 82  1  0  0  0
 73 82  2  0  0  0
 73 83  1  0  0  0
 73 86  1  0  0  0
 74147  1  0  0  0
 74148  1  0  0  0
 74149  1  0  0  0
 74 80  1  0  0  0
 75 80  1  0  0  0
 75150  1  0  0  0
 75151  1  0  0  0
 75152  1  0  0  0
 76 80  1  0  0  0
 76153  1  0  0  0
 76154  1  0  0  0
 76 79  1  0  0  0
 77 81  1  0  0  0
 77 83  1  0  0  0
 77155  1  0  0  0
 77156  1  0  0  0
 78 81  1  0  0  0
 78157  1  0  0  0
 78158  1  0  0  0
 79 84  1  0  0  0
 79159  1  0  0  0
 80160  1  0  0  0
 81 85  1  0  0  0
 81161  1  0  0  0
 83162  1  0  0  0
 84163  1  0  0  0
 85164  1  0  0  0
M  ISO  4   1 100  68 101  78 101  84 100
M  END
> <chiral flag>
0

> <version>
0

> <s_m_source_file>
/data/baiqing/PycharmProjects/Reinvent-master-3.2/result/LINK_invent/BTK/process_docking_weight1_custom_product_contain_oxygen_bond_distance_aromatic_linkinvent_7_9_3/rearranged_h_0190.sdf

> <i_m_source_file_index>
61

> <r_mmod_Potential_Energy-OPLS-2005>
-107.778877258301

> <r_mmod_Stretch_Energy-OPLS-2005>
60.0593681335449

> <r_mmod_Bend_Energy-OPLS-2005>
154.893615722656

> <r_mmod_Torsional_Energy-OPLS-2005>
297.714752197266

> <r_mmod_Improper_Torsional_Energy-OPLS-2005>
12.4165878295898

> <r_mmod_Van_der_Waal_Energy-OPLS-2005>
111.350280761719

> <r_mmod_Electrostatic_Energy-OPLS-2005>
-548.425842285156

> <r_mmod_Solvation_Energy-OPLS-2005>
-233.506362915039

> <b_mmod_Minimization_Converged-OPLS-2005>
0

> <r_mmod_RMS_Derivative-OPLS-2005>
4.74621915817261

$$$$
61
                    3D
 Structure written by MMmdl.
157165  0  0  1  0            999 V2000
  -30.6294  -14.7255   20.4716 C   0  0  0  0  0  0
  -30.4273  -12.4481   19.4652 C   0  0  0  0  0  0
  -29.5054  -12.5039   18.2288 C   0  0  0  0  0  0
  -28.0315  -12.3318   18.6440 C   0  0  0  0  0  0
  -27.6395  -13.2322   19.8466 C   0  0  2  0  0  0
  -28.6849  -13.1663   20.9801 C   0  0  0  0  0  0
  -25.2503  -13.8202   20.5691 C   0  0  0  0  0  0
  -24.1798  -13.0444   20.9207 C   0  0  0  0  0  0
  -24.6391  -11.6922   20.8747 C   0  0  0  0  0  0
  -23.9070  -10.4296   21.0406 C   0  0  0  0  0  0
  -24.3625   -9.4210   21.9181 C   0  0  0  0  0  0
  -23.6298   -8.2246   22.0751 C   0  0  0  0  0  0
  -22.4279   -8.0282   21.3542 C   0  0  0  0  0  0
  -21.9914   -9.0257   20.4645 C   0  0  0  0  0  0
  -22.7243  -10.2136   20.3054 C   0  0  0  0  0  0
  -21.6856   -6.0736   22.5278 C   0  0  0  0  0  0
  -21.4018   -6.5640   23.8211 C   0  0  0  0  0  0
  -21.3661   -5.6792   24.9173 C   0  0  0  0  0  0
  -21.6044   -4.3054   24.7224 C   0  0  0  0  0  0
  -21.8821   -3.8147   23.4345 C   0  0  0  0  0  0
  -21.9195   -4.6964   22.3400 C   0  0  0  0  0  0
  -22.7821  -13.5225   21.1869 C   0  0  0  0  0  0
  -22.1662   -4.2151   21.0977 F   0  0  0  0  0  0
  -21.5628   -3.4535   25.7736 F   0  0  0  0  0  0
  -29.9836  -13.5133   20.3922 N   0  0  0  0  0  0
  -26.2925  -12.9410   20.3264 N   0  0  0  0  0  0
  -25.9319  -11.6552   20.5745 N   0  0  0  0  0  0
  -22.0470  -12.8213   22.0426 N   0  0  0  0  0  0
  -25.4185  -15.1927   20.4110 N   0  0  0  0  0  0
  -31.8247  -14.8002   20.1757 O   0  0  0  0  0  0
  -21.6643   -6.8879   21.4239 O   0  0  0  0  0  0
  -22.3503  -14.5528   20.6712 O   0  0  0  0  0  0
  -24.6299  -31.8554   23.1976 C   0  0  0  0  0  0
  -25.9129  -32.4752   23.8326 C   0  0  1  0  0  0
  -27.2234  -27.2785   20.1414 C   0  0  0  0  0  0
  -25.5931  -33.8555   24.2258 N   0  0  0  0  0  0
  -23.4264  -30.4757   21.5410 C   0  0  2  0  0  0
  -24.8747  -28.9198   20.1141 C   0  0  0  0  0  0
  -22.7498  -29.4600   22.4927 C   0  0  0  0  0  0
  -18.0289  -28.1386   22.8482 C   0  0  0  0  0  0
  -24.1489  -36.7284   23.2642 C   0  0  0  0  0  0
  -25.9693  -30.7771   21.3714 C   0  0  0  0  0  0
  -26.0455  -29.3997   20.7157 C   0  0  0  0  0  0
  -27.2279  -28.5957   20.7073 C   0  0  0  0  0  0
  -26.0337  -26.8566   19.5149 C   0  0  0  0  0  0
  -24.8731  -27.6565   19.4998 C   0  0  0  0  0  0
  -23.6437  -29.8044   20.1590 C   0  0  0  0  0  0
  -25.4116  -36.3069   24.0327 C   0  0  1  0  0  0
  -20.5892  -28.3694   23.1276 C   0  0  2  0  0  0
  -20.6776  -26.9414   22.5412 C   0  0  0  0  0  0
  -19.5753  -26.6381   21.5214 C   0  0  0  0  0  0
  -18.1932  -26.7927   22.1623 C   0  0  0  0  0  0
  -19.1542  -28.8857   23.2872 C   0  0  0  0  0  0
  -18.9464  -30.1459   23.8890 C   0  0  0  0  0  0
  -17.6462  -30.6586   24.0560 C   0  0  0  0  0  0
  -25.9057  -34.9437   23.5096 C   0  0  0  0  0  0
  -16.5353  -29.9082   23.6330 C   0  0  0  0  0  0
  -16.7276  -28.6501   23.0348 C   0  0  0  0  0  0
  -26.4502  -31.6567   25.0708 C   0  0  0  0  0  0
  -25.3730  -31.3713   26.1433 C   0  0  0  0  0  0
  -27.0353  -30.2984   24.6181 C   0  0  0  0  0  0
  -27.6055  -32.4310   25.7485 C   0  0  0  0  0  0
  -27.5580  -37.1796   24.8465 C   0  0  0  0  0  0
  -21.4207  -29.3039   22.3667 N   0  0  0  0  0  0
  -26.4290  -37.3768   23.9409 N   0  0  0  0  0  0
  -24.6942  -31.0540   22.0935 N   0  0  0  0  0  0
  -23.4201  -28.8151   23.3031 O   0  0  0  0  0  0
  -28.3151  -26.3874   20.1579 O   0  0  0  0  0  0
  -26.5628  -34.8914   22.4665 O   0  0  0  0  0  0
  -23.5453  -32.1365   23.7286 O   0  0  0  0  0  0
  -29.2097  -19.0898   19.3664 C   0  0  0  0  0  0
  -28.8435  -20.5012   19.3298 C   0  0  0  0  0  0
  -29.7243  -18.6324   20.5631 C   0  0  0  0  0  0
  -29.0364  -21.2122   20.5010 C   0  0  0  0  0  0
  -28.5669  -23.7169   20.1223 C   0  0  0  0  0  0
  -30.3946  -25.4681   22.1261 C   0  0  0  0  0  0
  -28.2389  -26.2800   23.1768 C   0  0  0  0  0  0
  -30.4458  -17.2781   20.9432 C   0  0  0  0  0  0
  -28.1588  -25.0814   20.8869 C   0  0  1  0  0  0
  -28.8799  -25.2210   22.2618 C   0  0  0  0  0  0
  -28.7731  -22.5488   20.8443 N   0  0  0  0  0  0
  -29.8928  -15.8781   20.7009 N   0  0  0  0  0  0
  -28.6664  -23.7308   18.8923 O   0  0  0  0  0  0
  -29.6811  -20.0289   21.6760 S   0  0  0  0  0  0
  -31.4687  -12.5674   19.1614 H   0  0  0  0  0  0
  -30.3674  -11.4726   19.9497 H   0  0  0  0  0  0
  -29.7854  -11.7299   17.5129 H   0  0  0  0  0  0
  -29.6343  -13.4579   17.7151 H   0  0  0  0  0  0
  -27.8861  -11.2831   18.9052 H   0  0  0  0  0  0
  -27.3743  -12.5261   17.7954 H   0  0  0  0  0  0
  -27.6335  -14.2543   19.4670 H   0  0  0  0  0  0
  -28.7192  -12.1691   21.4218 H   0  0  0  0  0  0
  -28.4235  -13.8514   21.7881 H   0  0  0  0  0  0
  -25.2772   -9.5688   22.4755 H   0  0  0  0  0  0
  -24.0008   -7.4640   22.7471 H   0  0  0  0  0  0
  -21.0844   -8.8777   19.8954 H   0  0  0  0  0  0
  -22.3700  -10.9675   19.6163 H   0  0  0  0  0  0
  -21.2010   -7.6149   23.9715 H   0  0  0  0  0  0
  -21.1482   -6.0520   25.9076 H   0  0  0  0  0  0
  -22.0598   -2.7609   23.2843 H   0  0  0  0  0  0
  -22.4096  -11.9880   22.4819 H   0  0  0  0  0  0
  -21.1084  -13.1228   22.2631 H   0  0  0  0  0  0
  -24.6489  -15.8443   20.5206 H   0  0  0  0  0  0
  -26.2623  -15.6344   20.0690 H   0  0  0  0  0  0
  -26.7197  -32.5412   23.1074 H   0  0  0  0  0  0
  -25.0065  -33.9691   25.0393 H   0  0  0  0  0  0
  -22.7221  -31.2968   21.3933 H   0  0  0  0  0  0
  -23.3751  -35.9617   23.3301 H   0  0  0  0  0  0
  -24.3579  -36.8912   22.2058 H   0  0  0  0  0  0
  -23.7243  -37.6484   23.6669 H   0  0  0  0  0  0
  -26.1029  -31.5380   20.6012 H   0  0  0  0  0  0
  -26.8482  -30.8281   22.0024 H   0  0  0  0  0  0
  -28.1295  -28.9651   21.1747 H   0  0  0  0  0  0
  -25.9972  -25.8827   19.0474 H   0  0  0  0  0  0
  -23.9766  -27.2833   19.0239 H   0  0  0  0  0  0
  -23.7665  -30.5776   19.3998 H   0  0  0  0  0  0
  -22.7630  -29.2348   19.8572 H   0  0  0  0  0  0
  -25.1298  -36.1914   25.0820 H   0  0  0  0  0  0
  -20.9980  -28.3270   24.1400 H   0  0  0  0  0  0
  -20.5671  -26.2308   23.3617 H   0  0  0  0  0  0
  -21.6645  -26.7436   22.1211 H   0  0  0  0  0  0
  -19.6914  -25.6291   21.1248 H   0  0  0  0  0  0
  -19.6688  -27.3188   20.6741 H   0  0  0  0  0  0
  -17.4203  -26.6673   21.4026 H   0  0  0  0  0  0
  -18.0331  -26.0072   22.9022 H   0  0  0  0  0  0
  -19.7940  -30.7276   24.2256 H   0  0  0  0  0  0
  -17.5015  -31.6266   24.5164 H   0  0  0  0  0  0
  -15.5352  -30.2978   23.7662 H   0  0  0  0  0  0
  -15.8676  -28.0817   22.7064 H   0  0  0  0  0  0
  -24.5903  -30.7069   25.7756 H   0  0  0  0  0  0
  -24.8927  -32.2882   26.4858 H   0  0  0  0  0  0
  -25.8048  -30.8885   27.0208 H   0  0  0  0  0  0
  -26.2938  -29.6724   24.1202 H   0  0  0  0  0  0
  -27.4040  -29.7245   25.4693 H   0  0  0  0  0  0
  -27.8807  -30.4259   23.9416 H   0  0  0  0  0  0
  -27.2659  -33.3609   26.2057 H   0  0  0  0  0  0
  -28.3867  -32.6872   25.0317 H   0  0  0  0  0  0
  -28.0721  -31.8440   26.5405 H   0  0  0  0  0  0
  -28.2593  -38.0097   24.7512 H   0  0  0  0  0  0
  -28.1080  -36.2627   24.6286 H   0  0  0  0  0  0
  -27.2300  -37.1440   25.8868 H   0  0  0  0  0  0
  -20.9398  -29.8758   21.6865 H   0  0  0  0  0  0
  -26.0168  -38.2842   24.1406 H   0  0  0  0  0  0
  -29.1248  -18.4743   18.4815 H   0  0  0  0  0  0
  -28.4489  -20.9417   18.4248 H   0  0  0  0  0  0
  -30.8738  -25.5148   23.1046 H   0  0  0  0  0  0
  -30.5989  -26.4092   21.6144 H   0  0  0  0  0  0
  -30.8875  -24.6737   21.5651 H   0  0  0  0  0  0
  -28.6398  -26.2155   24.1888 H   0  0  0  0  0  0
  -27.1585  -26.1490   23.2455 H   0  0  0  0  0  0
  -28.4317  -27.2907   22.8215 H   0  0  0  0  0  0
  -30.6622  -17.3142   22.0116 H   0  0  0  0  0  0
  -31.4317  -17.3171   20.4772 H   0  0  0  0  0  0
  -27.0983  -24.9419   21.1027 H   0  0  0  0  0  0
  -28.7598  -24.2789   22.7971 H   0  0  0  0  0  0
  -28.7410  -22.7080   21.8422 H   0  0  0  0  0  0
  -28.9039  -15.7525   20.8537 H   0  0  0  0  0  0
  1 25  1  0  0  0
  1 30  2  0  0  0
  1 82  1  0  0  0
  2  3  1  0  0  0
  2 25  1  0  0  0
  2 85  1  0  0  0
  2 86  1  0  0  0
  3  4  1  0  0  0
  3 87  1  0  0  0
  3 88  1  0  0  0
  4  5  1  0  0  0
  4 89  1  0  0  0
  4 90  1  0  0  0
  5  6  1  0  0  0
  5 26  1  0  0  0
  5 91  1  0  0  0
  6 25  1  0  0  0
  6 92  1  0  0  0
  6 93  1  0  0  0
  7  8  2  0  0  0
  7 26  1  0  0  0
  7 29  1  0  0  0
  8  9  1  0  0  0
  8 22  1  0  0  0
  9 10  1  0  0  0
  9 27  2  0  0  0
 10 11  2  0  0  0
 10 15  1  0  0  0
 11 12  1  0  0  0
 11 94  1  0  0  0
 12 13  2  0  0  0
 12 95  1  0  0  0
 13 14  1  0  0  0
 13 31  1  0  0  0
 14 15  2  0  0  0
 14 96  1  0  0  0
 15 97  1  0  0  0
 16 17  2  0  0  0
 16 21  1  0  0  0
 16 31  1  0  0  0
 17 18  1  0  0  0
 17 98  1  0  0  0
 18 19  2  0  0  0
 18 99  1  0  0  0
 19 20  1  0  0  0
 19 24  1  0  0  0
 20 21  2  0  0  0
 20100  1  0  0  0
 21 23  1  0  0  0
 22 28  1  0  0  0
 22 32  2  0  0  0
 26 27  1  0  0  0
 28101  1  0  0  0
 28102  1  0  0  0
 29103  1  0  0  0
 29104  1  0  0  0
 33 34  1  0  0  0
 33 66  1  0  0  0
 33 70  2  0  0  0
 34 36  1  0  0  0
 34 59  1  0  0  0
 34105  1  0  0  0
 35 44  2  0  0  0
 35 45  1  0  0  0
 35 68  1  0  0  0
 36 56  1  0  0  0
 36106  1  0  0  0
 37 39  1  0  0  0
 37 47  1  0  0  0
 37 66  1  0  0  0
 37107  1  0  0  0
 38 43  2  0  0  0
 38 46  1  0  0  0
 38 47  1  0  0  0
 39 64  1  0  0  0
 39 67  2  0  0  0
 40 52  1  0  0  0
 40 53  2  0  0  0
 40 58  1  0  0  0
 41108  1  0  0  0
 41109  1  0  0  0
 41110  1  0  0  0
 41 48  1  0  0  0
 42 43  1  0  0  0
 42 66  1  0  0  0
 42111  1  0  0  0
 42112  1  0  0  0
 43 44  1  0  0  0
 44113  1  0  0  0
 45 46  2  0  0  0
 45114  1  0  0  0
 46115  1  0  0  0
 47116  1  0  0  0
 47117  1  0  0  0
 48 56  1  0  0  0
 48 65  1  0  0  0
 48118  1  0  0  0
 49 50  1  0  0  0
 49 53  1  0  0  0
 49 64  1  0  0  0
 49119  1  0  0  0
 50 51  1  0  0  0
 50120  1  0  0  0
 50121  1  0  0  0
 51 52  1  0  0  0
 51122  1  0  0  0
 51123  1  0  0  0
 52124  1  0  0  0
 52125  1  0  0  0
 53 54  1  0  0  0
 54 55  2  0  0  0
 54126  1  0  0  0
 55 57  1  0  0  0
 55127  1  0  0  0
 56 69  2  0  0  0
 57 58  2  0  0  0
 57128  1  0  0  0
 58129  1  0  0  0
 59 60  1  0  0  0
 59 61  1  0  0  0
 59 62  1  0  0  0
 60130  1  0  0  0
 60131  1  0  0  0
 60132  1  0  0  0
 61133  1  0  0  0
 61134  1  0  0  0
 61135  1  0  0  0
 62136  1  0  0  0
 62137  1  0  0  0
 62138  1  0  0  0
 63 65  1  0  0  0
 63139  1  0  0  0
 63140  1  0  0  0
 63141  1  0  0  0
 64142  1  0  0  0
 65143  1  0  0  0
 68 79  1  0  0  0
 71 72  1  0  0  0
 71 73  2  0  0  0
 71144  1  0  0  0
 72 74  2  0  0  0
 72145  1  0  0  0
 73 78  1  0  0  0
 73 84  1  0  0  0
 74 81  1  0  0  0
 74 84  1  0  0  0
 75 79  1  0  0  0
 75 81  1  0  0  0
 75 83  2  0  0  0
 76146  1  0  0  0
 76147  1  0  0  0
 76148  1  0  0  0
 76 80  1  0  0  0
 77 80  1  0  0  0
 77149  1  0  0  0
 77150  1  0  0  0
 77151  1  0  0  0
 78 82  1  0  0  0
 78152  1  0  0  0
 78153  1  0  0  0
 79 80  1  0  0  0
 79154  1  0  0  0
 80155  1  0  0  0
 81156  1  0  0  0
 82157  1  0  0  0
M  ISO  4   1 100  68 101  79 101  82 100
M  END
> <chiral flag>
0

> <version>
0

> <s_m_source_file>
/data/baiqing/PycharmProjects/Reinvent-master-3.2/result/LINK_invent/BTK/process_docking_weight1_custom_product_contain_oxygen_bond_distance_aromatic_linkinvent_7_9_3/rearranged_h_0190.sdf

> <i_m_source_file_index>
62

> <r_mmod_Potential_Energy-OPLS-2005>
112.342834472656

> <r_mmod_Stretch_Energy-OPLS-2005>
108.862205505371

> <r_mmod_Bend_Energy-OPLS-2005>
175.083755493164

> <r_mmod_Torsional_Energy-OPLS-2005>
241.55810546875

> <r_mmod_Improper_Torsional_Energy-OPLS-2005>
4.8478217124939

> <r_mmod_Van_der_Waal_Energy-OPLS-2005>
110.353050231934

> <r_mmod_Electrostatic_Energy-OPLS-2005>
-374.213256835938

> <r_mmod_Solvation_Energy-OPLS-2005>
-231.534530639648

> <b_mmod_Minimization_Converged-OPLS-2005>
0

> <r_mmod_RMS_Derivative-OPLS-2005>
0.431202322244644

$$$$
62
                    3D
 Structure written by MMmdl.
158166  0  0  1  0            999 V2000
  -30.6510  -14.6898   20.4920 C   0  0  0  0  0  0
  -30.4193  -12.4195   19.4814 C   0  0  0  0  0  0
  -29.5055  -12.5498   18.2451 C   0  0  0  0  0  0
  -28.0316  -12.3798   18.6493 C   0  0  0  0  0  0
  -27.6545  -13.2442   19.8813 C   0  0  2  0  0  0
  -28.6992  -13.1210   21.0147 C   0  0  0  0  0  0
  -25.2526  -13.8228   20.5730 C   0  0  0  0  0  0
  -24.1807  -13.0425   20.9187 C   0  0  0  0  0  0
  -24.6423  -11.6909   20.8735 C   0  0  0  0  0  0
  -23.9114  -10.4257   21.0400 C   0  0  0  0  0  0
  -24.3653   -9.4155   21.9183 C   0  0  0  0  0  0
  -23.6295   -8.2206   22.0774 C   0  0  0  0  0  0
  -22.4288   -8.0259   21.3538 C   0  0  0  0  0  0
  -21.9945   -9.0248   20.4631 C   0  0  0  0  0  0
  -22.7293  -10.2113   20.3032 C   0  0  0  0  0  0
  -21.6863   -6.0711   22.5262 C   0  0  0  0  0  0
  -21.4031   -6.5636   23.8185 C   0  0  0  0  0  0
  -21.3670   -5.6813   24.9158 C   0  0  0  0  0  0
  -21.6030   -4.3069   24.7225 C   0  0  0  0  0  0
  -21.8837   -3.8128   23.4352 C   0  0  0  0  0  0
  -21.9206   -4.6934   22.3400 C   0  0  0  0  0  0
  -22.7823  -13.5157   21.1872 C   0  0  0  0  0  0
  -22.1684   -4.2110   21.0992 F   0  0  0  0  0  0
  -21.5594   -3.4567   25.7746 F   0  0  0  0  0  0
  -30.0140  -13.4658   20.4521 N   0  0  0  0  0  0
  -26.3008  -12.9467   20.3442 N   0  0  0  0  0  0
  -25.9369  -11.6587   20.5786 N   0  0  0  0  0  0
  -22.0552  -12.8060   22.0418 N   0  0  0  0  0  0
  -25.4161  -15.1942   20.4149 N   0  0  0  0  0  0
  -31.7863  -14.8005   20.0267 O   0  0  0  0  0  0
  -21.6616   -6.8869   21.4235 O   0  0  0  0  0  0
  -22.3428  -14.5445   20.6760 O   0  0  0  0  0  0
  -24.6310  -31.8556   23.1922 C   0  0  0  0  0  0
  -25.9129  -32.4766   23.8298 C   0  0  1  0  0  0
  -27.2548  -27.2676   20.1467 C   0  0  0  0  0  0
  -25.5916  -33.8563   24.2211 N   0  0  0  0  0  0
  -23.4323  -30.4678   21.5396 C   0  0  2  0  0  0
  -24.8862  -28.9100   20.1152 C   0  0  0  0  0  0
  -22.7490  -29.4588   22.4948 C   0  0  0  0  0  0
  -18.0273  -28.1410   22.8509 C   0  0  0  0  0  0
  -24.1486  -36.7281   23.2647 C   0  0  0  0  0  0
  -25.9763  -30.7728   21.3691 C   0  0  0  0  0  0
  -26.0553  -29.3923   20.7158 C   0  0  0  0  0  0
  -27.2415  -28.5866   20.7139 C   0  0  0  0  0  0
  -26.0567  -26.8506   19.5215 C   0  0  0  0  0  0
  -24.8907  -27.6452   19.5076 C   0  0  0  0  0  0
  -23.6481  -29.7853   20.1629 C   0  0  0  0  0  0
  -25.4127  -36.3067   24.0313 C   0  0  1  0  0  0
  -20.5875  -28.3722   23.1295 C   0  0  2  0  0  0
  -20.6778  -26.9439   22.5425 C   0  0  0  0  0  0
  -19.5743  -26.6390   21.5251 C   0  0  0  0  0  0
  -18.1901  -26.7975   22.1631 C   0  0  0  0  0  0
  -19.1526  -28.8881   23.2883 C   0  0  0  0  0  0
  -18.9457  -30.1500   23.8869 C   0  0  0  0  0  0
  -17.6454  -30.6618   24.0556 C   0  0  0  0  0  0
  -25.9072  -34.9447   23.5064 C   0  0  0  0  0  0
  -16.5341  -29.9103   23.6357 C   0  0  0  0  0  0
  -16.7261  -28.6519   23.0386 C   0  0  0  0  0  0
  -26.4491  -31.6612   25.0712 C   0  0  0  0  0  0
  -25.3682  -31.3757   26.1409 C   0  0  0  0  0  0
  -27.0390  -30.3041   24.6206 C   0  0  0  0  0  0
  -27.5967  -32.4423   25.7533 C   0  0  0  0  0  0
  -27.5577  -37.1794   24.8452 C   0  0  0  0  0  0
  -21.4193  -29.3070   22.3677 N   0  0  0  0  0  0
  -26.4288  -37.3776   23.9400 N   0  0  0  0  0  0
  -24.6995  -31.0484   22.0916 N   0  0  0  0  0  0
  -23.4158  -28.8134   23.3078 O   0  0  0  0  0  0
  -28.3699  -26.3950   20.2198 O   0  0  0  0  0  0
  -26.5619  -34.8913   22.4619 O   0  0  0  0  0  0
  -23.5443  -32.1406   23.7179 O   0  0  0  0  0  0
  -29.9441  -19.5611   20.2507 C   0  0  0  0  0  0
  -29.6825  -19.1541   18.9633 C   0  0  0  0  0  0
  -29.9669  -17.1581   20.3949 C   0  0  0  0  0  0
  -31.0548  -21.1316   21.9120 C   0  0  0  0  0  0
  -33.4120  -21.0319   23.0536 C   0  0  0  0  0  0
  -32.5763  -20.9090   21.7580 C   0  0  0  0  0  0
  -29.0262  -22.2253   20.5161 C   0  0  0  0  0  0
  -28.1579  -24.9053   20.1784 C   0  0  0  0  0  0
  -30.2048  -21.0956   20.6203 C   0  0  2  0  0  0
  -29.3229  -23.8370   20.5837 C   0  0  1  0  0  0
  -30.0563  -18.3618   21.0734 N   0  0  0  0  0  0
  -29.9873  -15.7997   20.9754 N   0  0  0  0  0  0
  -30.5445  -21.3143   23.0220 O   0  0  0  0  0  0
  -29.6712  -24.1154   21.9263 O   0  0  0  0  0  0
  -29.5279  -20.0171   17.9320 F   0  0  0  0  0  0
  -29.6453  -17.4240   18.6816 S   0  0  0  0  0  0
  -31.4677  -12.4988   19.1881 H   0  0  0  0  0  0
  -30.3134  -11.4285   19.9263 H   0  0  0  0  0  0
  -29.7732  -11.8183   17.4836 H   0  0  0  0  0  0
  -29.6479  -13.5306   17.7886 H   0  0  0  0  0  0
  -27.8706  -11.3257   18.8724 H   0  0  0  0  0  0
  -27.3837  -12.6265   17.8068 H   0  0  0  0  0  0
  -27.6709  -14.2812   19.5460 H   0  0  0  0  0  0
  -28.7044  -12.1015   21.4060 H   0  0  0  0  0  0
  -28.4402  -13.7604   21.8591 H   0  0  0  0  0  0
  -25.2831   -9.5590   22.4709 H   0  0  0  0  0  0
  -23.9988   -7.4602   22.7515 H   0  0  0  0  0  0
  -21.0886   -8.8798   19.8909 H   0  0  0  0  0  0
  -22.3830  -10.9648   19.6096 H   0  0  0  0  0  0
  -21.2066   -7.6150   23.9669 H   0  0  0  0  0  0
  -21.1472   -6.0541   25.9056 H   0  0  0  0  0  0
  -22.0610   -2.7573   23.2868 H   0  0  0  0  0  0
  -22.4301  -11.9685   22.4629 H   0  0  0  0  0  0
  -21.1142  -13.0927   22.2746 H   0  0  0  0  0  0
  -24.6380  -15.8413   20.4765 H   0  0  0  0  0  0
  -26.2579  -15.6250   20.0537 H   0  0  0  0  0  0
  -26.7187  -32.5438   23.1040 H   0  0  0  0  0  0
  -25.0084  -33.9717   25.0369 H   0  0  0  0  0  0
  -22.7332  -31.2911   21.3819 H   0  0  0  0  0  0
  -23.3773  -35.9589   23.3297 H   0  0  0  0  0  0
  -24.3538  -36.8948   22.2058 H   0  0  0  0  0  0
  -23.7226  -37.6452   23.6728 H   0  0  0  0  0  0
  -26.1012  -31.5313   20.5947 H   0  0  0  0  0  0
  -26.8558  -30.8300   21.9986 H   0  0  0  0  0  0
  -28.1373  -28.9541   21.1949 H   0  0  0  0  0  0
  -25.9950  -25.8784   19.0546 H   0  0  0  0  0  0
  -23.9922  -27.2612   19.0473 H   0  0  0  0  0  0
  -23.7495  -30.5498   19.3941 H   0  0  0  0  0  0
  -22.7786  -29.1926   19.8781 H   0  0  0  0  0  0
  -25.1322  -36.1896   25.0808 H   0  0  0  0  0  0
  -20.9963  -28.3319   24.1433 H   0  0  0  0  0  0
  -20.5767  -26.2316   23.3638 H   0  0  0  0  0  0
  -21.6650  -26.7511   22.1191 H   0  0  0  0  0  0
  -19.6913  -25.6294   21.1308 H   0  0  0  0  0  0
  -19.6700  -27.3189   20.6768 H   0  0  0  0  0  0
  -17.4224  -26.6781   21.3970 H   0  0  0  0  0  0
  -18.0203  -26.0089   22.8971 H   0  0  0  0  0  0
  -19.7924  -30.7335   24.2212 H   0  0  0  0  0  0
  -17.5009  -31.6317   24.5131 H   0  0  0  0  0  0
  -15.5348  -30.2991   23.7725 H   0  0  0  0  0  0
  -15.8653  -28.0834   22.7124 H   0  0  0  0  0  0
  -24.5936  -30.7010   25.7764 H   0  0  0  0  0  0
  -24.8775  -32.2911   26.4707 H   0  0  0  0  0  0
  -25.8000  -30.9079   27.0256 H   0  0  0  0  0  0
  -26.3013  -29.6766   24.1192 H   0  0  0  0  0  0
  -27.4051  -29.7327   25.4736 H   0  0  0  0  0  0
  -27.8870  -30.4357   23.9483 H   0  0  0  0  0  0
  -27.2507  -33.3766   26.1962 H   0  0  0  0  0  0
  -28.3858  -32.6915   25.0439 H   0  0  0  0  0  0
  -28.0532  -31.8663   26.5590 H   0  0  0  0  0  0
  -28.2561  -38.0118   24.7545 H   0  0  0  0  0  0
  -28.1098  -36.2643   24.6255 H   0  0  0  0  0  0
  -27.2259  -37.1407   25.8837 H   0  0  0  0  0  0
  -20.9379  -29.8766   21.6845 H   0  0  0  0  0  0
  -26.0161  -38.2838   24.1425 H   0  0  0  0  0  0
  -34.4574  -20.7714   22.8647 H   0  0  0  0  0  0
  -33.0536  -20.3675   23.8411 H   0  0  0  0  0  0
  -33.4049  -22.0507   23.4437 H   0  0  0  0  0  0
  -32.9519  -21.6199   21.0210 H   0  0  0  0  0  0
  -32.7321  -19.9168   21.3339 H   0  0  0  0  0  0
  -28.2410  -21.9769   21.2369 H   0  0  0  0  0  0
  -28.5656  -22.0583   19.5412 H   0  0  0  0  0  0
  -27.2617  -24.6720   20.7572 H   0  0  0  0  0  0
  -27.8991  -24.6777   19.1439 H   0  0  0  0  0  0
  -30.9148  -21.4389   19.8673 H   0  0  0  0  0  0
  -30.1969  -24.0431   19.9619 H   0  0  0  0  0  0
  -29.1988  -15.5863   21.5664 H   0  0  0  0  0  0
  -30.0559  -24.9898   21.9532 H   0  0  0  0  0  0
  1 25  1  0  0  0
  1 30  2  0  0  0
  1 82  1  0  0  0
  2  3  1  0  0  0
  2 25  1  0  0  0
  2 87  1  0  0  0
  2 88  1  0  0  0
  3  4  1  0  0  0
  3 89  1  0  0  0
  3 90  1  0  0  0
  4  5  1  0  0  0
  4 91  1  0  0  0
  4 92  1  0  0  0
  5  6  1  0  0  0
  5 26  1  0  0  0
  5 93  1  0  0  0
  6 25  1  0  0  0
  6 94  1  0  0  0
  6 95  1  0  0  0
  7  8  2  0  0  0
  7 26  1  0  0  0
  7 29  1  0  0  0
  8  9  1  0  0  0
  8 22  1  0  0  0
  9 10  1  0  0  0
  9 27  2  0  0  0
 10 11  2  0  0  0
 10 15  1  0  0  0
 11 12  1  0  0  0
 11 96  1  0  0  0
 12 13  2  0  0  0
 12 97  1  0  0  0
 13 14  1  0  0  0
 13 31  1  0  0  0
 14 15  2  0  0  0
 14 98  1  0  0  0
 15 99  1  0  0  0
 16 17  2  0  0  0
 16 21  1  0  0  0
 16 31  1  0  0  0
 17 18  1  0  0  0
 17100  1  0  0  0
 18 19  2  0  0  0
 18101  1  0  0  0
 19 20  1  0  0  0
 19 24  1  0  0  0
 20 21  2  0  0  0
 20102  1  0  0  0
 21 23  1  0  0  0
 22 28  1  0  0  0
 22 32  2  0  0  0
 26 27  1  0  0  0
 28103  1  0  0  0
 28104  1  0  0  0
 29105  1  0  0  0
 29106  1  0  0  0
 33 34  1  0  0  0
 33 66  1  0  0  0
 33 70  2  0  0  0
 34 36  1  0  0  0
 34 59  1  0  0  0
 34107  1  0  0  0
 35 44  2  0  0  0
 35 45  1  0  0  0
 35 68  1  0  0  0
 36 56  1  0  0  0
 36108  1  0  0  0
 37 39  1  0  0  0
 37 47  1  0  0  0
 37 66  1  0  0  0
 37109  1  0  0  0
 38 43  2  0  0  0
 38 46  1  0  0  0
 38 47  1  0  0  0
 39 64  1  0  0  0
 39 67  2  0  0  0
 40 52  1  0  0  0
 40 53  2  0  0  0
 40 58  1  0  0  0
 41110  1  0  0  0
 41111  1  0  0  0
 41112  1  0  0  0
 41 48  1  0  0  0
 42 43  1  0  0  0
 42 66  1  0  0  0
 42113  1  0  0  0
 42114  1  0  0  0
 43 44  1  0  0  0
 44115  1  0  0  0
 45 46  2  0  0  0
 45116  1  0  0  0
 46117  1  0  0  0
 47118  1  0  0  0
 47119  1  0  0  0
 48 56  1  0  0  0
 48 65  1  0  0  0
 48120  1  0  0  0
 49 50  1  0  0  0
 49 53  1  0  0  0
 49 64  1  0  0  0
 49121  1  0  0  0
 50 51  1  0  0  0
 50122  1  0  0  0
 50123  1  0  0  0
 51 52  1  0  0  0
 51124  1  0  0  0
 51125  1  0  0  0
 52126  1  0  0  0
 52127  1  0  0  0
 53 54  1  0  0  0
 54 55  2  0  0  0
 54128  1  0  0  0
 55 57  1  0  0  0
 55129  1  0  0  0
 56 69  2  0  0  0
 57 58  2  0  0  0
 57130  1  0  0  0
 58131  1  0  0  0
 59 60  1  0  0  0
 59 61  1  0  0  0
 59 62  1  0  0  0
 60132  1  0  0  0
 60133  1  0  0  0
 60134  1  0  0  0
 61135  1  0  0  0
 61136  1  0  0  0
 61137  1  0  0  0
 62138  1  0  0  0
 62139  1  0  0  0
 62140  1  0  0  0
 63 65  1  0  0  0
 63141  1  0  0  0
 63142  1  0  0  0
 63143  1  0  0  0
 64144  1  0  0  0
 65145  1  0  0  0
 68 78  1  0  0  0
 71 72  2  0  0  0
 71 79  1  0  0  0
 71 81  1  0  0  0
 72 85  1  0  0  0
 72 86  1  0  0  0
 73 81  2  0  0  0
 73 82  1  0  0  0
 73 86  1  0  0  0
 74 76  1  0  0  0
 74 79  1  0  0  0
 74 83  2  0  0  0
 75 76  1  0  0  0
 75146  1  0  0  0
 75147  1  0  0  0
 75148  1  0  0  0
 76149  1  0  0  0
 76150  1  0  0  0
 77 80  1  0  0  0
 77151  1  0  0  0
 77152  1  0  0  0
 77 79  1  0  0  0
 78 80  1  0  0  0
 78153  1  0  0  0
 78154  1  0  0  0
 79155  1  0  0  0
 80 84  1  0  0  0
 80156  1  0  0  0
 82157  1  0  0  0
 84158  1  0  0  0
M  ISO  4   1 100  68 101  78 101  82 100
M  END
> <chiral flag>
0

> <version>
0

> <s_m_source_file>
/data/baiqing/PycharmProjects/Reinvent-master-3.2/result/LINK_invent/BTK/process_docking_weight1_custom_product_contain_oxygen_bond_distance_aromatic_linkinvent_7_9_3/rearranged_h_0190.sdf

> <i_m_source_file_index>
63

> <r_mmod_Potential_Energy-OPLS-2005>
106.287048339844

> <r_mmod_Stretch_Energy-OPLS-2005>
136.800430297852

> <r_mmod_Bend_Energy-OPLS-2005>
180.650299072266

> <r_mmod_Torsional_Energy-OPLS-2005>
247.722991943359

> <r_mmod_Improper_Torsional_Energy-OPLS-2005>
4.86116695404053

> <r_mmod_Van_der_Waal_Energy-OPLS-2005>
109.40941619873

> <r_mmod_Electrostatic_Energy-OPLS-2005>
-392.617492675781

> <r_mmod_Solvation_Energy-OPLS-2005>
-249.255981445312

> <b_mmod_Minimization_Converged-OPLS-2005>
0

> <r_mmod_RMS_Derivative-OPLS-2005>
5.76664304733276

$$$$
63
                    3D
 Structure written by MMmdl.
155163  0  0  1  0            999 V2000
  -30.5922  -14.7745   20.3861 C   0  0  0  0  0  0
  -30.4367  -12.4465   19.4967 C   0  0  0  0  0  0
  -29.5387  -12.4637   18.2418 C   0  0  0  0  0  0
  -28.0424  -12.3582   18.6193 C   0  0  0  0  0  0
  -27.6422  -13.2435   19.8338 C   0  0  2  0  0  0
  -28.6814  -13.1896   20.9708 C   0  0  0  0  0  0
  -25.2524  -13.8215   20.5659 C   0  0  0  0  0  0
  -24.1833  -13.0450   20.9193 C   0  0  0  0  0  0
  -24.6442  -11.6939   20.8751 C   0  0  0  0  0  0
  -23.9135  -10.4299   21.0410 C   0  0  0  0  0  0
  -24.3672   -9.4215   21.9185 C   0  0  0  0  0  0
  -23.6341   -8.2264   22.0762 C   0  0  0  0  0  0
  -22.4312   -8.0300   21.3540 C   0  0  0  0  0  0
  -21.9965   -9.0287   20.4642 C   0  0  0  0  0  0
  -22.7309  -10.2150   20.3044 C   0  0  0  0  0  0
  -21.6866   -6.0773   22.5293 C   0  0  0  0  0  0
  -21.4031   -6.5651   23.8236 C   0  0  0  0  0  0
  -21.3654   -5.6785   24.9170 C   0  0  0  0  0  0
  -21.6040   -4.3056   24.7198 C   0  0  0  0  0  0
  -21.8815   -3.8166   23.4316 C   0  0  0  0  0  0
  -21.9192   -4.6997   22.3382 C   0  0  0  0  0  0
  -22.7839  -13.5237   21.1844 C   0  0  0  0  0  0
  -22.1653   -4.2205   21.0956 F   0  0  0  0  0  0
  -21.5626   -3.4505   25.7697 F   0  0  0  0  0  0
  -29.9769  -13.5378   20.3822 N   0  0  0  0  0  0
  -26.2961  -12.9458   20.3169 N   0  0  0  0  0  0
  -25.9371  -11.6595   20.5677 N   0  0  0  0  0  0
  -22.0434  -12.8230   22.0360 N   0  0  0  0  0  0
  -25.4185  -15.1948   20.4070 N   0  0  0  0  0  0
  -31.8117  -14.8140   20.2100 O   0  0  0  0  0  0
  -21.6649   -6.8922   21.4259 O   0  0  0  0  0  0
  -22.3544  -14.5534   20.6665 O   0  0  0  0  0  0
  -24.6342  -31.8575   23.1982 C   0  0  0  0  0  0
  -25.9151  -32.4795   23.8371 C   0  0  1  0  0  0
  -27.2303  -27.2633   20.1518 C   0  0  0  0  0  0
  -25.5978  -33.8604   24.2316 N   0  0  0  0  0  0
  -23.4326  -30.4810   21.5394 C   0  0  2  0  0  0
  -24.8829  -28.9171   20.1198 C   0  0  0  0  0  0
  -22.7533  -29.4628   22.4888 C   0  0  0  0  0  0
  -18.0307  -28.1412   22.8481 C   0  0  0  0  0  0
  -24.1488  -36.7330   23.2627 C   0  0  0  0  0  0
  -25.9740  -30.7791   21.3676 C   0  0  0  0  0  0
  -26.0526  -29.3915   20.7274 C   0  0  0  0  0  0
  -27.2304  -28.5787   20.7287 C   0  0  0  0  0  0
  -26.0364  -26.8448   19.5285 C   0  0  0  0  0  0
  -24.8788  -27.6514   19.5089 C   0  0  0  0  0  0
  -23.6594  -29.8151   20.1559 C   0  0  0  0  0  0
  -25.4106  -36.3115   24.0329 C   0  0  1  0  0  0
  -20.5914  -28.3751   23.1270 C   0  0  2  0  0  0
  -20.6823  -26.9479   22.5407 C   0  0  0  0  0  0
  -19.5795  -26.6410   21.5221 C   0  0  0  0  0  0
  -18.1963  -26.7956   22.1614 C   0  0  0  0  0  0
  -19.1555  -28.8885   23.2885 C   0  0  0  0  0  0
  -18.9461  -30.1469   23.8935 C   0  0  0  0  0  0
  -17.6460  -30.6593   24.0588 C   0  0  0  0  0  0
  -25.9033  -34.9472   23.5106 C   0  0  0  0  0  0
  -16.5360  -29.9109   23.6309 C   0  0  0  0  0  0
  -16.7296  -28.6533   23.0324 C   0  0  0  0  0  0
  -26.4497  -31.6599   25.0743 C   0  0  0  0  0  0
  -25.3707  -31.3754   26.1461 C   0  0  0  0  0  0
  -27.0324  -30.3038   24.6135 C   0  0  0  0  0  0
  -27.6065  -32.4309   25.7555 C   0  0  0  0  0  0
  -27.5590  -37.1840   24.8454 C   0  0  0  0  0  0
  -21.4236  -29.3103   22.3654 N   0  0  0  0  0  0
  -26.4289  -37.3811   23.9400 N   0  0  0  0  0  0
  -24.7002  -31.0552   22.0951 N   0  0  0  0  0  0
  -23.4225  -28.8133   23.2964 O   0  0  0  0  0  0
  -28.3439  -26.3962   20.1286 O   0  0  0  0  0  0
  -26.5581  -34.8936   22.4656 O   0  0  0  0  0  0
  -23.5486  -32.1387   23.7271 O   0  0  0  0  0  0
  -31.3036  -18.8448   18.5213 C   0  0  0  0  0  0
  -30.6236  -19.9550   19.0456 C   0  0  0  0  0  0
  -30.9908  -17.5406   18.9460 C   0  0  0  0  0  0
  -29.6075  -19.7697   19.9914 C   0  0  0  0  0  0
  -30.0425  -17.3336   19.9853 C   0  0  0  0  0  0
  -28.2587  -25.0297   20.7508 C   0  0  0  0  0  0
  -29.1623  -22.3245   20.7844 C   0  0  2  0  0  0
  -28.5788  -23.6224   19.9709 C   0  0  1  0  0  0
  -30.6703  -22.4989   21.1394 C   0  0  0  0  0  0
  -29.3377  -18.4705   20.4374 N   0  0  0  0  0  0
  -29.7970  -15.9241   20.4267 N   0  0  0  0  0  0
  -28.7757  -20.9025   20.3362 N   0  0  0  0  0  0
  -27.3622  -23.2192   19.3533 O   0  0  0  0  0  0
  -31.5650  -16.5130   18.2791 F   0  0  0  0  0  0
  -31.0923  -21.5205   21.9418 F   0  0  0  0  0  0
  -31.4526  -22.5432   20.0641 F   0  0  0  0  0  0
  -30.8574  -23.6443   21.7923 F   0  0  0  0  0  0
  -31.4878  -12.5510   19.2219 H   0  0  0  0  0  0
  -30.3612  -11.4840   20.0062 H   0  0  0  0  0  0
  -29.8137  -11.6329   17.5900 H   0  0  0  0  0  0
  -29.7245  -13.3732   17.6693 H   0  0  0  0  0  0
  -27.8319  -11.3110   18.8369 H   0  0  0  0  0  0
  -27.4265  -12.6127   17.7559 H   0  0  0  0  0  0
  -27.6286  -14.2666   19.4586 H   0  0  0  0  0  0
  -28.7115  -12.1978   21.4290 H   0  0  0  0  0  0
  -28.4200  -13.8841   21.7701 H   0  0  0  0  0  0
  -25.2814   -9.5689   22.4767 H   0  0  0  0  0  0
  -24.0034   -7.4655   22.7482 H   0  0  0  0  0  0
  -21.0901   -8.8834   19.8947 H   0  0  0  0  0  0
  -22.3809  -10.9698   19.6148 H   0  0  0  0  0  0
  -21.2048   -7.6167   23.9769 H   0  0  0  0  0  0
  -21.1474   -6.0489   25.9090 H   0  0  0  0  0  0
  -22.0605   -2.7639   23.2773 H   0  0  0  0  0  0
  -22.4009  -11.9893   22.4802 H   0  0  0  0  0  0
  -21.1051  -13.1337   22.2492 H   0  0  0  0  0  0
  -24.6496  -15.8440   20.5345 H   0  0  0  0  0  0
  -26.2568  -15.6423   20.0615 H   0  0  0  0  0  0
  -26.7250  -32.5470   23.1159 H   0  0  0  0  0  0
  -25.0300  -33.9772   25.0588 H   0  0  0  0  0  0
  -22.7298  -31.3028   21.3912 H   0  0  0  0  0  0
  -23.3753  -35.9660   23.3254 H   0  0  0  0  0  0
  -24.3587  -36.8984   22.2050 H   0  0  0  0  0  0
  -23.7221  -37.6516   23.6662 H   0  0  0  0  0  0
  -26.0800  -31.5270   20.5798 H   0  0  0  0  0  0
  -26.8646  -30.8604   21.9792 H   0  0  0  0  0  0
  -28.1286  -28.9446   21.2054 H   0  0  0  0  0  0
  -26.0002  -25.8746   19.0543 H   0  0  0  0  0  0
  -23.9826  -27.2839   19.0261 H   0  0  0  0  0  0
  -23.8132  -30.5967   19.4116 H   0  0  0  0  0  0
  -22.7742  -29.2687   19.8262 H   0  0  0  0  0  0
  -25.1267  -36.1981   25.0823 H   0  0  0  0  0  0
  -21.0020  -28.3341   24.1381 H   0  0  0  0  0  0
  -20.5770  -26.2369   23.3611 H   0  0  0  0  0  0
  -21.6684  -26.7542   22.1162 H   0  0  0  0  0  0
  -19.6963  -25.6307   21.1278 H   0  0  0  0  0  0
  -19.6711  -27.3202   20.6727 H   0  0  0  0  0  0
  -17.4248  -26.6738   21.3997 H   0  0  0  0  0  0
  -18.0333  -26.0088   22.8995 H   0  0  0  0  0  0
  -19.7924  -30.7281   24.2345 H   0  0  0  0  0  0
  -17.4996  -31.6249   24.5231 H   0  0  0  0  0  0
  -15.5358  -30.3021   23.7568 H   0  0  0  0  0  0
  -15.8712  -28.0855   22.6995 H   0  0  0  0  0  0
  -24.5864  -30.7128   25.7784 H   0  0  0  0  0  0
  -24.8910  -32.2933   26.4874 H   0  0  0  0  0  0
  -25.7994  -30.8937   27.0259 H   0  0  0  0  0  0
  -26.2869  -29.6819   24.1167 H   0  0  0  0  0  0
  -27.4077  -29.7250   25.4581 H   0  0  0  0  0  0
  -27.8713  -30.4370   23.9301 H   0  0  0  0  0  0
  -27.2687  -33.3610   26.2150 H   0  0  0  0  0  0
  -28.3903  -32.6868   25.0409 H   0  0  0  0  0  0
  -28.0710  -31.8413   26.5475 H   0  0  0  0  0  0
  -28.2572  -38.0177   24.7520 H   0  0  0  0  0  0
  -28.1116  -36.2693   24.6227 H   0  0  0  0  0  0
  -27.2324  -37.1444   25.8867 H   0  0  0  0  0  0
  -20.9405  -29.8905   21.6937 H   0  0  0  0  0  0
  -26.0166  -38.2892   24.1384 H   0  0  0  0  0  0
  -32.0317  -18.9888   17.7386 H   0  0  0  0  0  0
  -30.8409  -20.9230   18.6226 H   0  0  0  0  0  0
  -28.9811  -25.1031   21.5628 H   0  0  0  0  0  0
  -27.3094  -24.9314   21.2817 H   0  0  0  0  0  0
  -28.6600  -22.3780   21.7508 H   0  0  0  0  0  0
  -29.2945  -23.8425   19.1773 H   0  0  0  0  0  0
  -28.8477  -15.7509   20.7108 H   0  0  0  0  0  0
  -27.8541  -20.6612   20.6797 H   0  0  0  0  0  0
  -27.2797  -23.7155   18.5443 H   0  0  0  0  0  0
  1 25  1  0  0  0
  1 30  2  0  0  0
  1 81  1  0  0  0
  2  3  1  0  0  0
  2 25  1  0  0  0
  2 88  1  0  0  0
  2 89  1  0  0  0
  3  4  1  0  0  0
  3 90  1  0  0  0
  3 91  1  0  0  0
  4  5  1  0  0  0
  4 92  1  0  0  0
  4 93  1  0  0  0
  5  6  1  0  0  0
  5 26  1  0  0  0
  5 94  1  0  0  0
  6 25  1  0  0  0
  6 95  1  0  0  0
  6 96  1  0  0  0
  7  8  2  0  0  0
  7 26  1  0  0  0
  7 29  1  0  0  0
  8  9  1  0  0  0
  8 22  1  0  0  0
  9 10  1  0  0  0
  9 27  2  0  0  0
 10 11  2  0  0  0
 10 15  1  0  0  0
 11 12  1  0  0  0
 11 97  1  0  0  0
 12 13  2  0  0  0
 12 98  1  0  0  0
 13 14  1  0  0  0
 13 31  1  0  0  0
 14 15  2  0  0  0
 14 99  1  0  0  0
 15100  1  0  0  0
 16 17  2  0  0  0
 16 21  1  0  0  0
 16 31  1  0  0  0
 17 18  1  0  0  0
 17101  1  0  0  0
 18 19  2  0  0  0
 18102  1  0  0  0
 19 20  1  0  0  0
 19 24  1  0  0  0
 20 21  2  0  0  0
 20103  1  0  0  0
 21 23  1  0  0  0
 22 28  1  0  0  0
 22 32  2  0  0  0
 26 27  1  0  0  0
 28104  1  0  0  0
 28105  1  0  0  0
 29106  1  0  0  0
 29107  1  0  0  0
 33 34  1  0  0  0
 33 66  1  0  0  0
 33 70  2  0  0  0
 34 36  1  0  0  0
 34 59  1  0  0  0
 34108  1  0  0  0
 35 44  2  0  0  0
 35 45  1  0  0  0
 35 68  1  0  0  0
 36 56  1  0  0  0
 36109  1  0  0  0
 37 39  1  0  0  0
 37 47  1  0  0  0
 37 66  1  0  0  0
 37110  1  0  0  0
 38 43  2  0  0  0
 38 46  1  0  0  0
 38 47  1  0  0  0
 39 64  1  0  0  0
 39 67  2  0  0  0
 40 52  1  0  0  0
 40 53  2  0  0  0
 40 58  1  0  0  0
 41111  1  0  0  0
 41112  1  0  0  0
 41113  1  0  0  0
 41 48  1  0  0  0
 42 43  1  0  0  0
 42 66  1  0  0  0
 42114  1  0  0  0
 42115  1  0  0  0
 43 44  1  0  0  0
 44116  1  0  0  0
 45 46  2  0  0  0
 45117  1  0  0  0
 46118  1  0  0  0
 47119  1  0  0  0
 47120  1  0  0  0
 48 56  1  0  0  0
 48 65  1  0  0  0
 48121  1  0  0  0
 49 50  1  0  0  0
 49 53  1  0  0  0
 49 64  1  0  0  0
 49122  1  0  0  0
 50 51  1  0  0  0
 50123  1  0  0  0
 50124  1  0  0  0
 51 52  1  0  0  0
 51125  1  0  0  0
 51126  1  0  0  0
 52127  1  0  0  0
 52128  1  0  0  0
 53 54  1  0  0  0
 54 55  2  0  0  0
 54129  1  0  0  0
 55 57  1  0  0  0
 55130  1  0  0  0
 56 69  2  0  0  0
 57 58  2  0  0  0
 57131  1  0  0  0
 58132  1  0  0  0
 59 60  1  0  0  0
 59 61  1  0  0  0
 59 62  1  0  0  0
 60133  1  0  0  0
 60134  1  0  0  0
 60135  1  0  0  0
 61136  1  0  0  0
 61137  1  0  0  0
 61138  1  0  0  0
 62139  1  0  0  0
 62140  1  0  0  0
 62141  1  0  0  0
 63 65  1  0  0  0
 63142  1  0  0  0
 63143  1  0  0  0
 63144  1  0  0  0
 64145  1  0  0  0
 65146  1  0  0  0
 68 76  1  0  0  0
 71 72  2  0  0  0
 71 73  1  0  0  0
 71147  1  0  0  0
 72 74  1  0  0  0
 72148  1  0  0  0
 73 75  2  0  0  0
 73 84  1  0  0  0
 74 80  2  0  0  0
 74 82  1  0  0  0
 75 80  1  0  0  0
 75 81  1  0  0  0
 76 78  1  0  0  0
 76149  1  0  0  0
 76150  1  0  0  0
 77 78  1  0  0  0
 77 79  1  0  0  0
 77 82  1  0  0  0
 77151  1  0  0  0
 78 83  1  0  0  0
 78152  1  0  0  0
 79 85  1  0  0  0
 79 86  1  0  0  0
 79 87  1  0  0  0
 81153  1  0  0  0
 82154  1  0  0  0
 83155  1  0  0  0
M  ISO  4   1 100  68 101  76 101  81 100
M  END
> <chiral flag>
0

> <version>
0

> <s_m_source_file>
/data/baiqing/PycharmProjects/Reinvent-master-3.2/result/LINK_invent/BTK/process_docking_weight1_custom_product_contain_oxygen_bond_distance_aromatic_linkinvent_7_9_3/rearranged_h_0190.sdf

> <i_m_source_file_index>
64

> <r_mmod_Potential_Energy-OPLS-2005>
61.6074409484863

> <r_mmod_Stretch_Energy-OPLS-2005>
144.099166870117

> <r_mmod_Bend_Energy-OPLS-2005>
198.570449829102

> <r_mmod_Torsional_Energy-OPLS-2005>
311.955963134766

> <r_mmod_Improper_Torsional_Energy-OPLS-2005>
6.46969604492188

> <r_mmod_Van_der_Waal_Energy-OPLS-2005>
144.541107177734

> <r_mmod_Electrostatic_Energy-OPLS-2005>
-596.922119140625

> <r_mmod_Solvation_Energy-OPLS-2005>
-239.367324829102

> <b_mmod_Minimization_Converged-OPLS-2005>
0

> <r_mmod_RMS_Derivative-OPLS-2005>
5.15626001358032

$$$$
64
                    3D
 Structure written by MMmdl.
155163  0  0  1  0            999 V2000
  -30.6990  -14.5103   20.5918 C   0  0  0  0  0  0
  -30.4121  -12.3296   19.4403 C   0  0  0  0  0  0
  -29.5063  -12.5394   18.2127 C   0  0  0  0  0  0
  -28.0245  -12.3834   18.6118 C   0  0  0  0  0  0
  -27.6569  -13.2164   19.8741 C   0  0  2  0  0  0
  -28.6949  -13.0128   20.9979 C   0  0  0  0  0  0
  -25.2581  -13.8196   20.5664 C   0  0  0  0  0  0
  -24.1804  -13.0416   20.9147 C   0  0  0  0  0  0
  -24.6400  -11.6909   20.8652 C   0  0  0  0  0  0
  -23.9038  -10.4288   21.0329 C   0  0  0  0  0  0
  -24.3612   -9.4221   21.9118 C   0  0  0  0  0  0
  -23.6281   -8.2266   22.0708 C   0  0  0  0  0  0
  -22.4289   -8.0256   21.3476 C   0  0  0  0  0  0
  -21.9895   -9.0208   20.4571 C   0  0  0  0  0  0
  -22.7214  -10.2109   20.2936 C   0  0  0  0  0  0
  -21.6870   -6.0703   22.5242 C   0  0  0  0  0  0
  -21.4037   -6.5599   23.8170 C   0  0  0  0  0  0
  -21.3683   -5.6763   24.9147 C   0  0  0  0  0  0
  -21.6069   -4.3023   24.7195 C   0  0  0  0  0  0
  -21.8829   -3.8111   23.4309 C   0  0  0  0  0  0
  -21.9214   -4.6933   22.3379 C   0  0  0  0  0  0
  -22.7850  -13.5193   21.1844 C   0  0  0  0  0  0
  -22.1648   -4.2101   21.0958 F   0  0  0  0  0  0
  -21.5648   -3.4510   25.7708 F   0  0  0  0  0  0
  -30.0229  -13.3335   20.4532 N   0  0  0  0  0  0
  -26.3004  -12.9345   20.3331 N   0  0  0  0  0  0
  -25.9347  -11.6492   20.5744 N   0  0  0  0  0  0
  -22.0537  -12.8124   22.0411 N   0  0  0  0  0  0
  -25.4409  -15.1896   20.4044 N   0  0  0  0  0  0
  -31.8179  -14.6381   20.0766 O   0  0  0  0  0  0
  -21.6665   -6.8832   21.4192 O   0  0  0  0  0  0
  -22.3495  -14.5464   20.6701 O   0  0  0  0  0  0
  -24.6204  -31.8586   23.2113 C   0  0  0  0  0  0
  -25.9115  -32.4749   23.8421 C   0  0  1  0  0  0
  -27.2923  -27.4042   20.1436 C   0  0  0  0  0  0
  -25.6025  -33.8577   24.2392 N   0  0  0  0  0  0
  -23.4178  -30.4827   21.5362 C   0  0  2  0  0  0
  -24.8837  -28.9272   20.1329 C   0  0  0  0  0  0
  -22.7502  -29.4655   22.4926 C   0  0  0  0  0  0
  -18.0310  -28.1295   22.8498 C   0  0  0  0  0  0
  -24.1521  -36.7278   23.2620 C   0  0  0  0  0  0
  -25.9507  -30.8151   21.3809 C   0  0  0  0  0  0
  -26.0393  -29.4470   20.7267 C   0  0  0  0  0  0
  -27.2409  -28.7002   20.7191 C   0  0  0  0  0  0
  -26.1132  -26.8896   19.5619 C   0  0  0  0  0  0
  -24.9180  -27.6442   19.5493 C   0  0  0  0  0  0
  -23.6413  -29.7921   20.1621 C   0  0  0  0  0  0
  -25.4145  -36.3103   24.0356 C   0  0  1  0  0  0
  -20.5912  -28.3643   23.1243 C   0  0  2  0  0  0
  -20.6842  -26.9372   22.5365 C   0  0  0  0  0  0
  -19.5823  -26.6323   21.5165 C   0  0  0  0  0  0
  -18.1996  -26.7868   22.1558 C   0  0  0  0  0  0
  -19.1569  -28.8810   23.2832 C   0  0  0  0  0  0
  -18.9467  -30.1427   23.8838 C   0  0  0  0  0  0
  -17.6445  -30.6495   24.0593 C   0  0  0  0  0  0
  -25.9069  -34.9445   23.5121 C   0  0  0  0  0  0
  -16.5343  -29.8969   23.6334 C   0  0  0  0  0  0
  -16.7297  -28.6384   23.0363 C   0  0  0  0  0  0
  -26.4557  -31.6555   25.0772 C   0  0  0  0  0  0
  -25.3856  -31.3586   26.1517 C   0  0  0  0  0  0
  -27.0457  -30.3034   24.6199 C   0  0  0  0  0  0
  -27.6165  -32.4245   25.7485 C   0  0  0  0  0  0
  -27.5608  -37.1774   24.8440 C   0  0  0  0  0  0
  -21.4222  -29.3020   22.3678 N   0  0  0  0  0  0
  -26.4314  -37.3804   23.9393 N   0  0  0  0  0  0
  -24.6779  -31.0694   22.0976 N   0  0  0  0  0  0
  -23.4240  -28.8228   23.3015 O   0  0  0  0  0  0
  -28.4806  -26.6892   20.0825 O   0  0  0  0  0  0
  -26.5504  -34.8891   22.4599 O   0  0  0  0  0  0
  -23.5381  -32.1312   23.7505 O   0  0  0  0  0  0
  -29.9165  -19.2743   20.5502 C   0  0  0  0  0  0
  -28.5998  -19.2811   22.8722 C   0  0  0  0  0  0
  -29.7025  -18.0674   21.2728 C   0  0  0  0  0  0
  -29.4470  -20.4787   21.1067 C   0  0  0  0  0  0
  -30.2428  -16.7533   20.7719 C   0  0  0  0  0  0
  -30.9495  -23.2562   21.9598 C   0  0  0  0  0  0
  -28.6443  -25.5419   20.9604 C   0  0  0  0  0  0
  -29.6002  -23.0228   21.2002 C   0  0  1  0  0  0
  -29.2230  -24.2448   20.2633 C   0  0  1  0  0  0
  -29.0408  -18.0988   22.4500 N   0  0  0  0  0  0
  -28.7770  -20.4582   22.2715 N   0  0  0  0  0  0
  -29.9947  -15.5601   21.2103 N   0  0  0  0  0  0
  -29.6578  -21.7301   20.4604 N   0  0  0  0  0  0
  -28.2190  -23.7654   19.3863 O   0  0  0  0  0  0
  -31.4649  -12.3940   19.1648 H   0  0  0  0  0  0
  -30.2724  -11.3212   19.8291 H   0  0  0  0  0  0
  -29.7555  -11.8355   17.4146 H   0  0  0  0  0  0
  -29.6757  -13.5445   17.8173 H   0  0  0  0  0  0
  -27.8454  -11.3209   18.7969 H   0  0  0  0  0  0
  -27.3761  -12.6616   17.7806 H   0  0  0  0  0  0
  -27.7042  -14.2657   19.5862 H   0  0  0  0  0  0
  -28.6885  -11.9726   21.3255 H   0  0  0  0  0  0
  -28.4619  -13.6125   21.8789 H   0  0  0  0  0  0
  -25.2749   -9.5752   22.4699 H   0  0  0  0  0  0
  -24.0001   -7.4666   22.7435 H   0  0  0  0  0  0
  -21.0802   -8.8633   19.8906 H   0  0  0  0  0  0
  -22.3560  -10.9595   19.6010 H   0  0  0  0  0  0
  -21.2019   -7.6094   23.9670 H   0  0  0  0  0  0
  -21.1516   -6.0488   25.9059 H   0  0  0  0  0  0
  -22.0623   -2.7565   23.2840 H   0  0  0  0  0  0
  -22.4127  -11.9757   22.4717 H   0  0  0  0  0  0
  -21.1145  -13.1063   22.2585 H   0  0  0  0  0  0
  -24.7015  -15.8735   20.5137 H   0  0  0  0  0  0
  -26.3152  -15.6027   20.0931 H   0  0  0  0  0  0
  -26.7210  -32.5492   23.1195 H   0  0  0  0  0  0
  -25.0672  -33.9762   25.0853 H   0  0  0  0  0  0
  -22.7042  -31.2966   21.3857 H   0  0  0  0  0  0
  -23.3832  -35.9547   23.3245 H   0  0  0  0  0  0
  -24.3639  -36.8925   22.2042 H   0  0  0  0  0  0
  -23.7233  -37.6461   23.6631 H   0  0  0  0  0  0
  -26.0926  -31.5892   20.6255 H   0  0  0  0  0  0
  -26.8255  -30.8420   22.0249 H   0  0  0  0  0  0
  -28.1329  -29.1183   21.1693 H   0  0  0  0  0  0
  -26.1329  -25.9088   19.1118 H   0  0  0  0  0  0
  -24.0333  -27.2259   19.0936 H   0  0  0  0  0  0
  -23.7615  -30.5563   19.3944 H   0  0  0  0  0  0
  -22.7720  -29.2018   19.8605 H   0  0  0  0  0  0
  -25.1326  -36.1976   25.0869 H   0  0  0  0  0  0
  -20.9986  -28.3185   24.1366 H   0  0  0  0  0  0
  -20.5766  -26.2240   23.3555 H   0  0  0  0  0  0
  -21.6710  -26.7423   22.1140 H   0  0  0  0  0  0
  -19.6975  -25.6227   21.1200 H   0  0  0  0  0  0
  -19.6753  -27.3145   20.6726 H   0  0  0  0  0  0
  -17.4298  -26.6685   21.3917 H   0  0  0  0  0  0
  -18.0360  -25.9932   22.8895 H   0  0  0  0  0  0
  -19.7934  -30.7315   24.2113 H   0  0  0  0  0  0
  -17.4960  -31.6180   24.5206 H   0  0  0  0  0  0
  -15.5347  -30.2827   23.7641 H   0  0  0  0  0  0
  -15.8734  -28.0674   22.7032 H   0  0  0  0  0  0
  -24.6091  -30.6859   25.7853 H   0  0  0  0  0  0
  -24.8971  -32.2678   26.5018 H   0  0  0  0  0  0
  -25.8256  -30.8753   27.0260 H   0  0  0  0  0  0
  -26.3012  -29.6651   24.1442 H   0  0  0  0  0  0
  -27.4441  -29.7428   25.4669 H   0  0  0  0  0  0
  -27.8760  -30.4383   23.9271 H   0  0  0  0  0  0
  -27.2883  -33.3598   26.2018 H   0  0  0  0  0  0
  -28.3984  -32.6672   25.0276 H   0  0  0  0  0  0
  -28.0817  -31.8385   26.5407 H   0  0  0  0  0  0
  -28.2575  -38.0138   24.7657 H   0  0  0  0  0  0
  -28.1173  -36.2676   24.6094 H   0  0  0  0  0  0
  -27.2313  -37.1263   25.8837 H   0  0  0  0  0  0
  -20.9372  -29.8779   21.6964 H   0  0  0  0  0  0
  -26.0217  -38.2886   24.1404 H   0  0  0  0  0  0
  -30.4454  -19.2607   19.6002 H   0  0  0  0  0  0
  -28.0942  -19.2965   23.8286 H   0  0  0  0  0  0
  -30.9340  -16.8937   19.9353 H   0  0  0  0  0  0
  -30.9102  -24.1055   22.6443 H   0  0  0  0  0  0
  -31.7930  -23.4243   21.2801 H   0  0  0  0  0  0
  -31.2319  -22.4077   22.5877 H   0  0  0  0  0  0
  -29.3392  -25.8632   21.7361 H   0  0  0  0  0  0
  -27.7194  -25.3232   21.4928 H   0  0  0  0  0  0
  -28.7847  -22.9237   21.9270 H   0  0  0  0  0  0
  -30.1005  -24.5203   19.6713 H   0  0  0  0  0  0
  -30.2454  -21.7093   19.6276 H   0  0  0  0  0  0
  -28.5642  -22.9546   19.0209 H   0  0  0  0  0  0
  1 25  1  0  0  0
  1 30  2  0  0  0
  1 82  1  0  0  0
  2  3  1  0  0  0
  2 25  1  0  0  0
  2 85  1  0  0  0
  2 86  1  0  0  0
  3  4  1  0  0  0
  3 87  1  0  0  0
  3 88  1  0  0  0
  4  5  1  0  0  0
  4 89  1  0  0  0
  4 90  1  0  0  0
  5  6  1  0  0  0
  5 26  1  0  0  0
  5 91  1  0  0  0
  6 25  1  0  0  0
  6 92  1  0  0  0
  6 93  1  0  0  0
  7  8  2  0  0  0
  7 26  1  0  0  0
  7 29  1  0  0  0
  8  9  1  0  0  0
  8 22  1  0  0  0
  9 10  1  0  0  0
  9 27  2  0  0  0
 10 11  2  0  0  0
 10 15  1  0  0  0
 11 12  1  0  0  0
 11 94  1  0  0  0
 12 13  2  0  0  0
 12 95  1  0  0  0
 13 14  1  0  0  0
 13 31  1  0  0  0
 14 15  2  0  0  0
 14 96  1  0  0  0
 15 97  1  0  0  0
 16 17  2  0  0  0
 16 21  1  0  0  0
 16 31  1  0  0  0
 17 18  1  0  0  0
 17 98  1  0  0  0
 18 19  2  0  0  0
 18 99  1  0  0  0
 19 20  1  0  0  0
 19 24  1  0  0  0
 20 21  2  0  0  0
 20100  1  0  0  0
 21 23  1  0  0  0
 22 28  1  0  0  0
 22 32  2  0  0  0
 26 27  1  0  0  0
 28101  1  0  0  0
 28102  1  0  0  0
 29103  1  0  0  0
 29104  1  0  0  0
 33 34  1  0  0  0
 33 66  1  0  0  0
 33 70  2  0  0  0
 34 36  1  0  0  0
 34 59  1  0  0  0
 34105  1  0  0  0
 35 44  2  0  0  0
 35 45  1  0  0  0
 35 68  1  0  0  0
 36 56  1  0  0  0
 36106  1  0  0  0
 37 39  1  0  0  0
 37 47  1  0  0  0
 37 66  1  0  0  0
 37107  1  0  0  0
 38 43  2  0  0  0
 38 46  1  0  0  0
 38 47  1  0  0  0
 39 64  1  0  0  0
 39 67  2  0  0  0
 40 52  1  0  0  0
 40 53  2  0  0  0
 40 58  1  0  0  0
 41108  1  0  0  0
 41109  1  0  0  0
 41110  1  0  0  0
 41 48  1  0  0  0
 42 43  1  0  0  0
 42 66  1  0  0  0
 42111  1  0  0  0
 42112  1  0  0  0
 43 44  1  0  0  0
 44113  1  0  0  0
 45 46  2  0  0  0
 45114  1  0  0  0
 46115  1  0  0  0
 47116  1  0  0  0
 47117  1  0  0  0
 48 56  1  0  0  0
 48 65  1  0  0  0
 48118  1  0  0  0
 49 50  1  0  0  0
 49 53  1  0  0  0
 49 64  1  0  0  0
 49119  1  0  0  0
 50 51  1  0  0  0
 50120  1  0  0  0
 50121  1  0  0  0
 51 52  1  0  0  0
 51122  1  0  0  0
 51123  1  0  0  0
 52124  1  0  0  0
 52125  1  0  0  0
 53 54  1  0  0  0
 54 55  2  0  0  0
 54126  1  0  0  0
 55 57  1  0  0  0
 55127  1  0  0  0
 56 69  2  0  0  0
 57 58  2  0  0  0
 57128  1  0  0  0
 58129  1  0  0  0
 59 60  1  0  0  0
 59 61  1  0  0  0
 59 62  1  0  0  0
 60130  1  0  0  0
 60131  1  0  0  0
 60132  1  0  0  0
 61133  1  0  0  0
 61134  1  0  0  0
 61135  1  0  0  0
 62136  1  0  0  0
 62137  1  0  0  0
 62138  1  0  0  0
 63 65  1  0  0  0
 63139  1  0  0  0
 63140  1  0  0  0
 63141  1  0  0  0
 64142  1  0  0  0
 65143  1  0  0  0
 68 77  1  0  0  0
 71 73  2  0  0  0
 71 74  1  0  0  0
 71144  1  0  0  0
 72 80  2  0  0  0
 72 81  1  0  0  0
 72145  1  0  0  0
 73 75  1  0  0  0
 73 80  1  0  0  0
 74 81  2  0  0  0
 74 83  1  0  0  0
 75 82  2  0  0  0
 75146  1  0  0  0
 76147  1  0  0  0
 76148  1  0  0  0
 76149  1  0  0  0
 76 78  1  0  0  0
 77 79  1  0  0  0
 77150  1  0  0  0
 77151  1  0  0  0
 78 79  1  0  0  0
 78 83  1  0  0  0
 78152  1  0  0  0
 79 84  1  0  0  0
 79153  1  0  0  0
 83154  1  0  0  0
 84155  1  0  0  0
M  ISO  4   1 100  68 101  77 101  82 100
M  END
> <chiral flag>
0

> <version>
0

> <s_m_source_file>
/data/baiqing/PycharmProjects/Reinvent-master-3.2/result/LINK_invent/BTK/process_docking_weight1_custom_product_contain_oxygen_bond_distance_aromatic_linkinvent_7_9_3/rearranged_h_0190.sdf

> <i_m_source_file_index>
65

> <r_mmod_Potential_Energy-OPLS-2005>
-612.777587890625

> <r_mmod_Stretch_Energy-OPLS-2005>
59.2299613952637

> <r_mmod_Bend_Energy-OPLS-2005>
116.74112701416

> <r_mmod_Torsional_Energy-OPLS-2005>
218.007339477539

> <r_mmod_Improper_Torsional_Energy-OPLS-2005>
4.7525053024292

> <r_mmod_Van_der_Waal_Energy-OPLS-2005>
169.064270019531

> <r_mmod_Electrostatic_Energy-OPLS-2005>
-956.642150878906

> <r_mmod_Solvation_Energy-OPLS-2005>
-242.541687011719

> <b_mmod_Minimization_Converged-OPLS-2005>
0

> <r_mmod_RMS_Derivative-OPLS-2005>
10.8770389556885

$$$$
65
                    3D
 Structure written by MMmdl.
177185  0  0  1  0            999 V2000
  -30.7145  -14.4486   20.6606 C   0  0  0  0  0  0
  -30.4319  -12.3236   19.4181 C   0  0  0  0  0  0
  -29.4953  -12.5286   18.2096 C   0  0  0  0  0  0
  -28.0191  -12.3700   18.6208 C   0  0  0  0  0  0
  -27.6638  -13.1994   19.8809 C   0  0  2  0  0  0
  -28.7034  -12.9592   21.0004 C   0  0  0  0  0  0
  -25.2516  -13.8037   20.5630 C   0  0  0  0  0  0
  -24.1793  -13.0342   20.9174 C   0  0  0  0  0  0
  -24.6380  -11.6835   20.8749 C   0  0  0  0  0  0
  -23.9051  -10.4243   21.0412 C   0  0  0  0  0  0
  -24.3603   -9.4166   21.9193 C   0  0  0  0  0  0
  -23.6271   -8.2209   22.0758 C   0  0  0  0  0  0
  -22.4255   -8.0259   21.3546 C   0  0  0  0  0  0
  -21.9893   -9.0232   20.4648 C   0  0  0  0  0  0
  -22.7227  -10.2101   20.3058 C   0  0  0  0  0  0
  -21.6840   -6.0723   22.5284 C   0  0  0  0  0  0
  -21.4003   -6.5632   23.8214 C   0  0  0  0  0  0
  -21.3656   -5.6788   24.9179 C   0  0  0  0  0  0
  -21.6042   -4.3049   24.7233 C   0  0  0  0  0  0
  -21.8819   -3.8139   23.4355 C   0  0  0  0  0  0
  -21.9187   -4.6954   22.3410 C   0  0  0  0  0  0
  -22.7829  -13.5180   21.1846 C   0  0  0  0  0  0
  -22.1657   -4.2138   21.0989 F   0  0  0  0  0  0
  -21.5633   -3.4534   25.7749 F   0  0  0  0  0  0
  -30.0472  -13.2729   20.4757 N   0  0  0  0  0  0
  -26.3015  -12.9260   20.3373 N   0  0  0  0  0  0
  -25.9316  -11.6427   20.5792 N   0  0  0  0  0  0
  -22.0462  -12.8197   22.0412 N   0  0  0  0  0  0
  -25.4053  -15.1713   20.3960 N   0  0  0  0  0  0
  -31.7448  -14.7395   20.0430 O   0  0  0  0  0  0
  -21.6620   -6.8860   21.4246 O   0  0  0  0  0  0
  -22.3531  -14.5503   20.6704 O   0  0  0  0  0  0
  -24.6131  -31.8694   23.2095 C   0  0  0  0  0  0
  -25.9017  -32.4831   23.8400 C   0  0  1  0  0  0
  -27.2444  -27.4371   20.1125 C   0  0  0  0  0  0
  -25.5893  -33.8633   24.2335 N   0  0  0  0  0  0
  -23.4027  -30.4888   21.5497 C   0  0  2  0  0  0
  -24.8541  -28.9476   20.1237 C   0  0  0  0  0  0
  -22.7414  -29.4647   22.4996 C   0  0  0  0  0  0
  -18.0279  -28.1369   22.8491 C   0  0  0  0  0  0
  -24.1480  -36.7307   23.2648 C   0  0  0  0  0  0
  -25.9309  -30.8318   21.3661 C   0  0  0  0  0  0
  -26.0108  -29.4623   20.7234 C   0  0  0  0  0  0
  -27.2110  -28.7137   20.7169 C   0  0  0  0  0  0
  -26.0743  -26.9290   19.5122 C   0  0  0  0  0  0
  -24.8786  -27.6782   19.5172 C   0  0  0  0  0  0
  -23.6149  -29.8157   20.1670 C   0  0  0  0  0  0
  -25.4099  -36.3114   24.0345 C   0  0  1  0  0  0
  -20.5866  -28.3644   23.1321 C   0  0  2  0  0  0
  -20.6774  -26.9392   22.5412 C   0  0  0  0  0  0
  -19.5756  -26.6375   21.5213 C   0  0  0  0  0  0
  -18.1928  -26.7913   22.1620 C   0  0  0  0  0  0
  -19.1528  -28.8824   23.2902 C   0  0  0  0  0  0
  -18.9465  -30.1439   23.8904 C   0  0  0  0  0  0
  -17.6471  -30.6582   24.0563 C   0  0  0  0  0  0
  -25.9029  -34.9479   23.5132 C   0  0  0  0  0  0
  -16.5361  -29.9078   23.6333 C   0  0  0  0  0  0
  -16.7268  -28.6504   23.0341 C   0  0  0  0  0  0
  -26.4450  -31.6616   25.0728 C   0  0  0  0  0  0
  -25.3718  -31.3729   26.1487 C   0  0  0  0  0  0
  -27.0293  -30.3066   24.6096 C   0  0  0  0  0  0
  -27.6036  -32.4337   25.7478 C   0  0  0  0  0  0
  -27.5573  -37.1808   24.8472 C   0  0  0  0  0  0
  -21.4146  -29.3014   22.3739 N   0  0  0  0  0  0
  -26.4291  -37.3790   23.9411 N   0  0  0  0  0  0
  -24.6665  -31.0779   22.1000 N   0  0  0  0  0  0
  -23.4197  -28.8206   23.3046 O   0  0  0  0  0  0
  -28.4154  -26.7191   20.0243 O   0  0  0  0  0  0
  -26.5589  -34.8922   22.4692 O   0  0  0  0  0  0
  -23.5314  -32.1457   23.7466 O   0  0  0  0  0  0
  -28.2861  -18.5727   21.2434 C   0  0  0  0  0  0
  -29.5822  -18.8283   21.6543 C   0  0  0  0  0  0
  -29.7438  -16.5685   21.3880 C   0  0  0  0  0  0
  -30.0980  -21.2443   21.4327 C   0  0  0  0  0  0
  -26.1128  -19.1372   22.3830 C   0  0  0  0  0  0
  -29.5795  -24.4875   19.0307 C   0  0  0  0  0  0
  -27.3543  -19.6038   18.6676 C   0  0  0  0  0  0
  -25.8063  -21.1748   19.8341 C   0  0  0  0  0  0
  -25.2090  -18.7652   19.6018 C   0  0  0  0  0  0
  -30.4683  -23.8548   21.3275 C   0  0  0  0  0  0
  -28.6825  -25.7751   21.0711 C   0  0  0  0  0  0
  -27.0815  -19.4909   21.2370 C   0  0  2  0  0  0
  -30.2868  -22.5737   22.2134 C   0  0  2  0  0  0
  -29.2367  -24.4101   20.5331 C   0  0  1  0  0  0
  -26.3773  -19.7407   19.8541 C   0  0  0  0  0  0
  -30.3904  -17.6780   21.7874 N   0  0  0  0  0  0
  -29.9824  -20.1024   22.1469 N   0  0  0  0  0  0
  -30.2112  -15.2469   21.6169 N   0  0  0  0  0  0
  -31.4291  -22.4449   23.1401 N   0  3  0  0  0  0
  -30.1164  -21.2448   20.2002 O   0  0  0  0  0  0
  -28.1029  -16.8790   20.8564 S   0  0  0  0  0  0
  -31.4724  -12.4468   19.1130 H   0  0  0  0  0  0
  -30.3546  -11.3025   19.7945 H   0  0  0  0  0  0
  -29.7422  -11.8182   17.4193 H   0  0  0  0  0  0
  -29.6508  -13.5231   17.7872 H   0  0  0  0  0  0
  -27.8384  -11.3116   18.8121 H   0  0  0  0  0  0
  -27.3651  -12.6435   17.7918 H   0  0  0  0  0  0
  -27.7108  -14.2481   19.5904 H   0  0  0  0  0  0
  -28.6788  -11.9141   21.3116 H   0  0  0  0  0  0
  -28.4353  -13.5244   21.8925 H   0  0  0  0  0  0
  -25.2747   -9.5644   22.4772 H   0  0  0  0  0  0
  -23.9975   -7.4601   22.7481 H   0  0  0  0  0  0
  -21.0822   -8.8752   19.8960 H   0  0  0  0  0  0
  -22.3692  -10.9642   19.6170 H   0  0  0  0  0  0
  -21.1986   -7.6136   23.9717 H   0  0  0  0  0  0
  -21.1481   -6.0517   25.9082 H   0  0  0  0  0  0
  -22.0602   -2.7602   23.2862 H   0  0  0  0  0  0
  -22.4043  -11.9841   22.4797 H   0  0  0  0  0  0
  -21.1096  -13.1263   22.2628 H   0  0  0  0  0  0
  -24.6319  -15.8165   20.5097 H   0  0  0  0  0  0
  -26.2555  -15.6196   20.0832 H   0  0  0  0  0  0
  -26.7092  -32.5546   23.1173 H   0  0  0  0  0  0
  -25.0060  -33.9817   25.0486 H   0  0  0  0  0  0
  -22.6912  -31.3055   21.4073 H   0  0  0  0  0  0
  -23.3747  -35.9643   23.3337 H   0  0  0  0  0  0
  -24.3585  -36.8881   22.2064 H   0  0  0  0  0  0
  -23.7223  -37.6520   23.6629 H   0  0  0  0  0  0
  -26.0421  -31.5930   20.5916 H   0  0  0  0  0  0
  -26.8199  -30.8893   21.9828 H   0  0  0  0  0  0
  -28.1101  -29.1153   21.1611 H   0  0  0  0  0  0
  -26.0918  -25.9601   19.0326 H   0  0  0  0  0  0
  -23.9896  -27.2753   19.0509 H   0  0  0  0  0  0
  -23.7254  -30.5910   19.4073 H   0  0  0  0  0  0
  -22.7379  -29.2379   19.8700 H   0  0  0  0  0  0
  -25.1272  -36.1999   25.0841 H   0  0  0  0  0  0
  -20.9964  -28.3198   24.1439 H   0  0  0  0  0  0
  -20.5681  -26.2259   23.3589 H   0  0  0  0  0  0
  -21.6636  -26.7421   22.1206 H   0  0  0  0  0  0
  -19.6918  -25.6291   21.1231 H   0  0  0  0  0  0
  -19.6701  -27.3197   20.6752 H   0  0  0  0  0  0
  -17.4206  -26.6677   21.4018 H   0  0  0  0  0  0
  -18.0314  -26.0042   22.9000 H   0  0  0  0  0  0
  -19.7947  -30.7252   24.2265 H   0  0  0  0  0  0
  -17.5034  -31.6266   24.5158 H   0  0  0  0  0  0
  -15.5365  -30.2992   23.7655 H   0  0  0  0  0  0
  -15.8666  -28.0838   22.7027 H   0  0  0  0  0  0
  -24.5877  -30.7090   25.7822 H   0  0  0  0  0  0
  -24.8925  -32.2898   26.4944 H   0  0  0  0  0  0
  -25.8072  -30.8893   27.0241 H   0  0  0  0  0  0
  -26.2849  -29.6842   24.1124 H   0  0  0  0  0  0
  -27.4062  -29.7285   25.4540 H   0  0  0  0  0  0
  -27.8665  -30.4417   23.9243 H   0  0  0  0  0  0
  -27.2670  -33.3638   26.2072 H   0  0  0  0  0  0
  -28.3823  -32.6908   25.0284 H   0  0  0  0  0  0
  -28.0728  -31.8462   26.5380 H   0  0  0  0  0  0
  -28.2599  -38.0093   24.7502 H   0  0  0  0  0  0
  -28.1056  -36.2629   24.6312 H   0  0  0  0  0  0
  -27.2306  -37.1469   25.8880 H   0  0  0  0  0  0
  -20.9312  -29.8735   21.6961 H   0  0  0  0  0  0
  -26.0193  -38.2872   24.1416 H   0  0  0  0  0  0
  -26.6209  -19.1796   23.3471 H   0  0  0  0  0  0
  -25.7078  -18.1304   22.2775 H   0  0  0  0  0  0
  -25.2727  -19.8310   22.4326 H   0  0  0  0  0  0
  -29.9146  -23.5228   18.6471 H   0  0  0  0  0  0
  -30.3756  -25.2095   18.8444 H   0  0  0  0  0  0
  -28.7148  -24.7802   18.4345 H   0  0  0  0  0  0
  -26.8864  -19.9110   17.7314 H   0  0  0  0  0  0
  -27.6853  -18.5754   18.5256 H   0  0  0  0  0  0
  -28.2405  -20.2218   18.8007 H   0  0  0  0  0  0
  -25.2898  -21.3873   18.8975 H   0  0  0  0  0  0
  -26.5913  -21.9232   19.9467 H   0  0  0  0  0  0
  -25.0854  -21.3358   20.6371 H   0  0  0  0  0  0
  -24.7446  -18.9453   18.6318 H   0  0  0  0  0  0
  -24.4182  -18.8544   20.3469 H   0  0  0  0  0  0
  -25.5497  -17.7338   19.6020 H   0  0  0  0  0  0
  -31.2868  -23.6596   20.6326 H   0  0  0  0  0  0
  -30.8590  -24.6548   21.9552 H   0  0  0  0  0  0
  -29.4028  -26.2565   21.7337 H   0  0  0  0  0  0
  -27.7952  -25.5939   21.6812 H   0  0  0  0  0  0
  -27.4594  -20.4683   21.5288 H   0  0  0  0  0  0
  -29.3950  -22.7101   22.8263 H   0  0  0  0  0  0
  -28.4257  -23.6853   20.6125 H   0  0  0  0  0  0
  -30.0794  -20.1573   23.1491 H   0  0  0  0  0  0
  -29.5665  -14.7187   22.1837 H   0  0  0  0  0  0
  -31.2750  -21.7194   23.8162 H   0  0  0  0  0  0
  -31.5806  -23.3012   23.6416 H   0  0  0  0  0  0
  -32.2625  -22.2212   22.6253 H   0  0  0  0  0  0
  1 25  1  0  0  0
  1 30  2  0  0  0
  1 88  1  0  0  0
  2  3  1  0  0  0
  2 25  1  0  0  0
  2 92  1  0  0  0
  2 93  1  0  0  0
  3  4  1  0  0  0
  3 94  1  0  0  0
  3 95  1  0  0  0
  4  5  1  0  0  0
  4 96  1  0  0  0
  4 97  1  0  0  0
  5  6  1  0  0  0
  5 26  1  0  0  0
  5 98  1  0  0  0
  6 25  1  0  0  0
  6 99  1  0  0  0
  6100  1  0  0  0
  7  8  2  0  0  0
  7 26  1  0  0  0
  7 29  1  0  0  0
  8  9  1  0  0  0
  8 22  1  0  0  0
  9 10  1  0  0  0
  9 27  2  0  0  0
 10 11  2  0  0  0
 10 15  1  0  0  0
 11 12  1  0  0  0
 11101  1  0  0  0
 12 13  2  0  0  0
 12102  1  0  0  0
 13 14  1  0  0  0
 13 31  1  0  0  0
 14 15  2  0  0  0
 14103  1  0  0  0
 15104  1  0  0  0
 16 17  2  0  0  0
 16 21  1  0  0  0
 16 31  1  0  0  0
 17 18  1  0  0  0
 17105  1  0  0  0
 18 19  2  0  0  0
 18106  1  0  0  0
 19 20  1  0  0  0
 19 24  1  0  0  0
 20 21  2  0  0  0
 20107  1  0  0  0
 21 23  1  0  0  0
 22 28  1  0  0  0
 22 32  2  0  0  0
 26 27  1  0  0  0
 28108  1  0  0  0
 28109  1  0  0  0
 29110  1  0  0  0
 29111  1  0  0  0
 33 34  1  0  0  0
 33 66  1  0  0  0
 33 70  2  0  0  0
 34 36  1  0  0  0
 34 59  1  0  0  0
 34112  1  0  0  0
 35 44  2  0  0  0
 35 45  1  0  0  0
 35 68  1  0  0  0
 36 56  1  0  0  0
 36113  1  0  0  0
 37 39  1  0  0  0
 37 47  1  0  0  0
 37 66  1  0  0  0
 37114  1  0  0  0
 38 43  2  0  0  0
 38 46  1  0  0  0
 38 47  1  0  0  0
 39 64  1  0  0  0
 39 67  2  0  0  0
 40 52  1  0  0  0
 40 53  2  0  0  0
 40 58  1  0  0  0
 41115  1  0  0  0
 41116  1  0  0  0
 41117  1  0  0  0
 41 48  1  0  0  0
 42 43  1  0  0  0
 42 66  1  0  0  0
 42118  1  0  0  0
 42119  1  0  0  0
 43 44  1  0  0  0
 44120  1  0  0  0
 45 46  2  0  0  0
 45121  1  0  0  0
 46122  1  0  0  0
 47123  1  0  0  0
 47124  1  0  0  0
 48 56  1  0  0  0
 48 65  1  0  0  0
 48125  1  0  0  0
 49 50  1  0  0  0
 49 53  1  0  0  0
 49 64  1  0  0  0
 49126  1  0  0  0
 50 51  1  0  0  0
 50127  1  0  0  0
 50128  1  0  0  0
 51 52  1  0  0  0
 51129  1  0  0  0
 51130  1  0  0  0
 52131  1  0  0  0
 52132  1  0  0  0
 53 54  1  0  0  0
 54 55  2  0  0  0
 54133  1  0  0  0
 55 57  1  0  0  0
 55134  1  0  0  0
 56 69  2  0  0  0
 57 58  2  0  0  0
 57135  1  0  0  0
 58136  1  0  0  0
 59 60  1  0  0  0
 59 61  1  0  0  0
 59 62  1  0  0  0
 60137  1  0  0  0
 60138  1  0  0  0
 60139  1  0  0  0
 61140  1  0  0  0
 61141  1  0  0  0
 61142  1  0  0  0
 62143  1  0  0  0
 62144  1  0  0  0
 62145  1  0  0  0
 63 65  1  0  0  0
 63146  1  0  0  0
 63147  1  0  0  0
 63148  1  0  0  0
 64149  1  0  0  0
 65150  1  0  0  0
 68 81  1  0  0  0
 71 72  2  0  0  0
 71 82  1  0  0  0
 71 91  1  0  0  0
 72 86  1  0  0  0
 72 87  1  0  0  0
 73 86  2  0  0  0
 73 88  1  0  0  0
 73 91  1  0  0  0
 74 83  1  0  0  0
 74 87  1  0  0  0
 74 90  2  0  0  0
 75151  1  0  0  0
 75152  1  0  0  0
 75153  1  0  0  0
 75 82  1  0  0  0
 76154  1  0  0  0
 76155  1  0  0  0
 76156  1  0  0  0
 76 84  1  0  0  0
 77157  1  0  0  0
 77158  1  0  0  0
 77159  1  0  0  0
 77 85  1  0  0  0
 78 85  1  0  0  0
 78160  1  0  0  0
 78161  1  0  0  0
 78162  1  0  0  0
 79 85  1  0  0  0
 79163  1  0  0  0
 79164  1  0  0  0
 79165  1  0  0  0
 80 83  1  0  0  0
 80 84  1  0  0  0
 80166  1  0  0  0
 80167  1  0  0  0
 81 84  1  0  0  0
 81168  1  0  0  0
 81169  1  0  0  0
 82 85  1  0  0  0
 82170  1  0  0  0
 83 89  1  0  0  0
 83171  1  0  0  0
 84172  1  0  0  0
 87173  1  0  0  0
 88174  1  0  0  0
 89175  1  0  0  0
 89176  1  0  0  0
 89177  1  0  0  0
M  CHG  1  89   1
M  ISO  4   1 100  68 101  81 101  88 100
M  END
> <chiral flag>
0

> <version>
0

> <s_m_source_file>
/data/baiqing/PycharmProjects/Reinvent-master-3.2/result/LINK_invent/BTK/process_docking_weight1_custom_product_contain_oxygen_bond_distance_aromatic_linkinvent_7_9_3/rearranged_h_0190.sdf

> <i_m_source_file_index>
66

> <r_mmod_Potential_Energy-OPLS-2005>
-394.4072265625

> <r_mmod_Stretch_Energy-OPLS-2005>
44.3557090759277

> <r_mmod_Bend_Energy-OPLS-2005>
124.979209899902

> <r_mmod_Torsional_Energy-OPLS-2005>
316.586395263672

> <r_mmod_Improper_Torsional_Energy-OPLS-2005>
10.3736324310303

> <r_mmod_Van_der_Waal_Energy-OPLS-2005>
118.545219421387

> <r_mmod_Electrostatic_Energy-OPLS-2005>
-476.164154052734

> <r_mmod_Solvation_Energy-OPLS-2005>
-543.01513671875

> <b_mmod_Minimization_Converged-OPLS-2005>
0

> <r_mmod_RMS_Derivative-OPLS-2005>
2.1086094379425

$$$$
66
                    3D
 Structure written by MMmdl.
162170  0  0  1  0            999 V2000
  -30.5862  -14.7679   20.4896 C   0  0  0  0  0  0
  -30.4187  -12.4608   19.5518 C   0  0  0  0  0  0
  -29.5224  -12.5103   18.2879 C   0  0  0  0  0  0
  -28.0450  -12.3119   18.6767 C   0  0  0  0  0  0
  -27.6282  -13.2211   19.8572 C   0  0  2  0  0  0
  -28.6479  -13.1369   21.0082 C   0  0  0  0  0  0
  -25.2478  -13.8158   20.5735 C   0  0  0  0  0  0
  -24.1748  -13.0380   20.9226 C   0  0  0  0  0  0
  -24.6335  -11.6894   20.8725 C   0  0  0  0  0  0
  -23.9037  -10.4253   21.0424 C   0  0  0  0  0  0
  -24.3589   -9.4173   21.9218 C   0  0  0  0  0  0
  -23.6278   -8.2197   22.0759 C   0  0  0  0  0  0
  -22.4291   -8.0228   21.3527 C   0  0  0  0  0  0
  -21.9906   -9.0188   20.4626 C   0  0  0  0  0  0
  -22.7190  -10.2098   20.3071 C   0  0  0  0  0  0
  -21.6836   -6.0719   22.5303 C   0  0  0  0  0  0
  -21.4011   -6.5638   23.8219 C   0  0  0  0  0  0
  -21.3695   -5.6764   24.9219 C   0  0  0  0  0  0
  -21.6030   -4.3050   24.7255 C   0  0  0  0  0  0
  -21.8818   -3.8137   23.4377 C   0  0  0  0  0  0
  -21.9205   -4.6920   22.3458 C   0  0  0  0  0  0
  -22.7782  -13.5157   21.1827 C   0  0  0  0  0  0
  -22.1660   -4.2096   21.1018 F   0  0  0  0  0  0
  -21.5637   -3.4537   25.7796 F   0  0  0  0  0  0
  -29.9656  -13.5268   20.4919 N   0  0  0  0  0  0
  -26.2836  -12.9342   20.3225 N   0  0  0  0  0  0
  -25.9253  -11.6487   20.5770 N   0  0  0  0  0  0
  -22.0466  -12.8151   22.0447 N   0  0  0  0  0  0
  -25.4200  -15.1834   20.4081 N   0  0  0  0  0  0
  -31.7447  -14.8352   20.0504 O   0  0  0  0  0  0
  -21.6659   -6.8849   21.4259 O   0  0  0  0  0  0
  -22.3449  -14.5451   20.6690 O   0  0  0  0  0  0
  -24.6218  -31.8565   23.2072 C   0  0  0  0  0  0
  -25.9021  -32.4796   23.8416 C   0  0  1  0  0  0
  -27.2299  -27.2804   20.1201 C   0  0  0  0  0  0
  -25.5764  -33.8575   24.2301 N   0  0  0  0  0  0
  -23.4225  -30.4695   21.5478 C   0  0  2  0  0  0
  -24.8773  -28.9159   20.1160 C   0  0  0  0  0  0
  -22.7457  -29.4568   22.5004 C   0  0  0  0  0  0
  -18.0266  -28.1346   22.8514 C   0  0  0  0  0  0
  -24.1479  -36.7293   23.2690 C   0  0  0  0  0  0
  -25.9702  -30.7634   21.3993 C   0  0  0  0  0  0
  -26.0395  -29.3872   20.7333 C   0  0  0  0  0  0
  -27.2147  -28.5732   20.7391 C   0  0  0  0  0  0
  -26.0523  -26.8824   19.4602 C   0  0  0  0  0  0
  -24.8792  -27.6636   19.4811 C   0  0  0  0  0  0
  -23.6380  -29.7841   20.1717 C   0  0  0  0  0  0
  -25.4111  -36.3088   24.0382 C   0  0  1  0  0  0
  -20.5883  -28.3637   23.1325 C   0  0  2  0  0  0
  -20.6783  -26.9358   22.5436 C   0  0  0  0  0  0
  -19.5784  -26.6333   21.5211 C   0  0  0  0  0  0
  -18.1951  -26.7929   22.1586 C   0  0  0  0  0  0
  -19.1554  -28.8808   23.2921 C   0  0  0  0  0  0
  -18.9454  -30.1402   23.8951 C   0  0  0  0  0  0
  -17.6486  -30.6592   24.0497 C   0  0  0  0  0  0
  -25.8988  -34.9483   23.5171 C   0  0  0  0  0  0
  -16.5365  -29.9068   23.6404 C   0  0  0  0  0  0
  -16.7254  -28.6477   23.0445 C   0  0  0  0  0  0
  -26.4433  -31.6678   25.0855 C   0  0  0  0  0  0
  -25.3632  -31.3800   26.1598 C   0  0  0  0  0  0
  -27.0475  -30.3161   24.6462 C   0  0  0  0  0  0
  -27.5954  -32.4532   25.7544 C   0  0  0  0  0  0
  -27.5638  -37.1731   24.8494 C   0  0  0  0  0  0
  -21.4193  -29.2982   22.3720 N   0  0  0  0  0  0
  -26.4334  -37.3752   23.9447 N   0  0  0  0  0  0
  -24.6882  -31.0491   22.1046 N   0  0  0  0  0  0
  -23.4197  -28.8161   23.3130 O   0  0  0  0  0  0
  -28.3418  -26.4262   20.2413 O   0  0  0  0  0  0
  -26.5646  -34.8939   22.4796 O   0  0  0  0  0  0
  -23.5298  -32.1375   23.7253 O   0  0  0  0  0  0
  -29.4511  -18.2903   20.5800 C   0  0  0  0  0  0
  -29.0957  -16.5494   21.7211 C   0  0  0  0  0  0
  -27.0380  -20.2286   19.7139 C   0  0  0  0  0  0
  -25.7343  -20.0675   20.5412 C   0  0  0  0  0  0
  -26.4817  -23.5455   19.5681 C   0  0  0  0  0  0
  -27.7711  -23.6808   21.7214 C   0  0  0  0  0  0
  -28.7450  -22.2771   19.8398 C   0  0  0  0  0  0
  -28.5135  -25.0553   19.6533 C   0  0  0  0  0  0
  -28.3868  -20.7494   20.3582 C   0  0  2  0  0  0
  -27.8934  -23.6395   20.1959 C   0  0  0  0  0  0
  -28.6465  -17.8121   21.5765 N   0  0  0  0  0  0
  -30.2554  -17.3353   20.0622 N   0  0  0  0  0  0
  -29.9493  -16.1480   20.7429 N   0  0  0  0  0  0
  -28.8503  -15.8754   22.9002 N   0  0  0  0  0  0
  -29.4885  -19.7088   20.2149 N   0  0  0  0  0  0
  -26.9654  -19.9617   18.5092 O   0  0  0  0  0  0
  -31.4656  -12.5645   19.2766 H   0  0  0  0  0  0
  -30.3427  -11.4855   20.0281 H   0  0  0  0  0  0
  -29.8199  -11.7352   17.5776 H   0  0  0  0  0  0
  -29.6401  -13.4649   17.7750 H   0  0  0  0  0  0
  -27.9285  -11.2663   18.9753 H   0  0  0  0  0  0
  -27.3800  -12.4541   17.8222 H   0  0  0  0  0  0
  -27.6363  -14.2452   19.4851 H   0  0  0  0  0  0
  -28.6801  -12.1209   21.4081 H   0  0  0  0  0  0
  -28.3101  -13.7394   21.8376 H   0  0  0  0  0  0
  -25.2755   -9.5661   22.4750 H   0  0  0  0  0  0
  -23.9983   -7.4633   22.7509 H   0  0  0  0  0  0
  -21.0834   -8.8705   19.8941 H   0  0  0  0  0  0
  -22.3658  -10.9633   19.6158 H   0  0  0  0  0  0
  -21.2020   -7.6142   23.9703 H   0  0  0  0  0  0
  -21.1496   -6.0548   25.9090 H   0  0  0  0  0  0
  -22.0589   -2.7562   23.2941 H   0  0  0  0  0  0
  -22.4103  -11.9841   22.4857 H   0  0  0  0  0  0
  -21.1021  -13.1153   22.2633 H   0  0  0  0  0  0
  -24.6467  -15.8397   20.5027 H   0  0  0  0  0  0
  -26.2770  -15.6150   20.0954 H   0  0  0  0  0  0
  -26.7096  -32.5475   23.1123 H   0  0  0  0  0  0
  -24.9654  -33.9643   25.0283 H   0  0  0  0  0  0
  -22.7151  -31.2900   21.3881 H   0  0  0  0  0  0
  -23.3801  -35.9544   23.3252 H   0  0  0  0  0  0
  -24.3592  -36.9016   22.2125 H   0  0  0  0  0  0
  -23.7172  -37.6427   23.6771 H   0  0  0  0  0  0
  -26.1334  -31.5289   20.6380 H   0  0  0  0  0  0
  -26.8361  -30.7920   22.0478 H   0  0  0  0  0  0
  -28.1061  -28.9040   21.2521 H   0  0  0  0  0  0
  -26.0292  -25.9500   18.9308 H   0  0  0  0  0  0
  -23.9841  -27.2780   19.0140 H   0  0  0  0  0  0
  -23.7262  -30.5464   19.3987 H   0  0  0  0  0  0
  -22.7671  -29.1850   19.9004 H   0  0  0  0  0  0
  -25.1267  -36.1939   25.0872 H   0  0  0  0  0  0
  -20.9917  -28.3170   24.1474 H   0  0  0  0  0  0
  -20.5666  -26.2191   23.3599 H   0  0  0  0  0  0
  -21.6657  -26.7417   22.1239 H   0  0  0  0  0  0
  -19.6957  -25.6236   21.1303 H   0  0  0  0  0  0
  -19.6805  -27.3077   20.6715 H   0  0  0  0  0  0
  -17.4231  -26.6699   21.3960 H   0  0  0  0  0  0
  -18.0273  -26.0010   22.8924 H   0  0  0  0  0  0
  -19.7899  -30.7161   24.2375 H   0  0  0  0  0  0
  -17.5034  -31.6312   24.5049 H   0  0  0  0  0  0
  -15.5350  -30.2954   23.7769 H   0  0  0  0  0  0
  -15.8621  -28.0730   22.7287 H   0  0  0  0  0  0
  -24.5693  -30.7341   25.7921 H   0  0  0  0  0  0
  -24.8952  -32.2933   26.5239 H   0  0  0  0  0  0
  -25.7900  -30.8795   27.0303 H   0  0  0  0  0  0
  -26.3226  -29.6716   24.1530 H   0  0  0  0  0  0
  -27.4261  -29.7659   25.5091 H   0  0  0  0  0  0
  -27.8981  -30.4611   23.9809 H   0  0  0  0  0  0
  -27.2605  -33.3909   26.2008 H   0  0  0  0  0  0
  -28.3718  -32.7039   25.0295 H   0  0  0  0  0  0
  -28.0703  -31.8805   26.5479 H   0  0  0  0  0  0
  -28.2595  -38.0100   24.7634 H   0  0  0  0  0  0
  -28.1209  -36.2623   24.6191 H   0  0  0  0  0  0
  -27.2363  -37.1234   25.8905 H   0  0  0  0  0  0
  -20.9343  -29.8585   21.6848 H   0  0  0  0  0  0
  -26.0257  -38.2858   24.1403 H   0  0  0  0  0  0
  -25.7322  -20.6637   21.4524 H   0  0  0  0  0  0
  -25.5324  -19.0284   20.8112 H   0  0  0  0  0  0
  -24.8427  -20.3731   19.9765 H   0  0  0  0  0  0
  -26.0150  -22.5773   19.6685 H   0  0  0  0  0  0
  -26.4928  -23.7691   18.4950 H   0  0  0  0  0  0
  -25.7804  -24.2156   20.0605 H   0  0  0  0  0  0
  -27.1845  -22.8333   22.0700 H   0  0  0  0  0  0
  -27.2750  -24.5852   22.0632 H   0  0  0  0  0  0
  -28.7493  -23.6331   22.2024 H   0  0  0  0  0  0
  -28.8475  -22.2348   18.7574 H   0  0  0  0  0  0
  -29.7641  -22.4772   20.1757 H   0  0  0  0  0  0
  -28.3456  -25.1403   18.5778 H   0  0  0  0  0  0
  -29.5935  -24.9306   19.7373 H   0  0  0  0  0  0
  -28.2116  -20.8202   21.4318 H   0  0  0  0  0  0
  -28.4594  -16.4251   23.6596 H   0  0  0  0  0  0
  -29.6124  -15.3065   23.2399 H   0  0  0  0  0  0
  -30.3737  -19.9863   19.7226 H   0  0  0  0  0  0
  1 25  1  0  0  0
  1 30  2  0  0  0
  1 83  1  0  0  0
  2  3  1  0  0  0
  2 25  1  0  0  0
  2 87  1  0  0  0
  2 88  1  0  0  0
  3  4  1  0  0  0
  3 89  1  0  0  0
  3 90  1  0  0  0
  4  5  1  0  0  0
  4 91  1  0  0  0
  4 92  1  0  0  0
  5  6  1  0  0  0
  5 26  1  0  0  0
  5 93  1  0  0  0
  6 25  1  0  0  0
  6 94  1  0  0  0
  6 95  1  0  0  0
  7  8  2  0  0  0
  7 26  1  0  0  0
  7 29  1  0  0  0
  8  9  1  0  0  0
  8 22  1  0  0  0
  9 10  1  0  0  0
  9 27  2  0  0  0
 10 11  2  0  0  0
 10 15  1  0  0  0
 11 12  1  0  0  0
 11 96  1  0  0  0
 12 13  2  0  0  0
 12 97  1  0  0  0
 13 14  1  0  0  0
 13 31  1  0  0  0
 14 15  2  0  0  0
 14 98  1  0  0  0
 15 99  1  0  0  0
 16 17  2  0  0  0
 16 21  1  0  0  0
 16 31  1  0  0  0
 17 18  1  0  0  0
 17100  1  0  0  0
 18 19  2  0  0  0
 18101  1  0  0  0
 19 20  1  0  0  0
 19 24  1  0  0  0
 20 21  2  0  0  0
 20102  1  0  0  0
 21 23  1  0  0  0
 22 28  1  0  0  0
 22 32  2  0  0  0
 26 27  1  0  0  0
 28103  1  0  0  0
 28104  1  0  0  0
 29105  1  0  0  0
 29106  1  0  0  0
 33 34  1  0  0  0
 33 66  1  0  0  0
 33 70  2  0  0  0
 34 36  1  0  0  0
 34 59  1  0  0  0
 34107  1  0  0  0
 35 44  2  0  0  0
 35 45  1  0  0  0
 35 68  1  0  0  0
 36 56  1  0  0  0
 36108  1  0  0  0
 37 39  1  0  0  0
 37 47  1  0  0  0
 37 66  1  0  0  0
 37109  1  0  0  0
 38 43  2  0  0  0
 38 46  1  0  0  0
 38 47  1  0  0  0
 39 64  1  0  0  0
 39 67  2  0  0  0
 40 52  1  0  0  0
 40 53  2  0  0  0
 40 58  1  0  0  0
 41110  1  0  0  0
 41111  1  0  0  0
 41112  1  0  0  0
 41 48  1  0  0  0
 42 43  1  0  0  0
 42 66  1  0  0  0
 42113  1  0  0  0
 42114  1  0  0  0
 43 44  1  0  0  0
 44115  1  0  0  0
 45 46  2  0  0  0
 45116  1  0  0  0
 46117  1  0  0  0
 47118  1  0  0  0
 47119  1  0  0  0
 48 56  1  0  0  0
 48 65  1  0  0  0
 48120  1  0  0  0
 49 50  1  0  0  0
 49 53  1  0  0  0
 49 64  1  0  0  0
 49121  1  0  0  0
 50 51  1  0  0  0
 50122  1  0  0  0
 50123  1  0  0  0
 51 52  1  0  0  0
 51124  1  0  0  0
 51125  1  0  0  0
 52126  1  0  0  0
 52127  1  0  0  0
 53 54  1  0  0  0
 54 55  2  0  0  0
 54128  1  0  0  0
 55 57  1  0  0  0
 55129  1  0  0  0
 56 69  2  0  0  0
 57 58  2  0  0  0
 57130  1  0  0  0
 58131  1  0  0  0
 59 60  1  0  0  0
 59 61  1  0  0  0
 59 62  1  0  0  0
 60132  1  0  0  0
 60133  1  0  0  0
 60134  1  0  0  0
 61135  1  0  0  0
 61136  1  0  0  0
 61137  1  0  0  0
 62138  1  0  0  0
 62139  1  0  0  0
 62140  1  0  0  0
 63 65  1  0  0  0
 63141  1  0  0  0
 63142  1  0  0  0
 63143  1  0  0  0
 64144  1  0  0  0
 65145  1  0  0  0
 68 78  1  0  0  0
 71 81  1  0  0  0
 71 82  2  0  0  0
 71 85  1  0  0  0
 72 81  2  0  0  0
 72 83  1  0  0  0
 72 84  1  0  0  0
 73 74  1  0  0  0
 73 79  1  0  0  0
 73 86  2  0  0  0
 74146  1  0  0  0
 74147  1  0  0  0
 74148  1  0  0  0
 75149  1  0  0  0
 75150  1  0  0  0
 75151  1  0  0  0
 75 80  1  0  0  0
 76 80  1  0  0  0
 76152  1  0  0  0
 76153  1  0  0  0
 76154  1  0  0  0
 77 80  1  0  0  0
 77155  1  0  0  0
 77156  1  0  0  0
 77 79  1  0  0  0
 78 80  1  0  0  0
 78157  1  0  0  0
 78158  1  0  0  0
 79 85  1  0  0  0
 79159  1  0  0  0
 82 83  1  0  0  0
 84160  1  0  0  0
 84161  1  0  0  0
 85162  1  0  0  0
M  ISO  4   1 100  68 101  78 101  83 100
M  END
> <chiral flag>
0

> <version>
0

> <s_m_source_file>
/data/baiqing/PycharmProjects/Reinvent-master-3.2/result/LINK_invent/BTK/process_docking_weight1_custom_product_contain_oxygen_bond_distance_aromatic_linkinvent_7_9_3/rearranged_h_0190.sdf

> <i_m_source_file_index>
67

> <r_mmod_Potential_Energy-OPLS-2005>
216.008209228516

> <r_mmod_Stretch_Energy-OPLS-2005>
152.3056640625

> <r_mmod_Bend_Energy-OPLS-2005>
271.914825439453

> <r_mmod_Torsional_Energy-OPLS-2005>
224.428115844727

> <r_mmod_Improper_Torsional_Energy-OPLS-2005>
12.609224319458

> <r_mmod_Van_der_Waal_Energy-OPLS-2005>
115.471862792969

> <r_mmod_Electrostatic_Energy-OPLS-2005>
-409.385620117188

> <r_mmod_Solvation_Energy-OPLS-2005>
-238.040313720703

> <b_mmod_Minimization_Converged-OPLS-2005>
0

> <r_mmod_RMS_Derivative-OPLS-2005>
19.1695117950439

$$$$
67
                    3D
 Structure written by MMmdl.
157165  0  0  1  0            999 V2000
  -30.7706  -14.3835   20.6786 C   0  0  0  0  0  0
  -30.4148  -12.3018   19.3970 C   0  0  0  0  0  0
  -29.4820  -12.5241   18.1921 C   0  0  0  0  0  0
  -28.0082  -12.3719   18.6128 C   0  0  0  0  0  0
  -27.6632  -13.2046   19.8749 C   0  0  2  0  0  0
  -28.7021  -12.9664   20.9927 C   0  0  0  0  0  0
  -25.2587  -13.8156   20.5666 C   0  0  0  0  0  0
  -24.1835  -13.0437   20.9160 C   0  0  0  0  0  0
  -24.6390  -11.6905   20.8722 C   0  0  0  0  0  0
  -23.9058  -10.4289   21.0390 C   0  0  0  0  0  0
  -24.3612   -9.4206   21.9170 C   0  0  0  0  0  0
  -23.6289   -8.2243   22.0752 C   0  0  0  0  0  0
  -22.4269   -8.0282   21.3550 C   0  0  0  0  0  0
  -21.9901   -9.0246   20.4643 C   0  0  0  0  0  0
  -22.7232  -10.2123   20.3043 C   0  0  0  0  0  0
  -21.6847   -6.0738   22.5285 C   0  0  0  0  0  0
  -21.4009   -6.5644   23.8220 C   0  0  0  0  0  0
  -21.3654   -5.6798   24.9179 C   0  0  0  0  0  0
  -21.6045   -4.3062   24.7233 C   0  0  0  0  0  0
  -21.8820   -3.8154   23.4353 C   0  0  0  0  0  0
  -21.9186   -4.6968   22.3409 C   0  0  0  0  0  0
  -22.7856  -13.5236   21.1828 C   0  0  0  0  0  0
  -22.1653   -4.2153   21.0985 F   0  0  0  0  0  0
  -21.5630   -3.4544   25.7743 F   0  0  0  0  0  0
  -30.0432  -13.2572   20.4524 N   0  0  0  0  0  0
  -26.3029  -12.9328   20.3367 N   0  0  0  0  0  0
  -25.9319  -11.6488   20.5765 N   0  0  0  0  0  0
  -22.0494  -12.8227   22.0384 N   0  0  0  0  0  0
  -25.4326  -15.1870   20.4077 N   0  0  0  0  0  0
  -31.8000  -14.6550   20.0533 O   0  0  0  0  0  0
  -21.6638   -6.8878   21.4246 O   0  0  0  0  0  0
  -22.3544  -14.5545   20.6684 O   0  0  0  0  0  0
  -24.6139  -31.8691   23.2109 C   0  0  0  0  0  0
  -25.9039  -32.4824   23.8398 C   0  0  1  0  0  0
  -27.2308  -27.4385   20.0974 C   0  0  0  0  0  0
  -25.5906  -33.8623   24.2337 N   0  0  0  0  0  0
  -23.4004  -30.4940   21.5513 C   0  0  2  0  0  0
  -24.8448  -28.9608   20.1149 C   0  0  0  0  0  0
  -22.7402  -29.4670   22.4992 C   0  0  0  0  0  0
  -18.0270  -28.1380   22.8487 C   0  0  0  0  0  0
  -24.1491  -36.7317   23.2633 C   0  0  0  0  0  0
  -25.9284  -30.8365   21.3622 C   0  0  0  0  0  0
  -26.0041  -29.4707   20.7115 C   0  0  0  0  0  0
  -27.1992  -28.7171   20.6990 C   0  0  0  0  0  0
  -26.0562  -26.9514   19.4778 C   0  0  0  0  0  0
  -24.8653  -27.7000   19.4953 C   0  0  0  0  0  0
  -23.6067  -29.8265   20.1655 C   0  0  0  0  0  0
  -25.4107  -36.3114   24.0338 C   0  0  1  0  0  0
  -20.5861  -28.3663   23.1323 C   0  0  2  0  0  0
  -20.6765  -26.9404   22.5414 C   0  0  0  0  0  0
  -19.5746  -26.6391   21.5209 C   0  0  0  0  0  0
  -18.1923  -26.7928   22.1617 C   0  0  0  0  0  0
  -19.1519  -28.8837   23.2906 C   0  0  0  0  0  0
  -18.9446  -30.1443   23.8913 C   0  0  0  0  0  0
  -17.6450  -30.6585   24.0567 C   0  0  0  0  0  0
  -25.9033  -34.9476   23.5132 C   0  0  0  0  0  0
  -16.5339  -29.9086   23.6329 C   0  0  0  0  0  0
  -16.7260  -28.6508   23.0339 C   0  0  0  0  0  0
  -26.4468  -31.6593   25.0717 C   0  0  0  0  0  0
  -25.3746  -31.3723   26.1485 C   0  0  0  0  0  0
  -27.0266  -30.3025   24.6082 C   0  0  0  0  0  0
  -27.6072  -32.4281   25.7463 C   0  0  0  0  0  0
  -27.5585  -37.1814   24.8461 C   0  0  0  0  0  0
  -21.4133  -29.3038   22.3733 N   0  0  0  0  0  0
  -26.4296  -37.3795   23.9405 N   0  0  0  0  0  0
  -24.6660  -31.0804   22.1003 N   0  0  0  0  0  0
  -23.4182  -28.8209   23.3026 O   0  0  0  0  0  0
  -28.4114  -26.7239   20.1067 O   0  0  0  0  0  0
  -26.5587  -34.8925   22.4689 O   0  0  0  0  0  0
  -23.5335  -32.1436   23.7516 O   0  0  0  0  0  0
  -29.9512  -18.5257   22.8925 C   0  0  0  0  0  0
  -29.5458  -19.7666   22.3174 C   0  0  0  0  0  0
  -30.4542  -17.6388   21.9770 C   0  0  0  0  0  0
  -29.7416  -19.8378   20.9570 C   0  0  0  0  0  0
  -29.3251  -22.1642   20.3454 C   0  0  0  0  0  0
  -29.0999  -25.1945   17.8287 C   0  0  0  0  0  0
  -31.0602  -16.2942   22.2581 C   0  0  0  0  0  0
  -28.9779  -23.0393   19.1283 C   0  0  0  0  0  0
  -28.3391  -25.2960   20.2554 C   0  0  0  0  0  0
  -29.2463  -24.5697   19.2306 C   0  0  2  0  0  0
  -29.4802  -20.8512   20.0889 N   0  0  0  0  0  0
  -30.3315  -15.1673   21.6733 N   0  0  0  0  0  0
  -29.4540  -22.6614   21.4662 O   0  0  0  0  0  0
  -30.3999  -18.3231   20.3712 S   0  0  0  0  0  0
  -31.4578  -12.3996   19.0903 H   0  0  0  0  0  0
  -30.3161  -11.2822   19.7733 H   0  0  0  0  0  0
  -29.7186  -11.8161   17.3966 H   0  0  0  0  0  0
  -29.6460  -13.5192   17.7759 H   0  0  0  0  0  0
  -27.8246  -11.3143   18.8076 H   0  0  0  0  0  0
  -27.3483  -12.6464   17.7888 H   0  0  0  0  0  0
  -27.7159  -14.2555   19.5896 H   0  0  0  0  0  0
  -28.6673  -11.9279   21.3251 H   0  0  0  0  0  0
  -28.4473  -13.5579   21.8717 H   0  0  0  0  0  0
  -25.2759   -9.5684   22.4737 H   0  0  0  0  0  0
  -24.0000   -7.4635   22.7471 H   0  0  0  0  0  0
  -21.0834   -8.8762   19.8946 H   0  0  0  0  0  0
  -22.3695  -10.9654   19.6143 H   0  0  0  0  0  0
  -21.2007   -7.6155   23.9723 H   0  0  0  0  0  0
  -21.1467   -6.0528   25.9079 H   0  0  0  0  0  0
  -22.0601   -2.7619   23.2856 H   0  0  0  0  0  0
  -22.4107  -11.9889   22.4774 H   0  0  0  0  0  0
  -21.1111  -13.1251   22.2582 H   0  0  0  0  0  0
  -24.6725  -15.8486   20.5232 H   0  0  0  0  0  0
  -26.2984  -15.6239   20.1165 H   0  0  0  0  0  0
  -26.7110  -32.5542   23.1164 H   0  0  0  0  0  0
  -25.0085  -33.9786   25.0504 H   0  0  0  0  0  0
  -22.6890  -31.3109   21.4141 H   0  0  0  0  0  0
  -23.3754  -35.9649   23.3283 H   0  0  0  0  0  0
  -24.3601  -36.8940   22.2052 H   0  0  0  0  0  0
  -23.7232  -37.6515   23.6652 H   0  0  0  0  0  0
  -26.0376  -31.6015   20.5920 H   0  0  0  0  0  0
  -26.8180  -30.8917   21.9778 H   0  0  0  0  0  0
  -28.0947  -29.1072   21.1621 H   0  0  0  0  0  0
  -26.0467  -26.0031   18.9603 H   0  0  0  0  0  0
  -23.9772  -27.3070   19.0195 H   0  0  0  0  0  0
  -23.7128  -30.6003   19.4043 H   0  0  0  0  0  0
  -22.7306  -29.2452   19.8725 H   0  0  0  0  0  0
  -25.1280  -36.1983   25.0830 H   0  0  0  0  0  0
  -20.9959  -28.3221   24.1442 H   0  0  0  0  0  0
  -20.5677  -26.2266   23.3594 H   0  0  0  0  0  0
  -21.6637  -26.7455   22.1201 H   0  0  0  0  0  0
  -19.6909  -25.6307   21.1224 H   0  0  0  0  0  0
  -19.6690  -27.3213   20.6749 H   0  0  0  0  0  0
  -17.4196  -26.6678   21.4016 H   0  0  0  0  0  0
  -18.0321  -26.0067   22.9010 H   0  0  0  0  0  0
  -19.7923  -30.7255   24.2290 H   0  0  0  0  0  0
  -17.5005  -31.6268   24.5161 H   0  0  0  0  0  0
  -15.5341  -30.2988   23.7653 H   0  0  0  0  0  0
  -15.8660  -28.0839   22.7033 H   0  0  0  0  0  0
  -24.5858  -30.7142   25.7824 H   0  0  0  0  0  0
  -24.9019  -32.2900   26.4995 H   0  0  0  0  0  0
  -25.8094  -30.8822   27.0204 H   0  0  0  0  0  0
  -26.2788  -29.6803   24.1149 H   0  0  0  0  0  0
  -27.4039  -29.7249   25.4530 H   0  0  0  0  0  0
  -27.8633  -30.4325   23.9213 H   0  0  0  0  0  0
  -27.2739  -33.3603   26.2035 H   0  0  0  0  0  0
  -28.3888  -32.6786   25.0278 H   0  0  0  0  0  0
  -28.0721  -31.8385   26.5377 H   0  0  0  0  0  0
  -28.2606  -38.0109   24.7497 H   0  0  0  0  0  0
  -28.1075  -36.2637   24.6290 H   0  0  0  0  0  0
  -27.2309  -37.1467   25.8868 H   0  0  0  0  0  0
  -20.9285  -29.8768   21.6967 H   0  0  0  0  0  0
  -26.0187  -38.2879   24.1393 H   0  0  0  0  0  0
  -29.8798  -18.3396   23.9554 H   0  0  0  0  0  0
  -29.1339  -20.5573   22.9286 H   0  0  0  0  0  0
  -29.7524  -24.7053   17.1049 H   0  0  0  0  0  0
  -29.3659  -26.2517   17.8279 H   0  0  0  0  0  0
  -28.0759  -25.1099   17.4633 H   0  0  0  0  0  0
  -31.0994  -16.1318   23.3362 H   0  0  0  0  0  0
  -32.1030  -16.2985   21.9366 H   0  0  0  0  0  0
  -27.9291  -22.8687   18.8831 H   0  0  0  0  0  0
  -29.5468  -22.6460   18.2846 H   0  0  0  0  0  0
  -28.6789  -25.0791   21.2675 H   0  0  0  0  0  0
  -27.3308  -24.8877   20.2142 H   0  0  0  0  0  0
  -30.2817  -24.7157   19.5428 H   0  0  0  0  0  0
  -29.4316  -20.5909   19.1127 H   0  0  0  0  0  0
  -29.4850  -14.8764   22.1390 H   0  0  0  0  0  0
  1 25  1  0  0  0
  1 30  2  0  0  0
  1 82  1  0  0  0
  2  3  1  0  0  0
  2 25  1  0  0  0
  2 85  1  0  0  0
  2 86  1  0  0  0
  3  4  1  0  0  0
  3 87  1  0  0  0
  3 88  1  0  0  0
  4  5  1  0  0  0
  4 89  1  0  0  0
  4 90  1  0  0  0
  5  6  1  0  0  0
  5 26  1  0  0  0
  5 91  1  0  0  0
  6 25  1  0  0  0
  6 92  1  0  0  0
  6 93  1  0  0  0
  7  8  2  0  0  0
  7 26  1  0  0  0
  7 29  1  0  0  0
  8  9  1  0  0  0
  8 22  1  0  0  0
  9 10  1  0  0  0
  9 27  2  0  0  0
 10 11  2  0  0  0
 10 15  1  0  0  0
 11 12  1  0  0  0
 11 94  1  0  0  0
 12 13  2  0  0  0
 12 95  1  0  0  0
 13 14  1  0  0  0
 13 31  1  0  0  0
 14 15  2  0  0  0
 14 96  1  0  0  0
 15 97  1  0  0  0
 16 17  2  0  0  0
 16 21  1  0  0  0
 16 31  1  0  0  0
 17 18  1  0  0  0
 17 98  1  0  0  0
 18 19  2  0  0  0
 18 99  1  0  0  0
 19 20  1  0  0  0
 19 24  1  0  0  0
 20 21  2  0  0  0
 20100  1  0  0  0
 21 23  1  0  0  0
 22 28  1  0  0  0
 22 32  2  0  0  0
 26 27  1  0  0  0
 28101  1  0  0  0
 28102  1  0  0  0
 29103  1  0  0  0
 29104  1  0  0  0
 33 34  1  0  0  0
 33 66  1  0  0  0
 33 70  2  0  0  0
 34 36  1  0  0  0
 34 59  1  0  0  0
 34105  1  0  0  0
 35 44  2  0  0  0
 35 45  1  0  0  0
 35 68  1  0  0  0
 36 56  1  0  0  0
 36106  1  0  0  0
 37 39  1  0  0  0
 37 47  1  0  0  0
 37 66  1  0  0  0
 37107  1  0  0  0
 38 43  2  0  0  0
 38 46  1  0  0  0
 38 47  1  0  0  0
 39 64  1  0  0  0
 39 67  2  0  0  0
 40 52  1  0  0  0
 40 53  2  0  0  0
 40 58  1  0  0  0
 41108  1  0  0  0
 41109  1  0  0  0
 41110  1  0  0  0
 41 48  1  0  0  0
 42 43  1  0  0  0
 42 66  1  0  0  0
 42111  1  0  0  0
 42112  1  0  0  0
 43 44  1  0  0  0
 44113  1  0  0  0
 45 46  2  0  0  0
 45114  1  0  0  0
 46115  1  0  0  0
 47116  1  0  0  0
 47117  1  0  0  0
 48 56  1  0  0  0
 48 65  1  0  0  0
 48118  1  0  0  0
 49 50  1  0  0  0
 49 53  1  0  0  0
 49 64  1  0  0  0
 49119  1  0  0  0
 50 51  1  0  0  0
 50120  1  0  0  0
 50121  1  0  0  0
 51 52  1  0  0  0
 51122  1  0  0  0
 51123  1  0  0  0
 52124  1  0  0  0
 52125  1  0  0  0
 53 54  1  0  0  0
 54 55  2  0  0  0
 54126  1  0  0  0
 55 57  1  0  0  0
 55127  1  0  0  0
 56 69  2  0  0  0
 57 58  2  0  0  0
 57128  1  0  0  0
 58129  1  0  0  0
 59 60  1  0  0  0
 59 61  1  0  0  0
 59 62  1  0  0  0
 60130  1  0  0  0
 60131  1  0  0  0
 60132  1  0  0  0
 61133  1  0  0  0
 61134  1  0  0  0
 61135  1  0  0  0
 62136  1  0  0  0
 62137  1  0  0  0
 62138  1  0  0  0
 63 65  1  0  0  0
 63139  1  0  0  0
 63140  1  0  0  0
 63141  1  0  0  0
 64142  1  0  0  0
 65143  1  0  0  0
 68 79  1  0  0  0
 71 72  1  0  0  0
 71 73  2  0  0  0
 71144  1  0  0  0
 72 74  2  0  0  0
 72145  1  0  0  0
 73 77  1  0  0  0
 73 84  1  0  0  0
 74 81  1  0  0  0
 74 84  1  0  0  0
 75 78  1  0  0  0
 75 81  1  0  0  0
 75 83  2  0  0  0
 76146  1  0  0  0
 76147  1  0  0  0
 76148  1  0  0  0
 76 80  1  0  0  0
 77 82  1  0  0  0
 77149  1  0  0  0
 77150  1  0  0  0
 78 80  1  0  0  0
 78151  1  0  0  0
 78152  1  0  0  0
 79 80  1  0  0  0
 79153  1  0  0  0
 79154  1  0  0  0
 80155  1  0  0  0
 81156  1  0  0  0
 82157  1  0  0  0
M  ISO  4   1 100  68 101  79 101  82 100
M  END
> <chiral flag>
0

> <version>
0

> <s_m_source_file>
/data/baiqing/PycharmProjects/Reinvent-master-3.2/result/LINK_invent/BTK/process_docking_weight1_custom_product_contain_oxygen_bond_distance_aromatic_linkinvent_7_9_3/rearranged_h_0190.sdf

> <i_m_source_file_index>
68

> <r_mmod_Potential_Energy-OPLS-2005>
-180.032913208008

> <r_mmod_Stretch_Energy-OPLS-2005>
33.6805877685547

> <r_mmod_Bend_Energy-OPLS-2005>
106.585739135742

> <r_mmod_Torsional_Energy-OPLS-2005>
207.888229370117

> <r_mmod_Improper_Torsional_Energy-OPLS-2005>
2.11283731460571

> <r_mmod_Van_der_Waal_Energy-OPLS-2005>
137.630355834961

> <r_mmod_Electrostatic_Energy-OPLS-2005>
-449.175262451172

> <r_mmod_Solvation_Energy-OPLS-2005>
-227.33024597168

> <b_mmod_Minimization_Converged-OPLS-2005>
0

> <r_mmod_RMS_Derivative-OPLS-2005>
0.834925651550293

$$$$
68
                    3D
 Structure written by MMmdl.
169177  0  0  1  0            999 V2000
  -30.7254  -14.5654   20.4293 C   0  0  0  0  0  0
  -30.4132  -12.3407   19.4278 C   0  0  0  0  0  0
  -29.4803  -12.4509   18.2052 C   0  0  0  0  0  0
  -28.0092  -12.3130   18.6410 C   0  0  0  0  0  0
  -27.6477  -13.1972   19.8620 C   0  0  2  0  0  0
  -28.7130  -13.1273   20.9778 C   0  0  0  0  0  0
  -25.2580  -13.8156   20.5700 C   0  0  0  0  0  0
  -24.1828  -13.0435   20.9240 C   0  0  0  0  0  0
  -24.6357  -11.6906   20.8793 C   0  0  0  0  0  0
  -23.9009  -10.4283   21.0406 C   0  0  0  0  0  0
  -24.3574   -9.4204   21.9171 C   0  0  0  0  0  0
  -23.6272   -8.2227   22.0743 C   0  0  0  0  0  0
  -22.4267   -8.0242   21.3522 C   0  0  0  0  0  0
  -21.9884   -9.0213   20.4633 C   0  0  0  0  0  0
  -22.7194  -10.2108   20.3056 C   0  0  0  0  0  0
  -21.6861   -6.0707   22.5266 C   0  0  0  0  0  0
  -21.4027   -6.5629   23.8200 C   0  0  0  0  0  0
  -21.3671   -5.6789   24.9158 C   0  0  0  0  0  0
  -21.6047   -4.3045   24.7223 C   0  0  0  0  0  0
  -21.8823   -3.8131   23.4344 C   0  0  0  0  0  0
  -21.9208   -4.6935   22.3400 C   0  0  0  0  0  0
  -22.7849  -13.5240   21.1861 C   0  0  0  0  0  0
  -22.1664   -4.2123   21.0970 F   0  0  0  0  0  0
  -21.5631   -3.4544   25.7740 F   0  0  0  0  0  0
  -30.0155  -13.4039   20.3615 N   0  0  0  0  0  0
  -26.2986  -12.9274   20.3437 N   0  0  0  0  0  0
  -25.9299  -11.6459   20.5899 N   0  0  0  0  0  0
  -22.0527  -12.8172   22.0409 N   0  0  0  0  0  0
  -25.4291  -15.1838   20.3912 N   0  0  0  0  0  0
  -31.9487  -14.5710   20.2820 O   0  0  0  0  0  0
  -21.6649   -6.8827   21.4217 O   0  0  0  0  0  0
  -22.3520  -14.5533   20.6742 O   0  0  0  0  0  0
  -24.6198  -31.8652   23.2139 C   0  0  0  0  0  0
  -25.9078  -32.4815   23.8426 C   0  0  1  0  0  0
  -27.2101  -27.3701   20.0912 C   0  0  0  0  0  0
  -25.5924  -33.8618   24.2347 N   0  0  0  0  0  0
  -23.4093  -30.4942   21.5581 C   0  0  2  0  0  0
  -24.8473  -28.9654   20.1171 C   0  0  0  0  0  0
  -22.7468  -29.4627   22.5038 C   0  0  0  0  0  0
  -18.0276  -28.1343   22.8503 C   0  0  0  0  0  0
  -24.1502  -36.7321   23.2641 C   0  0  0  0  0  0
  -25.9478  -30.8089   21.3820 C   0  0  0  0  0  0
  -26.0164  -29.4412   20.7253 C   0  0  0  0  0  0
  -27.1958  -28.6472   20.7175 C   0  0  0  0  0  0
  -26.0149  -26.9504   19.4517 C   0  0  0  0  0  0
  -24.8438  -27.7198   19.4802 C   0  0  0  0  0  0
  -23.6172  -29.8393   20.1716 C   0  0  0  0  0  0
  -25.4121  -36.3119   24.0354 C   0  0  1  0  0  0
  -20.5880  -28.3639   23.1339 C   0  0  2  0  0  0
  -20.6775  -26.9380   22.5422 C   0  0  0  0  0  0
  -19.5743  -26.6362   21.5222 C   0  0  0  0  0  0
  -18.1924  -26.7889   22.1640 C   0  0  0  0  0  0
  -19.1531  -28.8815   23.2900 C   0  0  0  0  0  0
  -18.9445  -30.1426   23.8894 C   0  0  0  0  0  0
  -17.6441  -30.6554   24.0552 C   0  0  0  0  0  0
  -25.9041  -34.9471   23.5137 C   0  0  0  0  0  0
  -16.5335  -29.9040   23.6315 C   0  0  0  0  0  0
  -16.7267  -28.6458   23.0348 C   0  0  0  0  0  0
  -26.4457  -31.6593   25.0765 C   0  0  0  0  0  0
  -25.3672  -31.3719   26.1480 C   0  0  0  0  0  0
  -27.0299  -30.3030   24.6182 C   0  0  0  0  0  0
  -27.6044  -32.4289   25.7504 C   0  0  0  0  0  0
  -27.5593  -37.1835   24.8466 C   0  0  0  0  0  0
  -21.4200  -29.2996   22.3758 N   0  0  0  0  0  0
  -26.4319  -37.3794   23.9387 N   0  0  0  0  0  0
  -24.6778  -31.0719   22.1062 N   0  0  0  0  0  0
  -23.4212  -28.8143   23.3077 O   0  0  0  0  0  0
  -28.3503  -26.5623   20.1403 O   0  0  0  0  0  0
  -26.5622  -34.8919   22.4698 O   0  0  0  0  0  0
  -23.5371  -32.1424   23.7506 O   0  0  0  0  0  0
  -27.9445  -18.2511   20.8190 C   0  0  0  0  0  0
  -29.2983  -18.0949   20.9733 C   0  0  0  0  0  0
  -29.1506  -20.4031   20.7904 C   0  0  0  0  0  0
  -28.9893  -16.6893   18.0440 C   0  0  0  0  0  0
  -29.0648  -19.0602   17.0960 C   0  0  0  0  0  0
  -31.4998  -17.1984   18.6401 C   0  0  0  0  0  0
  -28.6879  -23.5242   22.2604 C   0  0  0  0  0  0
  -30.0384  -16.7719   21.2149 C   0  0  0  0  0  0
  -29.0954  -17.5545   16.7861 C   0  0  0  0  0  0
  -28.3180  -25.2766   19.4482 C   0  0  0  0  0  0
  -30.2849  -16.2341   18.7533 C   0  0  1  0  0  0
  -28.8069  -23.0277   20.8130 C   0  0  1  0  0  0
  -29.3266  -24.1330   19.8266 C   0  0  1  0  0  0
  -29.9647  -19.3466   20.9672 N   0  0  0  0  0  0
  -29.5508  -21.7503   20.7526 N   0  0  0  0  0  0
  -30.0563  -15.7248   20.1433 N   0  0  0  0  0  0
  -27.8688  -16.3395   18.4157 O   0  0  0  0  0  0
  -30.5698  -24.6749   20.2361 O   0  0  0  0  0  0
  -27.4662  -19.9220   20.6350 S   0  0  0  0  0  0
  -31.4587  -12.4133   19.1191 H   0  0  0  0  0  0
  -30.3037  -11.3624   19.9007 H   0  0  0  0  0  0
  -29.7225  -11.6855   17.4668 H   0  0  0  0  0  0
  -29.6164  -13.4040   17.6997 H   0  0  0  0  0  0
  -27.8285  -11.2627   18.8768 H   0  0  0  0  0  0
  -27.3500  -12.5492   17.8056 H   0  0  0  0  0  0
  -27.6463  -14.2158   19.5020 H   0  0  0  0  0  0
  -28.7266  -12.1492   21.4631 H   0  0  0  0  0  0
  -28.4988  -13.8648   21.7545 H   0  0  0  0  0  0
  -25.2714   -9.5719   22.4734 H   0  0  0  0  0  0
  -24.0017   -7.4636   22.7473 H   0  0  0  0  0  0
  -21.0830   -8.8697   19.8933 H   0  0  0  0  0  0
  -22.3610  -10.9635   19.6173 H   0  0  0  0  0  0
  -21.2005   -7.6140   23.9673 H   0  0  0  0  0  0
  -21.1503   -6.0528   25.9056 H   0  0  0  0  0  0
  -22.0596   -2.7598   23.2859 H   0  0  0  0  0  0
  -22.4232  -11.9842   22.4749 H   0  0  0  0  0  0
  -21.1138  -13.1143   22.2673 H   0  0  0  0  0  0
  -24.6311  -15.8121   20.3991 H   0  0  0  0  0  0
  -26.2207  -15.5584   19.8781 H   0  0  0  0  0  0
  -26.7160  -32.5503   23.1186 H   0  0  0  0  0  0
  -25.0061  -33.9766   25.0494 H   0  0  0  0  0  0
  -22.6964  -31.3109   21.4264 H   0  0  0  0  0  0
  -23.3762  -35.9656   23.3302 H   0  0  0  0  0  0
  -24.3593  -36.8922   22.2050 H   0  0  0  0  0  0
  -23.7262  -37.6537   23.6626 H   0  0  0  0  0  0
  -26.0756  -31.5730   20.6167 H   0  0  0  0  0  0
  -26.8309  -30.8519   22.0075 H   0  0  0  0  0  0
  -28.0922  -28.9999   21.2066 H   0  0  0  0  0  0
  -25.9197  -26.0234   18.9110 H   0  0  0  0  0  0
  -23.9503  -27.3502   18.9993 H   0  0  0  0  0  0
  -23.7332  -30.6134   19.4130 H   0  0  0  0  0  0
  -22.7373  -29.2653   19.8736 H   0  0  0  0  0  0
  -25.1295  -36.2005   25.0862 H   0  0  0  0  0  0
  -20.9945  -28.3167   24.1469 H   0  0  0  0  0  0
  -20.5691  -26.2233   23.3603 H   0  0  0  0  0  0
  -21.6644  -26.7418   22.1195 H   0  0  0  0  0  0
  -19.6900  -25.6270   21.1232 H   0  0  0  0  0  0
  -19.6666  -27.3206   20.6774 H   0  0  0  0  0  0
  -17.4200  -26.6658   21.4025 H   0  0  0  0  0  0
  -18.0305  -26.0006   22.9014 H   0  0  0  0  0  0
  -19.7916  -30.7260   24.2248 H   0  0  0  0  0  0
  -17.4976  -31.6229   24.5149 H   0  0  0  0  0  0
  -15.5328  -30.2921   23.7627 H   0  0  0  0  0  0
  -15.8680  -28.0762   22.7046 H   0  0  0  0  0  0
  -24.5847  -30.7072   25.7784 H   0  0  0  0  0  0
  -24.8839  -32.2869   26.4896 H   0  0  0  0  0  0
  -25.7960  -30.8874   27.0258 H   0  0  0  0  0  0
  -26.2892  -29.6805   24.1150 H   0  0  0  0  0  0
  -27.3960  -29.7246   25.4672 H   0  0  0  0  0  0
  -27.8751  -30.4339   23.9435 H   0  0  0  0  0  0
  -27.2703  -33.3584   26.2117 H   0  0  0  0  0  0
  -28.3816  -32.6860   25.0292 H   0  0  0  0  0  0
  -28.0747  -31.8383   26.5372 H   0  0  0  0  0  0
  -28.2636  -38.0112   24.7495 H   0  0  0  0  0  0
  -28.1074  -36.2644   24.6316 H   0  0  0  0  0  0
  -27.2305  -37.1527   25.8875 H   0  0  0  0  0  0
  -20.9378  -29.8737   21.7002 H   0  0  0  0  0  0
  -26.0218  -38.2887   24.1331 H   0  0  0  0  0  0
  -27.1935  -17.4754   20.7896 H   0  0  0  0  0  0
  -29.1715  -19.6489   16.1849 H   0  0  0  0  0  0
  -29.8749  -19.3444   17.7623 H   0  0  0  0  0  0
  -28.1281  -19.3570   17.5723 H   0  0  0  0  0  0
  -31.7585  -17.4092   17.6018 H   0  0  0  0  0  0
  -31.3190  -18.1524   19.1198 H   0  0  0  0  0  0
  -32.3947  -16.7870   19.1072 H   0  0  0  0  0  0
  -29.6652  -23.6745   22.7238 H   0  0  0  0  0  0
  -28.1296  -22.8108   22.8681 H   0  0  0  0  0  0
  -28.1587  -24.4777   22.3085 H   0  0  0  0  0  0
  -31.0714  -16.9899   21.4834 H   0  0  0  0  0  0
  -29.6065  -16.3172   22.1089 H   0  0  0  0  0  0
  -28.2581  -17.3009   16.1402 H   0  0  0  0  0  0
  -29.9941  -17.2862   16.2317 H   0  0  0  0  0  0
  -27.3501  -24.7926   19.5579 H   0  0  0  0  0  0
  -28.4289  -25.5053   18.3875 H   0  0  0  0  0  0
  -30.6084  -15.3895   18.1412 H   0  0  0  0  0  0
  -27.7945  -22.7856   20.4817 H   0  0  0  0  0  0
  -29.5137  -23.6082   18.8879 H   0  0  0  0  0  0
  -30.5507  -21.8586   20.8653 H   0  0  0  0  0  0
  -31.2109  -23.9743   20.1943 H   0  0  0  0  0  0
  1 25  1  0  0  0
  1 30  2  0  0  0
  1 86  1  0  0  0
  2  3  1  0  0  0
  2 25  1  0  0  0
  2 90  1  0  0  0
  2 91  1  0  0  0
  3  4  1  0  0  0
  3 92  1  0  0  0
  3 93  1  0  0  0
  4  5  1  0  0  0
  4 94  1  0  0  0
  4 95  1  0  0  0
  5  6  1  0  0  0
  5 26  1  0  0  0
  5 96  1  0  0  0
  6 25  1  0  0  0
  6 97  1  0  0  0
  6 98  1  0  0  0
  7  8  2  0  0  0
  7 26  1  0  0  0
  7 29  1  0  0  0
  8  9  1  0  0  0
  8 22  1  0  0  0
  9 10  1  0  0  0
  9 27  2  0  0  0
 10 11  2  0  0  0
 10 15  1  0  0  0
 11 12  1  0  0  0
 11 99  1  0  0  0
 12 13  2  0  0  0
 12100  1  0  0  0
 13 14  1  0  0  0
 13 31  1  0  0  0
 14 15  2  0  0  0
 14101  1  0  0  0
 15102  1  0  0  0
 16 17  2  0  0  0
 16 21  1  0  0  0
 16 31  1  0  0  0
 17 18  1  0  0  0
 17103  1  0  0  0
 18 19  2  0  0  0
 18104  1  0  0  0
 19 20  1  0  0  0
 19 24  1  0  0  0
 20 21  2  0  0  0
 20105  1  0  0  0
 21 23  1  0  0  0
 22 28  1  0  0  0
 22 32  2  0  0  0
 26 27  1  0  0  0
 28106  1  0  0  0
 28107  1  0  0  0
 29108  1  0  0  0
 29109  1  0  0  0
 33 34  1  0  0  0
 33 66  1  0  0  0
 33 70  2  0  0  0
 34 36  1  0  0  0
 34 59  1  0  0  0
 34110  1  0  0  0
 35 44  2  0  0  0
 35 45  1  0  0  0
 35 68  1  0  0  0
 36 56  1  0  0  0
 36111  1  0  0  0
 37 39  1  0  0  0
 37 47  1  0  0  0
 37 66  1  0  0  0
 37112  1  0  0  0
 38 43  2  0  0  0
 38 46  1  0  0  0
 38 47  1  0  0  0
 39 64  1  0  0  0
 39 67  2  0  0  0
 40 52  1  0  0  0
 40 53  2  0  0  0
 40 58  1  0  0  0
 41113  1  0  0  0
 41114  1  0  0  0
 41115  1  0  0  0
 41 48  1  0  0  0
 42 43  1  0  0  0
 42 66  1  0  0  0
 42116  1  0  0  0
 42117  1  0  0  0
 43 44  1  0  0  0
 44118  1  0  0  0
 45 46  2  0  0  0
 45119  1  0  0  0
 46120  1  0  0  0
 47121  1  0  0  0
 47122  1  0  0  0
 48 56  1  0  0  0
 48 65  1  0  0  0
 48123  1  0  0  0
 49 50  1  0  0  0
 49 53  1  0  0  0
 49 64  1  0  0  0
 49124  1  0  0  0
 50 51  1  0  0  0
 50125  1  0  0  0
 50126  1  0  0  0
 51 52  1  0  0  0
 51127  1  0  0  0
 51128  1  0  0  0
 52129  1  0  0  0
 52130  1  0  0  0
 53 54  1  0  0  0
 54 55  2  0  0  0
 54131  1  0  0  0
 55 57  1  0  0  0
 55132  1  0  0  0
 56 69  2  0  0  0
 57 58  2  0  0  0
 57133  1  0  0  0
 58134  1  0  0  0
 59 60  1  0  0  0
 59 61  1  0  0  0
 59 62  1  0  0  0
 60135  1  0  0  0
 60136  1  0  0  0
 60137  1  0  0  0
 61138  1  0  0  0
 61139  1  0  0  0
 61140  1  0  0  0
 62141  1  0  0  0
 62142  1  0  0  0
 62143  1  0  0  0
 63 65  1  0  0  0
 63144  1  0  0  0
 63145  1  0  0  0
 63146  1  0  0  0
 64147  1  0  0  0
 65148  1  0  0  0
 68 80  1  0  0  0
 71 72  2  0  0  0
 71 89  1  0  0  0
 71149  1  0  0  0
 72 78  1  0  0  0
 72 84  1  0  0  0
 73 84  2  0  0  0
 73 85  1  0  0  0
 73 89  1  0  0  0
 74 79  1  0  0  0
 74 81  1  0  0  0
 74 87  2  0  0  0
 75 79  1  0  0  0
 75150  1  0  0  0
 75151  1  0  0  0
 75152  1  0  0  0
 76153  1  0  0  0
 76154  1  0  0  0
 76155  1  0  0  0
 76 81  1  0  0  0
 77156  1  0  0  0
 77157  1  0  0  0
 77158  1  0  0  0
 77 82  1  0  0  0
 78 86  1  0  0  0
 78159  1  0  0  0
 78160  1  0  0  0
 79161  1  0  0  0
 79162  1  0  0  0
 80 83  1  0  0  0
 80163  1  0  0  0
 80164  1  0  0  0
 81 86  1  0  0  0
 81165  1  0  0  0
 82 83  1  0  0  0
 82 85  1  0  0  0
 82166  1  0  0  0
 83 88  1  0  0  0
 83167  1  0  0  0
 85168  1  0  0  0
 88169  1  0  0  0
M  ISO  4   1 100  68 101  80 101  86 100
M  END
> <chiral flag>
0

> <version>
0

> <s_m_source_file>
/data/baiqing/PycharmProjects/Reinvent-master-3.2/result/LINK_invent/BTK/process_docking_weight1_custom_product_contain_oxygen_bond_distance_aromatic_linkinvent_7_9_3/rearranged_h_0190.sdf

> <i_m_source_file_index>
69

> <r_mmod_Potential_Energy-OPLS-2005>
-5.0316219329834

> <r_mmod_Stretch_Energy-OPLS-2005>
56.4857864379883

> <r_mmod_Bend_Energy-OPLS-2005>
143.541488647461

> <r_mmod_Torsional_Energy-OPLS-2005>
362.56689453125

> <r_mmod_Improper_Torsional_Energy-OPLS-2005>
22.036247253418

> <r_mmod_Van_der_Waal_Energy-OPLS-2005>
121.619918823242

> <r_mmod_Electrostatic_Energy-OPLS-2005>
-534.847534179688

> <r_mmod_Solvation_Energy-OPLS-2005>
-222.662857055664

> <b_mmod_Minimization_Converged-OPLS-2005>
0

> <r_mmod_RMS_Derivative-OPLS-2005>
4.54037952423096

$$$$
69
                    3D
 Structure written by MMmdl.
174182  0  0  1  0            999 V2000
  -30.7004  -14.5016   20.5580 C   0  0  0  0  0  0
  -30.4192  -12.3197   19.4300 C   0  0  0  0  0  0
  -29.4947  -12.5070   18.2092 C   0  0  0  0  0  0
  -28.0168  -12.3613   18.6212 C   0  0  0  0  0  0
  -27.6574  -13.2112   19.8702 C   0  0  2  0  0  0
  -28.7004  -13.0155   20.9950 C   0  0  0  0  0  0
  -25.2566  -13.8168   20.5675 C   0  0  0  0  0  0
  -24.1826  -13.0439   20.9176 C   0  0  0  0  0  0
  -24.6381  -11.6910   20.8735 C   0  0  0  0  0  0
  -23.9053  -10.4289   21.0401 C   0  0  0  0  0  0
  -24.3606   -9.4206   21.9175 C   0  0  0  0  0  0
  -23.6282   -8.2241   22.0752 C   0  0  0  0  0  0
  -22.4264   -8.0278   21.3543 C   0  0  0  0  0  0
  -21.9896   -9.0249   20.4648 C   0  0  0  0  0  0
  -22.7224  -10.2131   20.3052 C   0  0  0  0  0  0
  -21.6851   -6.0729   22.5276 C   0  0  0  0  0  0
  -21.4016   -6.5633   23.8209 C   0  0  0  0  0  0
  -21.3660   -5.6788   24.9171 C   0  0  0  0  0  0
  -21.6045   -4.3049   24.7226 C   0  0  0  0  0  0
  -21.8818   -3.8140   23.4344 C   0  0  0  0  0  0
  -21.9191   -4.6957   22.3402 C   0  0  0  0  0  0
  -22.7850  -13.5239   21.1848 C   0  0  0  0  0  0
  -22.1659   -4.2140   21.0982 F   0  0  0  0  0  0
  -21.5628   -3.4537   25.7737 F   0  0  0  0  0  0
  -30.0289  -13.3203   20.4371 N   0  0  0  0  0  0
  -26.2998  -12.9345   20.3337 N   0  0  0  0  0  0
  -25.9308  -11.6501   20.5753 N   0  0  0  0  0  0
  -22.0490  -12.8237   22.0406 N   0  0  0  0  0  0
  -25.4284  -15.1892   20.4090 N   0  0  0  0  0  0
  -31.8419  -14.6425   20.1078 O   0  0  0  0  0  0
  -21.6639   -6.8870   21.4237 O   0  0  0  0  0  0
  -22.3538  -14.5541   20.6690 O   0  0  0  0  0  0
  -24.6180  -31.8667   23.2090 C   0  0  0  0  0  0
  -25.9070  -32.4810   23.8389 C   0  0  1  0  0  0
  -27.2269  -27.4137   20.1066 C   0  0  0  0  0  0
  -25.5913  -33.8613   24.2318 N   0  0  0  0  0  0
  -23.4072  -30.4907   21.5496 C   0  0  2  0  0  0
  -24.8542  -28.9590   20.1080 C   0  0  0  0  0  0
  -22.7431  -29.4660   22.4986 C   0  0  0  0  0  0
  -18.0274  -28.1392   22.8499 C   0  0  0  0  0  0
  -24.1483  -36.7321   23.2638 C   0  0  0  0  0  0
  -25.9382  -30.8289   21.3638 C   0  0  0  0  0  0
  -26.0165  -29.4645   20.7056 C   0  0  0  0  0  0
  -27.2110  -28.7020   20.6950 C   0  0  0  0  0  0
  -26.0530  -26.9371   19.4838 C   0  0  0  0  0  0
  -24.8688  -27.6979   19.4883 C   0  0  0  0  0  0
  -23.6154  -29.8253   20.1634 C   0  0  0  0  0  0
  -25.4103  -36.3113   24.0335 C   0  0  1  0  0  0
  -20.5863  -28.3691   23.1308 C   0  0  2  0  0  0
  -20.6768  -26.9422   22.5422 C   0  0  0  0  0  0
  -19.5743  -26.6397   21.5221 C   0  0  0  0  0  0
  -18.1920  -26.7939   22.1630 C   0  0  0  0  0  0
  -19.1521  -28.8855   23.2906 C   0  0  0  0  0  0
  -18.9454  -30.1460   23.8920 C   0  0  0  0  0  0
  -17.6454  -30.6602   24.0562 C   0  0  0  0  0  0
  -25.9036  -34.9477   23.5127 C   0  0  0  0  0  0
  -16.5346  -29.9100   23.6325 C   0  0  0  0  0  0
  -16.7260  -28.6512   23.0356 C   0  0  0  0  0  0
  -26.4486  -31.6591   25.0726 C   0  0  0  0  0  0
  -25.3748  -31.3698   26.1472 C   0  0  0  0  0  0
  -27.0304  -30.3022   24.6120 C   0  0  0  0  0  0
  -27.6064  -32.4306   25.7480 C   0  0  0  0  0  0
  -27.5575  -37.1811   24.8462 C   0  0  0  0  0  0
  -21.4155  -29.3049   22.3714 N   0  0  0  0  0  0
  -26.4293  -37.3793   23.9408 N   0  0  0  0  0  0
  -24.6730  -31.0759   22.0990 N   0  0  0  0  0  0
  -23.4187  -28.8205   23.3043 O   0  0  0  0  0  0
  -28.3471  -26.6028   20.1904 O   0  0  0  0  0  0
  -26.5603  -34.8928   22.4690 O   0  0  0  0  0  0
  -23.5372  -32.1427   23.7479 O   0  0  0  0  0  0
  -31.6976  -18.7643   21.3691 C   0  0  0  0  0  0
  -30.4787  -19.3896   21.6275 C   0  0  0  0  0  0
  -30.3233  -16.9215   21.1686 C   0  0  0  0  0  0
  -31.2365  -23.4684   25.4718 C   0  0  0  0  0  0
  -27.6230  -25.5899   22.2953 C   0  0  0  0  0  0
  -33.3900  -20.6743   21.8413 C   0  0  0  0  0  0
  -31.0596  -25.3193   22.8995 C   0  0  0  0  0  0
  -30.1298  -20.7828   22.1619 C   0  0  0  0  0  0
  -30.1878  -23.4275   24.3433 C   0  0  0  0  0  0
  -29.3629  -24.3493   20.6789 C   0  0  0  0  0  0
  -29.6939  -23.2879   21.8049 C   0  0  2  0  0  0
  -28.1356  -25.3235   20.8564 C   0  0  2  0  0  0
  -33.1390  -19.2381   21.3949 C   0  0  0  0  0  0
  -30.6910  -23.8170   22.9249 C   0  0  1  0  0  0
  -31.5663  -17.3928   21.0827 N   0  0  0  0  0  0
  -29.9741  -15.5363   21.0413 N   0  0  0  0  0  0
  -30.1916  -21.9722   21.2470 N   0  3  0  0  0  0
  -31.9503  -23.2124   22.7002 O   0  0  0  0  0  0
  -33.6866  -19.1202   20.1851 F   0  0  0  0  0  0
  -33.8580  -18.4803   22.2248 F   0  0  0  0  0  0
  -29.1705  -18.2060   21.5229 S   0  0  0  0  0  0
  -31.4649  -12.4079   19.1304 H   0  0  0  0  0  0
  -30.3140  -11.3142   19.8398 H   0  0  0  0  0  0
  -29.7399  -11.7792   17.4343 H   0  0  0  0  0  0
  -29.6587  -13.4913   17.7677 H   0  0  0  0  0  0
  -27.8354  -11.3063   18.8259 H   0  0  0  0  0  0
  -27.3649  -12.6245   17.7870 H   0  0  0  0  0  0
  -27.6924  -14.2552   19.5587 H   0  0  0  0  0  0
  -28.6807  -11.9853   21.3541 H   0  0  0  0  0  0
  -28.4593  -13.6307   21.8639 H   0  0  0  0  0  0
  -25.2753   -9.5681   22.4747 H   0  0  0  0  0  0
  -23.9988   -7.4636   22.7473 H   0  0  0  0  0  0
  -21.0823   -8.8769   19.8958 H   0  0  0  0  0  0
  -22.3676  -10.9667   19.6163 H   0  0  0  0  0  0
  -21.2013   -7.6145   23.9709 H   0  0  0  0  0  0
  -21.1484   -6.0524   25.9075 H   0  0  0  0  0  0
  -22.0598   -2.7601   23.2855 H   0  0  0  0  0  0
  -22.4099  -11.9895   22.4803 H   0  0  0  0  0  0
  -21.1112  -13.1274   22.2617 H   0  0  0  0  0  0
  -24.6595  -15.8431   20.5106 H   0  0  0  0  0  0
  -26.2743  -15.6257   20.0651 H   0  0  0  0  0  0
  -26.7149  -32.5517   23.1157 H   0  0  0  0  0  0
  -25.0048  -33.9764   25.0451 H   0  0  0  0  0  0
  -22.6977  -31.3092   21.4111 H   0  0  0  0  0  0
  -23.3739  -35.9660   23.3312 H   0  0  0  0  0  0
  -24.3571  -36.8929   22.2050 H   0  0  0  0  0  0
  -23.7245  -37.6533   23.6646 H   0  0  0  0  0  0
  -26.0533  -31.5982   20.5984 H   0  0  0  0  0  0
  -26.8254  -30.8801   21.9836 H   0  0  0  0  0  0
  -28.1051  -29.0783   21.1726 H   0  0  0  0  0  0
  -26.0413  -25.9672   19.0071 H   0  0  0  0  0  0
  -23.9778  -27.3058   19.0174 H   0  0  0  0  0  0
  -23.7222  -30.6024   19.4060 H   0  0  0  0  0  0
  -22.7387  -29.2467   19.8667 H   0  0  0  0  0  0
  -25.1276  -36.1979   25.0826 H   0  0  0  0  0  0
  -20.9956  -28.3275   24.1425 H   0  0  0  0  0  0
  -20.5685  -26.2304   23.3625 H   0  0  0  0  0  0
  -21.6636  -26.7475   22.1198 H   0  0  0  0  0  0
  -19.6915  -25.6309   21.1246 H   0  0  0  0  0  0
  -19.6671  -27.3213   20.6755 H   0  0  0  0  0  0
  -17.4183  -26.6690   21.4035 H   0  0  0  0  0  0
  -18.0325  -26.0082   22.9029 H   0  0  0  0  0  0
  -19.7932  -30.7263   24.2308 H   0  0  0  0  0  0
  -17.5011  -31.6282   24.5165 H   0  0  0  0  0  0
  -15.5346  -30.3005   23.7651 H   0  0  0  0  0  0
  -15.8663  -28.0835   22.7067 H   0  0  0  0  0  0
  -24.5887  -30.7099   25.7785 H   0  0  0  0  0  0
  -24.8989  -32.2856   26.4984 H   0  0  0  0  0  0
  -25.8091  -30.8791   27.0194 H   0  0  0  0  0  0
  -26.2849  -29.6789   24.1170 H   0  0  0  0  0  0
  -27.4045  -29.7255   25.4593 H   0  0  0  0  0  0
  -27.8697  -30.4311   23.9285 H   0  0  0  0  0  0
  -27.2681  -33.3576   26.2121 H   0  0  0  0  0  0
  -28.3831  -32.6921   25.0281 H   0  0  0  0  0  0
  -28.0789  -31.8405   26.5344 H   0  0  0  0  0  0
  -28.2598  -38.0101   24.7496 H   0  0  0  0  0  0
  -28.1065  -36.2632   24.6295 H   0  0  0  0  0  0
  -27.2298  -37.1471   25.8868 H   0  0  0  0  0  0
  -20.9349  -29.8744   21.6890 H   0  0  0  0  0  0
  -26.0189  -38.2877   24.1402 H   0  0  0  0  0  0
  -30.7821  -23.1723   26.4179 H   0  0  0  0  0  0
  -31.6535  -24.4650   25.6166 H   0  0  0  0  0  0
  -32.0592  -22.7767   25.2891 H   0  0  0  0  0  0
  -27.5704  -24.7010   22.9192 H   0  0  0  0  0  0
  -26.6030  -25.9757   22.2652 H   0  0  0  0  0  0
  -28.2010  -26.3495   22.8143 H   0  0  0  0  0  0
  -32.9220  -21.3821   21.1615 H   0  0  0  0  0  0
  -34.4580  -20.8930   21.8396 H   0  0  0  0  0  0
  -33.0342  -20.8433   22.8567 H   0  0  0  0  0  0
  -30.2157  -25.9644   23.1097 H   0  0  0  0  0  0
  -31.5020  -25.6380   21.9571 H   0  0  0  0  0  0
  -31.8038  -25.5624   23.6569 H   0  0  0  0  0  0
  -30.7568  -20.9583   23.0325 H   0  0  0  0  0  0
  -29.1148  -20.7433   22.5591 H   0  0  0  0  0  0
  -29.3573  -24.0796   24.6159 H   0  0  0  0  0  0
  -29.7563  -22.4288   24.3428 H   0  0  0  0  0  0
  -29.1536  -23.8020   19.7588 H   0  0  0  0  0  0
  -30.2497  -24.9164   20.4095 H   0  0  0  0  0  0
  -28.7380  -23.0334   22.2611 H   0  0  0  0  0  0
  -27.3168  -24.7993   20.3631 H   0  0  0  0  0  0
  -29.0279  -15.3040   21.2989 H   0  0  0  0  0  0
  -29.7081  -21.7555   20.3925 H   0  0  0  0  0  0
  -31.1644  -22.1560   21.0560 H   0  0  0  0  0  0
  -32.5593  -23.5750   23.3347 H   0  0  0  0  0  0
  1 25  1  0  0  0
  1 30  2  0  0  0
  1 86  1  0  0  0
  2  3  1  0  0  0
  2 25  1  0  0  0
  2 92  1  0  0  0
  2 93  1  0  0  0
  3  4  1  0  0  0
  3 94  1  0  0  0
  3 95  1  0  0  0
  4  5  1  0  0  0
  4 96  1  0  0  0
  4 97  1  0  0  0
  5  6  1  0  0  0
  5 26  1  0  0  0
  5 98  1  0  0  0
  6 25  1  0  0  0
  6 99  1  0  0  0
  6100  1  0  0  0
  7  8  2  0  0  0
  7 26  1  0  0  0
  7 29  1  0  0  0
  8  9  1  0  0  0
  8 22  1  0  0  0
  9 10  1  0  0  0
  9 27  2  0  0  0
 10 11  2  0  0  0
 10 15  1  0  0  0
 11 12  1  0  0  0
 11101  1  0  0  0
 12 13  2  0  0  0
 12102  1  0  0  0
 13 14  1  0  0  0
 13 31  1  0  0  0
 14 15  2  0  0  0
 14103  1  0  0  0
 15104  1  0  0  0
 16 17  2  0  0  0
 16 21  1  0  0  0
 16 31  1  0  0  0
 17 18  1  0  0  0
 17105  1  0  0  0
 18 19  2  0  0  0
 18106  1  0  0  0
 19 20  1  0  0  0
 19 24  1  0  0  0
 20 21  2  0  0  0
 20107  1  0  0  0
 21 23  1  0  0  0
 22 28  1  0  0  0
 22 32  2  0  0  0
 26 27  1  0  0  0
 28108  1  0  0  0
 28109  1  0  0  0
 29110  1  0  0  0
 29111  1  0  0  0
 33 34  1  0  0  0
 33 66  1  0  0  0
 33 70  2  0  0  0
 34 36  1  0  0  0
 34 59  1  0  0  0
 34112  1  0  0  0
 35 44  2  0  0  0
 35 45  1  0  0  0
 35 68  1  0  0  0
 36 56  1  0  0  0
 36113  1  0  0  0
 37 39  1  0  0  0
 37 47  1  0  0  0
 37 66  1  0  0  0
 37114  1  0  0  0
 38 43  2  0  0  0
 38 46  1  0  0  0
 38 47  1  0  0  0
 39 64  1  0  0  0
 39 67  2  0  0  0
 40 52  1  0  0  0
 40 53  2  0  0  0
 40 58  1  0  0  0
 41115  1  0  0  0
 41116  1  0  0  0
 41117  1  0  0  0
 41 48  1  0  0  0
 42 43  1  0  0  0
 42 66  1  0  0  0
 42118  1  0  0  0
 42119  1  0  0  0
 43 44  1  0  0  0
 44120  1  0  0  0
 45 46  2  0  0  0
 45121  1  0  0  0
 46122  1  0  0  0
 47123  1  0  0  0
 47124  1  0  0  0
 48 56  1  0  0  0
 48 65  1  0  0  0
 48125  1  0  0  0
 49 50  1  0  0  0
 49 53  1  0  0  0
 49 64  1  0  0  0
 49126  1  0  0  0
 50 51  1  0  0  0
 50127  1  0  0  0
 50128  1  0  0  0
 51 52  1  0  0  0
 51129  1  0  0  0
 51130  1  0  0  0
 52131  1  0  0  0
 52132  1  0  0  0
 53 54  1  0  0  0
 54 55  2  0  0  0
 54133  1  0  0  0
 55 57  1  0  0  0
 55134  1  0  0  0
 56 69  2  0  0  0
 57 58  2  0  0  0
 57135  1  0  0  0
 58136  1  0  0  0
 59 60  1  0  0  0
 59 61  1  0  0  0
 59 62  1  0  0  0
 60137  1  0  0  0
 60138  1  0  0  0
 60139  1  0  0  0
 61140  1  0  0  0
 61141  1  0  0  0
 61142  1  0  0  0
 62143  1  0  0  0
 62144  1  0  0  0
 62145  1  0  0  0
 63 65  1  0  0  0
 63146  1  0  0  0
 63147  1  0  0  0
 63148  1  0  0  0
 64149  1  0  0  0
 65150  1  0  0  0
 68 82  1  0  0  0
 71 72  2  0  0  0
 71 83  1  0  0  0
 71 85  1  0  0  0
 72 78  1  0  0  0
 72 91  1  0  0  0
 73 85  2  0  0  0
 73 86  1  0  0  0
 73 91  1  0  0  0
 74 79  1  0  0  0
 74151  1  0  0  0
 74152  1  0  0  0
 74153  1  0  0  0
 75154  1  0  0  0
 75155  1  0  0  0
 75156  1  0  0  0
 75 82  1  0  0  0
 76157  1  0  0  0
 76158  1  0  0  0
 76159  1  0  0  0
 76 83  1  0  0  0
 77160  1  0  0  0
 77161  1  0  0  0
 77162  1  0  0  0
 77 84  1  0  0  0
 78 87  1  0  0  0
 78163  1  0  0  0
 78164  1  0  0  0
 79 84  1  0  0  0
 79165  1  0  0  0
 79166  1  0  0  0
 80 82  1  0  0  0
 80167  1  0  0  0
 80168  1  0  0  0
 80 81  1  0  0  0
 81 84  1  0  0  0
 81 87  1  0  0  0
 81169  1  0  0  0
 82170  1  0  0  0
 83 89  1  0  0  0
 83 90  1  0  0  0
 84 88  1  0  0  0
 86171  1  0  0  0
 87172  1  0  0  0
 87173  1  0  0  0
 88174  1  0  0  0
M  CHG  1  87   1
M  ISO  4   1 100  68 101  82 101  86 100
M  END
> <chiral flag>
0

> <version>
0

> <s_m_source_file>
/data/baiqing/PycharmProjects/Reinvent-master-3.2/result/LINK_invent/BTK/process_docking_weight1_custom_product_contain_oxygen_bond_distance_aromatic_linkinvent_7_9_3/rearranged_h_0190.sdf

> <i_m_source_file_index>
70

> <r_mmod_Potential_Energy-OPLS-2005>
-277.498931884766

> <r_mmod_Stretch_Energy-OPLS-2005>
57.6461982727051

> <r_mmod_Bend_Energy-OPLS-2005>
146.688369750977

> <r_mmod_Torsional_Energy-OPLS-2005>
281.300872802734

> <r_mmod_Improper_Torsional_Energy-OPLS-2005>
4.74860048294067

> <r_mmod_Van_der_Waal_Energy-OPLS-2005>
155.163970947266

> <r_mmod_Electrostatic_Energy-OPLS-2005>
-476.941070556641

> <r_mmod_Solvation_Energy-OPLS-2005>
-466.271270751953

> <b_mmod_Minimization_Converged-OPLS-2005>
0

> <r_mmod_RMS_Derivative-OPLS-2005>
1.52637958526611

$$$$
70
                    3D
 Structure written by MMmdl.
148155  0  0  1  0            999 V2000
  -30.4319  -15.2108   20.3903 C   0  0  0  0  0  0
  -30.4461  -12.7595   19.5414 C   0  0  0  0  0  0
  -29.5429  -12.5810   18.2940 C   0  0  0  0  0  0
  -28.0842  -12.3143   18.7059 C   0  0  0  0  0  0
  -27.6195  -13.2729   19.8305 C   0  0  2  0  0  0
  -28.6493  -13.4053   20.9721 C   0  0  0  0  0  0
  -25.2427  -13.8248   20.5739 C   0  0  0  0  0  0
  -24.1764  -13.0443   20.9235 C   0  0  0  0  0  0
  -24.6410  -11.6937   20.8738 C   0  0  0  0  0  0
  -23.9099  -10.4300   21.0394 C   0  0  0  0  0  0
  -24.3641   -9.4216   21.9176 C   0  0  0  0  0  0
  -23.6310   -8.2253   22.0749 C   0  0  0  0  0  0
  -22.4290   -8.0288   21.3543 C   0  0  0  0  0  0
  -21.9931   -9.0262   20.4643 C   0  0  0  0  0  0
  -22.7265  -10.2138   20.3048 C   0  0  0  0  0  0
  -21.6863   -6.0742   22.5281 C   0  0  0  0  0  0
  -21.4019   -6.5641   23.8215 C   0  0  0  0  0  0
  -21.3661   -5.6790   24.9176 C   0  0  0  0  0  0
  -21.6045   -4.3053   24.7223 C   0  0  0  0  0  0
  -21.8819   -3.8148   23.4342 C   0  0  0  0  0  0
  -21.9197   -4.6968   22.3401 C   0  0  0  0  0  0
  -22.7783  -13.5199   21.1888 C   0  0  0  0  0  0
  -22.1662   -4.2152   21.0978 F   0  0  0  0  0  0
  -21.5632   -3.4536   25.7735 F   0  0  0  0  0  0
  -29.9042  -13.8908   20.3778 N   0  0  0  0  0  0
  -26.2852  -12.9519   20.3214 N   0  0  0  0  0  0
  -25.9351  -11.6625   20.5703 N   0  0  0  0  0  0
  -22.0437  -12.8186   22.0446 N   0  0  0  0  0  0
  -25.4096  -15.1982   20.4214 N   0  0  0  0  0  0
  -31.6289  -15.2351   20.0688 O   0  0  0  0  0  0
  -21.6650   -6.8886   21.4244 O   0  0  0  0  0  0
  -22.3461  -14.5498   20.6726 O   0  0  0  0  0  0
  -24.6598  -31.8266   23.1725 C   0  0  0  0  0  0
  -25.9293  -32.4604   23.8180 C   0  0  1  0  0  0
  -27.2205  -26.9610   20.1801 C   0  0  0  0  0  0
  -25.5972  -33.8417   24.2090 N   0  0  0  0  0  0
  -23.4728  -30.4377   21.5212 C   0  0  2  0  0  0
  -24.9268  -28.8302   20.1090 C   0  0  0  0  0  0
  -22.7652  -29.4453   22.4799 C   0  0  0  0  0  0
  -18.0318  -28.1406   22.8467 C   0  0  0  0  0  0
  -24.1494  -36.7218   23.2647 C   0  0  0  0  0  0
  -26.0390  -30.6432   21.3978 C   0  0  0  0  0  0
  -26.1076  -29.2361   20.7428 C   0  0  0  0  0  0
  -27.2483  -28.3203   20.7567 C   0  0  0  0  0  0
  -26.0149  -26.7005   19.4918 C   0  0  0  0  0  0
  -24.9040  -27.5827   19.4639 C   0  0  0  0  0  0
  -23.7099  -29.7526   20.1465 C   0  0  0  0  0  0
  -25.4135  -36.2980   24.0301 C   0  0  1  0  0  0
  -20.5939  -28.3749   23.1201 C   0  0  2  0  0  0
  -20.6793  -26.9433   22.5406 C   0  0  0  0  0  0
  -19.5769  -26.6377   21.5216 C   0  0  0  0  0  0
  -18.1951  -26.7938   22.1624 C   0  0  0  0  0  0
  -19.1577  -28.8901   23.2817 C   0  0  0  0  0  0
  -18.9489  -30.1492   23.8851 C   0  0  0  0  0  0
  -17.6483  -30.6595   24.0559 C   0  0  0  0  0  0
  -25.9097  -34.9362   23.5019 C   0  0  0  0  0  0
  -16.5375  -29.9082   23.6343 C   0  0  0  0  0  0
  -16.7301  -28.6504   23.0358 C   0  0  0  0  0  0
  -26.4553  -31.6537   25.0697 C   0  0  0  0  0  0
  -25.3684  -31.3777   26.1356 C   0  0  0  0  0  0
  -27.0449  -30.2912   24.6402 C   0  0  0  0  0  0
  -27.6056  -32.4334   25.7497 C   0  0  0  0  0  0
  -27.5573  -37.1766   24.8466 C   0  0  0  0  0  0
  -21.4325  -29.3043   22.3551 N   0  0  0  0  0  0
  -26.4282  -37.3714   23.9408 N   0  0  0  0  0  0
  -24.7451  -30.9953   22.0848 N   0  0  0  0  0  0
  -23.4216  -28.8028   23.3032 O   0  0  0  0  0  0
  -28.2314  -25.8790   20.2875 O   0  0  0  0  0  0
  -26.5707  -34.8893   22.4614 O   0  0  0  0  0  0
  -23.5679  -32.1226   23.6842 O   0  0  0  0  0  0
  -28.9168  -21.1650   19.9526 C   0  0  0  0  0  0
  -30.3379  -23.1931   20.7661 C   0  0  0  0  0  0
  -29.6389  -16.7281   20.7438 C   0  0  0  0  0  0
  -29.7204  -18.3628   20.0264 C   0  0  0  0  0  0
  -28.0564  -24.2764   19.9859 C   0  0  0  0  0  0
  -28.8663  -22.7925   20.5812 C   0  0  1  0  0  0
  -29.2992  -19.8807   20.5709 N   0  0  0  0  0  0
  -28.6266  -21.0934   18.7585 O   0  0  0  0  0  0
  -31.4718  -12.9476   19.2223 H   0  0  0  0  0  0
  -30.4881  -11.8362   20.1216 H   0  0  0  0  0  0
  -29.9136  -11.7675   17.6692 H   0  0  0  0  0  0
  -29.5903  -13.4842   17.6837 H   0  0  0  0  0  0
  -28.0231  -11.2826   19.0539 H   0  0  0  0  0  0
  -27.4223  -12.3857   17.8417 H   0  0  0  0  0  0
  -27.5502  -14.2524   19.3561 H   0  0  0  0  0  0
  -28.7904  -12.4564   21.4921 H   0  0  0  0  0  0
  -28.2966  -14.1186   21.7186 H   0  0  0  0  0  0
  -25.2782   -9.5696   22.4757 H   0  0  0  0  0  0
  -24.0019   -7.4648   22.7468 H   0  0  0  0  0  0
  -21.0864   -8.8784   19.8948 H   0  0  0  0  0  0
  -22.3718  -10.9681   19.6162 H   0  0  0  0  0  0
  -21.2004   -7.6146   23.9720 H   0  0  0  0  0  0
  -21.1488   -6.0518   25.9080 H   0  0  0  0  0  0
  -22.0593   -2.7610   23.2842 H   0  0  0  0  0  0
  -22.4065  -11.9857   22.4846 H   0  0  0  0  0  0
  -21.1044  -13.1201   22.2630 H   0  0  0  0  0  0
  -24.6449  -15.8531   20.5436 H   0  0  0  0  0  0
  -26.2629  -15.6418   20.1068 H   0  0  0  0  0  0
  -26.7362  -32.5150   23.0897 H   0  0  0  0  0  0
  -25.0052  -33.9497   25.0195 H   0  0  0  0  0  0
  -22.7847  -31.2687   21.3518 H   0  0  0  0  0  0
  -23.3766  -35.9537   23.3281 H   0  0  0  0  0  0
  -24.3575  -36.8893   22.2068 H   0  0  0  0  0  0
  -23.7238  -37.6396   23.6717 H   0  0  0  0  0  0
  -26.2123  -31.3856   20.6177 H   0  0  0  0  0  0
  -26.9020  -30.7018   22.0492 H   0  0  0  0  0  0
  -28.1403  -28.6251   21.2857 H   0  0  0  0  0  0
  -25.8951  -25.7472   18.9979 H   0  0  0  0  0  0
  -24.0063  -27.2674   18.9497 H   0  0  0  0  0  0
  -23.8614  -30.5204   19.3873 H   0  0  0  0  0  0
  -22.8207  -29.2030   19.8320 H   0  0  0  0  0  0
  -25.1332  -36.1781   25.0791 H   0  0  0  0  0  0
  -21.0026  -28.3349   24.1326 H   0  0  0  0  0  0
  -20.5678  -26.2368   23.3642 H   0  0  0  0  0  0
  -21.6656  -26.7413   22.1214 H   0  0  0  0  0  0
  -19.6929  -25.6277   21.1275 H   0  0  0  0  0  0
  -19.6706  -27.3162   20.6726 H   0  0  0  0  0  0
  -17.4222  -26.6686   21.4025 H   0  0  0  0  0  0
  -18.0346  -26.0088   22.9029 H   0  0  0  0  0  0
  -19.7965  -30.7320   24.2199 H   0  0  0  0  0  0
  -17.5034  -31.6271   24.5167 H   0  0  0  0  0  0
  -15.5373  -30.2970   23.7690 H   0  0  0  0  0  0
  -15.8701  -28.0810   22.7095 H   0  0  0  0  0  0
  -24.5873  -30.7121   25.7657 H   0  0  0  0  0  0
  -24.8861  -32.2974   26.4675 H   0  0  0  0  0  0
  -25.7914  -30.9006   27.0205 H   0  0  0  0  0  0
  -26.3110  -29.6588   24.1393 H   0  0  0  0  0  0
  -27.3985  -29.7269   25.5042 H   0  0  0  0  0  0
  -27.9046  -30.4112   23.9808 H   0  0  0  0  0  0
  -27.2634  -33.3671   26.1972 H   0  0  0  0  0  0
  -28.3920  -32.6834   25.0362 H   0  0  0  0  0  0
  -28.0664  -31.8525   26.5498 H   0  0  0  0  0  0
  -28.2575  -38.0078   24.7516 H   0  0  0  0  0  0
  -28.1082  -36.2604   24.6285 H   0  0  0  0  0  0
  -27.2290  -37.1403   25.8869 H   0  0  0  0  0  0
  -20.9579  -29.8729   21.6676 H   0  0  0  0  0  0
  -26.0133  -38.2776   24.1406 H   0  0  0  0  0  0
  -30.9296  -22.3901   21.2070 H   0  0  0  0  0  0
  -30.4247  -24.0593   21.4222 H   0  0  0  0  0  0
  -30.7913  -23.4559   19.8099 H   0  0  0  0  0  0
  -28.5794  -16.4757   20.7735 H   0  0  0  0  0  0
  -29.8981  -16.8778   21.7914 H   0  0  0  0  0  0
  -29.2168  -18.2738   19.0637 H   0  0  0  0  0  0
  -30.7694  -18.4826   19.7546 H   0  0  0  0  0  0
  -27.0006  -24.0890   20.1806 H   0  0  0  0  0  0
  -28.1318  -24.2167   18.8998 H   0  0  0  0  0  0
  -28.4660  -22.6492   21.5850 H   0  0  0  0  0  0
  -29.4731  -19.9874   21.5633 H   0  0  0  0  0  0
  1 25  1  0  0  0
  1 30  2  0  0  0
  1 73  1  0  0  0
  2  3  1  0  0  0
  2 25  1  0  0  0
  2 79  1  0  0  0
  2 80  1  0  0  0
  3  4  1  0  0  0
  3 81  1  0  0  0
  3 82  1  0  0  0
  4  5  1  0  0  0
  4 83  1  0  0  0
  4 84  1  0  0  0
  5  6  1  0  0  0
  5 26  1  0  0  0
  5 85  1  0  0  0
  6 25  1  0  0  0
  6 86  1  0  0  0
  6 87  1  0  0  0
  7  8  2  0  0  0
  7 26  1  0  0  0
  7 29  1  0  0  0
  8  9  1  0  0  0
  8 22  1  0  0  0
  9 10  1  0  0  0
  9 27  2  0  0  0
 10 11  2  0  0  0
 10 15  1  0  0  0
 11 12  1  0  0  0
 11 88  1  0  0  0
 12 13  2  0  0  0
 12 89  1  0  0  0
 13 14  1  0  0  0
 13 31  1  0  0  0
 14 15  2  0  0  0
 14 90  1  0  0  0
 15 91  1  0  0  0
 16 17  2  0  0  0
 16 21  1  0  0  0
 16 31  1  0  0  0
 17 18  1  0  0  0
 17 92  1  0  0  0
 18 19  2  0  0  0
 18 93  1  0  0  0
 19 20  1  0  0  0
 19 24  1  0  0  0
 20 21  2  0  0  0
 20 94  1  0  0  0
 21 23  1  0  0  0
 22 28  1  0  0  0
 22 32  2  0  0  0
 26 27  1  0  0  0
 28 95  1  0  0  0
 28 96  1  0  0  0
 29 97  1  0  0  0
 29 98  1  0  0  0
 33 34  1  0  0  0
 33 66  1  0  0  0
 33 70  2  0  0  0
 34 36  1  0  0  0
 34 59  1  0  0  0
 34 99  1  0  0  0
 35 44  2  0  0  0
 35 45  1  0  0  0
 35 68  1  0  0  0
 36 56  1  0  0  0
 36100  1  0  0  0
 37 39  1  0  0  0
 37 47  1  0  0  0
 37 66  1  0  0  0
 37101  1  0  0  0
 38 43  2  0  0  0
 38 46  1  0  0  0
 38 47  1  0  0  0
 39 64  1  0  0  0
 39 67  2  0  0  0
 40 52  1  0  0  0
 40 53  2  0  0  0
 40 58  1  0  0  0
 41102  1  0  0  0
 41103  1  0  0  0
 41104  1  0  0  0
 41 48  1  0  0  0
 42 43  1  0  0  0
 42 66  1  0  0  0
 42105  1  0  0  0
 42106  1  0  0  0
 43 44  1  0  0  0
 44107  1  0  0  0
 45 46  2  0  0  0
 45108  1  0  0  0
 46109  1  0  0  0
 47110  1  0  0  0
 47111  1  0  0  0
 48 56  1  0  0  0
 48 65  1  0  0  0
 48112  1  0  0  0
 49 50  1  0  0  0
 49 53  1  0  0  0
 49 64  1  0  0  0
 49113  1  0  0  0
 50 51  1  0  0  0
 50114  1  0  0  0
 50115  1  0  0  0
 51 52  1  0  0  0
 51116  1  0  0  0
 51117  1  0  0  0
 52118  1  0  0  0
 52119  1  0  0  0
 53 54  1  0  0  0
 54 55  2  0  0  0
 54120  1  0  0  0
 55 57  1  0  0  0
 55121  1  0  0  0
 56 69  2  0  0  0
 57 58  2  0  0  0
 57122  1  0  0  0
 58123  1  0  0  0
 59 60  1  0  0  0
 59 61  1  0  0  0
 59 62  1  0  0  0
 60124  1  0  0  0
 60125  1  0  0  0
 60126  1  0  0  0
 61127  1  0  0  0
 61128  1  0  0  0
 61129  1  0  0  0
 62130  1  0  0  0
 62131  1  0  0  0
 62132  1  0  0  0
 63 65  1  0  0  0
 63133  1  0  0  0
 63134  1  0  0  0
 63135  1  0  0  0
 64136  1  0  0  0
 65137  1  0  0  0
 68 75  1  0  0  0
 71 76  1  0  0  0
 71 77  1  0  0  0
 71 78  2  0  0  0
 72138  1  0  0  0
 72139  1  0  0  0
 72140  1  0  0  0
 72 76  1  0  0  0
 73 74  1  0  0  0
 73141  1  0  0  0
 73142  1  0  0  0
 74 77  1  0  0  0
 74143  1  0  0  0
 74144  1  0  0  0
 75 76  1  0  0  0
 75145  1  0  0  0
 75146  1  0  0  0
 76147  1  0  0  0
 77148  1  0  0  0
M  ISO  4   1 100  68 101  73 100  75 101
M  END
> <chiral flag>
0

> <version>
0

> <s_m_source_file>
/data/baiqing/PycharmProjects/Reinvent-master-3.2/result/LINK_invent/BTK/process_docking_weight1_custom_product_contain_oxygen_bond_distance_aromatic_linkinvent_7_9_3/rearranged_h_0190.sdf

> <i_m_source_file_index>
71

> <r_mmod_Potential_Energy-OPLS-2005>
1103.13659667969

> <r_mmod_Stretch_Energy-OPLS-2005>
567.3037109375

> <r_mmod_Bend_Energy-OPLS-2005>
411.866271972656

> <r_mmod_Torsional_Energy-OPLS-2005>
191.187805175781

> <r_mmod_Improper_Torsional_Energy-OPLS-2005>
2.26981019973755

> <r_mmod_Van_der_Waal_Energy-OPLS-2005>
107.104263305664

> <r_mmod_Electrostatic_Energy-OPLS-2005>
-347.641845703125

> <r_mmod_Solvation_Energy-OPLS-2005>
-232.50732421875

> <b_mmod_Minimization_Converged-OPLS-2005>
0

> <r_mmod_RMS_Derivative-OPLS-2005>
0.686177611351013

$$$$
71
                    3D
 Structure written by MMmdl.
161169  0  0  1  0            999 V2000
  -30.6161  -14.6461   20.3037 C   0  0  0  0  0  0
  -30.4523  -12.3567   19.4574 C   0  0  0  0  0  0
  -29.5227  -12.4484   18.2283 C   0  0  0  0  0  0
  -28.0470  -12.2995   18.6497 C   0  0  0  0  0  0
  -27.6500  -13.2186   19.8339 C   0  0  2  0  0  0
  -28.7031  -13.1520   20.9617 C   0  0  0  0  0  0
  -25.2613  -13.8222   20.5668 C   0  0  0  0  0  0
  -24.1891  -13.0505   20.9142 C   0  0  0  0  0  0
  -24.6458  -11.6953   20.8727 C   0  0  0  0  0  0
  -23.9134  -10.4343   21.0421 C   0  0  0  0  0  0
  -24.3668   -9.4229   21.9201 C   0  0  0  0  0  0
  -23.6297   -8.2285   22.0788 C   0  0  0  0  0  0
  -22.4279   -8.0362   21.3583 C   0  0  0  0  0  0
  -21.9937   -9.0339   20.4690 C   0  0  0  0  0  0
  -22.7298  -10.2190   20.3076 C   0  0  0  0  0  0
  -21.6855   -6.0760   22.5269 C   0  0  0  0  0  0
  -21.4020   -6.5650   23.8212 C   0  0  0  0  0  0
  -21.3640   -5.6798   24.9163 C   0  0  0  0  0  0
  -21.6016   -4.3056   24.7204 C   0  0  0  0  0  0
  -21.8838   -3.8167   23.4320 C   0  0  0  0  0  0
  -21.9197   -4.6983   22.3391 C   0  0  0  0  0  0
  -22.7880  -13.5256   21.1767 C   0  0  0  0  0  0
  -22.1667   -4.2179   21.0954 F   0  0  0  0  0  0
  -21.5601   -3.4549   25.7703 F   0  0  0  0  0  0
  -30.0348  -13.4160   20.3893 N   0  0  0  0  0  0
  -26.3016  -12.9369   20.3204 N   0  0  0  0  0  0
  -25.9359  -11.6549   20.5714 N   0  0  0  0  0  0
  -22.0528  -12.8299   22.0353 N   0  0  0  0  0  0
  -25.4363  -15.1990   20.4110 N   0  0  0  0  0  0
  -31.8296  -14.7775   20.1304 O   0  0  0  0  0  0
  -21.6650   -6.8932   21.4257 O   0  0  0  0  0  0
  -22.3534  -14.5561   20.6605 O   0  0  0  0  0  0
  -24.6243  -31.8635   23.2029 C   0  0  0  0  0  0
  -25.9126  -32.4811   23.8358 C   0  0  1  0  0  0
  -27.2513  -27.3827   20.1176 C   0  0  0  0  0  0
  -25.5931  -33.8601   24.2322 N   0  0  0  0  0  0
  -23.4134  -30.4879   21.5461 C   0  0  2  0  0  0
  -24.8670  -28.9401   20.1244 C   0  0  0  0  0  0
  -22.7432  -29.4656   22.4963 C   0  0  0  0  0  0
  -18.0306  -28.1331   22.8442 C   0  0  0  0  0  0
  -24.1496  -36.7345   23.2644 C   0  0  0  0  0  0
  -25.9480  -30.8216   21.3587 C   0  0  0  0  0  0
  -26.0310  -29.4460   20.7174 C   0  0  0  0  0  0
  -27.2256  -28.6792   20.7076 C   0  0  0  0  0  0
  -26.0666  -26.9019   19.5228 C   0  0  0  0  0  0
  -24.8816  -27.6692   19.5230 C   0  0  0  0  0  0
  -23.6262  -29.8133   20.1660 C   0  0  0  0  0  0
  -25.4109  -36.3119   24.0341 C   0  0  1  0  0  0
  -20.5902  -28.3699   23.1299 C   0  0  2  0  0  0
  -20.6933  -26.9494   22.5335 C   0  0  0  0  0  0
  -19.5896  -26.6413   21.5148 C   0  0  0  0  0  0
  -18.2056  -26.7882   22.1554 C   0  0  0  0  0  0
  -19.1523  -28.8833   23.2860 C   0  0  0  0  0  0
  -18.9409  -30.1440   23.8926 C   0  0  0  0  0  0
  -17.6395  -30.6547   24.0505 C   0  0  0  0  0  0
  -25.9046  -34.9470   23.5128 C   0  0  0  0  0  0
  -16.5317  -29.9009   23.6206 C   0  0  0  0  0  0
  -16.7288  -28.6444   23.0257 C   0  0  0  0  0  0
  -26.4554  -31.6565   25.0685 C   0  0  0  0  0  0
  -25.3820  -31.3658   26.1442 C   0  0  0  0  0  0
  -27.0365  -30.2997   24.6016 C   0  0  0  0  0  0
  -27.6145  -32.4286   25.7440 C   0  0  0  0  0  0
  -27.5580  -37.1822   24.8467 C   0  0  0  0  0  0
  -21.4158  -29.3096   22.3708 N   0  0  0  0  0  0
  -26.4294  -37.3790   23.9411 N   0  0  0  0  0  0
  -24.6833  -31.0679   22.0980 N   0  0  0  0  0  0
  -23.4150  -28.8166   23.2985 O   0  0  0  0  0  0
  -28.3880  -26.5781   20.0936 O   0  0  0  0  0  0
  -26.5635  -34.8919   22.4713 O   0  0  0  0  0  0
  -23.5421  -32.1434   23.7358 O   0  0  0  0  0  0
  -29.7643  -18.3296   19.2013 C   0  0  0  0  0  0
  -31.1649  -17.8324   20.7744 C   0  0  0  0  0  0
  -30.3068  -19.5093   19.6866 C   0  0  0  0  0  0
  -29.9352  -20.9147   19.2344 C   0  0  0  0  0  0
  -27.5807  -22.5098   20.8917 C   0  0  0  0  0  0
  -28.9550  -26.2905   22.3887 C   0  0  0  0  0  0
  -25.2112  -22.5426   20.8299 C   0  0  0  0  0  0
  -29.6839  -15.8816   20.0254 C   0  0  0  0  0  0
  -29.3999  -24.2763   20.8481 C   0  0  0  0  0  0
  -28.8377  -22.9843   20.1342 C   0  0  1  0  0  0
  -28.4742  -25.5461   21.1232 C   0  0  2  0  0  0
  -31.2472  -19.1653   20.6647 N   0  0  0  0  0  0
  -30.2390  -17.2611   19.9867 N   0  0  0  0  0  0
  -29.7876  -21.8358   20.2052 N   0  0  0  0  0  0
  -29.6539  -21.1649   18.0613 O   0  0  0  0  0  0
  -27.6130  -21.7952   21.8990 O   0  0  0  0  0  0
  -26.4627  -22.9632   20.3127 O   0  0  0  0  0  0
  -31.4950  -12.4724   19.1513 H   0  0  0  0  0  0
  -30.3833  -11.3755   19.9343 H   0  0  0  0  0  0
  -29.7848  -11.6627   17.5208 H   0  0  0  0  0  0
  -29.6777  -13.3906   17.7033 H   0  0  0  0  0  0
  -27.9086  -11.2587   18.9477 H   0  0  0  0  0  0
  -27.3916  -12.4687   17.7956 H   0  0  0  0  0  0
  -27.6281  -14.2292   19.4338 H   0  0  0  0  0  0
  -28.6904  -12.1826   21.4576 H   0  0  0  0  0  0
  -28.4772  -13.8858   21.7398 H   0  0  0  0  0  0
  -25.2861   -9.5638   22.4722 H   0  0  0  0  0  0
  -24.0006   -7.4668   22.7489 H   0  0  0  0  0  0
  -21.0866   -8.8885   19.8980 H   0  0  0  0  0  0
  -22.3833  -10.9726   19.6158 H   0  0  0  0  0  0
  -21.2054   -7.6172   23.9730 H   0  0  0  0  0  0
  -21.1409   -6.0516   25.9059 H   0  0  0  0  0  0
  -22.0637   -2.7626   23.2810 H   0  0  0  0  0  0
  -22.4133  -11.9959   22.4768 H   0  0  0  0  0  0
  -21.1176  -13.1370   22.2553 H   0  0  0  0  0  0
  -24.6876  -15.8707   20.5535 H   0  0  0  0  0  0
  -26.3042  -15.6362   20.1291 H   0  0  0  0  0  0
  -26.7212  -32.5536   23.1123 H   0  0  0  0  0  0
  -25.0078  -33.9709   25.0473 H   0  0  0  0  0  0
  -22.7109  -31.3093   21.4048 H   0  0  0  0  0  0
  -23.3712  -35.9717   23.3305 H   0  0  0  0  0  0
  -24.3640  -36.8927   22.2061 H   0  0  0  0  0  0
  -23.7247  -37.6542   23.6653 H   0  0  0  0  0  0
  -26.0441  -31.5734   20.5750 H   0  0  0  0  0  0
  -26.8473  -30.8928   21.9601 H   0  0  0  0  0  0
  -28.1257  -29.0663   21.1640 H   0  0  0  0  0  0
  -26.0469  -25.9244   19.0577 H   0  0  0  0  0  0
  -23.9883  -27.2693   19.0563 H   0  0  0  0  0  0
  -23.7472  -30.5897   19.4085 H   0  0  0  0  0  0
  -22.7461  -29.2371   19.8698 H   0  0  0  0  0  0
  -25.1238  -36.2004   25.0818 H   0  0  0  0  0  0
  -20.9920  -28.3203   24.1462 H   0  0  0  0  0  0
  -20.6029  -26.2300   23.3471 H   0  0  0  0  0  0
  -21.6796  -26.7704   22.1037 H   0  0  0  0  0  0
  -19.7253  -25.6347   21.1154 H   0  0  0  0  0  0
  -19.6696  -27.3257   20.6689 H   0  0  0  0  0  0
  -17.4436  -26.6701   21.3813 H   0  0  0  0  0  0
  -18.0465  -25.9964   22.8889 H   0  0  0  0  0  0
  -19.7879  -30.7241   24.2293 H   0  0  0  0  0  0
  -17.4864  -31.6276   24.5069 H   0  0  0  0  0  0
  -15.5311  -30.2900   23.7423 H   0  0  0  0  0  0
  -15.8712  -28.0696   22.6991 H   0  0  0  0  0  0
  -24.6024  -30.6969   25.7801 H   0  0  0  0  0  0
  -24.9055  -32.2827   26.4892 H   0  0  0  0  0  0
  -25.8230  -30.8836   27.0172 H   0  0  0  0  0  0
  -26.2948  -29.6789   24.1026 H   0  0  0  0  0  0
  -27.4105  -29.7164   25.4437 H   0  0  0  0  0  0
  -27.8761  -30.4334   23.9216 H   0  0  0  0  0  0
  -27.2766  -33.3559   26.2051 H   0  0  0  0  0  0
  -28.3927  -32.6859   25.0251 H   0  0  0  0  0  0
  -28.0889  -31.8408   26.5287 H   0  0  0  0  0  0
  -28.2569  -38.0134   24.7457 H   0  0  0  0  0  0
  -28.1061  -36.2638   24.6311 H   0  0  0  0  0  0
  -27.2339  -37.1508   25.8882 H   0  0  0  0  0  0
  -20.9389  -29.8843   21.6909 H   0  0  0  0  0  0
  -26.0152  -38.2850   24.1392 H   0  0  0  0  0  0
  -29.0173  -18.2044   18.4264 H   0  0  0  0  0  0
  -31.7453  -17.2709   21.4955 H   0  0  0  0  0  0
  -29.3247  -25.6322   23.1751 H   0  0  0  0  0  0
  -28.1395  -26.8675   22.8235 H   0  0  0  0  0  0
  -29.7718  -26.9761   22.1611 H   0  0  0  0  0  0
  -25.1375  -22.7254   21.9032 H   0  0  0  0  0  0
  -25.0705  -21.4724   20.6555 H   0  0  0  0  0  0
  -24.4039  -23.0788   20.3314 H   0  0  0  0  0  0
  -29.2136  -15.7137   19.0535 H   0  0  0  0  0  0
  -28.8668  -15.8972   20.7461 H   0  0  0  0  0  0
  -30.3304  -24.5872   20.3724 H   0  0  0  0  0  0
  -29.7247  -23.9145   21.8258 H   0  0  0  0  0  0
  -28.5851  -23.2140   19.0970 H   0  0  0  0  0  0
  -27.4661  -25.1983   21.3397 H   0  0  0  0  0  0
  -29.9861  -21.4823   21.1341 H   0  0  0  0  0  0
  1 25  1  0  0  0
  1 30  2  0  0  0
  1 78  1  0  0  0
  2  3  1  0  0  0
  2 25  1  0  0  0
  2 88  1  0  0  0
  2 89  1  0  0  0
  3  4  1  0  0  0
  3 90  1  0  0  0
  3 91  1  0  0  0
  4  5  1  0  0  0
  4 92  1  0  0  0
  4 93  1  0  0  0
  5  6  1  0  0  0
  5 26  1  0  0  0
  5 94  1  0  0  0
  6 25  1  0  0  0
  6 95  1  0  0  0
  6 96  1  0  0  0
  7  8  2  0  0  0
  7 26  1  0  0  0
  7 29  1  0  0  0
  8  9  1  0  0  0
  8 22  1  0  0  0
  9 10  1  0  0  0
  9 27  2  0  0  0
 10 11  2  0  0  0
 10 15  1  0  0  0
 11 12  1  0  0  0
 11 97  1  0  0  0
 12 13  2  0  0  0
 12 98  1  0  0  0
 13 14  1  0  0  0
 13 31  1  0  0  0
 14 15  2  0  0  0
 14 99  1  0  0  0
 15100  1  0  0  0
 16 17  2  0  0  0
 16 21  1  0  0  0
 16 31  1  0  0  0
 17 18  1  0  0  0
 17101  1  0  0  0
 18 19  2  0  0  0
 18102  1  0  0  0
 19 20  1  0  0  0
 19 24  1  0  0  0
 20 21  2  0  0  0
 20103  1  0  0  0
 21 23  1  0  0  0
 22 28  1  0  0  0
 22 32  2  0  0  0
 26 27  1  0  0  0
 28104  1  0  0  0
 28105  1  0  0  0
 29106  1  0  0  0
 29107  1  0  0  0
 33 34  1  0  0  0
 33 66  1  0  0  0
 33 70  2  0  0  0
 34 36  1  0  0  0
 34 59  1  0  0  0
 34108  1  0  0  0
 35 44  2  0  0  0
 35 45  1  0  0  0
 35 68  1  0  0  0
 36 56  1  0  0  0
 36109  1  0  0  0
 37 39  1  0  0  0
 37 47  1  0  0  0
 37 66  1  0  0  0
 37110  1  0  0  0
 38 43  2  0  0  0
 38 46  1  0  0  0
 38 47  1  0  0  0
 39 64  1  0  0  0
 39 67  2  0  0  0
 40 52  1  0  0  0
 40 53  2  0  0  0
 40 58  1  0  0  0
 41111  1  0  0  0
 41112  1  0  0  0
 41113  1  0  0  0
 41 48  1  0  0  0
 42 43  1  0  0  0
 42 66  1  0  0  0
 42114  1  0  0  0
 42115  1  0  0  0
 43 44  1  0  0  0
 44116  1  0  0  0
 45 46  2  0  0  0
 45117  1  0  0  0
 46118  1  0  0  0
 47119  1  0  0  0
 47120  1  0  0  0
 48 56  1  0  0  0
 48 65  1  0  0  0
 48121  1  0  0  0
 49 50  1  0  0  0
 49 53  1  0  0  0
 49 64  1  0  0  0
 49122  1  0  0  0
 50 51  1  0  0  0
 50123  1  0  0  0
 50124  1  0  0  0
 51 52  1  0  0  0
 51125  1  0  0  0
 51126  1  0  0  0
 52127  1  0  0  0
 52128  1  0  0  0
 53 54  1  0  0  0
 54 55  2  0  0  0
 54129  1  0  0  0
 55 57  1  0  0  0
 55130  1  0  0  0
 56 69  2  0  0  0
 57 58  2  0  0  0
 57131  1  0  0  0
 58132  1  0  0  0
 59 60  1  0  0  0
 59 61  1  0  0  0
 59 62  1  0  0  0
 60133  1  0  0  0
 60134  1  0  0  0
 60135  1  0  0  0
 61136  1  0  0  0
 61137  1  0  0  0
 61138  1  0  0  0
 62139  1  0  0  0
 62140  1  0  0  0
 62141  1  0  0  0
 63 65  1  0  0  0
 63142  1  0  0  0
 63143  1  0  0  0
 63144  1  0  0  0
 64145  1  0  0  0
 65146  1  0  0  0
 68 81  1  0  0  0
 71 73  2  0  0  0
 71 83  1  0  0  0
 71147  1  0  0  0
 72 82  2  0  0  0
 72 83  1  0  0  0
 72148  1  0  0  0
 73 74  1  0  0  0
 73 82  1  0  0  0
 74 84  1  0  0  0
 74 85  2  0  0  0
 75 80  1  0  0  0
 75 86  2  0  0  0
 75 87  1  0  0  0
 76149  1  0  0  0
 76150  1  0  0  0
 76151  1  0  0  0
 76 81  1  0  0  0
 77 87  1  0  0  0
 77152  1  0  0  0
 77153  1  0  0  0
 77154  1  0  0  0
 78 83  1  0  0  0
 78155  1  0  0  0
 78156  1  0  0  0
 79 81  1  0  0  0
 79157  1  0  0  0
 79158  1  0  0  0
 79 80  1  0  0  0
 80 84  1  0  0  0
 80159  1  0  0  0
 81160  1  0  0  0
 84161  1  0  0  0
M  ISO  4   1 100  68 101  78 100  81 101
M  END
> <chiral flag>
0

> <version>
0

> <s_m_source_file>
/data/baiqing/PycharmProjects/Reinvent-master-3.2/result/LINK_invent/BTK/process_docking_weight1_custom_product_contain_oxygen_bond_distance_aromatic_linkinvent_7_9_3/rearranged_h_0190.sdf

> <i_m_source_file_index>
72

> <r_mmod_Potential_Energy-OPLS-2005>
-54.2839393615723

> <r_mmod_Stretch_Energy-OPLS-2005>
60.1038475036621

> <r_mmod_Bend_Energy-OPLS-2005>
131.439636230469

> <r_mmod_Torsional_Energy-OPLS-2005>
265.662475585938

> <r_mmod_Improper_Torsional_Energy-OPLS-2005>
13.9302587509155

> <r_mmod_Van_der_Waal_Energy-OPLS-2005>
119.791000366211

> <r_mmod_Electrostatic_Energy-OPLS-2005>
-454.567749023438

> <r_mmod_Solvation_Energy-OPLS-2005>
-242.373321533203

> <b_mmod_Minimization_Converged-OPLS-2005>
0

> <r_mmod_RMS_Derivative-OPLS-2005>
8.35019207000732

$$$$
72
                    3D
 Structure written by MMmdl.
162170  0  0  1  0            999 V2000
  -30.6940  -14.5311   20.5379 C   0  0  0  0  0  0
  -30.4201  -12.3360   19.4495 C   0  0  0  0  0  0
  -29.5056  -12.5345   18.2237 C   0  0  0  0  0  0
  -28.0271  -12.3905   18.6276 C   0  0  0  0  0  0
  -27.6644  -13.2284   19.8845 C   0  0  2  0  0  0
  -28.7063  -13.0417   21.0153 C   0  0  0  0  0  0
  -25.2562  -13.8177   20.5766 C   0  0  0  0  0  0
  -24.1875  -13.0420   20.9217 C   0  0  0  0  0  0
  -24.6449  -11.6865   20.8659 C   0  0  0  0  0  0
  -23.9148  -10.4241   21.0332 C   0  0  0  0  0  0
  -24.3673   -9.4142   21.9111 C   0  0  0  0  0  0
  -23.6318   -8.2207   22.0721 C   0  0  0  0  0  0
  -22.4300   -8.0244   21.3515 C   0  0  0  0  0  0
  -21.9944   -9.0229   20.4628 C   0  0  0  0  0  0
  -22.7303  -10.2082   20.3009 C   0  0  0  0  0  0
  -21.6854   -6.0686   22.5274 C   0  0  0  0  0  0
  -21.4002   -6.5612   23.8209 C   0  0  0  0  0  0
  -21.3685   -5.6781   24.9186 C   0  0  0  0  0  0
  -21.6068   -4.3025   24.7243 C   0  0  0  0  0  0
  -21.8810   -3.8091   23.4381 C   0  0  0  0  0  0
  -21.9192   -4.6905   22.3416 C   0  0  0  0  0  0
  -22.7882  -13.5118   21.1928 C   0  0  0  0  0  0
  -22.1655   -4.2072   21.0993 F   0  0  0  0  0  0
  -21.5652   -3.4544   25.7781 F   0  0  0  0  0  0
  -30.0394  -13.3369   20.4626 N   0  0  0  0  0  0
  -26.3055  -12.9421   20.3395 N   0  0  0  0  0  0
  -25.9401  -11.6529   20.5668 N   0  0  0  0  0  0
  -22.0598  -12.7998   22.0446 N   0  0  0  0  0  0
  -25.4236  -15.1919   20.4224 N   0  0  0  0  0  0
  -31.8144  -14.6999   20.0427 O   0  0  0  0  0  0
  -21.6655   -6.8836   21.4232 O   0  0  0  0  0  0
  -22.3541  -14.5459   20.6867 O   0  0  0  0  0  0
  -24.6136  -31.8599   23.2080 C   0  0  0  0  0  0
  -25.9035  -32.4744   23.8353 C   0  0  1  0  0  0
  -27.2402  -27.3810   20.0909 C   0  0  0  0  0  0
  -25.5846  -33.8554   24.2233 N   0  0  0  0  0  0
  -23.4034  -30.4784   21.5468 C   0  0  2  0  0  0
  -24.8603  -28.9482   20.1006 C   0  0  0  0  0  0
  -22.7425  -29.4593   22.4997 C   0  0  0  0  0  0
  -18.0267  -28.1375   22.8445 C   0  0  0  0  0  0
  -24.1494  -36.7310   23.2647 C   0  0  0  0  0  0
  -25.9408  -30.7975   21.3812 C   0  0  0  0  0  0
  -26.0146  -29.4307   20.7260 C   0  0  0  0  0  0
  -27.2048  -28.6533   20.7269 C   0  0  0  0  0  0
  -26.0746  -26.9408   19.4279 C   0  0  0  0  0  0
  -24.8948  -27.7097   19.4328 C   0  0  0  0  0  0
  -23.6075  -29.8001   20.1619 C   0  0  0  0  0  0
  -25.4122  -36.3055   24.0298 C   0  0  1  0  0  0
  -20.5849  -28.3655   23.1344 C   0  0  2  0  0  0
  -20.6753  -26.9402   22.5447 C   0  0  0  0  0  0
  -19.5750  -26.6381   21.5210 C   0  0  0  0  0  0
  -18.1926  -26.7905   22.1612 C   0  0  0  0  0  0
  -19.1508  -28.8842   23.2853 C   0  0  0  0  0  0
  -18.9427  -30.1460   23.8824 C   0  0  0  0  0  0
  -17.6416  -30.6557   24.0555 C   0  0  0  0  0  0
  -25.9057  -34.9433   23.5089 C   0  0  0  0  0  0
  -16.5313  -29.9039   23.6354 C   0  0  0  0  0  0
  -16.7248  -28.6503   23.0291 C   0  0  0  0  0  0
  -26.4455  -31.6581   25.0716 C   0  0  0  0  0  0
  -25.3717  -31.3736   26.1471 C   0  0  0  0  0  0
  -27.0351  -30.3031   24.6178 C   0  0  0  0  0  0
  -27.6021  -32.4363   25.7429 C   0  0  0  0  0  0
  -27.5574  -37.1811   24.8446 C   0  0  0  0  0  0
  -21.4159  -29.2981   22.3759 N   0  0  0  0  0  0
  -26.4292  -37.3752   23.9383 N   0  0  0  0  0  0
  -24.6697  -31.0638   22.0990 N   0  0  0  0  0  0
  -23.4224  -28.8147   23.3016 O   0  0  0  0  0  0
  -28.3889  -26.5936   20.0621 O   0  0  0  0  0  0
  -26.5690  -34.8889   22.4698 O   0  0  0  0  0  0
  -23.5339  -32.1342   23.7512 O   0  0  0  0  0  0
  -29.3031  -18.1452   18.6412 C   0  0  0  0  0  0
  -29.4614  -19.1579   19.5622 C   0  0  0  0  0  0
  -29.8365  -16.8309   20.4216 C   0  0  0  0  0  0
  -29.3967  -20.6383   19.2977 C   0  0  0  0  0  0
  -25.4549  -23.1794   19.9586 C   0  0  0  0  0  0
  -26.2706  -21.1513   21.2267 C   0  0  0  0  0  0
  -29.2841  -25.1681   21.7389 C   0  0  0  0  0  0
  -28.5574  -24.0422   19.5764 C   0  0  0  0  0  0
  -26.6418  -22.5606   20.7241 C   0  0  0  0  0  0
  -27.9360  -22.6038   19.8505 C   0  0  2  0  0  0
  -28.2879  -25.2326   20.5825 C   0  0  2  0  0  0
  -29.5069  -16.8490   19.1261 N   0  0  0  0  0  0
  -30.0124  -15.5700   21.0810 N   0  0  0  0  0  0
  -28.8650  -21.4886   20.2057 N   0  0  0  0  0  0
  -29.6978  -21.0389   18.1720 O   0  0  0  0  0  0
  -29.8504  -18.4647   21.1434 S   0  0  0  0  0  0
  -31.4677  -12.4050   19.1554 H   0  0  0  0  0  0
  -30.2883  -11.3345   19.8562 H   0  0  0  0  0  0
  -29.7523  -11.8128   17.4448 H   0  0  0  0  0  0
  -29.6767  -13.5212   17.7888 H   0  0  0  0  0  0
  -27.8408  -11.3354   18.8203 H   0  0  0  0  0  0
  -27.3746  -12.6684   17.8011 H   0  0  0  0  0  0
  -27.6927  -14.2745   19.5772 H   0  0  0  0  0  0
  -28.6833  -12.0196   21.3956 H   0  0  0  0  0  0
  -28.4613  -13.6742   21.8703 H   0  0  0  0  0  0
  -25.2818   -9.5621   22.4683 H   0  0  0  0  0  0
  -24.0019   -7.4617   22.7466 H   0  0  0  0  0  0
  -21.0877   -8.8819   19.8941 H   0  0  0  0  0  0
  -22.3795  -10.9664   19.6141 H   0  0  0  0  0  0
  -21.1965   -7.6104   23.9688 H   0  0  0  0  0  0
  -21.1559   -6.0500   25.9099 H   0  0  0  0  0  0
  -22.0564   -2.7558   23.2935 H   0  0  0  0  0  0
  -22.4328  -11.9587   22.4580 H   0  0  0  0  0  0
  -21.1235  -13.0926   22.2837 H   0  0  0  0  0  0
  -24.6499  -15.8344   20.5585 H   0  0  0  0  0  0
  -26.2658  -15.6455   20.0938 H   0  0  0  0  0  0
  -26.7115  -32.5419   23.1118 H   0  0  0  0  0  0
  -24.9807  -33.9698   25.0241 H   0  0  0  0  0  0
  -22.6884  -31.2954   21.4126 H   0  0  0  0  0  0
  -23.3721  -35.9694   23.3331 H   0  0  0  0  0  0
  -24.3593  -36.8924   22.2069 H   0  0  0  0  0  0
  -23.7310  -37.6529   23.6684 H   0  0  0  0  0  0
  -26.0697  -31.5575   20.6118 H   0  0  0  0  0  0
  -26.8230  -30.8524   22.0077 H   0  0  0  0  0  0
  -28.0923  -29.0151   21.2287 H   0  0  0  0  0  0
  -26.0909  -26.0154   18.8703 H   0  0  0  0  0  0
  -24.0270  -27.3654   18.8893 H   0  0  0  0  0  0
  -23.6542  -30.5623   19.3830 H   0  0  0  0  0  0
  -22.7435  -29.1801   19.9049 H   0  0  0  0  0  0
  -25.1334  -36.1879   25.0788 H   0  0  0  0  0  0
  -20.9857  -28.3196   24.1487 H   0  0  0  0  0  0
  -20.5664  -26.2237   23.3605 H   0  0  0  0  0  0
  -21.6632  -26.7443   22.1248 H   0  0  0  0  0  0
  -19.6932  -25.6306   21.1198 H   0  0  0  0  0  0
  -19.6697  -27.3232   20.6773 H   0  0  0  0  0  0
  -17.4203  -26.6589   21.4021 H   0  0  0  0  0  0
  -18.0371  -26.0060   22.9033 H   0  0  0  0  0  0
  -19.7903  -30.7314   24.2112 H   0  0  0  0  0  0
  -17.4963  -31.6217   24.5205 H   0  0  0  0  0  0
  -15.5313  -30.2887   23.7746 H   0  0  0  0  0  0
  -15.8653  -28.0829   22.6951 H   0  0  0  0  0  0
  -24.5797  -30.7172   25.7793 H   0  0  0  0  0  0
  -24.8981  -32.2910   26.4989 H   0  0  0  0  0  0
  -25.7995  -30.8800   27.0203 H   0  0  0  0  0  0
  -26.2961  -29.6761   24.1139 H   0  0  0  0  0  0
  -27.4007  -29.7258   25.4675 H   0  0  0  0  0  0
  -27.8827  -30.4378   23.9455 H   0  0  0  0  0  0
  -27.2623  -33.3653   26.2042 H   0  0  0  0  0  0
  -28.3742  -32.6974   25.0174 H   0  0  0  0  0  0
  -28.0801  -31.8485   26.5277 H   0  0  0  0  0  0
  -28.2593  -38.0100   24.7457 H   0  0  0  0  0  0
  -28.1043  -36.2618   24.6297 H   0  0  0  0  0  0
  -27.2279  -37.1491   25.8842 H   0  0  0  0  0  0
  -20.9373  -29.8661   21.6908 H   0  0  0  0  0  0
  -26.0146  -38.2820   24.1348 H   0  0  0  0  0  0
  -29.0504  -18.2560   17.5971 H   0  0  0  0  0  0
  -24.4923  -22.8918   20.3821 H   0  0  0  0  0  0
  -25.4406  -22.8906   18.9070 H   0  0  0  0  0  0
  -25.4979  -24.2641   19.9918 H   0  0  0  0  0  0
  -25.2700  -21.1642   21.6648 H   0  0  0  0  0  0
  -26.9456  -20.8307   22.0252 H   0  0  0  0  0  0
  -26.2911  -20.4009   20.4353 H   0  0  0  0  0  0
  -29.0959  -25.9791   22.4463 H   0  0  0  0  0  0
  -30.3079  -25.2623   21.3703 H   0  0  0  0  0  0
  -29.2017  -24.2159   22.2646 H   0  0  0  0  0  0
  -28.1479  -24.3625   18.6182 H   0  0  0  0  0  0
  -29.6265  -23.9362   19.3801 H   0  0  0  0  0  0
  -26.7836  -23.1331   21.6419 H   0  0  0  0  0  0
  -27.5784  -22.2965   18.8635 H   0  0  0  0  0  0
  -27.2998  -25.1220   21.0169 H   0  0  0  0  0  0
  -29.2543  -15.3088   21.6917 H   0  0  0  0  0  0
  -28.7238  -21.0868   21.1188 H   0  0  0  0  0  0
  1 25  1  0  0  0
  1 30  2  0  0  0
  1 83  1  0  0  0
  2  3  1  0  0  0
  2 25  1  0  0  0
  2 87  1  0  0  0
  2 88  1  0  0  0
  3  4  1  0  0  0
  3 89  1  0  0  0
  3 90  1  0  0  0
  4  5  1  0  0  0
  4 91  1  0  0  0
  4 92  1  0  0  0
  5  6  1  0  0  0
  5 26  1  0  0  0
  5 93  1  0  0  0
  6 25  1  0  0  0
  6 94  1  0  0  0
  6 95  1  0  0  0
  7  8  2  0  0  0
  7 26  1  0  0  0
  7 29  1  0  0  0
  8  9  1  0  0  0
  8 22  1  0  0  0
  9 10  1  0  0  0
  9 27  2  0  0  0
 10 11  2  0  0  0
 10 15  1  0  0  0
 11 12  1  0  0  0
 11 96  1  0  0  0
 12 13  2  0  0  0
 12 97  1  0  0  0
 13 14  1  0  0  0
 13 31  1  0  0  0
 14 15  2  0  0  0
 14 98  1  0  0  0
 15 99  1  0  0  0
 16 17  2  0  0  0
 16 21  1  0  0  0
 16 31  1  0  0  0
 17 18  1  0  0  0
 17100  1  0  0  0
 18 19  2  0  0  0
 18101  1  0  0  0
 19 20  1  0  0  0
 19 24  1  0  0  0
 20 21  2  0  0  0
 20102  1  0  0  0
 21 23  1  0  0  0
 22 28  1  0  0  0
 22 32  2  0  0  0
 26 27  1  0  0  0
 28103  1  0  0  0
 28104  1  0  0  0
 29105  1  0  0  0
 29106  1  0  0  0
 33 34  1  0  0  0
 33 66  1  0  0  0
 33 70  2  0  0  0
 34 36  1  0  0  0
 34 59  1  0  0  0
 34107  1  0  0  0
 35 44  2  0  0  0
 35 45  1  0  0  0
 35 68  1  0  0  0
 36 56  1  0  0  0
 36108  1  0  0  0
 37 39  1  0  0  0
 37 47  1  0  0  0
 37 66  1  0  0  0
 37109  1  0  0  0
 38 43  2  0  0  0
 38 46  1  0  0  0
 38 47  1  0  0  0
 39 64  1  0  0  0
 39 67  2  0  0  0
 40 52  1  0  0  0
 40 53  2  0  0  0
 40 58  1  0  0  0
 41110  1  0  0  0
 41111  1  0  0  0
 41112  1  0  0  0
 41 48  1  0  0  0
 42 43  1  0  0  0
 42 66  1  0  0  0
 42113  1  0  0  0
 42114  1  0  0  0
 43 44  1  0  0  0
 44115  1  0  0  0
 45 46  2  0  0  0
 45116  1  0  0  0
 46117  1  0  0  0
 47118  1  0  0  0
 47119  1  0  0  0
 48 56  1  0  0  0
 48 65  1  0  0  0
 48120  1  0  0  0
 49 50  1  0  0  0
 49 53  1  0  0  0
 49 64  1  0  0  0
 49121  1  0  0  0
 50 51  1  0  0  0
 50122  1  0  0  0
 50123  1  0  0  0
 51 52  1  0  0  0
 51124  1  0  0  0
 51125  1  0  0  0
 52126  1  0  0  0
 52127  1  0  0  0
 53 54  1  0  0  0
 54 55  2  0  0  0
 54128  1  0  0  0
 55 57  1  0  0  0
 55129  1  0  0  0
 56 69  2  0  0  0
 57 58  2  0  0  0
 57130  1  0  0  0
 58131  1  0  0  0
 59 60  1  0  0  0
 59 61  1  0  0  0
 59 62  1  0  0  0
 60132  1  0  0  0
 60133  1  0  0  0
 60134  1  0  0  0
 61135  1  0  0  0
 61136  1  0  0  0
 61137  1  0  0  0
 62138  1  0  0  0
 62139  1  0  0  0
 62140  1  0  0  0
 63 65  1  0  0  0
 63141  1  0  0  0
 63142  1  0  0  0
 63143  1  0  0  0
 64144  1  0  0  0
 65145  1  0  0  0
 68 81  1  0  0  0
 71 72  2  0  0  0
 71 82  1  0  0  0
 71146  1  0  0  0
 72 74  1  0  0  0
 72 86  1  0  0  0
 73 82  2  0  0  0
 73 83  1  0  0  0
 73 86  1  0  0  0
 74 84  1  0  0  0
 74 85  2  0  0  0
 75147  1  0  0  0
 75148  1  0  0  0
 75149  1  0  0  0
 75 79  1  0  0  0
 76 79  1  0  0  0
 76150  1  0  0  0
 76151  1  0  0  0
 76152  1  0  0  0
 77153  1  0  0  0
 77154  1  0  0  0
 77155  1  0  0  0
 77 81  1  0  0  0
 78 81  1  0  0  0
 78156  1  0  0  0
 78157  1  0  0  0
 78 80  1  0  0  0
 79 80  1  0  0  0
 79158  1  0  0  0
 80 84  1  0  0  0
 80159  1  0  0  0
 81160  1  0  0  0
 83161  1  0  0  0
 84162  1  0  0  0
M  ISO  4   1 100  68 101  81 101  83 100
M  END
> <chiral flag>
0

> <version>
0

> <s_m_source_file>
/data/baiqing/PycharmProjects/Reinvent-master-3.2/result/LINK_invent/BTK/process_docking_weight1_custom_product_contain_oxygen_bond_distance_aromatic_linkinvent_7_9_3/rearranged_h_0190.sdf

> <i_m_source_file_index>
73

> <r_mmod_Potential_Energy-OPLS-2005>
-43.3521423339844

> <r_mmod_Stretch_Energy-OPLS-2005>
55.4553565979004

> <r_mmod_Bend_Energy-OPLS-2005>
136.334274291992

> <r_mmod_Torsional_Energy-OPLS-2005>
326.680877685547

> <r_mmod_Improper_Torsional_Energy-OPLS-2005>
9.78557968139648

> <r_mmod_Van_der_Waal_Energy-OPLS-2005>
126.742080688477

> <r_mmod_Electrostatic_Energy-OPLS-2005>
-489.206359863281

> <r_mmod_Solvation_Energy-OPLS-2005>
-232.071685791016

> <b_mmod_Minimization_Converged-OPLS-2005>
0

> <r_mmod_RMS_Derivative-OPLS-2005>
7.31301116943359

$$$$
73
                    3D
 Structure written by MMmdl.
156164  0  0  1  0            999 V2000
  -30.6645  -14.4860   20.5948 C   0  0  0  0  0  0
  -30.4370  -12.3235   19.4144 C   0  0  0  0  0  0
  -29.4988  -12.5141   18.2035 C   0  0  0  0  0  0
  -28.0188  -12.3677   18.6149 C   0  0  0  0  0  0
  -27.6644  -13.1985   19.8769 C   0  0  2  0  0  0
  -28.7051  -12.9535   20.9920 C   0  0  0  0  0  0
  -25.2611  -13.8142   20.5666 C   0  0  0  0  0  0
  -24.1849  -13.0437   20.9168 C   0  0  0  0  0  0
  -24.6385  -11.6898   20.8729 C   0  0  0  0  0  0
  -23.9046  -10.4293   21.0405 C   0  0  0  0  0  0
  -24.3604   -9.4212   21.9183 C   0  0  0  0  0  0
  -23.6287   -8.2243   22.0750 C   0  0  0  0  0  0
  -22.4269   -8.0279   21.3542 C   0  0  0  0  0  0
  -21.9898   -9.0252   20.4646 C   0  0  0  0  0  0
  -22.7218  -10.2135   20.3057 C   0  0  0  0  0  0
  -21.6854   -6.0733   22.5279 C   0  0  0  0  0  0
  -21.4014   -6.5638   23.8212 C   0  0  0  0  0  0
  -21.3659   -5.6790   24.9174 C   0  0  0  0  0  0
  -21.6045   -4.3053   24.7225 C   0  0  0  0  0  0
  -21.8820   -3.8145   23.4346 C   0  0  0  0  0  0
  -21.9193   -4.6960   22.3403 C   0  0  0  0  0  0
  -22.7875  -13.5250   21.1837 C   0  0  0  0  0  0
  -22.1662   -4.2147   21.0980 F   0  0  0  0  0  0
  -21.5630   -3.4537   25.7738 F   0  0  0  0  0  0
  -30.0345  -13.2883   20.4483 N   0  0  0  0  0  0
  -26.3034  -12.9289   20.3358 N   0  0  0  0  0  0
  -25.9307  -11.6459   20.5752 N   0  0  0  0  0  0
  -22.0504  -12.8254   22.0395 N   0  0  0  0  0  0
  -25.4372  -15.1856   20.4076 N   0  0  0  0  0  0
  -31.7790  -14.7299   20.1227 O   0  0  0  0  0  0
  -21.6638   -6.8873   21.4239 O   0  0  0  0  0  0
  -22.3567  -14.5558   20.6685 O   0  0  0  0  0  0
  -24.6155  -31.8681   23.2103 C   0  0  0  0  0  0
  -25.9044  -32.4828   23.8403 C   0  0  1  0  0  0
  -27.2365  -27.4218   20.1106 C   0  0  0  0  0  0
  -25.5899  -33.8626   24.2333 N   0  0  0  0  0  0
  -23.4052  -30.4897   21.5505 C   0  0  2  0  0  0
  -24.8553  -28.9481   20.1249 C   0  0  0  0  0  0
  -22.7418  -29.4657   22.4995 C   0  0  0  0  0  0
  -18.0277  -28.1372   22.8499 C   0  0  0  0  0  0
  -24.1486  -36.7318   23.2639 C   0  0  0  0  0  0
  -25.9347  -30.8265   21.3691 C   0  0  0  0  0  0
  -26.0136  -29.4542   20.7299 C   0  0  0  0  0  0
  -27.2091  -28.6956   20.7287 C   0  0  0  0  0  0
  -26.0683  -26.9373   19.4900 C   0  0  0  0  0  0
  -24.8764  -27.6862   19.5056 C   0  0  0  0  0  0
  -23.6179  -29.8179   20.1673 C   0  0  0  0  0  0
  -25.4107  -36.3115   24.0338 C   0  0  1  0  0  0
  -20.5869  -28.3661   23.1321 C   0  0  2  0  0  0
  -20.6771  -26.9395   22.5419 C   0  0  0  0  0  0
  -19.5746  -26.6378   21.5219 C   0  0  0  0  0  0
  -18.1924  -26.7921   22.1631 C   0  0  0  0  0  0
  -19.1526  -28.8834   23.2907 C   0  0  0  0  0  0
  -18.9450  -30.1445   23.8908 C   0  0  0  0  0  0
  -17.6451  -30.6578   24.0567 C   0  0  0  0  0  0
  -25.9034  -34.9480   23.5131 C   0  0  0  0  0  0
  -16.5344  -29.9077   23.6328 C   0  0  0  0  0  0
  -16.7266  -28.6494   23.0349 C   0  0  0  0  0  0
  -26.4474  -31.6609   25.0731 C   0  0  0  0  0  0
  -25.3744  -31.3715   26.1483 C   0  0  0  0  0  0
  -27.0302  -30.3050   24.6108 C   0  0  0  0  0  0
  -27.6049  -32.4332   25.7489 C   0  0  0  0  0  0
  -27.5580  -37.1815   24.8464 C   0  0  0  0  0  0
  -21.4146  -29.3032   22.3732 N   0  0  0  0  0  0
  -26.4295  -37.3797   23.9407 N   0  0  0  0  0  0
  -24.6697  -31.0766   22.1017 N   0  0  0  0  0  0
  -23.4191  -28.8193   23.3033 O   0  0  0  0  0  0
  -28.3825  -26.6643   20.0076 O   0  0  0  0  0  0
  -26.5589  -34.8927   22.4689 O   0  0  0  0  0  0
  -23.5343  -32.1437   23.7486 O   0  0  0  0  0  0
  -28.1112  -19.6106   19.8671 C   0  0  0  0  0  0
  -29.3197  -19.1436   20.3290 C   0  0  0  0  0  0
  -29.3933  -21.3258   21.0599 C   0  0  0  0  0  0
  -29.5745  -23.6727   22.0529 C   0  0  0  0  0  0
  -29.8629  -17.7385   20.0889 C   0  0  0  0  0  0
  -30.1417  -16.8826   21.3563 C   0  0  0  0  0  0
  -28.8579  -25.9914   21.1851 C   0  0  0  0  0  0
  -28.5243  -24.4563   21.2241 C   0  0  2  0  0  0
  -30.0437  -20.1475   21.0023 N   0  0  0  0  0  0
  -29.9526  -22.3940   21.8153 N   0  0  0  0  0  0
  -29.9070  -15.4350   21.1774 N   0  0  0  0  0  0
  -27.1875  -24.2475   21.8227 N   0  3  0  0  0  0
  -30.0639  -24.2445   23.0282 O   0  0  0  0  0  0
  -27.8339  -21.2924   20.2483 S   0  0  0  0  0  0
  -31.4773  -12.4535   19.1109 H   0  0  0  0  0  0
  -30.3643  -11.3059   19.8018 H   0  0  0  0  0  0
  -29.7426  -11.7939   17.4216 H   0  0  0  0  0  0
  -29.6593  -13.5020   17.7688 H   0  0  0  0  0  0
  -27.8293  -11.3102   18.8034 H   0  0  0  0  0  0
  -27.3683  -12.6480   17.7854 H   0  0  0  0  0  0
  -27.7147  -14.2496   19.5913 H   0  0  0  0  0  0
  -28.6903  -11.9059   21.2960 H   0  0  0  0  0  0
  -28.4570  -13.5143   21.8937 H   0  0  0  0  0  0
  -25.2751   -9.5693   22.4754 H   0  0  0  0  0  0
  -24.0005   -7.4633   22.7466 H   0  0  0  0  0  0
  -21.0830   -8.8766   19.8952 H   0  0  0  0  0  0
  -22.3675  -10.9672   19.6166 H   0  0  0  0  0  0
  -21.2006   -7.6146   23.9716 H   0  0  0  0  0  0
  -21.1482   -6.0520   25.9077 H   0  0  0  0  0  0
  -22.0600   -2.7608   23.2847 H   0  0  0  0  0  0
  -22.4105  -11.9915   22.4794 H   0  0  0  0  0  0
  -21.1121  -13.1291   22.2589 H   0  0  0  0  0  0
  -24.6746  -15.8455   20.5152 H   0  0  0  0  0  0
  -26.2945  -15.6192   20.0890 H   0  0  0  0  0  0
  -26.7118  -32.5543   23.1174 H   0  0  0  0  0  0
  -25.0076  -33.9794   25.0495 H   0  0  0  0  0  0
  -22.6946  -31.3063   21.4082 H   0  0  0  0  0  0
  -23.3743  -35.9657   23.3316 H   0  0  0  0  0  0
  -24.3579  -36.8915   22.2049 H   0  0  0  0  0  0
  -23.7243  -37.6531   23.6642 H   0  0  0  0  0  0
  -26.0460  -31.5851   20.5933 H   0  0  0  0  0  0
  -26.8235  -30.8878   21.9853 H   0  0  0  0  0  0
  -28.1076  -29.0927   21.1809 H   0  0  0  0  0  0
  -26.0834  -25.9824   18.9831 H   0  0  0  0  0  0
  -23.9890  -27.2956   19.0264 H   0  0  0  0  0  0
  -23.7301  -30.5899   19.4052 H   0  0  0  0  0  0
  -22.7422  -29.2374   19.8711 H   0  0  0  0  0  0
  -25.1286  -36.1986   25.0832 H   0  0  0  0  0  0
  -20.9962  -28.3219   24.1443 H   0  0  0  0  0  0
  -20.5678  -26.2265   23.3605 H   0  0  0  0  0  0
  -21.6641  -26.7441   22.1208 H   0  0  0  0  0  0
  -19.6903  -25.6291   21.1239 H   0  0  0  0  0  0
  -19.6682  -27.3199   20.6758 H   0  0  0  0  0  0
  -17.4199  -26.6682   21.4026 H   0  0  0  0  0  0
  -18.0315  -26.0054   22.9016 H   0  0  0  0  0  0
  -19.7923  -30.7265   24.2275 H   0  0  0  0  0  0
  -17.5000  -31.6260   24.5162 H   0  0  0  0  0  0
  -15.5342  -30.2979   23.7638 H   0  0  0  0  0  0
  -15.8671  -28.0815   22.7052 H   0  0  0  0  0  0
  -24.5886  -30.7104   25.7813 H   0  0  0  0  0  0
  -24.8980  -32.2876   26.4982 H   0  0  0  0  0  0
  -25.8095  -30.8832   27.0211 H   0  0  0  0  0  0
  -26.2841  -29.6814   24.1167 H   0  0  0  0  0  0
  -27.4073  -29.7287   25.4567 H   0  0  0  0  0  0
  -27.8681  -30.4367   23.9258 H   0  0  0  0  0  0
  -27.2664  -33.3616   26.2100 H   0  0  0  0  0  0
  -28.3838  -32.6921   25.0306 H   0  0  0  0  0  0
  -28.0744  -31.8443   26.5377 H   0  0  0  0  0  0
  -28.2609  -38.0104   24.7511 H   0  0  0  0  0  0
  -28.1065  -36.2637   24.6293 H   0  0  0  0  0  0
  -27.2298  -37.1471   25.8867 H   0  0  0  0  0  0
  -20.9304  -29.8760   21.6961 H   0  0  0  0  0  0
  -26.0185  -38.2877   24.1408 H   0  0  0  0  0  0
  -27.3637  -19.0645   19.3061 H   0  0  0  0  0  0
  -30.7734  -17.7895   19.4909 H   0  0  0  0  0  0
  -29.1510  -17.2006   19.4612 H   0  0  0  0  0  0
  -29.4607  -17.2000   22.1468 H   0  0  0  0  0  0
  -31.1480  -17.0725   21.7327 H   0  0  0  0  0  0
  -29.9403  -26.1262   21.1601 H   0  0  0  0  0  0
  -28.5271  -26.4951   22.0955 H   0  0  0  0  0  0
  -28.5424  -24.0788   20.2019 H   0  0  0  0  0  0
  -30.7346  -22.1056   22.3831 H   0  0  0  0  0  0
  -29.0155  -15.0991   21.5115 H   0  0  0  0  0  0
  -26.4792  -24.7568   21.3245 H   0  0  0  0  0  0
  -27.1911  -24.5545   22.7817 H   0  0  0  0  0  0
  -26.9404  -23.2738   21.8188 H   0  0  0  0  0  0
  1 25  1  0  0  0
  1 30  2  0  0  0
  1 81  1  0  0  0
  2  3  1  0  0  0
  2 25  1  0  0  0
  2 85  1  0  0  0
  2 86  1  0  0  0
  3  4  1  0  0  0
  3 87  1  0  0  0
  3 88  1  0  0  0
  4  5  1  0  0  0
  4 89  1  0  0  0
  4 90  1  0  0  0
  5  6  1  0  0  0
  5 26  1  0  0  0
  5 91  1  0  0  0
  6 25  1  0  0  0
  6 92  1  0  0  0
  6 93  1  0  0  0
  7  8  2  0  0  0
  7 26  1  0  0  0
  7 29  1  0  0  0
  8  9  1  0  0  0
  8 22  1  0  0  0
  9 10  1  0  0  0
  9 27  2  0  0  0
 10 11  2  0  0  0
 10 15  1  0  0  0
 11 12  1  0  0  0
 11 94  1  0  0  0
 12 13  2  0  0  0
 12 95  1  0  0  0
 13 14  1  0  0  0
 13 31  1  0  0  0
 14 15  2  0  0  0
 14 96  1  0  0  0
 15 97  1  0  0  0
 16 17  2  0  0  0
 16 21  1  0  0  0
 16 31  1  0  0  0
 17 18  1  0  0  0
 17 98  1  0  0  0
 18 19  2  0  0  0
 18 99  1  0  0  0
 19 20  1  0  0  0
 19 24  1  0  0  0
 20 21  2  0  0  0
 20100  1  0  0  0
 21 23  1  0  0  0
 22 28  1  0  0  0
 22 32  2  0  0  0
 26 27  1  0  0  0
 28101  1  0  0  0
 28102  1  0  0  0
 29103  1  0  0  0
 29104  1  0  0  0
 33 34  1  0  0  0
 33 66  1  0  0  0
 33 70  2  0  0  0
 34 36  1  0  0  0
 34 59  1  0  0  0
 34105  1  0  0  0
 35 44  2  0  0  0
 35 45  1  0  0  0
 35 68  1  0  0  0
 36 56  1  0  0  0
 36106  1  0  0  0
 37 39  1  0  0  0
 37 47  1  0  0  0
 37 66  1  0  0  0
 37107  1  0  0  0
 38 43  2  0  0  0
 38 46  1  0  0  0
 38 47  1  0  0  0
 39 64  1  0  0  0
 39 67  2  0  0  0
 40 52  1  0  0  0
 40 53  2  0  0  0
 40 58  1  0  0  0
 41108  1  0  0  0
 41109  1  0  0  0
 41110  1  0  0  0
 41 48  1  0  0  0
 42 43  1  0  0  0
 42 66  1  0  0  0
 42111  1  0  0  0
 42112  1  0  0  0
 43 44  1  0  0  0
 44113  1  0  0  0
 45 46  2  0  0  0
 45114  1  0  0  0
 46115  1  0  0  0
 47116  1  0  0  0
 47117  1  0  0  0
 48 56  1  0  0  0
 48 65  1  0  0  0
 48118  1  0  0  0
 49 50  1  0  0  0
 49 53  1  0  0  0
 49 64  1  0  0  0
 49119  1  0  0  0
 50 51  1  0  0  0
 50120  1  0  0  0
 50121  1  0  0  0
 51 52  1  0  0  0
 51122  1  0  0  0
 51123  1  0  0  0
 52124  1  0  0  0
 52125  1  0  0  0
 53 54  1  0  0  0
 54 55  2  0  0  0
 54126  1  0  0  0
 55 57  1  0  0  0
 55127  1  0  0  0
 56 69  2  0  0  0
 57 58  2  0  0  0
 57128  1  0  0  0
 58129  1  0  0  0
 59 60  1  0  0  0
 59 61  1  0  0  0
 59 62  1  0  0  0
 60130  1  0  0  0
 60131  1  0  0  0
 60132  1  0  0  0
 61133  1  0  0  0
 61134  1  0  0  0
 61135  1  0  0  0
 62136  1  0  0  0
 62137  1  0  0  0
 62138  1  0  0  0
 63 65  1  0  0  0
 63139  1  0  0  0
 63140  1  0  0  0
 63141  1  0  0  0
 64142  1  0  0  0
 65143  1  0  0  0
 68 77  1  0  0  0
 71 72  2  0  0  0
 71 84  1  0  0  0
 71144  1  0  0  0
 72 75  1  0  0  0
 72 79  1  0  0  0
 73 79  2  0  0  0
 73 80  1  0  0  0
 73 84  1  0  0  0
 74 78  1  0  0  0
 74 80  1  0  0  0
 74 83  2  0  0  0
 75 76  1  0  0  0
 75145  1  0  0  0
 75146  1  0  0  0
 76 81  1  0  0  0
 76147  1  0  0  0
 76148  1  0  0  0
 77 78  1  0  0  0
 77149  1  0  0  0
 77150  1  0  0  0
 78 82  1  0  0  0
 78151  1  0  0  0
 80152  1  0  0  0
 81153  1  0  0  0
 82154  1  0  0  0
 82155  1  0  0  0
 82156  1  0  0  0
M  CHG  1  82   1
M  ISO  4   1 100  68 101  77 101  81 100
M  END
> <chiral flag>
0

> <version>
0

> <s_m_source_file>
/data/baiqing/PycharmProjects/Reinvent-master-3.2/result/LINK_invent/BTK/process_docking_weight1_custom_product_contain_oxygen_bond_distance_aromatic_linkinvent_7_9_3/rearranged_h_0190.sdf

> <i_m_source_file_index>
74

> <r_mmod_Potential_Energy-OPLS-2005>
-447.710144042969

> <r_mmod_Stretch_Energy-OPLS-2005>
39.5585174560547

> <r_mmod_Bend_Energy-OPLS-2005>
128.051696777344

> <r_mmod_Torsional_Energy-OPLS-2005>
244.005828857422

> <r_mmod_Improper_Torsional_Energy-OPLS-2005>
4.11208295822144

> <r_mmod_Van_der_Waal_Energy-OPLS-2005>
119.386924743652

> <r_mmod_Electrostatic_Energy-OPLS-2005>
-508.82958984375

> <r_mmod_Solvation_Energy-OPLS-2005>
-487.361511230469

> <b_mmod_Minimization_Converged-OPLS-2005>
0

> <r_mmod_RMS_Derivative-OPLS-2005>
0.649525284767151

$$$$
74
                    3D
 Structure written by MMmdl.
172180  0  0  1  0            999 V2000
  -30.7132  -14.6131   20.5323 C   0  0  0  0  0  0
  -30.4160  -12.4008   19.4649 C   0  0  0  0  0  0
  -29.5032  -12.5052   18.2267 C   0  0  0  0  0  0
  -28.0285  -12.3311   18.6362 C   0  0  0  0  0  0
  -27.6486  -13.2113   19.8575 C   0  0  2  0  0  0
  -28.6901  -13.0840   20.9925 C   0  0  0  0  0  0
  -25.2530  -13.8123   20.5639 C   0  0  0  0  0  0
  -24.1793  -13.0424   20.9238 C   0  0  0  0  0  0
  -24.6392  -11.6905   20.8799 C   0  0  0  0  0  0
  -23.9071  -10.4281   21.0421 C   0  0  0  0  0  0
  -24.3631   -9.4183   21.9178 C   0  0  0  0  0  0
  -23.6303   -8.2234   22.0756 C   0  0  0  0  0  0
  -22.4286   -8.0293   21.3548 C   0  0  0  0  0  0
  -21.9885   -9.0283   20.4684 C   0  0  0  0  0  0
  -22.7212  -10.2175   20.3101 C   0  0  0  0  0  0
  -21.6869   -6.0724   22.5261 C   0  0  0  0  0  0
  -21.4025   -6.5644   23.8188 C   0  0  0  0  0  0
  -21.3685   -5.6825   24.9181 C   0  0  0  0  0  0
  -21.6042   -4.3072   24.7225 C   0  0  0  0  0  0
  -21.8805   -3.8143   23.4351 C   0  0  0  0  0  0
  -21.9200   -4.6950   22.3408 C   0  0  0  0  0  0
  -22.7812  -13.5272   21.1800 C   0  0  0  0  0  0
  -22.1634   -4.2118   21.0985 F   0  0  0  0  0  0
  -21.5661   -3.4569   25.7745 F   0  0  0  0  0  0
  -29.9968  -13.4443   20.4304 N   0  0  0  0  0  0
  -26.2958  -12.9318   20.3283 N   0  0  0  0  0  0
  -25.9317  -11.6502   20.5854 N   0  0  0  0  0  0
  -22.0310  -12.8301   22.0268 N   0  0  0  0  0  0
  -25.4203  -15.1764   20.3827 N   0  0  0  0  0  0
  -31.8690  -14.6658   20.1159 O   0  0  0  0  0  0
  -21.6653   -6.8875   21.4236 O   0  0  0  0  0  0
  -22.3608  -14.5603   20.6618 O   0  0  0  0  0  0
  -24.6196  -31.8641   23.2075 C   0  0  0  0  0  0
  -25.9067  -32.4790   23.8382 C   0  0  1  0  0  0
  -27.2216  -27.3707   20.1046 C   0  0  0  0  0  0
  -25.5889  -33.8601   24.2280 N   0  0  0  0  0  0
  -23.4116  -30.4898   21.5475 C   0  0  2  0  0  0
  -24.8574  -28.9474   20.1174 C   0  0  0  0  0  0
  -22.7426  -29.4640   22.4926 C   0  0  0  0  0  0
  -18.0290  -28.1424   22.8455 C   0  0  0  0  0  0
  -24.1501  -36.7303   23.2640 C   0  0  0  0  0  0
  -25.9499  -30.8085   21.3733 C   0  0  0  0  0  0
  -26.0228  -29.4387   20.7168 C   0  0  0  0  0  0
  -27.2113  -28.6606   20.7050 C   0  0  0  0  0  0
  -26.0386  -26.9113   19.4909 C   0  0  0  0  0  0
  -24.8619  -27.6836   19.5034 C   0  0  0  0  0  0
  -23.6258  -29.8260   20.1623 C   0  0  0  0  0  0
  -25.4121  -36.3089   24.0325 C   0  0  1  0  0  0
  -20.5884  -28.3697   23.1272 C   0  0  2  0  0  0
  -20.6781  -26.9416   22.5410 C   0  0  0  0  0  0
  -19.5769  -26.6400   21.5208 C   0  0  0  0  0  0
  -18.1944  -26.7950   22.1623 C   0  0  0  0  0  0
  -19.1545  -28.8863   23.2863 C   0  0  0  0  0  0
  -18.9462  -30.1465   23.8883 C   0  0  0  0  0  0
  -17.6465  -30.6600   24.0565 C   0  0  0  0  0  0
  -25.9058  -34.9464   23.5102 C   0  0  0  0  0  0
  -16.5352  -29.9111   23.6337 C   0  0  0  0  0  0
  -16.7274  -28.6547   23.0313 C   0  0  0  0  0  0
  -26.4473  -31.6590   25.0740 C   0  0  0  0  0  0
  -25.3703  -31.3740   26.1453 C   0  0  0  0  0  0
  -27.0299  -30.3002   24.6205 C   0  0  0  0  0  0
  -27.6047  -32.4313   25.7491 C   0  0  0  0  0  0
  -27.5593  -37.1820   24.8462 C   0  0  0  0  0  0
  -21.4150  -29.3055   22.3658 N   0  0  0  0  0  0
  -26.4301  -37.3780   23.9401 N   0  0  0  0  0  0
  -24.6787  -31.0695   22.1002 N   0  0  0  0  0  0
  -23.4161  -28.8167   23.3000 O   0  0  0  0  0  0
  -28.3460  -26.5559   20.0960 O   0  0  0  0  0  0
  -26.5645  -34.8902   22.4690 O   0  0  0  0  0  0
  -23.5368  -32.1423   23.7423 O   0  0  0  0  0  0
  -27.2481  -19.8390   20.4883 C   0  0  0  0  0  0
  -28.5940  -20.0765   20.5511 C   0  0  0  0  0  0
  -28.5426  -17.7652   21.0040 C   0  0  0  0  0  0
  -25.5982  -17.2287   25.0849 C   0  0  0  0  0  0
  -27.3323  -14.7869   24.5258 C   0  0  0  0  0  0
  -30.1574  -24.1970   19.4528 C   0  0  0  0  0  0
  -27.0241  -17.3340   24.5215 C   0  0  0  0  0  0
  -28.5936  -22.6397   20.8415 C   0  0  0  0  0  0
  -28.1893  -25.2376   20.7101 C   0  0  0  0  0  0
  -28.9335  -16.3496   21.5204 C   0  0  2  0  0  0
  -27.4923  -16.0998   23.7105 C   0  0  1  0  0  0
  -28.7213  -23.9528   19.9508 C   0  0  1  0  0  0
  -28.9228  -16.3351   23.0938 C   0  0  1  0  0  0
  -29.3202  -18.8751   20.8347 N   0  0  0  0  0  0
  -29.1894  -21.3634   20.3418 N   0  0  0  0  0  0
  -30.1878  -15.8173   20.9242 N   0  0  0  0  0  0
  -29.9480  -15.4610   23.7131 N   0  3  0  0  0  0
  -26.8400  -18.1709   20.7867 S   0  0  0  0  0  0
  -31.4578  -12.4981   19.1594 H   0  0  0  0  0  0
  -30.3427  -11.4084   19.9127 H   0  0  0  0  0  0
  -29.7772  -11.7450   17.4937 H   0  0  0  0  0  0
  -29.6476  -13.4692   17.7346 H   0  0  0  0  0  0
  -27.8779  -11.2818   18.8856 H   0  0  0  0  0  0
  -27.3673  -12.5358   17.7914 H   0  0  0  0  0  0
  -27.6676  -14.2382   19.4984 H   0  0  0  0  0  0
  -28.7165  -12.0578   21.3611 H   0  0  0  0  0  0
  -28.4227  -13.6884   21.8532 H   0  0  0  0  0  0
  -25.2842   -9.5627   22.4675 H   0  0  0  0  0  0
  -24.0017   -7.4610   22.7447 H   0  0  0  0  0  0
  -21.0805   -8.8884   19.9003 H   0  0  0  0  0  0
  -22.3699  -10.9749   19.6219 H   0  0  0  0  0  0
  -21.1976   -7.6149   23.9663 H   0  0  0  0  0  0
  -21.1551   -6.0564   25.9103 H   0  0  0  0  0  0
  -22.0564   -2.7583   23.2884 H   0  0  0  0  0  0
  -22.3820  -11.9903   22.4621 H   0  0  0  0  0  0
  -21.0892  -13.1398   22.2295 H   0  0  0  0  0  0
  -24.5891  -15.7576   20.3935 H   0  0  0  0  0  0
  -26.1035  -15.5041   19.7133 H   0  0  0  0  0  0
  -26.7111  -32.5487   23.1118 H   0  0  0  0  0  0
  -24.9917  -33.9791   25.0331 H   0  0  0  0  0  0
  -22.7034  -31.3097   21.4057 H   0  0  0  0  0  0
  -23.3761  -35.9645   23.3307 H   0  0  0  0  0  0
  -24.3550  -36.8944   22.2054 H   0  0  0  0  0  0
  -23.7291  -37.6524   23.6647 H   0  0  0  0  0  0
  -26.0794  -31.5728   20.6055 H   0  0  0  0  0  0
  -26.8316  -30.8517   22.0025 H   0  0  0  0  0  0
  -28.1058  -29.0383   21.1800 H   0  0  0  0  0  0
  -26.0217  -25.9447   19.0044 H   0  0  0  0  0  0
  -23.9632  -27.3004   19.0393 H   0  0  0  0  0  0
  -23.7447  -30.6079   19.4105 H   0  0  0  0  0  0
  -22.7463  -29.2550   19.8560 H   0  0  0  0  0  0
  -25.1317  -36.1939   25.0820 H   0  0  0  0  0  0
  -20.9975  -28.3312   24.1398 H   0  0  0  0  0  0
  -20.5690  -26.2323   23.3625 H   0  0  0  0  0  0
  -21.6650  -26.7456   22.1205 H   0  0  0  0  0  0
  -19.6940  -25.6313   21.1242 H   0  0  0  0  0  0
  -19.6736  -27.3202   20.6725 H   0  0  0  0  0  0
  -17.4206  -26.6639   21.4036 H   0  0  0  0  0  0
  -18.0371  -26.0122   22.9060 H   0  0  0  0  0  0
  -19.7938  -30.7284   24.2252 H   0  0  0  0  0  0
  -17.5026  -31.6274   24.5187 H   0  0  0  0  0  0
  -15.5357  -30.3015   23.7666 H   0  0  0  0  0  0
  -15.8673  -28.0883   22.7002 H   0  0  0  0  0  0
  -24.5861  -30.7108   25.7770 H   0  0  0  0  0  0
  -24.8887  -32.2911   26.4838 H   0  0  0  0  0  0
  -25.7999  -30.8927   27.0247 H   0  0  0  0  0  0
  -26.2867  -29.6787   24.1172 H   0  0  0  0  0  0
  -27.3922  -29.7218   25.4729 H   0  0  0  0  0  0
  -27.8770  -30.4276   23.9454 H   0  0  0  0  0  0
  -27.2649  -33.3604   26.2064 H   0  0  0  0  0  0
  -28.3821  -32.6889   25.0285 H   0  0  0  0  0  0
  -28.0729  -31.8444   26.5408 H   0  0  0  0  0  0
  -28.2607  -38.0124   24.7479 H   0  0  0  0  0  0
  -28.1096  -36.2649   24.6294 H   0  0  0  0  0  0
  -27.2296  -37.1482   25.8869 H   0  0  0  0  0  0
  -20.9310  -29.8752   21.6849 H   0  0  0  0  0  0
  -26.0191  -38.2867   24.1383 H   0  0  0  0  0  0
  -26.4542  -20.5435   20.2753 H   0  0  0  0  0  0
  -25.2763  -18.1825   25.5072 H   0  0  0  0  0  0
  -25.5410  -16.4915   25.8862 H   0  0  0  0  0  0
  -24.8758  -16.9475   24.3160 H   0  0  0  0  0  0
  -26.2861  -14.6029   24.7672 H   0  0  0  0  0  0
  -27.8766  -14.8141   25.4732 H   0  0  0  0  0  0
  -27.6577  -13.9057   23.9743 H   0  0  0  0  0  0
  -30.5513  -23.3398   18.9061 H   0  0  0  0  0  0
  -30.8421  -24.4052   20.2735 H   0  0  0  0  0  0
  -30.1898  -25.0516   18.7733 H   0  0  0  0  0  0
  -27.7163  -17.5298   25.3417 H   0  0  0  0  0  0
  -27.0657  -18.2180   23.8825 H   0  0  0  0  0  0
  -27.5365  -22.4845   21.0683 H   0  0  0  0  0  0
  -29.0605  -22.8417   21.8074 H   0  0  0  0  0  0
  -28.7288  -25.3088   21.6566 H   0  0  0  0  0  0
  -27.1518  -25.0606   20.9989 H   0  0  0  0  0  0
  -28.1401  -15.7038   21.1573 H   0  0  0  0  0  0
  -26.7844  -16.0047   22.8868 H   0  0  0  0  0  0
  -28.0975  -23.8174   19.0638 H   0  0  0  0  0  0
  -29.2553  -17.3313   23.3955 H   0  0  0  0  0  0
  -30.2055  -21.3648   20.3319 H   0  0  0  0  0  0
  -30.8537  -16.5624   20.7764 H   0  0  0  0  0  0
  -29.7502  -14.4829   23.6036 H   0  0  0  0  0  0
  -29.9946  -15.6577   24.6986 H   0  0  0  0  0  0
  -30.8542  -15.6630   23.3304 H   0  0  0  0  0  0
  1 25  1  0  0  0
  1 30  2  0  0  0
  1 86  1  0  0  0
  2  3  1  0  0  0
  2 25  1  0  0  0
  2 89  1  0  0  0
  2 90  1  0  0  0
  3  4  1  0  0  0
  3 91  1  0  0  0
  3 92  1  0  0  0
  4  5  1  0  0  0
  4 93  1  0  0  0
  4 94  1  0  0  0
  5  6  1  0  0  0
  5 26  1  0  0  0
  5 95  1  0  0  0
  6 25  1  0  0  0
  6 96  1  0  0  0
  6 97  1  0  0  0
  7  8  2  0  0  0
  7 26  1  0  0  0
  7 29  1  0  0  0
  8  9  1  0  0  0
  8 22  1  0  0  0
  9 10  1  0  0  0
  9 27  2  0  0  0
 10 11  2  0  0  0
 10 15  1  0  0  0
 11 12  1  0  0  0
 11 98  1  0  0  0
 12 13  2  0  0  0
 12 99  1  0  0  0
 13 14  1  0  0  0
 13 31  1  0  0  0
 14 15  2  0  0  0
 14100  1  0  0  0
 15101  1  0  0  0
 16 17  2  0  0  0
 16 21  1  0  0  0
 16 31  1  0  0  0
 17 18  1  0  0  0
 17102  1  0  0  0
 18 19  2  0  0  0
 18103  1  0  0  0
 19 20  1  0  0  0
 19 24  1  0  0  0
 20 21  2  0  0  0
 20104  1  0  0  0
 21 23  1  0  0  0
 22 28  1  0  0  0
 22 32  2  0  0  0
 26 27  1  0  0  0
 28105  1  0  0  0
 28106  1  0  0  0
 29107  1  0  0  0
 29108  1  0  0  0
 33 34  1  0  0  0
 33 66  1  0  0  0
 33 70  2  0  0  0
 34 36  1  0  0  0
 34 59  1  0  0  0
 34109  1  0  0  0
 35 44  2  0  0  0
 35 45  1  0  0  0
 35 68  1  0  0  0
 36 56  1  0  0  0
 36110  1  0  0  0
 37 39  1  0  0  0
 37 47  1  0  0  0
 37 66  1  0  0  0
 37111  1  0  0  0
 38 43  2  0  0  0
 38 46  1  0  0  0
 38 47  1  0  0  0
 39 64  1  0  0  0
 39 67  2  0  0  0
 40 52  1  0  0  0
 40 53  2  0  0  0
 40 58  1  0  0  0
 41112  1  0  0  0
 41113  1  0  0  0
 41114  1  0  0  0
 41 48  1  0  0  0
 42 43  1  0  0  0
 42 66  1  0  0  0
 42115  1  0  0  0
 42116  1  0  0  0
 43 44  1  0  0  0
 44117  1  0  0  0
 45 46  2  0  0  0
 45118  1  0  0  0
 46119  1  0  0  0
 47120  1  0  0  0
 47121  1  0  0  0
 48 56  1  0  0  0
 48 65  1  0  0  0
 48122  1  0  0  0
 49 50  1  0  0  0
 49 53  1  0  0  0
 49 64  1  0  0  0
 49123  1  0  0  0
 50 51  1  0  0  0
 50124  1  0  0  0
 50125  1  0  0  0
 51 52  1  0  0  0
 51126  1  0  0  0
 51127  1  0  0  0
 52128  1  0  0  0
 52129  1  0  0  0
 53 54  1  0  0  0
 54 55  2  0  0  0
 54130  1  0  0  0
 55 57  1  0  0  0
 55131  1  0  0  0
 56 69  2  0  0  0
 57 58  2  0  0  0
 57132  1  0  0  0
 58133  1  0  0  0
 59 60  1  0  0  0
 59 61  1  0  0  0
 59 62  1  0  0  0
 60134  1  0  0  0
 60135  1  0  0  0
 60136  1  0  0  0
 61137  1  0  0  0
 61138  1  0  0  0
 61139  1  0  0  0
 62140  1  0  0  0
 62141  1  0  0  0
 62142  1  0  0  0
 63 65  1  0  0  0
 63143  1  0  0  0
 63144  1  0  0  0
 63145  1  0  0  0
 64146  1  0  0  0
 65147  1  0  0  0
 68 79  1  0  0  0
 71 72  2  0  0  0
 71 88  1  0  0  0
 71148  1  0  0  0
 72 84  1  0  0  0
 72 85  1  0  0  0
 73 80  1  0  0  0
 73 84  2  0  0  0
 73 88  1  0  0  0
 74 77  1  0  0  0
 74149  1  0  0  0
 74150  1  0  0  0
 74151  1  0  0  0
 75152  1  0  0  0
 75153  1  0  0  0
 75154  1  0  0  0
 75 81  1  0  0  0
 76155  1  0  0  0
 76156  1  0  0  0
 76157  1  0  0  0
 76 82  1  0  0  0
 77 81  1  0  0  0
 77158  1  0  0  0
 77159  1  0  0  0
 78 82  1  0  0  0
 78 85  1  0  0  0
 78160  1  0  0  0
 78161  1  0  0  0
 79 82  1  0  0  0
 79162  1  0  0  0
 79163  1  0  0  0
 80 83  1  0  0  0
 80 86  1  0  0  0
 80164  1  0  0  0
 81 83  1  0  0  0
 81165  1  0  0  0
 82166  1  0  0  0
 83 87  1  0  0  0
 83167  1  0  0  0
 85168  1  0  0  0
 86169  1  0  0  0
 87170  1  0  0  0
 87171  1  0  0  0
 87172  1  0  0  0
M  CHG  1  87   1
M  ISO  4   1 100  68 101  79 101  86 100
M  END
> <chiral flag>
0

> <version>
0

> <s_m_source_file>
/data/baiqing/PycharmProjects/Reinvent-master-3.2/result/LINK_invent/BTK/process_docking_weight1_custom_product_contain_oxygen_bond_distance_aromatic_linkinvent_7_9_3/rearranged_h_0190.sdf

> <i_m_source_file_index>
75

> <r_mmod_Potential_Energy-OPLS-2005>
-296.421539306641

> <r_mmod_Stretch_Energy-OPLS-2005>
72.5184020996094

> <r_mmod_Bend_Energy-OPLS-2005>
184.700180053711

> <r_mmod_Torsional_Energy-OPLS-2005>
336.231750488281

> <r_mmod_Improper_Torsional_Energy-OPLS-2005>
9.807861328125

> <r_mmod_Van_der_Waal_Energy-OPLS-2005>
111.767944335938

> <r_mmod_Electrostatic_Energy-OPLS-2005>
-555.307312011719

> <r_mmod_Solvation_Energy-OPLS-2005>
-492.481750488281

> <b_mmod_Minimization_Converged-OPLS-2005>
0

> <r_mmod_RMS_Derivative-OPLS-2005>
4.72312641143799

$$$$
75
                    3D
 Structure written by MMmdl.
155163  0  0  1  0            999 V2000
  -30.6899  -14.5382   20.5704 C   0  0  0  0  0  0
  -30.4291  -12.3492   19.4392 C   0  0  0  0  0  0
  -29.5028  -12.5072   18.2161 C   0  0  0  0  0  0
  -28.0244  -12.3553   18.6247 C   0  0  0  0  0  0
  -27.6568  -13.2133   19.8648 C   0  0  2  0  0  0
  -28.6982  -13.0380   20.9928 C   0  0  0  0  0  0
  -25.2577  -13.8191   20.5665 C   0  0  0  0  0  0
  -24.1838  -13.0454   20.9182 C   0  0  0  0  0  0
  -24.6398  -11.6920   20.8727 C   0  0  0  0  0  0
  -23.9059  -10.4304   21.0396 C   0  0  0  0  0  0
  -24.3617   -9.4217   21.9167 C   0  0  0  0  0  0
  -23.6298   -8.2249   22.0738 C   0  0  0  0  0  0
  -22.4276   -8.0288   21.3547 C   0  0  0  0  0  0
  -21.9913   -9.0254   20.4637 C   0  0  0  0  0  0
  -22.7232  -10.2138   20.3041 C   0  0  0  0  0  0
  -21.6855   -6.0739   22.5281 C   0  0  0  0  0  0
  -21.4010   -6.5641   23.8216 C   0  0  0  0  0  0
  -21.3660   -5.6793   24.9175 C   0  0  0  0  0  0
  -21.6052   -4.3058   24.7226 C   0  0  0  0  0  0
  -21.8820   -3.8150   23.4345 C   0  0  0  0  0  0
  -21.9194   -4.6969   22.3403 C   0  0  0  0  0  0
  -22.7858  -13.5243   21.1846 C   0  0  0  0  0  0
  -22.1658   -4.2164   21.0978 F   0  0  0  0  0  0
  -21.5637   -3.4535   25.7733 F   0  0  0  0  0  0
  -30.0228  -13.3546   20.4358 N   0  0  0  0  0  0
  -26.3002  -12.9356   20.3305 N   0  0  0  0  0  0
  -25.9326  -11.6518   20.5739 N   0  0  0  0  0  0
  -22.0499  -12.8230   22.0411 N   0  0  0  0  0  0
  -25.4333  -15.1899   20.4078 N   0  0  0  0  0  0
  -31.8283  -14.7058   20.1276 O   0  0  0  0  0  0
  -21.6643   -6.8880   21.4242 O   0  0  0  0  0  0
  -22.3534  -14.5542   20.6687 O   0  0  0  0  0  0
  -24.6177  -31.8653   23.2068 C   0  0  0  0  0  0
  -25.9053  -32.4813   23.8374 C   0  0  1  0  0  0
  -27.2275  -27.3910   20.1247 C   0  0  0  0  0  0
  -25.5892  -33.8610   24.2310 N   0  0  0  0  0  0
  -23.4083  -30.4882   21.5481 C   0  0  2  0  0  0
  -24.8559  -28.9496   20.1135 C   0  0  0  0  0  0
  -22.7431  -29.4645   22.4977 C   0  0  0  0  0  0
  -18.0269  -28.1360   22.8501 C   0  0  0  0  0  0
  -24.1485  -36.7313   23.2641 C   0  0  0  0  0  0
  -25.9404  -30.8223   21.3623 C   0  0  0  0  0  0
  -26.0192  -29.4529   20.7114 C   0  0  0  0  0  0
  -27.2119  -28.6853   20.7052 C   0  0  0  0  0  0
  -26.0505  -26.9173   19.5072 C   0  0  0  0  0  0
  -24.8696  -27.6841   19.5021 C   0  0  0  0  0  0
  -23.6190  -29.8207   20.1630 C   0  0  0  0  0  0
  -25.4101  -36.3113   24.0345 C   0  0  1  0  0  0
  -20.5869  -28.3656   23.1314 C   0  0  2  0  0  0
  -20.6762  -26.9391   22.5418 C   0  0  0  0  0  0
  -19.5735  -26.6375   21.5217 C   0  0  0  0  0  0
  -18.1915  -26.7907   22.1633 C   0  0  0  0  0  0
  -19.1524  -28.8820   23.2906 C   0  0  0  0  0  0
  -18.9453  -30.1427   23.8916 C   0  0  0  0  0  0
  -17.6459  -30.6575   24.0561 C   0  0  0  0  0  0
  -25.9028  -34.9479   23.5132 C   0  0  0  0  0  0
  -16.5345  -29.9079   23.6327 C   0  0  0  0  0  0
  -16.7262  -28.6490   23.0356 C   0  0  0  0  0  0
  -26.4460  -31.6589   25.0705 C   0  0  0  0  0  0
  -25.3732  -31.3704   26.1463 C   0  0  0  0  0  0
  -27.0279  -30.3029   24.6076 C   0  0  0  0  0  0
  -27.6030  -32.4305   25.7471 C   0  0  0  0  0  0
  -27.5582  -37.1807   24.8467 C   0  0  0  0  0  0
  -21.4149  -29.3034   22.3728 N   0  0  0  0  0  0
  -26.4289  -37.3793   23.9419 N   0  0  0  0  0  0
  -24.6744  -31.0730   22.0981 N   0  0  0  0  0  0
  -23.4189  -28.8194   23.3037 O   0  0  0  0  0  0
  -28.3580  -26.5897   20.1542 O   0  0  0  0  0  0
  -26.5605  -34.8933   22.4700 O   0  0  0  0  0  0
  -23.5360  -32.1419   23.7442 O   0  0  0  0  0  0
  -29.7778  -17.8866   19.1090 C   0  0  0  0  0  0
  -29.9926  -18.0393   20.4550 C   0  0  0  0  0  0
  -29.4357  -20.2128   19.8712 C   0  0  0  0  0  0
  -29.9774  -22.7416   21.9694 C   0  0  0  0  0  0
  -30.4644  -16.9380   21.4038 C   0  0  0  0  0  0
  -28.1934  -25.2918   20.7979 C   0  0  0  0  0  0
  -28.9415  -22.7137   20.8376 C   0  0  1  0  0  0
  -28.8815  -24.0901   20.0582 C   0  0  1  0  0  0
  -29.7707  -19.3802   20.8791 N   0  0  0  0  0  0
  -29.2001  -21.5999   19.9060 N   0  0  0  0  0  0
  -29.9883  -15.5634   21.1039 N   0  0  0  0  0  0
  -28.1335  -23.8489   18.8765 O   0  0  0  0  0  0
  -29.3307  -19.3794   18.3251 S   0  0  0  0  0  0
  -31.4718  -12.4584   19.1384 H   0  0  0  0  0  0
  -30.3455  -11.3462   19.8608 H   0  0  0  0  0  0
  -29.7604  -11.7706   17.4539 H   0  0  0  0  0  0
  -29.6614  -13.4866   17.7612 H   0  0  0  0  0  0
  -27.8475  -11.3005   18.8378 H   0  0  0  0  0  0
  -27.3754  -12.6078   17.7847 H   0  0  0  0  0  0
  -27.6880  -14.2543   19.5426 H   0  0  0  0  0  0
  -28.6900  -12.0124   21.3637 H   0  0  0  0  0  0
  -28.4473  -13.6626   21.8511 H   0  0  0  0  0  0
  -25.2758   -9.5706   22.4745 H   0  0  0  0  0  0
  -24.0024   -7.4639   22.7447 H   0  0  0  0  0  0
  -21.0853   -8.8760   19.8937 H   0  0  0  0  0  0
  -22.3676  -10.9677   19.6157 H   0  0  0  0  0  0
  -21.1987   -7.6146   23.9726 H   0  0  0  0  0  0
  -21.1486   -6.0514   25.9083 H   0  0  0  0  0  0
  -22.0598   -2.7615   23.2835 H   0  0  0  0  0  0
  -22.4097  -11.9888   22.4811 H   0  0  0  0  0  0
  -21.1113  -13.1255   22.2598 H   0  0  0  0  0  0
  -24.6736  -15.8534   20.5127 H   0  0  0  0  0  0
  -26.2915  -15.6241   20.0917 H   0  0  0  0  0  0
  -26.7126  -32.5521   23.1135 H   0  0  0  0  0  0
  -25.0034  -33.9751   25.0454 H   0  0  0  0  0  0
  -22.7000  -31.3072   21.4078 H   0  0  0  0  0  0
  -23.3746  -35.9647   23.3299 H   0  0  0  0  0  0
  -24.3591  -36.8919   22.2057 H   0  0  0  0  0  0
  -23.7231  -37.6517   23.6646 H   0  0  0  0  0  0
  -26.0526  -31.5850   20.5900 H   0  0  0  0  0  0
  -26.8292  -30.8800   21.9791 H   0  0  0  0  0  0
  -28.1089  -29.0694   21.1712 H   0  0  0  0  0  0
  -26.0401  -25.9433   19.0394 H   0  0  0  0  0  0
  -23.9786  -27.2894   19.0326 H   0  0  0  0  0  0
  -23.7321  -30.5969   19.4053 H   0  0  0  0  0  0
  -22.7416  -29.2439   19.8653 H   0  0  0  0  0  0
  -25.1274  -36.1975   25.0836 H   0  0  0  0  0  0
  -20.9957  -28.3211   24.1433 H   0  0  0  0  0  0
  -20.5655  -26.2266   23.3605 H   0  0  0  0  0  0
  -21.6630  -26.7426   22.1214 H   0  0  0  0  0  0
  -19.6900  -25.6293   21.1224 H   0  0  0  0  0  0
  -19.6661  -27.3207   20.6763 H   0  0  0  0  0  0
  -17.4187  -26.6661   21.4028 H   0  0  0  0  0  0
  -18.0311  -26.0031   22.9011 H   0  0  0  0  0  0
  -19.7930  -30.7232   24.2294 H   0  0  0  0  0  0
  -17.5015  -31.6259   24.5152 H   0  0  0  0  0  0
  -15.5347  -30.2992   23.7620 H   0  0  0  0  0  0
  -15.8659  -28.0807   22.7070 H   0  0  0  0  0  0
  -24.5900  -30.7038   25.7821 H   0  0  0  0  0  0
  -24.8924  -32.2862   26.4915 H   0  0  0  0  0  0
  -25.8096  -30.8885   27.0221 H   0  0  0  0  0  0
  -26.2817  -29.6803   24.1116 H   0  0  0  0  0  0
  -27.4038  -29.7238   25.4520 H   0  0  0  0  0  0
  -27.8659  -30.4340   23.9226 H   0  0  0  0  0  0
  -27.2641  -33.3592   26.2070 H   0  0  0  0  0  0
  -28.3830  -32.6877   25.0295 H   0  0  0  0  0  0
  -28.0707  -31.8418   26.5370 H   0  0  0  0  0  0
  -28.2597  -38.0107   24.7525 H   0  0  0  0  0  0
  -28.1079  -36.2641   24.6271 H   0  0  0  0  0  0
  -27.2314  -37.1438   25.8873 H   0  0  0  0  0  0
  -20.9302  -29.8778   21.6972 H   0  0  0  0  0  0
  -26.0181  -38.2872   24.1414 H   0  0  0  0  0  0
  -29.8875  -16.9824   18.5240 H   0  0  0  0  0  0
  -29.7278  -23.4982   22.7134 H   0  0  0  0  0  0
  -30.9743  -22.9672   21.5920 H   0  0  0  0  0  0
  -30.0282  -21.7854   22.4913 H   0  0  0  0  0  0
  -30.1520  -17.1694   22.4224 H   0  0  0  0  0  0
  -31.5558  -16.9410   21.4423 H   0  0  0  0  0  0
  -28.6439  -25.3959   21.7854 H   0  0  0  0  0  0
  -27.1488  -25.0466   20.9996 H   0  0  0  0  0  0
  -27.9597  -22.5322   21.2782 H   0  0  0  0  0  0
  -29.8922  -24.3875   19.7715 H   0  0  0  0  0  0
  -28.9522  -21.9555   18.9816 H   0  0  0  0  0  0
  -29.0428  -15.3556   21.3843 H   0  0  0  0  0  0
  -28.0503  -24.6890   18.4369 H   0  0  0  0  0  0
  1 25  1  0  0  0
  1 30  2  0  0  0
  1 81  1  0  0  0
  2  3  1  0  0  0
  2 25  1  0  0  0
  2 84  1  0  0  0
  2 85  1  0  0  0
  3  4  1  0  0  0
  3 86  1  0  0  0
  3 87  1  0  0  0
  4  5  1  0  0  0
  4 88  1  0  0  0
  4 89  1  0  0  0
  5  6  1  0  0  0
  5 26  1  0  0  0
  5 90  1  0  0  0
  6 25  1  0  0  0
  6 91  1  0  0  0
  6 92  1  0  0  0
  7  8  2  0  0  0
  7 26  1  0  0  0
  7 29  1  0  0  0
  8  9  1  0  0  0
  8 22  1  0  0  0
  9 10  1  0  0  0
  9 27  2  0  0  0
 10 11  2  0  0  0
 10 15  1  0  0  0
 11 12  1  0  0  0
 11 93  1  0  0  0
 12 13  2  0  0  0
 12 94  1  0  0  0
 13 14  1  0  0  0
 13 31  1  0  0  0
 14 15  2  0  0  0
 14 95  1  0  0  0
 15 96  1  0  0  0
 16 17  2  0  0  0
 16 21  1  0  0  0
 16 31  1  0  0  0
 17 18  1  0  0  0
 17 97  1  0  0  0
 18 19  2  0  0  0
 18 98  1  0  0  0
 19 20  1  0  0  0
 19 24  1  0  0  0
 20 21  2  0  0  0
 20 99  1  0  0  0
 21 23  1  0  0  0
 22 28  1  0  0  0
 22 32  2  0  0  0
 26 27  1  0  0  0
 28100  1  0  0  0
 28101  1  0  0  0
 29102  1  0  0  0
 29103  1  0  0  0
 33 34  1  0  0  0
 33 66  1  0  0  0
 33 70  2  0  0  0
 34 36  1  0  0  0
 34 59  1  0  0  0
 34104  1  0  0  0
 35 44  2  0  0  0
 35 45  1  0  0  0
 35 68  1  0  0  0
 36 56  1  0  0  0
 36105  1  0  0  0
 37 39  1  0  0  0
 37 47  1  0  0  0
 37 66  1  0  0  0
 37106  1  0  0  0
 38 43  2  0  0  0
 38 46  1  0  0  0
 38 47  1  0  0  0
 39 64  1  0  0  0
 39 67  2  0  0  0
 40 52  1  0  0  0
 40 53  2  0  0  0
 40 58  1  0  0  0
 41107  1  0  0  0
 41108  1  0  0  0
 41109  1  0  0  0
 41 48  1  0  0  0
 42 43  1  0  0  0
 42 66  1  0  0  0
 42110  1  0  0  0
 42111  1  0  0  0
 43 44  1  0  0  0
 44112  1  0  0  0
 45 46  2  0  0  0
 45113  1  0  0  0
 46114  1  0  0  0
 47115  1  0  0  0
 47116  1  0  0  0
 48 56  1  0  0  0
 48 65  1  0  0  0
 48117  1  0  0  0
 49 50  1  0  0  0
 49 53  1  0  0  0
 49 64  1  0  0  0
 49118  1  0  0  0
 50 51  1  0  0  0
 50119  1  0  0  0
 50120  1  0  0  0
 51 52  1  0  0  0
 51121  1  0  0  0
 51122  1  0  0  0
 52123  1  0  0  0
 52124  1  0  0  0
 53 54  1  0  0  0
 54 55  2  0  0  0
 54125  1  0  0  0
 55 57  1  0  0  0
 55126  1  0  0  0
 56 69  2  0  0  0
 57 58  2  0  0  0
 57127  1  0  0  0
 58128  1  0  0  0
 59 60  1  0  0  0
 59 61  1  0  0  0
 59 62  1  0  0  0
 60129  1  0  0  0
 60130  1  0  0  0
 60131  1  0  0  0
 61132  1  0  0  0
 61133  1  0  0  0
 61134  1  0  0  0
 62135  1  0  0  0
 62136  1  0  0  0
 62137  1  0  0  0
 63 65  1  0  0  0
 63138  1  0  0  0
 63139  1  0  0  0
 63140  1  0  0  0
 64141  1  0  0  0
 65142  1  0  0  0
 68 76  1  0  0  0
 71 72  2  0  0  0
 71 83  1  0  0  0
 71143  1  0  0  0
 72 75  1  0  0  0
 72 79  1  0  0  0
 73 79  2  0  0  0
 73 80  1  0  0  0
 73 83  1  0  0  0
 74144  1  0  0  0
 74145  1  0  0  0
 74146  1  0  0  0
 74 77  1  0  0  0
 75 81  1  0  0  0
 75147  1  0  0  0
 75148  1  0  0  0
 76 78  1  0  0  0
 76149  1  0  0  0
 76150  1  0  0  0
 77 78  1  0  0  0
 77 80  1  0  0  0
 77151  1  0  0  0
 78 82  1  0  0  0
 78152  1  0  0  0
 80153  1  0  0  0
 81154  1  0  0  0
 82155  1  0  0  0
M  ISO  4   1 100  68 101  76 101  81 100
M  END
> <chiral flag>
0

> <version>
0

> <s_m_source_file>
/data/baiqing/PycharmProjects/Reinvent-master-3.2/result/LINK_invent/BTK/process_docking_weight1_custom_product_contain_oxygen_bond_distance_aromatic_linkinvent_7_9_3/rearranged_h_0190.sdf

> <i_m_source_file_index>
76

> <r_mmod_Potential_Energy-OPLS-2005>
-278.364105224609

> <r_mmod_Stretch_Energy-OPLS-2005>
48.1244850158691

> <r_mmod_Bend_Energy-OPLS-2005>
111.925079345703

> <r_mmod_Torsional_Energy-OPLS-2005>
237.260101318359

> <r_mmod_Improper_Torsional_Energy-OPLS-2005>
3.43008923530579

> <r_mmod_Van_der_Waal_Energy-OPLS-2005>
123.629936218262

> <r_mmod_Electrostatic_Energy-OPLS-2005>
-594.173706054688

> <r_mmod_Solvation_Energy-OPLS-2005>
-231.923187255859

> <b_mmod_Minimization_Converged-OPLS-2005>
0

> <r_mmod_RMS_Derivative-OPLS-2005>
1.88336169719696

$$$$
76
                    3D
 Structure written by MMmdl.
157165  0  0  1  0            999 V2000
  -30.6404  -14.5541   20.5426 C   0  0  0  0  0  0
  -30.4428  -12.3486   19.4428 C   0  0  0  0  0  0
  -29.5135  -12.5269   18.2215 C   0  0  0  0  0  0
  -28.0316  -12.3795   18.6220 C   0  0  0  0  0  0
  -27.6681  -13.2102   19.8811 C   0  0  2  0  0  0
  -28.7119  -12.9963   21.0051 C   0  0  0  0  0  0
  -25.2634  -13.8159   20.5692 C   0  0  0  0  0  0
  -24.1874  -13.0432   20.9199 C   0  0  0  0  0  0
  -24.6423  -11.6899   20.8721 C   0  0  0  0  0  0
  -23.9070  -10.4297   21.0397 C   0  0  0  0  0  0
  -24.3622   -9.4216   21.9182 C   0  0  0  0  0  0
  -23.6299   -8.2254   22.0745 C   0  0  0  0  0  0
  -22.4281   -8.0289   21.3539 C   0  0  0  0  0  0
  -21.9918   -9.0258   20.4636 C   0  0  0  0  0  0
  -22.7240  -10.2144   20.3042 C   0  0  0  0  0  0
  -21.6861   -6.0742   22.5280 C   0  0  0  0  0  0
  -21.4005   -6.5635   23.8215 C   0  0  0  0  0  0
  -21.3666   -5.6782   24.9175 C   0  0  0  0  0  0
  -21.6058   -4.3046   24.7229 C   0  0  0  0  0  0
  -21.8817   -3.8149   23.4344 C   0  0  0  0  0  0
  -21.9194   -4.6970   22.3402 C   0  0  0  0  0  0
  -22.7896  -13.5251   21.1841 C   0  0  0  0  0  0
  -22.1668   -4.2155   21.0979 F   0  0  0  0  0  0
  -21.5645   -3.4525   25.7745 F   0  0  0  0  0  0
  -30.0403  -13.3304   20.4657 N   0  0  0  0  0  0
  -26.3078  -12.9331   20.3376 N   0  0  0  0  0  0
  -25.9362  -11.6488   20.5771 N   0  0  0  0  0  0
  -22.0514  -12.8231   22.0390 N   0  0  0  0  0  0
  -25.4334  -15.1881   20.4101 N   0  0  0  0  0  0
  -31.7458  -14.7838   20.0440 O   0  0  0  0  0  0
  -21.6638   -6.8885   21.4242 O   0  0  0  0  0  0
  -22.3580  -14.5551   20.6695 O   0  0  0  0  0  0
  -24.6186  -31.8615   23.2082 C   0  0  0  0  0  0
  -25.9066  -32.4784   23.8371 C   0  0  1  0  0  0
  -27.2398  -27.3937   20.1291 C   0  0  0  0  0  0
  -25.5904  -33.8582   24.2298 N   0  0  0  0  0  0
  -23.4089  -30.4872   21.5454 C   0  0  2  0  0  0
  -24.8621  -28.9540   20.1066 C   0  0  0  0  0  0
  -22.7421  -29.4633   22.4929 C   0  0  0  0  0  0
  -18.0268  -28.1377   22.8472 C   0  0  0  0  0  0
  -24.1485  -36.7320   23.2634 C   0  0  0  0  0  0
  -25.9389  -30.8258   21.3607 C   0  0  0  0  0  0
  -26.0226  -29.4558   20.7110 C   0  0  0  0  0  0
  -27.2153  -28.6878   20.7129 C   0  0  0  0  0  0
  -26.0661  -26.9266   19.4956 C   0  0  0  0  0  0
  -24.8851  -27.6942   19.4855 C   0  0  0  0  0  0
  -23.6207  -29.8211   20.1576 C   0  0  0  0  0  0
  -25.4101  -36.3088   24.0330 C   0  0  1  0  0  0
  -20.5863  -28.3676   23.1287 C   0  0  2  0  0  0
  -20.6761  -26.9400   22.5414 C   0  0  0  0  0  0
  -19.5744  -26.6385   21.5207 C   0  0  0  0  0  0
  -18.1920  -26.7922   22.1612 C   0  0  0  0  0  0
  -19.1522  -28.8841   23.2885 C   0  0  0  0  0  0
  -18.9452  -30.1442   23.8896 C   0  0  0  0  0  0
  -17.6456  -30.6586   24.0558 C   0  0  0  0  0  0
  -25.9027  -34.9453   23.5113 C   0  0  0  0  0  0
  -16.5341  -29.9090   23.6319 C   0  0  0  0  0  0
  -16.7258  -28.6510   23.0331 C   0  0  0  0  0  0
  -26.4496  -31.6561   25.0701 C   0  0  0  0  0  0
  -25.3781  -31.3668   26.1463 C   0  0  0  0  0  0
  -27.0321  -30.2992   24.6091 C   0  0  0  0  0  0
  -27.6054  -32.4283   25.7493 C   0  0  0  0  0  0
  -27.5571  -37.1816   24.8461 C   0  0  0  0  0  0
  -21.4139  -29.3051   22.3687 N   0  0  0  0  0  0
  -26.4279  -37.3784   23.9409 N   0  0  0  0  0  0
  -24.6744  -31.0713   22.0976 N   0  0  0  0  0  0
  -23.4177  -28.8160   23.2974 O   0  0  0  0  0  0
  -28.3665  -26.5776   20.1954 O   0  0  0  0  0  0
  -26.5601  -34.8918   22.4679 O   0  0  0  0  0  0
  -23.5375  -32.1357   23.7473 O   0  0  0  0  0  0
  -31.5114  -18.2435   21.1737 C   0  0  0  0  0  0
  -30.2242  -18.1070   20.7216 C   0  0  0  0  0  0
  -30.3585  -20.4109   20.8897 C   0  0  0  0  0  0
  -27.8632  -22.3282   21.8178 C   0  0  0  0  0  0
  -28.0060  -25.6166   22.3715 C   0  0  0  0  0  0
  -29.5416  -16.8116   20.2935 C   0  0  0  0  0  0
  -29.2912  -24.2026   20.6629 C   0  0  0  0  0  0
  -28.8774  -22.6706   20.7135 C   0  0  1  0  0  0
  -28.1663  -25.2920   20.8684 C   0  0  2  0  0  0
  -29.5712  -19.3616   20.5874 N   0  0  0  0  0  0
  -30.0474  -21.7823   20.8481 N   0  0  0  0  0  0
  -29.8535  -15.5500   21.0093 N   0  0  0  0  0  0
  -31.9675  -19.9138   21.3962 S   0  0  0  0  0  0
  -31.4860  -12.4678   19.1438 H   0  0  0  0  0  0
  -30.3630  -11.3363   19.8403 H   0  0  0  0  0  0
  -29.7637  -11.8020   17.4460 H   0  0  0  0  0  0
  -29.6747  -13.5119   17.7805 H   0  0  0  0  0  0
  -27.8401  -11.3218   18.8039 H   0  0  0  0  0  0
  -27.3891  -12.6669   17.7892 H   0  0  0  0  0  0
  -27.7062  -14.2582   19.5852 H   0  0  0  0  0  0
  -28.7079  -11.9557   21.3323 H   0  0  0  0  0  0
  -28.4690  -13.5841   21.8920 H   0  0  0  0  0  0
  -25.2775   -9.5704   22.4741 H   0  0  0  0  0  0
  -24.0024   -7.4641   22.7450 H   0  0  0  0  0  0
  -21.0859   -8.8773   19.8929 H   0  0  0  0  0  0
  -22.3706  -10.9682   19.6147 H   0  0  0  0  0  0
  -21.1968   -7.6134   23.9730 H   0  0  0  0  0  0
  -21.1504   -6.0501   25.9081 H   0  0  0  0  0  0
  -22.0592   -2.7608   23.2845 H   0  0  0  0  0  0
  -22.4106  -11.9895   22.4789 H   0  0  0  0  0  0
  -21.1123  -13.1262   22.2543 H   0  0  0  0  0  0
  -24.6620  -15.8400   20.5082 H   0  0  0  0  0  0
  -26.2799  -15.6295   20.0753 H   0  0  0  0  0  0
  -26.7129  -32.5508   23.1122 H   0  0  0  0  0  0
  -25.0066  -33.9734   25.0454 H   0  0  0  0  0  0
  -22.7007  -31.3070   21.4047 H   0  0  0  0  0  0
  -23.3732  -35.9674   23.3310 H   0  0  0  0  0  0
  -24.3568  -36.8938   22.2047 H   0  0  0  0  0  0
  -23.7278  -37.6542   23.6648 H   0  0  0  0  0  0
  -26.0518  -31.5914   20.5910 H   0  0  0  0  0  0
  -26.8256  -30.8829   21.9800 H   0  0  0  0  0  0
  -28.1038  -29.0694   21.1968 H   0  0  0  0  0  0
  -26.0598  -25.9582   19.0149 H   0  0  0  0  0  0
  -23.9997  -27.3106   18.9974 H   0  0  0  0  0  0
  -23.7240  -30.5977   19.3989 H   0  0  0  0  0  0
  -22.7451  -29.2415   19.8579 H   0  0  0  0  0  0
  -25.1290  -36.1928   25.0826 H   0  0  0  0  0  0
  -20.9953  -28.3253   24.1408 H   0  0  0  0  0  0
  -20.5650  -26.2283   23.3609 H   0  0  0  0  0  0
  -21.6634  -26.7431   22.1215 H   0  0  0  0  0  0
  -19.6917  -25.6303   21.1230 H   0  0  0  0  0  0
  -19.6691  -27.3189   20.6731 H   0  0  0  0  0  0
  -17.4188  -26.6640   21.4015 H   0  0  0  0  0  0
  -18.0332  -26.0065   22.9009 H   0  0  0  0  0  0
  -19.7934  -30.7251   24.2264 H   0  0  0  0  0  0
  -17.5016  -31.6254   24.5174 H   0  0  0  0  0  0
  -15.5346  -30.3000   23.7655 H   0  0  0  0  0  0
  -15.8646  -28.0842   22.7044 H   0  0  0  0  0  0
  -24.5970  -30.6975   25.7825 H   0  0  0  0  0  0
  -24.8957  -32.2819   26.4901 H   0  0  0  0  0  0
  -25.8166  -30.8865   27.0218 H   0  0  0  0  0  0
  -26.2843  -29.6752   24.1166 H   0  0  0  0  0  0
  -27.4096  -29.7229   25.4550 H   0  0  0  0  0  0
  -27.8685  -30.4297   23.9222 H   0  0  0  0  0  0
  -27.2646  -33.3574   26.2078 H   0  0  0  0  0  0
  -28.3886  -32.6849   25.0345 H   0  0  0  0  0  0
  -28.0691  -31.8395   26.5425 H   0  0  0  0  0  0
  -28.2594  -38.0103   24.7483 H   0  0  0  0  0  0
  -28.1060  -36.2636   24.6302 H   0  0  0  0  0  0
  -27.2282  -37.1488   25.8861 H   0  0  0  0  0  0
  -20.9278  -29.8787   21.6927 H   0  0  0  0  0  0
  -26.0163  -38.2863   24.1401 H   0  0  0  0  0  0
  -32.2381  -17.4616   21.3472 H   0  0  0  0  0  0
  -26.9705  -22.9499   21.7622 H   0  0  0  0  0  0
  -28.2948  -22.4453   22.8128 H   0  0  0  0  0  0
  -27.5188  -21.2980   21.7278 H   0  0  0  0  0  0
  -27.9556  -24.7219   22.9888 H   0  0  0  0  0  0
  -27.0990  -26.1895   22.5689 H   0  0  0  0  0  0
  -28.8513  -26.2002   22.7373 H   0  0  0  0  0  0
  -29.7119  -16.6589   19.2268 H   0  0  0  0  0  0
  -28.4613  -16.9396   20.3760 H   0  0  0  0  0  0
  -29.7691  -24.3736   19.6971 H   0  0  0  0  0  0
  -30.0756  -24.3824   21.3999 H   0  0  0  0  0  0
  -28.3988  -22.4359   19.7607 H   0  0  0  0  0  0
  -27.2472  -24.8390   20.5032 H   0  0  0  0  0  0
  -30.8829  -22.3128   21.0728 H   0  0  0  0  0  0
  -29.0897  -15.2231   21.5809 H   0  0  0  0  0  0
  1 25  1  0  0  0
  1 30  2  0  0  0
  1 82  1  0  0  0
  2  3  1  0  0  0
  2 25  1  0  0  0
  2 84  1  0  0  0
  2 85  1  0  0  0
  3  4  1  0  0  0
  3 86  1  0  0  0
  3 87  1  0  0  0
  4  5  1  0  0  0
  4 88  1  0  0  0
  4 89  1  0  0  0
  5  6  1  0  0  0
  5 26  1  0  0  0
  5 90  1  0  0  0
  6 25  1  0  0  0
  6 91  1  0  0  0
  6 92  1  0  0  0
  7  8  2  0  0  0
  7 26  1  0  0  0
  7 29  1  0  0  0
  8  9  1  0  0  0
  8 22  1  0  0  0
  9 10  1  0  0  0
  9 27  2  0  0  0
 10 11  2  0  0  0
 10 15  1  0  0  0
 11 12  1  0  0  0
 11 93  1  0  0  0
 12 13  2  0  0  0
 12 94  1  0  0  0
 13 14  1  0  0  0
 13 31  1  0  0  0
 14 15  2  0  0  0
 14 95  1  0  0  0
 15 96  1  0  0  0
 16 17  2  0  0  0
 16 21  1  0  0  0
 16 31  1  0  0  0
 17 18  1  0  0  0
 17 97  1  0  0  0
 18 19  2  0  0  0
 18 98  1  0  0  0
 19 20  1  0  0  0
 19 24  1  0  0  0
 20 21  2  0  0  0
 20 99  1  0  0  0
 21 23  1  0  0  0
 22 28  1  0  0  0
 22 32  2  0  0  0
 26 27  1  0  0  0
 28100  1  0  0  0
 28101  1  0  0  0
 29102  1  0  0  0
 29103  1  0  0  0
 33 34  1  0  0  0
 33 66  1  0  0  0
 33 70  2  0  0  0
 34 36  1  0  0  0
 34 59  1  0  0  0
 34104  1  0  0  0
 35 44  2  0  0  0
 35 45  1  0  0  0
 35 68  1  0  0  0
 36 56  1  0  0  0
 36105  1  0  0  0
 37 39  1  0  0  0
 37 47  1  0  0  0
 37 66  1  0  0  0
 37106  1  0  0  0
 38 43  2  0  0  0
 38 46  1  0  0  0
 38 47  1  0  0  0
 39 64  1  0  0  0
 39 67  2  0  0  0
 40 52  1  0  0  0
 40 53  2  0  0  0
 40 58  1  0  0  0
 41107  1  0  0  0
 41108  1  0  0  0
 41109  1  0  0  0
 41 48  1  0  0  0
 42 43  1  0  0  0
 42 66  1  0  0  0
 42110  1  0  0  0
 42111  1  0  0  0
 43 44  1  0  0  0
 44112  1  0  0  0
 45 46  2  0  0  0
 45113  1  0  0  0
 46114  1  0  0  0
 47115  1  0  0  0
 47116  1  0  0  0
 48 56  1  0  0  0
 48 65  1  0  0  0
 48117  1  0  0  0
 49 50  1  0  0  0
 49 53  1  0  0  0
 49 64  1  0  0  0
 49118  1  0  0  0
 50 51  1  0  0  0
 50119  1  0  0  0
 50120  1  0  0  0
 51 52  1  0  0  0
 51121  1  0  0  0
 51122  1  0  0  0
 52123  1  0  0  0
 52124  1  0  0  0
 53 54  1  0  0  0
 54 55  2  0  0  0
 54125  1  0  0  0
 55 57  1  0  0  0
 55126  1  0  0  0
 56 69  2  0  0  0
 57 58  2  0  0  0
 57127  1  0  0  0
 58128  1  0  0  0
 59 60  1  0  0  0
 59 61  1  0  0  0
 59 62  1  0  0  0
 60129  1  0  0  0
 60130  1  0  0  0
 60131  1  0  0  0
 61132  1  0  0  0
 61133  1  0  0  0
 61134  1  0  0  0
 62135  1  0  0  0
 62136  1  0  0  0
 62137  1  0  0  0
 63 65  1  0  0  0
 63138  1  0  0  0
 63139  1  0  0  0
 63140  1  0  0  0
 64141  1  0  0  0
 65142  1  0  0  0
 68 79  1  0  0  0
 71 72  2  0  0  0
 71 83  1  0  0  0
 71143  1  0  0  0
 72 76  1  0  0  0
 72 80  1  0  0  0
 73 80  2  0  0  0
 73 81  1  0  0  0
 73 83  1  0  0  0
 74144  1  0  0  0
 74145  1  0  0  0
 74146  1  0  0  0
 74 78  1  0  0  0
 75147  1  0  0  0
 75148  1  0  0  0
 75149  1  0  0  0
 75 79  1  0  0  0
 76 82  1  0  0  0
 76150  1  0  0  0
 76151  1  0  0  0
 77 78  1  0  0  0
 77 79  1  0  0  0
 77152  1  0  0  0
 77153  1  0  0  0
 78 81  1  0  0  0
 78154  1  0  0  0
 79155  1  0  0  0
 81156  1  0  0  0
 82157  1  0  0  0
M  ISO  4   1 100  68 101  79 101  82 100
M  END
> <chiral flag>
0

> <version>
0

> <s_m_source_file>
/data/baiqing/PycharmProjects/Reinvent-master-3.2/result/LINK_invent/BTK/process_docking_weight1_custom_product_contain_oxygen_bond_distance_aromatic_linkinvent_7_9_3/rearranged_h_0190.sdf

> <i_m_source_file_index>
77

> <r_mmod_Potential_Energy-OPLS-2005>
-178.004776000977

> <r_mmod_Stretch_Energy-OPLS-2005>
51.2274780273438

> <r_mmod_Bend_Energy-OPLS-2005>
114.429550170898

> <r_mmod_Torsional_Energy-OPLS-2005>
238.900833129883

> <r_mmod_Improper_Torsional_Energy-OPLS-2005>
8.10469913482666

> <r_mmod_Van_der_Waal_Energy-OPLS-2005>
121.634689331055

> <r_mmod_Electrostatic_Energy-OPLS-2005>
-511.936340332031

> <r_mmod_Solvation_Energy-OPLS-2005>
-226.379333496094

> <b_mmod_Minimization_Converged-OPLS-2005>
0

> <r_mmod_RMS_Derivative-OPLS-2005>
2.82024240493774

$$$$
77
                    3D
 Structure written by MMmdl.
155163  0  0  1  0            999 V2000
  -30.6675  -14.5242   20.6003 C   0  0  0  0  0  0
  -30.4406  -12.3469   19.4257 C   0  0  0  0  0  0
  -29.5032  -12.5270   18.2115 C   0  0  0  0  0  0
  -28.0254  -12.3689   18.6223 C   0  0  0  0  0  0
  -27.6661  -13.2051   19.8786 C   0  0  2  0  0  0
  -28.7070  -12.9769   20.9981 C   0  0  0  0  0  0
  -25.2609  -13.8148   20.5665 C   0  0  0  0  0  0
  -24.1858  -13.0431   20.9165 C   0  0  0  0  0  0
  -24.6408  -11.6897   20.8724 C   0  0  0  0  0  0
  -23.9071  -10.4290   21.0393 C   0  0  0  0  0  0
  -24.3621   -9.4206   21.9171 C   0  0  0  0  0  0
  -23.6297   -8.2242   22.0746 C   0  0  0  0  0  0
  -22.4275   -8.0284   21.3539 C   0  0  0  0  0  0
  -21.9910   -9.0260   20.4642 C   0  0  0  0  0  0
  -22.7242  -10.2137   20.3049 C   0  0  0  0  0  0
  -21.6856   -6.0738   22.5280 C   0  0  0  0  0  0
  -21.4017   -6.5640   23.8215 C   0  0  0  0  0  0
  -21.3660   -5.6787   24.9173 C   0  0  0  0  0  0
  -21.6042   -4.3050   24.7219 C   0  0  0  0  0  0
  -21.8822   -3.8148   23.4338 C   0  0  0  0  0  0
  -21.9194   -4.6966   22.3397 C   0  0  0  0  0  0
  -22.7882  -13.5236   21.1830 C   0  0  0  0  0  0
  -22.1663   -4.2155   21.0974 F   0  0  0  0  0  0
  -21.5627   -3.4533   25.7731 F   0  0  0  0  0  0
  -30.0405  -13.3166   20.4618 N   0  0  0  0  0  0
  -26.3050  -12.9313   20.3364 N   0  0  0  0  0  0
  -25.9340  -11.6474   20.5760 N   0  0  0  0  0  0
  -22.0521  -12.8240   22.0393 N   0  0  0  0  0  0
  -25.4323  -15.1865   20.4055 N   0  0  0  0  0  0
  -31.7467  -14.7742   20.0500 O   0  0  0  0  0  0
  -21.6635   -6.8882   21.4243 O   0  0  0  0  0  0
  -22.3571  -14.5545   20.6683 O   0  0  0  0  0  0
  -24.6222  -31.8650   23.2089 C   0  0  0  0  0  0
  -25.9096  -32.4806   23.8391 C   0  0  1  0  0  0
  -27.2269  -27.3782   20.0930 C   0  0  0  0  0  0
  -25.5931  -33.8603   24.2320 N   0  0  0  0  0  0
  -23.4123  -30.4932   21.5491 C   0  0  2  0  0  0
  -24.8562  -28.9600   20.1098 C   0  0  0  0  0  0
  -22.7448  -29.4664   22.4941 C   0  0  0  0  0  0
  -18.0284  -28.1389   22.8485 C   0  0  0  0  0  0
  -24.1487  -36.7304   23.2638 C   0  0  0  0  0  0
  -25.9503  -30.8122   21.3734 C   0  0  0  0  0  0
  -26.0231  -29.4463   20.7119 C   0  0  0  0  0  0
  -27.2105  -28.6649   20.6992 C   0  0  0  0  0  0
  -26.0351  -26.9369   19.4652 C   0  0  0  0  0  0
  -24.8608  -27.7069   19.4814 C   0  0  0  0  0  0
  -23.6233  -29.8339   20.1620 C   0  0  0  0  0  0
  -25.4109  -36.3101   24.0336 C   0  0  1  0  0  0
  -20.5883  -28.3689   23.1279 C   0  0  2  0  0  0
  -20.6774  -26.9416   22.5400 C   0  0  0  0  0  0
  -19.5749  -26.6387   21.5203 C   0  0  0  0  0  0
  -18.1931  -26.7934   22.1621 C   0  0  0  0  0  0
  -19.1537  -28.8851   23.2886 C   0  0  0  0  0  0
  -18.9463  -30.1453   23.8904 C   0  0  0  0  0  0
  -17.6466  -30.6591   24.0561 C   0  0  0  0  0  0
  -25.9044  -34.9467   23.5122 C   0  0  0  0  0  0
  -16.5355  -29.9094   23.6325 C   0  0  0  0  0  0
  -16.7274  -28.6511   23.0346 C   0  0  0  0  0  0
  -26.4503  -31.6606   25.0744 C   0  0  0  0  0  0
  -25.3759  -31.3727   26.1487 C   0  0  0  0  0  0
  -27.0345  -30.3036   24.6178 C   0  0  0  0  0  0
  -27.6066  -32.4345   25.7508 C   0  0  0  0  0  0
  -27.5581  -37.1809   24.8466 C   0  0  0  0  0  0
  -21.4169  -29.3056   22.3679 N   0  0  0  0  0  0
  -26.4293  -37.3789   23.9412 N   0  0  0  0  0  0
  -24.6801  -31.0718   22.1006 N   0  0  0  0  0  0
  -23.4195  -28.8184   23.2991 O   0  0  0  0  0  0
  -28.3672  -26.5736   20.1407 O   0  0  0  0  0  0
  -26.5592  -34.8924   22.4677 O   0  0  0  0  0  0
  -23.5402  -32.1417   23.7455 O   0  0  0  0  0  0
  -29.9900  -16.8338   21.4506 C   0  0  0  0  0  0
  -29.4244  -18.6566   22.2531 C   0  0  0  0  0  0
  -29.7636  -21.4954   20.5481 C   0  0  0  0  0  0
  -29.2854  -24.1385   20.2888 C   0  0  0  0  0  0
  -29.3241  -20.0520   20.0873 C   0  0  0  0  0  0
  -28.2007  -25.1621   19.8096 C   0  0  0  0  0  0
  -29.0291  -22.6635   19.7971 C   0  0  1  0  0  0
  -29.6389  -17.4067   22.6396 N   0  0  0  0  0  0
  -30.0229  -17.6720   20.3998 N   0  0  0  0  0  0
  -29.6527  -18.8841   20.9467 N   0  0  0  0  0  0
  -28.9314  -19.6264   23.0980 N   0  0  0  0  0  0
  -30.0234  -15.4037   21.3989 N   0  0  0  0  0  0
  -29.3829  -22.5760   18.4268 O   0  0  0  0  0  0
  -31.4817  -12.4729   19.1218 H   0  0  0  0  0  0
  -30.3701  -11.3310   19.8179 H   0  0  0  0  0  0
  -29.7547  -11.8065   17.4321 H   0  0  0  0  0  0
  -29.6565  -13.5145   17.7735 H   0  0  0  0  0  0
  -27.8472  -11.3109   18.8187 H   0  0  0  0  0  0
  -27.3722  -12.6367   17.7912 H   0  0  0  0  0  0
  -27.7116  -14.2552   19.5882 H   0  0  0  0  0  0
  -28.6977  -11.9318   21.3126 H   0  0  0  0  0  0
  -28.4395  -13.5419   21.8914 H   0  0  0  0  0  0
  -25.2768   -9.5681   22.4739 H   0  0  0  0  0  0
  -24.0010   -7.4630   22.7459 H   0  0  0  0  0  0
  -21.0841   -8.8780   19.8950 H   0  0  0  0  0  0
  -22.3700  -10.9675   19.6158 H   0  0  0  0  0  0
  -21.2013   -7.6148   23.9725 H   0  0  0  0  0  0
  -21.1479   -6.0510   25.9077 H   0  0  0  0  0  0
  -22.0602   -2.7614   23.2829 H   0  0  0  0  0  0
  -22.4141  -11.9914   22.4803 H   0  0  0  0  0  0
  -21.1140  -13.1278   22.2589 H   0  0  0  0  0  0
  -24.6610  -15.8385   20.4983 H   0  0  0  0  0  0
  -26.2818  -15.6245   20.0725 H   0  0  0  0  0  0
  -26.7166  -32.5493   23.1147 H   0  0  0  0  0  0
  -25.0113  -33.9757   25.0488 H   0  0  0  0  0  0
  -22.7047  -31.3135   21.4111 H   0  0  0  0  0  0
  -23.3751  -35.9637   23.3310 H   0  0  0  0  0  0
  -24.3581  -36.8910   22.2051 H   0  0  0  0  0  0
  -23.7242  -37.6512   23.6645 H   0  0  0  0  0  0
  -26.0811  -31.5817   20.6111 H   0  0  0  0  0  0
  -26.8318  -30.8538   22.0020 H   0  0  0  0  0  0
  -28.1076  -29.0357   21.1759 H   0  0  0  0  0  0
  -25.9743  -25.9876   18.9547 H   0  0  0  0  0  0
  -23.9666  -27.3303   19.0036 H   0  0  0  0  0  0
  -23.7415  -30.6133   19.4084 H   0  0  0  0  0  0
  -22.7441  -29.2630   19.8586 H   0  0  0  0  0  0
  -25.1291  -36.1959   25.0829 H   0  0  0  0  0  0
  -20.9985  -28.3266   24.1395 H   0  0  0  0  0  0
  -20.5664  -26.2308   23.3601 H   0  0  0  0  0  0
  -21.6646  -26.7449   22.1196 H   0  0  0  0  0  0
  -19.6909  -25.6295   21.1237 H   0  0  0  0  0  0
  -19.6686  -27.3193   20.6727 H   0  0  0  0  0  0
  -17.4199  -26.6679   21.4024 H   0  0  0  0  0  0
  -18.0341  -26.0074   22.9017 H   0  0  0  0  0  0
  -19.7937  -30.7262   24.2285 H   0  0  0  0  0  0
  -17.5023  -31.6267   24.5169 H   0  0  0  0  0  0
  -15.5358  -30.2999   23.7646 H   0  0  0  0  0  0
  -15.8674  -28.0831   22.7062 H   0  0  0  0  0  0
  -24.5911  -30.7103   25.7820 H   0  0  0  0  0  0
  -24.8979  -32.2889   26.4960 H   0  0  0  0  0  0
  -25.8100  -30.8866   27.0232 H   0  0  0  0  0  0
  -26.2906  -29.6783   24.1223 H   0  0  0  0  0  0
  -27.4077  -29.7299   25.4674 H   0  0  0  0  0  0
  -27.8765  -30.4338   23.9376 H   0  0  0  0  0  0
  -27.2668  -33.3628   26.2115 H   0  0  0  0  0  0
  -28.3853  -32.6942   25.0323 H   0  0  0  0  0  0
  -28.0766  -31.8462   26.5401 H   0  0  0  0  0  0
  -28.2608  -38.0097   24.7508 H   0  0  0  0  0  0
  -28.1069  -36.2632   24.6297 H   0  0  0  0  0  0
  -27.2300  -37.1464   25.8868 H   0  0  0  0  0  0
  -20.9334  -29.8797   21.6910 H   0  0  0  0  0  0
  -26.0182  -38.2868   24.1405 H   0  0  0  0  0  0
  -30.8440  -21.5977   20.4413 H   0  0  0  0  0  0
  -29.5655  -21.6272   21.6090 H   0  0  0  0  0  0
  -29.2922  -24.1490   21.3798 H   0  0  0  0  0  0
  -30.2780  -24.4709   19.9829 H   0  0  0  0  0  0
  -29.7176  -19.8632   19.0876 H   0  0  0  0  0  0
  -28.2393  -20.0432   19.9794 H   0  0  0  0  0  0
  -27.2647  -24.7988   20.2368 H   0  0  0  0  0  0
  -28.1036  -25.0888   18.7256 H   0  0  0  0  0  0
  -27.9577  -22.4723   19.8807 H   0  0  0  0  0  0
  -28.6709  -19.4179   24.0537 H   0  0  0  0  0  0
  -28.6673  -20.5404   22.7540 H   0  0  0  0  0  0
  -29.3278  -14.9660   21.9794 H   0  0  0  0  0  0
  -28.7606  -23.0921   17.9211 H   0  0  0  0  0  0
  1 25  1  0  0  0
  1 30  2  0  0  0
  1 82  1  0  0  0
  2  3  1  0  0  0
  2 25  1  0  0  0
  2 84  1  0  0  0
  2 85  1  0  0  0
  3  4  1  0  0  0
  3 86  1  0  0  0
  3 87  1  0  0  0
  4  5  1  0  0  0
  4 88  1  0  0  0
  4 89  1  0  0  0
  5  6  1  0  0  0
  5 26  1  0  0  0
  5 90  1  0  0  0
  6 25  1  0  0  0
  6 91  1  0  0  0
  6 92  1  0  0  0
  7  8  2  0  0  0
  7 26  1  0  0  0
  7 29  1  0  0  0
  8  9  1  0  0  0
  8 22  1  0  0  0
  9 10  1  0  0  0
  9 27  2  0  0  0
 10 11  2  0  0  0
 10 15  1  0  0  0
 11 12  1  0  0  0
 11 93  1  0  0  0
 12 13  2  0  0  0
 12 94  1  0  0  0
 13 14  1  0  0  0
 13 31  1  0  0  0
 14 15  2  0  0  0
 14 95  1  0  0  0
 15 96  1  0  0  0
 16 17  2  0  0  0
 16 21  1  0  0  0
 16 31  1  0  0  0
 17 18  1  0  0  0
 17 97  1  0  0  0
 18 19  2  0  0  0
 18 98  1  0  0  0
 19 20  1  0  0  0
 19 24  1  0  0  0
 20 21  2  0  0  0
 20 99  1  0  0  0
 21 23  1  0  0  0
 22 28  1  0  0  0
 22 32  2  0  0  0
 26 27  1  0  0  0
 28100  1  0  0  0
 28101  1  0  0  0
 29102  1  0  0  0
 29103  1  0  0  0
 33 34  1  0  0  0
 33 66  1  0  0  0
 33 70  2  0  0  0
 34 36  1  0  0  0
 34 59  1  0  0  0
 34104  1  0  0  0
 35 44  2  0  0  0
 35 45  1  0  0  0
 35 68  1  0  0  0
 36 56  1  0  0  0
 36105  1  0  0  0
 37 39  1  0  0  0
 37 47  1  0  0  0
 37 66  1  0  0  0
 37106  1  0  0  0
 38 43  2  0  0  0
 38 46  1  0  0  0
 38 47  1  0  0  0
 39 64  1  0  0  0
 39 67  2  0  0  0
 40 52  1  0  0  0
 40 53  2  0  0  0
 40 58  1  0  0  0
 41107  1  0  0  0
 41108  1  0  0  0
 41109  1  0  0  0
 41 48  1  0  0  0
 42 43  1  0  0  0
 42 66  1  0  0  0
 42110  1  0  0  0
 42111  1  0  0  0
 43 44  1  0  0  0
 44112  1  0  0  0
 45 46  2  0  0  0
 45113  1  0  0  0
 46114  1  0  0  0
 47115  1  0  0  0
 47116  1  0  0  0
 48 56  1  0  0  0
 48 65  1  0  0  0
 48117  1  0  0  0
 49 50  1  0  0  0
 49 53  1  0  0  0
 49 64  1  0  0  0
 49118  1  0  0  0
 50 51  1  0  0  0
 50119  1  0  0  0
 50120  1  0  0  0
 51 52  1  0  0  0
 51121  1  0  0  0
 51122  1  0  0  0
 52123  1  0  0  0
 52124  1  0  0  0
 53 54  1  0  0  0
 54 55  2  0  0  0
 54125  1  0  0  0
 55 57  1  0  0  0
 55126  1  0  0  0
 56 69  2  0  0  0
 57 58  2  0  0  0
 57127  1  0  0  0
 58128  1  0  0  0
 59 60  1  0  0  0
 59 61  1  0  0  0
 59 62  1  0  0  0
 60129  1  0  0  0
 60130  1  0  0  0
 60131  1  0  0  0
 61132  1  0  0  0
 61133  1  0  0  0
 61134  1  0  0  0
 62135  1  0  0  0
 62136  1  0  0  0
 62137  1  0  0  0
 63 65  1  0  0  0
 63138  1  0  0  0
 63139  1  0  0  0
 63140  1  0  0  0
 64141  1  0  0  0
 65142  1  0  0  0
 68 76  1  0  0  0
 71 78  1  0  0  0
 71 79  2  0  0  0
 71 82  1  0  0  0
 72 78  2  0  0  0
 72 80  1  0  0  0
 72 81  1  0  0  0
 73 75  1  0  0  0
 73 77  1  0  0  0
 73143  1  0  0  0
 73144  1  0  0  0
 74 76  1  0  0  0
 74 77  1  0  0  0
 74145  1  0  0  0
 74146  1  0  0  0
 75 80  1  0  0  0
 75147  1  0  0  0
 75148  1  0  0  0
 76149  1  0  0  0
 76150  1  0  0  0
 77 83  1  0  0  0
 77151  1  0  0  0
 79 80  1  0  0  0
 81152  1  0  0  0
 81153  1  0  0  0
 82154  1  0  0  0
 83155  1  0  0  0
M  ISO  4   1 100  68 101  76 101  82 100
M  END
> <chiral flag>
0

> <version>
0

> <s_m_source_file>
/data/baiqing/PycharmProjects/Reinvent-master-3.2/result/LINK_invent/BTK/process_docking_weight1_custom_product_contain_oxygen_bond_distance_aromatic_linkinvent_7_9_3/rearranged_h_0190.sdf

> <i_m_source_file_index>
78

> <r_mmod_Potential_Energy-OPLS-2005>
-138.733016967773

> <r_mmod_Stretch_Energy-OPLS-2005>
53.9179306030273

> <r_mmod_Bend_Energy-OPLS-2005>
138.582962036133

> <r_mmod_Torsional_Energy-OPLS-2005>
231.455368041992

> <r_mmod_Improper_Torsional_Energy-OPLS-2005>
5.99899005889893

> <r_mmod_Van_der_Waal_Energy-OPLS-2005>
132.713562011719

> <r_mmod_Electrostatic_Energy-OPLS-2005>
-469.680572509766

> <r_mmod_Solvation_Energy-OPLS-2005>
-254.696350097656

> <b_mmod_Minimization_Converged-OPLS-2005>
0

> <r_mmod_RMS_Derivative-OPLS-2005>
1.02392709255219

$$$$
78
                    3D
 Structure written by MMmdl.
169177  0  0  1  0            999 V2000
  -30.6791  -14.5435   20.5127 C   0  0  0  0  0  0
  -30.4281  -12.3317   19.4419 C   0  0  0  0  0  0
  -29.5025  -12.4909   18.2174 C   0  0  0  0  0  0
  -28.0236  -12.3446   18.6292 C   0  0  0  0  0  0
  -27.6572  -13.2097   19.8649 C   0  0  2  0  0  0
  -28.7005  -13.0398   20.9931 C   0  0  0  0  0  0
  -25.2575  -13.8172   20.5670 C   0  0  0  0  0  0
  -24.1831  -13.0452   20.9177 C   0  0  0  0  0  0
  -24.6377  -11.6920   20.8738 C   0  0  0  0  0  0
  -23.9048  -10.4309   21.0403 C   0  0  0  0  0  0
  -24.3598   -9.4224   21.9182 C   0  0  0  0  0  0
  -23.6273   -8.2255   22.0764 C   0  0  0  0  0  0
  -22.4255   -8.0292   21.3552 C   0  0  0  0  0  0
  -21.9889   -9.0264   20.4658 C   0  0  0  0  0  0
  -22.7219  -10.2139   20.3056 C   0  0  0  0  0  0
  -21.6850   -6.0733   22.5278 C   0  0  0  0  0  0
  -21.4016   -6.5630   23.8211 C   0  0  0  0  0  0
  -21.3658   -5.6785   24.9174 C   0  0  0  0  0  0
  -21.6039   -4.3046   24.7217 C   0  0  0  0  0  0
  -21.8823   -3.8142   23.4339 C   0  0  0  0  0  0
  -21.9195   -4.6967   22.3404 C   0  0  0  0  0  0
  -22.7849  -13.5253   21.1830 C   0  0  0  0  0  0
  -22.1668   -4.2152   21.0986 F   0  0  0  0  0  0
  -21.5630   -3.4538   25.7731 F   0  0  0  0  0  0
  -30.0266  -13.3473   20.4313 N   0  0  0  0  0  0
  -26.2996  -12.9334   20.3308 N   0  0  0  0  0  0
  -25.9294  -11.6500   20.5729 N   0  0  0  0  0  0
  -22.0467  -12.8262   22.0381 N   0  0  0  0  0  0
  -25.4325  -15.1888   20.4076 N   0  0  0  0  0  0
  -31.8433  -14.6705   20.1229 O   0  0  0  0  0  0
  -21.6636   -6.8872   21.4234 O   0  0  0  0  0  0
  -22.3540  -14.5558   20.6677 O   0  0  0  0  0  0
  -24.6193  -31.8649   23.2056 C   0  0  0  0  0  0
  -25.9059  -32.4805   23.8384 C   0  0  1  0  0  0
  -27.2294  -27.3959   20.1150 C   0  0  0  0  0  0
  -25.5887  -33.8601   24.2313 N   0  0  0  0  0  0
  -23.4112  -30.4911   21.5460 C   0  0  2  0  0  0
  -24.8604  -28.9597   20.1034 C   0  0  0  0  0  0
  -22.7455  -29.4662   22.4931 C   0  0  0  0  0  0
  -18.0310  -28.1378   22.8513 C   0  0  0  0  0  0
  -24.1489  -36.7317   23.2645 C   0  0  0  0  0  0
  -25.9457  -30.8223   21.3660 C   0  0  0  0  0  0
  -26.0242  -29.4589   20.7050 C   0  0  0  0  0  0
  -27.2151  -28.6888   20.6991 C   0  0  0  0  0  0
  -26.0558  -26.9366   19.4764 C   0  0  0  0  0  0
  -24.8757  -27.7015   19.4800 C   0  0  0  0  0  0
  -23.6224  -29.8276   20.1594 C   0  0  0  0  0  0
  -25.4103  -36.3099   24.0343 C   0  0  1  0  0  0
  -20.5908  -28.3686   23.1288 C   0  0  2  0  0  0
  -20.6776  -26.9407   22.5409 C   0  0  0  0  0  0
  -19.5738  -26.6389   21.5217 C   0  0  0  0  0  0
  -18.1930  -26.7929   22.1635 C   0  0  0  0  0  0
  -19.1562  -28.8851   23.2898 C   0  0  0  0  0  0
  -18.9477  -30.1458   23.8912 C   0  0  0  0  0  0
  -17.6467  -30.6581   24.0578 C   0  0  0  0  0  0
  -25.9041  -34.9469   23.5137 C   0  0  0  0  0  0
  -16.5367  -29.9080   23.6321 C   0  0  0  0  0  0
  -16.7295  -28.6495   23.0354 C   0  0  0  0  0  0
  -26.4460  -31.6583   25.0728 C   0  0  0  0  0  0
  -25.3719  -31.3699   26.1480 C   0  0  0  0  0  0
  -27.0294  -30.3015   24.6133 C   0  0  0  0  0  0
  -27.6040  -32.4307   25.7471 C   0  0  0  0  0  0
  -27.5575  -37.1811   24.8462 C   0  0  0  0  0  0
  -21.4175  -29.3052   22.3677 N   0  0  0  0  0  0
  -26.4283  -37.3787   23.9413 N   0  0  0  0  0  0
  -24.6775  -31.0742   22.0971 N   0  0  0  0  0  0
  -23.4203  -28.8205   23.2989 O   0  0  0  0  0  0
  -28.3252  -26.5490   20.2422 O   0  0  0  0  0  0
  -26.5618  -34.8927   22.4710 O   0  0  0  0  0  0
  -23.5376  -32.1418   23.7426 O   0  0  0  0  0  0
  -29.2635  -18.0059   20.6822 C   0  0  0  0  0  0
  -29.8555  -19.3044   20.4221 C   0  0  0  0  0  0
  -30.1608  -16.9544   20.6825 C   0  0  0  0  0  0
  -30.5560  -23.6367   18.8930 C   0  0  0  0  0  0
  -33.0169  -25.6499   18.5316 C   0  0  0  0  0  0
  -31.5057  -26.9675   17.0082 C   0  0  0  0  0  0
  -27.4166  -25.4968   22.2625 C   0  0  0  0  0  0
  -29.1026  -20.6380   20.2898 C   0  0  0  0  0  0
  -30.5024  -25.0783   18.3580 C   0  0  0  0  0  0
  -29.2220  -24.2329   21.0168 C   0  0  0  0  0  0
  -29.4640  -23.1682   19.8841 C   0  0  2  0  0  0
  -31.7709  -25.5839   17.6243 C   0  0  0  0  0  0
  -28.0273  -25.2499   20.8581 C   0  0  2  0  0  0
  -31.1659  -19.2715   20.2662 N   0  0  0  0  0  0
  -29.9120  -15.6103   20.8601 N   0  0  0  0  0  0
  -29.9792  -21.8453   20.3817 N   0  3  0  0  0  0
  -31.4502  -22.8705   18.5126 O   0  0  0  0  0  0
  -31.7217  -17.6845   20.4031 S   0  0  0  0  0  0
  -31.4731  -12.4316   19.1434 H   0  0  0  0  0  0
  -30.3371  -11.3325   19.8714 H   0  0  0  0  0  0
  -29.7569  -11.7528   17.4548 H   0  0  0  0  0  0
  -29.6609  -13.4689   17.7601 H   0  0  0  0  0  0
  -27.8447  -11.2911   18.8516 H   0  0  0  0  0  0
  -27.3740  -12.5938   17.7891 H   0  0  0  0  0  0
  -27.6866  -14.2469   19.5304 H   0  0  0  0  0  0
  -28.6872  -12.0180   21.3754 H   0  0  0  0  0  0
  -28.4585  -13.6754   21.8457 H   0  0  0  0  0  0
  -25.2742   -9.5713   22.4746 H   0  0  0  0  0  0
  -24.0003   -7.4642   22.7469 H   0  0  0  0  0  0
  -21.0828   -8.8765   19.8946 H   0  0  0  0  0  0
  -22.3675  -10.9669   19.6158 H   0  0  0  0  0  0
  -21.2012   -7.6138   23.9713 H   0  0  0  0  0  0
  -21.1472   -6.0515   25.9074 H   0  0  0  0  0  0
  -22.0600   -2.7603   23.2838 H   0  0  0  0  0  0
  -22.4050  -11.9936   22.4820 H   0  0  0  0  0  0
  -21.1090  -13.1326   22.2544 H   0  0  0  0  0  0
  -24.6650  -15.8455   20.5072 H   0  0  0  0  0  0
  -26.2752  -15.6203   20.0511 H   0  0  0  0  0  0
  -26.7130  -32.5519   23.1144 H   0  0  0  0  0  0
  -24.9966  -33.9740   25.0412 H   0  0  0  0  0  0
  -22.7013  -31.3096   21.4066 H   0  0  0  0  0  0
  -23.3730  -35.9671   23.3305 H   0  0  0  0  0  0
  -24.3580  -36.8940   22.2060 H   0  0  0  0  0  0
  -23.7258  -37.6531   23.6661 H   0  0  0  0  0  0
  -26.0732  -31.5891   20.6004 H   0  0  0  0  0  0
  -26.8272  -30.8693   21.9950 H   0  0  0  0  0  0
  -28.1063  -29.0591   21.1869 H   0  0  0  0  0  0
  -26.0390  -25.9703   18.9950 H   0  0  0  0  0  0
  -23.9842  -27.3136   19.0074 H   0  0  0  0  0  0
  -23.7346  -30.6063   19.4036 H   0  0  0  0  0  0
  -22.7449  -29.2525   19.8575 H   0  0  0  0  0  0
  -25.1268  -36.1955   25.0830 H   0  0  0  0  0  0
  -21.0047  -28.3261   24.1388 H   0  0  0  0  0  0
  -20.5666  -26.2296   23.3607 H   0  0  0  0  0  0
  -21.6638  -26.7416   22.1206 H   0  0  0  0  0  0
  -19.6867  -25.6306   21.1228 H   0  0  0  0  0  0
  -19.6647  -27.3218   20.6761 H   0  0  0  0  0  0
  -17.4188  -26.6729   21.4036 H   0  0  0  0  0  0
  -18.0304  -26.0053   22.9010 H   0  0  0  0  0  0
  -19.7946  -30.7293   24.2262 H   0  0  0  0  0  0
  -17.5013  -31.6257   24.5184 H   0  0  0  0  0  0
  -15.5359  -30.2972   23.7632 H   0  0  0  0  0  0
  -15.8703  -28.0809   22.7046 H   0  0  0  0  0  0
  -24.5880  -30.7052   25.7816 H   0  0  0  0  0  0
  -24.8923  -32.2865   26.4939 H   0  0  0  0  0  0
  -25.8078  -30.8857   27.0234 H   0  0  0  0  0  0
  -26.2854  -29.6761   24.1180 H   0  0  0  0  0  0
  -27.4037  -29.7255   25.4604 H   0  0  0  0  0  0
  -27.8705  -30.4309   23.9314 H   0  0  0  0  0  0
  -27.2668  -33.3602   26.2068 H   0  0  0  0  0  0
  -28.3829  -32.6876   25.0279 H   0  0  0  0  0  0
  -28.0736  -31.8424   26.5362 H   0  0  0  0  0  0
  -28.2598  -38.0101   24.7505 H   0  0  0  0  0  0
  -28.1073  -36.2638   24.6285 H   0  0  0  0  0  0
  -27.2315  -37.1471   25.8874 H   0  0  0  0  0  0
  -20.9330  -29.8785   21.6913 H   0  0  0  0  0  0
  -26.0164  -38.2873   24.1384 H   0  0  0  0  0  0
  -28.1972  -17.9040   20.8333 H   0  0  0  0  0  0
  -33.8705  -26.0679   17.9961 H   0  0  0  0  0  0
  -33.3215  -24.6639   18.8841 H   0  0  0  0  0  0
  -32.8424  -26.2754   19.4085 H   0  0  0  0  0  0
  -32.3658  -27.3197   16.4368 H   0  0  0  0  0  0
  -31.2957  -27.7110   17.7783 H   0  0  0  0  0  0
  -30.6523  -26.9468   16.3298 H   0  0  0  0  0  0
  -27.1100  -24.5608   22.7307 H   0  0  0  0  0  0
  -26.5188  -26.1137   22.2364 H   0  0  0  0  0  0
  -28.1303  -25.9843   22.9291 H   0  0  0  0  0  0
  -28.3273  -20.7112   21.0530 H   0  0  0  0  0  0
  -28.5858  -20.6562   19.3293 H   0  0  0  0  0  0
  -30.3075  -25.7576   19.1853 H   0  0  0  0  0  0
  -29.6396  -25.1427   17.6944 H   0  0  0  0  0  0
  -30.1384  -24.7715   21.2601 H   0  0  0  0  0  0
  -29.0230  -23.6496   21.9159 H   0  0  0  0  0  0
  -28.5396  -22.9981   19.3327 H   0  0  0  0  0  0
  -31.9893  -24.8987   16.8041 H   0  0  0  0  0  0
  -27.2713  -24.7321   20.2675 H   0  0  0  0  0  0
  -28.9756  -15.3682   21.1438 H   0  0  0  0  0  0
  -30.7538  -21.6607   19.7543 H   0  0  0  0  0  0
  -30.3746  -21.9192   21.3028 H   0  0  0  0  0  0
  1 25  1  0  0  0
  1 30  2  0  0  0
  1 85  1  0  0  0
  2  3  1  0  0  0
  2 25  1  0  0  0
  2 89  1  0  0  0
  2 90  1  0  0  0
  3  4  1  0  0  0
  3 91  1  0  0  0
  3 92  1  0  0  0
  4  5  1  0  0  0
  4 93  1  0  0  0
  4 94  1  0  0  0
  5  6  1  0  0  0
  5 26  1  0  0  0
  5 95  1  0  0  0
  6 25  1  0  0  0
  6 96  1  0  0  0
  6 97  1  0  0  0
  7  8  2  0  0  0
  7 26  1  0  0  0
  7 29  1  0  0  0
  8  9  1  0  0  0
  8 22  1  0  0  0
  9 10  1  0  0  0
  9 27  2  0  0  0
 10 11  2  0  0  0
 10 15  1  0  0  0
 11 12  1  0  0  0
 11 98  1  0  0  0
 12 13  2  0  0  0
 12 99  1  0  0  0
 13 14  1  0  0  0
 13 31  1  0  0  0
 14 15  2  0  0  0
 14100  1  0  0  0
 15101  1  0  0  0
 16 17  2  0  0  0
 16 21  1  0  0  0
 16 31  1  0  0  0
 17 18  1  0  0  0
 17102  1  0  0  0
 18 19  2  0  0  0
 18103  1  0  0  0
 19 20  1  0  0  0
 19 24  1  0  0  0
 20 21  2  0  0  0
 20104  1  0  0  0
 21 23  1  0  0  0
 22 28  1  0  0  0
 22 32  2  0  0  0
 26 27  1  0  0  0
 28105  1  0  0  0
 28106  1  0  0  0
 29107  1  0  0  0
 29108  1  0  0  0
 33 34  1  0  0  0
 33 66  1  0  0  0
 33 70  2  0  0  0
 34 36  1  0  0  0
 34 59  1  0  0  0
 34109  1  0  0  0
 35 44  2  0  0  0
 35 45  1  0  0  0
 35 68  1  0  0  0
 36 56  1  0  0  0
 36110  1  0  0  0
 37 39  1  0  0  0
 37 47  1  0  0  0
 37 66  1  0  0  0
 37111  1  0  0  0
 38 43  2  0  0  0
 38 46  1  0  0  0
 38 47  1  0  0  0
 39 64  1  0  0  0
 39 67  2  0  0  0
 40 52  1  0  0  0
 40 53  2  0  0  0
 40 58  1  0  0  0
 41112  1  0  0  0
 41113  1  0  0  0
 41114  1  0  0  0
 41 48  1  0  0  0
 42 43  1  0  0  0
 42 66  1  0  0  0
 42115  1  0  0  0
 42116  1  0  0  0
 43 44  1  0  0  0
 44117  1  0  0  0
 45 46  2  0  0  0
 45118  1  0  0  0
 46119  1  0  0  0
 47120  1  0  0  0
 47121  1  0  0  0
 48 56  1  0  0  0
 48 65  1  0  0  0
 48122  1  0  0  0
 49 50  1  0  0  0
 49 53  1  0  0  0
 49 64  1  0  0  0
 49123  1  0  0  0
 50 51  1  0  0  0
 50124  1  0  0  0
 50125  1  0  0  0
 51 52  1  0  0  0
 51126  1  0  0  0
 51127  1  0  0  0
 52128  1  0  0  0
 52129  1  0  0  0
 53 54  1  0  0  0
 54 55  2  0  0  0
 54130  1  0  0  0
 55 57  1  0  0  0
 55131  1  0  0  0
 56 69  2  0  0  0
 57 58  2  0  0  0
 57132  1  0  0  0
 58133  1  0  0  0
 59 60  1  0  0  0
 59 61  1  0  0  0
 59 62  1  0  0  0
 60134  1  0  0  0
 60135  1  0  0  0
 60136  1  0  0  0
 61137  1  0  0  0
 61138  1  0  0  0
 61139  1  0  0  0
 62140  1  0  0  0
 62141  1  0  0  0
 62142  1  0  0  0
 63 65  1  0  0  0
 63143  1  0  0  0
 63144  1  0  0  0
 63145  1  0  0  0
 64146  1  0  0  0
 65147  1  0  0  0
 68 83  1  0  0  0
 71 72  1  0  0  0
 71 73  2  0  0  0
 71148  1  0  0  0
 72 78  1  0  0  0
 72 84  2  0  0  0
 73 85  1  0  0  0
 73 88  1  0  0  0
 74 79  1  0  0  0
 74 81  1  0  0  0
 74 87  2  0  0  0
 75149  1  0  0  0
 75150  1  0  0  0
 75151  1  0  0  0
 75 82  1  0  0  0
 76 82  1  0  0  0
 76152  1  0  0  0
 76153  1  0  0  0
 76154  1  0  0  0
 77155  1  0  0  0
 77156  1  0  0  0
 77157  1  0  0  0
 77 83  1  0  0  0
 78 86  1  0  0  0
 78158  1  0  0  0
 78159  1  0  0  0
 79 82  1  0  0  0
 79160  1  0  0  0
 79161  1  0  0  0
 80 83  1  0  0  0
 80162  1  0  0  0
 80163  1  0  0  0
 80 81  1  0  0  0
 81 86  1  0  0  0
 81164  1  0  0  0
 82165  1  0  0  0
 83166  1  0  0  0
 84 88  1  0  0  0
 85167  1  0  0  0
 86168  1  0  0  0
 86169  1  0  0  0
M  CHG  1  86   1
M  ISO  4   1 100  68 101  83 101  85 100
M  END
> <chiral flag>
0

> <version>
0

> <s_m_source_file>
/data/baiqing/PycharmProjects/Reinvent-master-3.2/result/LINK_invent/BTK/process_docking_weight1_custom_product_contain_oxygen_bond_distance_aromatic_linkinvent_7_9_3/rearranged_h_0190.sdf

> <i_m_source_file_index>
79

> <r_mmod_Potential_Energy-OPLS-2005>
-386.745513916016

> <r_mmod_Stretch_Energy-OPLS-2005>
53.9632759094238

> <r_mmod_Bend_Energy-OPLS-2005>
124.313468933105

> <r_mmod_Torsional_Energy-OPLS-2005>
231.363327026367

> <r_mmod_Improper_Torsional_Energy-OPLS-2005>
5.03000259399414

> <r_mmod_Van_der_Waal_Energy-OPLS-2005>
142.662338256836

> <r_mmod_Electrostatic_Energy-OPLS-2005>
-496.533355712891

> <r_mmod_Solvation_Energy-OPLS-2005>
-477.659881591797

> <b_mmod_Minimization_Converged-OPLS-2005>
0

> <r_mmod_RMS_Derivative-OPLS-2005>
2.40463185310364

$$$$
79
                    3D
 Structure written by MMmdl.
163171  0  0  1  0            999 V2000
  -30.6413  -14.5404   20.5328 C   0  0  0  0  0  0
  -30.4280  -12.3340   19.4432 C   0  0  0  0  0  0
  -29.5010  -12.5025   18.2202 C   0  0  0  0  0  0
  -28.0194  -12.3642   18.6233 C   0  0  0  0  0  0
  -27.6577  -13.2101   19.8734 C   0  0  2  0  0  0
  -28.6963  -13.0047   20.9997 C   0  0  0  0  0  0
  -25.2572  -13.8175   20.5696 C   0  0  0  0  0  0
  -24.1823  -13.0434   20.9185 C   0  0  0  0  0  0
  -24.6398  -11.6905   20.8745 C   0  0  0  0  0  0
  -23.9077  -10.4281   21.0403 C   0  0  0  0  0  0
  -24.3620   -9.4192   21.9179 C   0  0  0  0  0  0
  -23.6294   -8.2231   22.0746 C   0  0  0  0  0  0
  -22.4283   -8.0273   21.3532 C   0  0  0  0  0  0
  -21.9918   -9.0250   20.4639 C   0  0  0  0  0  0
  -22.7250  -10.2127   20.3052 C   0  0  0  0  0  0
  -21.6854   -6.0733   22.5276 C   0  0  0  0  0  0
  -21.4015   -6.5637   23.8207 C   0  0  0  0  0  0
  -21.3661   -5.6790   24.9166 C   0  0  0  0  0  0
  -21.6043   -4.3054   24.7218 C   0  0  0  0  0  0
  -21.8820   -3.8145   23.4343 C   0  0  0  0  0  0
  -21.9192   -4.6960   22.3398 C   0  0  0  0  0  0
  -22.7848  -13.5227   21.1832 C   0  0  0  0  0  0
  -22.1652   -4.2146   21.0975 F   0  0  0  0  0  0
  -21.5631   -3.4536   25.7731 F   0  0  0  0  0  0
  -30.0233  -13.3272   20.4529 N   0  0  0  0  0  0
  -26.2997  -12.9342   20.3352 N   0  0  0  0  0  0
  -25.9321  -11.6502   20.5776 N   0  0  0  0  0  0
  -22.0499  -12.8217   22.0398 N   0  0  0  0  0  0
  -25.4334  -15.1889   20.4139 N   0  0  0  0  0  0
  -31.7817  -14.7213   20.0926 O   0  0  0  0  0  0
  -21.6638   -6.8877   21.4240 O   0  0  0  0  0  0
  -22.3531  -14.5533   20.6680 O   0  0  0  0  0  0
  -24.6183  -31.8606   23.2028 C   0  0  0  0  0  0
  -25.9060  -32.4783   23.8339 C   0  0  1  0  0  0
  -27.2366  -27.3774   20.1013 C   0  0  0  0  0  0
  -25.5904  -33.8581   24.2269 N   0  0  0  0  0  0
  -23.4088  -30.4851   21.5401 C   0  0  2  0  0  0
  -24.8546  -28.9367   20.1096 C   0  0  0  0  0  0
  -22.7412  -29.4636   22.4903 C   0  0  0  0  0  0
  -18.0272  -28.1379   22.8473 C   0  0  0  0  0  0
  -24.1489  -36.7304   23.2642 C   0  0  0  0  0  0
  -25.9417  -30.8105   21.3612 C   0  0  0  0  0  0
  -26.0159  -29.4400   20.7075 C   0  0  0  0  0  0
  -27.2032  -28.6663   20.6989 C   0  0  0  0  0  0
  -26.0493  -26.8920   19.5122 C   0  0  0  0  0  0
  -24.8683  -27.6640   19.5110 C   0  0  0  0  0  0
  -23.6197  -29.8106   20.1570 C   0  0  0  0  0  0
  -25.4113  -36.3089   24.0326 C   0  0  1  0  0  0
  -20.5860  -28.3667   23.1280 C   0  0  2  0  0  0
  -20.6751  -26.9387   22.5401 C   0  0  0  0  0  0
  -19.5750  -26.6372   21.5187 C   0  0  0  0  0  0
  -18.1926  -26.7923   22.1598 C   0  0  0  0  0  0
  -19.1520  -28.8834   23.2881 C   0  0  0  0  0  0
  -18.9465  -30.1440   23.8893 C   0  0  0  0  0  0
  -17.6472  -30.6585   24.0562 C   0  0  0  0  0  0
  -25.9038  -34.9456   23.5098 C   0  0  0  0  0  0
  -16.5359  -29.9089   23.6336 C   0  0  0  0  0  0
  -16.7262  -28.6511   23.0341 C   0  0  0  0  0  0
  -26.4462  -31.6602   25.0707 C   0  0  0  0  0  0
  -25.3720  -31.3734   26.1466 C   0  0  0  0  0  0
  -27.0305  -30.3044   24.6125 C   0  0  0  0  0  0
  -27.6030  -32.4326   25.7479 C   0  0  0  0  0  0
  -27.5569  -37.1803   24.8460 C   0  0  0  0  0  0
  -21.4129  -29.3040   22.3673 N   0  0  0  0  0  0
  -26.4289  -37.3779   23.9401 N   0  0  0  0  0  0
  -24.6746  -31.0676   22.0935 N   0  0  0  0  0  0
  -23.4166  -28.8151   23.2938 O   0  0  0  0  0  0
  -28.4246  -26.6569   20.1563 O   0  0  0  0  0  0
  -26.5612  -34.8920   22.4668 O   0  0  0  0  0  0
  -23.5373  -32.1362   23.7426 O   0  0  0  0  0  0
  -30.0335  -19.1665   19.5705 C   0  0  0  0  0  0
  -29.2688  -19.1636   20.7148 C   0  0  0  0  0  0
  -29.8968  -16.9275   20.6168 C   0  0  0  0  0  0
  -30.0359  -22.9432   21.2995 C   0  0  0  0  0  0
  -32.3664  -22.1803   22.0875 C   0  0  0  0  0  0
  -28.6025  -25.3718   18.0396 C   0  0  0  0  0  0
  -28.6167  -20.3501   21.4354 C   0  0  0  0  0  0
  -31.4061  -22.3815   20.9025 C   0  0  0  0  0  0
  -27.9913  -24.0705   20.2220 C   0  0  0  0  0  0
  -28.8791  -22.7517   20.2940 C   0  0  2  0  0  0
  -28.6660  -25.3412   19.5751 C   0  0  1  0  0  0
  -29.1842  -17.8629   21.2750 N   0  0  0  0  0  0
  -29.8842  -15.5523   21.0220 N   0  0  0  0  0  0
  -28.0866  -21.5004   20.6165 N   0  3  0  0  0  0
  -29.8757  -23.4691   22.4044 O   0  0  0  0  0  0
  -30.7101  -17.5911   19.2010 S   0  0  0  0  0  0
  -30.3452  -11.3279   19.8554 H   0  0  0  0  0  0
  -31.4714  -12.4442   19.1418 H   0  0  0  0  0  0
  -29.7486  -11.7640   17.4561 H   0  0  0  0  0  0
  -29.6650  -13.4798   17.7646 H   0  0  0  0  0  0
  -27.8272  -11.3093   18.8231 H   0  0  0  0  0  0
  -27.3764  -12.6366   17.7855 H   0  0  0  0  0  0
  -27.6969  -14.2562   19.5674 H   0  0  0  0  0  0
  -28.6828  -11.9691   21.3433 H   0  0  0  0  0  0
  -28.4498  -13.6046   21.8767 H   0  0  0  0  0  0
  -25.2760   -9.5657   22.4755 H   0  0  0  0  0  0
  -23.9992   -7.4624   22.7471 H   0  0  0  0  0  0
  -21.0847   -8.8777   19.8955 H   0  0  0  0  0  0
  -22.3715  -10.9661   19.6159 H   0  0  0  0  0  0
  -21.2010   -7.6144   23.9707 H   0  0  0  0  0  0
  -21.1484   -6.0519   25.9069 H   0  0  0  0  0  0
  -22.0608   -2.7610   23.2841 H   0  0  0  0  0  0
  -22.4126  -11.9868   22.4752 H   0  0  0  0  0  0
  -21.1116  -13.1224   22.2622 H   0  0  0  0  0  0
  -24.6761  -15.8525   20.5352 H   0  0  0  0  0  0
  -26.2938  -15.6239   20.1054 H   0  0  0  0  0  0
  -26.7126  -32.5447   23.1086 H   0  0  0  0  0  0
  -25.0080  -33.9710   25.0433 H   0  0  0  0  0  0
  -22.7017  -31.3044   21.3919 H   0  0  0  0  0  0
  -23.3744  -35.9646   23.3326 H   0  0  0  0  0  0
  -24.3588  -36.8909   22.2054 H   0  0  0  0  0  0
  -23.7240  -37.6511   23.6652 H   0  0  0  0  0  0
  -26.0616  -31.5742   20.5915 H   0  0  0  0  0  0
  -26.8276  -30.8621   21.9828 H   0  0  0  0  0  0
  -28.0984  -29.0472   21.1696 H   0  0  0  0  0  0
  -26.0092  -25.9098   19.0698 H   0  0  0  0  0  0
  -23.9707  -27.2627   19.0605 H   0  0  0  0  0  0
  -23.7314  -30.5805   19.3927 H   0  0  0  0  0  0
  -22.7416  -29.2324   19.8609 H   0  0  0  0  0  0
  -25.1290  -36.1949   25.0817 H   0  0  0  0  0  0
  -20.9972  -28.3249   24.1390 H   0  0  0  0  0  0
  -20.5609  -26.2273   23.3589 H   0  0  0  0  0  0
  -21.6629  -26.7388   22.1226 H   0  0  0  0  0  0
  -19.6916  -25.6279   21.1225 H   0  0  0  0  0  0
  -19.6724  -27.3169   20.6710 H   0  0  0  0  0  0
  -17.4184  -26.6646   21.4017 H   0  0  0  0  0  0
  -18.0355  -26.0060   22.8997 H   0  0  0  0  0  0
  -19.7952  -30.7247   24.2252 H   0  0  0  0  0  0
  -17.5045  -31.6267   24.5165 H   0  0  0  0  0  0
  -15.5367  -30.3004   23.7666 H   0  0  0  0  0  0
  -15.8652  -28.0848   22.7041 H   0  0  0  0  0  0
  -24.5888  -30.7076   25.7818 H   0  0  0  0  0  0
  -24.8917  -32.2900   26.4903 H   0  0  0  0  0  0
  -25.8080  -30.8917   27.0229 H   0  0  0  0  0  0
  -26.2874  -29.6812   24.1143 H   0  0  0  0  0  0
  -27.4033  -29.7283   25.4600 H   0  0  0  0  0  0
  -27.8716  -30.4367   23.9320 H   0  0  0  0  0  0
  -27.2643  -33.3619   26.2071 H   0  0  0  0  0  0
  -28.3838  -32.6903   25.0312 H   0  0  0  0  0  0
  -28.0701  -31.8444   26.5386 H   0  0  0  0  0  0
  -28.2585  -38.0102   24.7500 H   0  0  0  0  0  0
  -28.1060  -36.2623   24.6297 H   0  0  0  0  0  0
  -27.2282  -37.1469   25.8864 H   0  0  0  0  0  0
  -20.9267  -29.8816   21.6958 H   0  0  0  0  0  0
  -26.0179  -38.2854   24.1427 H   0  0  0  0  0  0
  -30.2742  -19.9986   18.9237 H   0  0  0  0  0  0
  -33.2859  -21.6969   21.7568 H   0  0  0  0  0  0
  -31.9246  -21.5463   22.8580 H   0  0  0  0  0  0
  -32.6406  -23.1309   22.5471 H   0  0  0  0  0  0
  -29.1911  -26.2028   17.6498 H   0  0  0  0  0  0
  -29.0123  -24.4562   17.6125 H   0  0  0  0  0  0
  -27.5909  -25.4773   17.6560 H   0  0  0  0  0  0
  -29.2384  -20.6715   22.2695 H   0  0  0  0  0  0
  -27.7307  -19.9623   21.9383 H   0  0  0  0  0  0
  -31.8575  -23.0551   20.1741 H   0  0  0  0  0  0
  -31.2629  -21.4316   20.3932 H   0  0  0  0  0  0
  -27.6678  -24.3303   21.2310 H   0  0  0  0  0  0
  -27.0720  -23.8543   19.6779 H   0  0  0  0  0  0
  -29.3217  -22.5862   19.3113 H   0  0  0  0  0  0
  -29.7299  -25.2360   19.7852 H   0  0  0  0  0  0
  -29.0721  -15.2687   21.5451 H   0  0  0  0  0  0
  -27.3162  -21.8292   21.1737 H   0  0  0  0  0  0
  -27.6817  -21.1262   19.7745 H   0  0  0  0  0  0
  1 25  1  0  0  0
  1 30  2  0  0  0
  1 83  1  0  0  0
  2  3  1  0  0  0
  2 25  1  0  0  0
  2 87  1  0  0  0
  2 88  1  0  0  0
  3  4  1  0  0  0
  3 89  1  0  0  0
  3 90  1  0  0  0
  4  5  1  0  0  0
  4 91  1  0  0  0
  4 92  1  0  0  0
  5  6  1  0  0  0
  5 26  1  0  0  0
  5 93  1  0  0  0
  6 25  1  0  0  0
  6 94  1  0  0  0
  6 95  1  0  0  0
  7  8  2  0  0  0
  7 26  1  0  0  0
  7 29  1  0  0  0
  8  9  1  0  0  0
  8 22  1  0  0  0
  9 10  1  0  0  0
  9 27  2  0  0  0
 10 11  2  0  0  0
 10 15  1  0  0  0
 11 12  1  0  0  0
 11 96  1  0  0  0
 12 13  2  0  0  0
 12 97  1  0  0  0
 13 14  1  0  0  0
 13 31  1  0  0  0
 14 15  2  0  0  0
 14 98  1  0  0  0
 15 99  1  0  0  0
 16 17  2  0  0  0
 16 21  1  0  0  0
 16 31  1  0  0  0
 17 18  1  0  0  0
 17100  1  0  0  0
 18 19  2  0  0  0
 18101  1  0  0  0
 19 20  1  0  0  0
 19 24  1  0  0  0
 20 21  2  0  0  0
 20102  1  0  0  0
 21 23  1  0  0  0
 22 28  1  0  0  0
 22 32  2  0  0  0
 26 27  1  0  0  0
 28103  1  0  0  0
 28104  1  0  0  0
 29105  1  0  0  0
 29106  1  0  0  0
 33 34  1  0  0  0
 33 66  1  0  0  0
 33 70  2  0  0  0
 34 36  1  0  0  0
 34 59  1  0  0  0
 34107  1  0  0  0
 35 44  2  0  0  0
 35 45  1  0  0  0
 35 68  1  0  0  0
 36 56  1  0  0  0
 36108  1  0  0  0
 37 39  1  0  0  0
 37 47  1  0  0  0
 37 66  1  0  0  0
 37109  1  0  0  0
 38 43  2  0  0  0
 38 46  1  0  0  0
 38 47  1  0  0  0
 39 64  1  0  0  0
 39 67  2  0  0  0
 40 52  1  0  0  0
 40 53  2  0  0  0
 40 58  1  0  0  0
 41110  1  0  0  0
 41111  1  0  0  0
 41112  1  0  0  0
 41 48  1  0  0  0
 42 43  1  0  0  0
 42 66  1  0  0  0
 42113  1  0  0  0
 42114  1  0  0  0
 43 44  1  0  0  0
 44115  1  0  0  0
 45 46  2  0  0  0
 45116  1  0  0  0
 46117  1  0  0  0
 47118  1  0  0  0
 47119  1  0  0  0
 48 56  1  0  0  0
 48 65  1  0  0  0
 48120  1  0  0  0
 49 50  1  0  0  0
 49 53  1  0  0  0
 49 64  1  0  0  0
 49121  1  0  0  0
 50 51  1  0  0  0
 50122  1  0  0  0
 50123  1  0  0  0
 51 52  1  0  0  0
 51124  1  0  0  0
 51125  1  0  0  0
 52126  1  0  0  0
 52127  1  0  0  0
 53 54  1  0  0  0
 54 55  2  0  0  0
 54128  1  0  0  0
 55 57  1  0  0  0
 55129  1  0  0  0
 56 69  2  0  0  0
 57 58  2  0  0  0
 57130  1  0  0  0
 58131  1  0  0  0
 59 60  1  0  0  0
 59 61  1  0  0  0
 59 62  1  0  0  0
 60132  1  0  0  0
 60133  1  0  0  0
 60134  1  0  0  0
 61135  1  0  0  0
 61136  1  0  0  0
 61137  1  0  0  0
 62138  1  0  0  0
 62139  1  0  0  0
 62140  1  0  0  0
 63 65  1  0  0  0
 63141  1  0  0  0
 63142  1  0  0  0
 63143  1  0  0  0
 64144  1  0  0  0
 65145  1  0  0  0
 68 81  1  0  0  0
 71 72  2  0  0  0
 71 86  1  0  0  0
 71146  1  0  0  0
 72 77  1  0  0  0
 72 82  1  0  0  0
 73 82  2  0  0  0
 73 83  1  0  0  0
 73 86  1  0  0  0
 74 78  1  0  0  0
 74 80  1  0  0  0
 74 85  2  0  0  0
 75 78  1  0  0  0
 75147  1  0  0  0
 75148  1  0  0  0
 75149  1  0  0  0
 76150  1  0  0  0
 76151  1  0  0  0
 76152  1  0  0  0
 76 81  1  0  0  0
 77 84  1  0  0  0
 77153  1  0  0  0
 77154  1  0  0  0
 78155  1  0  0  0
 78156  1  0  0  0
 79 81  1  0  0  0
 79157  1  0  0  0
 79158  1  0  0  0
 79 80  1  0  0  0
 80 84  1  0  0  0
 80159  1  0  0  0
 81160  1  0  0  0
 83161  1  0  0  0
 84162  1  0  0  0
 84163  1  0  0  0
M  CHG  1  84   1
M  ISO  4   1 100  68 101  81 101  83 100
M  END
> <chiral flag>
0

> <version>
0

> <s_m_source_file>
/data/baiqing/PycharmProjects/Reinvent-master-3.2/result/LINK_invent/BTK/process_docking_weight1_custom_product_contain_oxygen_bond_distance_aromatic_linkinvent_7_9_3/rearranged_h_0190.sdf

> <i_m_source_file_index>
80

> <r_mmod_Potential_Energy-OPLS-2005>
-398.978363037109

> <r_mmod_Stretch_Energy-OPLS-2005>
54.437068939209

> <r_mmod_Bend_Energy-OPLS-2005>
158.487030029297

> <r_mmod_Torsional_Energy-OPLS-2005>
218.567764282227

> <r_mmod_Improper_Torsional_Energy-OPLS-2005>
4.16438579559326

> <r_mmod_Van_der_Waal_Energy-OPLS-2005>
122.914970397949

> <r_mmod_Electrostatic_Energy-OPLS-2005>
-463.588775634766

> <r_mmod_Solvation_Energy-OPLS-2005>
-517.191284179688

> <b_mmod_Minimization_Converged-OPLS-2005>
0

> <r_mmod_RMS_Derivative-OPLS-2005>
1.74517345428467

$$$$
80
                    3D
 Structure written by MMmdl.
162170  0  0  1  0            999 V2000
  -30.7226  -14.4821   20.5395 C   0  0  0  0  0  0
  -30.4113  -12.3046   19.4424 C   0  0  0  0  0  0
  -29.4996  -12.5062   18.2147 C   0  0  0  0  0  0
  -28.0185  -12.3707   18.6197 C   0  0  0  0  0  0
  -27.6599  -13.2156   19.8741 C   0  0  2  0  0  0
  -28.7017  -13.0320   21.0027 C   0  0  0  0  0  0
  -25.2574  -13.8188   20.5766 C   0  0  0  0  0  0
  -24.1825  -13.0444   20.9169 C   0  0  0  0  0  0
  -24.6397  -11.6907   20.8692 C   0  0  0  0  0  0
  -23.9065  -10.4290   21.0374 C   0  0  0  0  0  0
  -24.3628   -9.4218   21.9156 C   0  0  0  0  0  0
  -23.6304   -8.2259   22.0755 C   0  0  0  0  0  0
  -22.4287   -8.0284   21.3547 C   0  0  0  0  0  0
  -21.9915   -9.0252   20.4647 C   0  0  0  0  0  0
  -22.7235  -10.2124   20.3038 C   0  0  0  0  0  0
  -21.6850   -6.0727   22.5264 C   0  0  0  0  0  0
  -21.4021   -6.5632   23.8205 C   0  0  0  0  0  0
  -21.3672   -5.6795   24.9172 C   0  0  0  0  0  0
  -21.6053   -4.3062   24.7223 C   0  0  0  0  0  0
  -21.8834   -3.8148   23.4344 C   0  0  0  0  0  0
  -21.9197   -4.6958   22.3392 C   0  0  0  0  0  0
  -22.7824  -13.5190   21.1835 C   0  0  0  0  0  0
  -22.1673   -4.2147   21.0969 F   0  0  0  0  0  0
  -21.5628   -3.4552   25.7740 F   0  0  0  0  0  0
  -30.0274  -13.3162   20.4404 N   0  0  0  0  0  0
  -26.3014  -12.9386   20.3371 N   0  0  0  0  0  0
  -25.9323  -11.6527   20.5722 N   0  0  0  0  0  0
  -22.0495  -12.8145   22.0380 N   0  0  0  0  0  0
  -25.4326  -15.1926   20.4355 N   0  0  0  0  0  0
  -31.8709  -14.5715   20.1007 O   0  0  0  0  0  0
  -21.6648   -6.8886   21.4244 O   0  0  0  0  0  0
  -22.3487  -14.5508   20.6725 O   0  0  0  0  0  0
  -24.6158  -31.8719   23.2092 C   0  0  0  0  0  0
  -25.9049  -32.4859   23.8391 C   0  0  1  0  0  0
  -27.2040  -27.4452   20.0879 C   0  0  0  0  0  0
  -25.5905  -33.8651   24.2325 N   0  0  0  0  0  0
  -23.3993  -30.4974   21.5553 C   0  0  2  0  0  0
  -24.8383  -28.9732   20.1065 C   0  0  0  0  0  0
  -22.7408  -29.4672   22.5022 C   0  0  0  0  0  0
  -18.0288  -28.1377   22.8488 C   0  0  0  0  0  0
  -24.1501  -36.7334   23.2625 C   0  0  0  0  0  0
  -25.9278  -30.8412   21.3565 C   0  0  0  0  0  0
  -26.0023  -29.4790   20.7009 C   0  0  0  0  0  0
  -27.1957  -28.7230   20.6861 C   0  0  0  0  0  0
  -26.0319  -26.9626   19.4677 C   0  0  0  0  0  0
  -24.8462  -27.7141   19.4855 C   0  0  0  0  0  0
  -23.6012  -29.8380   20.1668 C   0  0  0  0  0  0
  -25.4126  -36.3139   24.0326 C   0  0  1  0  0  0
  -20.5869  -28.3667   23.1329 C   0  0  2  0  0  0
  -20.6796  -26.9413   22.5415 C   0  0  0  0  0  0
  -19.5778  -26.6375   21.5219 C   0  0  0  0  0  0
  -18.1944  -26.7925   22.1609 C   0  0  0  0  0  0
  -19.1531  -28.8832   23.2899 C   0  0  0  0  0  0
  -18.9456  -30.1438   23.8910 C   0  0  0  0  0  0
  -17.6461  -30.6585   24.0555 C   0  0  0  0  0  0
  -25.9044  -34.9497   23.5119 C   0  0  0  0  0  0
  -16.5351  -29.9091   23.6326 C   0  0  0  0  0  0
  -16.7272  -28.6508   23.0346 C   0  0  0  0  0  0
  -26.4454  -31.6628   25.0711 C   0  0  0  0  0  0
  -25.3681  -31.3739   26.1438 C   0  0  0  0  0  0
  -27.0297  -30.3075   24.6063 C   0  0  0  0  0  0
  -27.6033  -32.4337   25.7492 C   0  0  0  0  0  0
  -27.5601  -37.1841   24.8458 C   0  0  0  0  0  0
  -21.4144  -29.3026   22.3740 N   0  0  0  0  0  0
  -26.4315  -37.3820   23.9393 N   0  0  0  0  0  0
  -24.6680  -31.0812   22.1014 N   0  0  0  0  0  0
  -23.4187  -28.8206   23.3049 O   0  0  0  0  0  0
  -28.3109  -26.6340   20.1658 O   0  0  0  0  0  0
  -26.5595  -34.8941   22.4681 O   0  0  0  0  0  0
  -23.5351  -32.1494   23.7480 O   0  0  0  0  0  0
  -31.6837  -17.3863   20.5265 C   0  0  0  0  0  0
  -30.4787  -16.9328   21.0151 C   0  0  0  0  0  0
  -30.2997  -19.1750   21.4946 C   0  0  0  0  0  0
  -30.2411  -20.5488   23.5875 C   0  0  0  0  0  0
  -31.5983  -23.3319   22.3586 C   0  0  0  0  0  0
  -30.0340  -23.8872   20.4406 C   0  0  0  0  0  0
  -28.0188  -25.4201   20.8897 C   0  0  0  0  0  0
  -29.7726  -20.4490   22.1231 C   0  0  1  0  0  0
  -30.2774  -22.9422   21.6560 C   0  0  1  0  0  0
  -28.5418  -24.1598   20.1734 C   0  0  1  0  0  0
  -29.6905  -17.9713   21.5474 N   0  0  0  0  0  0
  -30.0446  -15.5640   20.9954 N   0  0  0  0  0  0
  -30.2816  -21.5165   21.2143 N   0  3  0  0  0  0
  -28.2430  -24.2594   18.7905 O   0  0  0  0  0  0
  -31.9052  -19.0894   20.7696 S   0  0  0  0  0  0
  -31.4595  -12.3723   19.1443 H   0  0  0  0  0  0
  -30.2972  -11.3020   19.8617 H   0  0  0  0  0  0
  -29.7435  -11.7826   17.4383 H   0  0  0  0  0  0
  -29.6783  -13.4909   17.7801 H   0  0  0  0  0  0
  -27.8199  -11.3159   18.8083 H   0  0  0  0  0  0
  -27.3778  -12.6525   17.7840 H   0  0  0  0  0  0
  -27.6958  -14.2598   19.5621 H   0  0  0  0  0  0
  -28.6790  -12.0121   21.3890 H   0  0  0  0  0  0
  -28.4696  -13.6749   21.8531 H   0  0  0  0  0  0
  -25.2810   -9.5673   22.4684 H   0  0  0  0  0  0
  -24.0040   -7.4633   22.7444 H   0  0  0  0  0  0
  -21.0872   -8.8734   19.8908 H   0  0  0  0  0  0
  -22.3715  -10.9650   19.6115 H   0  0  0  0  0  0
  -21.2028   -7.6136   23.9708 H   0  0  0  0  0  0
  -21.1475   -6.0520   25.9073 H   0  0  0  0  0  0
  -22.0607   -2.7612   23.2832 H   0  0  0  0  0  0
  -22.4202  -11.9819   22.4742 H   0  0  0  0  0  0
  -21.1081  -13.1071   22.2602 H   0  0  0  0  0  0
  -24.6828  -15.8491   20.6239 H   0  0  0  0  0  0
  -26.2982  -15.6453   20.1697 H   0  0  0  0  0  0
  -26.7128  -32.5563   23.1166 H   0  0  0  0  0  0
  -25.0079  -33.9836   25.0485 H   0  0  0  0  0  0
  -22.6881  -31.3162   21.4227 H   0  0  0  0  0  0
  -23.3766  -35.9664   23.3297 H   0  0  0  0  0  0
  -24.3578  -36.8945   22.2033 H   0  0  0  0  0  0
  -23.7260  -37.6545   23.6635 H   0  0  0  0  0  0
  -26.0234  -31.6016   20.5825 H   0  0  0  0  0  0
  -26.8247  -30.9042   21.9603 H   0  0  0  0  0  0
  -28.0895  -29.0963   21.1635 H   0  0  0  0  0  0
  -26.0198  -25.9864   19.0031 H   0  0  0  0  0  0
  -23.9496  -27.3166   19.0276 H   0  0  0  0  0  0
  -23.7032  -30.6198   19.4124 H   0  0  0  0  0  0
  -22.7252  -29.2565   19.8746 H   0  0  0  0  0  0
  -25.1303  -36.2012   25.0816 H   0  0  0  0  0  0
  -20.9930  -28.3232   24.1464 H   0  0  0  0  0  0
  -20.5738  -26.2275   23.3606 H   0  0  0  0  0  0
  -21.6679  -26.7499   22.1193 H   0  0  0  0  0  0
  -19.6945  -25.6282   21.1278 H   0  0  0  0  0  0
  -19.6717  -27.3170   20.6742 H   0  0  0  0  0  0
  -17.4231  -26.6674   21.3990 H   0  0  0  0  0  0
  -18.0308  -26.0053   22.8984 H   0  0  0  0  0  0
  -19.7924  -30.7240   24.2294 H   0  0  0  0  0  0
  -17.5026  -31.6278   24.5138 H   0  0  0  0  0  0
  -15.5357  -30.3000   23.7656 H   0  0  0  0  0  0
  -15.8671  -28.0837   22.7059 H   0  0  0  0  0  0
  -24.5835  -30.7123   25.7744 H   0  0  0  0  0  0
  -24.8871  -32.2902   26.4874 H   0  0  0  0  0  0
  -25.7980  -30.8887   27.0210 H   0  0  0  0  0  0
  -26.2867  -29.6853   24.1057 H   0  0  0  0  0  0
  -27.4048  -29.7285   25.4513 H   0  0  0  0  0  0
  -27.8689  -30.4431   23.9237 H   0  0  0  0  0  0
  -27.2666  -33.3635   26.2103 H   0  0  0  0  0  0
  -28.3839  -32.6921   25.0316 H   0  0  0  0  0  0
  -28.0710  -31.8425   26.5386 H   0  0  0  0  0  0
  -28.2627  -38.0134   24.7530 H   0  0  0  0  0  0
  -28.1112  -36.2677   24.6284 H   0  0  0  0  0  0
  -27.2304  -37.1479   25.8855 H   0  0  0  0  0  0
  -20.9322  -29.8741   21.6949 H   0  0  0  0  0  0
  -26.0212  -38.2906   24.1373 H   0  0  0  0  0  0
  -32.4859  -16.8377   20.0543 H   0  0  0  0  0  0
  -29.8639  -19.6996   24.1604 H   0  0  0  0  0  0
  -29.8769  -21.4499   24.0787 H   0  0  0  0  0  0
  -31.3290  -20.5277   23.6632 H   0  0  0  0  0  0
  -31.5649  -24.3700   22.6922 H   0  0  0  0  0  0
  -32.4557  -23.2358   21.6937 H   0  0  0  0  0  0
  -31.7997  -22.7385   23.2498 H   0  0  0  0  0  0
  -30.5181  -23.4755   19.5544 H   0  0  0  0  0  0
  -30.5242  -24.8489   20.6031 H   0  0  0  0  0  0
  -28.4794  -25.5060   21.8750 H   0  0  0  0  0  0
  -26.9566  -25.2751   21.1054 H   0  0  0  0  0  0
  -28.6812  -20.4439   22.0912 H   0  0  0  0  0  0
  -29.4706  -23.0900   22.3744 H   0  0  0  0  0  0
  -27.9781  -23.3007   20.5410 H   0  0  0  0  0  0
  -29.1053  -15.3930   21.3190 H   0  0  0  0  0  0
  -29.7046  -21.4433   20.3911 H   0  0  0  0  0  0
  -31.2125  -21.2588   20.9284 H   0  0  0  0  0  0
  -28.3822  -25.1717   18.5459 H   0  0  0  0  0  0
  1 25  1  0  0  0
  1 30  2  0  0  0
  1 82  1  0  0  0
  2  3  1  0  0  0
  2 25  1  0  0  0
  2 86  1  0  0  0
  2 87  1  0  0  0
  3  4  1  0  0  0
  3 88  1  0  0  0
  3 89  1  0  0  0
  4  5  1  0  0  0
  4 90  1  0  0  0
  4 91  1  0  0  0
  5  6  1  0  0  0
  5 26  1  0  0  0
  5 92  1  0  0  0
  6 25  1  0  0  0
  6 93  1  0  0  0
  6 94  1  0  0  0
  7  8  2  0  0  0
  7 26  1  0  0  0
  7 29  1  0  0  0
  8  9  1  0  0  0
  8 22  1  0  0  0
  9 10  1  0  0  0
  9 27  2  0  0  0
 10 11  2  0  0  0
 10 15  1  0  0  0
 11 12  1  0  0  0
 11 95  1  0  0  0
 12 13  2  0  0  0
 12 96  1  0  0  0
 13 14  1  0  0  0
 13 31  1  0  0  0
 14 15  2  0  0  0
 14 97  1  0  0  0
 15 98  1  0  0  0
 16 17  2  0  0  0
 16 21  1  0  0  0
 16 31  1  0  0  0
 17 18  1  0  0  0
 17 99  1  0  0  0
 18 19  2  0  0  0
 18100  1  0  0  0
 19 20  1  0  0  0
 19 24  1  0  0  0
 20 21  2  0  0  0
 20101  1  0  0  0
 21 23  1  0  0  0
 22 28  1  0  0  0
 22 32  2  0  0  0
 26 27  1  0  0  0
 28102  1  0  0  0
 28103  1  0  0  0
 29104  1  0  0  0
 29105  1  0  0  0
 33 34  1  0  0  0
 33 66  1  0  0  0
 33 70  2  0  0  0
 34 36  1  0  0  0
 34 59  1  0  0  0
 34106  1  0  0  0
 35 44  2  0  0  0
 35 45  1  0  0  0
 35 68  1  0  0  0
 36 56  1  0  0  0
 36107  1  0  0  0
 37 39  1  0  0  0
 37 47  1  0  0  0
 37 66  1  0  0  0
 37108  1  0  0  0
 38 43  2  0  0  0
 38 46  1  0  0  0
 38 47  1  0  0  0
 39 64  1  0  0  0
 39 67  2  0  0  0
 40 52  1  0  0  0
 40 53  2  0  0  0
 40 58  1  0  0  0
 41109  1  0  0  0
 41110  1  0  0  0
 41111  1  0  0  0
 41 48  1  0  0  0
 42 43  1  0  0  0
 42 66  1  0  0  0
 42112  1  0  0  0
 42113  1  0  0  0
 43 44  1  0  0  0
 44114  1  0  0  0
 45 46  2  0  0  0
 45115  1  0  0  0
 46116  1  0  0  0
 47117  1  0  0  0
 47118  1  0  0  0
 48 56  1  0  0  0
 48 65  1  0  0  0
 48119  1  0  0  0
 49 50  1  0  0  0
 49 53  1  0  0  0
 49 64  1  0  0  0
 49120  1  0  0  0
 50 51  1  0  0  0
 50121  1  0  0  0
 50122  1  0  0  0
 51 52  1  0  0  0
 51123  1  0  0  0
 51124  1  0  0  0
 52125  1  0  0  0
 52126  1  0  0  0
 53 54  1  0  0  0
 54 55  2  0  0  0
 54127  1  0  0  0
 55 57  1  0  0  0
 55128  1  0  0  0
 56 69  2  0  0  0
 57 58  2  0  0  0
 57129  1  0  0  0
 58130  1  0  0  0
 59 60  1  0  0  0
 59 61  1  0  0  0
 59 62  1  0  0  0
 60131  1  0  0  0
 60132  1  0  0  0
 60133  1  0  0  0
 61134  1  0  0  0
 61135  1  0  0  0
 61136  1  0  0  0
 62137  1  0  0  0
 62138  1  0  0  0
 62139  1  0  0  0
 63 65  1  0  0  0
 63140  1  0  0  0
 63141  1  0  0  0
 63142  1  0  0  0
 64143  1  0  0  0
 65144  1  0  0  0
 68 77  1  0  0  0
 71 72  2  0  0  0
 71 85  1  0  0  0
 71145  1  0  0  0
 72 81  1  0  0  0
 72 82  1  0  0  0
 73 78  1  0  0  0
 73 81  2  0  0  0
 73 85  1  0  0  0
 74146  1  0  0  0
 74147  1  0  0  0
 74148  1  0  0  0
 74 78  1  0  0  0
 75149  1  0  0  0
 75150  1  0  0  0
 75151  1  0  0  0
 75 79  1  0  0  0
 76 79  1  0  0  0
 76 80  1  0  0  0
 76152  1  0  0  0
 76153  1  0  0  0
 77 80  1  0  0  0
 77154  1  0  0  0
 77155  1  0  0  0
 78 83  1  0  0  0
 78156  1  0  0  0
 79 83  1  0  0  0
 79157  1  0  0  0
 80 84  1  0  0  0
 80158  1  0  0  0
 82159  1  0  0  0
 83160  1  0  0  0
 83161  1  0  0  0
 84162  1  0  0  0
M  CHG  1  83   1
M  ISO  4   1 100  68 101  77 101  82 100
M  END
> <chiral flag>
0

> <version>
0

> <s_m_source_file>
/data/baiqing/PycharmProjects/Reinvent-master-3.2/result/LINK_invent/BTK/process_docking_weight1_custom_product_contain_oxygen_bond_distance_aromatic_linkinvent_7_9_3/rearranged_h_0190.sdf

> <i_m_source_file_index>
81

> <r_mmod_Potential_Energy-OPLS-2005>
-239.616287231445

> <r_mmod_Stretch_Energy-OPLS-2005>
38.0517807006836

> <r_mmod_Bend_Energy-OPLS-2005>
107.975112915039

> <r_mmod_Torsional_Energy-OPLS-2005>
263.099365234375

> <r_mmod_Improper_Torsional_Energy-OPLS-2005>
3.83289742469788

> <r_mmod_Van_der_Waal_Energy-OPLS-2005>
145.906326293945

> <r_mmod_Electrostatic_Energy-OPLS-2005>
-347.666076660156

> <r_mmod_Solvation_Energy-OPLS-2005>
-470.816986083984

> <b_mmod_Minimization_Converged-OPLS-2005>
0

> <r_mmod_RMS_Derivative-OPLS-2005>
3.87573218345642

$$$$
81
                    3D
 Structure written by MMmdl.
164172  0  0  1  0            999 V2000
  -30.7250  -14.4057   20.6300 C   0  0  0  0  0  0
  -30.4275  -12.2900   19.4004 C   0  0  0  0  0  0
  -29.4941  -12.5186   18.1948 C   0  0  0  0  0  0
  -28.0139  -12.3802   18.6064 C   0  0  0  0  0  0
  -27.6683  -13.1978   19.8802 C   0  0  2  0  0  0
  -28.7071  -12.9418   20.9951 C   0  0  0  0  0  0
  -25.2630  -13.8151   20.5696 C   0  0  0  0  0  0
  -24.1866  -13.0448   20.9205 C   0  0  0  0  0  0
  -24.6413  -11.6912   20.8760 C   0  0  0  0  0  0
  -23.9081  -10.4308   21.0420 C   0  0  0  0  0  0
  -24.3636   -9.4225   21.9193 C   0  0  0  0  0  0
  -23.6316   -8.2255   22.0754 C   0  0  0  0  0  0
  -22.4289   -8.0305   21.3557 C   0  0  0  0  0  0
  -21.9935   -9.0273   20.4648 C   0  0  0  0  0  0
  -22.7260  -10.2158   20.3061 C   0  0  0  0  0  0
  -21.6843   -6.0769   22.5302 C   0  0  0  0  0  0
  -21.4002   -6.5666   23.8240 C   0  0  0  0  0  0
  -21.3657   -5.6806   24.9197 C   0  0  0  0  0  0
  -21.6037   -4.3068   24.7230 C   0  0  0  0  0  0
  -21.8818   -3.8181   23.4347 C   0  0  0  0  0  0
  -21.9195   -4.7002   22.3411 C   0  0  0  0  0  0
  -22.7892  -13.5257   21.1858 C   0  0  0  0  0  0
  -22.1666   -4.2196   21.0982 F   0  0  0  0  0  0
  -21.5629   -3.4540   25.7739 F   0  0  0  0  0  0
  -30.0458  -13.2432   20.4543 N   0  0  0  0  0  0
  -26.3059  -12.9298   20.3382 N   0  0  0  0  0  0
  -25.9336  -11.6471   20.5779 N   0  0  0  0  0  0
  -22.0507  -12.8257   22.0403 N   0  0  0  0  0  0
  -25.4379  -15.1866   20.4101 N   0  0  0  0  0  0
  -31.8049  -14.6519   20.0878 O   0  0  0  0  0  0
  -21.6644   -6.8909   21.4259 O   0  0  0  0  0  0
  -22.3596  -14.5573   20.6708 O   0  0  0  0  0  0
  -24.6121  -31.8690   23.2113 C   0  0  0  0  0  0
  -25.9022  -32.4824   23.8405 C   0  0  1  0  0  0
  -27.2343  -27.4455   20.1024 C   0  0  0  0  0  0
  -25.5878  -33.8623   24.2343 N   0  0  0  0  0  0
  -23.3986  -30.4927   21.5504 C   0  0  2  0  0  0
  -24.8439  -28.9566   20.1154 C   0  0  0  0  0  0
  -22.7394  -29.4664   22.4994 C   0  0  0  0  0  0
  -18.0266  -28.1376   22.8494 C   0  0  0  0  0  0
  -24.1486  -36.7324   23.2641 C   0  0  0  0  0  0
  -25.9236  -30.8387   21.3608 C   0  0  0  0  0  0
  -25.9999  -29.4720   20.7132 C   0  0  0  0  0  0
  -27.1949  -28.7232   20.7035 C   0  0  0  0  0  0
  -26.0626  -26.9438   19.4887 C   0  0  0  0  0  0
  -24.8705  -27.6925   19.5005 C   0  0  0  0  0  0
  -23.6051  -29.8220   20.1648 C   0  0  0  0  0  0
  -25.4106  -36.3123   24.0345 C   0  0  1  0  0  0
  -20.5857  -28.3655   23.1329 C   0  0  2  0  0  0
  -20.6756  -26.9394   22.5419 C   0  0  0  0  0  0
  -19.5734  -26.6388   21.5214 C   0  0  0  0  0  0
  -18.1915  -26.7923   22.1626 C   0  0  0  0  0  0
  -19.1516  -28.8833   23.2916 C   0  0  0  0  0  0
  -18.9445  -30.1438   23.8916 C   0  0  0  0  0  0
  -17.6448  -30.6583   24.0567 C   0  0  0  0  0  0
  -25.9025  -34.9479   23.5150 C   0  0  0  0  0  0
  -16.5340  -29.9085   23.6319 C   0  0  0  0  0  0
  -16.7256  -28.6504   23.0344 C   0  0  0  0  0  0
  -26.4456  -31.6592   25.0720 C   0  0  0  0  0  0
  -25.3723  -31.3695   26.1469 C   0  0  0  0  0  0
  -27.0292  -30.3041   24.6077 C   0  0  0  0  0  0
  -27.6044  -32.4299   25.7469 C   0  0  0  0  0  0
  -27.5588  -37.1817   24.8467 C   0  0  0  0  0  0
  -21.4127  -29.3033   22.3738 N   0  0  0  0  0  0
  -26.4302  -37.3801   23.9408 N   0  0  0  0  0  0
  -24.6629  -31.0812   22.0998 N   0  0  0  0  0  0
  -23.4180  -28.8207   23.3030 O   0  0  0  0  0  0
  -28.4326  -26.7663   20.1187 O   0  0  0  0  0  0
  -26.5599  -34.8924   22.4714 O   0  0  0  0  0  0
  -23.5314  -32.1431   23.7513 O   0  0  0  0  0  0
  -31.5875  -20.8904   20.0333 C   0  0  0  0  0  0
  -29.7028  -19.9098   20.8146 C   0  0  0  0  0  0
  -30.3182  -21.1122   20.6374 C   0  0  0  0  0  0
  -31.6997  -19.5443   19.8049 C   0  0  0  0  0  0
  -30.1868  -23.5905   20.7719 C   0  0  0  0  0  0
  -28.7322  -17.3581   19.6390 C   0  0  0  0  0  0
  -30.4526  -16.7472   21.4558 C   0  0  0  0  0  0
  -28.4486  -25.3289   20.0756 C   0  0  0  0  0  0
  -29.3292  -24.7768   21.2290 C   0  0  2  0  0  0
  -30.1774  -17.5186   20.1406 C   0  0  2  0  0  0
  -32.8307  -18.7870   19.1639 C   0  0  0  0  0  0
  -30.5203  -18.9371   20.2506 N   0  0  0  0  0  0
  -29.7260  -22.3494   21.0085 N   0  0  0  0  0  0
  -30.0826  -15.3310   21.3565 N   0  0  0  0  0  0
  -30.2491  -25.8158   21.7315 N   0  3  0  0  0  0
  -31.2724  -23.8304   20.2329 O   0  0  0  0  0  0
  -33.8666  -19.5862   18.9077 F   0  0  0  0  0  0
  -33.2769  -17.8085   19.9511 F   0  0  0  0  0  0
  -32.4626  -18.2439   18.0041 F   0  0  0  0  0  0
  -31.4694  -12.3981   19.0933 H   0  0  0  0  0  0
  -30.3333  -11.2671   19.7686 H   0  0  0  0  0  0
  -29.7273  -11.8114   17.3971 H   0  0  0  0  0  0
  -29.6696  -13.5132   17.7799 H   0  0  0  0  0  0
  -27.8124  -11.3222   18.7786 H   0  0  0  0  0  0
  -27.3670  -12.6810   17.7811 H   0  0  0  0  0  0
  -27.7234  -14.2504   19.6082 H   0  0  0  0  0  0
  -28.6710  -11.8970   21.3086 H   0  0  0  0  0  0
  -28.4635  -13.5133   21.8918 H   0  0  0  0  0  0
  -25.2774   -9.5703   22.4776 H   0  0  0  0  0  0
  -24.0046   -7.4635   22.7442 H   0  0  0  0  0  0
  -21.0881   -8.8783   19.8939 H   0  0  0  0  0  0
  -22.3722  -10.9704   19.6177 H   0  0  0  0  0  0
  -21.1980   -7.6171   23.9759 H   0  0  0  0  0  0
  -21.1471   -6.0531   25.9100 H   0  0  0  0  0  0
  -22.0593   -2.7645   23.2827 H   0  0  0  0  0  0
  -22.4071  -11.9903   22.4814 H   0  0  0  0  0  0
  -21.1110  -13.1285   22.2534 H   0  0  0  0  0  0
  -24.6760  -15.8464   20.5203 H   0  0  0  0  0  0
  -26.2942  -15.6223   20.0936 H   0  0  0  0  0  0
  -26.7092  -32.5544   23.1174 H   0  0  0  0  0  0
  -24.9995  -33.9789   25.0463 H   0  0  0  0  0  0
  -22.6856  -31.3082   21.4123 H   0  0  0  0  0  0
  -23.3744  -35.9664   23.3315 H   0  0  0  0  0  0
  -24.3584  -36.8921   22.2057 H   0  0  0  0  0  0
  -23.7242  -37.6535   23.6635 H   0  0  0  0  0  0
  -26.0300  -31.6017   20.5884 H   0  0  0  0  0  0
  -26.8142  -30.8974   21.9748 H   0  0  0  0  0  0
  -28.0872  -29.1219   21.1651 H   0  0  0  0  0  0
  -26.0532  -25.9909   18.9789 H   0  0  0  0  0  0
  -23.9823  -27.2992   19.0254 H   0  0  0  0  0  0
  -23.7068  -30.5955   19.4021 H   0  0  0  0  0  0
  -22.7303  -29.2383   19.8724 H   0  0  0  0  0  0
  -25.1284  -36.1999   25.0841 H   0  0  0  0  0  0
  -20.9948  -28.3214   24.1454 H   0  0  0  0  0  0
  -20.5664  -26.2263   23.3606 H   0  0  0  0  0  0
  -21.6625  -26.7444   22.1208 H   0  0  0  0  0  0
  -19.6894  -25.6307   21.1228 H   0  0  0  0  0  0
  -19.6677  -27.3214   20.6759 H   0  0  0  0  0  0
  -17.4191  -26.6679   21.4023 H   0  0  0  0  0  0
  -18.0310  -26.0060   22.9017 H   0  0  0  0  0  0
  -19.7924  -30.7247   24.2296 H   0  0  0  0  0  0
  -17.5006  -31.6260   24.5165 H   0  0  0  0  0  0
  -15.5343  -30.2998   23.7624 H   0  0  0  0  0  0
  -15.8658  -28.0829   22.7045 H   0  0  0  0  0  0
  -24.5881  -30.7070   25.7793 H   0  0  0  0  0  0
  -24.8938  -32.2853   26.4942 H   0  0  0  0  0  0
  -25.8069  -30.8828   27.0209 H   0  0  0  0  0  0
  -26.2838  -29.6802   24.1132 H   0  0  0  0  0  0
  -27.4081  -29.7273   25.4529 H   0  0  0  0  0  0
  -27.8661  -30.4389   23.9218 H   0  0  0  0  0  0
  -27.2676  -33.3580   26.2098 H   0  0  0  0  0  0
  -28.3815  -32.6888   25.0264 H   0  0  0  0  0  0
  -28.0748  -31.8386   26.5335 H   0  0  0  0  0  0
  -28.2614  -38.0107   24.7504 H   0  0  0  0  0  0
  -28.1079  -36.2640   24.6303 H   0  0  0  0  0  0
  -27.2304  -37.1472   25.8870 H   0  0  0  0  0  0
  -20.9275  -29.8758   21.6968 H   0  0  0  0  0  0
  -26.0201  -38.2888   24.1387 H   0  0  0  0  0  0
  -32.3428  -21.6180   19.7695 H   0  0  0  0  0  0
  -28.7433  -19.6609   21.2473 H   0  0  0  0  0  0
  -28.5272  -16.3338   19.3347 H   0  0  0  0  0  0
  -28.5526  -17.9916   18.7698 H   0  0  0  0  0  0
  -28.0054  -17.6320   20.4038 H   0  0  0  0  0  0
  -29.8908  -17.1927   22.2783 H   0  0  0  0  0  0
  -31.5056  -16.8345   21.7267 H   0  0  0  0  0  0
  -27.4625  -24.8726   20.1666 H   0  0  0  0  0  0
  -28.8366  -25.0365   19.0982 H   0  0  0  0  0  0
  -28.6824  -24.4797   22.0561 H   0  0  0  0  0  0
  -30.8085  -17.0941   19.3627 H   0  0  0  0  0  0
  -28.8327  -22.2856   21.4799 H   0  0  0  0  0  0
  -29.2048  -15.0530   21.7678 H   0  0  0  0  0  0
  -31.0323  -25.8474   21.0990 H   0  0  0  0  0  0
  -30.5941  -25.5778   22.6450 H   0  0  0  0  0  0
  -29.7895  -26.7093   21.7487 H   0  0  0  0  0  0
  1 25  1  0  0  0
  1 30  2  0  0  0
  1 84  1  0  0  0
  2  3  1  0  0  0
  2 25  1  0  0  0
  2 90  1  0  0  0
  2 91  1  0  0  0
  3  4  1  0  0  0
  3 92  1  0  0  0
  3 93  1  0  0  0
  4  5  1  0  0  0
  4 94  1  0  0  0
  4 95  1  0  0  0
  5  6  1  0  0  0
  5 26  1  0  0  0
  5 96  1  0  0  0
  6 25  1  0  0  0
  6 97  1  0  0  0
  6 98  1  0  0  0
  7  8  2  0  0  0
  7 26  1  0  0  0
  7 29  1  0  0  0
  8  9  1  0  0  0
  8 22  1  0  0  0
  9 10  1  0  0  0
  9 27  2  0  0  0
 10 11  2  0  0  0
 10 15  1  0  0  0
 11 12  1  0  0  0
 11 99  1  0  0  0
 12 13  2  0  0  0
 12100  1  0  0  0
 13 14  1  0  0  0
 13 31  1  0  0  0
 14 15  2  0  0  0
 14101  1  0  0  0
 15102  1  0  0  0
 16 17  2  0  0  0
 16 21  1  0  0  0
 16 31  1  0  0  0
 17 18  1  0  0  0
 17103  1  0  0  0
 18 19  2  0  0  0
 18104  1  0  0  0
 19 20  1  0  0  0
 19 24  1  0  0  0
 20 21  2  0  0  0
 20105  1  0  0  0
 21 23  1  0  0  0
 22 28  1  0  0  0
 22 32  2  0  0  0
 26 27  1  0  0  0
 28106  1  0  0  0
 28107  1  0  0  0
 29108  1  0  0  0
 29109  1  0  0  0
 33 34  1  0  0  0
 33 66  1  0  0  0
 33 70  2  0  0  0
 34 36  1  0  0  0
 34 59  1  0  0  0
 34110  1  0  0  0
 35 44  2  0  0  0
 35 45  1  0  0  0
 35 68  1  0  0  0
 36 56  1  0  0  0
 36111  1  0  0  0
 37 39  1  0  0  0
 37 47  1  0  0  0
 37 66  1  0  0  0
 37112  1  0  0  0
 38 43  2  0  0  0
 38 46  1  0  0  0
 38 47  1  0  0  0
 39 64  1  0  0  0
 39 67  2  0  0  0
 40 52  1  0  0  0
 40 53  2  0  0  0
 40 58  1  0  0  0
 41113  1  0  0  0
 41114  1  0  0  0
 41115  1  0  0  0
 41 48  1  0  0  0
 42 43  1  0  0  0
 42 66  1  0  0  0
 42116  1  0  0  0
 42117  1  0  0  0
 43 44  1  0  0  0
 44118  1  0  0  0
 45 46  2  0  0  0
 45119  1  0  0  0
 46120  1  0  0  0
 47121  1  0  0  0
 47122  1  0  0  0
 48 56  1  0  0  0
 48 65  1  0  0  0
 48123  1  0  0  0
 49 50  1  0  0  0
 49 53  1  0  0  0
 49 64  1  0  0  0
 49124  1  0  0  0
 50 51  1  0  0  0
 50125  1  0  0  0
 50126  1  0  0  0
 51 52  1  0  0  0
 51127  1  0  0  0
 51128  1  0  0  0
 52129  1  0  0  0
 52130  1  0  0  0
 53 54  1  0  0  0
 54 55  2  0  0  0
 54131  1  0  0  0
 55 57  1  0  0  0
 55132  1  0  0  0
 56 69  2  0  0  0
 57 58  2  0  0  0
 57133  1  0  0  0
 58134  1  0  0  0
 59 60  1  0  0  0
 59 61  1  0  0  0
 59 62  1  0  0  0
 60135  1  0  0  0
 60136  1  0  0  0
 60137  1  0  0  0
 61138  1  0  0  0
 61139  1  0  0  0
 61140  1  0  0  0
 62141  1  0  0  0
 62142  1  0  0  0
 62143  1  0  0  0
 63 65  1  0  0  0
 63144  1  0  0  0
 63145  1  0  0  0
 63146  1  0  0  0
 64147  1  0  0  0
 65148  1  0  0  0
 68 78  1  0  0  0
 71 73  1  0  0  0
 71 74  2  0  0  0
 71149  1  0  0  0
 72 73  2  0  0  0
 72 82  1  0  0  0
 72150  1  0  0  0
 73 83  1  0  0  0
 74 81  1  0  0  0
 74 82  1  0  0  0
 75 79  1  0  0  0
 75 83  1  0  0  0
 75 86  2  0  0  0
 76151  1  0  0  0
 76152  1  0  0  0
 76153  1  0  0  0
 76 80  1  0  0  0
 77 80  1  0  0  0
 77 84  1  0  0  0
 77154  1  0  0  0
 77155  1  0  0  0
 78 79  1  0  0  0
 78156  1  0  0  0
 78157  1  0  0  0
 79 85  1  0  0  0
 79158  1  0  0  0
 80 82  1  0  0  0
 80159  1  0  0  0
 81 87  1  0  0  0
 81 88  1  0  0  0
 81 89  1  0  0  0
 83160  1  0  0  0
 84161  1  0  0  0
 85162  1  0  0  0
 85163  1  0  0  0
 85164  1  0  0  0
M  CHG  1  85   1
M  ISO  4   1 100  68 101  78 101  84 100
M  END
> <chiral flag>
0

> <version>
0

> <s_m_source_file>
/data/baiqing/PycharmProjects/Reinvent-master-3.2/result/LINK_invent/BTK/process_docking_weight1_custom_product_contain_oxygen_bond_distance_aromatic_linkinvent_7_9_3/rearranged_h_0190.sdf

> <i_m_source_file_index>
82

> <r_mmod_Potential_Energy-OPLS-2005>
-421.582214355469

> <r_mmod_Stretch_Energy-OPLS-2005>
34.6411323547363

> <r_mmod_Bend_Energy-OPLS-2005>
110.609146118164

> <r_mmod_Torsional_Energy-OPLS-2005>
258.654052734375

> <r_mmod_Improper_Torsional_Energy-OPLS-2005>
2.9775059223175

> <r_mmod_Van_der_Waal_Energy-OPLS-2005>
142.63151550293

> <r_mmod_Electrostatic_Energy-OPLS-2005>
-508.464996337891

> <r_mmod_Solvation_Energy-OPLS-2005>
-471.415344238281

> <b_mmod_Minimization_Converged-OPLS-2005>
0

> <r_mmod_RMS_Derivative-OPLS-2005>
2.05326747894287

$$$$
82
                    3D
 Structure written by MMmdl.
153161  0  0  1  0            999 V2000
  -30.6199  -14.7951   20.4528 C   0  0  0  0  0  0
  -30.4406  -12.4905   19.4713 C   0  0  0  0  0  0
  -29.5100  -12.4970   18.2398 C   0  0  0  0  0  0
  -28.0399  -12.3151   18.6667 C   0  0  0  0  0  0
  -27.6407  -13.2330   19.8502 C   0  0  2  0  0  0
  -28.6932  -13.2101   20.9815 C   0  0  0  0  0  0
  -25.2518  -13.8180   20.5678 C   0  0  0  0  0  0
  -24.1819  -13.0428   20.9233 C   0  0  0  0  0  0
  -24.6391  -11.6917   20.8747 C   0  0  0  0  0  0
  -23.9049  -10.4294   21.0369 C   0  0  0  0  0  0
  -24.3603   -9.4208   21.9139 C   0  0  0  0  0  0
  -23.6304   -8.2225   22.0718 C   0  0  0  0  0  0
  -22.4280   -8.0253   21.3502 C   0  0  0  0  0  0
  -21.9897   -9.0225   20.4614 C   0  0  0  0  0  0
  -22.7203  -10.2128   20.3014 C   0  0  0  0  0  0
  -21.6872   -6.0725   22.5245 C   0  0  0  0  0  0
  -21.4028   -6.5619   23.8177 C   0  0  0  0  0  0
  -21.3663   -5.6768   24.9134 C   0  0  0  0  0  0
  -21.6038   -4.3031   24.7164 C   0  0  0  0  0  0
  -21.8837   -3.8131   23.4289 C   0  0  0  0  0  0
  -21.9208   -4.6954   22.3359 C   0  0  0  0  0  0
  -22.7848  -13.5199   21.1867 C   0  0  0  0  0  0
  -22.1669   -4.2117   21.0944 F   0  0  0  0  0  0
  -21.5635   -3.4532   25.7711 F   0  0  0  0  0  0
  -29.9861  -13.5679   20.3823 N   0  0  0  0  0  0
  -26.2941  -12.9390   20.3307 N   0  0  0  0  0  0
  -25.9328  -11.6534   20.5804 N   0  0  0  0  0  0
  -22.0470  -12.8239   22.0431 N   0  0  0  0  0  0
  -25.4284  -15.1889   20.4048 N   0  0  0  0  0  0
  -31.8234  -14.8556   20.1808 O   0  0  0  0  0  0
  -21.6655   -6.8851   21.4203 O   0  0  0  0  0  0
  -22.3534  -14.5479   20.6663 O   0  0  0  0  0  0
  -24.6340  -31.8561   23.1986 C   0  0  0  0  0  0
  -25.9181  -32.4741   23.8302 C   0  0  1  0  0  0
  -27.2074  -27.2505   20.0939 C   0  0  0  0  0  0
  -25.5992  -33.8541   24.2232 N   0  0  0  0  0  0
  -23.4240  -30.4819   21.5487 C   0  0  2  0  0  0
  -24.8612  -28.9362   20.1062 C   0  0  0  0  0  0
  -22.7481  -29.4579   22.4955 C   0  0  0  0  0  0
  -18.0305  -28.1325   22.8493 C   0  0  0  0  0  0
  -24.1516  -36.7265   23.2632 C   0  0  0  0  0  0
  -25.9745  -30.7650   21.3766 C   0  0  0  0  0  0
  -26.0408  -29.3925   20.7054 C   0  0  0  0  0  0
  -27.2127  -28.5652   20.6847 C   0  0  0  0  0  0
  -25.9871  -26.8635   19.4872 C   0  0  0  0  0  0
  -24.8418  -27.6801   19.4886 C   0  0  0  0  0  0
  -23.6360  -29.8294   20.1600 C   0  0  0  0  0  0
  -25.4131  -36.3049   24.0318 C   0  0  1  0  0  0
  -20.5893  -28.3630   23.1302 C   0  0  2  0  0  0
  -20.6784  -26.9368   22.5399 C   0  0  0  0  0  0
  -19.5775  -26.6342   21.5201 C   0  0  0  0  0  0
  -18.1949  -26.7885   22.1603 C   0  0  0  0  0  0
  -19.1546  -28.8810   23.2885 C   0  0  0  0  0  0
  -18.9458  -30.1411   23.8869 C   0  0  0  0  0  0
  -17.6454  -30.6560   24.0519 C   0  0  0  0  0  0
  -25.9094  -34.9423   23.5075 C   0  0  0  0  0  0
  -16.5349  -29.9026   23.6325 C   0  0  0  0  0  0
  -16.7276  -28.6439   23.0368 C   0  0  0  0  0  0
  -26.4547  -31.6541   25.0677 C   0  0  0  0  0  0
  -25.3767  -31.3676   26.1385 C   0  0  0  0  0  0
  -27.0393  -30.2961   24.6157 C   0  0  0  0  0  0
  -27.6112  -32.4251   25.7449 C   0  0  0  0  0  0
  -27.5605  -37.1769   24.8453 C   0  0  0  0  0  0
  -21.4195  -29.2996   22.3704 N   0  0  0  0  0  0
  -26.4303  -37.3753   23.9430 N   0  0  0  0  0  0
  -24.6970  -31.0503   22.0971 N   0  0  0  0  0  0
  -23.4205  -28.8125   23.3052 O   0  0  0  0  0  0
  -28.3229  -26.3670   20.1635 O   0  0  0  0  0  0
  -26.5643  -34.8907   22.4635 O   0  0  0  0  0  0
  -23.5496  -32.1406   23.7290 O   0  0  0  0  0  0
  -30.1793  -17.3913   20.6523 C   0  0  0  0  0  0
  -29.8204  -19.6745   20.5188 C   0  0  0  0  0  0
  -30.8828  -22.6549   19.6073 C   0  0  0  0  0  0
  -29.4037  -25.1556   18.3601 C   0  0  0  0  0  0
  -28.4365  -23.5593   20.3258 C   0  0  0  0  0  0
  -29.5855  -22.3678   20.3960 C   0  0  1  0  0  0
  -28.4013  -25.0011   19.5101 C   0  0  1  0  0  0
  -29.3052  -18.4177   20.3277 N   0  0  0  0  0  0
  -31.3775  -17.7988   21.1212 N   0  0  0  0  0  0
  -29.8403  -15.9432   20.5676 N   0  0  0  0  0  0
  -29.1224  -20.9193   20.2260 N   0  0  0  0  0  0
  -31.4356  -19.5143   21.1678 S   0  0  0  0  0  0
  -31.4753  -12.6253   19.1528 H   0  0  0  0  0  0
  -30.4126  -11.5245   19.9802 H   0  0  0  0  0  0
  -29.8027  -11.6993   17.5546 H   0  0  0  0  0  0
  -29.6307  -13.4356   17.6957 H   0  0  0  0  0  0
  -27.9132  -11.2711   18.9592 H   0  0  0  0  0  0
  -27.3701  -12.4734   17.8201 H   0  0  0  0  0  0
  -27.6229  -14.2469   19.4507 H   0  0  0  0  0  0
  -28.7498  -12.2273   21.4485 H   0  0  0  0  0  0
  -28.4231  -13.9100   21.7754 H   0  0  0  0  0  0
  -25.2715   -9.5712   22.4763 H   0  0  0  0  0  0
  -24.0013   -7.4610   22.7425 H   0  0  0  0  0  0
  -21.0833   -8.8700   19.8945 H   0  0  0  0  0  0
  -22.3578  -10.9659   19.6160 H   0  0  0  0  0  0
  -21.2026   -7.6132   23.9669 H   0  0  0  0  0  0
  -21.1478   -6.0500   25.9048 H   0  0  0  0  0  0
  -22.0635   -2.7592   23.2789 H   0  0  0  0  0  0
  -22.4095  -11.9949   22.4887 H   0  0  0  0  0  0
  -21.1058  -13.1230   22.2559 H   0  0  0  0  0  0
  -24.6662  -15.8496   20.5058 H   0  0  0  0  0  0
  -26.2657  -15.6090   20.0232 H   0  0  0  0  0  0
  -26.7220  -32.5359   23.1001 H   0  0  0  0  0  0
  -25.0136  -33.9680   25.0383 H   0  0  0  0  0  0
  -22.7202  -31.3061   21.4160 H   0  0  0  0  0  0
  -23.3800  -35.9576   23.3228 H   0  0  0  0  0  0
  -24.3619  -36.8947   22.2055 H   0  0  0  0  0  0
  -23.7243  -37.6435   23.6695 H   0  0  0  0  0  0
  -26.1236  -31.5386   20.6214 H   0  0  0  0  0  0
  -26.8463  -30.7959   22.0170 H   0  0  0  0  0  0
  -28.1201  -28.9202   21.1510 H   0  0  0  0  0  0
  -25.8368  -25.9058   19.0210 H   0  0  0  0  0  0
  -23.9323  -27.3173   19.0252 H   0  0  0  0  0  0
  -23.7624  -30.6186   19.4178 H   0  0  0  0  0  0
  -22.7487  -29.2758   19.8485 H   0  0  0  0  0  0
  -25.1318  -36.1855   25.0815 H   0  0  0  0  0  0
  -20.9983  -28.3176   24.1429 H   0  0  0  0  0  0
  -20.5698  -26.2228   23.3579 H   0  0  0  0  0  0
  -21.6647  -26.7417   22.1186 H   0  0  0  0  0  0
  -19.6925  -25.6258   21.1233 H   0  0  0  0  0  0
  -19.6716  -27.3146   20.6735 H   0  0  0  0  0  0
  -17.4231  -26.6670   21.3980 H   0  0  0  0  0  0
  -18.0318  -25.9992   22.8964 H   0  0  0  0  0  0
  -19.7924  -30.7239   24.2224 H   0  0  0  0  0  0
  -17.5002  -31.6257   24.5074 H   0  0  0  0  0  0
  -15.5336  -30.2906   23.7656 H   0  0  0  0  0  0
  -15.8684  -28.0727   22.7107 H   0  0  0  0  0  0
  -24.5947  -30.7040   25.7670 H   0  0  0  0  0  0
  -24.8971  -32.2847   26.4815 H   0  0  0  0  0  0
  -25.8078  -30.8810   27.0146 H   0  0  0  0  0  0
  -26.2961  -29.6658   24.1263 H   0  0  0  0  0  0
  -27.4174  -29.7256   25.4650 H   0  0  0  0  0  0
  -27.8800  -30.4225   23.9330 H   0  0  0  0  0  0
  -27.2748  -33.3538   26.2062 H   0  0  0  0  0  0
  -28.3914  -32.6812   25.0268 H   0  0  0  0  0  0
  -28.0802  -31.8341   26.5328 H   0  0  0  0  0  0
  -28.2557  -38.0133   24.7583 H   0  0  0  0  0  0
  -28.1175  -36.2667   24.6170 H   0  0  0  0  0  0
  -27.2347  -37.1259   25.8860 H   0  0  0  0  0  0
  -20.9357  -29.8732   21.6932 H   0  0  0  0  0  0
  -26.0166  -38.2820   24.1457 H   0  0  0  0  0  0
  -31.2112  -23.6796   19.7754 H   0  0  0  0  0  0
  -30.7752  -22.5038   18.5327 H   0  0  0  0  0  0
  -31.7192  -22.0362   19.9303 H   0  0  0  0  0  0
  -29.5280  -24.2271   17.8084 H   0  0  0  0  0  0
  -30.3738  -25.4839   18.7244 H   0  0  0  0  0  0
  -29.0608  -25.8968   17.6389 H   0  0  0  0  0  0
  -28.1415  -23.7795   21.3537 H   0  0  0  0  0  0
  -27.5556  -23.0349   19.9576 H   0  0  0  0  0  0
  -29.9106  -22.3997   21.4378 H   0  0  0  0  0  0
  -27.5010  -24.8674   18.9255 H   0  0  0  0  0  0
  -28.8514  -15.7640   20.5686 H   0  0  0  0  0  0
  -28.1892  -20.8067   19.8410 H   0  0  0  0  0  0
  1 25  1  0  0  0
  1 30  2  0  0  0
  1 80  1  0  0  0
  2  3  1  0  0  0
  2 25  1  0  0  0
  2 83  1  0  0  0
  2 84  1  0  0  0
  3  4  1  0  0  0
  3 85  1  0  0  0
  3 86  1  0  0  0
  4  5  1  0  0  0
  4 87  1  0  0  0
  4 88  1  0  0  0
  5  6  1  0  0  0
  5 26  1  0  0  0
  5 89  1  0  0  0
  6 25  1  0  0  0
  6 90  1  0  0  0
  6 91  1  0  0  0
  7  8  2  0  0  0
  7 26  1  0  0  0
  7 29  1  0  0  0
  8  9  1  0  0  0
  8 22  1  0  0  0
  9 10  1  0  0  0
  9 27  2  0  0  0
 10 11  2  0  0  0
 10 15  1  0  0  0
 11 12  1  0  0  0
 11 92  1  0  0  0
 12 13  2  0  0  0
 12 93  1  0  0  0
 13 14  1  0  0  0
 13 31  1  0  0  0
 14 15  2  0  0  0
 14 94  1  0  0  0
 15 95  1  0  0  0
 16 17  2  0  0  0
 16 21  1  0  0  0
 16 31  1  0  0  0
 17 18  1  0  0  0
 17 96  1  0  0  0
 18 19  2  0  0  0
 18 97  1  0  0  0
 19 20  1  0  0  0
 19 24  1  0  0  0
 20 21  2  0  0  0
 20 98  1  0  0  0
 21 23  1  0  0  0
 22 28  1  0  0  0
 22 32  2  0  0  0
 26 27  1  0  0  0
 28 99  1  0  0  0
 28100  1  0  0  0
 29101  1  0  0  0
 29102  1  0  0  0
 33 34  1  0  0  0
 33 66  1  0  0  0
 33 70  2  0  0  0
 34 36  1  0  0  0
 34 59  1  0  0  0
 34103  1  0  0  0
 35 44  2  0  0  0
 35 45  1  0  0  0
 35 68  1  0  0  0
 36 56  1  0  0  0
 36104  1  0  0  0
 37 39  1  0  0  0
 37 47  1  0  0  0
 37 66  1  0  0  0
 37105  1  0  0  0
 38 43  2  0  0  0
 38 46  1  0  0  0
 38 47  1  0  0  0
 39 64  1  0  0  0
 39 67  2  0  0  0
 40 52  1  0  0  0
 40 53  2  0  0  0
 40 58  1  0  0  0
 41106  1  0  0  0
 41107  1  0  0  0
 41108  1  0  0  0
 41 48  1  0  0  0
 42 43  1  0  0  0
 42 66  1  0  0  0
 42109  1  0  0  0
 42110  1  0  0  0
 43 44  1  0  0  0
 44111  1  0  0  0
 45 46  2  0  0  0
 45112  1  0  0  0
 46113  1  0  0  0
 47114  1  0  0  0
 47115  1  0  0  0
 48 56  1  0  0  0
 48 65  1  0  0  0
 48116  1  0  0  0
 49 50  1  0  0  0
 49 53  1  0  0  0
 49 64  1  0  0  0
 49117  1  0  0  0
 50 51  1  0  0  0
 50118  1  0  0  0
 50119  1  0  0  0
 51 52  1  0  0  0
 51120  1  0  0  0
 51121  1  0  0  0
 52122  1  0  0  0
 52123  1  0  0  0
 53 54  1  0  0  0
 54 55  2  0  0  0
 54124  1  0  0  0
 55 57  1  0  0  0
 55125  1  0  0  0
 56 69  2  0  0  0
 57 58  2  0  0  0
 57126  1  0  0  0
 58127  1  0  0  0
 59 60  1  0  0  0
 59 61  1  0  0  0
 59 62  1  0  0  0
 60128  1  0  0  0
 60129  1  0  0  0
 60130  1  0  0  0
 61131  1  0  0  0
 61132  1  0  0  0
 61133  1  0  0  0
 62134  1  0  0  0
 62135  1  0  0  0
 62136  1  0  0  0
 63 65  1  0  0  0
 63137  1  0  0  0
 63138  1  0  0  0
 63139  1  0  0  0
 64140  1  0  0  0
 65141  1  0  0  0
 68 77  1  0  0  0
 71 78  1  0  0  0
 71 79  2  0  0  0
 71 80  1  0  0  0
 72 78  2  0  0  0
 72 81  1  0  0  0
 72 82  1  0  0  0
 73142  1  0  0  0
 73143  1  0  0  0
 73144  1  0  0  0
 73 76  1  0  0  0
 74145  1  0  0  0
 74146  1  0  0  0
 74147  1  0  0  0
 74 77  1  0  0  0
 75 76  1  0  0  0
 75 77  1  0  0  0
 75148  1  0  0  0
 75149  1  0  0  0
 76 81  1  0  0  0
 76150  1  0  0  0
 77151  1  0  0  0
 79 82  1  0  0  0
 80152  1  0  0  0
 81153  1  0  0  0
M  ISO  4   1 100  68 101  77 101  80 100
M  END
> <chiral flag>
0

> <version>
0

> <s_m_source_file>
/data/baiqing/PycharmProjects/Reinvent-master-3.2/result/LINK_invent/BTK/process_docking_weight1_custom_product_contain_oxygen_bond_distance_aromatic_linkinvent_7_9_3/rearranged_h_0190.sdf

> <i_m_source_file_index>
83

> <r_mmod_Potential_Energy-OPLS-2005>
223.675277709961

> <r_mmod_Stretch_Energy-OPLS-2005>
147.729934692383

> <r_mmod_Bend_Energy-OPLS-2005>
244.341278076172

> <r_mmod_Torsional_Energy-OPLS-2005>
226.943328857422

> <r_mmod_Improper_Torsional_Energy-OPLS-2005>
6.26569366455078

> <r_mmod_Van_der_Waal_Energy-OPLS-2005>
124.002494812012

> <r_mmod_Electrostatic_Energy-OPLS-2005>
-401.997589111328

> <r_mmod_Solvation_Energy-OPLS-2005>
-223.599792480469

> <b_mmod_Minimization_Converged-OPLS-2005>
0

> <r_mmod_RMS_Derivative-OPLS-2005>
5.21196174621582

$$$$
83
                    3D
 Structure written by MMmdl.
169177  0  0  1  0            999 V2000
  -30.6690  -14.5780   20.5037 C   0  0  0  0  0  0
  -30.4234  -12.3543   19.4518 C   0  0  0  0  0  0
  -29.4996  -12.4915   18.2226 C   0  0  0  0  0  0
  -28.0248  -12.3343   18.6391 C   0  0  0  0  0  0
  -27.6516  -13.2138   19.8629 C   0  0  2  0  0  0
  -28.6945  -13.0722   20.9952 C   0  0  0  0  0  0
  -25.2559  -13.8167   20.5689 C   0  0  0  0  0  0
  -24.1824  -13.0442   20.9213 C   0  0  0  0  0  0
  -24.6385  -11.6914   20.8756 C   0  0  0  0  0  0
  -23.9049  -10.4293   21.0415 C   0  0  0  0  0  0
  -24.3602   -9.4215   21.9188 C   0  0  0  0  0  0
  -23.6287   -8.2246   22.0751 C   0  0  0  0  0  0
  -22.4271   -8.0275   21.3540 C   0  0  0  0  0  0
  -21.9902   -9.0248   20.4642 C   0  0  0  0  0  0
  -22.7221  -10.2137   20.3060 C   0  0  0  0  0  0
  -21.6847   -6.0729   22.5273 C   0  0  0  0  0  0
  -21.4003   -6.5637   23.8211 C   0  0  0  0  0  0
  -21.3663   -5.6785   24.9178 C   0  0  0  0  0  0
  -21.6049   -4.3045   24.7219 C   0  0  0  0  0  0
  -21.8815   -3.8141   23.4340 C   0  0  0  0  0  0
  -21.9196   -4.6959   22.3400 C   0  0  0  0  0  0
  -22.7853  -13.5243   21.1870 C   0  0  0  0  0  0
  -22.1665   -4.2146   21.0972 F   0  0  0  0  0  0
  -21.5638   -3.4530   25.7736 F   0  0  0  0  0  0
  -30.0167  -13.3810   20.4296 N   0  0  0  0  0  0
  -26.2978  -12.9346   20.3324 N   0  0  0  0  0  0
  -25.9309  -11.6507   20.5778 N   0  0  0  0  0  0
  -22.0493  -12.8238   22.0414 N   0  0  0  0  0  0
  -25.4285  -15.1872   20.4067 N   0  0  0  0  0  0
  -31.8394  -14.6832   20.1285 O   0  0  0  0  0  0
  -21.6642   -6.8872   21.4235 O   0  0  0  0  0  0
  -22.3555  -14.5558   20.6727 O   0  0  0  0  0  0
  -24.6159  -31.8636   23.2064 C   0  0  0  0  0  0
  -25.9039  -32.4802   23.8350 C   0  0  1  0  0  0
  -27.2326  -27.3822   20.0866 C   0  0  0  0  0  0
  -25.5895  -33.8604   24.2283 N   0  0  0  0  0  0
  -23.4067  -30.4876   21.5476 C   0  0  2  0  0  0
  -24.8494  -28.9454   20.1112 C   0  0  0  0  0  0
  -22.7435  -29.4627   22.4954 C   0  0  0  0  0  0
  -18.0279  -28.1383   22.8484 C   0  0  0  0  0  0
  -24.1494  -36.7285   23.2647 C   0  0  0  0  0  0
  -25.9395  -30.8100   21.3673 C   0  0  0  0  0  0
  -26.0118  -29.4398   20.7141 C   0  0  0  0  0  0
  -27.1976  -28.6622   20.7032 C   0  0  0  0  0  0
  -26.0410  -26.9127   19.4875 C   0  0  0  0  0  0
  -24.8620  -27.6821   19.4973 C   0  0  0  0  0  0
  -23.6157  -29.8214   20.1618 C   0  0  0  0  0  0
  -25.4118  -36.3092   24.0348 C   0  0  1  0  0  0
  -20.5866  -28.3667   23.1304 C   0  0  2  0  0  0
  -20.6784  -26.9403   22.5415 C   0  0  0  0  0  0
  -19.5765  -26.6375   21.5221 C   0  0  0  0  0  0
  -18.1930  -26.7917   22.1615 C   0  0  0  0  0  0
  -19.1523  -28.8836   23.2897 C   0  0  0  0  0  0
  -18.9464  -30.1437   23.8910 C   0  0  0  0  0  0
  -17.6466  -30.6595   24.0566 C   0  0  0  0  0  0
  -25.9043  -34.9470   23.5112 C   0  0  0  0  0  0
  -16.5351  -29.9111   23.6322 C   0  0  0  0  0  0
  -16.7265  -28.6529   23.0339 C   0  0  0  0  0  0
  -26.4460  -31.6596   25.0683 C   0  0  0  0  0  0
  -25.3734  -31.3692   26.1432 C   0  0  0  0  0  0
  -27.0304  -30.3055   24.6044 C   0  0  0  0  0  0
  -27.6036  -32.4323   25.7439 C   0  0  0  0  0  0
  -27.5583  -37.1796   24.8474 C   0  0  0  0  0  0
  -21.4152  -29.3034   22.3709 N   0  0  0  0  0  0
  -26.4293  -37.3786   23.9427 N   0  0  0  0  0  0
  -24.6728  -31.0690   22.0980 N   0  0  0  0  0  0
  -23.4192  -28.8182   23.3015 O   0  0  0  0  0  0
  -28.4292  -26.6648   20.1148 O   0  0  0  0  0  0
  -26.5612  -34.8930   22.4676 O   0  0  0  0  0  0
  -23.5345  -32.1402   23.7446 O   0  0  0  0  0  0
  -31.1251  -19.3174   20.1610 C   0  0  0  0  0  0
  -29.2634  -18.0735   20.8741 C   0  0  0  0  0  0
  -29.8219  -19.3805   20.5738 C   0  0  0  0  0  0
  -30.1521  -17.0167   20.6695 C   0  0  0  0  0  0
  -29.3346  -21.8571   20.2056 C   0  0  0  0  0  0
  -27.8456  -17.8829   21.3313 C   0  0  0  0  0  0
  -27.5228  -22.7113   21.8205 C   0  0  0  0  0  0
  -29.0127  -27.1667   17.3195 C   0  0  0  0  0  0
  -29.2266  -24.7212   16.8576 C   0  0  0  0  0  0
  -30.2840  -25.3841   19.6143 C   0  0  0  0  0  0
  -28.0100  -24.1521   19.7678 C   0  0  0  0  0  0
  -28.6123  -23.1166   20.8060 C   0  0  2  0  0  0
  -28.5631  -25.7644   17.7845 C   0  0  0  0  0  0
  -28.7679  -25.4809   19.3215 C   0  0  1  0  0  0
  -29.1122  -20.6298   20.7605 N   0  0  0  0  0  0
  -29.9080  -15.6627   20.8367 N   0  0  0  0  0  0
  -30.0805  -22.0080   19.2367 O   0  0  0  0  0  0
  -31.6949  -17.6731   20.1218 S   0  0  0  0  0  0
  -31.4683  -12.4487   19.1533 H   0  0  0  0  0  0
  -30.3306  -11.3603   19.8919 H   0  0  0  0  0  0
  -29.7580  -11.7397   17.4751 H   0  0  0  0  0  0
  -29.6480  -13.4629   17.7460 H   0  0  0  0  0  0
  -27.8636  -11.2821   18.8812 H   0  0  0  0  0  0
  -27.3634  -12.5545   17.8007 H   0  0  0  0  0  0
  -27.6722  -14.2471   19.5165 H   0  0  0  0  0  0
  -28.6924  -12.0580   21.3969 H   0  0  0  0  0  0
  -28.4464  -13.7240   21.8352 H   0  0  0  0  0  0
  -25.2750   -9.5700   22.4765 H   0  0  0  0  0  0
  -24.0006   -7.4626   22.7457 H   0  0  0  0  0  0
  -21.0847   -8.8749   19.8934 H   0  0  0  0  0  0
  -22.3672  -10.9673   19.6168 H   0  0  0  0  0  0
  -21.1979   -7.6142   23.9712 H   0  0  0  0  0  0
  -21.1494   -6.0517   25.9081 H   0  0  0  0  0  0
  -22.0594   -2.7599   23.2830 H   0  0  0  0  0  0
  -22.4108  -11.9892   22.4786 H   0  0  0  0  0  0
  -21.1098  -13.1255   22.2615 H   0  0  0  0  0  0
  -24.6529  -15.8351   20.4896 H   0  0  0  0  0  0
  -26.2626  -15.6129   20.0235 H   0  0  0  0  0  0
  -26.7095  -32.5465   23.1093 H   0  0  0  0  0  0
  -25.0102  -33.9765   25.0470 H   0  0  0  0  0  0
  -22.6972  -31.3055   21.4086 H   0  0  0  0  0  0
  -23.3776  -35.9597   23.3311 H   0  0  0  0  0  0
  -24.3593  -36.8877   22.2052 H   0  0  0  0  0  0
  -23.7197  -37.6479   23.6653 H   0  0  0  0  0  0
  -26.0591  -31.5728   20.5965 H   0  0  0  0  0  0
  -26.8255  -30.8562   21.9885 H   0  0  0  0  0  0
  -28.0937  -29.0440   21.1736 H   0  0  0  0  0  0
  -25.9866  -25.9492   19.0118 H   0  0  0  0  0  0
  -23.9681  -27.2926   19.0275 H   0  0  0  0  0  0
  -23.7324  -30.5967   19.4036 H   0  0  0  0  0  0
  -22.7351  -29.2495   19.8636 H   0  0  0  0  0  0
  -25.1300  -36.1942   25.0839 H   0  0  0  0  0  0
  -20.9954  -28.3221   24.1429 H   0  0  0  0  0  0
  -20.5694  -26.2278   23.3601 H   0  0  0  0  0  0
  -21.6651  -26.7461   22.1190 H   0  0  0  0  0  0
  -19.6958  -25.6306   21.1223 H   0  0  0  0  0  0
  -19.6716  -27.3211   20.6770 H   0  0  0  0  0  0
  -17.4220  -26.6653   21.4004 H   0  0  0  0  0  0
  -18.0334  -26.0055   22.8994 H   0  0  0  0  0  0
  -19.7955  -30.7240   24.2256 H   0  0  0  0  0  0
  -17.5054  -31.6274   24.5180 H   0  0  0  0  0  0
  -15.5359  -30.3034   23.7667 H   0  0  0  0  0  0
  -15.8650  -28.0879   22.7021 H   0  0  0  0  0  0
  -24.5931  -30.7009   25.7775 H   0  0  0  0  0  0
  -24.8900  -32.2831   26.4893 H   0  0  0  0  0  0
  -25.8084  -30.8865   27.0185 H   0  0  0  0  0  0
  -26.2840  -29.6789   24.1136 H   0  0  0  0  0  0
  -27.4147  -29.7300   25.4470 H   0  0  0  0  0  0
  -27.8650  -30.4418   23.9162 H   0  0  0  0  0  0
  -27.2678  -33.3647   26.1994 H   0  0  0  0  0  0
  -28.3852  -32.6809   25.0253 H   0  0  0  0  0  0
  -28.0694  -31.8442   26.5350 H   0  0  0  0  0  0
  -28.2594  -38.0104   24.7542 H   0  0  0  0  0  0
  -28.1071  -36.2623   24.6278 H   0  0  0  0  0  0
  -27.2301  -37.1412   25.8878 H   0  0  0  0  0  0
  -20.9302  -29.8756   21.6940 H   0  0  0  0  0  0
  -26.0170  -38.2856   24.1454 H   0  0  0  0  0  0
  -31.7928  -20.1248   19.8866 H   0  0  0  0  0  0
  -27.5539  -18.6360   22.0633 H   0  0  0  0  0  0
  -27.6860  -16.9102   21.7962 H   0  0  0  0  0  0
  -27.1582  -17.9591   20.4885 H   0  0  0  0  0  0
  -27.9267  -22.1068   22.6334 H   0  0  0  0  0  0
  -26.7176  -22.1514   21.3401 H   0  0  0  0  0  0
  -27.0832  -23.5968   22.2813 H   0  0  0  0  0  0
  -28.7677  -27.3206   16.2685 H   0  0  0  0  0  0
  -30.0878  -27.3124   17.4195 H   0  0  0  0  0  0
  -28.5191  -27.9662   17.8675 H   0  0  0  0  0  0
  -28.8917  -24.8576   15.8291 H   0  0  0  0  0  0
  -28.9912  -23.6929   17.1286 H   0  0  0  0  0  0
  -30.3137  -24.8133   16.8550 H   0  0  0  0  0  0
  -30.7471  -24.5243   19.1325 H   0  0  0  0  0  0
  -30.4911  -25.3155   20.6803 H   0  0  0  0  0  0
  -30.8178  -26.2711   19.2741 H   0  0  0  0  0  0
  -27.0343  -24.4524   20.1364 H   0  0  0  0  0  0
  -27.7469  -23.5764   18.8811 H   0  0  0  0  0  0
  -29.3656  -23.6235   21.4050 H   0  0  0  0  0  0
  -27.4995  -25.7009   17.5683 H   0  0  0  0  0  0
  -28.3644  -20.6129   21.4405 H   0  0  0  0  0  0
  -28.9764  -15.4248   21.1399 H   0  0  0  0  0  0
  1 25  1  0  0  0
  1 30  2  0  0  0
  1 86  1  0  0  0
  2  3  1  0  0  0
  2 25  1  0  0  0
  2 89  1  0  0  0
  2 90  1  0  0  0
  3  4  1  0  0  0
  3 91  1  0  0  0
  3 92  1  0  0  0
  4  5  1  0  0  0
  4 93  1  0  0  0
  4 94  1  0  0  0
  5  6  1  0  0  0
  5 26  1  0  0  0
  5 95  1  0  0  0
  6 25  1  0  0  0
  6 96  1  0  0  0
  6 97  1  0  0  0
  7  8  2  0  0  0
  7 26  1  0  0  0
  7 29  1  0  0  0
  8  9  1  0  0  0
  8 22  1  0  0  0
  9 10  1  0  0  0
  9 27  2  0  0  0
 10 11  2  0  0  0
 10 15  1  0  0  0
 11 12  1  0  0  0
 11 98  1  0  0  0
 12 13  2  0  0  0
 12 99  1  0  0  0
 13 14  1  0  0  0
 13 31  1  0  0  0
 14 15  2  0  0  0
 14100  1  0  0  0
 15101  1  0  0  0
 16 17  2  0  0  0
 16 21  1  0  0  0
 16 31  1  0  0  0
 17 18  1  0  0  0
 17102  1  0  0  0
 18 19  2  0  0  0
 18103  1  0  0  0
 19 20  1  0  0  0
 19 24  1  0  0  0
 20 21  2  0  0  0
 20104  1  0  0  0
 21 23  1  0  0  0
 22 28  1  0  0  0
 22 32  2  0  0  0
 26 27  1  0  0  0
 28105  1  0  0  0
 28106  1  0  0  0
 29107  1  0  0  0
 29108  1  0  0  0
 33 34  1  0  0  0
 33 66  1  0  0  0
 33 70  2  0  0  0
 34 36  1  0  0  0
 34 59  1  0  0  0
 34109  1  0  0  0
 35 44  2  0  0  0
 35 45  1  0  0  0
 35 68  1  0  0  0
 36 56  1  0  0  0
 36110  1  0  0  0
 37 39  1  0  0  0
 37 47  1  0  0  0
 37 66  1  0  0  0
 37111  1  0  0  0
 38 43  2  0  0  0
 38 46  1  0  0  0
 38 47  1  0  0  0
 39 64  1  0  0  0
 39 67  2  0  0  0
 40 52  1  0  0  0
 40 53  2  0  0  0
 40 58  1  0  0  0
 41112  1  0  0  0
 41113  1  0  0  0
 41114  1  0  0  0
 41 48  1  0  0  0
 42 43  1  0  0  0
 42 66  1  0  0  0
 42115  1  0  0  0
 42116  1  0  0  0
 43 44  1  0  0  0
 44117  1  0  0  0
 45 46  2  0  0  0
 45118  1  0  0  0
 46119  1  0  0  0
 47120  1  0  0  0
 47121  1  0  0  0
 48 56  1  0  0  0
 48 65  1  0  0  0
 48122  1  0  0  0
 49 50  1  0  0  0
 49 53  1  0  0  0
 49 64  1  0  0  0
 49123  1  0  0  0
 50 51  1  0  0  0
 50124  1  0  0  0
 50125  1  0  0  0
 51 52  1  0  0  0
 51126  1  0  0  0
 51127  1  0  0  0
 52128  1  0  0  0
 52129  1  0  0  0
 53 54  1  0  0  0
 54 55  2  0  0  0
 54130  1  0  0  0
 55 57  1  0  0  0
 55131  1  0  0  0
 56 69  2  0  0  0
 57 58  2  0  0  0
 57132  1  0  0  0
 58133  1  0  0  0
 59 60  1  0  0  0
 59 61  1  0  0  0
 59 62  1  0  0  0
 60134  1  0  0  0
 60135  1  0  0  0
 60136  1  0  0  0
 61137  1  0  0  0
 61138  1  0  0  0
 61139  1  0  0  0
 62140  1  0  0  0
 62141  1  0  0  0
 62142  1  0  0  0
 63 65  1  0  0  0
 63143  1  0  0  0
 63144  1  0  0  0
 63145  1  0  0  0
 64146  1  0  0  0
 65147  1  0  0  0
 68 84  1  0  0  0
 71 73  2  0  0  0
 71 88  1  0  0  0
 71148  1  0  0  0
 72 73  1  0  0  0
 72 74  2  0  0  0
 72 76  1  0  0  0
 73 85  1  0  0  0
 74 86  1  0  0  0
 74 88  1  0  0  0
 75 82  1  0  0  0
 75 85  1  0  0  0
 75 87  2  0  0  0
 76149  1  0  0  0
 76150  1  0  0  0
 76151  1  0  0  0
 77152  1  0  0  0
 77153  1  0  0  0
 77154  1  0  0  0
 77 82  1  0  0  0
 78155  1  0  0  0
 78156  1  0  0  0
 78157  1  0  0  0
 78 83  1  0  0  0
 79 83  1  0  0  0
 79158  1  0  0  0
 79159  1  0  0  0
 79160  1  0  0  0
 80161  1  0  0  0
 80162  1  0  0  0
 80163  1  0  0  0
 80 84  1  0  0  0
 81 82  1  0  0  0
 81 84  1  0  0  0
 81164  1  0  0  0
 81165  1  0  0  0
 82166  1  0  0  0
 83 84  1  0  0  0
 83167  1  0  0  0
 85168  1  0  0  0
 86169  1  0  0  0
M  ISO  4   1 100  68 101  84 101  86 100
M  END
> <chiral flag>
0

> <version>
0

> <s_m_source_file>
/data/baiqing/PycharmProjects/Reinvent-master-3.2/result/LINK_invent/BTK/process_docking_weight1_custom_product_contain_oxygen_bond_distance_aromatic_linkinvent_7_9_3/rearranged_h_0190.sdf

> <i_m_source_file_index>
84

> <r_mmod_Potential_Energy-OPLS-2005>
-60.5811233520508

> <r_mmod_Stretch_Energy-OPLS-2005>
65.3064498901367

> <r_mmod_Bend_Energy-OPLS-2005>
165.276062011719

> <r_mmod_Torsional_Energy-OPLS-2005>
244.135452270508

> <r_mmod_Improper_Torsional_Energy-OPLS-2005>
4.57587194442749

> <r_mmod_Van_der_Waal_Energy-OPLS-2005>
142.79052734375

> <r_mmod_Electrostatic_Energy-OPLS-2005>
-491.359558105469

> <r_mmod_Solvation_Energy-OPLS-2005>
-219.250549316406

> <b_mmod_Minimization_Converged-OPLS-2005>
0

> <r_mmod_RMS_Derivative-OPLS-2005>
2.92212772369385

$$$$
84
                    3D
 Structure written by MMmdl.
180188  0  0  1  0            999 V2000
  -30.6819  -14.5435   20.5079 C   0  0  0  0  0  0
  -30.4210  -12.3384   19.4134 C   0  0  0  0  0  0
  -29.4894  -12.4901   18.1947 C   0  0  0  0  0  0
  -28.0124  -12.3477   18.6166 C   0  0  0  0  0  0
  -27.6515  -13.2118   19.8548 C   0  0  2  0  0  0
  -28.7029  -13.0527   20.9748 C   0  0  0  0  0  0
  -25.2566  -13.8177   20.5686 C   0  0  0  0  0  0
  -24.1826  -13.0439   20.9204 C   0  0  0  0  0  0
  -24.6398  -11.6913   20.8756 C   0  0  0  0  0  0
  -23.9077  -10.4292   21.0430 C   0  0  0  0  0  0
  -24.3628   -9.4203   21.9202 C   0  0  0  0  0  0
  -23.6294   -8.2243   22.0764 C   0  0  0  0  0  0
  -22.4274   -8.0286   21.3557 C   0  0  0  0  0  0
  -21.9922   -9.0265   20.4654 C   0  0  0  0  0  0
  -22.7260  -10.2139   20.3066 C   0  0  0  0  0  0
  -21.6845   -6.0741   22.5288 C   0  0  0  0  0  0
  -21.4012   -6.5647   23.8220 C   0  0  0  0  0  0
  -21.3658   -5.6801   24.9185 C   0  0  0  0  0  0
  -21.6039   -4.3063   24.7231 C   0  0  0  0  0  0
  -21.8822   -3.8157   23.4352 C   0  0  0  0  0  0
  -21.9191   -4.6973   22.3409 C   0  0  0  0  0  0
  -22.7850  -13.5238   21.1859 C   0  0  0  0  0  0
  -22.1657   -4.2162   21.0986 F   0  0  0  0  0  0
  -21.5626   -3.4545   25.7744 F   0  0  0  0  0  0
  -30.0156  -13.3604   20.3894 N   0  0  0  0  0  0
  -26.2989  -12.9348   20.3311 N   0  0  0  0  0  0
  -25.9321  -11.6509   20.5762 N   0  0  0  0  0  0
  -22.0480  -12.8221   22.0404 N   0  0  0  0  0  0
  -25.4264  -15.1889   20.4061 N   0  0  0  0  0  0
  -31.8636  -14.6655   20.1738 O   0  0  0  0  0  0
  -21.6637   -6.8884   21.4246 O   0  0  0  0  0  0
  -22.3545  -14.5549   20.6710 O   0  0  0  0  0  0
  -24.6183  -31.8672   23.2071 C   0  0  0  0  0  0
  -25.9070  -32.4810   23.8383 C   0  0  1  0  0  0
  -27.2192  -27.3897   20.0969 C   0  0  0  0  0  0
  -25.5919  -33.8597   24.2319 N   0  0  0  0  0  0
  -23.4080  -30.4920   21.5486 C   0  0  2  0  0  0
  -24.8519  -28.9559   20.1076 C   0  0  0  0  0  0
  -22.7433  -29.4657   22.4946 C   0  0  0  0  0  0
  -18.0274  -28.1363   22.8473 C   0  0  0  0  0  0
  -24.1481  -36.7295   23.2635 C   0  0  0  0  0  0
  -25.9415  -30.8157   21.3688 C   0  0  0  0  0  0
  -26.0167  -29.4481   20.7107 C   0  0  0  0  0  0
  -27.2075  -28.6747   20.6990 C   0  0  0  0  0  0
  -26.0404  -26.9342   19.4688 C   0  0  0  0  0  0
  -24.8606  -27.6995   19.4808 C   0  0  0  0  0  0
  -23.6171  -29.8302   20.1607 C   0  0  0  0  0  0
  -25.4103  -36.3088   24.0333 C   0  0  1  0  0  0
  -20.5873  -28.3663   23.1282 C   0  0  2  0  0  0
  -20.6764  -26.9397   22.5382 C   0  0  0  0  0  0
  -19.5746  -26.6379   21.5172 C   0  0  0  0  0  0
  -18.1926  -26.7909   22.1599 C   0  0  0  0  0  0
  -19.1532  -28.8825   23.2874 C   0  0  0  0  0  0
  -18.9472  -30.1430   23.8884 C   0  0  0  0  0  0
  -17.6477  -30.6579   24.0553 C   0  0  0  0  0  0
  -25.9047  -34.9456   23.5124 C   0  0  0  0  0  0
  -16.5359  -29.9086   23.6319 C   0  0  0  0  0  0
  -16.7269  -28.6498   23.0346 C   0  0  0  0  0  0
  -26.4476  -31.6593   25.0724 C   0  0  0  0  0  0
  -25.3736  -31.3698   26.1480 C   0  0  0  0  0  0
  -27.0318  -30.3025   24.6108 C   0  0  0  0  0  0
  -27.6032  -32.4347   25.7490 C   0  0  0  0  0  0
  -27.5577  -37.1795   24.8466 C   0  0  0  0  0  0
  -21.4153  -29.3027   22.3688 N   0  0  0  0  0  0
  -26.4278  -37.3789   23.9423 N   0  0  0  0  0  0
  -24.6737  -31.0744   22.0980 N   0  0  0  0  0  0
  -23.4190  -28.8189   23.3008 O   0  0  0  0  0  0
  -28.3421  -26.5745   20.1094 O   0  0  0  0  0  0
  -26.5600  -34.8921   22.4690 O   0  0  0  0  0  0
  -23.5377  -32.1450   23.7429 O   0  0  0  0  0  0
  -31.2334  -17.7845   23.4399 C   0  0  0  0  0  0
  -31.0741  -16.7134   22.5551 C   0  0  0  0  0  0
  -30.5829  -19.0048   23.1703 C   0  0  0  0  0  0
  -30.2581  -16.8503   21.4153 C   0  0  0  0  0  0
  -29.9039  -19.1340   21.9357 C   0  0  0  0  0  0
  -32.6347  -19.7128   18.8050 C   0  0  0  0  0  0
  -32.1902  -21.4332   21.4295 C   0  0  0  0  0  0
  -29.4017  -23.1655   22.7710 C   0  0  0  0  0  0
  -30.9364  -21.1592   26.2395 C   0  0  0  0  0  0
  -32.8793  -20.3115   24.8565 C   0  0  0  0  0  0
  -31.4287  -20.6591   19.0750 C   0  0  0  0  0  0
  -29.1625  -24.1405   20.4251 C   0  0  0  0  0  0
  -28.1286  -25.2782   20.7350 C   0  0  0  0  0  0
  -31.1217  -21.5596   20.3195 C   0  0  1  0  0  0
  -28.9998  -22.8442   21.3097 C   0  0  1  0  0  0
  -31.4139  -20.0811   25.2618 C   0  0  0  0  0  0
  -29.6193  -21.4727   20.7778 C   0  0  2  0  0  0
  -29.7071  -18.0706   21.1003 N   0  0  0  0  0  0
  -30.5303  -20.0624   24.1030 N   0  0  0  0  0  0
  -29.9054  -15.6339   20.7421 N   0  0  0  0  0  0
  -29.2741  -20.3830   21.7285 N   0  0  0  0  0  0
  -31.4653  -12.4361   19.1101 H   0  0  0  0  0  0
  -30.3250  -11.3417   19.8460 H   0  0  0  0  0  0
  -29.7334  -11.7405   17.4402 H   0  0  0  0  0  0
  -29.6483  -13.4616   17.7237 H   0  0  0  0  0  0
  -27.8343  -11.2942   18.8359 H   0  0  0  0  0  0
  -27.3560  -12.5976   17.7821 H   0  0  0  0  0  0
  -27.6733  -14.2490   19.5203 H   0  0  0  0  0  0
  -28.6983  -12.0348   21.3664 H   0  0  0  0  0  0
  -28.4760  -13.7013   21.8225 H   0  0  0  0  0  0
  -25.2772   -9.5672   22.4777 H   0  0  0  0  0  0
  -24.0001   -7.4636   22.7481 H   0  0  0  0  0  0
  -21.0853   -8.8792   19.8950 H   0  0  0  0  0  0
  -22.3734  -10.9685   19.6169 H   0  0  0  0  0  0
  -21.2002   -7.6155   23.9731 H   0  0  0  0  0  0
  -21.1471   -6.0530   25.9091 H   0  0  0  0  0  0
  -22.0596   -2.7618   23.2855 H   0  0  0  0  0  0
  -22.4073  -11.9860   22.4764 H   0  0  0  0  0  0
  -21.1106  -13.1257   22.2620 H   0  0  0  0  0  0
  -24.6555  -15.8392   20.5130 H   0  0  0  0  0  0
  -26.2663  -15.6311   20.0554 H   0  0  0  0  0  0
  -26.7137  -32.5510   23.1142 H   0  0  0  0  0  0
  -25.0038  -33.9729   25.0439 H   0  0  0  0  0  0
  -22.6966  -31.3080   21.4134 H   0  0  0  0  0  0
  -23.3733  -35.9637   23.3307 H   0  0  0  0  0  0
  -24.3564  -36.8920   22.2049 H   0  0  0  0  0  0
  -23.7250  -37.6500   23.6661 H   0  0  0  0  0  0
  -26.0658  -31.5831   20.6049 H   0  0  0  0  0  0
  -26.8233  -30.8630   21.9958 H   0  0  0  0  0  0
  -28.1051  -29.0471   21.1705 H   0  0  0  0  0  0
  -26.0280  -25.9773   18.9644 H   0  0  0  0  0  0
  -23.9674  -27.3231   18.9997 H   0  0  0  0  0  0
  -23.7279  -30.6109   19.4069 H   0  0  0  0  0  0
  -22.7370  -29.2547   19.8661 H   0  0  0  0  0  0
  -25.1281  -36.1932   25.0820 H   0  0  0  0  0  0
  -20.9955  -28.3255   24.1413 H   0  0  0  0  0  0
  -20.5638  -26.2299   23.3588 H   0  0  0  0  0  0
  -21.6650  -26.7428   22.1209 H   0  0  0  0  0  0
  -19.6915  -25.6291   21.1212 H   0  0  0  0  0  0
  -19.6686  -27.3173   20.6682 H   0  0  0  0  0  0
  -17.4192  -26.6628   21.3999 H   0  0  0  0  0  0
  -18.0360  -26.0029   22.8979 H   0  0  0  0  0  0
  -19.7965  -30.7216   24.2267 H   0  0  0  0  0  0
  -17.5061  -31.6261   24.5162 H   0  0  0  0  0  0
  -15.5375  -30.2992   23.7660 H   0  0  0  0  0  0
  -15.8663  -28.0822   22.7071 H   0  0  0  0  0  0
  -24.5897  -30.7063   25.7832 H   0  0  0  0  0  0
  -24.8919  -32.2841   26.4942 H   0  0  0  0  0  0
  -25.8080  -30.8858   27.0234 H   0  0  0  0  0  0
  -26.2866  -29.6782   24.1146 H   0  0  0  0  0  0
  -27.4078  -29.7271   25.4574 H   0  0  0  0  0  0
  -27.8718  -30.4344   23.9285 H   0  0  0  0  0  0
  -27.2625  -33.3644   26.2055 H   0  0  0  0  0  0
  -28.3828  -32.6915   25.0318 H   0  0  0  0  0  0
  -28.0706  -31.8480   26.5411 H   0  0  0  0  0  0
  -28.2583  -38.0100   24.7537 H   0  0  0  0  0  0
  -28.1094  -36.2632   24.6278 H   0  0  0  0  0  0
  -27.2303  -37.1439   25.8870 H   0  0  0  0  0  0
  -20.9314  -29.8786   21.6932 H   0  0  0  0  0  0
  -26.0161  -38.2864   24.1435 H   0  0  0  0  0  0
  -31.7924  -17.6216   24.3466 H   0  0  0  0  0  0
  -31.5216  -15.7668   22.8212 H   0  0  0  0  0  0
  -33.3671  -19.7168   19.6158 H   0  0  0  0  0  0
  -33.1736  -19.9711   17.8883 H   0  0  0  0  0  0
  -32.3263  -18.6724   18.6647 H   0  0  0  0  0  0
  -33.1504  -21.8200   21.0889 H   0  0  0  0  0  0
  -32.3591  -20.3995   21.7224 H   0  0  0  0  0  0
  -31.9268  -21.9866   22.3243 H   0  0  0  0  0  0
  -28.8352  -23.9981   23.1790 H   0  0  0  0  0  0
  -30.4517  -23.4374   22.8502 H   0  0  0  0  0  0
  -29.2081  -22.3420   23.4540 H   0  0  0  0  0  0
  -31.5568  -21.1797   27.1361 H   0  0  0  0  0  0
  -29.9117  -20.9757   26.5663 H   0  0  0  0  0  0
  -30.9697  -22.1513   25.7874 H   0  0  0  0  0  0
  -33.5350  -20.2326   25.7238 H   0  0  0  0  0  0
  -33.0269  -21.3024   24.4267 H   0  0  0  0  0  0
  -33.2291  -19.5827   24.1251 H   0  0  0  0  0  0
  -32.2327  -21.3769   18.9008 H   0  0  0  0  0  0
  -31.2115  -19.8589   19.7763 H   0  0  0  0  0  0
  -30.1701  -24.5433   20.5429 H   0  0  0  0  0  0
  -29.0681  -23.8678   19.3738 H   0  0  0  0  0  0
  -28.1081  -25.4853   21.8033 H   0  0  0  0  0  0
  -27.1437  -24.8685   20.5107 H   0  0  0  0  0  0
  -31.2175  -22.5926   19.9762 H   0  0  0  0  0  0
  -27.9235  -22.6606   21.3368 H   0  0  0  0  0  0
  -31.3336  -19.1278   25.7849 H   0  0  0  0  0  0
  -29.0543  -21.2499   19.8718 H   0  0  0  0  0  0
  -29.5908  -20.3831   24.3171 H   0  0  0  0  0  0
  -28.9175  -15.4917   20.6181 H   0  0  0  0  0  0
  -29.4324  -20.8017   22.6380 H   0  0  0  0  0  0
  1 25  1  0  0  0
  1 30  2  0  0  0
  1 90  1  0  0  0
  2  3  1  0  0  0
  2 25  1  0  0  0
  2 92  1  0  0  0
  2 93  1  0  0  0
  3  4  1  0  0  0
  3 94  1  0  0  0
  3 95  1  0  0  0
  4  5  1  0  0  0
  4 96  1  0  0  0
  4 97  1  0  0  0
  5  6  1  0  0  0
  5 26  1  0  0  0
  5 98  1  0  0  0
  6 25  1  0  0  0
  6 99  1  0  0  0
  6100  1  0  0  0
  7  8  2  0  0  0
  7 26  1  0  0  0
  7 29  1  0  0  0
  8  9  1  0  0  0
  8 22  1  0  0  0
  9 10  1  0  0  0
  9 27  2  0  0  0
 10 11  2  0  0  0
 10 15  1  0  0  0
 11 12  1  0  0  0
 11101  1  0  0  0
 12 13  2  0  0  0
 12102  1  0  0  0
 13 14  1  0  0  0
 13 31  1  0  0  0
 14 15  2  0  0  0
 14103  1  0  0  0
 15104  1  0  0  0
 16 17  2  0  0  0
 16 21  1  0  0  0
 16 31  1  0  0  0
 17 18  1  0  0  0
 17105  1  0  0  0
 18 19  2  0  0  0
 18106  1  0  0  0
 19 20  1  0  0  0
 19 24  1  0  0  0
 20 21  2  0  0  0
 20107  1  0  0  0
 21 23  1  0  0  0
 22 28  1  0  0  0
 22 32  2  0  0  0
 26 27  1  0  0  0
 28108  1  0  0  0
 28109  1  0  0  0
 29110  1  0  0  0
 29111  1  0  0  0
 33 34  1  0  0  0
 33 66  1  0  0  0
 33 70  2  0  0  0
 34 36  1  0  0  0
 34 59  1  0  0  0
 34112  1  0  0  0
 35 44  2  0  0  0
 35 45  1  0  0  0
 35 68  1  0  0  0
 36 56  1  0  0  0
 36113  1  0  0  0
 37 39  1  0  0  0
 37 47  1  0  0  0
 37 66  1  0  0  0
 37114  1  0  0  0
 38 43  2  0  0  0
 38 46  1  0  0  0
 38 47  1  0  0  0
 39 64  1  0  0  0
 39 67  2  0  0  0
 40 52  1  0  0  0
 40 53  2  0  0  0
 40 58  1  0  0  0
 41115  1  0  0  0
 41116  1  0  0  0
 41117  1  0  0  0
 41 48  1  0  0  0
 42 43  1  0  0  0
 42 66  1  0  0  0
 42118  1  0  0  0
 42119  1  0  0  0
 43 44  1  0  0  0
 44120  1  0  0  0
 45 46  2  0  0  0
 45121  1  0  0  0
 46122  1  0  0  0
 47123  1  0  0  0
 47124  1  0  0  0
 48 56  1  0  0  0
 48 65  1  0  0  0
 48125  1  0  0  0
 49 50  1  0  0  0
 49 53  1  0  0  0
 49 64  1  0  0  0
 49126  1  0  0  0
 50 51  1  0  0  0
 50127  1  0  0  0
 50128  1  0  0  0
 51 52  1  0  0  0
 51129  1  0  0  0
 51130  1  0  0  0
 52131  1  0  0  0
 52132  1  0  0  0
 53 54  1  0  0  0
 54 55  2  0  0  0
 54133  1  0  0  0
 55 57  1  0  0  0
 55134  1  0  0  0
 56 69  2  0  0  0
 57 58  2  0  0  0
 57135  1  0  0  0
 58136  1  0  0  0
 59 60  1  0  0  0
 59 61  1  0  0  0
 59 62  1  0  0  0
 60137  1  0  0  0
 60138  1  0  0  0
 60139  1  0  0  0
 61140  1  0  0  0
 61141  1  0  0  0
 61142  1  0  0  0
 62143  1  0  0  0
 62144  1  0  0  0
 62145  1  0  0  0
 63 65  1  0  0  0
 63146  1  0  0  0
 63147  1  0  0  0
 63148  1  0  0  0
 64149  1  0  0  0
 65150  1  0  0  0
 68 83  1  0  0  0
 71 72  2  0  0  0
 71 73  1  0  0  0
 71151  1  0  0  0
 72 74  1  0  0  0
 72152  1  0  0  0
 73 75  2  0  0  0
 73 89  1  0  0  0
 74 88  2  0  0  0
 74 90  1  0  0  0
 75 88  1  0  0  0
 75 91  1  0  0  0
 76 81  1  0  0  0
 76153  1  0  0  0
 76154  1  0  0  0
 76155  1  0  0  0
 77156  1  0  0  0
 77157  1  0  0  0
 77158  1  0  0  0
 77 84  1  0  0  0
 78159  1  0  0  0
 78160  1  0  0  0
 78161  1  0  0  0
 78 85  1  0  0  0
 79162  1  0  0  0
 79163  1  0  0  0
 79164  1  0  0  0
 79 86  1  0  0  0
 80 86  1  0  0  0
 80165  1  0  0  0
 80166  1  0  0  0
 80167  1  0  0  0
 81 84  1  0  0  0
 81168  1  0  0  0
 81169  1  0  0  0
 82 83  1  0  0  0
 82 85  1  0  0  0
 82170  1  0  0  0
 82171  1  0  0  0
 83172  1  0  0  0
 83173  1  0  0  0
 84 87  1  0  0  0
 84174  1  0  0  0
 85 87  1  0  0  0
 85175  1  0  0  0
 86 89  1  0  0  0
 86176  1  0  0  0
 87 91  1  0  0  0
 87177  1  0  0  0
 89178  1  0  0  0
 90179  1  0  0  0
 91180  1  0  0  0
M  ISO  4   1 100  68 101  83 101  90 100
M  END
> <chiral flag>
0

> <version>
0

> <s_m_source_file>
/data/baiqing/PycharmProjects/Reinvent-master-3.2/result/LINK_invent/BTK/process_docking_weight1_custom_product_contain_oxygen_bond_distance_aromatic_linkinvent_7_9_3/rearranged_h_0190.sdf

> <i_m_source_file_index>
85

> <r_mmod_Potential_Energy-OPLS-2005>
118.963737487793

> <r_mmod_Stretch_Energy-OPLS-2005>
60.6934013366699

> <r_mmod_Bend_Energy-OPLS-2005>
398.587921142578

> <r_mmod_Torsional_Energy-OPLS-2005>
327.311218261719

> <r_mmod_Improper_Torsional_Energy-OPLS-2005>
18.9178028106689

> <r_mmod_Van_der_Waal_Energy-OPLS-2005>
177.428970336914

> <r_mmod_Electrostatic_Energy-OPLS-2005>
-680.818664550781

> <r_mmod_Solvation_Energy-OPLS-2005>
-210.747817993164

> <b_mmod_Minimization_Converged-OPLS-2005>
0

> <r_mmod_RMS_Derivative-OPLS-2005>
2.85341644287109

$$$$
85
                    3D
 Structure written by MMmdl.
166175  0  0  1  0            999 V2000
  -30.5690  -14.7824   20.4702 C   0  0  0  0  0  0
  -30.4420  -12.4802   19.4744 C   0  0  0  0  0  0
  -29.5132  -12.5065   18.2388 C   0  0  0  0  0  0
  -28.0376  -12.3254   18.6521 C   0  0  0  0  0  0
  -27.6396  -13.2243   19.8534 C   0  0  2  0  0  0
  -28.6857  -13.1574   20.9875 C   0  0  0  0  0  0
  -25.2502  -13.8197   20.5692 C   0  0  0  0  0  0
  -24.1796  -13.0452   20.9218 C   0  0  0  0  0  0
  -24.6391  -11.6917   20.8792 C   0  0  0  0  0  0
  -23.9074  -10.4299   21.0440 C   0  0  0  0  0  0
  -24.3634   -9.4198   21.9193 C   0  0  0  0  0  0
  -23.6299   -8.2242   22.0744 C   0  0  0  0  0  0
  -22.4272   -8.0293   21.3540 C   0  0  0  0  0  0
  -21.9932   -9.0269   20.4638 C   0  0  0  0  0  0
  -22.7267  -10.2140   20.3054 C   0  0  0  0  0  0
  -21.6854   -6.0757   22.5287 C   0  0  0  0  0  0
  -21.4028   -6.5659   23.8219 C   0  0  0  0  0  0
  -21.3649   -5.6804   24.9177 C   0  0  0  0  0  0
  -21.6029   -4.3064   24.7233 C   0  0  0  0  0  0
  -21.8814   -3.8164   23.4359 C   0  0  0  0  0  0
  -21.9192   -4.6984   22.3410 C   0  0  0  0  0  0
  -22.7814  -13.5218   21.1880 C   0  0  0  0  0  0
  -22.1658   -4.2173   21.0986 F   0  0  0  0  0  0
  -21.5611   -3.4536   25.7747 F   0  0  0  0  0  0
  -29.9775  -13.5368   20.4019 N   0  0  0  0  0  0
  -26.2916  -12.9374   20.3293 N   0  0  0  0  0  0
  -25.9313  -11.6525   20.5791 N   0  0  0  0  0  0
  -22.0480  -12.8177   22.0436 N   0  0  0  0  0  0
  -25.4186  -15.1930   20.4069 N   0  0  0  0  0  0
  -31.7695  -14.9000   20.1970 O   0  0  0  0  0  0
  -21.6629   -6.8899   21.4243 O   0  0  0  0  0  0
  -22.3483  -14.5527   20.6729 O   0  0  0  0  0  0
  -24.6348  -31.8572   23.1990 C   0  0  0  0  0  0
  -25.9164  -32.4771   23.8352 C   0  0  1  0  0  0
  -27.1984  -27.2298   20.1176 C   0  0  0  0  0  0
  -25.5957  -33.8567   24.2297 N   0  0  0  0  0  0
  -23.4302  -30.4876   21.5433 C   0  0  2  0  0  0
  -24.8671  -28.9370   20.1126 C   0  0  0  0  0  0
  -22.7508  -29.4654   22.4878 C   0  0  0  0  0  0
  -18.0299  -28.1392   22.8503 C   0  0  0  0  0  0
  -24.1478  -36.7291   23.2641 C   0  0  0  0  0  0
  -25.9827  -30.7639   21.3781 C   0  0  0  0  0  0
  -26.0500  -29.3868   20.7121 C   0  0  0  0  0  0
  -27.2195  -28.5517   20.6942 C   0  0  0  0  0  0
  -25.9650  -26.8485   19.5336 C   0  0  0  0  0  0
  -24.8324  -27.6758   19.5109 C   0  0  0  0  0  0
  -23.6447  -29.8312   20.1580 C   0  0  0  0  0  0
  -25.4106  -36.3093   24.0348 C   0  0  1  0  0  0
  -20.5909  -28.3726   23.1242 C   0  0  2  0  0  0
  -20.6791  -26.9437   22.5393 C   0  0  0  0  0  0
  -19.5755  -26.6392   21.5212 C   0  0  0  0  0  0
  -18.1938  -26.7940   22.1636 C   0  0  0  0  0  0
  -19.1554  -28.8870   23.2880 C   0  0  0  0  0  0
  -18.9473  -30.1467   23.8902 C   0  0  0  0  0  0
  -17.6472  -30.6596   24.0563 C   0  0  0  0  0  0
  -25.9054  -34.9455   23.5129 C   0  0  0  0  0  0
  -16.5367  -29.9094   23.6324 C   0  0  0  0  0  0
  -16.7288  -28.6507   23.0365 C   0  0  0  0  0  0
  -26.4507  -31.6585   25.0744 C   0  0  0  0  0  0
  -25.3711  -31.3697   26.1447 C   0  0  0  0  0  0
  -27.0374  -30.3014   24.6234 C   0  0  0  0  0  0
  -27.6085  -32.4307   25.7502 C   0  0  0  0  0  0
  -27.5580  -37.1793   24.8470 C   0  0  0  0  0  0
  -21.4211  -29.3090   22.3624 N   0  0  0  0  0  0
  -26.4285  -37.3792   23.9430 N   0  0  0  0  0  0
  -24.7033  -31.0533   22.0968 N   0  0  0  0  0  0
  -23.4197  -28.8191   23.2976 O   0  0  0  0  0  0
  -28.2943  -26.3138   20.1497 O   0  0  0  0  0  0
  -26.5618  -34.8931   22.4691 O   0  0  0  0  0  0
  -23.5492  -32.1398   23.7282 O   0  0  0  0  0  0
  -31.0098  -17.9473   21.2986 C   0  0  0  0  0  0
  -29.9322  -17.3559   20.6823 C   0  0  0  0  0  0
  -29.3360  -19.6969   20.5328 C   0  0  0  0  0  0
  -28.0326  -22.4015   22.0426 C   0  0  0  0  0  0
  -27.2322  -21.1863   22.5300 C   0  0  0  0  0  0
  -26.4349  -20.4831   21.4063 C   0  0  0  0  0  0
  -27.0327  -20.6806   19.9951 C   0  0  0  0  0  0
  -28.5452  -20.9980   20.0492 C   0  0  1  0  0  0
  -29.4287  -25.1487   17.5191 C   0  0  0  0  0  0
  -27.4238  -23.5829   17.6074 C   0  0  0  0  0  0
  -29.1420  -23.6692   20.2572 C   0  0  0  0  0  0
  -28.0763  -24.8450   18.1875 C   0  0  0  0  0  0
  -28.1217  -24.8528   19.7524 C   0  0  2  0  0  0
  -29.0092  -18.3824   20.2550 N   0  0  0  0  0  0
  -28.6320  -22.3313   20.8272 N   0  0  0  0  0  0
  -29.7219  -15.8834   20.5963 N   0  0  0  0  0  0
  -28.0655  -23.4086   22.7568 O   0  0  0  0  0  0
  -30.8825  -19.7142   21.3863 S   0  0  0  0  0  0
  -31.4795  -12.6328   19.1715 H   0  0  0  0  0  0
  -30.4138  -11.5054   19.9633 H   0  0  0  0  0  0
  -29.8018  -11.7253   17.5340 H   0  0  0  0  0  0
  -29.6332  -13.4546   17.7110 H   0  0  0  0  0  0
  -27.8931  -11.2765   18.9129 H   0  0  0  0  0  0
  -27.3801  -12.5159   17.8032 H   0  0  0  0  0  0
  -27.6284  -14.2440   19.4706 H   0  0  0  0  0  0
  -28.7364  -12.1551   21.4152 H   0  0  0  0  0  0
  -28.4138  -13.8229   21.8093 H   0  0  0  0  0  0
  -25.2796   -9.5640   22.4749 H   0  0  0  0  0  0
  -23.9992   -7.4612   22.7453 H   0  0  0  0  0  0
  -21.0868   -8.8791   19.8933 H   0  0  0  0  0  0
  -22.3758  -10.9666   19.6134 H   0  0  0  0  0  0
  -21.2032   -7.6166   23.9733 H   0  0  0  0  0  0
  -21.1459   -6.0537   25.9074 H   0  0  0  0  0  0
  -22.0604   -2.7630   23.2851 H   0  0  0  0  0  0
  -22.4142  -11.9852   22.4812 H   0  0  0  0  0  0
  -21.1070  -13.1130   22.2607 H   0  0  0  0  0  0
  -24.6480  -15.8430   20.5199 H   0  0  0  0  0  0
  -26.2481  -15.6332   20.0310 H   0  0  0  0  0  0
  -26.7235  -32.5397   23.1090 H   0  0  0  0  0  0
  -25.0077  -33.9707   25.0426 H   0  0  0  0  0  0
  -22.7296  -31.3129   21.4008 H   0  0  0  0  0  0
  -23.3770  -35.9589   23.3282 H   0  0  0  0  0  0
  -24.3559  -36.8919   22.2054 H   0  0  0  0  0  0
  -23.7184  -37.6469   23.6670 H   0  0  0  0  0  0
  -26.1225  -31.5257   20.6101 H   0  0  0  0  0  0
  -26.8611  -30.8107   22.0107 H   0  0  0  0  0  0
  -28.1258  -28.9021   21.1663 H   0  0  0  0  0  0
  -25.8081  -25.8732   19.1047 H   0  0  0  0  0  0
  -23.9194  -27.3126   19.0586 H   0  0  0  0  0  0
  -23.7779  -30.6110   19.4078 H   0  0  0  0  0  0
  -22.7585  -29.2734   19.8503 H   0  0  0  0  0  0
  -25.1261  -36.1959   25.0839 H   0  0  0  0  0  0
  -21.0023  -28.3321   24.1356 H   0  0  0  0  0  0
  -20.5693  -26.2348   23.3617 H   0  0  0  0  0  0
  -21.6652  -26.7447   22.1183 H   0  0  0  0  0  0
  -19.6914  -25.6298   21.1252 H   0  0  0  0  0  0
  -19.6676  -27.3191   20.6738 H   0  0  0  0  0  0
  -17.4200  -26.6695   21.4047 H   0  0  0  0  0  0
  -18.0340  -26.0073   22.9025 H   0  0  0  0  0  0
  -19.7937  -30.7292   24.2281 H   0  0  0  0  0  0
  -17.5012  -31.6270   24.5173 H   0  0  0  0  0  0
  -15.5362  -30.3002   23.7637 H   0  0  0  0  0  0
  -15.8687  -28.0821   22.7097 H   0  0  0  0  0  0
  -24.5928  -30.7024   25.7734 H   0  0  0  0  0  0
  -24.8855  -32.2832   26.4883 H   0  0  0  0  0  0
  -25.8006  -30.8848   27.0221 H   0  0  0  0  0  0
  -26.2983  -29.6741   24.1246 H   0  0  0  0  0  0
  -27.4048  -29.7301   25.4765 H   0  0  0  0  0  0
  -27.8854  -30.4317   23.9510 H   0  0  0  0  0  0
  -27.2760  -33.3641   26.2057 H   0  0  0  0  0  0
  -28.3896  -32.6789   25.0307 H   0  0  0  0  0  0
  -28.0760  -31.8425   26.5406 H   0  0  0  0  0  0
  -28.2585  -38.0105   24.7545 H   0  0  0  0  0  0
  -28.1087  -36.2634   24.6260 H   0  0  0  0  0  0
  -27.2296  -37.1399   25.8870 H   0  0  0  0  0  0
  -20.9395  -29.8832   21.6842 H   0  0  0  0  0  0
  -26.0175  -38.2866   24.1446 H   0  0  0  0  0  0
  -31.8656  -17.4573   21.7441 H   0  0  0  0  0  0
  -26.5554  -21.4866   23.3319 H   0  0  0  0  0  0
  -27.9409  -20.4888   22.9780 H   0  0  0  0  0  0
  -25.4014  -20.8318   21.4126 H   0  0  0  0  0  0
  -26.3896  -19.4171   21.6348 H   0  0  0  0  0  0
  -26.5201  -21.5178   19.5218 H   0  0  0  0  0  0
  -26.8242  -19.8191   19.3596 H   0  0  0  0  0  0
  -28.9010  -21.1910   19.0386 H   0  0  0  0  0  0
  -29.2836  -25.4137   16.4715 H   0  0  0  0  0  0
  -30.1156  -24.3039   17.5354 H   0  0  0  0  0  0
  -29.9196  -25.9926   18.0036 H   0  0  0  0  0  0
  -27.2531  -23.6937   16.5370 H   0  0  0  0  0  0
  -26.4575  -23.3894   18.0753 H   0  0  0  0  0  0
  -28.0494  -22.7044   17.7365 H   0  0  0  0  0  0
  -29.7945  -24.1143   21.0101 H   0  0  0  0  0  0
  -29.8381  -23.3998   19.4684 H   0  0  0  0  0  0
  -27.4462  -25.6593   17.8442 H   0  0  0  0  0  0
  -27.1472  -24.5546   20.1405 H   0  0  0  0  0  0
  -28.7519  -15.6148   20.6095 H   0  0  0  0  0  0
  1 25  1  0  0  0
  1 30  2  0  0  0
  1 86  1  0  0  0
  2  3  1  0  0  0
  2 25  1  0  0  0
  2 89  1  0  0  0
  2 90  1  0  0  0
  3  4  1  0  0  0
  3 91  1  0  0  0
  3 92  1  0  0  0
  4  5  1  0  0  0
  4 93  1  0  0  0
  4 94  1  0  0  0
  5  6  1  0  0  0
  5 26  1  0  0  0
  5 95  1  0  0  0
  6 25  1  0  0  0
  6 96  1  0  0  0
  6 97  1  0  0  0
  7  8  2  0  0  0
  7 26  1  0  0  0
  7 29  1  0  0  0
  8  9  1  0  0  0
  8 22  1  0  0  0
  9 10  1  0  0  0
  9 27  2  0  0  0
 10 11  2  0  0  0
 10 15  1  0  0  0
 11 12  1  0  0  0
 11 98  1  0  0  0
 12 13  2  0  0  0
 12 99  1  0  0  0
 13 14  1  0  0  0
 13 31  1  0  0  0
 14 15  2  0  0  0
 14100  1  0  0  0
 15101  1  0  0  0
 16 17  2  0  0  0
 16 21  1  0  0  0
 16 31  1  0  0  0
 17 18  1  0  0  0
 17102  1  0  0  0
 18 19  2  0  0  0
 18103  1  0  0  0
 19 20  1  0  0  0
 19 24  1  0  0  0
 20 21  2  0  0  0
 20104  1  0  0  0
 21 23  1  0  0  0
 22 28  1  0  0  0
 22 32  2  0  0  0
 26 27  1  0  0  0
 28105  1  0  0  0
 28106  1  0  0  0
 29107  1  0  0  0
 29108  1  0  0  0
 33 34  1  0  0  0
 33 66  1  0  0  0
 33 70  2  0  0  0
 34 36  1  0  0  0
 34 59  1  0  0  0
 34109  1  0  0  0
 35 44  2  0  0  0
 35 45  1  0  0  0
 35 68  1  0  0  0
 36 56  1  0  0  0
 36110  1  0  0  0
 37 39  1  0  0  0
 37 47  1  0  0  0
 37 66  1  0  0  0
 37111  1  0  0  0
 38 43  2  0  0  0
 38 46  1  0  0  0
 38 47  1  0  0  0
 39 64  1  0  0  0
 39 67  2  0  0  0
 40 52  1  0  0  0
 40 53  2  0  0  0
 40 58  1  0  0  0
 41112  1  0  0  0
 41113  1  0  0  0
 41114  1  0  0  0
 41 48  1  0  0  0
 42 43  1  0  0  0
 42 66  1  0  0  0
 42115  1  0  0  0
 42116  1  0  0  0
 43 44  1  0  0  0
 44117  1  0  0  0
 45 46  2  0  0  0
 45118  1  0  0  0
 46119  1  0  0  0
 47120  1  0  0  0
 47121  1  0  0  0
 48 56  1  0  0  0
 48 65  1  0  0  0
 48122  1  0  0  0
 49 50  1  0  0  0
 49 53  1  0  0  0
 49 64  1  0  0  0
 49123  1  0  0  0
 50 51  1  0  0  0
 50124  1  0  0  0
 50125  1  0  0  0
 51 52  1  0  0  0
 51126  1  0  0  0
 51127  1  0  0  0
 52128  1  0  0  0
 52129  1  0  0  0
 53 54  1  0  0  0
 54 55  2  0  0  0
 54130  1  0  0  0
 55 57  1  0  0  0
 55131  1  0  0  0
 56 69  2  0  0  0
 57 58  2  0  0  0
 57132  1  0  0  0
 58133  1  0  0  0
 59 60  1  0  0  0
 59 61  1  0  0  0
 59 62  1  0  0  0
 60134  1  0  0  0
 60135  1  0  0  0
 60136  1  0  0  0
 61137  1  0  0  0
 61138  1  0  0  0
 61139  1  0  0  0
 62140  1  0  0  0
 62141  1  0  0  0
 62142  1  0  0  0
 63 65  1  0  0  0
 63143  1  0  0  0
 63144  1  0  0  0
 63145  1  0  0  0
 64146  1  0  0  0
 65147  1  0  0  0
 68 83  1  0  0  0
 71 72  2  0  0  0
 71 88  1  0  0  0
 71148  1  0  0  0
 72 84  1  0  0  0
 72 86  1  0  0  0
 73 84  2  0  0  0
 73 88  1  0  0  0
 73 78  1  0  0  0
 74 75  1  0  0  0
 74 85  1  0  0  0
 74 87  2  0  0  0
 75 76  1  0  0  0
 75149  1  0  0  0
 75150  1  0  0  0
 76 77  1  0  0  0
 76151  1  0  0  0
 76152  1  0  0  0
 77 78  1  0  0  0
 77153  1  0  0  0
 77154  1  0  0  0
 78 85  1  0  0  0
 78155  1  0  0  0
 79156  1  0  0  0
 79157  1  0  0  0
 79158  1  0  0  0
 79 82  1  0  0  0
 80 82  1  0  0  0
 80159  1  0  0  0
 80160  1  0  0  0
 80161  1  0  0  0
 81 85  1  0  0  0
 81162  1  0  0  0
 81163  1  0  0  0
 81 83  1  0  0  0
 82 83  1  0  0  0
 82164  1  0  0  0
 83165  1  0  0  0
 86166  1  0  0  0
M  ISO  4   1 100  68 101  83 101  86 100
M  END
> <chiral flag>
0

> <version>
0

> <s_m_source_file>
/data/baiqing/PycharmProjects/Reinvent-master-3.2/result/LINK_invent/BTK/process_docking_weight1_custom_product_contain_oxygen_bond_distance_aromatic_linkinvent_7_9_3/rearranged_h_0190.sdf

> <i_m_source_file_index>
86

> <r_mmod_Potential_Energy-OPLS-2005>
228.027709960938

> <r_mmod_Stretch_Energy-OPLS-2005>
153.037445068359

> <r_mmod_Bend_Energy-OPLS-2005>
203.967437744141

> <r_mmod_Torsional_Energy-OPLS-2005>
274.365753173828

> <r_mmod_Improper_Torsional_Energy-OPLS-2005>
7.15171813964844

> <r_mmod_Van_der_Waal_Energy-OPLS-2005>
135.385726928711

> <r_mmod_Electrostatic_Energy-OPLS-2005>
-424.185424804688

> <r_mmod_Solvation_Energy-OPLS-2005>
-225.449234008789

> <b_mmod_Minimization_Converged-OPLS-2005>
0

> <r_mmod_RMS_Derivative-OPLS-2005>
2.60240435600281

$$$$
86
                    3D
 Structure written by MMmdl.
159167  0  0  1  0            999 V2000
  -30.5954  -14.7658   20.5180 C   0  0  0  0  0  0
  -30.4384  -12.4786   19.4667 C   0  0  0  0  0  0
  -29.5082  -12.5014   18.2305 C   0  0  0  0  0  0
  -28.0364  -12.2798   18.6388 C   0  0  0  0  0  0
  -27.6328  -13.1791   19.8315 C   0  0  2  0  0  0
  -28.6831  -13.1014   20.9702 C   0  0  0  0  0  0
  -25.2422  -13.8035   20.5537 C   0  0  0  0  0  0
  -24.1763  -13.0343   20.9228 C   0  0  0  0  0  0
  -24.6357  -11.6824   20.8816 C   0  0  0  0  0  0
  -23.9047  -10.4236   21.0468 C   0  0  0  0  0  0
  -24.3606   -9.4154   21.9226 C   0  0  0  0  0  0
  -23.6310   -8.2183   22.0763 C   0  0  0  0  0  0
  -22.4295   -8.0247   21.3556 C   0  0  0  0  0  0
  -21.9923   -9.0228   20.4675 C   0  0  0  0  0  0
  -22.7241  -10.2099   20.3102 C   0  0  0  0  0  0
  -21.6866   -6.0711   22.5279 C   0  0  0  0  0  0
  -21.4026   -6.5603   23.8214 C   0  0  0  0  0  0
  -21.3674   -5.6739   24.9167 C   0  0  0  0  0  0
  -21.6058   -4.3004   24.7206 C   0  0  0  0  0  0
  -21.8839   -3.8115   23.4318 C   0  0  0  0  0  0
  -21.9208   -4.6943   22.3385 C   0  0  0  0  0  0
  -22.7786  -13.5151   21.1896 C   0  0  0  0  0  0
  -22.1669   -4.2147   21.0956 F   0  0  0  0  0  0
  -21.5640   -3.4479   25.7707 F   0  0  0  0  0  0
  -29.9743  -13.5273   20.4136 N   0  0  0  0  0  0
  -26.2853  -12.9174   20.3147 N   0  0  0  0  0  0
  -25.9250  -11.6377   20.5777 N   0  0  0  0  0  0
  -22.0394  -12.8183   22.0441 N   0  0  0  0  0  0
  -25.3850  -15.1754   20.3745 N   0  0  0  0  0  0
  -31.7722  -14.8165   20.1429 O   0  0  0  0  0  0
  -21.6656   -6.8849   21.4248 O   0  0  0  0  0  0
  -22.3484  -14.5461   20.6726 O   0  0  0  0  0  0
  -24.6313  -31.8539   23.1974 C   0  0  0  0  0  0
  -25.9131  -32.4753   23.8334 C   0  0  1  0  0  0
  -27.2306  -27.2782   20.1107 C   0  0  0  0  0  0
  -25.5940  -33.8563   24.2243 N   0  0  0  0  0  0
  -23.4291  -30.4750   21.5408 C   0  0  2  0  0  0
  -24.8779  -28.9241   20.1119 C   0  0  0  0  0  0
  -22.7520  -29.4573   22.4902 C   0  0  0  0  0  0
  -18.0292  -28.1392   22.8482 C   0  0  0  0  0  0
  -24.1488  -36.7289   23.2632 C   0  0  0  0  0  0
  -25.9765  -30.7670   21.3802 C   0  0  0  0  0  0
  -26.0491  -29.3927   20.7195 C   0  0  0  0  0  0
  -27.2272  -28.5812   20.7093 C   0  0  0  0  0  0
  -26.0330  -26.8751   19.4721 C   0  0  0  0  0  0
  -24.8734  -27.6737   19.4786 C   0  0  0  0  0  0
  -23.6495  -29.8088   20.1580 C   0  0  0  0  0  0
  -25.4119  -36.3073   24.0309 C   0  0  1  0  0  0
  -20.5889  -28.3687   23.1269 C   0  0  2  0  0  0
  -20.6779  -26.9401   22.5405 C   0  0  0  0  0  0
  -19.5759  -26.6384   21.5209 C   0  0  0  0  0  0
  -18.1937  -26.7937   22.1619 C   0  0  0  0  0  0
  -19.1547  -28.8863   23.2873 C   0  0  0  0  0  0
  -18.9472  -30.1467   23.8888 C   0  0  0  0  0  0
  -17.6470  -30.6597   24.0556 C   0  0  0  0  0  0
  -25.9063  -34.9442   23.5080 C   0  0  0  0  0  0
  -16.5354  -29.9092   23.6333 C   0  0  0  0  0  0
  -16.7281  -28.6508   23.0355 C   0  0  0  0  0  0
  -26.4495  -31.6597   25.0741 C   0  0  0  0  0  0
  -25.3711  -31.3780   26.1463 C   0  0  0  0  0  0
  -27.0331  -30.3000   24.6262 C   0  0  0  0  0  0
  -27.6041  -32.4351   25.7531 C   0  0  0  0  0  0
  -27.5577  -37.1800   24.8466 C   0  0  0  0  0  0
  -21.4216  -29.3042   22.3669 N   0  0  0  0  0  0
  -26.4294  -37.3772   23.9400 N   0  0  0  0  0  0
  -24.6980  -31.0495   22.0962 N   0  0  0  0  0  0
  -23.4222  -28.8097   23.2989 O   0  0  0  0  0  0
  -28.3411  -26.4052   20.1678 O   0  0  0  0  0  0
  -26.5640  -34.8905   22.4654 O   0  0  0  0  0  0
  -23.5465  -32.1373   23.7264 O   0  0  0  0  0  0
  -31.6320  -17.8052   19.8119 C   0  0  0  0  0  0
  -30.4569  -17.5598   20.4840 C   0  0  0  0  0  0
  -30.3920  -19.9405   20.2280 C   0  0  0  0  0  0
  -27.7763  -21.8413   21.2227 C   0  0  0  0  0  0
  -28.4007  -16.2462   20.6209 C   0  0  0  0  0  0
  -29.9921  -16.1987   22.5533 C   0  0  0  0  0  0
  -28.1435  -24.9501   19.8769 C   0  0  0  0  0  0
  -28.8391  -22.2591   20.1940 C   0  0  1  0  0  0
  -29.2264  -23.8290   20.3005 C   0  0  1  0  0  0
  -29.8877  -16.1699   21.0144 C   0  0  0  0  0  0
  -29.7746  -18.8254   20.7044 N   0  0  0  0  0  0
  -30.0139  -21.3266   20.2490 N   0  0  0  0  0  0
  -30.3465  -23.9668   19.4405 O   0  0  0  0  0  0
  -31.9203  -19.5041   19.4772 S   0  0  0  0  0  0
  -31.4723  -12.6240   19.1509 H   0  0  0  0  0  0
  -30.4158  -11.4974   19.9453 H   0  0  0  0  0  0
  -29.8165  -11.7414   17.5107 H   0  0  0  0  0  0
  -29.6041  -13.4590   17.7175 H   0  0  0  0  0  0
  -27.9141  -11.2309   18.9087 H   0  0  0  0  0  0
  -27.3777  -12.4478   17.7862 H   0  0  0  0  0  0
  -27.6116  -14.1681   19.3936 H   0  0  0  0  0  0
  -28.7456  -12.0737   21.3315 H   0  0  0  0  0  0
  -28.4073  -13.6747   21.8519 H   0  0  0  0  0  0
  -25.2724   -9.5634   22.4843 H   0  0  0  0  0  0
  -24.0035   -7.4538   22.7436 H   0  0  0  0  0  0
  -21.0865   -8.8761   19.8968 H   0  0  0  0  0  0
  -22.3713  -10.9677   19.6253 H   0  0  0  0  0  0
  -21.2012   -7.6104   23.9747 H   0  0  0  0  0  0
  -21.1477   -6.0434   25.9079 H   0  0  0  0  0  0
  -22.0618   -2.7591   23.2794 H   0  0  0  0  0  0
  -22.3953  -11.9868   22.4923 H   0  0  0  0  0  0
  -21.0994  -13.1225   22.2541 H   0  0  0  0  0  0
  -24.6033  -15.8109   20.4972 H   0  0  0  0  0  0
  -26.2208  -15.6365   20.0431 H   0  0  0  0  0  0
  -26.7198  -32.5389   23.1076 H   0  0  0  0  0  0
  -25.0100  -33.9717   25.0398 H   0  0  0  0  0  0
  -22.7271  -31.2974   21.3919 H   0  0  0  0  0  0
  -23.3747  -35.9627   23.3314 H   0  0  0  0  0  0
  -24.3567  -36.8915   22.2047 H   0  0  0  0  0  0
  -23.7251  -37.6493   23.6659 H   0  0  0  0  0  0
  -26.1220  -31.5285   20.6122 H   0  0  0  0  0  0
  -26.8516  -30.8115   22.0159 H   0  0  0  0  0  0
  -28.1258  -28.9323   21.1966 H   0  0  0  0  0  0
  -25.9608  -25.9235   18.9671 H   0  0  0  0  0  0
  -23.9755  -27.3149   18.9923 H   0  0  0  0  0  0
  -23.7800  -30.5842   19.4025 H   0  0  0  0  0  0
  -22.7700  -29.2412   19.8484 H   0  0  0  0  0  0
  -25.1297  -36.1911   25.0800 H   0  0  0  0  0  0
  -20.9980  -28.3260   24.1387 H   0  0  0  0  0  0
  -20.5677  -26.2286   23.3606 H   0  0  0  0  0  0
  -21.6642  -26.7435   22.1181 H   0  0  0  0  0  0
  -19.6908  -25.6294   21.1253 H   0  0  0  0  0  0
  -19.6695  -27.3187   20.6734 H   0  0  0  0  0  0
  -17.4192  -26.6683   21.4031 H   0  0  0  0  0  0
  -18.0333  -26.0092   22.9030 H   0  0  0  0  0  0
  -19.7948  -30.7292   24.2243 H   0  0  0  0  0  0
  -17.5021  -31.6266   24.5172 H   0  0  0  0  0  0
  -15.5354  -30.2988   23.7672 H   0  0  0  0  0  0
  -15.8679  -28.0828   22.7072 H   0  0  0  0  0  0
  -24.5880  -30.7122   25.7807 H   0  0  0  0  0  0
  -24.8899  -32.2967   26.4841 H   0  0  0  0  0  0
  -25.8018  -30.9002   27.0271 H   0  0  0  0  0  0
  -26.2916  -29.6766   24.1249 H   0  0  0  0  0  0
  -27.3949  -29.7252   25.4800 H   0  0  0  0  0  0
  -27.8827  -30.4263   23.9548 H   0  0  0  0  0  0
  -27.2634  -33.3655   26.2092 H   0  0  0  0  0  0
  -28.3872  -32.6917   25.0382 H   0  0  0  0  0  0
  -28.0685  -31.8491   26.5482 H   0  0  0  0  0  0
  -28.2586  -38.0097   24.7502 H   0  0  0  0  0  0
  -28.1074  -36.2630   24.6300 H   0  0  0  0  0  0
  -27.2296  -37.1466   25.8867 H   0  0  0  0  0  0
  -20.9406  -29.8780   21.6881 H   0  0  0  0  0  0
  -26.0169  -38.2837   24.1414 H   0  0  0  0  0  0
  -32.3748  -17.0852   19.4962 H   0  0  0  0  0  0
  -26.9134  -22.5085   21.2065 H   0  0  0  0  0  0
  -28.1752  -21.8392   22.2364 H   0  0  0  0  0  0
  -27.4018  -20.8370   21.0149 H   0  0  0  0  0  0
  -27.9282  -17.1794   20.9235 H   0  0  0  0  0  0
  -27.7999  -15.5100   21.1306 H   0  0  0  0  0  0
  -28.2792  -16.1831   19.5399 H   0  0  0  0  0  0
  -29.4720  -17.0627   22.9697 H   0  0  0  0  0  0
  -31.0306  -16.2629   22.8778 H   0  0  0  0  0  0
  -29.5509  -15.3145   23.0127 H   0  0  0  0  0  0
  -27.2197  -24.6566   20.3741 H   0  0  0  0  0  0
  -27.9511  -24.8451   18.8082 H   0  0  0  0  0  0
  -28.4011  -22.1138   19.2041 H   0  0  0  0  0  0
  -29.5503  -24.0390   21.3212 H   0  0  0  0  0  0
  -30.8034  -21.8911   19.9401 H   0  0  0  0  0  0
  -30.6498  -24.8669   19.5224 H   0  0  0  0  0  0
  1 25  1  0  0  0
  1 30  2  0  0  0
  1 80  1  0  0  0
  2  3  1  0  0  0
  2 25  1  0  0  0
  2 85  1  0  0  0
  2 86  1  0  0  0
  3  4  1  0  0  0
  3 87  1  0  0  0
  3 88  1  0  0  0
  4  5  1  0  0  0
  4 89  1  0  0  0
  4 90  1  0  0  0
  5  6  1  0  0  0
  5 26  1  0  0  0
  5 91  1  0  0  0
  6 25  1  0  0  0
  6 92  1  0  0  0
  6 93  1  0  0  0
  7  8  2  0  0  0
  7 26  1  0  0  0
  7 29  1  0  0  0
  8  9  1  0  0  0
  8 22  1  0  0  0
  9 10  1  0  0  0
  9 27  2  0  0  0
 10 11  2  0  0  0
 10 15  1  0  0  0
 11 12  1  0  0  0
 11 94  1  0  0  0
 12 13  2  0  0  0
 12 95  1  0  0  0
 13 14  1  0  0  0
 13 31  1  0  0  0
 14 15  2  0  0  0
 14 96  1  0  0  0
 15 97  1  0  0  0
 16 17  2  0  0  0
 16 21  1  0  0  0
 16 31  1  0  0  0
 17 18  1  0  0  0
 17 98  1  0  0  0
 18 19  2  0  0  0
 18 99  1  0  0  0
 19 20  1  0  0  0
 19 24  1  0  0  0
 20 21  2  0  0  0
 20100  1  0  0  0
 21 23  1  0  0  0
 22 28  1  0  0  0
 22 32  2  0  0  0
 26 27  1  0  0  0
 28101  1  0  0  0
 28102  1  0  0  0
 29103  1  0  0  0
 29104  1  0  0  0
 33 34  1  0  0  0
 33 66  1  0  0  0
 33 70  2  0  0  0
 34 36  1  0  0  0
 34 59  1  0  0  0
 34105  1  0  0  0
 35 44  2  0  0  0
 35 45  1  0  0  0
 35 68  1  0  0  0
 36 56  1  0  0  0
 36106  1  0  0  0
 37 39  1  0  0  0
 37 47  1  0  0  0
 37 66  1  0  0  0
 37107  1  0  0  0
 38 43  2  0  0  0
 38 46  1  0  0  0
 38 47  1  0  0  0
 39 64  1  0  0  0
 39 67  2  0  0  0
 40 52  1  0  0  0
 40 53  2  0  0  0
 40 58  1  0  0  0
 41108  1  0  0  0
 41109  1  0  0  0
 41110  1  0  0  0
 41 48  1  0  0  0
 42 43  1  0  0  0
 42 66  1  0  0  0
 42111  1  0  0  0
 42112  1  0  0  0
 43 44  1  0  0  0
 44113  1  0  0  0
 45 46  2  0  0  0
 45114  1  0  0  0
 46115  1  0  0  0
 47116  1  0  0  0
 47117  1  0  0  0
 48 56  1  0  0  0
 48 65  1  0  0  0
 48118  1  0  0  0
 49 50  1  0  0  0
 49 53  1  0  0  0
 49 64  1  0  0  0
 49119  1  0  0  0
 50 51  1  0  0  0
 50120  1  0  0  0
 50121  1  0  0  0
 51 52  1  0  0  0
 51122  1  0  0  0
 51123  1  0  0  0
 52124  1  0  0  0
 52125  1  0  0  0
 53 54  1  0  0  0
 54 55  2  0  0  0
 54126  1  0  0  0
 55 57  1  0  0  0
 55127  1  0  0  0
 56 69  2  0  0  0
 57 58  2  0  0  0
 57128  1  0  0  0
 58129  1  0  0  0
 59 60  1  0  0  0
 59 61  1  0  0  0
 59 62  1  0  0  0
 60130  1  0  0  0
 60131  1  0  0  0
 60132  1  0  0  0
 61133  1  0  0  0
 61134  1  0  0  0
 61135  1  0  0  0
 62136  1  0  0  0
 62137  1  0  0  0
 62138  1  0  0  0
 63 65  1  0  0  0
 63139  1  0  0  0
 63140  1  0  0  0
 63141  1  0  0  0
 64142  1  0  0  0
 65143  1  0  0  0
 68 77  1  0  0  0
 71 72  2  0  0  0
 71 84  1  0  0  0
 71144  1  0  0  0
 72 80  1  0  0  0
 72 81  1  0  0  0
 73 81  2  0  0  0
 73 82  1  0  0  0
 73 84  1  0  0  0
 74145  1  0  0  0
 74146  1  0  0  0
 74147  1  0  0  0
 74 78  1  0  0  0
 75148  1  0  0  0
 75149  1  0  0  0
 75150  1  0  0  0
 75 80  1  0  0  0
 76 80  1  0  0  0
 76151  1  0  0  0
 76152  1  0  0  0
 76153  1  0  0  0
 77 79  1  0  0  0
 77154  1  0  0  0
 77155  1  0  0  0
 78 79  1  0  0  0
 78 82  1  0  0  0
 78156  1  0  0  0
 79 83  1  0  0  0
 79157  1  0  0  0
 82158  1  0  0  0
 83159  1  0  0  0
M  ISO  4   1 100  68 101  77 101  80 100
M  END
> <chiral flag>
0

> <version>
0

> <s_m_source_file>
/data/baiqing/PycharmProjects/Reinvent-master-3.2/result/LINK_invent/BTK/process_docking_weight1_custom_product_contain_oxygen_bond_distance_aromatic_linkinvent_7_9_3/rearranged_h_0190.sdf

> <i_m_source_file_index>
87

> <r_mmod_Potential_Energy-OPLS-2005>
132.021423339844

> <r_mmod_Stretch_Energy-OPLS-2005>
124.451728820801

> <r_mmod_Bend_Energy-OPLS-2005>
185.640670776367

> <r_mmod_Torsional_Energy-OPLS-2005>
213.186050415039

> <r_mmod_Improper_Torsional_Energy-OPLS-2005>
3.39358711242676

> <r_mmod_Van_der_Waal_Energy-OPLS-2005>
142.455093383789

> <r_mmod_Electrostatic_Energy-OPLS-2005>
-411.623352050781

> <r_mmod_Solvation_Energy-OPLS-2005>
-206.727798461914

> <b_mmod_Minimization_Converged-OPLS-2005>
0

> <r_mmod_RMS_Derivative-OPLS-2005>
2.85694932937622

$$$$
87
                    3D
 Structure written by MMmdl.
172180  0  0  1  0            999 V2000
  -30.6989  -14.4408   20.5175 C   0  0  0  0  0  0
  -30.4156  -12.2662   19.4369 C   0  0  0  0  0  0
  -29.5001  -12.4862   18.2141 C   0  0  0  0  0  0
  -28.0179  -12.3595   18.6169 C   0  0  0  0  0  0
  -27.6610  -13.2034   19.8694 C   0  0  2  0  0  0
  -28.6983  -12.9894   20.9975 C   0  0  0  0  0  0
  -25.2588  -13.8155   20.5686 C   0  0  0  0  0  0
  -24.1837  -13.0437   20.9176 C   0  0  0  0  0  0
  -24.6380  -11.6904   20.8714 C   0  0  0  0  0  0
  -23.9055  -10.4288   21.0405 C   0  0  0  0  0  0
  -24.3603   -9.4215   21.9190 C   0  0  0  0  0  0
  -23.6288   -8.2248   22.0765 C   0  0  0  0  0  0
  -22.4268   -8.0274   21.3546 C   0  0  0  0  0  0
  -21.9891   -9.0249   20.4657 C   0  0  0  0  0  0
  -22.7222  -10.2124   20.3072 C   0  0  0  0  0  0
  -21.6848   -6.0726   22.5275 C   0  0  0  0  0  0
  -21.4014   -6.5621   23.8203 C   0  0  0  0  0  0
  -21.3673   -5.6778   24.9172 C   0  0  0  0  0  0
  -21.6053   -4.3044   24.7218 C   0  0  0  0  0  0
  -21.8824   -3.8131   23.4340 C   0  0  0  0  0  0
  -21.9195   -4.6958   22.3402 C   0  0  0  0  0  0
  -22.7862  -13.5258   21.1822 C   0  0  0  0  0  0
  -22.1671   -4.2144   21.0979 F   0  0  0  0  0  0
  -21.5637   -3.4528   25.7736 F   0  0  0  0  0  0
  -30.0377  -13.2575   20.4513 N   0  0  0  0  0  0
  -26.3007  -12.9314   20.3301 N   0  0  0  0  0  0
  -25.9291  -11.6483   20.5700 N   0  0  0  0  0  0
  -22.0479  -12.8272   22.0371 N   0  0  0  0  0  0
  -25.4332  -15.1871   20.4150 N   0  0  0  0  0  0
  -31.8626  -14.5879   20.1310 O   0  0  0  0  0  0
  -21.6634   -6.8866   21.4241 O   0  0  0  0  0  0
  -22.3572  -14.5570   20.6677 O   0  0  0  0  0  0
  -24.6130  -31.8690   23.2120 C   0  0  0  0  0  0
  -25.9025  -32.4826   23.8415 C   0  0  1  0  0  0
  -27.2309  -27.4540   20.0896 C   0  0  0  0  0  0
  -25.5889  -33.8628   24.2350 N   0  0  0  0  0  0
  -23.3997  -30.4922   21.5533 C   0  0  2  0  0  0
  -24.8435  -28.9595   20.1185 C   0  0  0  0  0  0
  -22.7404  -29.4643   22.5010 C   0  0  0  0  0  0
  -18.0263  -28.1371   22.8492 C   0  0  0  0  0  0
  -24.1483  -36.7314   23.2636 C   0  0  0  0  0  0
  -25.9253  -30.8398   21.3617 C   0  0  0  0  0  0
  -26.0028  -29.4750   20.7119 C   0  0  0  0  0  0
  -27.2013  -28.7294   20.6922 C   0  0  0  0  0  0
  -26.0553  -26.9462   19.4935 C   0  0  0  0  0  0
  -24.8628  -27.6933   19.5073 C   0  0  0  0  0  0
  -23.6069  -29.8257   20.1674 C   0  0  0  0  0  0
  -25.4101  -36.3117   24.0342 C   0  0  1  0  0  0
  -20.5854  -28.3642   23.1331 C   0  0  2  0  0  0
  -20.6759  -26.9387   22.5414 C   0  0  0  0  0  0
  -19.5737  -26.6390   21.5205 C   0  0  0  0  0  0
  -18.1914  -26.7925   22.1621 C   0  0  0  0  0  0
  -19.1515  -28.8820   23.2911 C   0  0  0  0  0  0
  -18.9446  -30.1439   23.8912 C   0  0  0  0  0  0
  -17.6448  -30.6577   24.0568 C   0  0  0  0  0  0
  -25.9023  -34.9476   23.5142 C   0  0  0  0  0  0
  -16.5338  -29.9082   23.6323 C   0  0  0  0  0  0
  -16.7254  -28.6501   23.0336 C   0  0  0  0  0  0
  -26.4461  -31.6594   25.0731 C   0  0  0  0  0  0
  -25.3737  -31.3700   26.1491 C   0  0  0  0  0  0
  -27.0280  -30.3042   24.6080 C   0  0  0  0  0  0
  -27.6064  -32.4289   25.7473 C   0  0  0  0  0  0
  -27.5579  -37.1812   24.8466 C   0  0  0  0  0  0
  -21.4127  -29.3023   22.3749 N   0  0  0  0  0  0
  -26.4291  -37.3799   23.9412 N   0  0  0  0  0  0
  -24.6645  -31.0812   22.1013 N   0  0  0  0  0  0
  -23.4181  -28.8183   23.3044 O   0  0  0  0  0  0
  -28.4117  -26.7514   20.0452 O   0  0  0  0  0  0
  -26.5586  -34.8923   22.4706 O   0  0  0  0  0  0
  -23.5320  -32.1431   23.7522 O   0  0  0  0  0  0
  -29.6891  -18.2468   18.1457 C   0  0  0  0  0  0
  -29.0867  -18.6739   19.3051 C   0  0  0  0  0  0
  -29.8089  -16.6101   19.9588 C   0  0  0  0  0  0
  -29.0004  -22.2722   20.7846 C   0  0  0  0  0  0
  -28.8152  -22.5990   15.1372 C   0  0  0  0  0  0
  -27.8578  -20.2640   15.1056 C   0  0  0  0  0  0
  -26.3509  -21.2633   18.6508 C   0  0  0  0  0  0
  -29.5105  -20.9892   20.1230 C   0  0  0  0  0  0
  -29.6577  -24.6872   20.0993 C   0  0  0  0  0  0
  -28.5221  -21.3841   17.3216 C   0  0  0  0  0  0
  -28.3663  -25.4083   20.5256 C   0  0  0  0  0  0
  -28.4431  -20.0212   19.5506 C   0  0  1  0  0  0
  -30.0094  -23.4216   20.9107 C   0  0  1  0  0  0
  -27.9543  -21.5805   15.8985 C   0  0  0  0  0  0
  -27.6609  -20.5337   18.2915 C   0  0  1  0  0  0
  -29.1532  -17.7159   20.3345 N   0  0  0  0  0  0
  -29.9364  -15.4988   20.8265 N   0  0  0  0  0  0
  -27.8687  -22.3537   21.2715 O   0  0  0  0  0  0
  -30.1590  -23.7548   22.1956 F   0  0  0  0  0  0
  -30.3703  -16.6566   18.2869 S   0  0  0  0  0  0
  -31.4659  -12.3353   19.1479 H   0  0  0  0  0  0
  -30.2850  -11.2593   19.8352 H   0  0  0  0  0  0
  -29.7358  -11.7652   17.4308 H   0  0  0  0  0  0
  -29.6812  -13.4731   17.7854 H   0  0  0  0  0  0
  -27.8210  -11.3041   18.8119 H   0  0  0  0  0  0
  -27.3787  -12.6380   17.7789 H   0  0  0  0  0  0
  -27.7042  -14.2476   19.5593 H   0  0  0  0  0  0
  -28.6535  -11.9637   21.3664 H   0  0  0  0  0  0
  -28.4723  -13.6200   21.8578 H   0  0  0  0  0  0
  -25.2758   -9.5695   22.4757 H   0  0  0  0  0  0
  -23.9997   -7.4647   22.7492 H   0  0  0  0  0  0
  -21.0814   -8.8775   19.8966 H   0  0  0  0  0  0
  -22.3690  -10.9664   19.6177 H   0  0  0  0  0  0
  -21.1997   -7.6128   23.9702 H   0  0  0  0  0  0
  -21.1507   -6.0510   25.9069 H   0  0  0  0  0  0
  -22.0596   -2.7599   23.2848 H   0  0  0  0  0  0
  -22.4071  -11.9925   22.4762 H   0  0  0  0  0  0
  -21.1115  -13.1351   22.2578 H   0  0  0  0  0  0
  -24.6760  -15.8446   20.5662 H   0  0  0  0  0  0
  -26.2811  -15.6331   20.0895 H   0  0  0  0  0  0
  -26.7093  -32.5545   23.1179 H   0  0  0  0  0  0
  -25.0069  -33.9799   25.0514 H   0  0  0  0  0  0
  -22.6866  -31.3074   21.4157 H   0  0  0  0  0  0
  -23.3742  -35.9650   23.3308 H   0  0  0  0  0  0
  -24.3588  -36.8913   22.2049 H   0  0  0  0  0  0
  -23.7229  -37.6522   23.6638 H   0  0  0  0  0  0
  -26.0329  -31.6044   20.5911 H   0  0  0  0  0  0
  -26.8155  -30.8958   21.9767 H   0  0  0  0  0  0
  -28.1012  -29.1294   21.1397 H   0  0  0  0  0  0
  -26.0564  -25.9884   18.9946 H   0  0  0  0  0  0
  -23.9744  -27.2943   19.0383 H   0  0  0  0  0  0
  -23.7148  -30.5989   19.4055 H   0  0  0  0  0  0
  -22.7314  -29.2440   19.8752 H   0  0  0  0  0  0
  -25.1270  -36.1995   25.0833 H   0  0  0  0  0  0
  -20.9942  -28.3201   24.1452 H   0  0  0  0  0  0
  -20.5654  -26.2248   23.3588 H   0  0  0  0  0  0
  -21.6634  -26.7431   22.1217 H   0  0  0  0  0  0
  -19.6898  -25.6309   21.1214 H   0  0  0  0  0  0
  -19.6681  -27.3217   20.6747 H   0  0  0  0  0  0
  -17.4188  -26.6665   21.4023 H   0  0  0  0  0  0
  -18.0317  -26.0065   22.9011 H   0  0  0  0  0  0
  -19.7922  -30.7257   24.2286 H   0  0  0  0  0  0
  -17.4999  -31.6261   24.5176 H   0  0  0  0  0  0
  -15.5339  -30.2983   23.7646 H   0  0  0  0  0  0
  -15.8655  -28.0830   22.7029 H   0  0  0  0  0  0
  -24.5913  -30.7033   25.7843 H   0  0  0  0  0  0
  -24.8916  -32.2851   26.4943 H   0  0  0  0  0  0
  -25.8100  -30.8880   27.0247 H   0  0  0  0  0  0
  -26.2815  -29.6815   24.1133 H   0  0  0  0  0  0
  -27.4065  -29.7263   25.4520 H   0  0  0  0  0  0
  -27.8639  -30.4373   23.9208 H   0  0  0  0  0  0
  -27.2726  -33.3592   26.2079 H   0  0  0  0  0  0
  -28.3854  -32.6831   25.0274 H   0  0  0  0  0  0
  -28.0746  -31.8383   26.5359 H   0  0  0  0  0  0
  -28.2610  -38.0097   24.7509 H   0  0  0  0  0  0
  -28.1059  -36.2633   24.6291 H   0  0  0  0  0  0
  -27.2307  -37.1470   25.8873 H   0  0  0  0  0  0
  -20.9272  -29.8760   21.6994 H   0  0  0  0  0  0
  -26.0181  -38.2877   24.1422 H   0  0  0  0  0  0
  -29.7799  -18.7707   17.2055 H   0  0  0  0  0  0
  -28.4058  -22.8112   14.1492 H   0  0  0  0  0  0
  -29.8347  -22.2341   15.0054 H   0  0  0  0  0  0
  -28.8702  -23.5470   15.6744 H   0  0  0  0  0  0
  -27.5088  -20.4432   14.0881 H   0  0  0  0  0  0
  -27.1528  -19.5654   15.5573 H   0  0  0  0  0  0
  -28.8247  -19.7644   15.0368 H   0  0  0  0  0  0
  -25.7167  -21.3935   17.7736 H   0  0  0  0  0  0
  -26.5352  -22.2549   19.0621 H   0  0  0  0  0  0
  -25.7636  -20.7027   19.3779 H   0  0  0  0  0  0
  -30.0645  -20.4648   20.9012 H   0  0  0  0  0  0
  -30.2461  -21.2436   19.3603 H   0  0  0  0  0  0
  -30.4922  -25.3815   20.1897 H   0  0  0  0  0  0
  -29.5960  -24.4438   19.0380 H   0  0  0  0  0  0
  -28.6757  -22.3666   17.7692 H   0  0  0  0  0  0
  -29.5192  -20.9558   17.2295 H   0  0  0  0  0  0
  -28.2837  -25.4403   21.6133 H   0  0  0  0  0  0
  -27.5065  -24.8523   20.1537 H   0  0  0  0  0  0
  -27.7048  -19.8630   20.3382 H   0  0  0  0  0  0
  -30.9847  -23.0531   20.5899 H   0  0  0  0  0  0
  -26.9526  -22.0051   15.9679 H   0  0  0  0  0  0
  -27.3299  -19.6380   17.7664 H   0  0  0  0  0  0
  -29.1260  -15.3120   21.3935 H   0  0  0  0  0  0
  1 25  1  0  0  0
  1 30  2  0  0  0
  1 87  1  0  0  0
  2  3  1  0  0  0
  2 25  1  0  0  0
  2 91  1  0  0  0
  2 92  1  0  0  0
  3  4  1  0  0  0
  3 93  1  0  0  0
  3 94  1  0  0  0
  4  5  1  0  0  0
  4 95  1  0  0  0
  4 96  1  0  0  0
  5  6  1  0  0  0
  5 26  1  0  0  0
  5 97  1  0  0  0
  6 25  1  0  0  0
  6 98  1  0  0  0
  6 99  1  0  0  0
  7  8  2  0  0  0
  7 26  1  0  0  0
  7 29  1  0  0  0
  8  9  1  0  0  0
  8 22  1  0  0  0
  9 10  1  0  0  0
  9 27  2  0  0  0
 10 11  2  0  0  0
 10 15  1  0  0  0
 11 12  1  0  0  0
 11100  1  0  0  0
 12 13  2  0  0  0
 12101  1  0  0  0
 13 14  1  0  0  0
 13 31  1  0  0  0
 14 15  2  0  0  0
 14102  1  0  0  0
 15103  1  0  0  0
 16 17  2  0  0  0
 16 21  1  0  0  0
 16 31  1  0  0  0
 17 18  1  0  0  0
 17104  1  0  0  0
 18 19  2  0  0  0
 18105  1  0  0  0
 19 20  1  0  0  0
 19 24  1  0  0  0
 20 21  2  0  0  0
 20106  1  0  0  0
 21 23  1  0  0  0
 22 28  1  0  0  0
 22 32  2  0  0  0
 26 27  1  0  0  0
 28107  1  0  0  0
 28108  1  0  0  0
 29109  1  0  0  0
 29110  1  0  0  0
 33 34  1  0  0  0
 33 66  1  0  0  0
 33 70  2  0  0  0
 34 36  1  0  0  0
 34 59  1  0  0  0
 34111  1  0  0  0
 35 44  2  0  0  0
 35 45  1  0  0  0
 35 68  1  0  0  0
 36 56  1  0  0  0
 36112  1  0  0  0
 37 39  1  0  0  0
 37 47  1  0  0  0
 37 66  1  0  0  0
 37113  1  0  0  0
 38 43  2  0  0  0
 38 46  1  0  0  0
 38 47  1  0  0  0
 39 64  1  0  0  0
 39 67  2  0  0  0
 40 52  1  0  0  0
 40 53  2  0  0  0
 40 58  1  0  0  0
 41114  1  0  0  0
 41115  1  0  0  0
 41116  1  0  0  0
 41 48  1  0  0  0
 42 43  1  0  0  0
 42 66  1  0  0  0
 42117  1  0  0  0
 42118  1  0  0  0
 43 44  1  0  0  0
 44119  1  0  0  0
 45 46  2  0  0  0
 45120  1  0  0  0
 46121  1  0  0  0
 47122  1  0  0  0
 47123  1  0  0  0
 48 56  1  0  0  0
 48 65  1  0  0  0
 48124  1  0  0  0
 49 50  1  0  0  0
 49 53  1  0  0  0
 49 64  1  0  0  0
 49125  1  0  0  0
 50 51  1  0  0  0
 50126  1  0  0  0
 50127  1  0  0  0
 51 52  1  0  0  0
 51128  1  0  0  0
 51129  1  0  0  0
 52130  1  0  0  0
 52131  1  0  0  0
 53 54  1  0  0  0
 54 55  2  0  0  0
 54132  1  0  0  0
 55 57  1  0  0  0
 55133  1  0  0  0
 56 69  2  0  0  0
 57 58  2  0  0  0
 57134  1  0  0  0
 58135  1  0  0  0
 59 60  1  0  0  0
 59 61  1  0  0  0
 59 62  1  0  0  0
 60136  1  0  0  0
 60137  1  0  0  0
 60138  1  0  0  0
 61139  1  0  0  0
 61140  1  0  0  0
 61141  1  0  0  0
 62142  1  0  0  0
 62143  1  0  0  0
 62144  1  0  0  0
 63 65  1  0  0  0
 63145  1  0  0  0
 63146  1  0  0  0
 63147  1  0  0  0
 64148  1  0  0  0
 65149  1  0  0  0
 68 81  1  0  0  0
 71 72  2  0  0  0
 71 90  1  0  0  0
 71150  1  0  0  0
 72 82  1  0  0  0
 72 86  1  0  0  0
 73 86  2  0  0  0
 73 87  1  0  0  0
 73 90  1  0  0  0
 74 78  1  0  0  0
 74 83  1  0  0  0
 74 88  2  0  0  0
 75151  1  0  0  0
 75152  1  0  0  0
 75153  1  0  0  0
 75 84  1  0  0  0
 76 84  1  0  0  0
 76154  1  0  0  0
 76155  1  0  0  0
 76156  1  0  0  0
 77157  1  0  0  0
 77158  1  0  0  0
 77159  1  0  0  0
 77 85  1  0  0  0
 78160  1  0  0  0
 78161  1  0  0  0
 78 82  1  0  0  0
 79 81  1  0  0  0
 79 83  1  0  0  0
 79162  1  0  0  0
 79163  1  0  0  0
 80 84  1  0  0  0
 80 85  1  0  0  0
 80164  1  0  0  0
 80165  1  0  0  0
 81166  1  0  0  0
 81167  1  0  0  0
 82 85  1  0  0  0
 82168  1  0  0  0
 83 89  1  0  0  0
 83169  1  0  0  0
 84170  1  0  0  0
 85171  1  0  0  0
 87172  1  0  0  0
M  ISO  4   1 100  68 101  81 101  87 100
M  END
> <chiral flag>
0

> <version>
0

> <s_m_source_file>
/data/baiqing/PycharmProjects/Reinvent-master-3.2/result/LINK_invent/BTK/process_docking_weight1_custom_product_contain_oxygen_bond_distance_aromatic_linkinvent_7_9_3/rearranged_h_0190.sdf

> <i_m_source_file_index>
88

> <r_mmod_Potential_Energy-OPLS-2005>
-147.535400390625

> <r_mmod_Stretch_Energy-OPLS-2005>
34.081428527832

> <r_mmod_Bend_Energy-OPLS-2005>
104.599914550781

> <r_mmod_Torsional_Energy-OPLS-2005>
255.0927734375

> <r_mmod_Improper_Torsional_Energy-OPLS-2005>
8.06969451904297

> <r_mmod_Van_der_Waal_Energy-OPLS-2005>
125.818626403809

> <r_mmod_Electrostatic_Energy-OPLS-2005>
-472.877044677734

> <r_mmod_Solvation_Energy-OPLS-2005>
-215.207260131836

> <b_mmod_Minimization_Converged-OPLS-2005>
0

> <r_mmod_RMS_Derivative-OPLS-2005>
2.39015793800354

$$$$
88
                    3D
 Structure written by MMmdl.
154162  0  0  1  0            999 V2000
  -30.6442  -14.6876   20.4847 C   0  0  0  0  0  0
  -30.4049  -12.4132   19.4846 C   0  0  0  0  0  0
  -29.5013  -12.5164   18.2387 C   0  0  0  0  0  0
  -28.0251  -12.3550   18.6446 C   0  0  0  0  0  0
  -27.6380  -13.2385   19.8606 C   0  0  2  0  0  0
  -28.6755  -13.1545   21.0008 C   0  0  0  0  0  0
  -25.2423  -13.8203   20.5692 C   0  0  0  0  0  0
  -24.1736  -13.0443   20.9186 C   0  0  0  0  0  0
  -24.6336  -11.6906   20.8705 C   0  0  0  0  0  0
  -23.9029  -10.4271   21.0367 C   0  0  0  0  0  0
  -24.3612   -9.4214   21.9157 C   0  0  0  0  0  0
  -23.6305   -8.2251   22.0756 C   0  0  0  0  0  0
  -22.4279   -8.0269   21.3566 C   0  0  0  0  0  0
  -21.9894   -9.0232   20.4665 C   0  0  0  0  0  0
  -22.7197  -10.2113   20.3049 C   0  0  0  0  0  0
  -21.6852   -6.0719   22.5282 C   0  0  0  0  0  0
  -21.4018   -6.5621   23.8220 C   0  0  0  0  0  0
  -21.3686   -5.6779   24.9185 C   0  0  0  0  0  0
  -21.6034   -4.3038   24.7231 C   0  0  0  0  0  0
  -21.8814   -3.8137   23.4351 C   0  0  0  0  0  0
  -21.9190   -4.6948   22.3408 C   0  0  0  0  0  0
  -22.7747  -13.5202   21.1866 C   0  0  0  0  0  0
  -22.1650   -4.2122   21.0991 F   0  0  0  0  0  0
  -21.5635   -3.4532   25.7759 F   0  0  0  0  0  0
  -29.9871  -13.4785   20.4246 N   0  0  0  0  0  0
  -26.2883  -12.9456   20.3309 N   0  0  0  0  0  0
  -25.9287  -11.6577   20.5736 N   0  0  0  0  0  0
  -22.0450  -12.8217   22.0468 N   0  0  0  0  0  0
  -25.4049  -15.1958   20.4077 N   0  0  0  0  0  0
  -31.8190  -14.7629   20.1163 O   0  0  0  0  0  0
  -21.6653   -6.8869   21.4250 O   0  0  0  0  0  0
  -22.3424  -14.5528   20.6718 O   0  0  0  0  0  0
  -24.6290  -31.8581   23.2037 C   0  0  0  0  0  0
  -25.9085  -32.4775   23.8399 C   0  0  1  0  0  0
  -27.2386  -27.3029   20.1379 C   0  0  0  0  0  0
  -25.5892  -33.8575   24.2337 N   0  0  0  0  0  0
  -23.4254  -30.4755   21.5462 C   0  0  2  0  0  0
  -24.8758  -28.9132   20.1257 C   0  0  0  0  0  0
  -22.7484  -29.4585   22.4984 C   0  0  0  0  0  0
  -18.0254  -28.1383   22.8487 C   0  0  0  0  0  0
  -24.1462  -36.7256   23.2639 C   0  0  0  0  0  0
  -25.9644  -30.7883   21.3646 C   0  0  0  0  0  0
  -26.0442  -29.4088   20.7169 C   0  0  0  0  0  0
  -27.2319  -28.6161   20.7060 C   0  0  0  0  0  0
  -26.0476  -26.8476   19.5388 C   0  0  0  0  0  0
  -24.8784  -27.6397   19.5289 C   0  0  0  0  0  0
  -23.6445  -29.7987   20.1671 C   0  0  0  0  0  0
  -25.4085  -36.3098   24.0377 C   0  0  1  0  0  0
  -20.5856  -28.3673   23.1301 C   0  0  2  0  0  0
  -20.6718  -26.9396   22.5413 C   0  0  0  0  0  0
  -19.5692  -26.6410   21.5191 C   0  0  0  0  0  0
  -18.1881  -26.7926   22.1624 C   0  0  0  0  0  0
  -19.1514  -28.8852   23.2887 C   0  0  0  0  0  0
  -18.9435  -30.1448   23.8906 C   0  0  0  0  0  0
  -17.6433  -30.6575   24.0570 C   0  0  0  0  0  0
  -25.9040  -34.9455   23.5169 C   0  0  0  0  0  0
  -16.5325  -29.9079   23.6318 C   0  0  0  0  0  0
  -16.7246  -28.6499   23.0352 C   0  0  0  0  0  0
  -26.4473  -31.6563   25.0729 C   0  0  0  0  0  0
  -25.3757  -31.3621   26.1492 C   0  0  0  0  0  0
  -27.0271  -30.3015   24.6079 C   0  0  0  0  0  0
  -27.6107  -32.4233   25.7432 C   0  0  0  0  0  0
  -27.5580  -37.1767   24.8490 C   0  0  0  0  0  0
  -21.4200  -29.3031   22.3728 N   0  0  0  0  0  0
  -26.4276  -37.3799   23.9452 N   0  0  0  0  0  0
  -24.6921  -31.0590   22.0965 N   0  0  0  0  0  0
  -23.4207  -28.8127   23.3074 O   0  0  0  0  0  0
  -28.3724  -26.4771   20.0974 O   0  0  0  0  0  0
  -26.5616  -34.8930   22.4736 O   0  0  0  0  0  0
  -23.5429  -32.1352   23.7356 O   0  0  0  0  0  0
  -28.3536  -20.1932   21.5737 C   0  0  0  0  0  0
  -28.8671  -21.2670   20.7898 C   0  0  0  0  0  0
  -29.8075  -20.8096   19.8453 C   0  0  0  0  0  0
  -29.7156  -18.5850   20.5818 C   0  0  0  0  0  0
  -28.5212  -23.8230   20.3021 C   0  0  0  0  0  0
  -27.7452  -25.3465   22.2928 C   0  0  0  0  0  0
  -30.5379  -17.2361   20.7286 C   0  0  0  0  0  0
  -28.5268  -25.2789   20.9722 C   0  0  2  0  0  0
  -28.7682  -18.8896   21.4749 N   0  0  0  0  0  0
  -30.2127  -19.5176   19.7465 N   0  0  0  0  0  0
  -30.4899  -21.7073   19.0403 N   0  0  0  0  0  0
  -28.5638  -22.6899   21.0878 N   0  0  0  0  0  0
  -29.9423  -15.8397   20.7612 N   0  0  0  0  0  0
  -28.4886  -23.7236   19.0738 O   0  0  0  0  0  0
  -31.4581  -12.4841   19.2082 H   0  0  0  0  0  0
  -30.2897  -11.4353   19.9543 H   0  0  0  0  0  0
  -29.7732  -11.7533   17.5102 H   0  0  0  0  0  0
  -29.6534  -13.4802   17.7483 H   0  0  0  0  0  0
  -27.8630  -11.3039   18.8864 H   0  0  0  0  0  0
  -27.3753  -12.5780   17.7996 H   0  0  0  0  0  0
  -27.6390  -14.2696   19.5039 H   0  0  0  0  0  0
  -28.6869  -12.1542   21.4383 H   0  0  0  0  0  0
  -28.4149  -13.8360   21.8181 H   0  0  0  0  0  0
  -25.2767   -9.5678   22.4708 H   0  0  0  0  0  0
  -24.0001   -7.4639   22.7474 H   0  0  0  0  0  0
  -21.0823   -8.8749   19.8980 H   0  0  0  0  0  0
  -22.3651  -10.9654   19.6161 H   0  0  0  0  0  0
  -21.2018   -7.6130   23.9721 H   0  0  0  0  0  0
  -21.1516   -6.0511   25.9089 H   0  0  0  0  0  0
  -22.0571   -2.7590   23.2868 H   0  0  0  0  0  0
  -22.4124  -11.9896   22.4852 H   0  0  0  0  0  0
  -21.1097  -13.1246   22.2772 H   0  0  0  0  0  0
  -24.6226  -15.8355   20.4883 H   0  0  0  0  0  0
  -26.2445  -15.6438   20.0661 H   0  0  0  0  0  0
  -26.7150  -32.5461   23.1166 H   0  0  0  0  0  0
  -25.0034  -33.9715   25.0480 H   0  0  0  0  0  0
  -22.7184  -31.2934   21.3988 H   0  0  0  0  0  0
  -23.3763  -35.9545   23.3309 H   0  0  0  0  0  0
  -24.3570  -36.8840   22.2051 H   0  0  0  0  0  0
  -23.7156  -37.6451   23.6613 H   0  0  0  0  0  0
  -26.0826  -31.5425   20.5863 H   0  0  0  0  0  0
  -26.8491  -30.8586   21.9855 H   0  0  0  0  0  0
  -28.1404  -29.0042   21.1439 H   0  0  0  0  0  0
  -26.0215  -25.8690   19.0784 H   0  0  0  0  0  0
  -23.9777  -27.2554   19.0718 H   0  0  0  0  0  0
  -23.7759  -30.5693   19.4107 H   0  0  0  0  0  0
  -22.7626  -29.2365   19.8620 H   0  0  0  0  0  0
  -25.1240  -36.1980   25.0874 H   0  0  0  0  0  0
  -20.9946  -28.3211   24.1423 H   0  0  0  0  0  0
  -20.5546  -26.2280   23.3611 H   0  0  0  0  0  0
  -21.6590  -26.7364   22.1239 H   0  0  0  0  0  0
  -19.6845  -25.6346   21.1150 H   0  0  0  0  0  0
  -19.6612  -27.3275   20.6760 H   0  0  0  0  0  0
  -17.4144  -26.6680   21.4035 H   0  0  0  0  0  0
  -18.0292  -26.0060   22.9016 H   0  0  0  0  0  0
  -19.7919  -30.7254   24.2300 H   0  0  0  0  0  0
  -17.4987  -31.6246   24.5181 H   0  0  0  0  0  0
  -15.5332  -30.2985   23.7643 H   0  0  0  0  0  0
  -15.8643  -28.0821   22.7078 H   0  0  0  0  0  0
  -24.6047  -30.6802   25.7875 H   0  0  0  0  0  0
  -24.8777  -32.2708   26.4889 H   0  0  0  0  0  0
  -25.8177  -30.8913   27.0291 H   0  0  0  0  0  0
  -26.2784  -29.6784   24.1176 H   0  0  0  0  0  0
  -27.4106  -29.7231   25.4491 H   0  0  0  0  0  0
  -27.8596  -30.4335   23.9165 H   0  0  0  0  0  0
  -27.2849  -33.3592   26.1974 H   0  0  0  0  0  0
  -28.3906  -32.6675   25.0203 H   0  0  0  0  0  0
  -28.0770  -31.8347   26.5346 H   0  0  0  0  0  0
  -28.2620  -38.0048   24.7596 H   0  0  0  0  0  0
  -28.1061  -36.2610   24.6243 H   0  0  0  0  0  0
  -27.2322  -37.1338   25.8898 H   0  0  0  0  0  0
  -20.9422  -29.8788   21.6943 H   0  0  0  0  0  0
  -26.0173  -38.2868   24.1513 H   0  0  0  0  0  0
  -27.6315  -20.3802   22.3541 H   0  0  0  0  0  0
  -27.4556  -26.3631   22.5493 H   0  0  0  0  0  0
  -28.3727  -24.9934   23.1136 H   0  0  0  0  0  0
  -26.8415  -24.7403   22.2573 H   0  0  0  0  0  0
  -31.2994  -17.2519   19.9471 H   0  0  0  0  0  0
  -31.1005  -17.3429   21.6545 H   0  0  0  0  0  0
  -29.5743  -25.3923   21.2630 H   0  0  0  0  0  0
  -30.9963  -21.3554   18.2389 H   0  0  0  0  0  0
  -29.9978  -22.5839   18.8783 H   0  0  0  0  0  0
  -28.3850  -22.8804   22.0674 H   0  0  0  0  0  0
  -28.9817  -15.7661   21.0595 H   0  0  0  0  0  0
  1 25  1  0  0  0
  1 30  2  0  0  0
  1 83  1  0  0  0
  2  3  1  0  0  0
  2 25  1  0  0  0
  2 85  1  0  0  0
  2 86  1  0  0  0
  3  4  1  0  0  0
  3 87  1  0  0  0
  3 88  1  0  0  0
  4  5  1  0  0  0
  4 89  1  0  0  0
  4 90  1  0  0  0
  5  6  1  0  0  0
  5 26  1  0  0  0
  5 91  1  0  0  0
  6 25  1  0  0  0
  6 92  1  0  0  0
  6 93  1  0  0  0
  7  8  2  0  0  0
  7 26  1  0  0  0
  7 29  1  0  0  0
  8  9  1  0  0  0
  8 22  1  0  0  0
  9 10  1  0  0  0
  9 27  2  0  0  0
 10 11  2  0  0  0
 10 15  1  0  0  0
 11 12  1  0  0  0
 11 94  1  0  0  0
 12 13  2  0  0  0
 12 95  1  0  0  0
 13 14  1  0  0  0
 13 31  1  0  0  0
 14 15  2  0  0  0
 14 96  1  0  0  0
 15 97  1  0  0  0
 16 17  2  0  0  0
 16 21  1  0  0  0
 16 31  1  0  0  0
 17 18  1  0  0  0
 17 98  1  0  0  0
 18 19  2  0  0  0
 18 99  1  0  0  0
 19 20  1  0  0  0
 19 24  1  0  0  0
 20 21  2  0  0  0
 20100  1  0  0  0
 21 23  1  0  0  0
 22 28  1  0  0  0
 22 32  2  0  0  0
 26 27  1  0  0  0
 28101  1  0  0  0
 28102  1  0  0  0
 29103  1  0  0  0
 29104  1  0  0  0
 33 34  1  0  0  0
 33 66  1  0  0  0
 33 70  2  0  0  0
 34 36  1  0  0  0
 34 59  1  0  0  0
 34105  1  0  0  0
 35 44  2  0  0  0
 35 45  1  0  0  0
 35 68  1  0  0  0
 36 56  1  0  0  0
 36106  1  0  0  0
 37 39  1  0  0  0
 37 47  1  0  0  0
 37 66  1  0  0  0
 37107  1  0  0  0
 38 43  2  0  0  0
 38 46  1  0  0  0
 38 47  1  0  0  0
 39 64  1  0  0  0
 39 67  2  0  0  0
 40 52  1  0  0  0
 40 53  2  0  0  0
 40 58  1  0  0  0
 41108  1  0  0  0
 41109  1  0  0  0
 41110  1  0  0  0
 41 48  1  0  0  0
 42 43  1  0  0  0
 42 66  1  0  0  0
 42111  1  0  0  0
 42112  1  0  0  0
 43 44  1  0  0  0
 44113  1  0  0  0
 45 46  2  0  0  0
 45114  1  0  0  0
 46115  1  0  0  0
 47116  1  0  0  0
 47117  1  0  0  0
 48 56  1  0  0  0
 48 65  1  0  0  0
 48118  1  0  0  0
 49 50  1  0  0  0
 49 53  1  0  0  0
 49 64  1  0  0  0
 49119  1  0  0  0
 50 51  1  0  0  0
 50120  1  0  0  0
 50121  1  0  0  0
 51 52  1  0  0  0
 51122  1  0  0  0
 51123  1  0  0  0
 52124  1  0  0  0
 52125  1  0  0  0
 53 54  1  0  0  0
 54 55  2  0  0  0
 54126  1  0  0  0
 55 57  1  0  0  0
 55127  1  0  0  0
 56 69  2  0  0  0
 57 58  2  0  0  0
 57128  1  0  0  0
 58129  1  0  0  0
 59 60  1  0  0  0
 59 61  1  0  0  0
 59 62  1  0  0  0
 60130  1  0  0  0
 60131  1  0  0  0
 60132  1  0  0  0
 61133  1  0  0  0
 61134  1  0  0  0
 61135  1  0  0  0
 62136  1  0  0  0
 62137  1  0  0  0
 62138  1  0  0  0
 63 65  1  0  0  0
 63139  1  0  0  0
 63140  1  0  0  0
 63141  1  0  0  0
 64142  1  0  0  0
 65143  1  0  0  0
 68 78  1  0  0  0
 71 72  2  0  0  0
 71 79  1  0  0  0
 71144  1  0  0  0
 72 73  1  0  0  0
 72 82  1  0  0  0
 73 80  2  0  0  0
 73 81  1  0  0  0
 74 77  1  0  0  0
 74 79  2  0  0  0
 74 80  1  0  0  0
 75 78  1  0  0  0
 75 82  1  0  0  0
 75 84  2  0  0  0
 76145  1  0  0  0
 76146  1  0  0  0
 76147  1  0  0  0
 76 78  1  0  0  0
 77 83  1  0  0  0
 77148  1  0  0  0
 77149  1  0  0  0
 78150  1  0  0  0
 81151  1  0  0  0
 81152  1  0  0  0
 82153  1  0  0  0
 83154  1  0  0  0
M  ISO  4   1 100  68 101  78 101  83 100
M  END
> <chiral flag>
0

> <version>
0

> <s_m_source_file>
/data/baiqing/PycharmProjects/Reinvent-master-3.2/result/LINK_invent/BTK/process_docking_weight1_custom_product_contain_oxygen_bond_distance_aromatic_linkinvent_7_9_3/rearranged_h_0190.sdf

> <i_m_source_file_index>
89

> <r_mmod_Potential_Energy-OPLS-2005>
-614.959594726562

> <r_mmod_Stretch_Energy-OPLS-2005>
95.4326553344727

> <r_mmod_Bend_Energy-OPLS-2005>
182.597564697266

> <r_mmod_Torsional_Energy-OPLS-2005>
271.204010009766

> <r_mmod_Improper_Torsional_Energy-OPLS-2005>
11.561107635498

> <r_mmod_Van_der_Waal_Energy-OPLS-2005>
151.693771362305

> <r_mmod_Electrostatic_Energy-OPLS-2005>
-1129.65478515625

> <r_mmod_Solvation_Energy-OPLS-2005>
-256.041046142578

> <b_mmod_Minimization_Converged-OPLS-2005>
0

> <r_mmod_RMS_Derivative-OPLS-2005>
5.98386716842651

$$$$
89
                    3D
 Structure written by MMmdl.
150158  0  0  1  0            999 V2000
  -30.6164  -14.7594   20.4496 C   0  0  0  0  0  0
  -30.4275  -12.4615   19.4831 C   0  0  0  0  0  0
  -29.5096  -12.5092   18.2413 C   0  0  0  0  0  0
  -28.0359  -12.3328   18.6528 C   0  0  0  0  0  0
  -27.6397  -13.2360   19.8517 C   0  0  2  0  0  0
  -28.6831  -13.1834   20.9900 C   0  0  0  0  0  0
  -25.2497  -13.8203   20.5716 C   0  0  0  0  0  0
  -24.1795  -13.0440   20.9219 C   0  0  0  0  0  0
  -24.6391  -11.6918   20.8751 C   0  0  0  0  0  0
  -23.9076  -10.4289   21.0399 C   0  0  0  0  0  0
  -24.3628   -9.4206   21.9180 C   0  0  0  0  0  0
  -23.6301   -8.2242   22.0752 C   0  0  0  0  0  0
  -22.4281   -8.0280   21.3543 C   0  0  0  0  0  0
  -21.9919   -9.0251   20.4645 C   0  0  0  0  0  0
  -22.7245  -10.2129   20.3051 C   0  0  0  0  0  0
  -21.6857   -6.0738   22.5281 C   0  0  0  0  0  0
  -21.4012   -6.5641   23.8215 C   0  0  0  0  0  0
  -21.3661   -5.6795   24.9180 C   0  0  0  0  0  0
  -21.6042   -4.3058   24.7230 C   0  0  0  0  0  0
  -21.8819   -3.8150   23.4350 C   0  0  0  0  0  0
  -21.9192   -4.6965   22.3405 C   0  0  0  0  0  0
  -22.7816  -13.5215   21.1881 C   0  0  0  0  0  0
  -22.1662   -4.2152   21.0983 F   0  0  0  0  0  0
  -21.5631   -3.4540   25.7742 F   0  0  0  0  0  0
  -29.9844  -13.5333   20.4090 N   0  0  0  0  0  0
  -26.2926  -12.9422   20.3288 N   0  0  0  0  0  0
  -25.9323  -11.6556   20.5758 N   0  0  0  0  0  0
  -22.0468  -12.8191   22.0430 N   0  0  0  0  0  0
  -25.4160  -15.1935   20.4122 N   0  0  0  0  0  0
  -31.7987  -14.8387   20.1060 O   0  0  0  0  0  0
  -21.6643   -6.8875   21.4242 O   0  0  0  0  0  0
  -22.3494  -14.5522   20.6732 O   0  0  0  0  0  0
  -24.6327  -31.8531   23.1979 C   0  0  0  0  0  0
  -25.9137  -32.4749   23.8326 C   0  0  1  0  0  0
  -27.2172  -27.2393   20.1184 C   0  0  0  0  0  0
  -25.5922  -33.8556   24.2244 N   0  0  0  0  0  0
  -23.4317  -30.4762   21.5415 C   0  0  2  0  0  0
  -24.8795  -28.9274   20.1043 C   0  0  0  0  0  0
  -22.7522  -29.4576   22.4898 C   0  0  0  0  0  0
  -18.0291  -28.1393   22.8490 C   0  0  0  0  0  0
  -24.1484  -36.7270   23.2641 C   0  0  0  0  0  0
  -25.9807  -30.7559   21.3865 C   0  0  0  0  0  0
  -26.0504  -29.3783   20.7255 C   0  0  0  0  0  0
  -27.2179  -28.5446   20.7267 C   0  0  0  0  0  0
  -26.0276  -26.8809   19.4409 C   0  0  0  0  0  0
  -24.8764  -27.6899   19.4483 C   0  0  0  0  0  0
  -23.6517  -29.8156   20.1558 C   0  0  0  0  0  0
  -25.4113  -36.3067   24.0328 C   0  0  1  0  0  0
  -20.5898  -28.3701   23.1269 C   0  0  2  0  0  0
  -20.6775  -26.9415   22.5410 C   0  0  0  0  0  0
  -19.5747  -26.6387   21.5218 C   0  0  0  0  0  0
  -18.1929  -26.7931   22.1633 C   0  0  0  0  0  0
  -19.1547  -28.8866   23.2876 C   0  0  0  0  0  0
  -18.9467  -30.1464   23.8900 C   0  0  0  0  0  0
  -17.6466  -30.6594   24.0567 C   0  0  0  0  0  0
  -25.9059  -34.9440   23.5091 C   0  0  0  0  0  0
  -16.5357  -29.9096   23.6327 C   0  0  0  0  0  0
  -16.7277  -28.6513   23.0350 C   0  0  0  0  0  0
  -26.4498  -31.6584   25.0726 C   0  0  0  0  0  0
  -25.3706  -31.3737   26.1436 C   0  0  0  0  0  0
  -27.0350  -30.2996   24.6232 C   0  0  0  0  0  0
  -27.6056  -32.4329   25.7484 C   0  0  0  0  0  0
  -27.5579  -37.1784   24.8466 C   0  0  0  0  0  0
  -21.4221  -29.3046   22.3660 N   0  0  0  0  0  0
  -26.4283  -37.3772   23.9421 N   0  0  0  0  0  0
  -24.7006  -31.0474   22.0973 N   0  0  0  0  0  0
  -23.4217  -28.8100   23.2990 O   0  0  0  0  0  0
  -28.3032  -26.3242   20.2138 O   0  0  0  0  0  0
  -26.5645  -34.8920   22.4670 O   0  0  0  0  0  0
  -23.5468  -32.1362   23.7254 O   0  0  0  0  0  0
  -29.6239  -18.6988   20.6425 C   0  0  0  0  0  0
  -29.1203  -20.9698   20.5457 C   0  0  0  0  0  0
  -28.6450  -24.8699   18.3083 C   0  0  0  0  0  0
  -30.2687  -17.3202   20.1500 C   0  0  0  0  0  0
  -28.9042  -23.6511   20.5867 C   0  0  0  0  0  0
  -28.1892  -24.8764   19.7772 C   0  0  1  0  0  0
  -29.5490  -19.8577   19.8828 N   0  0  0  0  0  0
  -29.1907  -18.8813   21.9099 N   0  0  0  0  0  0
  -28.9505  -22.2734   19.9325 N   0  0  0  0  0  0
  -29.8728  -15.9187   20.6313 N   0  0  0  0  0  0
  -28.7592  -20.5222   22.1887 S   0  0  0  0  0  0
  -31.4698  -12.5760   19.1813 H   0  0  0  0  0  0
  -30.3664  -11.4872   19.9710 H   0  0  0  0  0  0
  -29.7941  -11.7336   17.5292 H   0  0  0  0  0  0
  -29.6361  -13.4616   17.7238 H   0  0  0  0  0  0
  -27.8944  -11.2844   18.9183 H   0  0  0  0  0  0
  -27.3790  -12.5207   17.8024 H   0  0  0  0  0  0
  -27.6298  -14.2556   19.4660 H   0  0  0  0  0  0
  -28.7195  -12.1900   21.4393 H   0  0  0  0  0  0
  -28.4170  -13.8739   21.7919 H   0  0  0  0  0  0
  -25.2769   -9.5691   22.4758 H   0  0  0  0  0  0
  -24.0017   -7.4633   22.7467 H   0  0  0  0  0  0
  -21.0853   -8.8758   19.8950 H   0  0  0  0  0  0
  -22.3693  -10.9667   19.6165 H   0  0  0  0  0  0
  -21.1998   -7.6146   23.9723 H   0  0  0  0  0  0
  -21.1487   -6.0523   25.9083 H   0  0  0  0  0  0
  -22.0596   -2.7613   23.2850 H   0  0  0  0  0  0
  -22.4093  -11.9854   22.4809 H   0  0  0  0  0  0
  -21.1079  -13.1203   22.2635 H   0  0  0  0  0  0
  -24.6452  -15.8431   20.5256 H   0  0  0  0  0  0
  -26.2535  -15.6342   20.0549 H   0  0  0  0  0  0
  -26.7202  -32.5389   23.1062 H   0  0  0  0  0  0
  -25.0048  -33.9688   25.0375 H   0  0  0  0  0  0
  -22.7294  -31.2997   21.3967 H   0  0  0  0  0  0
  -23.3761  -35.9584   23.3288 H   0  0  0  0  0  0
  -24.3574  -36.8905   22.2058 H   0  0  0  0  0  0
  -23.7217  -37.6458   23.6673 H   0  0  0  0  0  0
  -26.1283  -31.5156   20.6178 H   0  0  0  0  0  0
  -26.8553  -30.8004   22.0235 H   0  0  0  0  0  0
  -28.1101  -28.8794   21.2369 H   0  0  0  0  0  0
  -25.9432  -25.9561   18.8934 H   0  0  0  0  0  0
  -23.9879  -27.3518   18.9326 H   0  0  0  0  0  0
  -23.7786  -30.5948   19.4030 H   0  0  0  0  0  0
  -22.7699  -29.2516   19.8479 H   0  0  0  0  0  0
  -25.1291  -36.1906   25.0818 H   0  0  0  0  0  0
  -20.9994  -28.3271   24.1388 H   0  0  0  0  0  0
  -20.5671  -26.2309   23.3615 H   0  0  0  0  0  0
  -21.6637  -26.7428   22.1202 H   0  0  0  0  0  0
  -19.6902  -25.6301   21.1245 H   0  0  0  0  0  0
  -19.6676  -27.3204   20.6753 H   0  0  0  0  0  0
  -17.4191  -26.6682   21.4041 H   0  0  0  0  0  0
  -18.0325  -26.0075   22.9034 H   0  0  0  0  0  0
  -19.7943  -30.7282   24.2267 H   0  0  0  0  0  0
  -17.5020  -31.6272   24.5171 H   0  0  0  0  0  0
  -15.5360  -30.3006   23.7644 H   0  0  0  0  0  0
  -15.8674  -28.0840   22.7060 H   0  0  0  0  0  0
  -24.5897  -30.7073   25.7753 H   0  0  0  0  0  0
  -24.8880  -32.2908   26.4829 H   0  0  0  0  0  0
  -25.8007  -30.8934   27.0234 H   0  0  0  0  0  0
  -26.2943  -29.6741   24.1242 H   0  0  0  0  0  0
  -27.4010  -29.7263   25.4760 H   0  0  0  0  0  0
  -27.8828  -30.4266   23.9495 H   0  0  0  0  0  0
  -27.2675  -33.3647   26.2028 H   0  0  0  0  0  0
  -28.3867  -32.6863   25.0301 H   0  0  0  0  0  0
  -28.0720  -31.8477   26.5417 H   0  0  0  0  0  0
  -28.2582  -38.0099   24.7546 H   0  0  0  0  0  0
  -28.1087  -36.2634   24.6243 H   0  0  0  0  0  0
  -27.2303  -37.1371   25.8870 H   0  0  0  0  0  0
  -20.9408  -29.8800   21.6893 H   0  0  0  0  0  0
  -26.0155  -38.2834   24.1458 H   0  0  0  0  0  0
  -28.4663  -23.9050   17.8346 H   0  0  0  0  0  0
  -29.7109  -25.0855   18.2282 H   0  0  0  0  0  0
  -28.1114  -25.6147   17.7185 H   0  0  0  0  0  0
  -31.3387  -17.4295   20.3286 H   0  0  0  0  0  0
  -30.1673  -17.3091   19.0644 H   0  0  0  0  0  0
  -28.4345  -23.5592   21.5675 H   0  0  0  0  0  0
  -29.9375  -23.9401   20.7855 H   0  0  0  0  0  0
  -27.1432  -24.5826   19.8090 H   0  0  0  0  0  0
  -29.1241  -22.2958   18.9326 H   0  0  0  0  0  0
  -28.9158  -15.8089   20.9289 H   0  0  0  0  0  0
  1 25  1  0  0  0
  1 30  2  0  0  0
  1 80  1  0  0  0
  2  3  1  0  0  0
  2 25  1  0  0  0
  2 82  1  0  0  0
  2 83  1  0  0  0
  3  4  1  0  0  0
  3 84  1  0  0  0
  3 85  1  0  0  0
  4  5  1  0  0  0
  4 86  1  0  0  0
  4 87  1  0  0  0
  5  6  1  0  0  0
  5 26  1  0  0  0
  5 88  1  0  0  0
  6 25  1  0  0  0
  6 89  1  0  0  0
  6 90  1  0  0  0
  7  8  2  0  0  0
  7 26  1  0  0  0
  7 29  1  0  0  0
  8  9  1  0  0  0
  8 22  1  0  0  0
  9 10  1  0  0  0
  9 27  2  0  0  0
 10 11  2  0  0  0
 10 15  1  0  0  0
 11 12  1  0  0  0
 11 91  1  0  0  0
 12 13  2  0  0  0
 12 92  1  0  0  0
 13 14  1  0  0  0
 13 31  1  0  0  0
 14 15  2  0  0  0
 14 93  1  0  0  0
 15 94  1  0  0  0
 16 17  2  0  0  0
 16 21  1  0  0  0
 16 31  1  0  0  0
 17 18  1  0  0  0
 17 95  1  0  0  0
 18 19  2  0  0  0
 18 96  1  0  0  0
 19 20  1  0  0  0
 19 24  1  0  0  0
 20 21  2  0  0  0
 20 97  1  0  0  0
 21 23  1  0  0  0
 22 28  1  0  0  0
 22 32  2  0  0  0
 26 27  1  0  0  0
 28 98  1  0  0  0
 28 99  1  0  0  0
 29100  1  0  0  0
 29101  1  0  0  0
 33 34  1  0  0  0
 33 66  1  0  0  0
 33 70  2  0  0  0
 34 36  1  0  0  0
 34 59  1  0  0  0
 34102  1  0  0  0
 35 44  2  0  0  0
 35 45  1  0  0  0
 35 68  1  0  0  0
 36 56  1  0  0  0
 36103  1  0  0  0
 37 39  1  0  0  0
 37 47  1  0  0  0
 37 66  1  0  0  0
 37104  1  0  0  0
 38 43  2  0  0  0
 38 46  1  0  0  0
 38 47  1  0  0  0
 39 64  1  0  0  0
 39 67  2  0  0  0
 40 52  1  0  0  0
 40 53  2  0  0  0
 40 58  1  0  0  0
 41105  1  0  0  0
 41106  1  0  0  0
 41107  1  0  0  0
 41 48  1  0  0  0
 42 43  1  0  0  0
 42 66  1  0  0  0
 42108  1  0  0  0
 42109  1  0  0  0
 43 44  1  0  0  0
 44110  1  0  0  0
 45 46  2  0  0  0
 45111  1  0  0  0
 46112  1  0  0  0
 47113  1  0  0  0
 47114  1  0  0  0
 48 56  1  0  0  0
 48 65  1  0  0  0
 48115  1  0  0  0
 49 50  1  0  0  0
 49 53  1  0  0  0
 49 64  1  0  0  0
 49116  1  0  0  0
 50 51  1  0  0  0
 50117  1  0  0  0
 50118  1  0  0  0
 51 52  1  0  0  0
 51119  1  0  0  0
 51120  1  0  0  0
 52121  1  0  0  0
 52122  1  0  0  0
 53 54  1  0  0  0
 54 55  2  0  0  0
 54123  1  0  0  0
 55 57  1  0  0  0
 55124  1  0  0  0
 56 69  2  0  0  0
 57 58  2  0  0  0
 57125  1  0  0  0
 58126  1  0  0  0
 59 60  1  0  0  0
 59 61  1  0  0  0
 59 62  1  0  0  0
 60127  1  0  0  0
 60128  1  0  0  0
 60129  1  0  0  0
 61130  1  0  0  0
 61131  1  0  0  0
 61132  1  0  0  0
 62133  1  0  0  0
 62134  1  0  0  0
 62135  1  0  0  0
 63 65  1  0  0  0
 63136  1  0  0  0
 63137  1  0  0  0
 63138  1  0  0  0
 64139  1  0  0  0
 65140  1  0  0  0
 68 76  1  0  0  0
 71 74  1  0  0  0
 71 77  1  0  0  0
 71 78  2  0  0  0
 72 77  2  0  0  0
 72 79  1  0  0  0
 72 81  1  0  0  0
 73141  1  0  0  0
 73142  1  0  0  0
 73143  1  0  0  0
 73 76  1  0  0  0
 74 80  1  0  0  0
 74144  1  0  0  0
 74145  1  0  0  0
 75 76  1  0  0  0
 75 79  1  0  0  0
 75146  1  0  0  0
 75147  1  0  0  0
 76148  1  0  0  0
 78 81  1  0  0  0
 79149  1  0  0  0
 80150  1  0  0  0
M  ISO  4   1 100  68 101  76 101  80 100
M  END
> <chiral flag>
0

> <version>
0

> <s_m_source_file>
/data/baiqing/PycharmProjects/Reinvent-master-3.2/result/LINK_invent/BTK/process_docking_weight1_custom_product_contain_oxygen_bond_distance_aromatic_linkinvent_7_9_3/rearranged_h_0190.sdf

> <i_m_source_file_index>
90

> <r_mmod_Potential_Energy-OPLS-2005>
12.087574005127

> <r_mmod_Stretch_Energy-OPLS-2005>
128.057373046875

> <r_mmod_Bend_Energy-OPLS-2005>
203.228652954102

> <r_mmod_Torsional_Energy-OPLS-2005>
203.752288818359

> <r_mmod_Improper_Torsional_Energy-OPLS-2005>
7.1760458946228

> <r_mmod_Van_der_Waal_Energy-OPLS-2005>
121.40803527832

> <r_mmod_Electrostatic_Energy-OPLS-2005>
-521.630676269531

> <r_mmod_Solvation_Energy-OPLS-2005>
-226.752990722656

> <b_mmod_Minimization_Converged-OPLS-2005>
0

> <r_mmod_RMS_Derivative-OPLS-2005>
1.2512195110321

$$$$
90
                    3D
 Structure written by MMmdl.
174182  0  0  1  0            999 V2000
  -29.8706  -15.4806   20.8363 C   0  0  0  0  0  0
  -30.3900  -13.0626   19.7013 C   0  0  0  0  0  0
  -29.5651  -12.7168   18.4130 C   0  0  0  0  0  0
  -28.1128  -12.3312   18.7490 C   0  0  0  0  0  0
  -27.5680  -13.2562   19.8590 C   0  0  2  0  0  0
  -28.4960  -13.3388   21.0730 C   0  0  0  0  0  0
  -25.2100  -13.8158   20.5623 C   0  0  0  0  0  0
  -24.1505  -13.0367   20.9219 C   0  0  0  0  0  0
  -24.6157  -11.6861   20.8717 C   0  0  0  0  0  0
  -23.8930  -10.4241   21.0412 C   0  0  0  0  0  0
  -24.3546   -9.4184   21.9181 C   0  0  0  0  0  0
  -23.6253   -8.2205   22.0748 C   0  0  0  0  0  0
  -22.4238   -8.0230   21.3536 C   0  0  0  0  0  0
  -21.9836   -9.0183   20.4640 C   0  0  0  0  0  0
  -22.7126  -10.2073   20.3048 C   0  0  0  0  0  0
  -21.6839   -6.0704   22.5285 C   0  0  0  0  0  0
  -21.4007   -6.5620   23.8217 C   0  0  0  0  0  0
  -21.3659   -5.6777   24.9181 C   0  0  0  0  0  0
  -21.6045   -4.3041   24.7234 C   0  0  0  0  0  0
  -21.8824   -3.8126   23.4359 C   0  0  0  0  0  0
  -21.9191   -4.6936   22.3412 C   0  0  0  0  0  0
  -22.7581  -13.5167   21.1948 C   0  0  0  0  0  0
  -22.1660   -4.2123   21.0988 F   0  0  0  0  0  0
  -21.5631   -3.4531   25.7751 F   0  0  0  0  0  0
  -29.6560  -14.0664   20.6073 N   0  0  0  0  0  0
  -26.2368  -12.9335   20.2964 N   0  0  0  0  0  0
  -25.9022  -11.6476   20.5538 N   0  0  0  0  0  0
  -22.0272  -12.8154   22.0524 N   0  0  0  0  0  0
  -25.3830  -15.1901   20.4148 N   0  0  0  0  0  0
  -31.0687  -15.6957   20.5099 O   0  0  0  0  0  0
  -21.6619   -6.8826   21.4238 O   0  0  0  0  0  0
  -22.3292  -14.5491   20.6811 O   0  0  0  0  0  0
  -24.8594  -31.9407   23.2485 C   0  0  0  0  0  0
  -26.0940  -32.5435   23.9072 C   0  0  1  0  0  0
  -25.9917  -27.3470   20.2579 C   0  0  0  0  0  0
  -25.7357  -33.9112   24.2925 N   0  0  0  0  0  0
  -23.9438  -30.1289   21.8651 C   0  0  2  0  0  0
  -25.1355  -29.6329   19.6924 C   0  0  0  0  0  0
  -23.8472  -28.5460   22.5986 C   0  0  0  0  0  0
  -18.1086  -27.8523   22.8021 C   0  0  0  0  0  0
  -24.1550  -36.7340   23.2529 C   0  0  0  0  0  0
  -26.2820  -30.7833   21.5811 C   0  0  0  0  0  0
  -26.1853  -29.6339   20.6082 C   0  0  0  0  0  0
  -26.7715  -28.3943   20.8352 C   0  0  0  0  0  0
  -25.9138  -27.4512   18.9052 C   0  0  0  0  0  0
  -25.1130  -28.5971   18.6903 C   0  0  0  0  0  0
  -23.9735  -30.4233   20.2620 C   0  0  0  0  0  0
  -25.4174  -36.3294   24.0299 C   0  0  1  0  0  0
  -20.8648  -27.2921   22.8686 C   0  0  2  0  0  0
  -20.5012  -26.1463   22.0467 C   0  0  0  0  0  0
  -19.2983  -26.4015   21.1920 C   0  0  0  0  0  0
  -18.0608  -26.5585   22.0638 C   0  0  0  0  0  0
  -19.4060  -28.3671   23.1148 C   0  0  0  0  0  0
  -19.1843  -29.7650   23.5622 C   0  0  0  0  0  0
  -17.9444  -30.4178   23.8503 C   0  0  0  0  0  0
  -25.9386  -34.9772   23.5157 C   0  0  0  0  0  0
  -16.7415  -29.7608   23.6021 C   0  0  0  0  0  0
  -16.8469  -28.4843   23.0393 C   0  0  0  0  0  0
  -26.5587  -31.7008   25.1500 C   0  0  0  0  0  0
  -25.4509  -31.3945   26.1823 C   0  0  0  0  0  0
  -27.1944  -30.3528   24.7406 C   0  0  0  0  0  0
  -27.6771  -32.4860   25.8569 C   0  0  0  0  0  0
  -27.5609  -37.1988   24.8473 C   0  0  0  0  0  0
  -22.6738  -27.4332   22.5929 N   0  0  0  0  0  0
  -26.4288  -37.4034   23.9468 N   0  0  0  0  0  0
  -25.0356  -30.9447   22.3456 N   0  0  0  0  0  0
  -24.7115  -28.3987   23.3974 O   0  0  0  0  0  0
  -24.5459  -27.2383   20.5466 O   0  0  0  0  0  0
  -26.5432  -34.9137   22.4423 O   0  0  0  0  0  0
  -23.7631  -32.3905   23.6042 O   0  0  0  0  0  0
  -23.9001  -24.6169   22.6065 C   0  0  0  0  0  0
  -25.2725  -23.7019   24.1851 C   0  0  0  0  0  0
  -24.2243  -24.9417   23.9181 C   0  0  0  0  0  0
  -25.6870  -22.5761   23.2118 C   0  0  0  0  0  0
  -28.3927  -18.5214   22.0136 C   0  0  0  0  0  0
  -22.7403  -27.6367   25.0851 C   0  0  0  0  0  0
  -25.9134  -23.6876   25.5378 C   0  0  0  0  0  0
  -22.1121  -30.8155   27.3528 C   0  0  0  0  0  0
  -20.6382  -32.2281   25.9311 C   0  0  0  0  0  0
  -26.9022  -21.1265   23.0686 C   0  0  0  0  0  0
  -28.5713  -16.7922   21.2978 C   0  0  0  0  0  0
  -21.6270  -29.3030   21.7127 C   0  0  0  0  0  0
  -22.1080  -30.4919   24.7719 C   0  0  0  0  0  0
  -22.8495  -28.1090   20.3145 C   0  0  0  0  0  0
  -21.9120  -29.1444   24.0370 C   0  0  2  0  0  0
  -21.2823  -30.8349   26.0568 C   0  0  0  0  0  0
  -23.5433  -26.2623   24.8417 N   0  0  0  0  0  0
  -27.2470  -19.5746   22.2333 N   0  0  0  0  0  0
  -29.4671  -18.9268   22.4586 O   0  0  0  0  0  0
  -22.5646  -27.7940   26.2892 O   0  0  0  0  0  0
  -24.6869  -23.1359   21.8611 S   0  0  0  0  0  0
  -31.3591  -13.4656   19.4060 H   0  0  0  0  0  0
  -30.6182  -12.1530   20.2597 H   0  0  0  0  0  0
  -30.0517  -11.9228   17.8459 H   0  0  0  0  0  0
  -29.5542  -13.5938   17.7642 H   0  0  0  0  0  0
  -28.0980  -11.2956   19.0913 H   0  0  0  0  0  0
  -27.4839  -12.3752   17.8591 H   0  0  0  0  0  0
  -27.5101  -14.2455   19.4032 H   0  0  0  0  0  0
  -28.7387  -12.3510   21.4686 H   0  0  0  0  0  0
  -28.0214  -13.8838   21.8899 H   0  0  0  0  0  0
  -25.2693   -9.5699   22.4741 H   0  0  0  0  0  0
  -23.9984   -7.4602   22.7461 H   0  0  0  0  0  0
  -21.0769   -8.8675   19.8948 H   0  0  0  0  0  0
  -22.3569  -10.9604   19.6157 H   0  0  0  0  0  0
  -21.1992   -7.6128   23.9709 H   0  0  0  0  0  0
  -21.1481   -6.0512   25.9083 H   0  0  0  0  0  0
  -22.0604   -2.7587   23.2869 H   0  0  0  0  0  0
  -22.3910  -11.9813   22.4888 H   0  0  0  0  0  0
  -21.0900  -13.1178   22.2780 H   0  0  0  0  0  0
  -24.6053  -15.8340   20.5131 H   0  0  0  0  0  0
  -26.1999  -15.6171   19.9997 H   0  0  0  0  0  0
  -26.9290  -32.5990   23.2093 H   0  0  0  0  0  0
  -25.1916  -34.0222   25.1351 H   0  0  0  0  0  0
  -23.1721  -30.7573   22.2502 H   0  0  0  0  0  0
  -23.3922  -35.9558   23.3136 H   0  0  0  0  0  0
  -24.3697  -36.8995   22.1961 H   0  0  0  0  0  0
  -23.7147  -37.6479   23.6524 H   0  0  0  0  0  0
  -26.4834  -31.6955   21.0158 H   0  0  0  0  0  0
  -27.1560  -30.6142   22.1988 H   0  0  0  0  0  0
  -27.3796  -28.2309   21.7146 H   0  0  0  0  0  0
  -25.6815  -26.5965   18.2843 H   0  0  0  0  0  0
  -24.3896  -28.5984   17.8865 H   0  0  0  0  0  0
  -24.2169  -31.4759   20.1023 H   0  0  0  0  0  0
  -23.0367  -30.4037   19.7111 H   0  0  0  0  0  0
  -25.1267  -36.2149   25.0768 H   0  0  0  0  0  0
  -20.7885  -26.7990   23.8365 H   0  0  0  0  0  0
  -20.2939  -25.2718   22.6691 H   0  0  0  0  0  0
  -21.3051  -25.8137   21.4006 H   0  0  0  0  0  0
  -19.1519  -25.5405   20.5389 H   0  0  0  0  0  0
  -19.4364  -27.2576   20.5293 H   0  0  0  0  0  0
  -17.1766  -26.5316   21.4248 H   0  0  0  0  0  0
  -17.9580  -25.7331   22.7696 H   0  0  0  0  0  0
  -19.9834  -30.4604   23.6549 H   0  0  0  0  0  0
  -17.9355  -31.4391   24.2048 H   0  0  0  0  0  0
  -15.7840  -30.2316   23.7801 H   0  0  0  0  0  0
  -15.9341  -27.9717   22.7661 H   0  0  0  0  0  0
  -24.9610  -30.4467   25.9717 H   0  0  0  0  0  0
  -24.7036  -32.1858   26.2267 H   0  0  0  0  0  0
  -25.8597  -31.2862   27.1876 H   0  0  0  0  0  0
  -26.5204  -29.7013   24.2023 H   0  0  0  0  0  0
  -27.5114  -29.7929   25.6215 H   0  0  0  0  0  0
  -28.0920  -30.4967   24.1388 H   0  0  0  0  0  0
  -27.3100  -33.4040   26.3172 H   0  0  0  0  0  0
  -28.4718  -32.7653   25.1634 H   0  0  0  0  0  0
  -28.1373  -31.9028   26.6557 H   0  0  0  0  0  0
  -28.2536  -38.0377   24.7676 H   0  0  0  0  0  0
  -28.1224  -36.2932   24.6125 H   0  0  0  0  0  0
  -27.2348  -37.1396   25.8871 H   0  0  0  0  0  0
  -23.1044  -26.5976   22.9732 H   0  0  0  0  0  0
  -26.0136  -38.3067   24.1602 H   0  0  0  0  0  0
  -23.2284  -25.1271   21.9394 H   0  0  0  0  0  0
  -26.3855  -24.6457   25.7560 H   0  0  0  0  0  0
  -26.6827  -22.9201   25.6200 H   0  0  0  0  0  0
  -25.1768  -23.5011   26.3192 H   0  0  0  0  0  0
  -21.4689  -30.9489   28.2228 H   0  0  0  0  0  0
  -22.8412  -31.6233   27.3711 H   0  0  0  0  0  0
  -22.6559  -29.8868   27.5007 H   0  0  0  0  0  0
  -20.0246  -32.4616   26.8019 H   0  0  0  0  0  0
  -19.9952  -32.3060   25.0560 H   0  0  0  0  0  0
  -21.3978  -33.0063   25.8439 H   0  0  0  0  0  0
  -26.9932  -20.7938   24.1025 H   0  0  0  0  0  0
  -27.8531  -21.6332   22.9036 H   0  0  0  0  0  0
  -28.0144  -16.8818   20.3664 H   0  0  0  0  0  0
  -27.9002  -16.2285   21.9438 H   0  0  0  0  0  0
  -20.6392  -29.1089   21.3098 H   0  0  0  0  0  0
  -21.4996  -30.3419   21.3999 H   0  0  0  0  0  0
  -21.8555  -31.2462   24.0347 H   0  0  0  0  0  0
  -23.1560  -30.5742   25.0025 H   0  0  0  0  0  0
  -22.6943  -28.4499   19.2930 H   0  0  0  0  0  0
  -22.2402  -27.2226   20.1567 H   0  0  0  0  0  0
  -21.0462  -28.8920   24.6159 H   0  0  0  0  0  0
  -20.4639  -30.1258   26.1874 H   0  0  0  0  0  0
  -23.7808  -26.0421   25.7997 H   0  0  0  0  0  0
  -26.3918  -19.2236   21.8204 H   0  0  0  0  0  0
  1 25  1  0  0  0
  1 30  2  0  0  0
  1 81  1  0  0  0
  2  3  1  0  0  0
  2 25  1  0  0  0
  2 92  1  0  0  0
  2 93  1  0  0  0
  3  4  1  0  0  0
  3 94  1  0  0  0
  3 95  1  0  0  0
  4  5  1  0  0  0
  4 96  1  0  0  0
  4 97  1  0  0  0
  5  6  1  0  0  0
  5 26  1  0  0  0
  5 98  1  0  0  0
  6 25  1  0  0  0
  6 99  1  0  0  0
  6100  1  0  0  0
  7  8  2  0  0  0
  7 26  1  0  0  0
  7 29  1  0  0  0
  8  9  1  0  0  0
  8 22  1  0  0  0
  9 10  1  0  0  0
  9 27  2  0  0  0
 10 11  2  0  0  0
 10 15  1  0  0  0
 11 12  1  0  0  0
 11101  1  0  0  0
 12 13  2  0  0  0
 12102  1  0  0  0
 13 14  1  0  0  0
 13 31  1  0  0  0
 14 15  2  0  0  0
 14103  1  0  0  0
 15104  1  0  0  0
 16 17  2  0  0  0
 16 21  1  0  0  0
 16 31  1  0  0  0
 17 18  1  0  0  0
 17105  1  0  0  0
 18 19  2  0  0  0
 18106  1  0  0  0
 19 20  1  0  0  0
 19 24  1  0  0  0
 20 21  2  0  0  0
 20107  1  0  0  0
 21 23  1  0  0  0
 22 28  1  0  0  0
 22 32  2  0  0  0
 26 27  1  0  0  0
 28108  1  0  0  0
 28109  1  0  0  0
 29110  1  0  0  0
 29111  1  0  0  0
 33 34  1  0  0  0
 33 66  1  0  0  0
 33 70  2  0  0  0
 34 36  1  0  0  0
 34 59  1  0  0  0
 34112  1  0  0  0
 35 44  2  0  0  0
 35 45  1  0  0  0
 35 68  1  0  0  0
 36 56  1  0  0  0
 36113  1  0  0  0
 37 39  1  0  0  0
 37 47  1  0  0  0
 37 66  1  0  0  0
 37114  1  0  0  0
 38 43  2  0  0  0
 38 46  1  0  0  0
 38 47  1  0  0  0
 39 64  1  0  0  0
 39 67  2  0  0  0
 40 52  1  0  0  0
 40 53  2  0  0  0
 40 58  1  0  0  0
 41115  1  0  0  0
 41116  1  0  0  0
 41117  1  0  0  0
 41 48  1  0  0  0
 42 43  1  0  0  0
 42 66  1  0  0  0
 42118  1  0  0  0
 42119  1  0  0  0
 43 44  1  0  0  0
 44120  1  0  0  0
 45 46  2  0  0  0
 45121  1  0  0  0
 46122  1  0  0  0
 47123  1  0  0  0
 47124  1  0  0  0
 48 56  1  0  0  0
 48 65  1  0  0  0
 48125  1  0  0  0
 49 50  1  0  0  0
 49 53  1  0  0  0
 49 64  1  0  0  0
 49126  1  0  0  0
 50 51  1  0  0  0
 50127  1  0  0  0
 50128  1  0  0  0
 51 52  1  0  0  0
 51129  1  0  0  0
 51130  1  0  0  0
 52131  1  0  0  0
 52132  1  0  0  0
 53 54  1  0  0  0
 54 55  2  0  0  0
 54133  1  0  0  0
 55 57  1  0  0  0
 55134  1  0  0  0
 56 69  2  0  0  0
 57 58  2  0  0  0
 57135  1  0  0  0
 58136  1  0  0  0
 59 60  1  0  0  0
 59 61  1  0  0  0
 59 62  1  0  0  0
 60137  1  0  0  0
 60138  1  0  0  0
 60139  1  0  0  0
 61140  1  0  0  0
 61141  1  0  0  0
 61142  1  0  0  0
 62143  1  0  0  0
 62144  1  0  0  0
 62145  1  0  0  0
 63 65  1  0  0  0
 63146  1  0  0  0
 63147  1  0  0  0
 63148  1  0  0  0
 64149  1  0  0  0
 65150  1  0  0  0
 68 84  1  0  0  0
 71 73  2  0  0  0
 71 91  1  0  0  0
 71151  1  0  0  0
 72 73  1  0  0  0
 72 74  2  0  0  0
 72 77  1  0  0  0
 73 87  1  0  0  0
 74 80  1  0  0  0
 74 91  1  0  0  0
 75 81  1  0  0  0
 75 88  1  0  0  0
 75 89  2  0  0  0
 76 85  1  0  0  0
 76 87  1  0  0  0
 76 90  2  0  0  0
 77152  1  0  0  0
 77153  1  0  0  0
 77154  1  0  0  0
 78155  1  0  0  0
 78156  1  0  0  0
 78157  1  0  0  0
 78 86  1  0  0  0
 79 86  1  0  0  0
 79158  1  0  0  0
 79159  1  0  0  0
 79160  1  0  0  0
 80 88  1  0  0  0
 80161  1  0  0  0
 80162  1  0  0  0
 81163  1  0  0  0
 81164  1  0  0  0
 82 84  1  0  0  0
 82165  1  0  0  0
 82166  1  0  0  0
 82 85  1  0  0  0
 83 85  1  0  0  0
 83 86  1  0  0  0
 83167  1  0  0  0
 83168  1  0  0  0
 84169  1  0  0  0
 84170  1  0  0  0
 85171  1  0  0  0
 86172  1  0  0  0
 87173  1  0  0  0
 88174  1  0  0  0
M  ISO  4   1 100  68 101  81 100  84 101
M  END
> <chiral flag>
0

> <version>
0

> <s_m_source_file>
/data/baiqing/PycharmProjects/Reinvent-master-3.2/result/LINK_invent/BTK/process_docking_weight1_custom_product_contain_oxygen_bond_distance_aromatic_linkinvent_7_9_3/rearranged_h_0190.sdf

> <i_m_source_file_index>
91

> <r_mmod_Potential_Energy-OPLS-2005>
11169.6416015625

> <r_mmod_Stretch_Energy-OPLS-2005>
3993.04711914062

> <r_mmod_Bend_Energy-OPLS-2005>
1511.22863769531

> <r_mmod_Torsional_Energy-OPLS-2005>
577.759094238281

> <r_mmod_Improper_Torsional_Energy-OPLS-2005>
56.9615287780762

> <r_mmod_Van_der_Waal_Energy-OPLS-2005>
1613.23168945312

> <r_mmod_Electrostatic_Energy-OPLS-2005>
-431.219055175781

> <r_mmod_Solvation_Energy-OPLS-2005>
-235.494995117188

> <b_mmod_Minimization_Converged-OPLS-2005>
0

> <r_mmod_RMS_Derivative-OPLS-2005>
1.32647037506104

$$$$
91
                    3D
 Structure written by MMmdl.
162170  0  0  1  0            999 V2000
  -30.6908  -14.5722   20.4742 C   0  0  0  0  0  0
  -30.4118  -12.3443   19.4585 C   0  0  0  0  0  0
  -29.4988  -12.4943   18.2242 C   0  0  0  0  0  0
  -28.0209  -12.3507   18.6296 C   0  0  0  0  0  0
  -27.6463  -13.2256   19.8559 C   0  0  2  0  0  0
  -28.6903  -13.1012   20.9900 C   0  0  0  0  0  0
  -25.2519  -13.8192   20.5728 C   0  0  0  0  0  0
  -24.1787  -13.0445   20.9206 C   0  0  0  0  0  0
  -24.6368  -11.6914   20.8739 C   0  0  0  0  0  0
  -23.9040  -10.4295   21.0394 C   0  0  0  0  0  0
  -24.3597   -9.4208   21.9169 C   0  0  0  0  0  0
  -23.6282   -8.2239   22.0743 C   0  0  0  0  0  0
  -22.4259   -8.0274   21.3546 C   0  0  0  0  0  0
  -21.9887   -9.0235   20.4646 C   0  0  0  0  0  0
  -22.7216  -10.2120   20.3050 C   0  0  0  0  0  0
  -21.6852   -6.0730   22.5280 C   0  0  0  0  0  0
  -21.4019   -6.5631   23.8214 C   0  0  0  0  0  0
  -21.3668   -5.6785   24.9172 C   0  0  0  0  0  0
  -21.6042   -4.3048   24.7228 C   0  0  0  0  0  0
  -21.8816   -3.8142   23.4349 C   0  0  0  0  0  0
  -21.9191   -4.6955   22.3407 C   0  0  0  0  0  0
  -22.7813  -13.5232   21.1875 C   0  0  0  0  0  0
  -22.1659   -4.2143   21.0985 F   0  0  0  0  0  0
  -21.5622   -3.4537   25.7742 F   0  0  0  0  0  0
  -30.0143  -13.3868   20.4219 N   0  0  0  0  0  0
  -26.2941  -12.9396   20.3284 N   0  0  0  0  0  0
  -25.9297  -11.6537   20.5723 N   0  0  0  0  0  0
  -22.0451  -12.8225   22.0418 N   0  0  0  0  0  0
  -25.4231  -15.1929   20.4245 N   0  0  0  0  0  0
  -31.8807  -14.6311   20.1563 O   0  0  0  0  0  0
  -21.6633   -6.8865   21.4240 O   0  0  0  0  0  0
  -22.3509  -14.5553   20.6742 O   0  0  0  0  0  0
  -24.6211  -31.8646   23.2071 C   0  0  0  0  0  0
  -25.9077  -32.4806   23.8387 C   0  0  1  0  0  0
  -27.2214  -27.3791   20.1111 C   0  0  0  0  0  0
  -25.5912  -33.8606   24.2311 N   0  0  0  0  0  0
  -23.4123  -30.4895   21.5489 C   0  0  2  0  0  0
  -24.8587  -28.9569   20.1078 C   0  0  0  0  0  0
  -22.7456  -29.4642   22.4957 C   0  0  0  0  0  0
  -18.0289  -28.1384   22.8484 C   0  0  0  0  0  0
  -24.1488  -36.7303   23.2630 C   0  0  0  0  0  0
  -25.9474  -30.8152   21.3700 C   0  0  0  0  0  0
  -26.0237  -29.4482   20.7122 C   0  0  0  0  0  0
  -27.2117  -28.6683   20.7082 C   0  0  0  0  0  0
  -26.0445  -26.9343   19.4693 C   0  0  0  0  0  0
  -24.8674  -27.7021   19.4785 C   0  0  0  0  0  0
  -23.6234  -29.8282   20.1622 C   0  0  0  0  0  0
  -25.4104  -36.3098   24.0335 C   0  0  1  0  0  0
  -20.5882  -28.3678   23.1299 C   0  0  2  0  0  0
  -20.6785  -26.9405   22.5416 C   0  0  0  0  0  0
  -19.5759  -26.6382   21.5218 C   0  0  0  0  0  0
  -18.1939  -26.7924   22.1627 C   0  0  0  0  0  0
  -19.1537  -28.8849   23.2889 C   0  0  0  0  0  0
  -18.9458  -30.1455   23.8907 C   0  0  0  0  0  0
  -17.6458  -30.6586   24.0559 C   0  0  0  0  0  0
  -25.9044  -34.9468   23.5122 C   0  0  0  0  0  0
  -16.5354  -29.9086   23.6324 C   0  0  0  0  0  0
  -16.7276  -28.6503   23.0344 C   0  0  0  0  0  0
  -26.4485  -31.6585   25.0724 C   0  0  0  0  0  0
  -25.3741  -31.3707   26.1467 C   0  0  0  0  0  0
  -27.0308  -30.3015   24.6122 C   0  0  0  0  0  0
  -27.6062  -32.4304   25.7489 C   0  0  0  0  0  0
  -27.5590  -37.1787   24.8448 C   0  0  0  0  0  0
  -21.4172  -29.3033   22.3693 N   0  0  0  0  0  0
  -26.4276  -37.3795   23.9431 N   0  0  0  0  0  0
  -24.6786  -31.0714   22.0998 N   0  0  0  0  0  0
  -23.4197  -28.8178   23.3018 O   0  0  0  0  0  0
  -28.3271  -26.5349   20.1629 O   0  0  0  0  0  0
  -26.5609  -34.8926   22.4685 O   0  0  0  0  0  0
  -23.5390  -32.1419   23.7436 O   0  0  0  0  0  0
  -30.0276  -19.3142   19.7959 C   0  0  0  0  0  0
  -31.0291  -18.9893   18.9188 C   0  0  0  0  0  0
  -30.2701  -17.0236   20.1667 C   0  0  0  0  0  0
  -27.2209  -20.3571   20.7561 C   0  0  0  0  0  0
  -24.9104  -20.7825   21.7421 C   0  0  0  0  0  0
  -28.3351  -25.3868   22.2904 C   0  0  0  0  0  0
  -26.3808  -20.4404   22.0293 C   0  0  0  0  0  0
  -27.9796  -22.6678   20.1189 C   0  0  0  0  0  0
  -28.8457  -23.9806   20.2195 C   0  0  0  0  0  0
  -28.4684  -21.2688   20.6757 C   0  0  2  0  0  0
  -28.0729  -25.2335   20.7868 C   0  0  2  0  0  0
  -29.6028  -18.1603   20.5247 N   0  0  0  0  0  0
  -29.5389  -20.6587   19.8686 N   0  0  0  0  0  0
  -29.9698  -15.7067   20.7001 N   0  0  0  0  0  0
  -26.8556  -19.6297   19.8270 O   0  0  0  0  0  0
  -31.6206  -19.8874   18.0919 F   0  0  0  0  0  0
  -31.4802  -17.3188   18.9032 S   0  0  0  0  0  0
  -31.4600  -12.4188   19.1644 H   0  0  0  0  0  0
  -30.2979  -11.3552   19.9056 H   0  0  0  0  0  0
  -29.7519  -11.7467   17.4722 H   0  0  0  0  0  0
  -29.6578  -13.4681   17.7567 H   0  0  0  0  0  0
  -27.8389  -11.2998   18.8545 H   0  0  0  0  0  0
  -27.3771  -12.5955   17.7841 H   0  0  0  0  0  0
  -27.6591  -14.2578   19.5042 H   0  0  0  0  0  0
  -28.6767  -12.0974   21.4154 H   0  0  0  0  0  0
  -28.4549  -13.7811   21.8095 H   0  0  0  0  0  0
  -25.2727   -9.5703   22.4764 H   0  0  0  0  0  0
  -23.9998   -7.4632   22.7469 H   0  0  0  0  0  0
  -21.0815   -8.8741   19.8962 H   0  0  0  0  0  0
  -22.3643  -10.9651   19.6171 H   0  0  0  0  0  0
  -21.2007   -7.6139   23.9715 H   0  0  0  0  0  0
  -21.1504   -6.0518   25.9077 H   0  0  0  0  0  0
  -22.0596   -2.7606   23.2853 H   0  0  0  0  0  0
  -22.4056  -11.9882   22.4798 H   0  0  0  0  0  0
  -21.1077  -13.1274   22.2649 H   0  0  0  0  0  0
  -24.6589  -15.8469   20.5546 H   0  0  0  0  0  0
  -26.2746  -15.6403   20.1120 H   0  0  0  0  0  0
  -26.7144  -32.5497   23.1145 H   0  0  0  0  0  0
  -25.0066  -33.9761   25.0460 H   0  0  0  0  0  0
  -22.7020  -31.3073   21.4111 H   0  0  0  0  0  0
  -23.3764  -35.9617   23.3258 H   0  0  0  0  0  0
  -24.3601  -36.8959   22.2052 H   0  0  0  0  0  0
  -23.7222  -37.6486   23.6674 H   0  0  0  0  0  0
  -26.0677  -31.5814   20.6031 H   0  0  0  0  0  0
  -26.8319  -30.8655   21.9931 H   0  0  0  0  0  0
  -28.1051  -29.0334   21.1946 H   0  0  0  0  0  0
  -26.0249  -25.9731   18.9759 H   0  0  0  0  0  0
  -23.9751  -27.3207   19.0015 H   0  0  0  0  0  0
  -23.7356  -30.6068   19.4072 H   0  0  0  0  0  0
  -22.7456  -29.2543   19.8616 H   0  0  0  0  0  0
  -25.1274  -36.1948   25.0824 H   0  0  0  0  0  0
  -20.9973  -28.3256   24.1418 H   0  0  0  0  0  0
  -20.5710  -26.2278   23.3607 H   0  0  0  0  0  0
  -21.6655  -26.7459   22.1197 H   0  0  0  0  0  0
  -19.6925  -25.6295   21.1249 H   0  0  0  0  0  0
  -19.6700  -27.3192   20.6749 H   0  0  0  0  0  0
  -17.4207  -26.6667   21.4031 H   0  0  0  0  0  0
  -18.0338  -26.0077   22.9033 H   0  0  0  0  0  0
  -19.7937  -30.7271   24.2274 H   0  0  0  0  0  0
  -17.5017  -31.6266   24.5162 H   0  0  0  0  0  0
  -15.5356  -30.2991   23.7648 H   0  0  0  0  0  0
  -15.8676  -28.0832   22.7050 H   0  0  0  0  0  0
  -24.5918  -30.7045   25.7806 H   0  0  0  0  0  0
  -24.8923  -32.2865   26.4905 H   0  0  0  0  0  0
  -25.8090  -30.8885   27.0232 H   0  0  0  0  0  0
  -26.2851  -29.6785   24.1164 H   0  0  0  0  0  0
  -27.4045  -29.7248   25.4594 H   0  0  0  0  0  0
  -27.8711  -30.4313   23.9296 H   0  0  0  0  0  0
  -27.2685  -33.3604   26.2080 H   0  0  0  0  0  0
  -28.3868  -32.6864   25.0310 H   0  0  0  0  0  0
  -28.0732  -31.8415   26.5395 H   0  0  0  0  0  0
  -28.2550  -38.0144   24.7594 H   0  0  0  0  0  0
  -28.1150  -36.2685   24.6146 H   0  0  0  0  0  0
  -27.2331  -37.1277   25.8852 H   0  0  0  0  0  0
  -20.9342  -29.8725   21.6883 H   0  0  0  0  0  0
  -26.0161  -38.2856   24.1499 H   0  0  0  0  0  0
  -24.3467  -20.8651   22.6717 H   0  0  0  0  0  0
  -24.4334  -20.0174   21.1273 H   0  0  0  0  0  0
  -24.8199  -21.7346   21.2181 H   0  0  0  0  0  0
  -28.1062  -24.4621   22.8221 H   0  0  0  0  0  0
  -27.7178  -26.1751   22.7224 H   0  0  0  0  0  0
  -29.3791  -25.6354   22.4852 H   0  0  0  0  0  0
  -26.8132  -21.1913   22.6900 H   0  0  0  0  0  0
  -26.4456  -19.4856   22.5499 H   0  0  0  0  0  0
  -27.6850  -22.5426   19.0757 H   0  0  0  0  0  0
  -27.0365  -22.8823   20.6228 H   0  0  0  0  0  0
  -29.2049  -24.2233   19.2188 H   0  0  0  0  0  0
  -29.7471  -23.7952   20.8051 H   0  0  0  0  0  0
  -28.8533  -21.4076   21.6867 H   0  0  0  0  0  0
  -27.0133  -25.0003   20.7009 H   0  0  0  0  0  0
  -29.9921  -21.2844   19.2112 H   0  0  0  0  0  0
  -29.0527  -15.5892   21.0993 H   0  0  0  0  0  0
  1 25  1  0  0  0
  1 30  2  0  0  0
  1 84  1  0  0  0
  2  3  1  0  0  0
  2 25  1  0  0  0
  2 88  1  0  0  0
  2 89  1  0  0  0
  3  4  1  0  0  0
  3 90  1  0  0  0
  3 91  1  0  0  0
  4  5  1  0  0  0
  4 92  1  0  0  0
  4 93  1  0  0  0
  5  6  1  0  0  0
  5 26  1  0  0  0
  5 94  1  0  0  0
  6 25  1  0  0  0
  6 95  1  0  0  0
  6 96  1  0  0  0
  7  8  2  0  0  0
  7 26  1  0  0  0
  7 29  1  0  0  0
  8  9  1  0  0  0
  8 22  1  0  0  0
  9 10  1  0  0  0
  9 27  2  0  0  0
 10 11  2  0  0  0
 10 15  1  0  0  0
 11 12  1  0  0  0
 11 97  1  0  0  0
 12 13  2  0  0  0
 12 98  1  0  0  0
 13 14  1  0  0  0
 13 31  1  0  0  0
 14 15  2  0  0  0
 14 99  1  0  0  0
 15100  1  0  0  0
 16 17  2  0  0  0
 16 21  1  0  0  0
 16 31  1  0  0  0
 17 18  1  0  0  0
 17101  1  0  0  0
 18 19  2  0  0  0
 18102  1  0  0  0
 19 20  1  0  0  0
 19 24  1  0  0  0
 20 21  2  0  0  0
 20103  1  0  0  0
 21 23  1  0  0  0
 22 28  1  0  0  0
 22 32  2  0  0  0
 26 27  1  0  0  0
 28104  1  0  0  0
 28105  1  0  0  0
 29106  1  0  0  0
 29107  1  0  0  0
 33 34  1  0  0  0
 33 66  1  0  0  0
 33 70  2  0  0  0
 34 36  1  0  0  0
 34 59  1  0  0  0
 34108  1  0  0  0
 35 44  2  0  0  0
 35 45  1  0  0  0
 35 68  1  0  0  0
 36 56  1  0  0  0
 36109  1  0  0  0
 37 39  1  0  0  0
 37 47  1  0  0  0
 37 66  1  0  0  0
 37110  1  0  0  0
 38 43  2  0  0  0
 38 46  1  0  0  0
 38 47  1  0  0  0
 39 64  1  0  0  0
 39 67  2  0  0  0
 40 52  1  0  0  0
 40 53  2  0  0  0
 40 58  1  0  0  0
 41111  1  0  0  0
 41112  1  0  0  0
 41113  1  0  0  0
 41 48  1  0  0  0
 42 43  1  0  0  0
 42 66  1  0  0  0
 42114  1  0  0  0
 42115  1  0  0  0
 43 44  1  0  0  0
 44116  1  0  0  0
 45 46  2  0  0  0
 45117  1  0  0  0
 46118  1  0  0  0
 47119  1  0  0  0
 47120  1  0  0  0
 48 56  1  0  0  0
 48 65  1  0  0  0
 48121  1  0  0  0
 49 50  1  0  0  0
 49 53  1  0  0  0
 49 64  1  0  0  0
 49122  1  0  0  0
 50 51  1  0  0  0
 50123  1  0  0  0
 50124  1  0  0  0
 51 52  1  0  0  0
 51125  1  0  0  0
 51126  1  0  0  0
 52127  1  0  0  0
 52128  1  0  0  0
 53 54  1  0  0  0
 54 55  2  0  0  0
 54129  1  0  0  0
 55 57  1  0  0  0
 55130  1  0  0  0
 56 69  2  0  0  0
 57 58  2  0  0  0
 57131  1  0  0  0
 58132  1  0  0  0
 59 60  1  0  0  0
 59 61  1  0  0  0
 59 62  1  0  0  0
 60133  1  0  0  0
 60134  1  0  0  0
 60135  1  0  0  0
 61136  1  0  0  0
 61137  1  0  0  0
 61138  1  0  0  0
 62139  1  0  0  0
 62140  1  0  0  0
 62141  1  0  0  0
 63 65  1  0  0  0
 63142  1  0  0  0
 63143  1  0  0  0
 63144  1  0  0  0
 64145  1  0  0  0
 65146  1  0  0  0
 68 81  1  0  0  0
 71 72  2  0  0  0
 71 82  1  0  0  0
 71 83  1  0  0  0
 72 86  1  0  0  0
 72 87  1  0  0  0
 73 82  2  0  0  0
 73 84  1  0  0  0
 73 87  1  0  0  0
 74 77  1  0  0  0
 74 80  1  0  0  0
 74 85  2  0  0  0
 75 77  1  0  0  0
 75147  1  0  0  0
 75148  1  0  0  0
 75149  1  0  0  0
 76150  1  0  0  0
 76151  1  0  0  0
 76152  1  0  0  0
 76 81  1  0  0  0
 77153  1  0  0  0
 77154  1  0  0  0
 78 79  1  0  0  0
 78155  1  0  0  0
 78156  1  0  0  0
 78 80  1  0  0  0
 79 81  1  0  0  0
 79157  1  0  0  0
 79158  1  0  0  0
 80 83  1  0  0  0
 80159  1  0  0  0
 81160  1  0  0  0
 83161  1  0  0  0
 84162  1  0  0  0
M  ISO  4   1 100  68 101  81 101  84 100
M  END
> <chiral flag>
0

> <version>
0

> <s_m_source_file>
/data/baiqing/PycharmProjects/Reinvent-master-3.2/result/LINK_invent/BTK/process_docking_weight1_custom_product_contain_oxygen_bond_distance_aromatic_linkinvent_7_9_3/rearranged_h_0190.sdf

> <i_m_source_file_index>
92

> <r_mmod_Potential_Energy-OPLS-2005>
-27.1036605834961

> <r_mmod_Stretch_Energy-OPLS-2005>
58.0972862243652

> <r_mmod_Bend_Energy-OPLS-2005>
139.281768798828

> <r_mmod_Torsional_Energy-OPLS-2005>
255.460067749023

> <r_mmod_Improper_Torsional_Energy-OPLS-2005>
5.09206771850586

> <r_mmod_Van_der_Waal_Energy-OPLS-2005>
132.848907470703

> <r_mmod_Electrostatic_Energy-OPLS-2005>
-439.053588867188

> <r_mmod_Solvation_Energy-OPLS-2005>
-214.549682617188

> <b_mmod_Minimization_Converged-OPLS-2005>
0

> <r_mmod_RMS_Derivative-OPLS-2005>
2.05047512054443

$$$$
92
                    3D
 Structure written by MMmdl.
159167  0  0  1  0            999 V2000
  -30.6754  -14.5078   20.6045 C   0  0  0  0  0  0
  -30.4321  -12.3424   19.4281 C   0  0  0  0  0  0
  -29.5049  -12.5178   18.2099 C   0  0  0  0  0  0
  -28.0224  -12.3752   18.6109 C   0  0  0  0  0  0
  -27.6582  -13.2062   19.8723 C   0  0  2  0  0  0
  -28.6975  -12.9880   20.9931 C   0  0  0  0  0  0
  -25.2601  -13.8164   20.5679 C   0  0  0  0  0  0
  -24.1861  -13.0434   20.9173 C   0  0  0  0  0  0
  -24.6400  -11.6888   20.8719 C   0  0  0  0  0  0
  -23.9061  -10.4281   21.0385 C   0  0  0  0  0  0
  -24.3613   -9.4219   21.9173 C   0  0  0  0  0  0
  -23.6293   -8.2255   22.0748 C   0  0  0  0  0  0
  -22.4273   -8.0300   21.3557 C   0  0  0  0  0  0
  -21.9903   -9.0265   20.4646 C   0  0  0  0  0  0
  -22.7216  -10.2140   20.3047 C   0  0  0  0  0  0
  -21.6883   -6.0732   22.5276 C   0  0  0  0  0  0
  -21.4005   -6.5625   23.8206 C   0  0  0  0  0  0
  -21.3670   -5.6794   24.9172 C   0  0  0  0  0  0
  -21.6050   -4.3046   24.7225 C   0  0  0  0  0  0
  -21.8824   -3.8144   23.4339 C   0  0  0  0  0  0
  -21.9192   -4.6962   22.3390 C   0  0  0  0  0  0
  -22.7883  -13.5248   21.1835 C   0  0  0  0  0  0
  -22.1673   -4.2151   21.0967 F   0  0  0  0  0  0
  -21.5639   -3.4520   25.7725 F   0  0  0  0  0  0
  -30.0173  -13.3274   20.4421 N   0  0  0  0  0  0
  -26.2992  -12.9316   20.3311 N   0  0  0  0  0  0
  -25.9319  -11.6462   20.5721 N   0  0  0  0  0  0
  -22.0526  -12.8259   22.0415 N   0  0  0  0  0  0
  -25.4314  -15.1904   20.4110 N   0  0  0  0  0  0
  -31.8152  -14.6938   20.1781 O   0  0  0  0  0  0
  -21.6652   -6.8893   21.4244 O   0  0  0  0  0  0
  -22.3565  -14.5540   20.6666 O   0  0  0  0  0  0
  -24.6134  -31.8656   23.2100 C   0  0  0  0  0  0
  -25.9012  -32.4829   23.8384 C   0  0  1  0  0  0
  -27.2278  -27.3869   20.1061 C   0  0  0  0  0  0
  -25.5880  -33.8624   24.2327 N   0  0  0  0  0  0
  -23.4054  -30.4906   21.5485 C   0  0  2  0  0  0
  -24.8540  -28.9528   20.1109 C   0  0  0  0  0  0
  -22.7410  -29.4657   22.4966 C   0  0  0  0  0  0
  -18.0284  -28.1362   22.8502 C   0  0  0  0  0  0
  -24.1495  -36.7304   23.2641 C   0  0  0  0  0  0
  -25.9378  -30.8166   21.3755 C   0  0  0  0  0  0
  -26.0132  -29.4473   20.7203 C   0  0  0  0  0  0
  -27.1971  -28.6685   20.7179 C   0  0  0  0  0  0
  -26.0434  -26.9172   19.4934 C   0  0  0  0  0  0
  -24.8674  -27.6931   19.4904 C   0  0  0  0  0  0
  -23.6154  -29.8203   20.1639 C   0  0  0  0  0  0
  -25.4119  -36.3103   24.0328 C   0  0  1  0  0  0
  -20.5873  -28.3651   23.1325 C   0  0  2  0  0  0
  -20.6756  -26.9388   22.5416 C   0  0  0  0  0  0
  -19.5731  -26.6375   21.5210 C   0  0  0  0  0  0
  -18.1925  -26.7913   22.1626 C   0  0  0  0  0  0
  -19.1532  -28.8826   23.2923 C   0  0  0  0  0  0
  -18.9451  -30.1437   23.8931 C   0  0  0  0  0  0
  -17.6445  -30.6582   24.0557 C   0  0  0  0  0  0
  -25.9043  -34.9471   23.5138 C   0  0  0  0  0  0
  -16.5343  -29.9076   23.6326 C   0  0  0  0  0  0
  -16.7270  -28.6479   23.0371 C   0  0  0  0  0  0
  -26.4437  -31.6613   25.0715 C   0  0  0  0  0  0
  -25.3685  -31.3702   26.1452 C   0  0  0  0  0  0
  -27.0297  -30.3062   24.6100 C   0  0  0  0  0  0
  -27.6039  -32.4305   25.7461 C   0  0  0  0  0  0
  -27.5594  -37.1808   24.8458 C   0  0  0  0  0  0
  -21.4134  -29.3027   22.3726 N   0  0  0  0  0  0
  -26.4308  -37.3782   23.9407 N   0  0  0  0  0  0
  -24.6710  -31.0699   22.1043 N   0  0  0  0  0  0
  -23.4191  -28.8180   23.2992 O   0  0  0  0  0  0
  -28.4054  -26.6514   20.1509 O   0  0  0  0  0  0
  -26.5600  -34.8908   22.4698 O   0  0  0  0  0  0
  -23.5321  -32.1434   23.7472 O   0  0  0  0  0  0
  -30.1088  -18.0709   20.7113 C   0  0  0  0  0  0
  -30.3760  -18.2242   19.3669 C   0  0  0  0  0  0
  -29.5115  -20.2905   20.4326 C   0  0  0  0  0  0
  -32.0387  -17.2626   17.9376 C   0  0  0  0  0  0
  -32.3895  -16.0069   17.1531 C   0  0  0  0  0  0
  -30.4158  -16.8497   21.5879 C   0  0  0  0  0  0
  -28.9989  -22.7947   19.8775 C   0  0  0  0  0  0
  -28.5153  -25.3266   19.5647 C   0  0  0  0  0  0
  -28.4897  -24.1096   20.5550 C   0  0  1  0  0  0
  -29.5932  -19.2601   21.2896 N   0  0  0  0  0  0
  -30.8382  -17.2697   18.5296 N   0  0  0  0  0  0
  -29.0689  -21.5902   20.7271 N   0  0  0  0  0  0
  -29.9460  -15.5145   21.1444 N   0  0  0  0  0  0
  -32.8435  -18.1949   18.0102 O   0  0  0  0  0  0
  -27.1507  -23.8695   20.9497 O   0  0  0  0  0  0
  -30.0416  -19.8558   18.8161 S   0  0  0  0  0  0
  -31.4748  -12.4647   19.1322 H   0  0  0  0  0  0
  -30.3553  -11.3300   19.8295 H   0  0  0  0  0  0
  -29.7534  -11.7924   17.4324 H   0  0  0  0  0  0
  -29.6703  -13.5040   17.7707 H   0  0  0  0  0  0
  -27.8340  -11.3173   18.7948 H   0  0  0  0  0  0
  -27.3802  -12.6514   17.7742 H   0  0  0  0  0  0
  -27.7012  -14.2558   19.5850 H   0  0  0  0  0  0
  -28.6981  -11.9440   21.3097 H   0  0  0  0  0  0
  -28.4481  -13.5635   21.8854 H   0  0  0  0  0  0
  -25.2765   -9.5702   22.4730 H   0  0  0  0  0  0
  -24.0030   -7.4645   22.7447 H   0  0  0  0  0  0
  -21.0853   -8.8766   19.8935 H   0  0  0  0  0  0
  -22.3693  -10.9680   19.6156 H   0  0  0  0  0  0
  -21.1994   -7.6128   23.9709 H   0  0  0  0  0  0
  -21.1497   -6.0507   25.9084 H   0  0  0  0  0  0
  -22.0596   -2.7604   23.2822 H   0  0  0  0  0  0
  -22.4129  -11.9901   22.4776 H   0  0  0  0  0  0
  -21.1130  -13.1280   22.2594 H   0  0  0  0  0  0
  -24.6609  -15.8417   20.5191 H   0  0  0  0  0  0
  -26.2797  -15.6373   20.0884 H   0  0  0  0  0  0
  -26.7072  -32.5538   23.1141 H   0  0  0  0  0  0
  -25.0004  -33.9791   25.0452 H   0  0  0  0  0  0
  -22.6954  -31.3090   21.4087 H   0  0  0  0  0  0
  -23.3761  -35.9639   23.3299 H   0  0  0  0  0  0
  -24.3593  -36.8923   22.2061 H   0  0  0  0  0  0
  -23.7243  -37.6497   23.6664 H   0  0  0  0  0  0
  -26.0515  -31.5867   20.6121 H   0  0  0  0  0  0
  -26.8248  -30.8722   21.9959 H   0  0  0  0  0  0
  -28.0887  -29.0374   21.2044 H   0  0  0  0  0  0
  -25.9883  -25.9515   19.0153 H   0  0  0  0  0  0
  -23.9739  -27.3133   19.0133 H   0  0  0  0  0  0
  -23.7146  -30.5906   19.3978 H   0  0  0  0  0  0
  -22.7427  -29.2307   19.8755 H   0  0  0  0  0  0
  -25.1313  -36.1960   25.0817 H   0  0  0  0  0  0
  -20.9976  -28.3190   24.1437 H   0  0  0  0  0  0
  -20.5638  -26.2251   23.3596 H   0  0  0  0  0  0
  -21.6627  -26.7416   22.1221 H   0  0  0  0  0  0
  -19.6885  -25.6287   21.1243 H   0  0  0  0  0  0
  -19.6673  -27.3182   20.6735 H   0  0  0  0  0  0
  -17.4190  -26.6697   21.4025 H   0  0  0  0  0  0
  -18.0324  -26.0043   22.9005 H   0  0  0  0  0  0
  -19.7931  -30.7258   24.2307 H   0  0  0  0  0  0
  -17.5003  -31.6269   24.5138 H   0  0  0  0  0  0
  -15.5346  -30.2983   23.7623 H   0  0  0  0  0  0
  -15.8672  -28.0793   22.7087 H   0  0  0  0  0  0
  -24.5830  -30.7115   25.7705 H   0  0  0  0  0  0
  -24.8919  -32.2878   26.4922 H   0  0  0  0  0  0
  -25.8001  -30.8780   27.0187 H   0  0  0  0  0  0
  -26.2866  -29.6807   24.1145 H   0  0  0  0  0  0
  -27.4071  -29.7290   25.4550 H   0  0  0  0  0  0
  -27.8686  -30.4385   23.9268 H   0  0  0  0  0  0
  -27.2689  -33.3579   26.2106 H   0  0  0  0  0  0
  -28.3807  -32.6901   25.0257 H   0  0  0  0  0  0
  -28.0764  -31.8385   26.5312 H   0  0  0  0  0  0
  -28.2596  -38.0115   24.7533 H   0  0  0  0  0  0
  -28.1111  -36.2657   24.6269 H   0  0  0  0  0  0
  -27.2322  -37.1426   25.8856 H   0  0  0  0  0  0
  -20.9282  -29.8743   21.6955 H   0  0  0  0  0  0
  -26.0195  -38.2861   24.1398 H   0  0  0  0  0  0
  -31.5276  -15.3424   17.0664 H   0  0  0  0  0  0
  -33.1860  -15.4615   17.6611 H   0  0  0  0  0  0
  -32.7254  -16.2644   16.1505 H   0  0  0  0  0  0
  -29.9749  -17.0070   22.5723 H   0  0  0  0  0  0
  -31.4902  -16.7941   21.7742 H   0  0  0  0  0  0
  -30.0015  -22.9698   19.4835 H   0  0  0  0  0  0
  -28.3781  -22.5622   19.0104 H   0  0  0  0  0  0
  -27.8681  -25.1602   18.7063 H   0  0  0  0  0  0
  -29.5121  -25.3264   19.1244 H   0  0  0  0  0  0
  -29.1093  -24.3443   21.4234 H   0  0  0  0  0  0
  -30.2886  -16.4259   18.4539 H   0  0  0  0  0  0
  -28.6525  -21.7106   21.6458 H   0  0  0  0  0  0
  -29.0005  -15.2819   21.4048 H   0  0  0  0  0  0
  -26.7838  -24.7097   21.2124 H   0  0  0  0  0  0
  1 25  1  0  0  0
  1 30  2  0  0  0
  1 83  1  0  0  0
  2  3  1  0  0  0
  2 25  1  0  0  0
  2 87  1  0  0  0
  2 88  1  0  0  0
  3  4  1  0  0  0
  3 89  1  0  0  0
  3 90  1  0  0  0
  4  5  1  0  0  0
  4 91  1  0  0  0
  4 92  1  0  0  0
  5  6  1  0  0  0
  5 26  1  0  0  0
  5 93  1  0  0  0
  6 25  1  0  0  0
  6 94  1  0  0  0
  6 95  1  0  0  0
  7  8  2  0  0  0
  7 26  1  0  0  0
  7 29  1  0  0  0
  8  9  1  0  0  0
  8 22  1  0  0  0
  9 10  1  0  0  0
  9 27  2  0  0  0
 10 11  2  0  0  0
 10 15  1  0  0  0
 11 12  1  0  0  0
 11 96  1  0  0  0
 12 13  2  0  0  0
 12 97  1  0  0  0
 13 14  1  0  0  0
 13 31  1  0  0  0
 14 15  2  0  0  0
 14 98  1  0  0  0
 15 99  1  0  0  0
 16 17  2  0  0  0
 16 21  1  0  0  0
 16 31  1  0  0  0
 17 18  1  0  0  0
 17100  1  0  0  0
 18 19  2  0  0  0
 18101  1  0  0  0
 19 20  1  0  0  0
 19 24  1  0  0  0
 20 21  2  0  0  0
 20102  1  0  0  0
 21 23  1  0  0  0
 22 28  1  0  0  0
 22 32  2  0  0  0
 26 27  1  0  0  0
 28103  1  0  0  0
 28104  1  0  0  0
 29105  1  0  0  0
 29106  1  0  0  0
 33 34  1  0  0  0
 33 66  1  0  0  0
 33 70  2  0  0  0
 34 36  1  0  0  0
 34 59  1  0  0  0
 34107  1  0  0  0
 35 44  2  0  0  0
 35 45  1  0  0  0
 35 68  1  0  0  0
 36 56  1  0  0  0
 36108  1  0  0  0
 37 39  1  0  0  0
 37 47  1  0  0  0
 37 66  1  0  0  0
 37109  1  0  0  0
 38 43  2  0  0  0
 38 46  1  0  0  0
 38 47  1  0  0  0
 39 64  1  0  0  0
 39 67  2  0  0  0
 40 52  1  0  0  0
 40 53  2  0  0  0
 40 58  1  0  0  0
 41110  1  0  0  0
 41111  1  0  0  0
 41112  1  0  0  0
 41 48  1  0  0  0
 42 43  1  0  0  0
 42 66  1  0  0  0
 42113  1  0  0  0
 42114  1  0  0  0
 43 44  1  0  0  0
 44115  1  0  0  0
 45 46  2  0  0  0
 45116  1  0  0  0
 46117  1  0  0  0
 47118  1  0  0  0
 47119  1  0  0  0
 48 56  1  0  0  0
 48 65  1  0  0  0
 48120  1  0  0  0
 49 50  1  0  0  0
 49 53  1  0  0  0
 49 64  1  0  0  0
 49121  1  0  0  0
 50 51  1  0  0  0
 50122  1  0  0  0
 50123  1  0  0  0
 51 52  1  0  0  0
 51124  1  0  0  0
 51125  1  0  0  0
 52126  1  0  0  0
 52127  1  0  0  0
 53 54  1  0  0  0
 54 55  2  0  0  0
 54128  1  0  0  0
 55 57  1  0  0  0
 55129  1  0  0  0
 56 69  2  0  0  0
 57 58  2  0  0  0
 57130  1  0  0  0
 58131  1  0  0  0
 59 60  1  0  0  0
 59 61  1  0  0  0
 59 62  1  0  0  0
 60132  1  0  0  0
 60133  1  0  0  0
 60134  1  0  0  0
 61135  1  0  0  0
 61136  1  0  0  0
 61137  1  0  0  0
 62138  1  0  0  0
 62139  1  0  0  0
 62140  1  0  0  0
 63 65  1  0  0  0
 63141  1  0  0  0
 63142  1  0  0  0
 63143  1  0  0  0
 64144  1  0  0  0
 65145  1  0  0  0
 68 78  1  0  0  0
 71 72  2  0  0  0
 71 76  1  0  0  0
 71 80  1  0  0  0
 72 81  1  0  0  0
 72 86  1  0  0  0
 73 80  2  0  0  0
 73 82  1  0  0  0
 73 86  1  0  0  0
 74 75  1  0  0  0
 74 81  1  0  0  0
 74 84  2  0  0  0
 75146  1  0  0  0
 75147  1  0  0  0
 75148  1  0  0  0
 76 83  1  0  0  0
 76149  1  0  0  0
 76150  1  0  0  0
 77 79  1  0  0  0
 77 82  1  0  0  0
 77151  1  0  0  0
 77152  1  0  0  0
 78 79  1  0  0  0
 78153  1  0  0  0
 78154  1  0  0  0
 79 85  1  0  0  0
 79155  1  0  0  0
 81156  1  0  0  0
 82157  1  0  0  0
 83158  1  0  0  0
 85159  1  0  0  0
M  ISO  4   1 100  68 101  78 101  83 100
M  END
> <chiral flag>
0

> <version>
0

> <s_m_source_file>
/data/baiqing/PycharmProjects/Reinvent-master-3.2/result/LINK_invent/BTK/process_docking_weight1_custom_product_contain_oxygen_bond_distance_aromatic_linkinvent_7_9_3/rearranged_h_0190.sdf

> <i_m_source_file_index>
93

> <r_mmod_Potential_Energy-OPLS-2005>
-280.632049560547

> <r_mmod_Stretch_Energy-OPLS-2005>
45.1277732849121

> <r_mmod_Bend_Energy-OPLS-2005>
120.480659484863

> <r_mmod_Torsional_Energy-OPLS-2005>
231.37223815918

> <r_mmod_Improper_Torsional_Energy-OPLS-2005>
3.74489903450012

> <r_mmod_Van_der_Waal_Energy-OPLS-2005>
116.953514099121

> <r_mmod_Electrostatic_Energy-OPLS-2005>
-556.705322265625

> <r_mmod_Solvation_Energy-OPLS-2005>
-261.551147460938

> <b_mmod_Minimization_Converged-OPLS-2005>
0

> <r_mmod_RMS_Derivative-OPLS-2005>
4.19872903823853

$$$$
93
                    3D
 Structure written by MMmdl.
159166  0  0  1  0            999 V2000
  -30.5224  -14.9737   20.4091 C   0  0  0  0  0  0
  -30.4401  -12.5989   19.5165 C   0  0  0  0  0  0
  -29.5262  -12.5371   18.2689 C   0  0  0  0  0  0
  -28.0587  -12.3216   18.6808 C   0  0  0  0  0  0
  -27.6312  -13.2524   19.8454 C   0  0  2  0  0  0
  -28.6697  -13.2816   20.9887 C   0  0  0  0  0  0
  -25.2456  -13.8229   20.5719 C   0  0  0  0  0  0
  -24.1775  -13.0445   20.9234 C   0  0  0  0  0  0
  -24.6394  -11.6931   20.8753 C   0  0  0  0  0  0
  -23.9078  -10.4298   21.0404 C   0  0  0  0  0  0
  -24.3624   -9.4210   21.9183 C   0  0  0  0  0  0
  -23.6299   -8.2247   22.0751 C   0  0  0  0  0  0
  -22.4281   -8.0285   21.3542 C   0  0  0  0  0  0
  -21.9919   -9.0258   20.4644 C   0  0  0  0  0  0
  -22.7248  -10.2139   20.3055 C   0  0  0  0  0  0
  -21.6858   -6.0734   22.5278 C   0  0  0  0  0  0
  -21.4013   -6.5638   23.8210 C   0  0  0  0  0  0
  -21.3660   -5.6791   24.9173 C   0  0  0  0  0  0
  -21.6045   -4.3055   24.7223 C   0  0  0  0  0  0
  -21.8821   -3.8147   23.4346 C   0  0  0  0  0  0
  -21.9193   -4.6961   22.3401 C   0  0  0  0  0  0
  -22.7792  -13.5210   21.1890 C   0  0  0  0  0  0
  -22.1663   -4.2148   21.0979 F   0  0  0  0  0  0
  -21.5629   -3.4538   25.7736 F   0  0  0  0  0  0
  -29.9491  -13.6993   20.4005 N   0  0  0  0  0  0
  -26.2887  -12.9467   20.3266 N   0  0  0  0  0  0
  -25.9332  -11.6593   20.5743 N   0  0  0  0  0  0
  -22.0442  -12.8189   22.0440 N   0  0  0  0  0  0
  -25.4126  -15.1952   20.4134 N   0  0  0  0  0  0
  -31.7064  -15.0518   20.0638 O   0  0  0  0  0  0
  -21.6645   -6.8879   21.4242 O   0  0  0  0  0  0
  -22.3473  -14.5516   20.6739 O   0  0  0  0  0  0
  -24.6444  -31.8398   23.1828 C   0  0  0  0  0  0
  -25.9208  -32.4667   23.8228 C   0  0  1  0  0  0
  -27.2244  -27.1070   20.1537 C   0  0  0  0  0  0
  -25.5940  -33.8472   24.2150 N   0  0  0  0  0  0
  -23.4496  -30.4547   21.5286 C   0  0  2  0  0  0
  -24.8981  -28.8714   20.1075 C   0  0  0  0  0  0
  -22.7578  -29.4509   22.4842 C   0  0  0  0  0  0
  -18.0307  -28.1387   22.8473 C   0  0  0  0  0  0
  -24.1492  -36.7245   23.2647 C   0  0  0  0  0  0
  -26.0045  -30.7048   21.3825 C   0  0  0  0  0  0
  -26.0734  -29.3124   20.7250 C   0  0  0  0  0  0
  -27.2304  -28.4459   20.7284 C   0  0  0  0  0  0
  -26.0163  -26.7620   19.5117 C   0  0  0  0  0  0
  -24.8840  -27.6112   19.4860 C   0  0  0  0  0  0
  -23.6755  -29.7764   20.1500 C   0  0  0  0  0  0
  -25.4122  -36.3014   24.0315 C   0  0  1  0  0  0
  -20.5922  -28.3716   23.1232 C   0  0  2  0  0  0
  -20.6786  -26.9414   22.5408 C   0  0  0  0  0  0
  -19.5763  -26.6372   21.5211 C   0  0  0  0  0  0
  -18.1942  -26.7927   22.1616 C   0  0  0  0  0  0
  -19.1563  -28.8868   23.2845 C   0  0  0  0  0  0
  -18.9481  -30.1464   23.8871 C   0  0  0  0  0  0
  -17.6478  -30.6584   24.0553 C   0  0  0  0  0  0
  -25.9075  -34.9391   23.5052 C   0  0  0  0  0  0
  -16.5368  -29.9080   23.6327 C   0  0  0  0  0  0
  -16.7293  -28.6496   23.0350 C   0  0  0  0  0  0
  -26.4520  -31.6560   25.0691 C   0  0  0  0  0  0
  -25.3692  -31.3757   26.1379 C   0  0  0  0  0  0
  -27.0390  -30.2950   24.6289 C   0  0  0  0  0  0
  -27.6044  -32.4343   25.7479 C   0  0  0  0  0  0
  -27.5573  -37.1771   24.8467 C   0  0  0  0  0  0
  -21.4263  -29.3041   22.3604 N   0  0  0  0  0  0
  -26.4285  -37.3732   23.9413 N   0  0  0  0  0  0
  -24.7197  -31.0234   22.0863 N   0  0  0  0  0  0
  -23.4206  -28.8073   23.3015 O   0  0  0  0  0  0
  -28.3222  -26.1714   20.2800 O   0  0  0  0  0  0
  -26.5666  -34.8904   22.4638 O   0  0  0  0  0  0
  -23.5563  -32.1294   23.7034 O   0  0  0  0  0  0
  -28.7102  -20.4714   20.3812 C   0  0  0  0  0  0
  -28.7954  -17.5915   18.7703 C   0  0  0  0  0  0
  -30.1280  -24.7710   19.8213 C   0  0  0  0  0  0
  -28.1880  -24.5798   18.3090 C   0  0  0  0  0  0
  -28.2395  -23.2066   20.5326 C   0  0  0  0  0  0
  -29.6479  -19.1275   20.7679 C   0  0  2  0  0  0
  -29.7693  -17.6203   19.9601 C   0  0  1  0  0  0
  -28.5906  -24.6946   19.7899 C   0  0  0  0  0  0
  -29.0833  -21.8508   20.4190 N   0  0  0  0  0  0
  -29.7312  -16.1512   20.5953 N   0  0  0  0  0  0
  -29.3357  -18.8162   22.1656 N   0  3  0  0  0  0
  -27.5221  -20.2379   20.1563 O   0  0  0  0  0  0
  -31.4756  -12.7526   19.2080 H   0  0  0  0  0  0
  -30.4309  -11.6461   20.0486 H   0  0  0  0  0  0
  -29.8488  -11.7370   17.6013 H   0  0  0  0  0  0
  -29.6163  -13.4651   17.7018 H   0  0  0  0  0  0
  -27.9540  -11.2803   18.9862 H   0  0  0  0  0  0
  -27.3980  -12.4553   17.8234 H   0  0  0  0  0  0
  -27.5957  -14.2550   19.4191 H   0  0  0  0  0  0
  -28.7556  -12.3040   21.4662 H   0  0  0  0  0  0
  -28.3626  -13.9794   21.7692 H   0  0  0  0  0  0
  -25.2765   -9.5690   22.4760 H   0  0  0  0  0  0
  -24.0007   -7.4637   22.7472 H   0  0  0  0  0  0
  -21.0849   -8.8783   19.8946 H   0  0  0  0  0  0
  -22.3707  -10.9680   19.6167 H   0  0  0  0  0  0
  -21.2006   -7.6146   23.9714 H   0  0  0  0  0  0
  -21.1479   -6.0519   25.9076 H   0  0  0  0  0  0
  -22.0598   -2.7609   23.2847 H   0  0  0  0  0  0
  -22.4061  -11.9848   22.4820 H   0  0  0  0  0  0
  -21.1056  -13.1204   22.2649 H   0  0  0  0  0  0
  -24.6384  -15.8429   20.5117 H   0  0  0  0  0  0
  -26.2443  -15.6296   20.0372 H   0  0  0  0  0  0
  -26.7274  -32.5259   23.0952 H   0  0  0  0  0  0
  -25.0038  -33.9586   25.0263 H   0  0  0  0  0  0
  -22.7526  -31.2797   21.3691 H   0  0  0  0  0  0
  -23.3756  -35.9571   23.3291 H   0  0  0  0  0  0
  -24.3567  -36.8902   22.2064 H   0  0  0  0  0  0
  -23.7246  -37.6434   23.6699 H   0  0  0  0  0  0
  -26.1595  -31.4574   20.6086 H   0  0  0  0  0  0
  -26.8763  -30.7590   22.0244 H   0  0  0  0  0  0
  -28.1269  -28.7786   21.2325 H   0  0  0  0  0  0
  -25.8999  -25.7878   19.0695 H   0  0  0  0  0  0
  -23.9814  -27.2612   19.0038 H   0  0  0  0  0  0
  -23.8131  -30.5482   19.3919 H   0  0  0  0  0  0
  -22.7899  -29.2191   19.8409 H   0  0  0  0  0  0
  -25.1308  -36.1830   25.0801 H   0  0  0  0  0  0
  -21.0005  -28.3312   24.1357 H   0  0  0  0  0  0
  -20.5661  -26.2329   23.3629 H   0  0  0  0  0  0
  -21.6648  -26.7406   22.1209 H   0  0  0  0  0  0
  -19.6922  -25.6274   21.1257 H   0  0  0  0  0  0
  -19.6700  -27.3164   20.6723 H   0  0  0  0  0  0
  -17.4204  -26.6669   21.4022 H   0  0  0  0  0  0
  -18.0341  -26.0073   22.9014 H   0  0  0  0  0  0
  -19.7960  -30.7283   24.2224 H   0  0  0  0  0  0
  -17.5036  -31.6261   24.5159 H   0  0  0  0  0  0
  -15.5368  -30.2968   23.7675 H   0  0  0  0  0  0
  -15.8693  -28.0814   22.7071 H   0  0  0  0  0  0
  -24.5887  -30.7080   25.7710 H   0  0  0  0  0  0
  -24.8851  -32.2940   26.4711 H   0  0  0  0  0  0
  -25.7965  -30.9003   27.0215 H   0  0  0  0  0  0
  -26.3008  -29.6656   24.1295 H   0  0  0  0  0  0
  -27.4002  -29.7262   25.4868 H   0  0  0  0  0  0
  -27.8920  -30.4180   23.9605 H   0  0  0  0  0  0
  -27.2628  -33.3682   26.1949 H   0  0  0  0  0  0
  -28.3904  -32.6834   25.0340 H   0  0  0  0  0  0
  -28.0643  -31.8529   26.5480 H   0  0  0  0  0  0
  -28.2570  -38.0088   24.7513 H   0  0  0  0  0  0
  -28.1090  -36.2607   24.6290 H   0  0  0  0  0  0
  -27.2287  -37.1422   25.8871 H   0  0  0  0  0  0
  -20.9477  -29.8754   21.6782 H   0  0  0  0  0  0
  -26.0142  -38.2793   24.1428 H   0  0  0  0  0  0
  -28.9098  -18.4760   18.1428 H   0  0  0  0  0  0
  -27.7586  -17.5559   19.1055 H   0  0  0  0  0  0
  -28.9679  -16.7241   18.1313 H   0  0  0  0  0  0
  -30.4963  -25.6513   19.2932 H   0  0  0  0  0  0
  -30.5935  -23.9031   19.3526 H   0  0  0  0  0  0
  -30.4965  -24.8270   20.8466 H   0  0  0  0  0  0
  -28.7228  -23.7641   17.8211 H   0  0  0  0  0  0
  -28.4091  -25.4927   17.7559 H   0  0  0  0  0  0
  -27.1315  -24.3529   18.1881 H   0  0  0  0  0  0
  -27.2002  -22.9616   20.3082 H   0  0  0  0  0  0
  -28.2301  -23.4150   21.6027 H   0  0  0  0  0  0
  -30.6651  -19.5217   20.7851 H   0  0  0  0  0  0
  -30.7612  -17.6588   19.5053 H   0  0  0  0  0  0
  -30.0747  -21.9966   20.5606 H   0  0  0  0  0  0
  -28.8241  -15.9129   20.9687 H   0  0  0  0  0  0
  -28.3803  -18.5163   22.2363 H   0  0  0  0  0  0
  -29.4504  -19.6408   22.7260 H   0  0  0  0  0  0
  -29.9461  -18.0974   22.5070 H   0  0  0  0  0  0
  1 25  1  0  0  0
  1 30  2  0  0  0
  1 80  1  0  0  0
  2  3  1  0  0  0
  2 25  1  0  0  0
  2 83  1  0  0  0
  2 84  1  0  0  0
  3  4  1  0  0  0
  3 85  1  0  0  0
  3 86  1  0  0  0
  4  5  1  0  0  0
  4 87  1  0  0  0
  4 88  1  0  0  0
  5  6  1  0  0  0
  5 26  1  0  0  0
  5 89  1  0  0  0
  6 25  1  0  0  0
  6 90  1  0  0  0
  6 91  1  0  0  0
  7  8  2  0  0  0
  7 26  1  0  0  0
  7 29  1  0  0  0
  8  9  1  0  0  0
  8 22  1  0  0  0
  9 10  1  0  0  0
  9 27  2  0  0  0
 10 11  2  0  0  0
 10 15  1  0  0  0
 11 12  1  0  0  0
 11 92  1  0  0  0
 12 13  2  0  0  0
 12 93  1  0  0  0
 13 14  1  0  0  0
 13 31  1  0  0  0
 14 15  2  0  0  0
 14 94  1  0  0  0
 15 95  1  0  0  0
 16 17  2  0  0  0
 16 21  1  0  0  0
 16 31  1  0  0  0
 17 18  1  0  0  0
 17 96  1  0  0  0
 18 19  2  0  0  0
 18 97  1  0  0  0
 19 20  1  0  0  0
 19 24  1  0  0  0
 20 21  2  0  0  0
 20 98  1  0  0  0
 21 23  1  0  0  0
 22 28  1  0  0  0
 22 32  2  0  0  0
 26 27  1  0  0  0
 28 99  1  0  0  0
 28100  1  0  0  0
 29101  1  0  0  0
 29102  1  0  0  0
 33 34  1  0  0  0
 33 66  1  0  0  0
 33 70  2  0  0  0
 34 36  1  0  0  0
 34 59  1  0  0  0
 34103  1  0  0  0
 35 44  2  0  0  0
 35 45  1  0  0  0
 35 68  1  0  0  0
 36 56  1  0  0  0
 36104  1  0  0  0
 37 39  1  0  0  0
 37 47  1  0  0  0
 37 66  1  0  0  0
 37105  1  0  0  0
 38 43  2  0  0  0
 38 46  1  0  0  0
 38 47  1  0  0  0
 39 64  1  0  0  0
 39 67  2  0  0  0
 40 52  1  0  0  0
 40 53  2  0  0  0
 40 58  1  0  0  0
 41106  1  0  0  0
 41107  1  0  0  0
 41108  1  0  0  0
 41 48  1  0  0  0
 42 43  1  0  0  0
 42 66  1  0  0  0
 42109  1  0  0  0
 42110  1  0  0  0
 43 44  1  0  0  0
 44111  1  0  0  0
 45 46  2  0  0  0
 45112  1  0  0  0
 46113  1  0  0  0
 47114  1  0  0  0
 47115  1  0  0  0
 48 56  1  0  0  0
 48 65  1  0  0  0
 48116  1  0  0  0
 49 50  1  0  0  0
 49 53  1  0  0  0
 49 64  1  0  0  0
 49117  1  0  0  0
 50 51  1  0  0  0
 50118  1  0  0  0
 50119  1  0  0  0
 51 52  1  0  0  0
 51120  1  0  0  0
 51121  1  0  0  0
 52122  1  0  0  0
 52123  1  0  0  0
 53 54  1  0  0  0
 54 55  2  0  0  0
 54124  1  0  0  0
 55 57  1  0  0  0
 55125  1  0  0  0
 56 69  2  0  0  0
 57 58  2  0  0  0
 57126  1  0  0  0
 58127  1  0  0  0
 59 60  1  0  0  0
 59 61  1  0  0  0
 59 62  1  0  0  0
 60128  1  0  0  0
 60129  1  0  0  0
 60130  1  0  0  0
 61131  1  0  0  0
 61132  1  0  0  0
 61133  1  0  0  0
 62134  1  0  0  0
 62135  1  0  0  0
 62136  1  0  0  0
 63 65  1  0  0  0
 63137  1  0  0  0
 63138  1  0  0  0
 63139  1  0  0  0
 64140  1  0  0  0
 65141  1  0  0  0
 68 78  1  0  0  0
 71 76  1  0  0  0
 71 79  1  0  0  0
 71 82  2  0  0  0
 72142  1  0  0  0
 72143  1  0  0  0
 72144  1  0  0  0
 72 77  1  0  0  0
 73145  1  0  0  0
 73146  1  0  0  0
 73147  1  0  0  0
 73 78  1  0  0  0
 74 78  1  0  0  0
 74148  1  0  0  0
 74149  1  0  0  0
 74150  1  0  0  0
 75 78  1  0  0  0
 75 79  1  0  0  0
 75151  1  0  0  0
 75152  1  0  0  0
 76 77  1  0  0  0
 76 81  1  0  0  0
 76153  1  0  0  0
 77 80  1  0  0  0
 77154  1  0  0  0
 79155  1  0  0  0
 80156  1  0  0  0
 81157  1  0  0  0
 81158  1  0  0  0
 81159  1  0  0  0
M  CHG  1  81   1
M  ISO  4   1 100  68 101  78 101  80 100
M  END
> <chiral flag>
0

> <version>
0

> <s_m_source_file>
/data/baiqing/PycharmProjects/Reinvent-master-3.2/result/LINK_invent/BTK/process_docking_weight1_custom_product_contain_oxygen_bond_distance_aromatic_linkinvent_7_9_3/rearranged_h_0190.sdf

> <i_m_source_file_index>
94

> <r_mmod_Potential_Energy-OPLS-2005>
223.335998535156

> <r_mmod_Stretch_Energy-OPLS-2005>
312.984558105469

> <r_mmod_Bend_Energy-OPLS-2005>
353.112854003906

> <r_mmod_Torsional_Energy-OPLS-2005>
260.185516357422

> <r_mmod_Improper_Torsional_Energy-OPLS-2005>
7.85966539382935

> <r_mmod_Van_der_Waal_Energy-OPLS-2005>
106.024635314941

> <r_mmod_Electrostatic_Energy-OPLS-2005>
-486.974792480469

> <r_mmod_Solvation_Energy-OPLS-2005>
-538.479064941406

> <b_mmod_Minimization_Converged-OPLS-2005>
0

> <r_mmod_RMS_Derivative-OPLS-2005>
1.17470061779022

$$$$
94
                    3D
 Structure written by MMmdl.
165173  0  0  1  0            999 V2000
  -30.6918  -14.4322   20.5839 C   0  0  0  0  0  0
  -30.4210  -12.2829   19.4179 C   0  0  0  0  0  0
  -29.5029  -12.5201   18.2014 C   0  0  0  0  0  0
  -28.0192  -12.3878   18.6011 C   0  0  0  0  0  0
  -27.6637  -13.1966   19.8786 C   0  0  2  0  0  0
  -28.6999  -12.9426   20.9951 C   0  0  0  0  0  0
  -25.2612  -13.8115   20.5630 C   0  0  0  0  0  0
  -24.1837  -13.0432   20.9154 C   0  0  0  0  0  0
  -24.6375  -11.6875   20.8712 C   0  0  0  0  0  0
  -23.9037  -10.4268   21.0388 C   0  0  0  0  0  0
  -24.3589   -9.4182   21.9157 C   0  0  0  0  0  0
  -23.6268   -8.2220   22.0725 C   0  0  0  0  0  0
  -22.4249   -8.0258   21.3528 C   0  0  0  0  0  0
  -21.9881   -9.0220   20.4622 C   0  0  0  0  0  0
  -22.7218  -10.2095   20.3028 C   0  0  0  0  0  0
  -21.6838   -6.0712   22.5265 C   0  0  0  0  0  0
  -21.4004   -6.5602   23.8211 C   0  0  0  0  0  0
  -21.3683   -5.6753   24.9162 C   0  0  0  0  0  0
  -21.6057   -4.3021   24.7210 C   0  0  0  0  0  0
  -21.8820   -3.8121   23.4329 C   0  0  0  0  0  0
  -21.9187   -4.6943   22.3394 C   0  0  0  0  0  0
  -22.7871  -13.5248   21.1813 C   0  0  0  0  0  0
  -22.1661   -4.2144   21.0967 F   0  0  0  0  0  0
  -21.5638   -3.4498   25.7724 F   0  0  0  0  0  0
  -30.0400  -13.2465   20.4594 N   0  0  0  0  0  0
  -26.3013  -12.9256   20.3312 N   0  0  0  0  0  0
  -25.9282  -11.6427   20.5689 N   0  0  0  0  0  0
  -22.0492  -12.8267   22.0368 N   0  0  0  0  0  0
  -25.4374  -15.1819   20.3982 N   0  0  0  0  0  0
  -31.7973  -14.6570   20.0782 O   0  0  0  0  0  0
  -21.6616   -6.8852   21.4239 O   0  0  0  0  0  0
  -22.3599  -14.5576   20.6680 O   0  0  0  0  0  0
  -24.6075  -31.8695   23.2130 C   0  0  0  0  0  0
  -25.8987  -32.4835   23.8410 C   0  0  1  0  0  0
  -27.2466  -27.4759   20.0893 C   0  0  0  0  0  0
  -25.5860  -33.8633   24.2342 N   0  0  0  0  0  0
  -23.3954  -30.4910   21.5496 C   0  0  2  0  0  0
  -24.8479  -28.9619   20.1097 C   0  0  0  0  0  0
  -22.7369  -29.4658   22.4992 C   0  0  0  0  0  0
  -18.0259  -28.1360   22.8493 C   0  0  0  0  0  0
  -24.1482  -36.7320   23.2641 C   0  0  0  0  0  0
  -25.9186  -30.8448   21.3643 C   0  0  0  0  0  0
  -25.9993  -29.4799   20.7158 C   0  0  0  0  0  0
  -27.1957  -28.7342   20.7211 C   0  0  0  0  0  0
  -26.0824  -26.9571   19.4840 C   0  0  0  0  0  0
  -24.8818  -27.6954   19.4955 C   0  0  0  0  0  0
  -23.6030  -29.8186   20.1637 C   0  0  0  0  0  0
  -25.4103  -36.3123   24.0345 C   0  0  1  0  0  0
  -20.5844  -28.3642   23.1322 C   0  0  2  0  0  0
  -20.6742  -26.9378   22.5422 C   0  0  0  0  0  0
  -19.5728  -26.6370   21.5206 C   0  0  0  0  0  0
  -18.1903  -26.7905   22.1613 C   0  0  0  0  0  0
  -19.1504  -28.8815   23.2907 C   0  0  0  0  0  0
  -18.9445  -30.1422   23.8917 C   0  0  0  0  0  0
  -17.6445  -30.6571   24.0566 C   0  0  0  0  0  0
  -25.9019  -34.9485   23.5144 C   0  0  0  0  0  0
  -16.5332  -29.9072   23.6324 C   0  0  0  0  0  0
  -16.7251  -28.6484   23.0348 C   0  0  0  0  0  0
  -26.4445  -31.6609   25.0721 C   0  0  0  0  0  0
  -25.3733  -31.3707   26.1486 C   0  0  0  0  0  0
  -27.0278  -30.3058   24.6082 C   0  0  0  0  0  0
  -27.6024  -32.4332   25.7471 C   0  0  0  0  0  0
  -27.5582  -37.1815   24.8464 C   0  0  0  0  0  0
  -21.4099  -29.3018   22.3731 N   0  0  0  0  0  0
  -26.4298  -37.3799   23.9403 N   0  0  0  0  0  0
  -24.6575  -31.0824   22.1013 N   0  0  0  0  0  0
  -23.4158  -28.8203   23.3023 O   0  0  0  0  0  0
  -28.4155  -26.7590   20.1303 O   0  0  0  0  0  0
  -26.5587  -34.8926   22.4709 O   0  0  0  0  0  0
  -23.5277  -32.1434   23.7542 O   0  0  0  0  0  0
  -30.3599  -17.8369   21.5071 C   0  0  0  0  0  0
  -29.9750  -16.7372   20.7965 C   0  0  0  0  0  0
  -29.4191  -17.2014   19.5788 C   0  0  0  0  0  0
  -29.4977  -18.5755   19.5881 C   0  0  0  0  0  0
  -29.0666  -19.6196   18.6206 C   0  0  0  0  0  0
  -30.9778  -22.1724   16.2258 C   0  0  0  0  0  0
  -30.2063  -25.4967   19.1764 C   0  0  0  0  0  0
  -29.8796  -24.0119   19.4232 C   0  0  0  0  0  0
  -28.6777  -22.0554   18.2866 C   0  0  0  0  0  0
  -28.9608  -26.3546   18.8850 C   0  0  0  0  0  0
  -29.6881  -23.2099   18.1097 C   0  0  2  0  0  0
  -28.8752  -16.3801   18.5907 N   0  0  0  0  0  0
  -30.0069  -15.3880   21.2250 N   0  0  0  0  0  0
  -29.2280  -20.8969   18.9993 N   0  0  0  0  0  0
  -30.9957  -22.7345   17.5926 N   0  3  0  0  0  0
  -28.5655  -19.3176   17.5345 O   0  0  0  0  0  0
  -30.0834  -18.9631   20.7734 O   0  0  0  0  0  0
  -31.4704  -12.3659   19.1324 H   0  0  0  0  0  0
  -30.3002  -11.2632   19.7880 H   0  0  0  0  0  0
  -29.7401  -11.8175   17.4031 H   0  0  0  0  0  0
  -29.6879  -13.5116   17.7840 H   0  0  0  0  0  0
  -27.8056  -11.3294   18.7592 H   0  0  0  0  0  0
  -27.3870  -12.7047   17.7715 H   0  0  0  0  0  0
  -27.7139  -14.2485   19.6127 H   0  0  0  0  0  0
  -28.6628  -11.8966   21.2976 H   0  0  0  0  0  0
  -28.4564  -13.5089   21.8948 H   0  0  0  0  0  0
  -25.2732   -9.5648   22.4738 H   0  0  0  0  0  0
  -23.9973   -7.4587   22.7423 H   0  0  0  0  0  0
  -21.0812   -8.8722   19.8922 H   0  0  0  0  0  0
  -22.3668  -10.9609   19.6119 H   0  0  0  0  0  0
  -21.1982   -7.6102   23.9709 H   0  0  0  0  0  0
  -21.1530   -6.0475   25.9072 H   0  0  0  0  0  0
  -22.0598   -2.7589   23.2825 H   0  0  0  0  0  0
  -22.4077  -11.9958   22.4826 H   0  0  0  0  0  0
  -21.1085  -13.1288   22.2491 H   0  0  0  0  0  0
  -24.6679  -15.8372   20.4676 H   0  0  0  0  0  0
  -26.2736  -15.5887   19.9925 H   0  0  0  0  0  0
  -26.7060  -32.5577   23.1181 H   0  0  0  0  0  0
  -25.0027  -33.9808   25.0498 H   0  0  0  0  0  0
  -22.6822  -31.3061   21.4099 H   0  0  0  0  0  0
  -23.3742  -35.9657   23.3326 H   0  0  0  0  0  0
  -24.3583  -36.8908   22.2054 H   0  0  0  0  0  0
  -23.7238  -37.6534   23.6637 H   0  0  0  0  0  0
  -26.0270  -31.6120   20.5960 H   0  0  0  0  0  0
  -26.8066  -30.9007   21.9818 H   0  0  0  0  0  0
  -28.0824  -29.1224   21.2040 H   0  0  0  0  0  0
  -26.0942  -25.9805   19.0216 H   0  0  0  0  0  0
  -23.9958  -27.2834   19.0333 H   0  0  0  0  0  0
  -23.6963  -30.5898   19.3981 H   0  0  0  0  0  0
  -22.7305  -29.2264   19.8799 H   0  0  0  0  0  0
  -25.1277  -36.2004   25.0839 H   0  0  0  0  0  0
  -20.9946  -28.3208   24.1436 H   0  0  0  0  0  0
  -20.5614  -26.2251   23.3607 H   0  0  0  0  0  0
  -21.6619  -26.7406   22.1235 H   0  0  0  0  0  0
  -19.6890  -25.6285   21.1222 H   0  0  0  0  0  0
  -19.6661  -27.3192   20.6747 H   0  0  0  0  0  0
  -17.4174  -26.6662   21.4015 H   0  0  0  0  0  0
  -18.0301  -26.0034   22.8994 H   0  0  0  0  0  0
  -19.7921  -30.7232   24.2290 H   0  0  0  0  0  0
  -17.5007  -31.6249   24.5154 H   0  0  0  0  0  0
  -15.5340  -30.2984   23.7635 H   0  0  0  0  0  0
  -15.8646  -28.0814   22.7058 H   0  0  0  0  0  0
  -24.5874  -30.7087   25.7836 H   0  0  0  0  0  0
  -24.8956  -32.2861   26.4989 H   0  0  0  0  0  0
  -25.8097  -30.8836   27.0213 H   0  0  0  0  0  0
  -26.2817  -29.6823   24.1138 H   0  0  0  0  0  0
  -27.4062  -29.7293   25.4533 H   0  0  0  0  0  0
  -27.8645  -30.4394   23.9221 H   0  0  0  0  0  0
  -27.2639  -33.3617   26.2086 H   0  0  0  0  0  0
  -28.3801  -32.6920   25.0273 H   0  0  0  0  0  0
  -28.0726  -31.8438   26.5353 H   0  0  0  0  0  0
  -28.2612  -38.0100   24.7500 H   0  0  0  0  0  0
  -28.1058  -36.2630   24.6294 H   0  0  0  0  0  0
  -27.2299  -37.1487   25.8868 H   0  0  0  0  0  0
  -20.9236  -29.8758   21.6985 H   0  0  0  0  0  0
  -26.0192  -38.2886   24.1379 H   0  0  0  0  0  0
  -30.8039  -18.0002   22.4802 H   0  0  0  0  0  0
  -31.9920  -21.9192   15.9167 H   0  0  0  0  0  0
  -30.5798  -22.8829   15.5006 H   0  0  0  0  0  0
  -30.3822  -21.2604   16.1775 H   0  0  0  0  0  0
  -30.9161  -25.5851   18.3542 H   0  0  0  0  0  0
  -30.7207  -25.9061   20.0478 H   0  0  0  0  0  0
  -28.9802  -23.9632   20.0401 H   0  0  0  0  0  0
  -30.6615  -23.5549   20.0315 H   0  0  0  0  0  0
  -28.3091  -21.7701   17.2990 H   0  0  0  0  0  0
  -27.7966  -22.4121   18.8217 H   0  0  0  0  0  0
  -28.2411  -25.8049   18.2774 H   0  0  0  0  0  0
  -29.2454  -27.2446   18.3234 H   0  0  0  0  0  0
  -29.2634  -23.8858   17.3643 H   0  0  0  0  0  0
  -29.2638  -15.4517   18.4797 H   0  0  0  0  0  0
  -28.6674  -16.8233   17.7000 H   0  0  0  0  0  0
  -29.1624  -15.0615   21.6706 H   0  0  0  0  0  0
  -29.6329  -21.0460   19.9141 H   0  0  0  0  0  0
  -31.6445  -23.5048   17.5880 H   0  0  0  0  0  0
  -31.3654  -22.0369   18.2180 H   0  0  0  0  0  0
  1 25  1  0  0  0
  1 30  2  0  0  0
  1 83  1  0  0  0
  2  3  1  0  0  0
  2 25  1  0  0  0
  2 88  1  0  0  0
  2 89  1  0  0  0
  3  4  1  0  0  0
  3 90  1  0  0  0
  3 91  1  0  0  0
  4  5  1  0  0  0
  4 92  1  0  0  0
  4 93  1  0  0  0
  5  6  1  0  0  0
  5 26  1  0  0  0
  5 94  1  0  0  0
  6 25  1  0  0  0
  6 95  1  0  0  0
  6 96  1  0  0  0
  7  8  2  0  0  0
  7 26  1  0  0  0
  7 29  1  0  0  0
  8  9  1  0  0  0
  8 22  1  0  0  0
  9 10  1  0  0  0
  9 27  2  0  0  0
 10 11  2  0  0  0
 10 15  1  0  0  0
 11 12  1  0  0  0
 11 97  1  0  0  0
 12 13  2  0  0  0
 12 98  1  0  0  0
 13 14  1  0  0  0
 13 31  1  0  0  0
 14 15  2  0  0  0
 14 99  1  0  0  0
 15100  1  0  0  0
 16 17  2  0  0  0
 16 21  1  0  0  0
 16 31  1  0  0  0
 17 18  1  0  0  0
 17101  1  0  0  0
 18 19  2  0  0  0
 18102  1  0  0  0
 19 20  1  0  0  0
 19 24  1  0  0  0
 20 21  2  0  0  0
 20103  1  0  0  0
 21 23  1  0  0  0
 22 28  1  0  0  0
 22 32  2  0  0  0
 26 27  1  0  0  0
 28104  1  0  0  0
 28105  1  0  0  0
 29106  1  0  0  0
 29107  1  0  0  0
 33 34  1  0  0  0
 33 66  1  0  0  0
 33 70  2  0  0  0
 34 36  1  0  0  0
 34 59  1  0  0  0
 34108  1  0  0  0
 35 44  2  0  0  0
 35 45  1  0  0  0
 35 68  1  0  0  0
 36 56  1  0  0  0
 36109  1  0  0  0
 37 39  1  0  0  0
 37 47  1  0  0  0
 37 66  1  0  0  0
 37110  1  0  0  0
 38 43  2  0  0  0
 38 46  1  0  0  0
 38 47  1  0  0  0
 39 64  1  0  0  0
 39 67  2  0  0  0
 40 52  1  0  0  0
 40 53  2  0  0  0
 40 58  1  0  0  0
 41111  1  0  0  0
 41112  1  0  0  0
 41113  1  0  0  0
 41 48  1  0  0  0
 42 43  1  0  0  0
 42 66  1  0  0  0
 42114  1  0  0  0
 42115  1  0  0  0
 43 44  1  0  0  0
 44116  1  0  0  0
 45 46  2  0  0  0
 45117  1  0  0  0
 46118  1  0  0  0
 47119  1  0  0  0
 47120  1  0  0  0
 48 56  1  0  0  0
 48 65  1  0  0  0
 48121  1  0  0  0
 49 50  1  0  0  0
 49 53  1  0  0  0
 49 64  1  0  0  0
 49122  1  0  0  0
 50 51  1  0  0  0
 50123  1  0  0  0
 50124  1  0  0  0
 51 52  1  0  0  0
 51125  1  0  0  0
 51126  1  0  0  0
 52127  1  0  0  0
 52128  1  0  0  0
 53 54  1  0  0  0
 54 55  2  0  0  0
 54129  1  0  0  0
 55 57  1  0  0  0
 55130  1  0  0  0
 56 69  2  0  0  0
 57 58  2  0  0  0
 57131  1  0  0  0
 58132  1  0  0  0
 59 60  1  0  0  0
 59 61  1  0  0  0
 59 62  1  0  0  0
 60133  1  0  0  0
 60134  1  0  0  0
 60135  1  0  0  0
 61136  1  0  0  0
 61137  1  0  0  0
 61138  1  0  0  0
 62139  1  0  0  0
 62140  1  0  0  0
 62141  1  0  0  0
 63 65  1  0  0  0
 63142  1  0  0  0
 63143  1  0  0  0
 63144  1  0  0  0
 64145  1  0  0  0
 65146  1  0  0  0
 68 80  1  0  0  0
 71 72  2  0  0  0
 71 87  1  0  0  0
 71147  1  0  0  0
 72 73  1  0  0  0
 72 83  1  0  0  0
 73 74  2  0  0  0
 73 82  1  0  0  0
 74 75  1  0  0  0
 74 87  1  0  0  0
 75 84  1  0  0  0
 75 86  2  0  0  0
 76 85  1  0  0  0
 76148  1  0  0  0
 76149  1  0  0  0
 76150  1  0  0  0
 77 78  1  0  0  0
 77 80  1  0  0  0
 77151  1  0  0  0
 77152  1  0  0  0
 78153  1  0  0  0
 78154  1  0  0  0
 78 81  1  0  0  0
 79 81  1  0  0  0
 79 84  1  0  0  0
 79155  1  0  0  0
 79156  1  0  0  0
 80157  1  0  0  0
 80158  1  0  0  0
 81 85  1  0  0  0
 81159  1  0  0  0
 82160  1  0  0  0
 82161  1  0  0  0
 83162  1  0  0  0
 84163  1  0  0  0
 85164  1  0  0  0
 85165  1  0  0  0
M  CHG  1  85   1
M  ISO  4   1 100  68 101  80 101  83 100
M  END
> <chiral flag>
0

> <version>
0

> <s_m_source_file>
/data/baiqing/PycharmProjects/Reinvent-master-3.2/result/LINK_invent/BTK/process_docking_weight1_custom_product_contain_oxygen_bond_distance_aromatic_linkinvent_7_9_3/rearranged_h_0190.sdf

> <i_m_source_file_index>
95

> <r_mmod_Potential_Energy-OPLS-2005>
-241.515411376953

> <r_mmod_Stretch_Energy-OPLS-2005>
32.5174674987793

> <r_mmod_Bend_Energy-OPLS-2005>
109.690139770508

> <r_mmod_Torsional_Energy-OPLS-2005>
336.597534179688

> <r_mmod_Improper_Torsional_Energy-OPLS-2005>
10.0290460586548

> <r_mmod_Van_der_Waal_Energy-OPLS-2005>
129.146575927734

> <r_mmod_Electrostatic_Energy-OPLS-2005>
-379.925903320312

> <r_mmod_Solvation_Energy-OPLS-2005>
-489.094909667969

> <b_mmod_Minimization_Converged-OPLS-2005>
0

> <r_mmod_RMS_Derivative-OPLS-2005>
2.71675300598145

$$$$
95
                    3D
 Structure written by MMmdl.
160168  0  0  1  0            999 V2000
  -30.7070  -14.4595   20.5778 C   0  0  0  0  0  0
  -30.4236  -12.2964   19.4237 C   0  0  0  0  0  0
  -29.4970  -12.4969   18.2069 C   0  0  0  0  0  0
  -28.0171  -12.3594   18.6177 C   0  0  0  0  0  0
  -27.6614  -13.2026   19.8714 C   0  0  2  0  0  0
  -28.7018  -12.9815   20.9933 C   0  0  0  0  0  0
  -25.2590  -13.8151   20.5671 C   0  0  0  0  0  0
  -24.1839  -13.0434   20.9176 C   0  0  0  0  0  0
  -24.6389  -11.6902   20.8734 C   0  0  0  0  0  0
  -23.9058  -10.4288   21.0405 C   0  0  0  0  0  0
  -24.3613   -9.4206   21.9184 C   0  0  0  0  0  0
  -23.6289   -8.2243   22.0754 C   0  0  0  0  0  0
  -22.4272   -8.0279   21.3541 C   0  0  0  0  0  0
  -21.9909   -9.0252   20.4642 C   0  0  0  0  0  0
  -22.7238  -10.2131   20.3050 C   0  0  0  0  0  0
  -21.6852   -6.0736   22.5282 C   0  0  0  0  0  0
  -21.4017   -6.5641   23.8215 C   0  0  0  0  0  0
  -21.3659   -5.6792   24.9177 C   0  0  0  0  0  0
  -21.6044   -4.3054   24.7227 C   0  0  0  0  0  0
  -21.8818   -3.8148   23.4346 C   0  0  0  0  0  0
  -21.9192   -4.6964   22.3404 C   0  0  0  0  0  0
  -22.7861  -13.5232   21.1847 C   0  0  0  0  0  0
  -22.1660   -4.2152   21.0979 F   0  0  0  0  0  0
  -21.5627   -3.4536   25.7738 F   0  0  0  0  0  0
  -30.0373  -13.2818   20.4439 N   0  0  0  0  0  0
  -26.3016  -12.9316   20.3333 N   0  0  0  0  0  0
  -25.9311  -11.6479   20.5749 N   0  0  0  0  0  0
  -22.0501  -12.8216   22.0396 N   0  0  0  0  0  0
  -25.4302  -15.1875   20.4078 N   0  0  0  0  0  0
  -31.8357  -14.6399   20.1095 O   0  0  0  0  0  0
  -21.6635   -6.8880   21.4242 O   0  0  0  0  0  0
  -22.3551  -14.5548   20.6715 O   0  0  0  0  0  0
  -24.6168  -31.8685   23.2119 C   0  0  0  0  0  0
  -25.9055  -32.4827   23.8412 C   0  0  1  0  0  0
  -27.2314  -27.4325   20.0841 C   0  0  0  0  0  0
  -25.5913  -33.8626   24.2339 N   0  0  0  0  0  0
  -23.4040  -30.4950   21.5533 C   0  0  2  0  0  0
  -24.8479  -28.9681   20.1111 C   0  0  0  0  0  0
  -22.7424  -29.4661   22.4990 C   0  0  0  0  0  0
  -18.0271  -28.1386   22.8488 C   0  0  0  0  0  0
  -24.1483  -36.7304   23.2639 C   0  0  0  0  0  0
  -25.9354  -30.8322   21.3671 C   0  0  0  0  0  0
  -26.0108  -29.4699   20.7078 C   0  0  0  0  0  0
  -27.2055  -28.7109   20.6894 C   0  0  0  0  0  0
  -26.0441  -26.9530   19.4768 C   0  0  0  0  0  0
  -24.8602  -27.7092   19.4924 C   0  0  0  0  0  0
  -23.6115  -29.8351   20.1647 C   0  0  0  0  0  0
  -25.4109  -36.3115   24.0343 C   0  0  1  0  0  0
  -20.5867  -28.3665   23.1316 C   0  0  2  0  0  0
  -20.6769  -26.9404   22.5407 C   0  0  0  0  0  0
  -19.5746  -26.6391   21.5205 C   0  0  0  0  0  0
  -18.1923  -26.7930   22.1616 C   0  0  0  0  0  0
  -19.1523  -28.8842   23.2893 C   0  0  0  0  0  0
  -18.9453  -30.1446   23.8905 C   0  0  0  0  0  0
  -17.6455  -30.6583   24.0568 C   0  0  0  0  0  0
  -25.9042  -34.9482   23.5137 C   0  0  0  0  0  0
  -16.5343  -29.9086   23.6333 C   0  0  0  0  0  0
  -16.7259  -28.6511   23.0342 C   0  0  0  0  0  0
  -26.4482  -31.6613   25.0741 C   0  0  0  0  0  0
  -25.3751  -31.3709   26.1491 C   0  0  0  0  0  0
  -27.0333  -30.3071   24.6112 C   0  0  0  0  0  0
  -27.6064  -32.4333   25.7494 C   0  0  0  0  0  0
  -27.5579  -37.1808   24.8468 C   0  0  0  0  0  0
  -21.4151  -29.3035   22.3732 N   0  0  0  0  0  0
  -26.4292  -37.3802   23.9414 N   0  0  0  0  0  0
  -24.6704  -31.0793   22.1021 N   0  0  0  0  0  0
  -23.4194  -28.8182   23.3013 O   0  0  0  0  0  0
  -28.3969  -26.6836   20.1064 O   0  0  0  0  0  0
  -26.5592  -34.8929   22.4690 O   0  0  0  0  0  0
  -23.5361  -32.1433   23.7518 O   0  0  0  0  0  0
  -31.4334  -18.7817   21.4626 C   0  0  0  0  0  0
  -30.1761  -19.3302   21.2173 C   0  0  0  0  0  0
  -30.2499  -16.8446   21.1471 C   0  0  0  0  0  0
  -32.7401  -19.4170   21.8454 C   0  0  0  0  0  0
  -31.1371  -21.8161   19.6286 C   0  0  0  0  0  0
  -31.0557  -22.4121   22.1253 C   0  0  0  0  0  0
  -29.4708  -24.4297   20.3874 C   0  0  0  0  0  0
  -28.2267  -25.2594   20.0074 C   0  0  0  0  0  0
  -29.1038  -22.9378   20.6340 C   0  0  2  0  0  0
  -30.2624  -21.9158   20.8996 C   0  0  0  0  0  0
  -31.4476  -17.3768   21.4015 N   0  0  0  0  0  0
  -29.6168  -20.6277   21.1969 N   0  0  0  0  0  0
  -29.9809  -15.4495   21.1258 N   0  0  0  0  0  0
  -28.3833  -22.4917   19.5999 F   0  0  0  0  0  0
  -28.9975  -18.0558   20.9583 S   0  0  0  0  0  0
  -31.4693  -12.3904   19.1256 H   0  0  0  0  0  0
  -30.3187  -11.2864   19.8239 H   0  0  0  0  0  0
  -29.7373  -11.7704   17.4295 H   0  0  0  0  0  0
  -29.6676  -13.4814   17.7693 H   0  0  0  0  0  0
  -27.8285  -11.3037   18.8187 H   0  0  0  0  0  0
  -27.3677  -12.6296   17.7838 H   0  0  0  0  0  0
  -27.7062  -14.2492   19.5703 H   0  0  0  0  0  0
  -28.6735  -11.9464   21.3369 H   0  0  0  0  0  0
  -28.4598  -13.5802   21.8726 H   0  0  0  0  0  0
  -25.2761   -9.5684   22.4754 H   0  0  0  0  0  0
  -24.0002   -7.4634   22.7472 H   0  0  0  0  0  0
  -21.0843   -8.8768   19.8942 H   0  0  0  0  0  0
  -22.3704  -10.9666   19.6150 H   0  0  0  0  0  0
  -21.2013   -7.6150   23.9723 H   0  0  0  0  0  0
  -21.1482   -6.0520   25.9080 H   0  0  0  0  0  0
  -22.0598   -2.7611   23.2845 H   0  0  0  0  0  0
  -22.4108  -11.9861   22.4760 H   0  0  0  0  0  0
  -21.1116  -13.1232   22.2602 H   0  0  0  0  0  0
  -24.6599  -15.8385   20.5166 H   0  0  0  0  0  0
  -26.2719  -15.6286   20.0596 H   0  0  0  0  0  0
  -26.7124  -32.5537   23.1175 H   0  0  0  0  0  0
  -25.0100  -33.9784   25.0510 H   0  0  0  0  0  0
  -22.6936  -31.3131   21.4185 H   0  0  0  0  0  0
  -23.3748  -35.9632   23.3318 H   0  0  0  0  0  0
  -24.3575  -36.8905   22.2049 H   0  0  0  0  0  0
  -23.7221  -37.6512   23.6640 H   0  0  0  0  0  0
  -26.0541  -31.6011   20.6018 H   0  0  0  0  0  0
  -26.8215  -30.8790   21.9887 H   0  0  0  0  0  0
  -28.1027  -29.0934   21.1564 H   0  0  0  0  0  0
  -26.0042  -25.9955   18.9796 H   0  0  0  0  0  0
  -23.9675  -27.3206   19.0213 H   0  0  0  0  0  0
  -23.7215  -30.6148   19.4100 H   0  0  0  0  0  0
  -22.7340  -29.2589   19.8648 H   0  0  0  0  0  0
  -25.1276  -36.1991   25.0834 H   0  0  0  0  0  0
  -20.9949  -28.3226   24.1441 H   0  0  0  0  0  0
  -20.5696  -26.2263   23.3591 H   0  0  0  0  0  0
  -21.6638  -26.7464   22.1187 H   0  0  0  0  0  0
  -19.6915  -25.6309   21.1221 H   0  0  0  0  0  0
  -19.6697  -27.3219   20.6754 H   0  0  0  0  0  0
  -17.4198  -26.6684   21.4009 H   0  0  0  0  0  0
  -18.0316  -26.0068   22.9011 H   0  0  0  0  0  0
  -19.7929  -30.7254   24.2286 H   0  0  0  0  0  0
  -17.5011  -31.6264   24.5166 H   0  0  0  0  0  0
  -15.5345  -30.2985   23.7663 H   0  0  0  0  0  0
  -15.8662  -28.0834   22.7048 H   0  0  0  0  0  0
  -24.5906  -30.7085   25.7812 H   0  0  0  0  0  0
  -24.8962  -32.2867   26.4973 H   0  0  0  0  0  0
  -25.8100  -30.8839   27.0231 H   0  0  0  0  0  0
  -26.2886  -29.6806   24.1192 H   0  0  0  0  0  0
  -27.4159  -29.7326   25.4558 H   0  0  0  0  0  0
  -27.8689  -30.4413   23.9237 H   0  0  0  0  0  0
  -27.2694  -33.3622   26.2103 H   0  0  0  0  0  0
  -28.3848  -32.6914   25.0300 H   0  0  0  0  0  0
  -28.0766  -31.8444   26.5381 H   0  0  0  0  0  0
  -28.2602  -38.0100   24.7518 H   0  0  0  0  0  0
  -28.1067  -36.2634   24.6288 H   0  0  0  0  0  0
  -27.2297  -37.1450   25.8871 H   0  0  0  0  0  0
  -20.9322  -29.8774   21.6967 H   0  0  0  0  0  0
  -26.0186  -38.2880   24.1422 H   0  0  0  0  0  0
  -32.7424  -19.6988   22.8977 H   0  0  0  0  0  0
  -32.9867  -20.2969   21.2610 H   0  0  0  0  0  0
  -33.5722  -18.7263   21.7066 H   0  0  0  0  0  0
  -31.6987  -22.7350   19.4588 H   0  0  0  0  0  0
  -30.5311  -21.6423   18.7392 H   0  0  0  0  0  0
  -31.8584  -21.0066   19.6536 H   0  0  0  0  0  0
  -31.5844  -23.3408   21.9091 H   0  0  0  0  0  0
  -31.8020  -21.7135   22.4796 H   0  0  0  0  0  0
  -30.3923  -22.6080   22.9690 H   0  0  0  0  0  0
  -29.9076  -24.8454   21.2951 H   0  0  0  0  0  0
  -30.2218  -24.5271   19.6046 H   0  0  0  0  0  0
  -27.4060  -24.9582   20.6618 H   0  0  0  0  0  0
  -27.9453  -24.9959   18.9871 H   0  0  0  0  0  0
  -28.4158  -22.9172   21.4823 H   0  0  0  0  0  0
  -28.6264  -20.6414   20.9684 H   0  0  0  0  0  0
  -29.0395  -15.1874   21.3686 H   0  0  0  0  0  0
  1 25  1  0  0  0
  1 30  2  0  0  0
  1 83  1  0  0  0
  2  3  1  0  0  0
  2 25  1  0  0  0
  2 86  1  0  0  0
  2 87  1  0  0  0
  3  4  1  0  0  0
  3 88  1  0  0  0
  3 89  1  0  0  0
  4  5  1  0  0  0
  4 90  1  0  0  0
  4 91  1  0  0  0
  5  6  1  0  0  0
  5 26  1  0  0  0
  5 92  1  0  0  0
  6 25  1  0  0  0
  6 93  1  0  0  0
  6 94  1  0  0  0
  7  8  2  0  0  0
  7 26  1  0  0  0
  7 29  1  0  0  0
  8  9  1  0  0  0
  8 22  1  0  0  0
  9 10  1  0  0  0
  9 27  2  0  0  0
 10 11  2  0  0  0
 10 15  1  0  0  0
 11 12  1  0  0  0
 11 95  1  0  0  0
 12 13  2  0  0  0
 12 96  1  0  0  0
 13 14  1  0  0  0
 13 31  1  0  0  0
 14 15  2  0  0  0
 14 97  1  0  0  0
 15 98  1  0  0  0
 16 17  2  0  0  0
 16 21  1  0  0  0
 16 31  1  0  0  0
 17 18  1  0  0  0
 17 99  1  0  0  0
 18 19  2  0  0  0
 18100  1  0  0  0
 19 20  1  0  0  0
 19 24  1  0  0  0
 20 21  2  0  0  0
 20101  1  0  0  0
 21 23  1  0  0  0
 22 28  1  0  0  0
 22 32  2  0  0  0
 26 27  1  0  0  0
 28102  1  0  0  0
 28103  1  0  0  0
 29104  1  0  0  0
 29105  1  0  0  0
 33 34  1  0  0  0
 33 66  1  0  0  0
 33 70  2  0  0  0
 34 36  1  0  0  0
 34 59  1  0  0  0
 34106  1  0  0  0
 35 44  2  0  0  0
 35 45  1  0  0  0
 35 68  1  0  0  0
 36 56  1  0  0  0
 36107  1  0  0  0
 37 39  1  0  0  0
 37 47  1  0  0  0
 37 66  1  0  0  0
 37108  1  0  0  0
 38 43  2  0  0  0
 38 46  1  0  0  0
 38 47  1  0  0  0
 39 64  1  0  0  0
 39 67  2  0  0  0
 40 52  1  0  0  0
 40 53  2  0  0  0
 40 58  1  0  0  0
 41109  1  0  0  0
 41110  1  0  0  0
 41111  1  0  0  0
 41 48  1  0  0  0
 42 43  1  0  0  0
 42 66  1  0  0  0
 42112  1  0  0  0
 42113  1  0  0  0
 43 44  1  0  0  0
 44114  1  0  0  0
 45 46  2  0  0  0
 45115  1  0  0  0
 46116  1  0  0  0
 47117  1  0  0  0
 47118  1  0  0  0
 48 56  1  0  0  0
 48 65  1  0  0  0
 48119  1  0  0  0
 49 50  1  0  0  0
 49 53  1  0  0  0
 49 64  1  0  0  0
 49120  1  0  0  0
 50 51  1  0  0  0
 50121  1  0  0  0
 50122  1  0  0  0
 51 52  1  0  0  0
 51123  1  0  0  0
 51124  1  0  0  0
 52125  1  0  0  0
 52126  1  0  0  0
 53 54  1  0  0  0
 54 55  2  0  0  0
 54127  1  0  0  0
 55 57  1  0  0  0
 55128  1  0  0  0
 56 69  2  0  0  0
 57 58  2  0  0  0
 57129  1  0  0  0
 58130  1  0  0  0
 59 60  1  0  0  0
 59 61  1  0  0  0
 59 62  1  0  0  0
 60131  1  0  0  0
 60132  1  0  0  0
 60133  1  0  0  0
 61134  1  0  0  0
 61135  1  0  0  0
 61136  1  0  0  0
 62137  1  0  0  0
 62138  1  0  0  0
 62139  1  0  0  0
 63 65  1  0  0  0
 63140  1  0  0  0
 63141  1  0  0  0
 63142  1  0  0  0
 64143  1  0  0  0
 65144  1  0  0  0
 68 78  1  0  0  0
 71 72  2  0  0  0
 71 74  1  0  0  0
 71 81  1  0  0  0
 72 82  1  0  0  0
 72 85  1  0  0  0
 73 81  2  0  0  0
 73 83  1  0  0  0
 73 85  1  0  0  0
 74145  1  0  0  0
 74146  1  0  0  0
 74147  1  0  0  0
 75148  1  0  0  0
 75149  1  0  0  0
 75150  1  0  0  0
 75 80  1  0  0  0
 76 80  1  0  0  0
 76151  1  0  0  0
 76152  1  0  0  0
 76153  1  0  0  0
 77 78  1  0  0  0
 77 79  1  0  0  0
 77154  1  0  0  0
 77155  1  0  0  0
 78156  1  0  0  0
 78157  1  0  0  0
 79 80  1  0  0  0
 79 84  1  0  0  0
 79158  1  0  0  0
 80 82  1  0  0  0
 82159  1  0  0  0
 83160  1  0  0  0
M  ISO  4   1 100  68 101  78 101  83 100
M  END
> <chiral flag>
0

> <version>
0

> <s_m_source_file>
/data/baiqing/PycharmProjects/Reinvent-master-3.2/result/LINK_invent/BTK/process_docking_weight1_custom_product_contain_oxygen_bond_distance_aromatic_linkinvent_7_9_3/rearranged_h_0190.sdf

> <i_m_source_file_index>
96

> <r_mmod_Potential_Energy-OPLS-2005>
-91.0044631958008

> <r_mmod_Stretch_Energy-OPLS-2005>
39.5444259643555

> <r_mmod_Bend_Energy-OPLS-2005>
134.321838378906

> <r_mmod_Torsional_Energy-OPLS-2005>
220.156463623047

> <r_mmod_Improper_Torsional_Energy-OPLS-2005>
6.12017107009888

> <r_mmod_Van_der_Waal_Energy-OPLS-2005>
143.82536315918

> <r_mmod_Electrostatic_Energy-OPLS-2005>
-427.266052246094

> <r_mmod_Solvation_Energy-OPLS-2005>
-220.618774414062

> <b_mmod_Minimization_Converged-OPLS-2005>
0

> <r_mmod_RMS_Derivative-OPLS-2005>
1.16582846641541

$$$$
96
                    3D
 Structure written by MMmdl.
169177  0  0  1  0            999 V2000
  -30.6350  -14.5543   20.6008 C   0  0  0  0  0  0
  -30.4415  -12.3570   19.4311 C   0  0  0  0  0  0
  -29.5046  -12.5175   18.2133 C   0  0  0  0  0  0
  -28.0268  -12.3580   18.6247 C   0  0  0  0  0  0
  -27.6631  -13.2031   19.8740 C   0  0  2  0  0  0
  -28.7022  -12.9736   20.9941 C   0  0  0  0  0  0
  -25.2592  -13.8131   20.5672 C   0  0  0  0  0  0
  -24.1835  -13.0423   20.9160 C   0  0  0  0  0  0
  -24.6386  -11.6885   20.8719 C   0  0  0  0  0  0
  -23.9046  -10.4278   21.0399 C   0  0  0  0  0  0
  -24.3594   -9.4201   21.9189 C   0  0  0  0  0  0
  -23.6271   -8.2232   22.0761 C   0  0  0  0  0  0
  -22.4259   -8.0262   21.3542 C   0  0  0  0  0  0
  -21.9889   -9.0234   20.4652 C   0  0  0  0  0  0
  -22.7214  -10.2111   20.3059 C   0  0  0  0  0  0
  -21.6844   -6.0720   22.5280 C   0  0  0  0  0  0
  -21.4008   -6.5630   23.8210 C   0  0  0  0  0  0
  -21.3664   -5.6787   24.9175 C   0  0  0  0  0  0
  -21.6055   -4.3049   24.7233 C   0  0  0  0  0  0
  -21.8815   -3.8137   23.4353 C   0  0  0  0  0  0
  -21.9188   -4.6950   22.3407 C   0  0  0  0  0  0
  -22.7864  -13.5226   21.1855 C   0  0  0  0  0  0
  -22.1657   -4.2134   21.0984 F   0  0  0  0  0  0
  -21.5640   -3.4535   25.7749 F   0  0  0  0  0  0
  -30.0322  -13.3319   20.4606 N   0  0  0  0  0  0
  -26.3021  -12.9300   20.3322 N   0  0  0  0  0  0
  -25.9305  -11.6463   20.5723 N   0  0  0  0  0  0
  -22.0495  -12.8218   22.0406 N   0  0  0  0  0  0
  -25.4323  -15.1857   20.4128 N   0  0  0  0  0  0
  -31.7150  -14.8209   20.0609 O   0  0  0  0  0  0
  -21.6626   -6.8857   21.4239 O   0  0  0  0  0  0
  -22.3565  -14.5545   20.6722 O   0  0  0  0  0  0
  -24.6198  -31.8595   23.2067 C   0  0  0  0  0  0
  -25.9073  -32.4772   23.8363 C   0  0  1  0  0  0
  -27.2374  -27.3523   20.1161 C   0  0  0  0  0  0
  -25.5926  -33.8578   24.2293 N   0  0  0  0  0  0
  -23.4149  -30.4789   21.5499 C   0  0  2  0  0  0
  -24.8679  -28.9398   20.1133 C   0  0  0  0  0  0
  -22.7458  -29.4564   22.4984 C   0  0  0  0  0  0
  -18.0272  -28.1348   22.8475 C   0  0  0  0  0  0
  -24.1492  -36.7277   23.2647 C   0  0  0  0  0  0
  -25.9522  -30.8003   21.3750 C   0  0  0  0  0  0
  -26.0322  -29.4287   20.7207 C   0  0  0  0  0  0
  -27.2226  -28.6448   20.7181 C   0  0  0  0  0  0
  -26.0575  -26.9074   19.4884 C   0  0  0  0  0  0
  -24.8802  -27.6815   19.4883 C   0  0  0  0  0  0
  -23.6291  -29.8131   20.1633 C   0  0  0  0  0  0
  -25.4109  -36.3064   24.0343 C   0  0  1  0  0  0
  -20.5871  -28.3633   23.1311 C   0  0  2  0  0  0
  -20.6771  -26.9369   22.5422 C   0  0  0  0  0  0
  -19.5759  -26.6355   21.5206 C   0  0  0  0  0  0
  -18.1926  -26.7894   22.1598 C   0  0  0  0  0  0
  -19.1528  -28.8813   23.2878 C   0  0  0  0  0  0
  -18.9453  -30.1427   23.8883 C   0  0  0  0  0  0
  -17.6451  -30.6569   24.0539 C   0  0  0  0  0  0
  -25.9054  -34.9435   23.5112 C   0  0  0  0  0  0
  -16.5340  -29.9062   23.6321 C   0  0  0  0  0  0
  -16.7257  -28.6478   23.0339 C   0  0  0  0  0  0
  -26.4489  -31.6579   25.0712 C   0  0  0  0  0  0
  -25.3724  -31.3710   26.1438 C   0  0  0  0  0  0
  -27.0369  -30.3024   24.6136 C   0  0  0  0  0  0
  -27.6036  -32.4332   25.7483 C   0  0  0  0  0  0
  -27.5571  -37.1782   24.8470 C   0  0  0  0  0  0
  -21.4187  -29.2983   22.3727 N   0  0  0  0  0  0
  -26.4279  -37.3761   23.9421 N   0  0  0  0  0  0
  -24.6798  -31.0620   22.1010 N   0  0  0  0  0  0
  -23.4190  -28.8094   23.3047 O   0  0  0  0  0  0
  -28.3516  -26.5091   20.1064 O   0  0  0  0  0  0
  -26.5594  -34.8900   22.4663 O   0  0  0  0  0  0
  -23.5374  -32.1378   23.7409 O   0  0  0  0  0  0
  -29.2390  -17.3023   22.6788 C   0  0  0  0  0  0
  -29.8430  -16.8516   21.5336 C   0  0  0  0  0  0
  -29.7456  -19.1408   21.0777 C   0  0  0  0  0  0
  -29.9027  -20.4926   20.3995 C   0  0  0  0  0  0
  -32.6667  -25.4941   21.9334 C   0  0  0  0  0  0
  -27.5581  -23.5148   19.5572 C   0  0  0  0  0  0
  -32.2017  -22.4026   21.5243 C   0  0  0  0  0  0
  -30.6247  -23.5573   23.0504 C   0  0  0  0  0  0
  -31.6583  -24.7704   21.0153 C   0  0  0  0  0  0
  -28.3515  -25.4280   21.0981 C   0  0  0  0  0  0
  -28.4766  -23.8652   20.7388 C   0  0  2  0  0  0
  -29.8226  -22.9789   20.6734 C   0  0  1  0  0  0
  -31.0492  -23.4459   21.5662 C   0  0  0  0  0  0
  -30.1351  -17.9084   20.6238 N   0  0  0  0  0  0
  -29.4980  -21.5577   21.0519 N   0  0  0  0  0  0
  -30.5435  -20.4371   19.1820 N   0  0  0  0  0  0
  -29.9513  -15.4178   21.3939 N   0  0  0  0  0  0
  -29.0273  -19.0311   22.6890 S   0  0  0  0  0  0
  -31.4826  -12.4850   19.1326 H   0  0  0  0  0  0
  -30.3721  -11.3423   19.8277 H   0  0  0  0  0  0
  -29.7553  -11.7813   17.4488 H   0  0  0  0  0  0
  -29.6600  -13.4947   17.7544 H   0  0  0  0  0  0
  -27.8570  -11.3018   18.8376 H   0  0  0  0  0  0
  -27.3708  -12.6055   17.7886 H   0  0  0  0  0  0
  -27.7071  -14.2516   19.5769 H   0  0  0  0  0  0
  -28.6983  -11.9243   21.2923 H   0  0  0  0  0  0
  -28.4280  -13.5215   21.8963 H   0  0  0  0  0  0
  -25.2729   -9.5680   22.4772 H   0  0  0  0  0  0
  -23.9981   -7.4628   22.7479 H   0  0  0  0  0  0
  -21.0821   -8.8754   19.8947 H   0  0  0  0  0  0
  -22.3676  -10.9656   19.6168 H   0  0  0  0  0  0
  -21.1986   -7.6136   23.9711 H   0  0  0  0  0  0
  -21.1500   -6.0519   25.9082 H   0  0  0  0  0  0
  -22.0588   -2.7596   23.2863 H   0  0  0  0  0  0
  -22.4072  -11.9859   22.4788 H   0  0  0  0  0  0
  -21.1125  -13.1278   22.2630 H   0  0  0  0  0  0
  -24.6666  -15.8398   20.5299 H   0  0  0  0  0  0
  -26.2915  -15.6288   20.1135 H   0  0  0  0  0  0
  -26.7138  -32.5493   23.1118 H   0  0  0  0  0  0
  -25.0131  -33.9747   25.0469 H   0  0  0  0  0  0
  -22.7010  -31.2942   21.4065 H   0  0  0  0  0  0
  -23.3748  -35.9614   23.3323 H   0  0  0  0  0  0
  -24.3576  -36.8887   22.2057 H   0  0  0  0  0  0
  -23.7241  -37.6485   23.6656 H   0  0  0  0  0  0
  -26.0746  -31.5635   20.6059 H   0  0  0  0  0  0
  -26.8357  -30.8557   21.9975 H   0  0  0  0  0  0
  -28.1190  -29.0159   21.1950 H   0  0  0  0  0  0
  -26.0414  -25.9450   18.9982 H   0  0  0  0  0  0
  -23.9931  -27.3017   19.0029 H   0  0  0  0  0  0
  -23.7453  -30.5903   19.4064 H   0  0  0  0  0  0
  -22.7517  -29.2384   19.8596 H   0  0  0  0  0  0
  -25.1278  -36.1916   25.0832 H   0  0  0  0  0  0
  -20.9942  -28.3193   24.1443 H   0  0  0  0  0  0
  -20.5677  -26.2236   23.3605 H   0  0  0  0  0  0
  -21.6643  -26.7420   22.1209 H   0  0  0  0  0  0
  -19.6936  -25.6261   21.1239 H   0  0  0  0  0  0
  -19.6718  -27.3167   20.6734 H   0  0  0  0  0  0
  -17.4206  -26.6652   21.3983 H   0  0  0  0  0  0
  -18.0321  -26.0004   22.8965 H   0  0  0  0  0  0
  -19.7929  -30.7225   24.2269 H   0  0  0  0  0  0
  -17.5010  -31.6255   24.5118 H   0  0  0  0  0  0
  -15.5349  -30.2942   23.7678 H   0  0  0  0  0  0
  -15.8653  -28.0803   22.7051 H   0  0  0  0  0  0
  -24.5914  -30.7044   25.7773 H   0  0  0  0  0  0
  -24.8884  -32.2879   26.4811 H   0  0  0  0  0  0
  -25.8028  -30.8921   27.0240 H   0  0  0  0  0  0
  -26.2955  -29.6731   24.1188 H   0  0  0  0  0  0
  -27.4171  -29.7297   25.4605 H   0  0  0  0  0  0
  -27.8760  -30.4379   23.9300 H   0  0  0  0  0  0
  -27.2651  -33.3660   26.2013 H   0  0  0  0  0  0
  -28.3853  -32.6861   25.0310 H   0  0  0  0  0  0
  -28.0685  -31.8488   26.5440 H   0  0  0  0  0  0
  -28.2576  -38.0092   24.7497 H   0  0  0  0  0  0
  -28.1087  -36.2604   24.6319 H   0  0  0  0  0  0
  -27.2282  -37.1452   25.8877 H   0  0  0  0  0  0
  -20.9374  -29.8712   21.6952 H   0  0  0  0  0  0
  -26.0160  -38.2838   24.1428 H   0  0  0  0  0  0
  -28.8843  -16.7284   23.5243 H   0  0  0  0  0  0
  -32.1935  -25.8538   22.8478 H   0  0  0  0  0  0
  -33.0825  -26.3631   21.4230 H   0  0  0  0  0  0
  -33.5091  -24.8679   22.2239 H   0  0  0  0  0  0
  -27.9177  -23.9484   18.6236 H   0  0  0  0  0  0
  -26.5497  -23.8815   19.7372 H   0  0  0  0  0  0
  -27.4859  -22.4370   19.4114 H   0  0  0  0  0  0
  -33.0939  -22.7418   22.0455 H   0  0  0  0  0  0
  -32.4967  -22.1636   20.5025 H   0  0  0  0  0  0
  -31.9294  -21.4699   22.0169 H   0  0  0  0  0  0
  -31.4902  -23.6925   23.6980 H   0  0  0  0  0  0
  -30.1295  -22.6441   23.3841 H   0  0  0  0  0  0
  -29.9457  -24.3815   23.2469 H   0  0  0  0  0  0
  -32.1487  -24.5653   20.0617 H   0  0  0  0  0  0
  -30.8836  -25.4842   20.7589 H   0  0  0  0  0  0
  -29.0641  -25.7164   21.8632 H   0  0  0  0  0  0
  -27.4019  -25.5070   21.6324 H   0  0  0  0  0  0
  -27.9830  -23.4326   21.6113 H   0  0  0  0  0  0
  -30.1694  -23.0165   19.6378 H   0  0  0  0  0  0
  -30.8305  -19.5577   18.7692 H   0  0  0  0  0  0
  -30.7051  -21.2141   18.5592 H   0  0  0  0  0  0
  -29.2690  -14.9212   21.9434 H   0  0  0  0  0  0
  1 25  1  0  0  0
  1 30  2  0  0  0
  1 87  1  0  0  0
  2  3  1  0  0  0
  2 25  1  0  0  0
  2 89  1  0  0  0
  2 90  1  0  0  0
  3  4  1  0  0  0
  3 91  1  0  0  0
  3 92  1  0  0  0
  4  5  1  0  0  0
  4 93  1  0  0  0
  4 94  1  0  0  0
  5  6  1  0  0  0
  5 26  1  0  0  0
  5 95  1  0  0  0
  6 25  1  0  0  0
  6 96  1  0  0  0
  6 97  1  0  0  0
  7  8  2  0  0  0
  7 26  1  0  0  0
  7 29  1  0  0  0
  8  9  1  0  0  0
  8 22  1  0  0  0
  9 10  1  0  0  0
  9 27  2  0  0  0
 10 11  2  0  0  0
 10 15  1  0  0  0
 11 12  1  0  0  0
 11 98  1  0  0  0
 12 13  2  0  0  0
 12 99  1  0  0  0
 13 14  1  0  0  0
 13 31  1  0  0  0
 14 15  2  0  0  0
 14100  1  0  0  0
 15101  1  0  0  0
 16 17  2  0  0  0
 16 21  1  0  0  0
 16 31  1  0  0  0
 17 18  1  0  0  0
 17102  1  0  0  0
 18 19  2  0  0  0
 18103  1  0  0  0
 19 20  1  0  0  0
 19 24  1  0  0  0
 20 21  2  0  0  0
 20104  1  0  0  0
 21 23  1  0  0  0
 22 28  1  0  0  0
 22 32  2  0  0  0
 26 27  1  0  0  0
 28105  1  0  0  0
 28106  1  0  0  0
 29107  1  0  0  0
 29108  1  0  0  0
 33 34  1  0  0  0
 33 66  1  0  0  0
 33 70  2  0  0  0
 34 36  1  0  0  0
 34 59  1  0  0  0
 34109  1  0  0  0
 35 44  2  0  0  0
 35 45  1  0  0  0
 35 68  1  0  0  0
 36 56  1  0  0  0
 36110  1  0  0  0
 37 39  1  0  0  0
 37 47  1  0  0  0
 37 66  1  0  0  0
 37111  1  0  0  0
 38 43  2  0  0  0
 38 46  1  0  0  0
 38 47  1  0  0  0
 39 64  1  0  0  0
 39 67  2  0  0  0
 40 52  1  0  0  0
 40 53  2  0  0  0
 40 58  1  0  0  0
 41112  1  0  0  0
 41113  1  0  0  0
 41114  1  0  0  0
 41 48  1  0  0  0
 42 43  1  0  0  0
 42 66  1  0  0  0
 42115  1  0  0  0
 42116  1  0  0  0
 43 44  1  0  0  0
 44117  1  0  0  0
 45 46  2  0  0  0
 45118  1  0  0  0
 46119  1  0  0  0
 47120  1  0  0  0
 47121  1  0  0  0
 48 56  1  0  0  0
 48 65  1  0  0  0
 48122  1  0  0  0
 49 50  1  0  0  0
 49 53  1  0  0  0
 49 64  1  0  0  0
 49123  1  0  0  0
 50 51  1  0  0  0
 50124  1  0  0  0
 50125  1  0  0  0
 51 52  1  0  0  0
 51126  1  0  0  0
 51127  1  0  0  0
 52128  1  0  0  0
 52129  1  0  0  0
 53 54  1  0  0  0
 54 55  2  0  0  0
 54130  1  0  0  0
 55 57  1  0  0  0
 55131  1  0  0  0
 56 69  2  0  0  0
 57 58  2  0  0  0
 57132  1  0  0  0
 58133  1  0  0  0
 59 60  1  0  0  0
 59 61  1  0  0  0
 59 62  1  0  0  0
 60134  1  0  0  0
 60135  1  0  0  0
 60136  1  0  0  0
 61137  1  0  0  0
 61138  1  0  0  0
 61139  1  0  0  0
 62140  1  0  0  0
 62141  1  0  0  0
 62142  1  0  0  0
 63 65  1  0  0  0
 63143  1  0  0  0
 63144  1  0  0  0
 63145  1  0  0  0
 64146  1  0  0  0
 65147  1  0  0  0
 68 80  1  0  0  0
 71 72  2  0  0  0
 71 88  1  0  0  0
 71148  1  0  0  0
 72 84  1  0  0  0
 72 87  1  0  0  0
 73 74  1  0  0  0
 73 84  2  0  0  0
 73 88  1  0  0  0
 74 85  2  0  0  0
 74 86  1  0  0  0
 75 79  1  0  0  0
 75149  1  0  0  0
 75150  1  0  0  0
 75151  1  0  0  0
 76152  1  0  0  0
 76153  1  0  0  0
 76154  1  0  0  0
 76 81  1  0  0  0
 77155  1  0  0  0
 77156  1  0  0  0
 77157  1  0  0  0
 77 83  1  0  0  0
 78 83  1  0  0  0
 78158  1  0  0  0
 78159  1  0  0  0
 78160  1  0  0  0
 79 83  1  0  0  0
 79161  1  0  0  0
 79162  1  0  0  0
 80 81  1  0  0  0
 80163  1  0  0  0
 80164  1  0  0  0
 81 82  1  0  0  0
 81165  1  0  0  0
 82 83  1  0  0  0
 82 85  1  0  0  0
 82166  1  0  0  0
 86167  1  0  0  0
 86168  1  0  0  0
 87169  1  0  0  0
M  ISO  4   1 100  68 101  80 101  87 100
M  END
> <chiral flag>
0

> <version>
0

> <s_m_source_file>
/data/baiqing/PycharmProjects/Reinvent-master-3.2/result/LINK_invent/BTK/process_docking_weight1_custom_product_contain_oxygen_bond_distance_aromatic_linkinvent_7_9_3/rearranged_h_0190.sdf

> <i_m_source_file_index>
97

> <r_mmod_Potential_Energy-OPLS-2005>
45.2763862609863

> <r_mmod_Stretch_Energy-OPLS-2005>
82.5107421875

> <r_mmod_Bend_Energy-OPLS-2005>
207.641952514648

> <r_mmod_Torsional_Energy-OPLS-2005>
287.656463623047

> <r_mmod_Improper_Torsional_Energy-OPLS-2005>
3.25552129745483

> <r_mmod_Van_der_Waal_Energy-OPLS-2005>
139.227066040039

> <r_mmod_Electrostatic_Energy-OPLS-2005>
-479.984558105469

> <r_mmod_Solvation_Energy-OPLS-2005>
-225.329696655273

> <b_mmod_Minimization_Converged-OPLS-2005>
0

> <r_mmod_RMS_Derivative-OPLS-2005>
3.14520978927612

$$$$
97
                    3D
 Structure written by MMmdl.
163171  0  0  1  0            999 V2000
  -30.6544  -14.6859   20.4590 C   0  0  0  0  0  0
  -30.4344  -12.4241   19.4365 C   0  0  0  0  0  0
  -29.5015  -12.4799   18.2089 C   0  0  0  0  0  0
  -28.0278  -12.3164   18.6395 C   0  0  0  0  0  0
  -27.6421  -13.2274   19.8342 C   0  0  2  0  0  0
  -28.6961  -13.1545   20.9600 C   0  0  0  0  0  0
  -25.2554  -13.8189   20.5666 C   0  0  0  0  0  0
  -24.1834  -13.0477   20.9185 C   0  0  0  0  0  0
  -24.6395  -11.6928   20.8753 C   0  0  0  0  0  0
  -23.9055  -10.4299   21.0426 C   0  0  0  0  0  0
  -24.3621   -9.4202   21.9197 C   0  0  0  0  0  0
  -23.6285   -8.2252   22.0794 C   0  0  0  0  0  0
  -22.4269   -8.0288   21.3580 C   0  0  0  0  0  0
  -21.9890   -9.0257   20.4695 C   0  0  0  0  0  0
  -22.7233  -10.2121   20.3089 C   0  0  0  0  0  0
  -21.6828   -6.0736   22.5276 C   0  0  0  0  0  0
  -21.3998   -6.5645   23.8210 C   0  0  0  0  0  0
  -21.3659   -5.6807   24.9170 C   0  0  0  0  0  0
  -21.6033   -4.3071   24.7212 C   0  0  0  0  0  0
  -21.8821   -3.8145   23.4348 C   0  0  0  0  0  0
  -21.9185   -4.6963   22.3393 C   0  0  0  0  0  0
  -22.7862  -13.5247   21.1826 C   0  0  0  0  0  0
  -22.1654   -4.2155   21.0972 F   0  0  0  0  0  0
  -21.5637   -3.4546   25.7722 F   0  0  0  0  0  0
  -29.9905  -13.4877   20.3591 N   0  0  0  0  0  0
  -26.2965  -12.9386   20.3223 N   0  0  0  0  0  0
  -25.9318  -11.6542   20.5745 N   0  0  0  0  0  0
  -22.0464  -12.8283   22.0402 N   0  0  0  0  0  0
  -25.4271  -15.1912   20.4100 N   0  0  0  0  0  0
  -31.8582  -14.7446   20.2058 O   0  0  0  0  0  0
  -21.6646   -6.8884   21.4254 O   0  0  0  0  0  0
  -22.3558  -14.5525   20.6601 O   0  0  0  0  0  0
  -24.6303  -31.8546   23.1973 C   0  0  0  0  0  0
  -25.9118  -32.4747   23.8337 C   0  0  1  0  0  0
  -27.2392  -27.2990   20.1118 C   0  0  0  0  0  0
  -25.5904  -33.8556   24.2245 N   0  0  0  0  0  0
  -23.4337  -30.4788   21.5341 C   0  0  2  0  0  0
  -24.8841  -28.9340   20.1052 C   0  0  0  0  0  0
  -22.7515  -29.4649   22.4844 C   0  0  0  0  0  0
  -18.0307  -28.1430   22.8449 C   0  0  0  0  0  0
  -24.1481  -36.7275   23.2638 C   0  0  0  0  0  0
  -25.9773  -30.7755   21.3790 C   0  0  0  0  0  0
  -26.0512  -29.4031   20.7192 C   0  0  0  0  0  0
  -27.2329  -28.6007   20.7106 C   0  0  0  0  0  0
  -26.0540  -26.8976   19.4554 C   0  0  0  0  0  0
  -24.8888  -27.6870   19.4645 C   0  0  0  0  0  0
  -23.6531  -29.8099   20.1512 C   0  0  0  0  0  0
  -25.4117  -36.3049   24.0326 C   0  0  1  0  0  0
  -20.5889  -28.3834   23.1258 C   0  0  2  0  0  0
  -20.6828  -26.9444   22.5738 C   0  0  0  0  0  0
  -19.5864  -26.6116   21.5554 C   0  0  0  0  0  0
  -18.1992  -26.7851   22.1841 C   0  0  0  0  0  0
  -19.1544  -28.8971   23.2767 C   0  0  0  0  0  0
  -18.9435  -30.1573   23.8749 C   0  0  0  0  0  0
  -17.6436  -30.6684   24.0444 C   0  0  0  0  0  0
  -25.9069  -34.9430   23.5097 C   0  0  0  0  0  0
  -16.5338  -29.9147   23.6254 C   0  0  0  0  0  0
  -16.7282  -28.6509   23.0358 C   0  0  0  0  0  0
  -26.4523  -31.6566   25.0718 C   0  0  0  0  0  0
  -25.3741  -31.3753   26.1434 C   0  0  0  0  0  0
  -27.0382  -30.2987   24.6187 C   0  0  0  0  0  0
  -27.6088  -32.4308   25.7465 C   0  0  0  0  0  0
  -27.5568  -37.1790   24.8457 C   0  0  0  0  0  0
  -21.4213  -29.3043   22.3526 N   0  0  0  0  0  0
  -26.4285  -37.3751   23.9393 N   0  0  0  0  0  0
  -24.6995  -31.0533   22.0928 N   0  0  0  0  0  0
  -23.4159  -28.8241   23.3012 O   0  0  0  0  0  0
  -28.3433  -26.4230   20.1690 O   0  0  0  0  0  0
  -26.5632  -34.8929   22.4658 O   0  0  0  0  0  0
  -23.5434  -32.1366   23.7206 O   0  0  0  0  0  0
  -29.4530  -19.0831   19.3999 C   0  0  0  0  0  0
  -29.9432  -18.5977   20.6062 C   0  0  0  0  0  0
  -29.4976  -21.1588   20.4719 C   0  0  0  0  0  0
  -28.1895  -25.2373   24.3671 C   0  0  0  0  0  0
  -26.0862  -25.0247   22.0453 C   0  0  0  0  0  0
  -29.8160  -23.9574   18.6838 C   0  0  0  0  0  0
  -30.4735  -17.1904   21.0765 C   0  0  0  0  0  0
  -28.4223  -25.6283   22.9041 C   0  0  0  0  0  0
  -27.6056  -24.7913   21.8944 C   0  0  2  0  0  0
  -29.3916  -23.9665   20.1566 C   0  0  1  0  0  0
  -28.1328  -24.9554   20.4292 C   0  0  2  0  0  0
  -29.2147  -20.4946   19.3384 N   0  0  0  0  0  0
  -29.3877  -22.5680   20.7525 N   0  0  0  0  0  0
  -29.9240  -15.8412   20.6490 N   0  0  0  0  0  0
  -30.0904  -19.9955   21.7018 S   0  0  0  0  0  0
  -31.4781  -12.5431   19.1319 H   0  0  0  0  0  0
  -30.3783  -11.4504   19.9252 H   0  0  0  0  0  0
  -29.7695  -11.6938   17.5017 H   0  0  0  0  0  0
  -29.6292  -13.4270   17.6827 H   0  0  0  0  0  0
  -27.8863  -11.2710   18.9181 H   0  0  0  0  0  0
  -27.3644  -12.5011   17.7933 H   0  0  0  0  0  0
  -27.6348  -14.2430   19.4385 H   0  0  0  0  0  0
  -28.7256  -12.1535   21.3943 H   0  0  0  0  0  0
  -28.4504  -13.8452   21.7683 H   0  0  0  0  0  0
  -25.2779   -9.5636   22.4770 H   0  0  0  0  0  0
  -23.9975   -7.4617   22.7501 H   0  0  0  0  0  0
  -21.0829   -8.8779   19.8986 H   0  0  0  0  0  0
  -22.3715  -10.9669   19.6198 H   0  0  0  0  0  0
  -21.1999   -7.6149   23.9705 H   0  0  0  0  0  0
  -21.1486   -6.0538   25.9071 H   0  0  0  0  0  0
  -22.0599   -2.7603   23.2834 H   0  0  0  0  0  0
  -22.4055  -11.9968   22.4864 H   0  0  0  0  0  0
  -21.1093  -13.1379   22.2543 H   0  0  0  0  0  0
  -24.6674  -15.8512   20.5351 H   0  0  0  0  0  0
  -26.2721  -15.6263   20.0655 H   0  0  0  0  0  0
  -26.7209  -32.5412   23.1096 H   0  0  0  0  0  0
  -25.0021  -33.9723   25.0368 H   0  0  0  0  0  0
  -22.7338  -31.3011   21.3761 H   0  0  0  0  0  0
  -23.3743  -35.9600   23.3289 H   0  0  0  0  0  0
  -24.3590  -36.8903   22.2050 H   0  0  0  0  0  0
  -23.7232  -37.6483   23.6686 H   0  0  0  0  0  0
  -26.1149  -31.5336   20.6067 H   0  0  0  0  0  0
  -26.8604  -30.8280   22.0071 H   0  0  0  0  0  0
  -28.1302  -28.9490   21.2020 H   0  0  0  0  0  0
  -25.9959  -25.9535   18.9452 H   0  0  0  0  0  0
  -24.0012  -27.3218   18.9658 H   0  0  0  0  0  0
  -23.7688  -30.5796   19.3860 H   0  0  0  0  0  0
  -22.7788  -29.2254   19.8531 H   0  0  0  0  0  0
  -25.1281  -36.1914   25.0824 H   0  0  0  0  0  0
  -20.9956  -28.3715   24.1406 H   0  0  0  0  0  0
  -20.5739  -26.2637   23.4218 H   0  0  0  0  0  0
  -21.6767  -26.7410   22.1743 H   0  0  0  0  0  0
  -19.7049  -25.5925   21.1903 H   0  0  0  0  0  0
  -19.6916  -27.2598   20.6866 H   0  0  0  0  0  0
  -17.4257  -26.6332   21.4301 H   0  0  0  0  0  0
  -18.0431  -26.0192   22.9437 H   0  0  0  0  0  0
  -19.7931  -30.7422   24.1999 H   0  0  0  0  0  0
  -17.4993  -31.6419   24.4934 H   0  0  0  0  0  0
  -15.5320  -30.3036   23.7590 H   0  0  0  0  0  0
  -15.8664  -28.0785   22.7228 H   0  0  0  0  0  0
  -24.5910  -30.7112   25.7752 H   0  0  0  0  0  0
  -24.8960  -32.2955   26.4802 H   0  0  0  0  0  0
  -25.8040  -30.8943   27.0219 H   0  0  0  0  0  0
  -26.2967  -29.6713   24.1227 H   0  0  0  0  0  0
  -27.4119  -29.7262   25.4675 H   0  0  0  0  0  0
  -27.8809  -30.4279   23.9401 H   0  0  0  0  0  0
  -27.2708  -33.3599   26.2061 H   0  0  0  0  0  0
  -28.3878  -32.6879   25.0277 H   0  0  0  0  0  0
  -28.0802  -31.8425   26.5345 H   0  0  0  0  0  0
  -28.2579  -38.0087   24.7502 H   0  0  0  0  0  0
  -28.1062  -36.2624   24.6264 H   0  0  0  0  0  0
  -27.2302  -37.1402   25.8864 H   0  0  0  0  0  0
  -20.9384  -29.8581   21.6599 H   0  0  0  0  0  0
  -26.0147  -38.2816   24.1393 H   0  0  0  0  0  0
  -29.2751  -18.4951   18.5087 H   0  0  0  0  0  0
  -28.7945  -25.8629   25.0268 H   0  0  0  0  0  0
  -28.4524  -24.1948   24.5541 H   0  0  0  0  0  0
  -27.1473  -25.3790   24.6535 H   0  0  0  0  0  0
  -25.8338  -26.0823   22.0807 H   0  0  0  0  0  0
  -25.6977  -24.5777   22.9596 H   0  0  0  0  0  0
  -25.5381  -24.5656   21.2213 H   0  0  0  0  0  0
  -29.9170  -24.9779   18.3111 H   0  0  0  0  0  0
  -29.0959  -23.4396   18.0506 H   0  0  0  0  0  0
  -30.7905  -23.4828   18.5531 H   0  0  0  0  0  0
  -30.3809  -17.1721   22.1636 H   0  0  0  0  0  0
  -31.5473  -17.1735   20.8949 H   0  0  0  0  0  0
  -29.4888  -25.5254   22.6803 H   0  0  0  0  0  0
  -28.1932  -26.6906   22.7840 H   0  0  0  0  0  0
  -27.7251  -23.7449   22.1662 H   0  0  0  0  0  0
  -30.2141  -24.4492   20.6845 H   0  0  0  0  0  0
  -27.3684  -24.5785   19.7485 H   0  0  0  0  0  0
  -29.5388  -22.6755   21.7535 H   0  0  0  0  0  0
  -28.9240  -15.7283   20.6973 H   0  0  0  0  0  0
  1 25  1  0  0  0
  1 30  2  0  0  0
  1 84  1  0  0  0
  2  3  1  0  0  0
  2 25  1  0  0  0
  2 86  1  0  0  0
  2 87  1  0  0  0
  3  4  1  0  0  0
  3 88  1  0  0  0
  3 89  1  0  0  0
  4  5  1  0  0  0
  4 90  1  0  0  0
  4 91  1  0  0  0
  5  6  1  0  0  0
  5 26  1  0  0  0
  5 92  1  0  0  0
  6 25  1  0  0  0
  6 93  1  0  0  0
  6 94  1  0  0  0
  7  8  2  0  0  0
  7 26  1  0  0  0
  7 29  1  0  0  0
  8  9  1  0  0  0
  8 22  1  0  0  0
  9 10  1  0  0  0
  9 27  2  0  0  0
 10 11  2  0  0  0
 10 15  1  0  0  0
 11 12  1  0  0  0
 11 95  1  0  0  0
 12 13  2  0  0  0
 12 96  1  0  0  0
 13 14  1  0  0  0
 13 31  1  0  0  0
 14 15  2  0  0  0
 14 97  1  0  0  0
 15 98  1  0  0  0
 16 17  2  0  0  0
 16 21  1  0  0  0
 16 31  1  0  0  0
 17 18  1  0  0  0
 17 99  1  0  0  0
 18 19  2  0  0  0
 18100  1  0  0  0
 19 20  1  0  0  0
 19 24  1  0  0  0
 20 21  2  0  0  0
 20101  1  0  0  0
 21 23  1  0  0  0
 22 28  1  0  0  0
 22 32  2  0  0  0
 26 27  1  0  0  0
 28102  1  0  0  0
 28103  1  0  0  0
 29104  1  0  0  0
 29105  1  0  0  0
 33 34  1  0  0  0
 33 66  1  0  0  0
 33 70  2  0  0  0
 34 36  1  0  0  0
 34 59  1  0  0  0
 34106  1  0  0  0
 35 44  2  0  0  0
 35 45  1  0  0  0
 35 68  1  0  0  0
 36 56  1  0  0  0
 36107  1  0  0  0
 37 39  1  0  0  0
 37 47  1  0  0  0
 37 66  1  0  0  0
 37108  1  0  0  0
 38 43  2  0  0  0
 38 46  1  0  0  0
 38 47  1  0  0  0
 39 64  1  0  0  0
 39 67  2  0  0  0
 40 52  1  0  0  0
 40 53  2  0  0  0
 40 58  1  0  0  0
 41109  1  0  0  0
 41110  1  0  0  0
 41111  1  0  0  0
 41 48  1  0  0  0
 42 43  1  0  0  0
 42 66  1  0  0  0
 42112  1  0  0  0
 42113  1  0  0  0
 43 44  1  0  0  0
 44114  1  0  0  0
 45 46  2  0  0  0
 45115  1  0  0  0
 46116  1  0  0  0
 47117  1  0  0  0
 47118  1  0  0  0
 48 56  1  0  0  0
 48 65  1  0  0  0
 48119  1  0  0  0
 49 50  1  0  0  0
 49 53  1  0  0  0
 49 64  1  0  0  0
 49120  1  0  0  0
 50 51  1  0  0  0
 50121  1  0  0  0
 50122  1  0  0  0
 51 52  1  0  0  0
 51123  1  0  0  0
 51124  1  0  0  0
 52125  1  0  0  0
 52126  1  0  0  0
 53 54  1  0  0  0
 54 55  2  0  0  0
 54127  1  0  0  0
 55 57  1  0  0  0
 55128  1  0  0  0
 56 69  2  0  0  0
 57 58  2  0  0  0
 57129  1  0  0  0
 58130  1  0  0  0
 59 60  1  0  0  0
 59 61  1  0  0  0
 59 62  1  0  0  0
 60131  1  0  0  0
 60132  1  0  0  0
 60133  1  0  0  0
 61134  1  0  0  0
 61135  1  0  0  0
 61136  1  0  0  0
 62137  1  0  0  0
 62138  1  0  0  0
 62139  1  0  0  0
 63 65  1  0  0  0
 63140  1  0  0  0
 63141  1  0  0  0
 63142  1  0  0  0
 64143  1  0  0  0
 65144  1  0  0  0
 68 81  1  0  0  0
 71 72  2  0  0  0
 71 82  1  0  0  0
 71145  1  0  0  0
 72 77  1  0  0  0
 72 85  1  0  0  0
 73 82  2  0  0  0
 73 83  1  0  0  0
 73 85  1  0  0  0
 74 78  1  0  0  0
 74146  1  0  0  0
 74147  1  0  0  0
 74148  1  0  0  0
 75149  1  0  0  0
 75150  1  0  0  0
 75151  1  0  0  0
 75 79  1  0  0  0
 76152  1  0  0  0
 76153  1  0  0  0
 76154  1  0  0  0
 76 80  1  0  0  0
 77 84  1  0  0  0
 77155  1  0  0  0
 77156  1  0  0  0
 78 79  1  0  0  0
 78157  1  0  0  0
 78158  1  0  0  0
 79 81  1  0  0  0
 79159  1  0  0  0
 80 81  1  0  0  0
 80 83  1  0  0  0
 80160  1  0  0  0
 81161  1  0  0  0
 83162  1  0  0  0
 84163  1  0  0  0
M  ISO  4   1 100  68 101  81 101  84 100
M  END
> <chiral flag>
0

> <version>
0

> <s_m_source_file>
/data/baiqing/PycharmProjects/Reinvent-master-3.2/result/LINK_invent/BTK/process_docking_weight1_custom_product_contain_oxygen_bond_distance_aromatic_linkinvent_7_9_3/rearranged_h_0190.sdf

> <i_m_source_file_index>
98

> <r_mmod_Potential_Energy-OPLS-2005>
63.8850402832031

> <r_mmod_Stretch_Energy-OPLS-2005>
103.6240234375

> <r_mmod_Bend_Energy-OPLS-2005>
180.50309753418

> <r_mmod_Torsional_Energy-OPLS-2005>
234.644454956055

> <r_mmod_Improper_Torsional_Energy-OPLS-2005>
5.38396501541138

> <r_mmod_Van_der_Waal_Energy-OPLS-2005>
116.301055908203

> <r_mmod_Electrostatic_Energy-OPLS-2005>
-428.938842773438

> <r_mmod_Solvation_Energy-OPLS-2005>
-216.946136474609

> <b_mmod_Minimization_Converged-OPLS-2005>
0

> <r_mmod_RMS_Derivative-OPLS-2005>
5.78592824935913

$$$$
98
                    3D
 Structure written by MMmdl.
158166  0  0  1  0            999 V2000
  -30.6758  -14.5216   20.5537 C   0  0  0  0  0  0
  -30.4286  -12.3324   19.4331 C   0  0  0  0  0  0
  -29.5007  -12.5109   18.2125 C   0  0  0  0  0  0
  -28.0207  -12.3701   18.6213 C   0  0  0  0  0  0
  -27.6609  -13.2115   19.8749 C   0  0  2  0  0  0
  -28.7037  -13.0062   20.9968 C   0  0  0  0  0  0
  -25.2583  -13.8165   20.5686 C   0  0  0  0  0  0
  -24.1847  -13.0434   20.9202 C   0  0  0  0  0  0
  -24.6412  -11.6901   20.8747 C   0  0  0  0  0  0
  -23.9068  -10.4287   21.0408 C   0  0  0  0  0  0
  -24.3622   -9.4197   21.9176 C   0  0  0  0  0  0
  -23.6301   -8.2238   22.0754 C   0  0  0  0  0  0
  -22.4277   -8.0284   21.3548 C   0  0  0  0  0  0
  -21.9914   -9.0255   20.4644 C   0  0  0  0  0  0
  -22.7247  -10.2130   20.3053 C   0  0  0  0  0  0
  -21.6850   -6.0735   22.5280 C   0  0  0  0  0  0
  -21.4011   -6.5639   23.8214 C   0  0  0  0  0  0
  -21.3663   -5.6795   24.9178 C   0  0  0  0  0  0
  -21.6051   -4.3060   24.7228 C   0  0  0  0  0  0
  -21.8820   -3.8143   23.4352 C   0  0  0  0  0  0
  -21.9199   -4.6959   22.3406 C   0  0  0  0  0  0
  -22.7863  -13.5216   21.1870 C   0  0  0  0  0  0
  -22.1668   -4.2150   21.0976 F   0  0  0  0  0  0
  -21.5635   -3.4541   25.7735 F   0  0  0  0  0  0
  -30.0298  -13.3255   20.4438 N   0  0  0  0  0  0
  -26.3022  -12.9345   20.3364 N   0  0  0  0  0  0
  -25.9339  -11.6496   20.5767 N   0  0  0  0  0  0
  -22.0524  -12.8188   22.0421 N   0  0  0  0  0  0
  -25.4290  -15.1891   20.4073 N   0  0  0  0  0  0
  -31.8221  -14.6778   20.1172 O   0  0  0  0  0  0
  -21.6643   -6.8880   21.4244 O   0  0  0  0  0  0
  -22.3542  -14.5534   20.6743 O   0  0  0  0  0  0
  -24.6152  -31.8676   23.2081 C   0  0  0  0  0  0
  -25.9043  -32.4816   23.8383 C   0  0  1  0  0  0
  -27.2364  -27.4083   20.1024 C   0  0  0  0  0  0
  -25.5896  -33.8612   24.2313 N   0  0  0  0  0  0
  -23.4036  -30.4901   21.5504 C   0  0  2  0  0  0
  -24.8489  -28.9490   20.1161 C   0  0  0  0  0  0
  -22.7403  -29.4686   22.5008 C   0  0  0  0  0  0
  -18.0275  -28.1368   22.8517 C   0  0  0  0  0  0
  -24.1479  -36.7303   23.2639 C   0  0  0  0  0  0
  -25.9340  -30.8245   21.3633 C   0  0  0  0  0  0
  -26.0096  -29.4565   20.7114 C   0  0  0  0  0  0
  -27.2011  -28.6921   20.7025 C   0  0  0  0  0  0
  -26.0498  -26.9156   19.5119 C   0  0  0  0  0  0
  -24.8663  -27.6792   19.5143 C   0  0  0  0  0  0
  -23.6093  -29.8145   20.1677 C   0  0  0  0  0  0
  -25.4102  -36.3101   24.0336 C   0  0  1  0  0  0
  -20.5862  -28.3670   23.1323 C   0  0  2  0  0  0
  -20.6764  -26.9413   22.5418 C   0  0  0  0  0  0
  -19.5736  -26.6386   21.5221 C   0  0  0  0  0  0
  -18.1915  -26.7922   22.1632 C   0  0  0  0  0  0
  -19.1518  -28.8835   23.2920 C   0  0  0  0  0  0
  -18.9440  -30.1442   23.8928 C   0  0  0  0  0  0
  -17.6439  -30.6588   24.0569 C   0  0  0  0  0  0
  -25.9034  -34.9472   23.5125 C   0  0  0  0  0  0
  -16.5339  -29.9084   23.6336 C   0  0  0  0  0  0
  -16.7261  -28.6490   23.0388 C   0  0  0  0  0  0
  -26.4461  -31.6608   25.0729 C   0  0  0  0  0  0
  -25.3714  -31.3721   26.1465 C   0  0  0  0  0  0
  -27.0320  -30.3053   24.6154 C   0  0  0  0  0  0
  -27.6040  -32.4344   25.7481 C   0  0  0  0  0  0
  -27.5581  -37.1788   24.8459 C   0  0  0  0  0  0
  -21.4131  -29.3040   22.3715 N   0  0  0  0  0  0
  -26.4284  -37.3791   23.9422 N   0  0  0  0  0  0
  -24.6697  -31.0753   22.0984 N   0  0  0  0  0  0
  -23.4160  -28.8242   23.3074 O   0  0  0  0  0  0
  -28.4224  -26.6899   20.1396 O   0  0  0  0  0  0
  -26.5606  -34.8931   22.4689 O   0  0  0  0  0  0
  -23.5343  -32.1448   23.7464 O   0  0  0  0  0  0
  -31.3218  -18.9040   20.5719 C   0  0  0  0  0  0
  -30.0443  -19.4460   20.4626 C   0  0  0  0  0  0
  -30.1326  -16.9586   20.8677 C   0  0  0  0  0  0
  -32.5708  -19.6685   20.4285 C   0  0  0  0  0  0
  -28.6476  -21.5027   20.2775 C   0  0  0  0  0  0
  -33.8738  -18.8893   20.5863 C   0  0  0  0  0  0
  -27.5489  -22.6450   18.3226 C   0  0  0  0  0  0
  -28.3112  -24.1389   20.2619 C   0  0  0  0  0  0
  -28.5724  -25.4404   19.4349 C   0  0  0  0  0  0
  -28.5810  -22.8245   19.4534 C   0  0  1  0  0  0
  -31.3421  -17.5166   20.8150 N   0  0  0  0  0  0
  -29.7527  -20.7440   20.1096 N   0  0  0  0  0  0
  -29.9224  -15.5460   21.0239 N   0  0  0  0  0  0
  -32.6462  -20.8799   20.1958 O   0  0  0  0  0  0
  -27.7191  -21.1893   21.0256 O   0  0  0  0  0  0
  -28.8453  -18.1681   20.7276 S   0  0  0  0  0  0
  -31.4728  -12.4353   19.1342 H   0  0  0  0  0  0
  -30.3373  -11.3254   19.8415 H   0  0  0  0  0  0
  -29.7452  -11.7782   17.4430 H   0  0  0  0  0  0
  -29.6670  -13.4926   17.7645 H   0  0  0  0  0  0
  -27.8314  -11.3138   18.8161 H   0  0  0  0  0  0
  -27.3751  -12.6457   17.7868 H   0  0  0  0  0  0
  -27.6966  -14.2583   19.5697 H   0  0  0  0  0  0
  -28.6928  -11.9715   21.3425 H   0  0  0  0  0  0
  -28.4637  -13.6065   21.8752 H   0  0  0  0  0  0
  -25.2776   -9.5664   22.4734 H   0  0  0  0  0  0
  -24.0018   -7.4618   22.7461 H   0  0  0  0  0  0
  -21.0854   -8.8771   19.8931 H   0  0  0  0  0  0
  -22.3727  -10.9667   19.6147 H   0  0  0  0  0  0
  -21.1989   -7.6150   23.9714 H   0  0  0  0  0  0
  -21.1492   -6.0527   25.9082 H   0  0  0  0  0  0
  -22.0597   -2.7607   23.2849 H   0  0  0  0  0  0
  -22.4163  -11.9830   22.4761 H   0  0  0  0  0  0
  -21.1136  -13.1179   22.2654 H   0  0  0  0  0  0
  -24.6551  -15.8373   20.5022 H   0  0  0  0  0  0
  -26.2636  -15.6222   20.0332 H   0  0  0  0  0  0
  -26.7127  -32.5519   23.1150 H   0  0  0  0  0  0
  -25.0026  -33.9777   25.0441 H   0  0  0  0  0  0
  -22.6944  -31.3090   21.4083 H   0  0  0  0  0  0
  -23.3760  -35.9615   23.3279 H   0  0  0  0  0  0
  -24.3579  -36.8954   22.2064 H   0  0  0  0  0  0
  -23.7215  -37.6490   23.6672 H   0  0  0  0  0  0
  -26.0478  -31.5867   20.5916 H   0  0  0  0  0  0
  -26.8209  -30.8772   21.9834 H   0  0  0  0  0  0
  -28.0955  -29.0844   21.1653 H   0  0  0  0  0  0
  -26.0093  -25.9349   19.0640 H   0  0  0  0  0  0
  -23.9703  -27.2808   19.0598 H   0  0  0  0  0  0
  -23.7063  -30.5837   19.4014 H   0  0  0  0  0  0
  -22.7335  -29.2290   19.8839 H   0  0  0  0  0  0
  -25.1275  -36.1949   25.0831 H   0  0  0  0  0  0
  -20.9977  -28.3237   24.1431 H   0  0  0  0  0  0
  -20.5682  -26.2290   23.3609 H   0  0  0  0  0  0
  -21.6628  -26.7459   22.1193 H   0  0  0  0  0  0
  -19.6904  -25.6296   21.1254 H   0  0  0  0  0  0
  -19.6661  -27.3191   20.6747 H   0  0  0  0  0  0
  -17.4196  -26.6710   21.4028 H   0  0  0  0  0  0
  -18.0302  -26.0034   22.8996 H   0  0  0  0  0  0
  -19.7905  -30.7268   24.2309 H   0  0  0  0  0  0
  -17.4987  -31.6275   24.5144 H   0  0  0  0  0  0
  -15.5337  -30.2996   23.7629 H   0  0  0  0  0  0
  -15.8666  -28.0802   22.7118 H   0  0  0  0  0  0
  -24.5869  -30.7100   25.7772 H   0  0  0  0  0  0
  -24.8912  -32.2883   26.4923 H   0  0  0  0  0  0
  -25.8029  -30.8858   27.0223 H   0  0  0  0  0  0
  -26.2894  -29.6795   24.1197 H   0  0  0  0  0  0
  -27.4073  -29.7311   25.4636 H   0  0  0  0  0  0
  -27.8717  -30.4380   23.9329 H   0  0  0  0  0  0
  -27.2668  -33.3650   26.2060 H   0  0  0  0  0  0
  -28.3821  -32.6918   25.0277 H   0  0  0  0  0  0
  -28.0745  -31.8486   26.5392 H   0  0  0  0  0  0
  -28.2571  -38.0112   24.7560 H   0  0  0  0  0  0
  -28.1108  -36.2658   24.6204 H   0  0  0  0  0  0
  -27.2317  -37.1337   25.8862 H   0  0  0  0  0  0
  -20.9295  -29.8728   21.6899 H   0  0  0  0  0  0
  -26.0174  -38.2863   24.1440 H   0  0  0  0  0  0
  -33.7967  -17.8843   20.1706 H   0  0  0  0  0  0
  -34.1312  -18.8137   21.6429 H   0  0  0  0  0  0
  -34.6771  -19.4079   20.0644 H   0  0  0  0  0  0
  -27.7004  -21.7053   17.7891 H   0  0  0  0  0  0
  -27.6118  -23.4423   17.5822 H   0  0  0  0  0  0
  -26.5304  -22.6364   18.7144 H   0  0  0  0  0  0
  -27.2876  -24.1404   20.6382 H   0  0  0  0  0  0
  -28.9554  -24.1514   21.1421 H   0  0  0  0  0  0
  -28.0112  -25.4486   18.5031 H   0  0  0  0  0  0
  -29.6134  -25.4147   19.1116 H   0  0  0  0  0  0
  -29.5559  -22.9451   18.9778 H   0  0  0  0  0  0
  -30.4958  -21.2200   19.6108 H   0  0  0  0  0  0
  -28.9977  -15.2786   21.3210 H   0  0  0  0  0  0
  1 25  1  0  0  0
  1 30  2  0  0  0
  1 83  1  0  0  0
  2  3  1  0  0  0
  2 25  1  0  0  0
  2 87  1  0  0  0
  2 88  1  0  0  0
  3  4  1  0  0  0
  3 89  1  0  0  0
  3 90  1  0  0  0
  4  5  1  0  0  0
  4 91  1  0  0  0
  4 92  1  0  0  0
  5  6  1  0  0  0
  5 26  1  0  0  0
  5 93  1  0  0  0
  6 25  1  0  0  0
  6 94  1  0  0  0
  6 95  1  0  0  0
  7  8  2  0  0  0
  7 26  1  0  0  0
  7 29  1  0  0  0
  8  9  1  0  0  0
  8 22  1  0  0  0
  9 10  1  0  0  0
  9 27  2  0  0  0
 10 11  2  0  0  0
 10 15  1  0  0  0
 11 12  1  0  0  0
 11 96  1  0  0  0
 12 13  2  0  0  0
 12 97  1  0  0  0
 13 14  1  0  0  0
 13 31  1  0  0  0
 14 15  2  0  0  0
 14 98  1  0  0  0
 15 99  1  0  0  0
 16 17  2  0  0  0
 16 21  1  0  0  0
 16 31  1  0  0  0
 17 18  1  0  0  0
 17100  1  0  0  0
 18 19  2  0  0  0
 18101  1  0  0  0
 19 20  1  0  0  0
 19 24  1  0  0  0
 20 21  2  0  0  0
 20102  1  0  0  0
 21 23  1  0  0  0
 22 28  1  0  0  0
 22 32  2  0  0  0
 26 27  1  0  0  0
 28103  1  0  0  0
 28104  1  0  0  0
 29105  1  0  0  0
 29106  1  0  0  0
 33 34  1  0  0  0
 33 66  1  0  0  0
 33 70  2  0  0  0
 34 36  1  0  0  0
 34 59  1  0  0  0
 34107  1  0  0  0
 35 44  2  0  0  0
 35 45  1  0  0  0
 35 68  1  0  0  0
 36 56  1  0  0  0
 36108  1  0  0  0
 37 39  1  0  0  0
 37 47  1  0  0  0
 37 66  1  0  0  0
 37109  1  0  0  0
 38 43  2  0  0  0
 38 46  1  0  0  0
 38 47  1  0  0  0
 39 64  1  0  0  0
 39 67  2  0  0  0
 40 52  1  0  0  0
 40 53  2  0  0  0
 40 58  1  0  0  0
 41110  1  0  0  0
 41111  1  0  0  0
 41112  1  0  0  0
 41 48  1  0  0  0
 42 43  1  0  0  0
 42 66  1  0  0  0
 42113  1  0  0  0
 42114  1  0  0  0
 43 44  1  0  0  0
 44115  1  0  0  0
 45 46  2  0  0  0
 45116  1  0  0  0
 46117  1  0  0  0
 47118  1  0  0  0
 47119  1  0  0  0
 48 56  1  0  0  0
 48 65  1  0  0  0
 48120  1  0  0  0
 49 50  1  0  0  0
 49 53  1  0  0  0
 49 64  1  0  0  0
 49121  1  0  0  0
 50 51  1  0  0  0
 50122  1  0  0  0
 50123  1  0  0  0
 51 52  1  0  0  0
 51124  1  0  0  0
 51125  1  0  0  0
 52126  1  0  0  0
 52127  1  0  0  0
 53 54  1  0  0  0
 54 55  2  0  0  0
 54128  1  0  0  0
 55 57  1  0  0  0
 55129  1  0  0  0
 56 69  2  0  0  0
 57 58  2  0  0  0
 57130  1  0  0  0
 58131  1  0  0  0
 59 60  1  0  0  0
 59 61  1  0  0  0
 59 62  1  0  0  0
 60132  1  0  0  0
 60133  1  0  0  0
 60134  1  0  0  0
 61135  1  0  0  0
 61136  1  0  0  0
 61137  1  0  0  0
 62138  1  0  0  0
 62139  1  0  0  0
 62140  1  0  0  0
 63 65  1  0  0  0
 63141  1  0  0  0
 63142  1  0  0  0
 63143  1  0  0  0
 64144  1  0  0  0
 65145  1  0  0  0
 68 79  1  0  0  0
 71 72  2  0  0  0
 71 74  1  0  0  0
 71 81  1  0  0  0
 72 82  1  0  0  0
 72 86  1  0  0  0
 73 81  2  0  0  0
 73 83  1  0  0  0
 73 86  1  0  0  0
 74 76  1  0  0  0
 74 84  2  0  0  0
 75 80  1  0  0  0
 75 82  1  0  0  0
 75 85  2  0  0  0
 76146  1  0  0  0
 76147  1  0  0  0
 76148  1  0  0  0
 77149  1  0  0  0
 77150  1  0  0  0
 77151  1  0  0  0
 77 80  1  0  0  0
 78 79  1  0  0  0
 78 80  1  0  0  0
 78152  1  0  0  0
 78153  1  0  0  0
 79154  1  0  0  0
 79155  1  0  0  0
 80156  1  0  0  0
 82157  1  0  0  0
 83158  1  0  0  0
M  ISO  4   1 100  68 101  79 101  83 100
M  END
> <chiral flag>
0

> <version>
0

> <s_m_source_file>
/data/baiqing/PycharmProjects/Reinvent-master-3.2/result/LINK_invent/BTK/process_docking_weight1_custom_product_contain_oxygen_bond_distance_aromatic_linkinvent_7_9_3/rearranged_h_0190.sdf

> <i_m_source_file_index>
99

> <r_mmod_Potential_Energy-OPLS-2005>
-106.13557434082

> <r_mmod_Stretch_Energy-OPLS-2005>
45.9387435913086

> <r_mmod_Bend_Energy-OPLS-2005>
124.677856445312

> <r_mmod_Torsional_Energy-OPLS-2005>
214.0771484375

> <r_mmod_Improper_Torsional_Energy-OPLS-2005>
4.5902361869812

> <r_mmod_Van_der_Waal_Energy-OPLS-2005>
135.278930664062

> <r_mmod_Electrostatic_Energy-OPLS-2005>
-407.818267822266

> <r_mmod_Solvation_Energy-OPLS-2005>
-240.989151000977

> <b_mmod_Minimization_Converged-OPLS-2005>
0

> <r_mmod_RMS_Derivative-OPLS-2005>
2.38909268379211

$$$$
