0
                    3D
 Structure written by MMmdl.
158166  0  0  1  0            999 V2000
  -30.6555  -14.6523   20.5448 C   0  0  0  0  0  0
  -30.4299  -12.4115   19.4705 C   0  0  0  0  0  0
  -29.5101  -12.5105   18.2328 C   0  0  0  0  0  0
  -28.0338  -12.3390   18.6383 C   0  0  0  0  0  0
  -27.6484  -13.2196   19.8550 C   0  0  2  0  0  0
  -28.6818  -13.0910   20.9904 C   0  0  0  0  0  0
  -25.2562  -13.8187   20.5680 C   0  0  0  0  0  0
  -24.1825  -13.0446   20.9168 C   0  0  0  0  0  0
  -24.6391  -11.6920   20.8710 C   0  0  0  0  0  0
  -23.9057  -10.4301   21.0392 C   0  0  0  0  0  0
  -24.3613   -9.4226   21.9170 C   0  0  0  0  0  0
  -23.6292   -8.2261   22.0759 C   0  0  0  0  0  0
  -22.4271   -8.0297   21.3554 C   0  0  0  0  0  0
  -21.9898   -9.0268   20.4649 C   0  0  0  0  0  0
  -22.7227  -10.2141   20.3050 C   0  0  0  0  0  0
  -21.6857   -6.0746   22.5286 C   0  0  0  0  0  0
  -21.4015   -6.5652   23.8222 C   0  0  0  0  0  0
  -21.3655   -5.6798   24.9175 C   0  0  0  0  0  0
  -21.6035   -4.3057   24.7216 C   0  0  0  0  0  0
  -21.8817   -3.8151   23.4340 C   0  0  0  0  0  0
  -21.9198   -4.6972   22.3402 C   0  0  0  0  0  0
  -22.7844  -13.5241   21.1833 C   0  0  0  0  0  0
  -22.1655   -4.2156   21.0976 F   0  0  0  0  0  0
  -21.5641   -3.4547   25.7733 F   0  0  0  0  0  0
  -30.0008  -13.4454   20.4414 N   0  0  0  0  0  0
  -26.2960  -12.9364   20.3250 N   0  0  0  0  0  0
  -25.9316  -11.6513   20.5697 N   0  0  0  0  0  0
  -22.0502  -12.8238   22.0394 N   0  0  0  0  0  0
  -25.4284  -15.1912   20.4145 N   0  0  0  0  0  0
  -31.7861  -14.7815   20.0633 O   0  0  0  0  0  0
  -21.6639   -6.8893   21.4252 O   0  0  0  0  0  0
  -22.3515  -14.5542   20.6684 O   0  0  0  0  0  0
  -24.6248  -31.8597   23.2002 C   0  0  0  0  0  0
  -25.9101  -32.4775   23.8338 C   0  0  1  0  0  0
  -27.2327  -27.3214   20.1164 C   0  0  0  0  0  0
  -25.5924  -33.8577   24.2277 N   0  0  0  0  0  0
  -23.4179  -30.4796   21.5425 C   0  0  2  0  0  0
  -24.8671  -28.9281   20.1092 C   0  0  0  0  0  0
  -22.7465  -29.4609   22.4937 C   0  0  0  0  0  0
  -18.0276  -28.1393   22.8487 C   0  0  0  0  0  0
  -24.1479  -36.7286   23.2636 C   0  0  0  0  0  0
  -25.9560  -30.7891   21.3682 C   0  0  0  0  0  0
  -26.0302  -29.4142   20.7164 C   0  0  0  0  0  0
  -27.2107  -28.6182   20.7142 C   0  0  0  0  0  0
  -26.0451  -26.8766   19.4954 C   0  0  0  0  0  0
  -24.8752  -27.6650   19.4921 C   0  0  0  0  0  0
  -23.6331  -29.8084   20.1586 C   0  0  0  0  0  0
  -25.4107  -36.3077   24.0326 C   0  0  1  0  0  0
  -20.5870  -28.3695   23.1294 C   0  0  2  0  0  0
  -20.6773  -26.9419   22.5419 C   0  0  0  0  0  0
  -19.5747  -26.6385   21.5221 C   0  0  0  0  0  0
  -18.1921  -26.7937   22.1626 C   0  0  0  0  0  0
  -19.1523  -28.8863   23.2893 C   0  0  0  0  0  0
  -18.9459  -30.1468   23.8915 C   0  0  0  0  0  0
  -17.6462  -30.6603   24.0568 C   0  0  0  0  0  0
  -25.9050  -34.9448   23.5103 C   0  0  0  0  0  0
  -16.5352  -29.9105   23.6324 C   0  0  0  0  0  0
  -16.7268  -28.6512   23.0354 C   0  0  0  0  0  0
  -26.4502  -31.6590   25.0707 C   0  0  0  0  0  0
  -25.3745  -31.3742   26.1445 C   0  0  0  0  0  0
  -27.0351  -30.3021   24.6147 C   0  0  0  0  0  0
  -27.6064  -32.4332   25.7485 C   0  0  0  0  0  0
  -27.5568  -37.1796   24.8468 C   0  0  0  0  0  0
  -21.4174  -29.3051   22.3689 N   0  0  0  0  0  0
  -26.4281  -37.3775   23.9410 N   0  0  0  0  0  0
  -24.6852  -31.0593   22.0954 N   0  0  0  0  0  0
  -23.4184  -28.8161   23.3031 O   0  0  0  0  0  0
  -28.3804  -26.5216   20.1951 O   0  0  0  0  0  0
  -26.5608  -34.8915   22.4662 O   0  0  0  0  0  0
  -23.5422  -32.1411   23.7331 O   0  0  0  0  0  0
  -29.4571  -19.4598   19.2591 C   0  0  0  0  0  0
  -29.4697  -19.2233   21.6400 C   0  0  0  0  0  0
  -29.2242  -20.8656   19.3840 C   0  0  0  0  0  0
  -29.2588  -20.6319   21.7648 C   0  0  0  0  0  0
  -29.6099  -18.5867   20.3739 C   0  0  0  0  0  0
  -29.1523  -21.5117   20.6448 C   0  0  0  0  0  0
  -29.7087  -23.4915   21.9926 C   0  0  0  0  0  0
  -29.6444  -15.9274   22.3749 C   0  0  0  0  0  0
  -29.9694  -17.0567   20.1127 C   0  0  0  0  0  0
  -28.0533  -23.8331   20.1476 C   0  0  0  0  0  0
  -28.5258  -25.2222   19.5097 C   0  0  0  0  0  0
  -29.0859  -22.9514   20.7852 N   0  0  0  0  0  0
  -29.9440  -15.7744   20.9408 N   0  0  0  0  0  0
  -31.4718  -12.5275   19.1689 H   0  0  0  0  0  0
  -30.3656  -11.4206   19.9232 H   0  0  0  0  0  0
  -29.7855  -11.7541   17.4973 H   0  0  0  0  0  0
  -29.6483  -13.4758   17.7426 H   0  0  0  0  0  0
  -27.8774  -11.2872   18.8792 H   0  0  0  0  0  0
  -27.3812  -12.5555   17.7928 H   0  0  0  0  0  0
  -27.6637  -14.2536   19.5091 H   0  0  0  0  0  0
  -28.7009  -12.0736   21.3840 H   0  0  0  0  0  0
  -28.3812  -13.7210   21.8241 H   0  0  0  0  0  0
  -25.2764   -9.5716   22.4730 H   0  0  0  0  0  0
  -24.0020   -7.4654   22.7475 H   0  0  0  0  0  0
  -21.0835   -8.8774   19.8951 H   0  0  0  0  0  0
  -22.3678  -10.9680   19.6152 H   0  0  0  0  0  0
  -21.2001   -7.6156   23.9725 H   0  0  0  0  0  0
  -21.1472   -6.0522   25.9075 H   0  0  0  0  0  0
  -22.0592   -2.7617   23.2834 H   0  0  0  0  0  0
  -22.4138  -11.9907   22.4780 H   0  0  0  0  0  0
  -21.1128  -13.1286   22.2620 H   0  0  0  0  0  0
  -24.6705  -15.8514   20.5514 H   0  0  0  0  0  0
  -26.2932  -15.6338   20.1293 H   0  0  0  0  0  0
  -26.7160  -32.5458   23.1078 H   0  0  0  0  0  0
  -25.0091  -33.9739   25.0431 H   0  0  0  0  0  0
  -22.7122  -31.2999   21.3973 H   0  0  0  0  0  0
  -23.3735  -35.9622   23.3310 H   0  0  0  0  0  0
  -24.3564  -36.8904   22.2049 H   0  0  0  0  0  0
  -23.7237  -37.6492   23.6656 H   0  0  0  0  0  0
  -26.0786  -31.5473   20.5932 H   0  0  0  0  0  0
  -26.8396  -30.8496   21.9909 H   0  0  0  0  0  0
  -28.1028  -28.9858   21.2009 H   0  0  0  0  0  0
  -25.9911  -25.9021   19.0327 H   0  0  0  0  0  0
  -23.9792  -27.2851   19.0208 H   0  0  0  0  0  0
  -23.7519  -30.5846   19.4018 H   0  0  0  0  0  0
  -22.7529  -29.2381   19.8562 H   0  0  0  0  0  0
  -25.1280  -36.1922   25.0819 H   0  0  0  0  0  0
  -20.9976  -28.3273   24.1406 H   0  0  0  0  0  0
  -20.5690  -26.2302   23.3616 H   0  0  0  0  0  0
  -21.6643  -26.7466   22.1201 H   0  0  0  0  0  0
  -19.6914  -25.6292   21.1262 H   0  0  0  0  0  0
  -19.6690  -27.3183   20.6743 H   0  0  0  0  0  0
  -17.4195  -26.6680   21.4024 H   0  0  0  0  0  0
  -18.0324  -26.0090   22.9039 H   0  0  0  0  0  0
  -19.7941  -30.7271   24.2295 H   0  0  0  0  0  0
  -17.5022  -31.6284   24.5173 H   0  0  0  0  0  0
  -15.5355  -30.3019   23.7657 H   0  0  0  0  0  0
  -15.8655  -28.0848   22.7068 H   0  0  0  0  0  0
  -24.5902  -30.7103   25.7783 H   0  0  0  0  0  0
  -24.8950  -32.2929   26.4858 H   0  0  0  0  0  0
  -25.8080  -30.8934   27.0227 H   0  0  0  0  0  0
  -26.2928  -29.6768   24.1173 H   0  0  0  0  0  0
  -27.4074  -29.7278   25.4639 H   0  0  0  0  0  0
  -27.8779  -30.4317   23.9347 H   0  0  0  0  0  0
  -27.2664  -33.3626   26.2071 H   0  0  0  0  0  0
  -28.3877  -32.6915   25.0319 H   0  0  0  0  0  0
  -28.0729  -31.8454   26.5407 H   0  0  0  0  0  0
  -28.2599  -38.0083   24.7501 H   0  0  0  0  0  0
  -28.1056  -36.2614   24.6306 H   0  0  0  0  0  0
  -27.2293  -37.1467   25.8878 H   0  0  0  0  0  0
  -20.9347  -29.8771   21.6894 H   0  0  0  0  0  0
  -26.0157  -38.2845   24.1428 H   0  0  0  0  0  0
  -29.5511  -19.0471   18.2641 H   0  0  0  0  0  0
  -29.5537  -18.6506   22.5498 H   0  0  0  0  0  0
  -29.1616  -21.4600   18.4822 H   0  0  0  0  0  0
  -29.1960  -21.0336   22.7664 H   0  0  0  0  0  0
  -29.0495  -23.3765   22.8537 H   0  0  0  0  0  0
  -29.9256  -24.5555   21.8861 H   0  0  0  0  0  0
  -30.6523  -22.9901   22.2156 H   0  0  0  0  0  0
  -30.3331  -16.6315   22.8387 H   0  0  0  0  0  0
  -29.7546  -14.9984   22.9381 H   0  0  0  0  0  0
  -28.6251  -16.2848   22.5213 H   0  0  0  0  0  0
  -28.8954  -17.0039   20.2983 H   0  0  0  0  0  0
  -30.8284  -17.3312   20.7282 H   0  0  0  0  0  0
  -27.5868  -23.2505   19.3526 H   0  0  0  0  0  0
  -27.2522  -24.0236   20.8630 H   0  0  0  0  0  0
  -28.0650  -25.3150   18.5260 H   0  0  0  0  0  0
  -29.5872  -25.1290   19.2758 H   0  0  0  0  0  0
  1 25  1  0  0  0
  1 30  2  0  0  0
  1 83  1  0  0  0
  2  3  1  0  0  0
  2 25  1  0  0  0
  2 84  1  0  0  0
  2 85  1  0  0  0
  3  4  1  0  0  0
  3 86  1  0  0  0
  3 87  1  0  0  0
  4  5  1  0  0  0
  4 88  1  0  0  0
  4 89  1  0  0  0
  5  6  1  0  0  0
  5 26  1  0  0  0
  5 90  1  0  0  0
  6 25  1  0  0  0
  6 91  1  0  0  0
  6 92  1  0  0  0
  7  8  2  0  0  0
  7 26  1  0  0  0
  7 29  1  0  0  0
  8  9  1  0  0  0
  8 22  1  0  0  0
  9 10  1  0  0  0
  9 27  2  0  0  0
 10 11  2  0  0  0
 10 15  1  0  0  0
 11 12  1  0  0  0
 11 93  1  0  0  0
 12 13  2  0  0  0
 12 94  1  0  0  0
 13 14  1  0  0  0
 13 31  1  0  0  0
 14 15  2  0  0  0
 14 95  1  0  0  0
 15 96  1  0  0  0
 16 17  2  0  0  0
 16 21  1  0  0  0
 16 31  1  0  0  0
 17 18  1  0  0  0
 17 97  1  0  0  0
 18 19  2  0  0  0
 18 98  1  0  0  0
 19 20  1  0  0  0
 19 24  1  0  0  0
 20 21  2  0  0  0
 20 99  1  0  0  0
 21 23  1  0  0  0
 22 28  1  0  0  0
 22 32  2  0  0  0
 26 27  1  0  0  0
 28100  1  0  0  0
 28101  1  0  0  0
 29102  1  0  0  0
 29103  1  0  0  0
 33 34  1  0  0  0
 33 66  1  0  0  0
 33 70  2  0  0  0
 34 36  1  0  0  0
 34 59  1  0  0  0
 34104  1  0  0  0
 35 44  2  0  0  0
 35 45  1  0  0  0
 35 68  1  0  0  0
 36 56  1  0  0  0
 36105  1  0  0  0
 37 39  1  0  0  0
 37 47  1  0  0  0
 37 66  1  0  0  0
 37106  1  0  0  0
 38 43  2  0  0  0
 38 46  1  0  0  0
 38 47  1  0  0  0
 39 64  1  0  0  0
 39 67  2  0  0  0
 40 52  1  0  0  0
 40 53  2  0  0  0
 40 58  1  0  0  0
 41107  1  0  0  0
 41108  1  0  0  0
 41109  1  0  0  0
 41 48  1  0  0  0
 42 43  1  0  0  0
 42 66  1  0  0  0
 42110  1  0  0  0
 42111  1  0  0  0
 43 44  1  0  0  0
 44112  1  0  0  0
 45 46  2  0  0  0
 45113  1  0  0  0
 46114  1  0  0  0
 47115  1  0  0  0
 47116  1  0  0  0
 48 56  1  0  0  0
 48 65  1  0  0  0
 48117  1  0  0  0
 49 50  1  0  0  0
 49 53  1  0  0  0
 49 64  1  0  0  0
 49118  1  0  0  0
 50 51  1  0  0  0
 50119  1  0  0  0
 50120  1  0  0  0
 51 52  1  0  0  0
 51121  1  0  0  0
 51122  1  0  0  0
 52123  1  0  0  0
 52124  1  0  0  0
 53 54  1  0  0  0
 54 55  2  0  0  0
 54125  1  0  0  0
 55 57  1  0  0  0
 55126  1  0  0  0
 56 69  2  0  0  0
 57 58  2  0  0  0
 57127  1  0  0  0
 58128  1  0  0  0
 59 60  1  0  0  0
 59 61  1  0  0  0
 59 62  1  0  0  0
 60129  1  0  0  0
 60130  1  0  0  0
 60131  1  0  0  0
 61132  1  0  0  0
 61133  1  0  0  0
 61134  1  0  0  0
 62135  1  0  0  0
 62136  1  0  0  0
 62137  1  0  0  0
 63 65  1  0  0  0
 63138  1  0  0  0
 63139  1  0  0  0
 63140  1  0  0  0
 64141  1  0  0  0
 65142  1  0  0  0
 68 81  1  0  0  0
 71 73  2  0  0  0
 71 75  1  0  0  0
 71143  1  0  0  0
 72 74  1  0  0  0
 72 75  2  0  0  0
 72144  1  0  0  0
 73 76  1  0  0  0
 73145  1  0  0  0
 74 76  2  0  0  0
 74146  1  0  0  0
 75 79  1  0  0  0
 76 82  1  0  0  0
 77 82  1  0  0  0
 77147  1  0  0  0
 77148  1  0  0  0
 77149  1  0  0  0
 78 83  1  0  0  0
 78150  1  0  0  0
 78151  1  0  0  0
 78152  1  0  0  0
 79 83  1  0  0  0
 79153  1  0  0  0
 79154  1  0  0  0
 80 81  1  0  0  0
 80 82  1  0  0  0
 80155  1  0  0  0
 80156  1  0  0  0
 81157  1  0  0  0
 81158  1  0  0  0
M  ISO  4   1 100  68 101  81 101  83 100
M  END
> <chiral flag>
0

> <version>
0

> <s_m_source_file>
/data/baiqing/PycharmProjects/Reinvent-master-3.2/result/LINK_invent/BTK/process_docking_weight1_custom_product_contain_oxygen_bond_distance_aromatic_linkinvent_7_9_3/rearranged_h_0014.sdf

> <i_m_source_file_index>
1

> <r_mmod_Potential_Energy-OPLS-2005>
439.037231445312

> <r_mmod_Stretch_Energy-OPLS-2005>
92.5135726928711

> <r_mmod_Bend_Energy-OPLS-2005>
379.099792480469

> <r_mmod_Torsional_Energy-OPLS-2005>
270.232360839844

> <r_mmod_Improper_Torsional_Energy-OPLS-2005>
9.45748710632324

> <r_mmod_Van_der_Waal_Energy-OPLS-2005>
151.953414916992

> <r_mmod_Electrostatic_Energy-OPLS-2005>
-298.704345703125

> <r_mmod_Solvation_Energy-OPLS-2005>
-213.23828125

> <b_mmod_Minimization_Converged-OPLS-2005>
0

> <r_mmod_RMS_Derivative-OPLS-2005>
2.17701935768127

$$$$
1
                    3D
 Structure written by MMmdl.
158167  0  0  1  0            999 V2000
  -30.6194  -14.6402   20.4633 C   0  0  0  0  0  0
  -30.4353  -12.3789   19.4644 C   0  0  0  0  0  0
  -29.5078  -12.5003   18.2315 C   0  0  0  0  0  0
  -28.0318  -12.3235   18.6430 C   0  0  0  0  0  0
  -27.6482  -13.2085   19.8586 C   0  0  2  0  0  0
  -28.6948  -13.0779   20.9864 C   0  0  0  0  0  0
  -25.2553  -13.8151   20.5686 C   0  0  0  0  0  0
  -24.1828  -13.0441   20.9216 C   0  0  0  0  0  0
  -24.6382  -11.6899   20.8781 C   0  0  0  0  0  0
  -23.9052  -10.4294   21.0441 C   0  0  0  0  0  0
  -24.3609   -9.4208   21.9204 C   0  0  0  0  0  0
  -23.6294   -8.2240   22.0760 C   0  0  0  0  0  0
  -22.4275   -8.0281   21.3556 C   0  0  0  0  0  0
  -21.9923   -9.0257   20.4655 C   0  0  0  0  0  0
  -22.7246  -10.2136   20.3077 C   0  0  0  0  0  0
  -21.6849   -6.0741   22.5282 C   0  0  0  0  0  0
  -21.4009   -6.5641   23.8218 C   0  0  0  0  0  0
  -21.3656   -5.6788   24.9174 C   0  0  0  0  0  0
  -21.6049   -4.3055   24.7222 C   0  0  0  0  0  0
  -21.8821   -3.8153   23.4341 C   0  0  0  0  0  0
  -21.9196   -4.6971   22.3401 C   0  0  0  0  0  0
  -22.7847  -13.5241   21.1849 C   0  0  0  0  0  0
  -22.1665   -4.2161   21.0977 F   0  0  0  0  0  0
  -21.5622   -3.4539   25.7738 F   0  0  0  0  0  0
  -30.0116  -13.4114   20.4295 N   0  0  0  0  0  0
  -26.2966  -12.9308   20.3323 N   0  0  0  0  0  0
  -25.9310  -11.6479   20.5815 N   0  0  0  0  0  0
  -22.0474  -12.8233   22.0378 N   0  0  0  0  0  0
  -25.4257  -15.1871   20.4025 N   0  0  0  0  0  0
  -31.8180  -14.7402   20.1907 O   0  0  0  0  0  0
  -21.6640   -6.8884   21.4246 O   0  0  0  0  0  0
  -22.3550  -14.5548   20.6671 O   0  0  0  0  0  0
  -24.6263  -31.8621   23.2051 C   0  0  0  0  0  0
  -25.9120  -32.4799   23.8364 C   0  0  1  0  0  0
  -27.2220  -27.3305   20.0957 C   0  0  0  0  0  0
  -25.5933  -33.8600   24.2277 N   0  0  0  0  0  0
  -23.4175  -30.4884   21.5481 C   0  0  2  0  0  0
  -24.8607  -28.9468   20.1114 C   0  0  0  0  0  0
  -22.7480  -29.4651   22.4949 C   0  0  0  0  0  0
  -18.0334  -28.1362   22.8460 C   0  0  0  0  0  0
  -24.1480  -36.7299   23.2644 C   0  0  0  0  0  0
  -25.9606  -30.7916   21.3788 C   0  0  0  0  0  0
  -26.0308  -29.4237   20.7133 C   0  0  0  0  0  0
  -27.2113  -28.6260   20.6987 C   0  0  0  0  0  0
  -26.0120  -26.8903   19.5081 C   0  0  0  0  0  0
  -24.8511  -27.6832   19.5067 C   0  0  0  0  0  0
  -23.6306  -29.8272   20.1618 C   0  0  0  0  0  0
  -25.4122  -36.3098   24.0322 C   0  0  1  0  0  0
  -20.5906  -28.3722   23.1312 C   0  0  2  0  0  0
  -20.6829  -26.9450   22.5429 C   0  0  0  0  0  0
  -19.5859  -26.6493   21.5148 C   0  0  0  0  0  0
  -18.2055  -26.7899   22.1622 C   0  0  0  0  0  0
  -19.1552  -28.8874   23.2835 C   0  0  0  0  0  0
  -18.9449  -30.1501   23.8783 C   0  0  0  0  0  0
  -17.6423  -30.6578   24.0476 C   0  0  0  0  0  0
  -25.9062  -34.9473   23.5097 C   0  0  0  0  0  0
  -16.5341  -29.9001   23.6318 C   0  0  0  0  0  0
  -16.7306  -28.6430   23.0328 C   0  0  0  0  0  0
  -26.4496  -31.6629   25.0750 C   0  0  0  0  0  0
  -25.3732  -31.3796   26.1479 C   0  0  0  0  0  0
  -27.0342  -30.3048   24.6248 C   0  0  0  0  0  0
  -27.6021  -32.4397   25.7534 C   0  0  0  0  0  0
  -27.5576  -37.1818   24.8473 C   0  0  0  0  0  0
  -21.4191  -29.3087   22.3721 N   0  0  0  0  0  0
  -26.4303  -37.3793   23.9396 N   0  0  0  0  0  0
  -24.6865  -31.0637   22.1000 N   0  0  0  0  0  0
  -23.4223  -28.8157   23.2996 O   0  0  0  0  0  0
  -28.3552  -26.5046   20.1570 O   0  0  0  0  0  0
  -26.5631  -34.8924   22.4665 O   0  0  0  0  0  0
  -23.5424  -32.1403   23.7380 O   0  0  0  0  0  0
  -28.6656  -21.9167   21.1977 C   0  0  0  0  0  0
  -30.2423  -21.8570   19.3833 C   0  0  0  0  0  0
  -28.3119  -23.2619   20.8485 C   0  0  0  0  0  0
  -29.8936  -23.1931   19.0413 C   0  0  0  0  0  0
  -29.6503  -21.1786   20.4772 C   0  0  0  0  0  0
  -28.9335  -23.9421   19.7680 C   0  0  0  0  0  0
  -28.9672  -16.3796   21.6972 C   0  0  0  0  0  0
  -28.6425  -17.8916   21.5265 C   0  0  0  0  0  0
  -30.5306  -17.3361   20.2125 C   0  0  0  0  0  0
  -29.7664  -15.9831   20.4477 C   0  0  2  0  0  0
  -30.2324  -19.7920   20.9516 C   0  0  0  0  0  0
  -28.5235  -25.3654   19.2421 C   0  0  0  0  0  0
  -29.5968  -18.4733   20.5445 N   0  3  2  0  0  0
  -31.4808  -12.4818   19.1732 H   0  0  0  0  0  0
  -30.3522  -11.3879   19.9135 H   0  0  0  0  0  0
  -29.7798  -11.7626   17.4764 H   0  0  0  0  0  0
  -29.6434  -13.4775   17.7656 H   0  0  0  0  0  0
  -27.8828  -11.2724   18.8922 H   0  0  0  0  0  0
  -27.3752  -12.5311   17.7985 H   0  0  0  0  0  0
  -27.6517  -14.2355   19.5024 H   0  0  0  0  0  0
  -28.7051  -12.0589   21.3764 H   0  0  0  0  0  0
  -28.4492  -13.7046   21.8395 H   0  0  0  0  0  0
  -25.2756   -9.5672   22.4775 H   0  0  0  0  0  0
  -24.0008   -7.4618   22.7465 H   0  0  0  0  0  0
  -21.0859   -8.8788   19.8937 H   0  0  0  0  0  0
  -22.3733  -10.9674   19.6177 H   0  0  0  0  0  0
  -21.2000   -7.6148   23.9729 H   0  0  0  0  0  0
  -21.1474   -6.0512   25.9077 H   0  0  0  0  0  0
  -22.0608   -2.7616   23.2839 H   0  0  0  0  0  0
  -22.4103  -11.9908   22.4768 H   0  0  0  0  0  0
  -21.1083  -13.1250   22.2565 H   0  0  0  0  0  0
  -24.6408  -15.8269   20.4672 H   0  0  0  0  0  0
  -26.2555  -15.6144   20.0159 H   0  0  0  0  0  0
  -26.7181  -32.5459   23.1090 H   0  0  0  0  0  0
  -25.0074  -33.9774   25.0412 H   0  0  0  0  0  0
  -22.7096  -31.3077   21.4068 H   0  0  0  0  0  0
  -23.3748  -35.9624   23.3330 H   0  0  0  0  0  0
  -24.3546  -36.8920   22.2054 H   0  0  0  0  0  0
  -23.7228  -37.6508   23.6652 H   0  0  0  0  0  0
  -26.1023  -31.5604   20.6182 H   0  0  0  0  0  0
  -26.8358  -30.8275   22.0151 H   0  0  0  0  0  0
  -28.1097  -28.9914   21.1765 H   0  0  0  0  0  0
  -25.9012  -25.9069   19.0826 H   0  0  0  0  0  0
  -23.9465  -27.2977   19.0579 H   0  0  0  0  0  0
  -23.7526  -30.6040   19.4067 H   0  0  0  0  0  0
  -22.7478  -29.2610   19.8559 H   0  0  0  0  0  0
  -25.1295  -36.1957   25.0816 H   0  0  0  0  0  0
  -20.9939  -28.3309   24.1459 H   0  0  0  0  0  0
  -21.6745  -26.7477   22.1303 H   0  0  0  0  0  0
  -20.5617  -26.2328   23.3599 H   0  0  0  0  0  0
  -19.7118  -25.6504   21.0982 H   0  0  0  0  0  0
  -19.6750  -27.3481   20.6822 H   0  0  0  0  0  0
  -17.4267  -26.6518   21.4106 H   0  0  0  0  0  0
  -18.0678  -26.0060   22.9098 H   0  0  0  0  0  0
  -19.7926  -30.7381   24.2044 H   0  0  0  0  0  0
  -17.4959  -31.6269   24.5038 H   0  0  0  0  0  0
  -15.5323  -30.2835   23.7688 H   0  0  0  0  0  0
  -15.8727  -28.0711   22.7058 H   0  0  0  0  0  0
  -24.5849  -30.7211   25.7824 H   0  0  0  0  0  0
  -24.8987  -32.2982   26.4949 H   0  0  0  0  0  0
  -25.8058  -30.8935   27.0231 H   0  0  0  0  0  0
  -26.2932  -29.6813   24.1242 H   0  0  0  0  0  0
  -27.3984  -29.7313   25.4788 H   0  0  0  0  0  0
  -27.8814  -30.4322   23.9506 H   0  0  0  0  0  0
  -27.2572  -33.3666   26.2121 H   0  0  0  0  0  0
  -28.3816  -32.7055   25.0382 H   0  0  0  0  0  0
  -28.0689  -31.8545   26.5463 H   0  0  0  0  0  0
  -28.2630  -38.0083   24.7482 H   0  0  0  0  0  0
  -28.1030  -36.2620   24.6327 H   0  0  0  0  0  0
  -27.2277  -37.1496   25.8873 H   0  0  0  0  0  0
  -20.9346  -29.8823   21.6959 H   0  0  0  0  0  0
  -26.0193  -38.2874   24.1380 H   0  0  0  0  0  0
  -28.1869  -21.4616   22.0549 H   0  0  0  0  0  0
  -31.0124  -21.3619   18.8056 H   0  0  0  0  0  0
  -27.5473  -23.7769   21.4146 H   0  0  0  0  0  0
  -30.3799  -23.6508   18.1914 H   0  0  0  0  0  0
  -28.0400  -15.8171   21.8025 H   0  0  0  0  0  0
  -29.5602  -16.2103   22.5961 H   0  0  0  0  0  0
  -28.6667  -18.3989   22.4907 H   0  0  0  0  0  0
  -27.6328  -18.0133   21.1337 H   0  0  0  0  0  0
  -31.3975  -17.3791   20.8750 H   0  0  0  0  0  0
  -30.9041  -17.4181   19.1899 H   0  0  0  0  0  0
  -29.0718  -15.8830   19.6157 H   0  0  0  0  0  0
  -30.3486  -19.8218   22.0361 H   0  0  0  0  0  0
  -31.2584  -19.7665   20.5821 H   0  0  0  0  0  0
  -27.7042  -25.2174   18.5467 H   0  0  0  0  0  0
  -29.3306  -25.6860   18.5840 H   0  0  0  0  0  0
  -29.0773  -18.6628   19.7004 H   0  0  0  0  0  0
  1 25  1  0  0  0
  1 30  2  0  0  0
  1 80  1  0  0  0
  2  3  1  0  0  0
  2 25  1  0  0  0
  2 84  1  0  0  0
  2 85  1  0  0  0
  3  4  1  0  0  0
  3 86  1  0  0  0
  3 87  1  0  0  0
  4  5  1  0  0  0
  4 88  1  0  0  0
  4 89  1  0  0  0
  5  6  1  0  0  0
  5 26  1  0  0  0
  5 90  1  0  0  0
  6 25  1  0  0  0
  6 91  1  0  0  0
  6 92  1  0  0  0
  7  8  2  0  0  0
  7 26  1  0  0  0
  7 29  1  0  0  0
  8  9  1  0  0  0
  8 22  1  0  0  0
  9 10  1  0  0  0
  9 27  2  0  0  0
 10 11  2  0  0  0
 10 15  1  0  0  0
 11 12  1  0  0  0
 11 93  1  0  0  0
 12 13  2  0  0  0
 12 94  1  0  0  0
 13 14  1  0  0  0
 13 31  1  0  0  0
 14 15  2  0  0  0
 14 95  1  0  0  0
 15 96  1  0  0  0
 16 17  2  0  0  0
 16 21  1  0  0  0
 16 31  1  0  0  0
 17 18  1  0  0  0
 17 97  1  0  0  0
 18 19  2  0  0  0
 18 98  1  0  0  0
 19 20  1  0  0  0
 19 24  1  0  0  0
 20 21  2  0  0  0
 20 99  1  0  0  0
 21 23  1  0  0  0
 22 28  1  0  0  0
 22 32  2  0  0  0
 26 27  1  0  0  0
 28100  1  0  0  0
 28101  1  0  0  0
 29102  1  0  0  0
 29103  1  0  0  0
 33 34  1  0  0  0
 33 66  1  0  0  0
 33 70  2  0  0  0
 34 36  1  0  0  0
 34 59  1  0  0  0
 34104  1  0  0  0
 35 44  2  0  0  0
 35 45  1  0  0  0
 35 68  1  0  0  0
 36 56  1  0  0  0
 36105  1  0  0  0
 37 39  1  0  0  0
 37 47  1  0  0  0
 37 66  1  0  0  0
 37106  1  0  0  0
 38 43  2  0  0  0
 38 46  1  0  0  0
 38 47  1  0  0  0
 39 64  1  0  0  0
 39 67  2  0  0  0
 40 52  1  0  0  0
 40 53  2  0  0  0
 40 58  1  0  0  0
 41107  1  0  0  0
 41108  1  0  0  0
 41109  1  0  0  0
 41 48  1  0  0  0
 42 43  1  0  0  0
 42 66  1  0  0  0
 42110  1  0  0  0
 42111  1  0  0  0
 43 44  1  0  0  0
 44112  1  0  0  0
 45 46  2  0  0  0
 45113  1  0  0  0
 46114  1  0  0  0
 47115  1  0  0  0
 47116  1  0  0  0
 48 56  1  0  0  0
 48 65  1  0  0  0
 48117  1  0  0  0
 49 50  1  0  0  0
 49 53  1  0  0  0
 49 64  1  0  0  0
 49118  1  0  0  0
 50 51  1  0  0  0
 50119  1  0  0  0
 50120  1  0  0  0
 51 52  1  0  0  0
 51121  1  0  0  0
 51122  1  0  0  0
 52123  1  0  0  0
 52124  1  0  0  0
 53 54  1  0  0  0
 54 55  2  0  0  0
 54125  1  0  0  0
 55 57  1  0  0  0
 55126  1  0  0  0
 56 69  2  0  0  0
 57 58  2  0  0  0
 57127  1  0  0  0
 58128  1  0  0  0
 59 60  1  0  0  0
 59 61  1  0  0  0
 59 62  1  0  0  0
 60129  1  0  0  0
 60130  1  0  0  0
 60131  1  0  0  0
 61132  1  0  0  0
 61133  1  0  0  0
 61134  1  0  0  0
 62135  1  0  0  0
 62136  1  0  0  0
 62137  1  0  0  0
 63 65  1  0  0  0
 63138  1  0  0  0
 63139  1  0  0  0
 63140  1  0  0  0
 64141  1  0  0  0
 65142  1  0  0  0
 68 82  1  0  0  0
 71 73  2  0  0  0
 71 75  1  0  0  0
 71143  1  0  0  0
 72 74  1  0  0  0
 72 75  2  0  0  0
 72144  1  0  0  0
 73 76  1  0  0  0
 73145  1  0  0  0
 74 76  2  0  0  0
 74146  1  0  0  0
 75 81  1  0  0  0
 76 82  1  0  0  0
 77 78  1  0  0  0
 77 80  1  0  0  0
 77147  1  0  0  0
 77148  1  0  0  0
 78 83  1  0  0  0
 78149  1  0  0  0
 78150  1  0  0  0
 79 80  1  0  0  0
 79 83  1  0  0  0
 79151  1  0  0  0
 79152  1  0  0  0
 80153  1  0  0  0
 81154  1  0  0  0
 81155  1  0  0  0
 81 83  1  0  0  0
 82156  1  0  0  0
 82157  1  0  0  0
 83158  1  0  0  0
M  CHG  1  83   1
M  ISO  4   1 100  68 101  80 100  82 101
M  END
> <chiral flag>
0

> <version>
0

> <s_m_source_file>
/data/baiqing/PycharmProjects/Reinvent-master-3.2/result/LINK_invent/BTK/process_docking_weight1_custom_product_contain_oxygen_bond_distance_aromatic_linkinvent_7_9_3/rearranged_h_0014.sdf

> <i_m_source_file_index>
2

> <r_mmod_Potential_Energy-OPLS-2005>
40.3130760192871

> <r_mmod_Stretch_Energy-OPLS-2005>
74.3279190063477

> <r_mmod_Bend_Energy-OPLS-2005>
172.30451965332

> <r_mmod_Torsional_Energy-OPLS-2005>
261.237854003906

> <r_mmod_Improper_Torsional_Energy-OPLS-2005>
11.3667793273926

> <r_mmod_Van_der_Waal_Energy-OPLS-2005>
140.711349487305

> <r_mmod_Electrostatic_Energy-OPLS-2005>
-227.594314575195

> <r_mmod_Solvation_Energy-OPLS-2005>
-440.526947021484

> <b_mmod_Minimization_Converged-OPLS-2005>
0

> <r_mmod_RMS_Derivative-OPLS-2005>
2.87664771080017

$$$$
2
                    3D
 Structure written by MMmdl.
162171  0  0  1  0            999 V2000
  -30.5218  -14.9158   20.4354 C   0  0  0  0  0  0
  -30.4420  -12.5687   19.4822 C   0  0  0  0  0  0
  -29.5124  -12.5311   18.2469 C   0  0  0  0  0  0
  -28.0441  -12.3242   18.6641 C   0  0  0  0  0  0
  -27.6329  -13.2402   19.8454 C   0  0  2  0  0  0
  -28.6784  -13.2312   20.9803 C   0  0  0  0  0  0
  -25.2463  -13.8207   20.5703 C   0  0  0  0  0  0
  -24.1775  -13.0448   20.9227 C   0  0  0  0  0  0
  -24.6378  -11.6936   20.8780 C   0  0  0  0  0  0
  -23.9062  -10.4307   21.0438 C   0  0  0  0  0  0
  -24.3611   -9.4220   21.9205 C   0  0  0  0  0  0
  -23.6291   -8.2246   22.0761 C   0  0  0  0  0  0
  -22.4273   -8.0281   21.3546 C   0  0  0  0  0  0
  -21.9925   -9.0255   20.4647 C   0  0  0  0  0  0
  -22.7246  -10.2137   20.3074 C   0  0  0  0  0  0
  -21.6858   -6.0735   22.5269 C   0  0  0  0  0  0
  -21.4018   -6.5639   23.8196 C   0  0  0  0  0  0
  -21.3660   -5.6794   24.9169 C   0  0  0  0  0  0
  -21.6044   -4.3057   24.7213 C   0  0  0  0  0  0
  -21.8823   -3.8144   23.4339 C   0  0  0  0  0  0
  -21.9190   -4.6969   22.3394 C   0  0  0  0  0  0
  -22.7790  -13.5233   21.1879 C   0  0  0  0  0  0
  -22.1658   -4.2153   21.0969 F   0  0  0  0  0  0
  -21.5634   -3.4539   25.7732 F   0  0  0  0  0  0
  -29.9590  -13.6450   20.3890 N   0  0  0  0  0  0
  -26.2895  -12.9421   20.3281 N   0  0  0  0  0  0
  -25.9307  -11.6568   20.5767 N   0  0  0  0  0  0
  -22.0425  -12.8214   22.0421 N   0  0  0  0  0  0
  -25.4181  -15.1922   20.4075 N   0  0  0  0  0  0
  -31.7197  -15.0330   20.1528 O   0  0  0  0  0  0
  -21.6637   -6.8874   21.4227 O   0  0  0  0  0  0
  -22.3503  -14.5549   20.6742 O   0  0  0  0  0  0
  -24.6428  -31.8388   23.1842 C   0  0  0  0  0  0
  -25.9192  -32.4661   23.8220 C   0  0  1  0  0  0
  -27.2360  -27.1412   20.1452 C   0  0  0  0  0  0
  -25.5930  -33.8471   24.2134 N   0  0  0  0  0  0
  -23.4472  -30.4555   21.5280 C   0  0  2  0  0  0
  -24.8987  -28.8761   20.1069 C   0  0  0  0  0  0
  -22.7564  -29.4521   22.4849 C   0  0  0  0  0  0
  -18.0302  -28.1393   22.8401 C   0  0  0  0  0  0
  -24.1512  -36.7258   23.2647 C   0  0  0  0  0  0
  -25.9996  -30.7129   21.3822 C   0  0  0  0  0  0
  -26.0722  -29.3233   20.7257 C   0  0  0  0  0  0
  -27.2346  -28.4687   20.7337 C   0  0  0  0  0  0
  -26.0355  -26.7888   19.4882 C   0  0  0  0  0  0
  -24.8917  -27.6206   19.4761 C   0  0  0  0  0  0
  -23.6737  -29.7776   20.1491 C   0  0  0  0  0  0
  -25.4139  -36.3020   24.0324 C   0  0  1  0  0  0
  -20.5904  -28.3701   23.1220 C   0  0  2  0  0  0
  -20.6791  -26.9410   22.5394 C   0  0  0  0  0  0
  -19.5787  -26.6368   21.5188 C   0  0  0  0  0  0
  -18.1955  -26.7916   22.1578 C   0  0  0  0  0  0
  -19.1553  -28.8863   23.2779 C   0  0  0  0  0  0
  -18.9501  -30.1452   23.8815 C   0  0  0  0  0  0
  -17.6500  -30.6580   24.0551 C   0  0  0  0  0  0
  -25.9092  -34.9399   23.5054 C   0  0  0  0  0  0
  -16.5387  -29.9068   23.6344 C   0  0  0  0  0  0
  -16.7290  -28.6522   23.0285 C   0  0  0  0  0  0
  -26.4496  -31.6545   25.0665 C   0  0  0  0  0  0
  -25.3692  -31.3727   26.1375 C   0  0  0  0  0  0
  -27.0364  -30.2951   24.6232 C   0  0  0  0  0  0
  -27.6014  -32.4303   25.7460 C   0  0  0  0  0  0
  -27.5584  -37.1780   24.8465 C   0  0  0  0  0  0
  -21.4266  -29.3004   22.3578 N   0  0  0  0  0  0
  -26.4283  -37.3748   23.9421 N   0  0  0  0  0  0
  -24.7168  -31.0243   22.0873 N   0  0  0  0  0  0
  -23.4195  -28.8117   23.3056 O   0  0  0  0  0  0
  -28.3237  -26.2030   20.2600 O   0  0  0  0  0  0
  -26.5689  -34.8911   22.4638 O   0  0  0  0  0  0
  -23.5548  -32.1270   23.7060 O   0  0  0  0  0  0
  -28.3913  -19.7510   20.1959 C   0  0  0  0  0  0
  -28.4799  -18.3046   20.2954 C   0  0  0  0  0  0
  -30.7973  -18.4343   20.6653 C   0  0  0  0  0  0
  -30.7330  -19.8934   20.5702 C   0  0  0  0  0  0
  -29.5096  -20.6378   20.2941 C   0  0  0  0  0  0
  -29.6849  -17.5500   20.5017 C   0  0  0  0  0  0
  -31.8860  -22.1741   20.4802 C   0  0  0  0  0  0
  -30.7892  -22.4546   19.4479 C   0  0  0  0  0  0
  -32.0520  -20.6640   20.7896 C   0  0  0  0  0  0
  -32.4956  -20.5204   22.2629 C   0  0  0  0  0  0
  -33.1714  -20.1010   19.8797 C   0  0  0  0  0  0
  -28.7144  -23.3162   20.6010 C   0  0  0  0  0  0
  -28.3872  -24.7373   19.7447 C   0  0  0  0  0  0
  -29.4745  -22.0987   19.9804 N   0  0  0  0  0  0
  -29.6552  -16.0238   20.6000 N   0  0  0  0  0  0
  -31.4704  -12.7418   19.1618 H   0  0  0  0  0  0
  -30.4401  -11.6056   19.9928 H   0  0  0  0  0  0
  -29.8171  -11.7359   17.5653 H   0  0  0  0  0  0
  -29.6040  -13.4624   17.6866 H   0  0  0  0  0  0
  -27.9281  -11.2805   18.9540 H   0  0  0  0  0  0
  -27.3804  -12.4813   17.8122 H   0  0  0  0  0  0
  -27.6038  -14.2495   19.4354 H   0  0  0  0  0  0
  -28.7570  -12.2456   21.4405 H   0  0  0  0  0  0
  -28.3820  -13.9170   21.7754 H   0  0  0  0  0  0
  -25.2755   -9.5706   22.4798 H   0  0  0  0  0  0
  -24.0003   -7.4650   22.7496 H   0  0  0  0  0  0
  -21.0861   -8.8779   19.8951 H   0  0  0  0  0  0
  -22.3703  -10.9686   19.6194 H   0  0  0  0  0  0
  -21.2000   -7.6147   23.9704 H   0  0  0  0  0  0
  -21.1488   -6.0522   25.9065 H   0  0  0  0  0  0
  -22.0597   -2.7613   23.2830 H   0  0  0  0  0  0
  -22.4029  -11.9847   22.4780 H   0  0  0  0  0  0
  -21.1052  -13.1271   22.2640 H   0  0  0  0  0  0
  -24.6492  -15.8471   20.4954 H   0  0  0  0  0  0
  -26.2495  -15.6131   20.0161 H   0  0  0  0  0  0
  -26.7238  -32.5272   23.0927 H   0  0  0  0  0  0
  -25.0050  -33.9589   25.0254 H   0  0  0  0  0  0
  -22.7524  -31.2825   21.3698 H   0  0  0  0  0  0
  -23.3786  -35.9592   23.3298 H   0  0  0  0  0  0
  -24.3592  -36.8907   22.2055 H   0  0  0  0  0  0
  -23.7282  -37.6460   23.6696 H   0  0  0  0  0  0
  -26.1552  -31.4618   20.6048 H   0  0  0  0  0  0
  -26.8671  -30.7591   22.0270 H   0  0  0  0  0  0
  -28.1242  -28.7988   21.2513 H   0  0  0  0  0  0
  -25.9351  -25.8297   19.0069 H   0  0  0  0  0  0
  -23.9952  -27.2653   18.9862 H   0  0  0  0  0  0
  -23.8089  -30.5473   19.3886 H   0  0  0  0  0  0
  -22.7896  -29.2162   19.8406 H   0  0  0  0  0  0
  -25.1333  -36.1846   25.0820 H   0  0  0  0  0  0
  -20.9936  -28.3301   24.1368 H   0  0  0  0  0  0
  -20.5685  -26.2329   23.3613 H   0  0  0  0  0  0
  -21.6673  -26.7437   22.1214 H   0  0  0  0  0  0
  -19.6997  -25.6290   21.1207 H   0  0  0  0  0  0
  -19.6760  -27.3156   20.6704 H   0  0  0  0  0  0
  -17.4240  -26.6596   21.3962 H   0  0  0  0  0  0
  -18.0384  -26.0080   22.8999 H   0  0  0  0  0  0
  -19.7995  -30.7239   24.2147 H   0  0  0  0  0  0
  -17.5096  -31.6254   24.5167 H   0  0  0  0  0  0
  -15.5390  -30.2952   23.7759 H   0  0  0  0  0  0
  -15.8681  -28.0867   22.6974 H   0  0  0  0  0  0
  -24.5934  -30.6991   25.7734 H   0  0  0  0  0  0
  -24.8802  -32.2890   26.4676 H   0  0  0  0  0  0
  -25.7977  -30.9024   27.0232 H   0  0  0  0  0  0
  -26.2955  -29.6670   24.1258 H   0  0  0  0  0  0
  -27.4032  -29.7252   25.4784 H   0  0  0  0  0  0
  -27.8860  -30.4229   23.9512 H   0  0  0  0  0  0
  -27.2611  -33.3668   26.1897 H   0  0  0  0  0  0
  -28.3876  -32.6739   25.0294 H   0  0  0  0  0  0
  -28.0611  -31.8503   26.5472 H   0  0  0  0  0  0
  -28.2561  -38.0102   24.7509 H   0  0  0  0  0  0
  -28.1098  -36.2623   24.6280 H   0  0  0  0  0  0
  -27.2288  -37.1416   25.8859 H   0  0  0  0  0  0
  -20.9521  -29.8743   21.6740 H   0  0  0  0  0  0
  -26.0156  -38.2837   24.1410 H   0  0  0  0  0  0
  -27.4225  -20.1793   19.9864 H   0  0  0  0  0  0
  -27.5576  -17.7557   20.1853 H   0  0  0  0  0  0
  -31.7452  -17.9698   20.8847 H   0  0  0  0  0  0
  -31.6325  -22.7230   21.3892 H   0  0  0  0  0  0
  -32.8339  -22.6048   20.1565 H   0  0  0  0  0  0
  -30.9762  -21.8939   18.5307 H   0  0  0  0  0  0
  -30.8370  -23.5020   19.1594 H   0  0  0  0  0  0
  -31.7384  -20.9137   22.9427 H   0  0  0  0  0  0
  -33.4212  -21.0630   22.4652 H   0  0  0  0  0  0
  -32.6669  -19.4802   22.5399 H   0  0  0  0  0  0
  -32.8879  -20.1476   18.8277 H   0  0  0  0  0  0
  -33.4296  -19.0666   20.1058 H   0  0  0  0  0  0
  -34.0993  -20.6626   19.9934 H   0  0  0  0  0  0
  -27.7815  -22.9561   21.0349 H   0  0  0  0  0  0
  -29.3186  -23.6047   21.4621 H   0  0  0  0  0  0
  -27.5266  -24.5204   19.1173 H   0  0  0  0  0  0
  -29.1909  -24.8174   19.0161 H   0  0  0  0  0  0
  -28.7175  -15.6821   20.7377 H   0  0  0  0  0  0
  1 25  1  0  0  0
  1 30  2  0  0  0
  1 85  1  0  0  0
  2  3  1  0  0  0
  2 25  1  0  0  0
  2 86  1  0  0  0
  2 87  1  0  0  0
  3  4  1  0  0  0
  3 88  1  0  0  0
  3 89  1  0  0  0
  4  5  1  0  0  0
  4 90  1  0  0  0
  4 91  1  0  0  0
  5  6  1  0  0  0
  5 26  1  0  0  0
  5 92  1  0  0  0
  6 25  1  0  0  0
  6 93  1  0  0  0
  6 94  1  0  0  0
  7  8  2  0  0  0
  7 26  1  0  0  0
  7 29  1  0  0  0
  8  9  1  0  0  0
  8 22  1  0  0  0
  9 10  1  0  0  0
  9 27  2  0  0  0
 10 11  2  0  0  0
 10 15  1  0  0  0
 11 12  1  0  0  0
 11 95  1  0  0  0
 12 13  2  0  0  0
 12 96  1  0  0  0
 13 14  1  0  0  0
 13 31  1  0  0  0
 14 15  2  0  0  0
 14 97  1  0  0  0
 15 98  1  0  0  0
 16 17  2  0  0  0
 16 21  1  0  0  0
 16 31  1  0  0  0
 17 18  1  0  0  0
 17 99  1  0  0  0
 18 19  2  0  0  0
 18100  1  0  0  0
 19 20  1  0  0  0
 19 24  1  0  0  0
 20 21  2  0  0  0
 20101  1  0  0  0
 21 23  1  0  0  0
 22 28  1  0  0  0
 22 32  2  0  0  0
 26 27  1  0  0  0
 28102  1  0  0  0
 28103  1  0  0  0
 29104  1  0  0  0
 29105  1  0  0  0
 33 34  1  0  0  0
 33 66  1  0  0  0
 33 70  2  0  0  0
 34 36  1  0  0  0
 34 59  1  0  0  0
 34106  1  0  0  0
 35 44  2  0  0  0
 35 45  1  0  0  0
 35 68  1  0  0  0
 36 56  1  0  0  0
 36107  1  0  0  0
 37 39  1  0  0  0
 37 47  1  0  0  0
 37 66  1  0  0  0
 37108  1  0  0  0
 38 43  2  0  0  0
 38 46  1  0  0  0
 38 47  1  0  0  0
 39 64  1  0  0  0
 39 67  2  0  0  0
 40 52  1  0  0  0
 40 53  2  0  0  0
 40 58  1  0  0  0
 41109  1  0  0  0
 41110  1  0  0  0
 41111  1  0  0  0
 41 48  1  0  0  0
 42 43  1  0  0  0
 42 66  1  0  0  0
 42112  1  0  0  0
 42113  1  0  0  0
 43 44  1  0  0  0
 44114  1  0  0  0
 45 46  2  0  0  0
 45115  1  0  0  0
 46116  1  0  0  0
 47117  1  0  0  0
 47118  1  0  0  0
 48 56  1  0  0  0
 48 65  1  0  0  0
 48119  1  0  0  0
 49 50  1  0  0  0
 49 53  1  0  0  0
 49 64  1  0  0  0
 49120  1  0  0  0
 50 51  1  0  0  0
 50121  1  0  0  0
 50122  1  0  0  0
 51 52  1  0  0  0
 51123  1  0  0  0
 51124  1  0  0  0
 52125  1  0  0  0
 52126  1  0  0  0
 53 54  1  0  0  0
 54 55  2  0  0  0
 54127  1  0  0  0
 55 57  1  0  0  0
 55128  1  0  0  0
 56 69  2  0  0  0
 57 58  2  0  0  0
 57129  1  0  0  0
 58130  1  0  0  0
 59 60  1  0  0  0
 59 61  1  0  0  0
 59 62  1  0  0  0
 60131  1  0  0  0
 60132  1  0  0  0
 60133  1  0  0  0
 61134  1  0  0  0
 61135  1  0  0  0
 61136  1  0  0  0
 62137  1  0  0  0
 62138  1  0  0  0
 62139  1  0  0  0
 63 65  1  0  0  0
 63140  1  0  0  0
 63141  1  0  0  0
 63142  1  0  0  0
 64143  1  0  0  0
 65144  1  0  0  0
 68 83  1  0  0  0
 71 72  2  0  0  0
 71 75  1  0  0  0
 71145  1  0  0  0
 72 76  1  0  0  0
 72146  1  0  0  0
 73 74  1  0  0  0
 73 76  2  0  0  0
 73147  1  0  0  0
 74 75  2  0  0  0
 74 79  1  0  0  0
 75 84  1  0  0  0
 76 85  1  0  0  0
 77 78  1  0  0  0
 77 79  1  0  0  0
 77148  1  0  0  0
 77149  1  0  0  0
 78 84  1  0  0  0
 78150  1  0  0  0
 78151  1  0  0  0
 79 80  1  0  0  0
 79 81  1  0  0  0
 80152  1  0  0  0
 80153  1  0  0  0
 80154  1  0  0  0
 81155  1  0  0  0
 81156  1  0  0  0
 81157  1  0  0  0
 82 83  1  0  0  0
 82 84  1  0  0  0
 82158  1  0  0  0
 82159  1  0  0  0
 83160  1  0  0  0
 83161  1  0  0  0
 85162  1  0  0  0
M  ISO  4   1 100  68 101  83 101  85 100
M  END
> <chiral flag>
0

> <version>
0

> <s_m_source_file>
/data/baiqing/PycharmProjects/Reinvent-master-3.2/result/LINK_invent/BTK/process_docking_weight1_custom_product_contain_oxygen_bond_distance_aromatic_linkinvent_7_9_3/rearranged_h_0014.sdf

> <i_m_source_file_index>
3

> <r_mmod_Potential_Energy-OPLS-2005>
467.8271484375

> <r_mmod_Stretch_Energy-OPLS-2005>
225.433319091797

> <r_mmod_Bend_Energy-OPLS-2005>
283.752044677734

> <r_mmod_Torsional_Energy-OPLS-2005>
241.736587524414

> <r_mmod_Improper_Torsional_Energy-OPLS-2005>
8.11782169342041

> <r_mmod_Van_der_Waal_Energy-OPLS-2005>
146.793991088867

> <r_mmod_Electrostatic_Energy-OPLS-2005>
-394.241851806641

> <r_mmod_Solvation_Energy-OPLS-2005>
-220.832305908203

> <b_mmod_Minimization_Converged-OPLS-2005>
0

> <r_mmod_RMS_Derivative-OPLS-2005>
3.35579085350037

$$$$
3
                    3D
 Structure written by MMmdl.
170177  0  0  1  0            999 V2000
  -30.7257  -14.5028   20.5063 C   0  0  0  0  0  0
  -30.4086  -12.2809   19.4540 C   0  0  0  0  0  0
  -29.5013  -12.4809   18.2228 C   0  0  0  0  0  0
  -28.0185  -12.3590   18.6242 C   0  0  0  0  0  0
  -27.6533  -13.2223   19.8635 C   0  0  2  0  0  0
  -28.6847  -13.0602   21.0006 C   0  0  0  0  0  0
  -25.2547  -13.8207   20.5680 C   0  0  0  0  0  0
  -24.1815  -13.0460   20.9163 C   0  0  0  0  0  0
  -24.6389  -11.6932   20.8721 C   0  0  0  0  0  0
  -23.9067  -10.4306   21.0395 C   0  0  0  0  0  0
  -24.3617   -9.4221   21.9176 C   0  0  0  0  0  0
  -23.6288   -8.2259   22.0757 C   0  0  0  0  0  0
  -22.4272   -8.0293   21.3548 C   0  0  0  0  0  0
  -21.9909   -9.0267   20.4649 C   0  0  0  0  0  0
  -22.7238  -10.2142   20.3048 C   0  0  0  0  0  0
  -21.6853   -6.0734   22.5277 C   0  0  0  0  0  0
  -21.4018   -6.5637   23.8214 C   0  0  0  0  0  0
  -21.3660   -5.6789   24.9178 C   0  0  0  0  0  0
  -21.6045   -4.3051   24.7226 C   0  0  0  0  0  0
  -21.8819   -3.8145   23.4344 C   0  0  0  0  0  0
  -21.9192   -4.6961   22.3401 C   0  0  0  0  0  0
  -22.7836  -13.5241   21.1840 C   0  0  0  0  0  0
  -22.1659   -4.2148   21.0978 F   0  0  0  0  0  0
  -21.5629   -3.4536   25.7737 F   0  0  0  0  0  0
  -30.0210  -13.2908   20.4475 N   0  0  0  0  0  0
  -26.2975  -12.9407   20.3300 N   0  0  0  0  0  0
  -25.9314  -11.6550   20.5728 N   0  0  0  0  0  0
  -22.0493  -12.8226   22.0401 N   0  0  0  0  0  0
  -25.4280  -15.1931   20.4156 N   0  0  0  0  0  0
  -31.8747  -14.6511   20.0863 O   0  0  0  0  0  0
  -21.6643   -6.8885   21.4242 O   0  0  0  0  0  0
  -22.3514  -14.5550   20.6699 O   0  0  0  0  0  0
  -24.6158  -31.8668   23.2074 C   0  0  0  0  0  0
  -25.9044  -32.4814   23.8385 C   0  0  1  0  0  0
  -27.2288  -27.4122   20.1102 C   0  0  0  0  0  0
  -25.5902  -33.8617   24.2318 N   0  0  0  0  0  0
  -23.4052  -30.4875   21.5494 C   0  0  2  0  0  0
  -24.8525  -28.9493   20.1153 C   0  0  0  0  0  0
  -22.7422  -29.4638   22.4994 C   0  0  0  0  0  0
  -18.0272  -28.1361   22.8490 C   0  0  0  0  0  0
  -24.1489  -36.7314   23.2639 C   0  0  0  0  0  0
  -25.9348  -30.8269   21.3623 C   0  0  0  0  0  0
  -26.0139  -29.4588   20.7113 C   0  0  0  0  0  0
  -27.2091  -28.6997   20.7006 C   0  0  0  0  0  0
  -26.0546  -26.9213   19.5046 C   0  0  0  0  0  0
  -24.8695  -27.6818   19.5056 C   0  0  0  0  0  0
  -23.6140  -29.8171   20.1652 C   0  0  0  0  0  0
  -25.4112  -36.3107   24.0332 C   0  0  1  0  0  0
  -20.5866  -28.3655   23.1317 C   0  0  2  0  0  0
  -20.6758  -26.9389   22.5419 C   0  0  0  0  0  0
  -19.5739  -26.6372   21.5210 C   0  0  0  0  0  0
  -18.1917  -26.7911   22.1614 C   0  0  0  0  0  0
  -19.1523  -28.8825   23.2897 C   0  0  0  0  0  0
  -18.9450  -30.1432   23.8903 C   0  0  0  0  0  0
  -17.6452  -30.6577   24.0550 C   0  0  0  0  0  0
  -25.9039  -34.9472   23.5126 C   0  0  0  0  0  0
  -16.5344  -29.9071   23.6320 C   0  0  0  0  0  0
  -16.7262  -28.6482   23.0354 C   0  0  0  0  0  0
  -26.4466  -31.6599   25.0720 C   0  0  0  0  0  0
  -25.3731  -31.3690   26.1467 C   0  0  0  0  0  0
  -27.0305  -30.3047   24.6098 C   0  0  0  0  0  0
  -27.6041  -32.4321   25.7485 C   0  0  0  0  0  0
  -27.5584  -37.1807   24.8462 C   0  0  0  0  0  0
  -21.4147  -29.3027   22.3732 N   0  0  0  0  0  0
  -26.4296  -37.3793   23.9408 N   0  0  0  0  0  0
  -24.6702  -31.0749   22.0982 N   0  0  0  0  0  0
  -23.4187  -28.8184   23.3046 O   0  0  0  0  0  0
  -28.3683  -26.6346   20.1112 O   0  0  0  0  0  0
  -26.5611  -34.8921   22.4696 O   0  0  0  0  0  0
  -23.5343  -32.1428   23.7457 O   0  0  0  0  0  0
  -29.5732  -18.0850   20.9620 C   0  0  0  0  0  0
  -29.2036  -19.4603   25.2750 C   0  0  0  0  0  0
  -31.2779  -20.4283   24.2110 C   0  0  0  0  0  0
  -27.4337  -20.9640   20.1941 C   0  0  0  0  0  0
  -31.2947  -19.5565   20.0051 C   0  0  0  0  0  0
  -30.4711  -16.8847   20.5540 C   0  0  0  0  0  0
  -29.0449  -20.4132   22.9290 C   0  0  0  0  0  0
  -28.4697  -24.0937   20.2307 C   0  0  0  0  0  0
  -28.3157  -25.4648   20.9629 C   0  0  0  0  0  0
  -29.9546  -19.6868   23.9543 C   0  0  0  0  0  0
  -29.6482  -20.6187   21.5055 C   0  0  2  0  0  0
  -28.7951  -21.5696   20.5819 C   0  0  2  0  0  0
  -30.0959  -19.3497   20.8366 N   0  0  0  0  0  0
  -28.6274  -22.9376   21.1761 N   0  3  0  0  0  0
  -28.4548  -17.8603   21.4321 O   0  0  0  0  0  0
  -29.9512  -15.5728   20.8805 O   0  0  0  0  0  0
  -31.4600  -12.3557   19.1693 H   0  0  0  0  0  0
  -30.2792  -11.2797   19.8694 H   0  0  0  0  0  0
  -29.7416  -11.7443   17.4555 H   0  0  0  0  0  0
  -29.6855  -13.4591   17.7766 H   0  0  0  0  0  0
  -27.8227  -11.3074   18.8354 H   0  0  0  0  0  0
  -27.3771  -12.6209   17.7821 H   0  0  0  0  0  0
  -27.6852  -14.2629   19.5394 H   0  0  0  0  0  0
  -28.6357  -12.0557   21.4235 H   0  0  0  0  0  0
  -28.4661  -13.7459   21.8208 H   0  0  0  0  0  0
  -25.2761   -9.5703   22.4751 H   0  0  0  0  0  0
  -23.9999   -7.4659   22.7482 H   0  0  0  0  0  0
  -21.0841   -8.8789   19.8954 H   0  0  0  0  0  0
  -22.3696  -10.9684   19.6159 H   0  0  0  0  0  0
  -21.2016   -7.6151   23.9718 H   0  0  0  0  0  0
  -21.1478   -6.0519   25.9080 H   0  0  0  0  0  0
  -22.0595   -2.7608   23.2846 H   0  0  0  0  0  0
  -22.4104  -11.9873   22.4770 H   0  0  0  0  0  0
  -21.1122  -13.1268   22.2636 H   0  0  0  0  0  0
  -24.6751  -15.8570   20.5594 H   0  0  0  0  0  0
  -26.3073  -15.6365   20.1781 H   0  0  0  0  0  0
  -26.7118  -32.5521   23.1152 H   0  0  0  0  0  0
  -25.0058  -33.9780   25.0468 H   0  0  0  0  0  0
  -22.6942  -31.3041   21.4086 H   0  0  0  0  0  0
  -23.3748  -35.9649   23.3296 H   0  0  0  0  0  0
  -24.3582  -36.8945   22.2058 H   0  0  0  0  0  0
  -23.7238  -37.6512   23.6669 H   0  0  0  0  0  0
  -26.0491  -31.5908   20.5922 H   0  0  0  0  0  0
  -26.8214  -30.8822   21.9822 H   0  0  0  0  0  0
  -28.1075  -29.0885   21.1601 H   0  0  0  0  0  0
  -26.0544  -25.9490   19.0327 H   0  0  0  0  0  0
  -23.9775  -27.2862   19.0387 H   0  0  0  0  0  0
  -23.7187  -30.5898   19.4026 H   0  0  0  0  0  0
  -22.7375  -29.2351   19.8733 H   0  0  0  0  0  0
  -25.1280  -36.1977   25.0826 H   0  0  0  0  0  0
  -20.9951  -28.3223   24.1438 H   0  0  0  0  0  0
  -20.5660  -26.2264   23.3604 H   0  0  0  0  0  0
  -21.6629  -26.7427   22.1220 H   0  0  0  0  0  0
  -19.6899  -25.6284   21.1241 H   0  0  0  0  0  0
  -19.6676  -27.3177   20.6736 H   0  0  0  0  0  0
  -17.4192  -26.6672   21.4007 H   0  0  0  0  0  0
  -18.0293  -26.0042   22.8993 H   0  0  0  0  0  0
  -19.7928  -30.7240   24.2282 H   0  0  0  0  0  0
  -17.5010  -31.6263   24.5142 H   0  0  0  0  0  0
  -15.5346  -30.2976   23.7635 H   0  0  0  0  0  0
  -15.8661  -28.0801   22.7072 H   0  0  0  0  0  0
  -24.5918  -30.7024   25.7796 H   0  0  0  0  0  0
  -24.8901  -32.2833   26.4921 H   0  0  0  0  0  0
  -25.8090  -30.8860   27.0223 H   0  0  0  0  0  0
  -26.2846  -29.6803   24.1166 H   0  0  0  0  0  0
  -27.4090  -29.7292   25.4557 H   0  0  0  0  0  0
  -27.8676  -30.4373   23.9240 H   0  0  0  0  0  0
  -27.2669  -33.3624   26.2069 H   0  0  0  0  0  0
  -28.3844  -32.6878   25.0304 H   0  0  0  0  0  0
  -28.0715  -31.8441   26.5392 H   0  0  0  0  0  0
  -28.2594  -38.0116   24.7535 H   0  0  0  0  0  0
  -28.1091  -36.2647   24.6263 H   0  0  0  0  0  0
  -27.2303  -37.1425   25.8865 H   0  0  0  0  0  0
  -20.9308  -29.8776   21.6977 H   0  0  0  0  0  0
  -26.0185  -38.2871   24.1414 H   0  0  0  0  0  0
  -29.8193  -18.9159   25.9927 H   0  0  0  0  0  0
  -28.2980  -18.8729   25.1180 H   0  0  0  0  0  0
  -28.9112  -20.4038   25.7382 H   0  0  0  0  0  0
  -31.8495  -19.9505   25.0082 H   0  0  0  0  0  0
  -31.1073  -21.4647   24.5042 H   0  0  0  0  0  0
  -31.9180  -20.4298   23.3279 H   0  0  0  0  0  0
  -27.5586  -20.0020   19.6979 H   0  0  0  0  0  0
  -26.8919  -21.6094   19.5029 H   0  0  0  0  0  0
  -26.7968  -20.8028   21.0637 H   0  0  0  0  0  0
  -31.1875  -19.0898   19.0250 H   0  0  0  0  0  0
  -32.1832  -19.1489   20.4884 H   0  0  0  0  0  0
  -31.5023  -20.6083   19.8056 H   0  0  0  0  0  0
  -31.4370  -17.0114   21.0468 H   0  0  0  0  0  0
  -30.6365  -16.9347   19.4763 H   0  0  0  0  0  0
  -28.7867  -21.3821   23.3553 H   0  0  0  0  0  0
  -28.0928  -19.8868   22.8566 H   0  0  0  0  0  0
  -29.3461  -24.1361   19.5834 H   0  0  0  0  0  0
  -27.6085  -23.9272   19.5846 H   0  0  0  0  0  0
  -29.1310  -25.5757   21.6783 H   0  0  0  0  0  0
  -27.4035  -25.4551   21.5628 H   0  0  0  0  0  0
  -30.2086  -18.6975   23.5762 H   0  0  0  0  0  0
  -30.5612  -21.1848   21.6901 H   0  0  0  0  0  0
  -29.3629  -21.7030   19.6598 H   0  0  0  0  0  0
  -27.8472  -22.9157   21.8158 H   0  0  0  0  0  0
  -29.4527  -23.1240   21.7263 H   0  0  0  0  0  0
  1 25  1  0  0  0
  1 30  2  0  0  0
  1 86  1  0  0  0
  2  3  1  0  0  0
  2 25  1  0  0  0
  2 87  1  0  0  0
  2 88  1  0  0  0
  3  4  1  0  0  0
  3 89  1  0  0  0
  3 90  1  0  0  0
  4  5  1  0  0  0
  4 91  1  0  0  0
  4 92  1  0  0  0
  5  6  1  0  0  0
  5 26  1  0  0  0
  5 93  1  0  0  0
  6 25  1  0  0  0
  6 94  1  0  0  0
  6 95  1  0  0  0
  7  8  2  0  0  0
  7 26  1  0  0  0
  7 29  1  0  0  0
  8  9  1  0  0  0
  8 22  1  0  0  0
  9 10  1  0  0  0
  9 27  2  0  0  0
 10 11  2  0  0  0
 10 15  1  0  0  0
 11 12  1  0  0  0
 11 96  1  0  0  0
 12 13  2  0  0  0
 12 97  1  0  0  0
 13 14  1  0  0  0
 13 31  1  0  0  0
 14 15  2  0  0  0
 14 98  1  0  0  0
 15 99  1  0  0  0
 16 17  2  0  0  0
 16 21  1  0  0  0
 16 31  1  0  0  0
 17 18  1  0  0  0
 17100  1  0  0  0
 18 19  2  0  0  0
 18101  1  0  0  0
 19 20  1  0  0  0
 19 24  1  0  0  0
 20 21  2  0  0  0
 20102  1  0  0  0
 21 23  1  0  0  0
 22 28  1  0  0  0
 22 32  2  0  0  0
 26 27  1  0  0  0
 28103  1  0  0  0
 28104  1  0  0  0
 29105  1  0  0  0
 29106  1  0  0  0
 33 34  1  0  0  0
 33 66  1  0  0  0
 33 70  2  0  0  0
 34 36  1  0  0  0
 34 59  1  0  0  0
 34107  1  0  0  0
 35 44  2  0  0  0
 35 45  1  0  0  0
 35 68  1  0  0  0
 36 56  1  0  0  0
 36108  1  0  0  0
 37 39  1  0  0  0
 37 47  1  0  0  0
 37 66  1  0  0  0
 37109  1  0  0  0
 38 43  2  0  0  0
 38 46  1  0  0  0
 38 47  1  0  0  0
 39 64  1  0  0  0
 39 67  2  0  0  0
 40 52  1  0  0  0
 40 53  2  0  0  0
 40 58  1  0  0  0
 41110  1  0  0  0
 41111  1  0  0  0
 41112  1  0  0  0
 41 48  1  0  0  0
 42 43  1  0  0  0
 42 66  1  0  0  0
 42113  1  0  0  0
 42114  1  0  0  0
 43 44  1  0  0  0
 44115  1  0  0  0
 45 46  2  0  0  0
 45116  1  0  0  0
 46117  1  0  0  0
 47118  1  0  0  0
 47119  1  0  0  0
 48 56  1  0  0  0
 48 65  1  0  0  0
 48120  1  0  0  0
 49 50  1  0  0  0
 49 53  1  0  0  0
 49 64  1  0  0  0
 49121  1  0  0  0
 50 51  1  0  0  0
 50122  1  0  0  0
 50123  1  0  0  0
 51 52  1  0  0  0
 51124  1  0  0  0
 51125  1  0  0  0
 52126  1  0  0  0
 52127  1  0  0  0
 53 54  1  0  0  0
 54 55  2  0  0  0
 54128  1  0  0  0
 55 57  1  0  0  0
 55129  1  0  0  0
 56 69  2  0  0  0
 57 58  2  0  0  0
 57130  1  0  0  0
 58131  1  0  0  0
 59 60  1  0  0  0
 59 61  1  0  0  0
 59 62  1  0  0  0
 60132  1  0  0  0
 60133  1  0  0  0
 60134  1  0  0  0
 61135  1  0  0  0
 61136  1  0  0  0
 61137  1  0  0  0
 62138  1  0  0  0
 62139  1  0  0  0
 62140  1  0  0  0
 63 65  1  0  0  0
 63141  1  0  0  0
 63142  1  0  0  0
 63143  1  0  0  0
 64144  1  0  0  0
 65145  1  0  0  0
 68 79  1  0  0  0
 71 76  1  0  0  0
 71 83  1  0  0  0
 71 85  2  0  0  0
 72146  1  0  0  0
 72147  1  0  0  0
 72148  1  0  0  0
 72 80  1  0  0  0
 73 80  1  0  0  0
 73149  1  0  0  0
 73150  1  0  0  0
 73151  1  0  0  0
 74152  1  0  0  0
 74153  1  0  0  0
 74154  1  0  0  0
 74 82  1  0  0  0
 75 83  1  0  0  0
 75155  1  0  0  0
 75156  1  0  0  0
 75157  1  0  0  0
 76 86  1  0  0  0
 76158  1  0  0  0
 76159  1  0  0  0
 77 80  1  0  0  0
 77160  1  0  0  0
 77161  1  0  0  0
 77 81  1  0  0  0
 78 79  1  0  0  0
 78 84  1  0  0  0
 78162  1  0  0  0
 78163  1  0  0  0
 79164  1  0  0  0
 79165  1  0  0  0
 80166  1  0  0  0
 81 82  1  0  0  0
 81 83  1  0  0  0
 81167  1  0  0  0
 82 84  1  0  0  0
 82168  1  0  0  0
 84169  1  0  0  0
 84170  1  0  0  0
M  CHG  1  84   1
M  ISO  4   1 100  68 101  79 101  86 100
M  END
> <chiral flag>
0

> <version>
0

> <s_m_source_file>
/data/baiqing/PycharmProjects/Reinvent-master-3.2/result/LINK_invent/BTK/process_docking_weight1_custom_product_contain_oxygen_bond_distance_aromatic_linkinvent_7_9_3/rearranged_h_0014.sdf

> <i_m_source_file_index>
4

> <r_mmod_Potential_Energy-OPLS-2005>
-127.818695068359

> <r_mmod_Stretch_Energy-OPLS-2005>
52.7832527160645

> <r_mmod_Bend_Energy-OPLS-2005>
114.779411315918

> <r_mmod_Torsional_Energy-OPLS-2005>
249.207946777344

> <r_mmod_Improper_Torsional_Energy-OPLS-2005>
4.70126152038574

> <r_mmod_Van_der_Waal_Energy-OPLS-2005>
135.87385559082

> <r_mmod_Electrostatic_Energy-OPLS-2005>
-262.266448974609

> <r_mmod_Solvation_Energy-OPLS-2005>
-441.406616210938

> <b_mmod_Minimization_Converged-OPLS-2005>
0

> <r_mmod_RMS_Derivative-OPLS-2005>
1.10215210914612

$$$$
4
                    3D
 Structure written by MMmdl.
154162  0  0  1  0            999 V2000
  -30.7504  -14.4424   20.6531 C   0  0  0  0  0  0
  -30.4158  -12.3243   19.4160 C   0  0  0  0  0  0
  -29.4891  -12.5254   18.2028 C   0  0  0  0  0  0
  -28.0133  -12.3756   18.6163 C   0  0  0  0  0  0
  -27.6601  -13.2132   19.8739 C   0  0  2  0  0  0
  -28.6999  -13.0004   20.9969 C   0  0  0  0  0  0
  -25.2523  -13.8156   20.5607 C   0  0  0  0  0  0
  -24.1814  -13.0433   20.9187 C   0  0  0  0  0  0
  -24.6392  -11.6903   20.8753 C   0  0  0  0  0  0
  -23.9067  -10.4293   21.0409 C   0  0  0  0  0  0
  -24.3617   -9.4205   21.9184 C   0  0  0  0  0  0
  -23.6288   -8.2242   22.0762 C   0  0  0  0  0  0
  -22.4271   -8.0282   21.3549 C   0  0  0  0  0  0
  -21.9906   -9.0259   20.4654 C   0  0  0  0  0  0
  -22.7239  -10.2134   20.3058 C   0  0  0  0  0  0
  -21.6847   -6.0730   22.5279 C   0  0  0  0  0  0
  -21.4013   -6.5635   23.8214 C   0  0  0  0  0  0
  -21.3658   -5.6789   24.9175 C   0  0  0  0  0  0
  -21.6039   -4.3054   24.7224 C   0  0  0  0  0  0
  -21.8820   -3.8141   23.4349 C   0  0  0  0  0  0
  -21.9196   -4.6956   22.3402 C   0  0  0  0  0  0
  -22.7834  -13.5225   21.1850 C   0  0  0  0  0  0
  -22.1661   -4.2144   21.0978 F   0  0  0  0  0  0
  -21.5628   -3.4536   25.7739 F   0  0  0  0  0  0
  -30.0353  -13.2986   20.4546 N   0  0  0  0  0  0
  -26.3005  -12.9359   20.3342 N   0  0  0  0  0  0
  -25.9323  -11.6513   20.5770 N   0  0  0  0  0  0
  -22.0467  -12.8230   22.0406 N   0  0  0  0  0  0
  -25.4138  -15.1854   20.3835 N   0  0  0  0  0  0
  -31.8015  -14.6813   20.0535 O   0  0  0  0  0  0
  -21.6638   -6.8875   21.4242 O   0  0  0  0  0  0
  -22.3513  -14.5522   20.6690 O   0  0  0  0  0  0
  -24.6155  -31.8672   23.2079 C   0  0  0  0  0  0
  -25.9039  -32.4817   23.8376 C   0  0  1  0  0  0
  -27.2335  -27.4283   20.1030 C   0  0  0  0  0  0
  -25.5890  -33.8617   24.2300 N   0  0  0  0  0  0
  -23.4039  -30.4912   21.5481 C   0  0  2  0  0  0
  -24.8519  -28.9524   20.1159 C   0  0  0  0  0  0
  -22.7420  -29.4669   22.4986 C   0  0  0  0  0  0
  -18.0284  -28.1384   22.8498 C   0  0  0  0  0  0
  -24.1488  -36.7318   23.2642 C   0  0  0  0  0  0
  -25.9331  -30.8329   21.3596 C   0  0  0  0  0  0
  -26.0128  -29.4651   20.7108 C   0  0  0  0  0  0
  -27.2100  -28.7107   20.7001 C   0  0  0  0  0  0
  -26.0603  -26.9289   19.5042 C   0  0  0  0  0  0
  -24.8706  -27.6836   19.5082 C   0  0  0  0  0  0
  -23.6129  -29.8200   20.1634 C   0  0  0  0  0  0
  -25.4110  -36.3109   24.0333 C   0  0  1  0  0  0
  -20.5877  -28.3672   23.1318 C   0  0  2  0  0  0
  -20.6779  -26.9410   22.5421 C   0  0  0  0  0  0
  -19.5749  -26.6402   21.5220 C   0  0  0  0  0  0
  -18.1925  -26.7934   22.1629 C   0  0  0  0  0  0
  -19.1535  -28.8843   23.2908 C   0  0  0  0  0  0
  -18.9461  -30.1455   23.8912 C   0  0  0  0  0  0
  -17.6463  -30.6588   24.0574 C   0  0  0  0  0  0
  -25.9036  -34.9478   23.5115 C   0  0  0  0  0  0
  -16.5352  -29.9092   23.6332 C   0  0  0  0  0  0
  -16.7274  -28.6511   23.0342 C   0  0  0  0  0  0
  -26.4462  -31.6607   25.0716 C   0  0  0  0  0  0
  -25.3727  -31.3729   26.1469 C   0  0  0  0  0  0
  -27.0274  -30.3045   24.6082 C   0  0  0  0  0  0
  -27.6034  -32.4331   25.7472 C   0  0  0  0  0  0
  -27.5578  -37.1816   24.8468 C   0  0  0  0  0  0
  -21.4149  -29.3034   22.3719 N   0  0  0  0  0  0
  -26.4293  -37.3798   23.9410 N   0  0  0  0  0  0
  -24.6694  -31.0782   22.0972 N   0  0  0  0  0  0
  -23.4196  -28.8228   23.3039 O   0  0  0  0  0  0
  -28.3763  -26.6588   20.0952 O   0  0  0  0  0  0
  -26.5614  -34.8929   22.4688 O   0  0  0  0  0  0
  -23.5346  -32.1409   23.7484 O   0  0  0  0  0  0
  -30.0917  -19.0019   21.4397 C   0  0  0  0  0  0
  -30.6357  -17.6941   21.4436 C   0  0  0  0  0  0
  -28.3999  -16.7575   21.4424 C   0  0  0  0  0  0
  -28.6901  -19.2109   21.4689 C   0  0  0  0  0  0
  -29.7955  -16.5559   21.4584 C   0  0  0  0  0  0
  -27.8517  -18.0628   21.4439 C   0  0  0  0  0  0
  -28.1103  -20.5970   21.6973 C   0  0  0  0  0  0
  -28.5479  -24.1564   20.4530 C   0  0  0  0  0  0
  -28.4643  -23.0637   21.5562 C   0  0  0  0  0  0
  -28.3758  -25.5827   21.0521 C   0  0  0  0  0  0
  -30.3531  -15.2524   21.6511 N   0  0  0  0  0  0
  -28.7141  -21.6664   21.1320 N   0  0  0  0  0  0
  -27.1231  -20.7319   22.4256 O   0  0  0  0  0  0
  -26.5023  -18.1885   21.4608 F   0  0  0  0  0  0
  -31.4594  -12.4208   19.1119 H   0  0  0  0  0  0
  -30.3170  -11.3098   19.8065 H   0  0  0  0  0  0
  -29.7340  -11.8072   17.4192 H   0  0  0  0  0  0
  -29.6551  -13.5150   17.7731 H   0  0  0  0  0  0
  -27.8280  -11.3183   18.8089 H   0  0  0  0  0  0
  -27.3616  -12.6513   17.7867 H   0  0  0  0  0  0
  -27.7039  -14.2616   19.5785 H   0  0  0  0  0  0
  -28.6729  -11.9677   21.3470 H   0  0  0  0  0  0
  -28.4509  -13.6100   21.8654 H   0  0  0  0  0  0
  -25.2765   -9.5676   22.4754 H   0  0  0  0  0  0
  -24.0001   -7.4628   22.7474 H   0  0  0  0  0  0
  -21.0842   -8.8775   19.8954 H   0  0  0  0  0  0
  -22.3701  -10.9675   19.6165 H   0  0  0  0  0  0
  -21.2000   -7.6142   23.9716 H   0  0  0  0  0  0
  -21.1481   -6.0517   25.9078 H   0  0  0  0  0  0
  -22.0602   -2.7605   23.2851 H   0  0  0  0  0  0
  -22.4101  -11.9922   22.4849 H   0  0  0  0  0  0
  -21.1088  -13.1270   22.2615 H   0  0  0  0  0  0
  -24.6428  -15.8351   20.4903 H   0  0  0  0  0  0
  -26.2473  -15.6237   20.0161 H   0  0  0  0  0  0
  -26.7114  -32.5523   23.1144 H   0  0  0  0  0  0
  -25.0040  -33.9770   25.0442 H   0  0  0  0  0  0
  -22.6952  -31.3095   21.4066 H   0  0  0  0  0  0
  -23.3734  -35.9666   23.3320 H   0  0  0  0  0  0
  -24.3589  -36.8927   22.2055 H   0  0  0  0  0  0
  -23.7254  -37.6535   23.6647 H   0  0  0  0  0  0
  -26.0461  -31.5986   20.5897 H   0  0  0  0  0  0
  -26.8215  -30.8895   21.9764 H   0  0  0  0  0  0
  -28.1069  -29.1017   21.1610 H   0  0  0  0  0  0
  -26.0689  -25.9538   19.0378 H   0  0  0  0  0  0
  -23.9785  -27.2835   19.0457 H   0  0  0  0  0  0
  -23.7231  -30.5939   19.4031 H   0  0  0  0  0  0
  -22.7354  -29.2434   19.8648 H   0  0  0  0  0  0
  -25.1287  -36.1969   25.0826 H   0  0  0  0  0  0
  -20.9976  -28.3237   24.1437 H   0  0  0  0  0  0
  -20.5706  -26.2272   23.3602 H   0  0  0  0  0  0
  -21.6639  -26.7471   22.1190 H   0  0  0  0  0  0
  -19.6908  -25.6324   21.1225 H   0  0  0  0  0  0
  -19.6676  -27.3234   20.6762 H   0  0  0  0  0  0
  -17.4202  -26.6708   21.4024 H   0  0  0  0  0  0
  -18.0305  -26.0068   22.9011 H   0  0  0  0  0  0
  -19.7938  -30.7274   24.2271 H   0  0  0  0  0  0
  -17.5015  -31.6261   24.5186 H   0  0  0  0  0  0
  -15.5350  -30.2994   23.7642 H   0  0  0  0  0  0
  -15.8679  -28.0841   22.7024 H   0  0  0  0  0  0
  -24.5873  -30.7105   25.7804 H   0  0  0  0  0  0
  -24.8946  -32.2899   26.4929 H   0  0  0  0  0  0
  -25.8076  -30.8879   27.0216 H   0  0  0  0  0  0
  -26.2801  -29.6841   24.1114 H   0  0  0  0  0  0
  -27.4025  -29.7254   25.4529 H   0  0  0  0  0  0
  -27.8648  -30.4365   23.9228 H   0  0  0  0  0  0
  -27.2638  -33.3619   26.2071 H   0  0  0  0  0  0
  -28.3817  -32.6930   25.0288 H   0  0  0  0  0  0
  -28.0719  -31.8452   26.5375 H   0  0  0  0  0  0
  -28.2607  -38.0103   24.7502 H   0  0  0  0  0  0
  -28.1062  -36.2637   24.6295 H   0  0  0  0  0  0
  -27.2305  -37.1471   25.8876 H   0  0  0  0  0  0
  -20.9309  -29.8743   21.6929 H   0  0  0  0  0  0
  -26.0179  -38.2876   24.1405 H   0  0  0  0  0  0
  -30.7643  -19.8466   21.4829 H   0  0  0  0  0  0
  -31.7104  -17.5721   21.4757 H   0  0  0  0  0  0
  -27.7339  -15.9110   21.4984 H   0  0  0  0  0  0
  -27.7765  -23.9794   19.7043 H   0  0  0  0  0  0
  -29.5039  -24.0956   19.9327 H   0  0  0  0  0  0
  -27.4854  -23.1484   22.0304 H   0  0  0  0  0  0
  -29.1875  -23.2931   22.3402 H   0  0  0  0  0  0
  -29.1982  -25.7731   21.7436 H   0  0  0  0  0  0
  -27.4728  -25.6074   21.6650 H   0  0  0  0  0  0
  -31.1295  -15.3143   22.2930 H   0  0  0  0  0  0
  -29.5026  -21.4884   20.5254 H   0  0  0  0  0  0
  1 25  1  0  0  0
  1 30  2  0  0  0
  1 81  1  0  0  0
  2  3  1  0  0  0
  2 25  1  0  0  0
  2 85  1  0  0  0
  2 86  1  0  0  0
  3  4  1  0  0  0
  3 87  1  0  0  0
  3 88  1  0  0  0
  4  5  1  0  0  0
  4 89  1  0  0  0
  4 90  1  0  0  0
  5  6  1  0  0  0
  5 26  1  0  0  0
  5 91  1  0  0  0
  6 25  1  0  0  0
  6 92  1  0  0  0
  6 93  1  0  0  0
  7  8  2  0  0  0
  7 26  1  0  0  0
  7 29  1  0  0  0
  8  9  1  0  0  0
  8 22  1  0  0  0
  9 10  1  0  0  0
  9 27  2  0  0  0
 10 11  2  0  0  0
 10 15  1  0  0  0
 11 12  1  0  0  0
 11 94  1  0  0  0
 12 13  2  0  0  0
 12 95  1  0  0  0
 13 14  1  0  0  0
 13 31  1  0  0  0
 14 15  2  0  0  0
 14 96  1  0  0  0
 15 97  1  0  0  0
 16 17  2  0  0  0
 16 21  1  0  0  0
 16 31  1  0  0  0
 17 18  1  0  0  0
 17 98  1  0  0  0
 18 19  2  0  0  0
 18 99  1  0  0  0
 19 20  1  0  0  0
 19 24  1  0  0  0
 20 21  2  0  0  0
 20100  1  0  0  0
 21 23  1  0  0  0
 22 28  1  0  0  0
 22 32  2  0  0  0
 26 27  1  0  0  0
 28101  1  0  0  0
 28102  1  0  0  0
 29103  1  0  0  0
 29104  1  0  0  0
 33 34  1  0  0  0
 33 66  1  0  0  0
 33 70  2  0  0  0
 34 36  1  0  0  0
 34 59  1  0  0  0
 34105  1  0  0  0
 35 44  2  0  0  0
 35 45  1  0  0  0
 35 68  1  0  0  0
 36 56  1  0  0  0
 36106  1  0  0  0
 37 39  1  0  0  0
 37 47  1  0  0  0
 37 66  1  0  0  0
 37107  1  0  0  0
 38 43  2  0  0  0
 38 46  1  0  0  0
 38 47  1  0  0  0
 39 64  1  0  0  0
 39 67  2  0  0  0
 40 52  1  0  0  0
 40 53  2  0  0  0
 40 58  1  0  0  0
 41108  1  0  0  0
 41109  1  0  0  0
 41110  1  0  0  0
 41 48  1  0  0  0
 42 43  1  0  0  0
 42 66  1  0  0  0
 42111  1  0  0  0
 42112  1  0  0  0
 43 44  1  0  0  0
 44113  1  0  0  0
 45 46  2  0  0  0
 45114  1  0  0  0
 46115  1  0  0  0
 47116  1  0  0  0
 47117  1  0  0  0
 48 56  1  0  0  0
 48 65  1  0  0  0
 48118  1  0  0  0
 49 50  1  0  0  0
 49 53  1  0  0  0
 49 64  1  0  0  0
 49119  1  0  0  0
 50 51  1  0  0  0
 50120  1  0  0  0
 50121  1  0  0  0
 51 52  1  0  0  0
 51122  1  0  0  0
 51123  1  0  0  0
 52124  1  0  0  0
 52125  1  0  0  0
 53 54  1  0  0  0
 54 55  2  0  0  0
 54126  1  0  0  0
 55 57  1  0  0  0
 55127  1  0  0  0
 56 69  2  0  0  0
 57 58  2  0  0  0
 57128  1  0  0  0
 58129  1  0  0  0
 59 60  1  0  0  0
 59 61  1  0  0  0
 59 62  1  0  0  0
 60130  1  0  0  0
 60131  1  0  0  0
 60132  1  0  0  0
 61133  1  0  0  0
 61134  1  0  0  0
 61135  1  0  0  0
 62136  1  0  0  0
 62137  1  0  0  0
 62138  1  0  0  0
 63 65  1  0  0  0
 63139  1  0  0  0
 63140  1  0  0  0
 63141  1  0  0  0
 64142  1  0  0  0
 65143  1  0  0  0
 68 80  1  0  0  0
 71 72  2  0  0  0
 71 74  1  0  0  0
 71144  1  0  0  0
 72 75  1  0  0  0
 72145  1  0  0  0
 73 75  2  0  0  0
 73 76  1  0  0  0
 73146  1  0  0  0
 74 76  2  0  0  0
 74 77  1  0  0  0
 75 81  1  0  0  0
 76 84  1  0  0  0
 77 82  1  0  0  0
 77 83  2  0  0  0
 78 79  1  0  0  0
 78 80  1  0  0  0
 78147  1  0  0  0
 78148  1  0  0  0
 79 82  1  0  0  0
 79149  1  0  0  0
 79150  1  0  0  0
 80151  1  0  0  0
 80152  1  0  0  0
 81153  1  0  0  0
 82154  1  0  0  0
M  ISO  4   1 100  68 101  80 101  81 100
M  END
> <chiral flag>
0

> <version>
0

> <s_m_source_file>
/data/baiqing/PycharmProjects/Reinvent-master-3.2/result/LINK_invent/BTK/process_docking_weight1_custom_product_contain_oxygen_bond_distance_aromatic_linkinvent_7_9_3/rearranged_h_0014.sdf

> <i_m_source_file_index>
5

> <r_mmod_Potential_Energy-OPLS-2005>
21.9414215087891

> <r_mmod_Stretch_Energy-OPLS-2005>
40.9112396240234

> <r_mmod_Bend_Energy-OPLS-2005>
106.40217590332

> <r_mmod_Torsional_Energy-OPLS-2005>
307.336486816406

> <r_mmod_Improper_Torsional_Energy-OPLS-2005>
10.3106174468994

> <r_mmod_Van_der_Waal_Energy-OPLS-2005>
141.815414428711

> <r_mmod_Electrostatic_Energy-OPLS-2005>
-371.860229492188

> <r_mmod_Solvation_Energy-OPLS-2005>
-224.117111206055

> <b_mmod_Minimization_Converged-OPLS-2005>
0

> <r_mmod_RMS_Derivative-OPLS-2005>
1.62689161300659

$$$$
5
                    3D
 Structure written by MMmdl.
170179  0  0  1  0            999 V2000
  -30.6598  -14.7071   20.4984 C   0  0  0  0  0  0
  -30.4247  -12.4425   19.4607 C   0  0  0  0  0  0
  -29.4989  -12.5023   18.2270 C   0  0  0  0  0  0
  -28.0258  -12.3399   18.6470 C   0  0  0  0  0  0
  -27.6446  -13.2330   19.8578 C   0  0  2  0  0  0
  -28.6936  -13.1593   20.9878 C   0  0  0  0  0  0
  -25.2542  -13.8222   20.5728 C   0  0  0  0  0  0
  -24.1826  -13.0472   20.9196 C   0  0  0  0  0  0
  -24.6417  -11.6938   20.8780 C   0  0  0  0  0  0
  -23.9105  -10.4313   21.0427 C   0  0  0  0  0  0
  -24.3647   -9.4218   21.9196 C   0  0  0  0  0  0
  -23.6307   -8.2256   22.0762 C   0  0  0  0  0  0
  -22.4287   -8.0305   21.3548 C   0  0  0  0  0  0
  -21.9946   -9.0292   20.4652 C   0  0  0  0  0  0
  -22.7286  -10.2162   20.3069 C   0  0  0  0  0  0
  -21.6854   -6.0751   22.5266 C   0  0  0  0  0  0
  -21.4018   -6.5648   23.8205 C   0  0  0  0  0  0
  -21.3659   -5.6793   24.9164 C   0  0  0  0  0  0
  -21.6044   -4.3056   24.7211 C   0  0  0  0  0  0
  -21.8824   -3.8156   23.4330 C   0  0  0  0  0  0
  -21.9201   -4.6977   22.3391 C   0  0  0  0  0  0
  -22.7841  -13.5246   21.1846 C   0  0  0  0  0  0
  -22.1661   -4.2163   21.0968 F   0  0  0  0  0  0
  -21.5638   -3.4540   25.7728 F   0  0  0  0  0  0
  -29.9949  -13.5035   20.4024 N   0  0  0  0  0  0
  -26.2973  -12.9424   20.3364 N   0  0  0  0  0  0
  -25.9353  -11.6567   20.5821 N   0  0  0  0  0  0
  -22.0496  -12.8225   22.0388 N   0  0  0  0  0  0
  -25.4269  -15.1953   20.4164 N   0  0  0  0  0  0
  -31.8185  -14.7982   20.0806 O   0  0  0  0  0  0
  -21.6650   -6.8901   21.4233 O   0  0  0  0  0  0
  -22.3523  -14.5552   20.6692 O   0  0  0  0  0  0
  -24.6311  -31.8564   23.2004 C   0  0  0  0  0  0
  -25.9138  -32.4772   23.8339 C   0  0  1  0  0  0
  -27.2136  -27.2534   20.1241 C   0  0  0  0  0  0
  -25.5919  -33.8572   24.2254 N   0  0  0  0  0  0
  -23.4293  -30.4762   21.5455 C   0  0  2  0  0  0
  -24.8759  -28.9308   20.1084 C   0  0  0  0  0  0
  -22.7531  -29.4553   22.4935 C   0  0  0  0  0  0
  -18.0285  -28.1380   22.8486 C   0  0  0  0  0  0
  -24.1480  -36.7284   23.2630 C   0  0  0  0  0  0
  -25.9757  -30.7653   21.3840 C   0  0  0  0  0  0
  -26.0483  -29.3870   20.7249 C   0  0  0  0  0  0
  -27.2197  -28.5599   20.7246 C   0  0  0  0  0  0
  -26.0174  -26.8776   19.4666 C   0  0  0  0  0  0
  -24.8660  -27.6841   19.4683 C   0  0  0  0  0  0
  -23.6497  -29.8195   20.1582 C   0  0  0  0  0  0
  -25.4108  -36.3076   24.0317 C   0  0  1  0  0  0
  -20.5890  -28.3687   23.1289 C   0  0  2  0  0  0
  -20.6784  -26.9408   22.5420 C   0  0  0  0  0  0
  -19.5757  -26.6380   21.5220 C   0  0  0  0  0  0
  -18.1926  -26.7921   22.1619 C   0  0  0  0  0  0
  -19.1540  -28.8853   23.2873 C   0  0  0  0  0  0
  -18.9464  -30.1453   23.8893 C   0  0  0  0  0  0
  -17.6464  -30.6594   24.0548 C   0  0  0  0  0  0
  -25.9057  -34.9451   23.5093 C   0  0  0  0  0  0
  -16.5353  -29.9084   23.6325 C   0  0  0  0  0  0
  -16.7269  -28.6495   23.0356 C   0  0  0  0  0  0
  -26.4499  -31.6604   25.0732 C   0  0  0  0  0  0
  -25.3685  -31.3742   26.1427 C   0  0  0  0  0  0
  -27.0371  -30.3024   24.6220 C   0  0  0  0  0  0
  -27.6062  -32.4346   25.7511 C   0  0  0  0  0  0
  -27.5582  -37.1793   24.8452 C   0  0  0  0  0  0
  -21.4226  -29.3028   22.3691 N   0  0  0  0  0  0
  -26.4280  -37.3783   23.9415 N   0  0  0  0  0  0
  -24.6980  -31.0513   22.0991 N   0  0  0  0  0  0
  -23.4243  -28.8078   23.3018 O   0  0  0  0  0  0
  -28.2940  -26.3377   20.1991 O   0  0  0  0  0  0
  -26.5650  -34.8929   22.4672 O   0  0  0  0  0  0
  -23.5465  -32.1385   23.7295 O   0  0  0  0  0  0
  -28.4958  -17.8459   18.1601 C   0  0  0  0  0  0
  -29.0426  -16.7939   18.9104 C   0  0  0  0  0  0
  -29.5998  -18.4234   20.6138 C   0  0  0  0  0  0
  -28.4909  -19.1994   18.5877 C   0  0  0  0  0  0
  -29.5837  -17.0251   20.1856 C   0  0  0  0  0  0
  -29.0956  -19.5607   19.8448 C   0  0  0  0  0  0
  -24.1142  -20.2309   18.2180 C   0  0  0  0  0  0
  -24.3037  -21.4053   17.2495 C   0  0  0  0  0  0
  -25.4862  -19.5513   18.2969 C   0  0  0  0  0  0
  -25.8166  -21.4941   16.9974 C   0  0  0  0  0  0
  -30.1876  -16.0528   22.4229 C   0  0  0  0  0  0
  -27.8238  -20.1530   17.5871 C   0  0  0  0  0  0
  -28.9770  -23.6483   20.4054 C   0  0  0  0  0  0
  -28.0338  -24.8768   19.9238 C   0  0  0  0  0  0
  -28.6584  -22.1656   19.8243 C   0  0  0  0  0  0
  -30.0111  -15.8418   20.9848 N   0  0  0  0  0  0
  -26.4677  -20.6125   17.9916 N   0  3  0  0  0  0
  -29.2441  -20.8965   20.3734 O   0  0  0  0  0  0
  -31.4643  -12.5543   19.1484 H   0  0  0  0  0  0
  -30.3652  -11.4651   19.9408 H   0  0  0  0  0  0
  -29.7670  -11.7213   17.5142 H   0  0  0  0  0  0
  -29.6355  -13.4510   17.7052 H   0  0  0  0  0  0
  -27.8715  -11.2901   18.8987 H   0  0  0  0  0  0
  -27.3654  -12.5471   17.8044 H   0  0  0  0  0  0
  -27.6380  -14.2577   19.4891 H   0  0  0  0  0  0
  -28.7256  -12.1624   21.4305 H   0  0  0  0  0  0
  -28.4310  -13.8438   21.7938 H   0  0  0  0  0  0
  -25.2795   -9.5684   22.4773 H   0  0  0  0  0  0
  -24.0012   -7.4652   22.7490 H   0  0  0  0  0  0
  -21.0878   -8.8839   19.8955 H   0  0  0  0  0  0
  -22.3768  -10.9716   19.6185 H   0  0  0  0  0  0
  -21.2003   -7.6153   23.9709 H   0  0  0  0  0  0
  -21.1473   -6.0520   25.9065 H   0  0  0  0  0  0
  -22.0608   -2.7618   23.2826 H   0  0  0  0  0  0
  -22.4110  -11.9867   22.4739 H   0  0  0  0  0  0
  -21.1125  -13.1262   22.2631 H   0  0  0  0  0  0
  -24.6710  -15.8565   20.5539 H   0  0  0  0  0  0
  -26.2992  -15.6365   20.1552 H   0  0  0  0  0  0
  -26.7207  -32.5440   23.1095 H   0  0  0  0  0  0
  -25.0035  -33.9701   25.0376 H   0  0  0  0  0  0
  -22.7230  -31.2967   21.4037 H   0  0  0  0  0  0
  -23.3759  -35.9598   23.3270 H   0  0  0  0  0  0
  -24.3559  -36.8939   22.2046 H   0  0  0  0  0  0
  -23.7217  -37.6456   23.6696 H   0  0  0  0  0  0
  -26.1100  -31.5262   20.6141 H   0  0  0  0  0  0
  -26.8547  -30.8193   22.0140 H   0  0  0  0  0  0
  -28.1149  -28.8964   21.2298 H   0  0  0  0  0  0
  -25.9298  -25.9315   18.9547 H   0  0  0  0  0  0
  -23.9712  -27.3316   18.9720 H   0  0  0  0  0  0
  -23.7785  -30.6013   19.4080 H   0  0  0  0  0  0
  -22.7684  -29.2543   19.8500 H   0  0  0  0  0  0
  -25.1286  -36.1919   25.0807 H   0  0  0  0  0  0
  -20.9951  -28.3275   24.1426 H   0  0  0  0  0  0
  -20.5706  -26.2290   23.3624 H   0  0  0  0  0  0
  -21.6651  -26.7458   22.1196 H   0  0  0  0  0  0
  -19.6918  -25.6281   21.1268 H   0  0  0  0  0  0
  -19.6703  -27.3182   20.6740 H   0  0  0  0  0  0
  -17.4201  -26.6669   21.4011 H   0  0  0  0  0  0
  -18.0300  -26.0073   22.9022 H   0  0  0  0  0  0
  -19.7945  -30.7248   24.2292 H   0  0  0  0  0  0
  -17.5024  -31.6279   24.5143 H   0  0  0  0  0  0
  -15.5348  -30.2987   23.7669 H   0  0  0  0  0  0
  -15.8659  -28.0815   22.7093 H   0  0  0  0  0  0
  -24.5892  -30.7076   25.7716 H   0  0  0  0  0  0
  -24.8824  -32.2899   26.4810 H   0  0  0  0  0  0
  -25.7951  -30.8935   27.0242 H   0  0  0  0  0  0
  -26.2968  -29.6756   24.1233 H   0  0  0  0  0  0
  -27.4043  -29.7307   25.4757 H   0  0  0  0  0  0
  -27.8856  -30.4298   23.9489 H   0  0  0  0  0  0
  -27.2684  -33.3672   26.2051 H   0  0  0  0  0  0
  -28.3895  -32.6860   25.0342 H   0  0  0  0  0  0
  -28.0708  -31.8478   26.5448 H   0  0  0  0  0  0
  -28.2563  -38.0132   24.7569 H   0  0  0  0  0  0
  -28.1124  -36.2665   24.6201 H   0  0  0  0  0  0
  -27.2313  -37.1343   25.8857 H   0  0  0  0  0  0
  -20.9423  -29.8765   21.6895 H   0  0  0  0  0  0
  -26.0159  -38.2845   24.1475 H   0  0  0  0  0  0
  -28.0596  -17.5792   17.2067 H   0  0  0  0  0  0
  -29.0045  -15.7980   18.4933 H   0  0  0  0  0  0
  -30.0253  -18.6470   21.5808 H   0  0  0  0  0  0
  -23.3382  -19.5401   17.8865 H   0  0  0  0  0  0
  -23.8181  -20.6056   19.1993 H   0  0  0  0  0  0
  -23.9155  -22.3311   17.6782 H   0  0  0  0  0  0
  -23.7696  -21.2343   16.3135 H   0  0  0  0  0  0
  -25.5466  -18.7706   17.5371 H   0  0  0  0  0  0
  -25.6656  -19.0877   19.2685 H   0  0  0  0  0  0
  -26.1945  -22.5169   17.0476 H   0  0  0  0  0  0
  -26.0208  -21.1203   15.9928 H   0  0  0  0  0  0
  -29.3772  -16.6581   22.8296 H   0  0  0  0  0  0
  -31.1322  -16.5576   22.6265 H   0  0  0  0  0  0
  -30.1881  -15.1103   22.9754 H   0  0  0  0  0  0
  -27.7104  -19.6334   16.6349 H   0  0  0  0  0  0
  -28.4832  -20.9694   17.3104 H   0  0  0  0  0  0
  -28.9460  -23.6068   21.4934 H   0  0  0  0  0  0
  -30.0084  -23.8965   20.1528 H   0  0  0  0  0  0
  -27.0568  -24.6359   20.3458 H   0  0  0  0  0  0
  -27.9236  -24.7866   18.8429 H   0  0  0  0  0  0
  -28.9520  -22.2514   18.7857 H   0  0  0  0  0  0
  -27.5781  -22.0450   19.8654 H   0  0  0  0  0  0
  -26.5660  -21.1495   18.8394 H   0  0  0  0  0  0
  1 25  1  0  0  0
  1 30  2  0  0  0
  1 86  1  0  0  0
  2  3  1  0  0  0
  2 25  1  0  0  0
  2 89  1  0  0  0
  2 90  1  0  0  0
  3  4  1  0  0  0
  3 91  1  0  0  0
  3 92  1  0  0  0
  4  5  1  0  0  0
  4 93  1  0  0  0
  4 94  1  0  0  0
  5  6  1  0  0  0
  5 26  1  0  0  0
  5 95  1  0  0  0
  6 25  1  0  0  0
  6 96  1  0  0  0
  6 97  1  0  0  0
  7  8  2  0  0  0
  7 26  1  0  0  0
  7 29  1  0  0  0
  8  9  1  0  0  0
  8 22  1  0  0  0
  9 10  1  0  0  0
  9 27  2  0  0  0
 10 11  2  0  0  0
 10 15  1  0  0  0
 11 12  1  0  0  0
 11 98  1  0  0  0
 12 13  2  0  0  0
 12 99  1  0  0  0
 13 14  1  0  0  0
 13 31  1  0  0  0
 14 15  2  0  0  0
 14100  1  0  0  0
 15101  1  0  0  0
 16 17  2  0  0  0
 16 21  1  0  0  0
 16 31  1  0  0  0
 17 18  1  0  0  0
 17102  1  0  0  0
 18 19  2  0  0  0
 18103  1  0  0  0
 19 20  1  0  0  0
 19 24  1  0  0  0
 20 21  2  0  0  0
 20104  1  0  0  0
 21 23  1  0  0  0
 22 28  1  0  0  0
 22 32  2  0  0  0
 26 27  1  0  0  0
 28105  1  0  0  0
 28106  1  0  0  0
 29107  1  0  0  0
 29108  1  0  0  0
 33 34  1  0  0  0
 33 66  1  0  0  0
 33 70  2  0  0  0
 34 36  1  0  0  0
 34 59  1  0  0  0
 34109  1  0  0  0
 35 44  2  0  0  0
 35 45  1  0  0  0
 35 68  1  0  0  0
 36 56  1  0  0  0
 36110  1  0  0  0
 37 39  1  0  0  0
 37 47  1  0  0  0
 37 66  1  0  0  0
 37111  1  0  0  0
 38 43  2  0  0  0
 38 46  1  0  0  0
 38 47  1  0  0  0
 39 64  1  0  0  0
 39 67  2  0  0  0
 40 52  1  0  0  0
 40 53  2  0  0  0
 40 58  1  0  0  0
 41112  1  0  0  0
 41113  1  0  0  0
 41114  1  0  0  0
 41 48  1  0  0  0
 42 43  1  0  0  0
 42 66  1  0  0  0
 42115  1  0  0  0
 42116  1  0  0  0
 43 44  1  0  0  0
 44117  1  0  0  0
 45 46  2  0  0  0
 45118  1  0  0  0
 46119  1  0  0  0
 47120  1  0  0  0
 47121  1  0  0  0
 48 56  1  0  0  0
 48 65  1  0  0  0
 48122  1  0  0  0
 49 50  1  0  0  0
 49 53  1  0  0  0
 49 64  1  0  0  0
 49123  1  0  0  0
 50 51  1  0  0  0
 50124  1  0  0  0
 50125  1  0  0  0
 51 52  1  0  0  0
 51126  1  0  0  0
 51127  1  0  0  0
 52128  1  0  0  0
 52129  1  0  0  0
 53 54  1  0  0  0
 54 55  2  0  0  0
 54130  1  0  0  0
 55 57  1  0  0  0
 55131  1  0  0  0
 56 69  2  0  0  0
 57 58  2  0  0  0
 57132  1  0  0  0
 58133  1  0  0  0
 59 60  1  0  0  0
 59 61  1  0  0  0
 59 62  1  0  0  0
 60134  1  0  0  0
 60135  1  0  0  0
 60136  1  0  0  0
 61137  1  0  0  0
 61138  1  0  0  0
 61139  1  0  0  0
 62140  1  0  0  0
 62141  1  0  0  0
 62142  1  0  0  0
 63 65  1  0  0  0
 63143  1  0  0  0
 63144  1  0  0  0
 63145  1  0  0  0
 64146  1  0  0  0
 65147  1  0  0  0
 68 84  1  0  0  0
 71 72  2  0  0  0
 71 74  1  0  0  0
 71148  1  0  0  0
 72 75  1  0  0  0
 72149  1  0  0  0
 73 75  2  0  0  0
 73 76  1  0  0  0
 73150  1  0  0  0
 74 76  2  0  0  0
 74 82  1  0  0  0
 75 86  1  0  0  0
 76 88  1  0  0  0
 77 78  1  0  0  0
 77 79  1  0  0  0
 77151  1  0  0  0
 77152  1  0  0  0
 78 80  1  0  0  0
 78153  1  0  0  0
 78154  1  0  0  0
 79 87  1  0  0  0
 79155  1  0  0  0
 79156  1  0  0  0
 80 87  1  0  0  0
 80157  1  0  0  0
 80158  1  0  0  0
 81 86  1  0  0  0
 81159  1  0  0  0
 81160  1  0  0  0
 81161  1  0  0  0
 82162  1  0  0  0
 82163  1  0  0  0
 82 87  1  0  0  0
 83 84  1  0  0  0
 83 85  1  0  0  0
 83164  1  0  0  0
 83165  1  0  0  0
 84166  1  0  0  0
 84167  1  0  0  0
 85 88  1  0  0  0
 85168  1  0  0  0
 85169  1  0  0  0
 87170  1  0  0  0
M  CHG  1  87   1
M  ISO  4   1 100  68 101  84 101  86 100
M  END
> <chiral flag>
0

> <version>
0

> <s_m_source_file>
/data/baiqing/PycharmProjects/Reinvent-master-3.2/result/LINK_invent/BTK/process_docking_weight1_custom_product_contain_oxygen_bond_distance_aromatic_linkinvent_7_9_3/rearranged_h_0014.sdf

> <i_m_source_file_index>
6

> <r_mmod_Potential_Energy-OPLS-2005>
321.775054931641

> <r_mmod_Stretch_Energy-OPLS-2005>
140.721740722656

> <r_mmod_Bend_Energy-OPLS-2005>
227.078720092773

> <r_mmod_Torsional_Energy-OPLS-2005>
341.667236328125

> <r_mmod_Improper_Torsional_Energy-OPLS-2005>
3.14570617675781

> <r_mmod_Van_der_Waal_Energy-OPLS-2005>
140.65283203125

> <r_mmod_Electrostatic_Energy-OPLS-2005>
-162.090270996094

> <r_mmod_Solvation_Energy-OPLS-2005>
-449.587036132812

> <b_mmod_Minimization_Converged-OPLS-2005>
0

> <r_mmod_RMS_Derivative-OPLS-2005>
2.23301696777344

$$$$
6
                    3D
 Structure written by MMmdl.
156165  0  0  1  0            999 V2000
  -30.5536  -14.9459   20.5158 C   0  0  0  0  0  0
  -30.4349  -12.5960   19.5279 C   0  0  0  0  0  0
  -29.5378  -12.5716   18.2682 C   0  0  0  0  0  0
  -28.0627  -12.3528   18.6577 C   0  0  0  0  0  0
  -27.6328  -13.2539   19.8443 C   0  0  2  0  0  0
  -28.6595  -13.2393   20.9928 C   0  0  0  0  0  0
  -25.2461  -13.8212   20.5695 C   0  0  0  0  0  0
  -24.1781  -13.0434   20.9207 C   0  0  0  0  0  0
  -24.6398  -11.6918   20.8706 C   0  0  0  0  0  0
  -23.9085  -10.4285   21.0386 C   0  0  0  0  0  0
  -24.3629   -9.4207   21.9176 C   0  0  0  0  0  0
  -23.6302   -8.2243   22.0745 C   0  0  0  0  0  0
  -22.4286   -8.0276   21.3533 C   0  0  0  0  0  0
  -21.9914   -9.0257   20.4646 C   0  0  0  0  0  0
  -22.7249  -10.2132   20.3051 C   0  0  0  0  0  0
  -21.6868   -6.0719   22.5269 C   0  0  0  0  0  0
  -21.4025   -6.5628   23.8198 C   0  0  0  0  0  0
  -21.3671   -5.6786   24.9162 C   0  0  0  0  0  0
  -21.6052   -4.3050   24.7215 C   0  0  0  0  0  0
  -21.8818   -3.8134   23.4339 C   0  0  0  0  0  0
  -21.9201   -4.6947   22.3394 C   0  0  0  0  0  0
  -22.7805  -13.5207   21.1906 C   0  0  0  0  0  0
  -22.1670   -4.2129   21.0971 F   0  0  0  0  0  0
  -21.5629   -3.4539   25.7730 F   0  0  0  0  0  0
  -29.9518  -13.6793   20.4386 N   0  0  0  0  0  0
  -26.2881  -12.9456   20.3177 N   0  0  0  0  0  0
  -25.9329  -11.6573   20.5641 N   0  0  0  0  0  0
  -22.0462  -12.8186   22.0461 N   0  0  0  0  0  0
  -25.4144  -15.1948   20.4199 N   0  0  0  0  0  0
  -31.6866  -15.0477   20.0306 O   0  0  0  0  0  0
  -21.6662   -6.8864   21.4228 O   0  0  0  0  0  0
  -22.3490  -14.5526   20.6778 O   0  0  0  0  0  0
  -24.6455  -31.8409   23.1850 C   0  0  0  0  0  0
  -25.9223  -32.4667   23.8250 C   0  0  1  0  0  0
  -27.2244  -27.1234   20.1548 C   0  0  0  0  0  0
  -25.5970  -33.8475   24.2179 N   0  0  0  0  0  0
  -23.4505  -30.4590   21.5278 C   0  0  2  0  0  0
  -24.9025  -28.8819   20.1067 C   0  0  0  0  0  0
  -22.7579  -29.4532   22.4815 C   0  0  0  0  0  0
  -18.0312  -28.1394   22.8460 C   0  0  0  0  0  0
  -24.1500  -36.7243   23.2643 C   0  0  0  0  0  0
  -26.0066  -30.7080   21.3884 C   0  0  0  0  0  0
  -26.0772  -29.3185   20.7311 C   0  0  0  0  0  0
  -27.2357  -28.4541   20.7414 C   0  0  0  0  0  0
  -26.0290  -26.7953   19.4776 C   0  0  0  0  0  0
  -24.8923  -27.6345   19.4628 C   0  0  0  0  0  0
  -23.6795  -29.7852   20.1475 C   0  0  0  0  0  0
  -25.4127  -36.3008   24.0316 C   0  0  1  0  0  0
  -20.5926  -28.3729   23.1216 C   0  0  2  0  0  0
  -20.6793  -26.9426   22.5395 C   0  0  0  0  0  0
  -19.5771  -26.6373   21.5203 C   0  0  0  0  0  0
  -18.1954  -26.7925   22.1616 C   0  0  0  0  0  0
  -19.1572  -28.8878   23.2829 C   0  0  0  0  0  0
  -18.9485  -30.1469   23.8862 C   0  0  0  0  0  0
  -17.6484  -30.6587   24.0558 C   0  0  0  0  0  0
  -25.9077  -34.9390   23.5058 C   0  0  0  0  0  0
  -16.5373  -29.9077   23.6337 C   0  0  0  0  0  0
  -16.7295  -28.6502   23.0343 C   0  0  0  0  0  0
  -26.4541  -31.6528   25.0694 C   0  0  0  0  0  0
  -25.3736  -31.3710   26.1391 C   0  0  0  0  0  0
  -27.0415  -30.2922   24.6287 C   0  0  0  0  0  0
  -27.6073  -32.4293   25.7476 C   0  0  0  0  0  0
  -27.5570  -37.1781   24.8466 C   0  0  0  0  0  0
  -21.4271  -29.3054   22.3583 N   0  0  0  0  0  0
  -26.4287  -37.3725   23.9403 N   0  0  0  0  0  0
  -24.7203  -31.0242   22.0894 N   0  0  0  0  0  0
  -23.4211  -28.8087   23.2983 O   0  0  0  0  0  0
  -28.2808  -26.1415   20.2520 O   0  0  0  0  0  0
  -26.5653  -34.8898   22.4627 O   0  0  0  0  0  0
  -23.5569  -32.1301   23.7053 O   0  0  0  0  0  0
  -29.2767  -20.0064   21.5800 C   0  0  0  0  0  0
  -29.5292  -18.5924   21.8173 C   0  0  0  0  0  0
  -29.3689  -19.5899   19.2810 C   0  0  0  0  0  0
  -29.1683  -20.6126   20.2894 C   0  0  0  0  0  0
  -29.7351  -17.5634   20.8137 C   0  0  0  0  0  0
  -29.6397  -18.1674   19.5131 C   0  0  0  0  0  0
  -28.5159  -24.1072   18.6415 C   0  0  0  0  0  0
  -28.5753  -22.5354   18.6552 C   0  0  0  0  0  0
  -28.7748  -23.3410   20.8586 C   0  0  0  0  0  0
  -28.0876  -24.6014   20.0370 C   0  0  1  0  0  0
  -29.8651  -15.8102   22.6262 C   0  0  0  0  0  0
  -28.8755  -22.0607   20.0126 N   0  0  0  0  0  0
  -29.9349  -16.0587   21.1726 N   0  0  0  0  0  0
  -29.7806  -17.3612   18.4328 F   0  0  0  0  0  0
  -31.4797  -12.7325   19.2470 H   0  0  0  0  0  0
  -30.3956  -11.6300   20.0346 H   0  0  0  0  0  0
  -29.8677  -11.7878   17.5854 H   0  0  0  0  0  0
  -29.6438  -13.5140   17.7276 H   0  0  0  0  0  0
  -27.9482  -11.3034   18.9298 H   0  0  0  0  0  0
  -27.4150  -12.5201   17.7961 H   0  0  0  0  0  0
  -27.6099  -14.2719   19.4548 H   0  0  0  0  0  0
  -28.7346  -12.2432   21.4322 H   0  0  0  0  0  0
  -28.3098  -13.8916   21.7916 H   0  0  0  0  0  0
  -25.2764   -9.5696   22.4769 H   0  0  0  0  0  0
  -24.0013   -7.4630   22.7456 H   0  0  0  0  0  0
  -21.0840   -8.8784   19.8954 H   0  0  0  0  0  0
  -22.3698  -10.9678   19.6169 H   0  0  0  0  0  0
  -21.2024   -7.6137   23.9692 H   0  0  0  0  0  0
  -21.1505   -6.0520   25.9066 H   0  0  0  0  0  0
  -22.0593   -2.7592   23.2851 H   0  0  0  0  0  0
  -22.4092  -11.9864   22.4876 H   0  0  0  0  0  0
  -21.1066  -13.1188   22.2632 H   0  0  0  0  0  0
  -24.6532  -15.8506   20.5568 H   0  0  0  0  0  0
  -26.2734  -15.6406   20.1241 H   0  0  0  0  0  0
  -26.7284  -32.5276   23.0970 H   0  0  0  0  0  0
  -25.0143  -33.9584   25.0344 H   0  0  0  0  0  0
  -22.7553  -31.2864   21.3696 H   0  0  0  0  0  0
  -23.3762  -35.9575   23.3292 H   0  0  0  0  0  0
  -24.3588  -36.8883   22.2059 H   0  0  0  0  0  0
  -23.7256  -37.6440   23.6685 H   0  0  0  0  0  0
  -26.1691  -31.4595   20.6145 H   0  0  0  0  0  0
  -26.8748  -30.7567   22.0334 H   0  0  0  0  0  0
  -28.1262  -28.7799   21.2607 H   0  0  0  0  0  0
  -25.9399  -25.8484   18.9661 H   0  0  0  0  0  0
  -23.9989  -27.2987   18.9537 H   0  0  0  0  0  0
  -23.8199  -30.5591   19.3918 H   0  0  0  0  0  0
  -22.7962  -29.2257   19.8345 H   0  0  0  0  0  0
  -25.1315  -36.1837   25.0807 H   0  0  0  0  0  0
  -21.0021  -28.3323   24.1335 H   0  0  0  0  0  0
  -20.5675  -26.2348   23.3617 H   0  0  0  0  0  0
  -21.6661  -26.7415   22.1207 H   0  0  0  0  0  0
  -19.6935  -25.6275   21.1254 H   0  0  0  0  0  0
  -19.6711  -27.3167   20.6718 H   0  0  0  0  0  0
  -17.4215  -26.6660   21.4022 H   0  0  0  0  0  0
  -18.0367  -26.0075   22.9027 H   0  0  0  0  0  0
  -19.7962  -30.7295   24.2211 H   0  0  0  0  0  0
  -17.5034  -31.6263   24.5171 H   0  0  0  0  0  0
  -15.5371  -30.2970   23.7668 H   0  0  0  0  0  0
  -15.8697  -28.0811   22.7058 H   0  0  0  0  0  0
  -24.5941  -30.7022   25.7711 H   0  0  0  0  0  0
  -24.8902  -32.2890   26.4750 H   0  0  0  0  0  0
  -25.8039  -30.8934   27.0205 H   0  0  0  0  0  0
  -26.3039  -29.6627   24.1297 H   0  0  0  0  0  0
  -27.4029  -29.7226   25.4857 H   0  0  0  0  0  0
  -27.8946  -30.4141   23.9611 H   0  0  0  0  0  0
  -27.2675  -33.3626   26.1973 H   0  0  0  0  0  0
  -28.3928  -32.6788   25.0329 H   0  0  0  0  0  0
  -28.0694  -31.8467   26.5455 H   0  0  0  0  0  0
  -28.2575  -38.0089   24.7503 H   0  0  0  0  0  0
  -28.1080  -36.2614   24.6307 H   0  0  0  0  0  0
  -27.2289  -37.1439   25.8871 H   0  0  0  0  0  0
  -20.9479  -29.8779   21.6773 H   0  0  0  0  0  0
  -26.0151  -38.2796   24.1392 H   0  0  0  0  0  0
  -29.1417  -20.6413   22.4453 H   0  0  0  0  0  0
  -29.5502  -18.3178   22.8600 H   0  0  0  0  0  0
  -29.3103  -19.8931   18.2471 H   0  0  0  0  0  0
  -27.8609  -24.4791   17.8524 H   0  0  0  0  0  0
  -29.5128  -24.4943   18.4255 H   0  0  0  0  0  0
  -29.3211  -22.1869   17.9390 H   0  0  0  0  0  0
  -27.6121  -22.1251   18.3476 H   0  0  0  0  0  0
  -28.2222  -23.1483   21.7797 H   0  0  0  0  0  0
  -29.7854  -23.6165   21.1615 H   0  0  0  0  0  0
  -27.0211  -24.4081   20.1371 H   0  0  0  0  0  0
  -30.6258  -16.3950   23.1472 H   0  0  0  0  0  0
  -30.0395  -14.7761   22.9321 H   0  0  0  0  0  0
  -28.8858  -16.0906   23.0165 H   0  0  0  0  0  0
  1 25  1  0  0  0
  1 30  2  0  0  0
  1 83  1  0  0  0
  2  3  1  0  0  0
  2 25  1  0  0  0
  2 85  1  0  0  0
  2 86  1  0  0  0
  3  4  1  0  0  0
  3 87  1  0  0  0
  3 88  1  0  0  0
  4  5  1  0  0  0
  4 89  1  0  0  0
  4 90  1  0  0  0
  5  6  1  0  0  0
  5 26  1  0  0  0
  5 91  1  0  0  0
  6 25  1  0  0  0
  6 92  1  0  0  0
  6 93  1  0  0  0
  7  8  2  0  0  0
  7 26  1  0  0  0
  7 29  1  0  0  0
  8  9  1  0  0  0
  8 22  1  0  0  0
  9 10  1  0  0  0
  9 27  2  0  0  0
 10 11  2  0  0  0
 10 15  1  0  0  0
 11 12  1  0  0  0
 11 94  1  0  0  0
 12 13  2  0  0  0
 12 95  1  0  0  0
 13 14  1  0  0  0
 13 31  1  0  0  0
 14 15  2  0  0  0
 14 96  1  0  0  0
 15 97  1  0  0  0
 16 17  2  0  0  0
 16 21  1  0  0  0
 16 31  1  0  0  0
 17 18  1  0  0  0
 17 98  1  0  0  0
 18 19  2  0  0  0
 18 99  1  0  0  0
 19 20  1  0  0  0
 19 24  1  0  0  0
 20 21  2  0  0  0
 20100  1  0  0  0
 21 23  1  0  0  0
 22 28  1  0  0  0
 22 32  2  0  0  0
 26 27  1  0  0  0
 28101  1  0  0  0
 28102  1  0  0  0
 29103  1  0  0  0
 29104  1  0  0  0
 33 34  1  0  0  0
 33 66  1  0  0  0
 33 70  2  0  0  0
 34 36  1  0  0  0
 34 59  1  0  0  0
 34105  1  0  0  0
 35 44  2  0  0  0
 35 45  1  0  0  0
 35 68  1  0  0  0
 36 56  1  0  0  0
 36106  1  0  0  0
 37 39  1  0  0  0
 37 47  1  0  0  0
 37 66  1  0  0  0
 37107  1  0  0  0
 38 43  2  0  0  0
 38 46  1  0  0  0
 38 47  1  0  0  0
 39 64  1  0  0  0
 39 67  2  0  0  0
 40 52  1  0  0  0
 40 53  2  0  0  0
 40 58  1  0  0  0
 41108  1  0  0  0
 41109  1  0  0  0
 41110  1  0  0  0
 41 48  1  0  0  0
 42 43  1  0  0  0
 42 66  1  0  0  0
 42111  1  0  0  0
 42112  1  0  0  0
 43 44  1  0  0  0
 44113  1  0  0  0
 45 46  2  0  0  0
 45114  1  0  0  0
 46115  1  0  0  0
 47116  1  0  0  0
 47117  1  0  0  0
 48 56  1  0  0  0
 48 65  1  0  0  0
 48118  1  0  0  0
 49 50  1  0  0  0
 49 53  1  0  0  0
 49 64  1  0  0  0
 49119  1  0  0  0
 50 51  1  0  0  0
 50120  1  0  0  0
 50121  1  0  0  0
 51 52  1  0  0  0
 51122  1  0  0  0
 51123  1  0  0  0
 52124  1  0  0  0
 52125  1  0  0  0
 53 54  1  0  0  0
 54 55  2  0  0  0
 54126  1  0  0  0
 55 57  1  0  0  0
 55127  1  0  0  0
 56 69  2  0  0  0
 57 58  2  0  0  0
 57128  1  0  0  0
 58129  1  0  0  0
 59 60  1  0  0  0
 59 61  1  0  0  0
 59 62  1  0  0  0
 60130  1  0  0  0
 60131  1  0  0  0
 60132  1  0  0  0
 61133  1  0  0  0
 61134  1  0  0  0
 61135  1  0  0  0
 62136  1  0  0  0
 62137  1  0  0  0
 62138  1  0  0  0
 63 65  1  0  0  0
 63139  1  0  0  0
 63140  1  0  0  0
 63141  1  0  0  0
 64142  1  0  0  0
 65143  1  0  0  0
 68 80  1  0  0  0
 71 72  2  0  0  0
 71 74  1  0  0  0
 71144  1  0  0  0
 72 75  1  0  0  0
 72145  1  0  0  0
 73 74  2  0  0  0
 73 76  1  0  0  0
 73146  1  0  0  0
 74 82  1  0  0  0
 75 76  2  0  0  0
 75 83  1  0  0  0
 76 84  1  0  0  0
 77 78  1  0  0  0
 77 80  1  0  0  0
 77147  1  0  0  0
 77148  1  0  0  0
 78 82  1  0  0  0
 78149  1  0  0  0
 78150  1  0  0  0
 79 80  1  0  0  0
 79 82  1  0  0  0
 79151  1  0  0  0
 79152  1  0  0  0
 80153  1  0  0  0
 81 83  1  0  0  0
 81154  1  0  0  0
 81155  1  0  0  0
 81156  1  0  0  0
M  ISO  4   1 100  68 101  80 101  83 100
M  END
> <chiral flag>
0

> <version>
0

> <s_m_source_file>
/data/baiqing/PycharmProjects/Reinvent-master-3.2/result/LINK_invent/BTK/process_docking_weight1_custom_product_contain_oxygen_bond_distance_aromatic_linkinvent_7_9_3/rearranged_h_0014.sdf

> <i_m_source_file_index>
7

> <r_mmod_Potential_Energy-OPLS-2005>
681.884826660156

> <r_mmod_Stretch_Energy-OPLS-2005>
243.969375610352

> <r_mmod_Bend_Energy-OPLS-2005>
322.621246337891

> <r_mmod_Torsional_Energy-OPLS-2005>
312.763610839844

> <r_mmod_Improper_Torsional_Energy-OPLS-2005>
3.21090960502625

> <r_mmod_Van_der_Waal_Energy-OPLS-2005>
141.194396972656

> <r_mmod_Electrostatic_Energy-OPLS-2005>
-321.284698486328

> <r_mmod_Solvation_Energy-OPLS-2005>
-214.521453857422

> <b_mmod_Minimization_Converged-OPLS-2005>
0

> <r_mmod_RMS_Derivative-OPLS-2005>
1.86074411869049

$$$$
7
                    3D
 Structure written by MMmdl.
151159  0  0  1  0            999 V2000
  -30.5256  -14.9319   20.4266 C   0  0  0  0  0  0
  -30.4488  -12.5729   19.5026 C   0  0  0  0  0  0
  -29.5275  -12.5405   18.2589 C   0  0  0  0  0  0
  -28.0573  -12.3317   18.6702 C   0  0  0  0  0  0
  -27.6388  -13.2464   19.8510 C   0  0  2  0  0  0
  -28.6815  -13.2396   20.9915 C   0  0  0  0  0  0
  -25.2496  -13.8213   20.5705 C   0  0  0  0  0  0
  -24.1795  -13.0448   20.9209 C   0  0  0  0  0  0
  -24.6404  -11.6931   20.8742 C   0  0  0  0  0  0
  -23.9077  -10.4304   21.0398 C   0  0  0  0  0  0
  -24.3628   -9.4221   21.9178 C   0  0  0  0  0  0
  -23.6304   -8.2249   22.0749 C   0  0  0  0  0  0
  -22.4283   -8.0283   21.3542 C   0  0  0  0  0  0
  -21.9922   -9.0261   20.4646 C   0  0  0  0  0  0
  -22.7248  -10.2142   20.3053 C   0  0  0  0  0  0
  -21.6856   -6.0736   22.5279 C   0  0  0  0  0  0
  -21.4014   -6.5636   23.8212 C   0  0  0  0  0  0
  -21.3665   -5.6787   24.9175 C   0  0  0  0  0  0
  -21.6045   -4.3051   24.7223 C   0  0  0  0  0  0
  -21.8818   -3.8146   23.4344 C   0  0  0  0  0  0
  -21.9195   -4.6963   22.3400 C   0  0  0  0  0  0
  -22.7818  -13.5226   21.1878 C   0  0  0  0  0  0
  -22.1664   -4.2150   21.0976 F   0  0  0  0  0  0
  -21.5634   -3.4532   25.7735 F   0  0  0  0  0  0
  -29.9662  -13.6545   20.4091 N   0  0  0  0  0  0
  -26.2935  -12.9448   20.3290 N   0  0  0  0  0  0
  -25.9343  -11.6577   20.5741 N   0  0  0  0  0  0
  -22.0458  -12.8220   22.0432 N   0  0  0  0  0  0
  -25.4180  -15.1940   20.4130 N   0  0  0  0  0  0
  -31.7025  -15.0456   20.0664 O   0  0  0  0  0  0
  -21.6644   -6.8883   21.4243 O   0  0  0  0  0  0
  -22.3503  -14.5528   20.6722 O   0  0  0  0  0  0
  -24.6427  -31.8458   23.1881 C   0  0  0  0  0  0
  -25.9192  -32.4705   23.8288 C   0  0  1  0  0  0
  -27.2178  -27.1315   20.1545 C   0  0  0  0  0  0
  -25.5929  -33.8510   24.2189 N   0  0  0  0  0  0
  -23.4483  -30.4634   21.5347 C   0  0  2  0  0  0
  -24.9007  -28.8952   20.1079 C   0  0  0  0  0  0
  -22.7575  -29.4547   22.4864 C   0  0  0  0  0  0
  -18.0305  -28.1394   22.8483 C   0  0  0  0  0  0
  -24.1487  -36.7257   23.2640 C   0  0  0  0  0  0
  -26.0052  -30.7165   21.3925 C   0  0  0  0  0  0
  -26.0766  -29.3280   20.7334 C   0  0  0  0  0  0
  -27.2339  -28.4600   20.7455 C   0  0  0  0  0  0
  -26.0213  -26.8170   19.4676 C   0  0  0  0  0  0
  -24.8867  -27.6535   19.4594 C   0  0  0  0  0  0
  -23.6759  -29.7942   20.1539 C   0  0  0  0  0  0
  -25.4111  -36.3037   24.0323 C   0  0  1  0  0  0
  -20.5920  -28.3716   23.1235 C   0  0  2  0  0  0
  -20.6780  -26.9419   22.5405 C   0  0  0  0  0  0
  -19.5752  -26.6375   21.5215 C   0  0  0  0  0  0
  -18.1938  -26.7926   22.1638 C   0  0  0  0  0  0
  -19.1563  -28.8874   23.2849 C   0  0  0  0  0  0
  -18.9479  -30.1467   23.8877 C   0  0  0  0  0  0
  -17.6475  -30.6589   24.0554 C   0  0  0  0  0  0
  -25.9071  -34.9414   23.5070 C   0  0  0  0  0  0
  -16.5364  -29.9080   23.6333 C   0  0  0  0  0  0
  -16.7290  -28.6500   23.0355 C   0  0  0  0  0  0
  -26.4487  -31.6578   25.0742 C   0  0  0  0  0  0
  -25.3654  -31.3803   26.1432 C   0  0  0  0  0  0
  -27.0332  -30.2954   24.6355 C   0  0  0  0  0  0
  -27.6027  -32.4338   25.7516 C   0  0  0  0  0  0
  -27.5580  -37.1768   24.8446 C   0  0  0  0  0  0
  -21.4267  -29.3033   22.3602 N   0  0  0  0  0  0
  -26.4270  -37.3753   23.9425 N   0  0  0  0  0  0
  -24.7185  -31.0300   22.0932 N   0  0  0  0  0  0
  -23.4217  -28.8112   23.3028 O   0  0  0  0  0  0
  -28.2503  -26.1234   20.2623 O   0  0  0  0  0  0
  -26.5673  -34.8914   22.4660 O   0  0  0  0  0  0
  -23.5540  -32.1342   23.7083 O   0  0  0  0  0  0
  -30.1927  -19.7543   19.3076 C   0  0  0  0  0  0
  -30.3631  -18.3222   19.5039 C   0  0  0  0  0  0
  -28.7726  -19.8911   21.1707 C   0  0  0  0  0  0
  -29.3874  -20.6515   20.1156 C   0  0  0  0  0  0
  -29.7190  -17.5732   20.5372 C   0  0  0  0  0  0
  -28.9159  -18.4489   21.3570 C   0  0  0  0  0  0
  -28.6971  -23.2786   20.5229 C   0  0  0  0  0  0
  -29.6849  -22.5419   18.4465 C   0  0  0  0  0  0
  -27.9721  -24.6377   19.8722 C   0  0  0  0  0  0
  -29.7136  -16.0504   20.7376 N   0  0  0  0  0  0
  -29.1791  -22.1581   19.7749 N   0  0  0  0  0  0
  -28.7451  -23.2301   21.7574 O   0  0  0  0  0  0
  -28.2240  -17.8773   22.3716 F   0  0  0  0  0  0
  -31.4837  -12.7322   19.1948 H   0  0  0  0  0  0
  -30.4369  -11.6098   20.0149 H   0  0  0  0  0  0
  -29.8415  -11.7516   17.5740 H   0  0  0  0  0  0
  -29.6229  -13.4791   17.7098 H   0  0  0  0  0  0
  -27.9405  -11.2854   18.9553 H   0  0  0  0  0  0
  -27.3978  -12.4899   17.8160 H   0  0  0  0  0  0
  -27.6132  -14.2576   19.4444 H   0  0  0  0  0  0
  -28.7597  -12.2504   21.4441 H   0  0  0  0  0  0
  -28.3810  -13.9168   21.7929 H   0  0  0  0  0  0
  -25.2765   -9.5700   22.4762 H   0  0  0  0  0  0
  -24.0017   -7.4636   22.7463 H   0  0  0  0  0  0
  -21.0848   -8.8783   19.8949 H   0  0  0  0  0  0
  -22.3697  -10.9687   19.6170 H   0  0  0  0  0  0
  -21.1996   -7.6142   23.9715 H   0  0  0  0  0  0
  -21.1493   -6.0515   25.9080 H   0  0  0  0  0  0
  -22.0591   -2.7608   23.2833 H   0  0  0  0  0  0
  -22.4080  -11.9893   22.4838 H   0  0  0  0  0  0
  -21.1073  -13.1250   22.2630 H   0  0  0  0  0  0
  -24.6488  -15.8459   20.5204 H   0  0  0  0  0  0
  -26.2662  -15.6358   20.0828 H   0  0  0  0  0  0
  -26.7274  -32.5308   23.1036 H   0  0  0  0  0  0
  -24.9973  -33.9627   25.0265 H   0  0  0  0  0  0
  -22.7506  -31.2889   21.3791 H   0  0  0  0  0  0
  -23.3753  -35.9585   23.3285 H   0  0  0  0  0  0
  -24.3575  -36.8897   22.2058 H   0  0  0  0  0  0
  -23.7246  -37.6453   23.6680 H   0  0  0  0  0  0
  -26.1642  -31.4729   20.6225 H   0  0  0  0  0  0
  -26.8741  -30.7644   22.0376 H   0  0  0  0  0  0
  -28.1222  -28.7826   21.2703 H   0  0  0  0  0  0
  -25.9137  -25.8781   18.9465 H   0  0  0  0  0  0
  -23.9917  -27.3199   18.9520 H   0  0  0  0  0  0
  -23.8080  -30.5678   19.3966 H   0  0  0  0  0  0
  -22.7925  -29.2319   19.8461 H   0  0  0  0  0  0
  -25.1294  -36.1855   25.0813 H   0  0  0  0  0  0
  -21.0008  -28.3301   24.1359 H   0  0  0  0  0  0
  -20.5652  -26.2340   23.3626 H   0  0  0  0  0  0
  -21.6648  -26.7406   22.1215 H   0  0  0  0  0  0
  -19.6905  -25.6280   21.1257 H   0  0  0  0  0  0
  -19.6675  -27.3175   20.6734 H   0  0  0  0  0  0
  -17.4195  -26.6654   21.4052 H   0  0  0  0  0  0
  -18.0347  -26.0087   22.9057 H   0  0  0  0  0  0
  -19.7951  -30.7278   24.2249 H   0  0  0  0  0  0
  -17.5028  -31.6265   24.5164 H   0  0  0  0  0  0
  -15.5360  -30.2968   23.7677 H   0  0  0  0  0  0
  -15.8693  -28.0806   22.7081 H   0  0  0  0  0  0
  -24.5808  -30.7183   25.7743 H   0  0  0  0  0  0
  -24.8870  -32.3004   26.4798 H   0  0  0  0  0  0
  -25.7905  -30.8993   27.0250 H   0  0  0  0  0  0
  -26.2948  -29.6689   24.1337 H   0  0  0  0  0  0
  -27.3868  -29.7252   25.4954 H   0  0  0  0  0  0
  -27.8896  -30.4142   23.9719 H   0  0  0  0  0  0
  -27.2615  -33.3632   26.2084 H   0  0  0  0  0  0
  -28.3834  -32.6914   25.0349 H   0  0  0  0  0  0
  -28.0706  -31.8483   26.5437 H   0  0  0  0  0  0
  -28.2546  -38.0117   24.7560 H   0  0  0  0  0  0
  -28.1130  -36.2651   24.6167 H   0  0  0  0  0  0
  -27.2318  -37.1286   25.8851 H   0  0  0  0  0  0
  -20.9492  -29.8722   21.6749 H   0  0  0  0  0  0
  -26.0131  -38.2813   24.1459 H   0  0  0  0  0  0
  -30.7193  -20.1450   18.4514 H   0  0  0  0  0  0
  -30.9804  -17.7867   18.7963 H   0  0  0  0  0  0
  -28.1246  -20.4138   21.8592 H   0  0  0  0  0  0
  -30.7180  -22.2232   18.3217 H   0  0  0  0  0  0
  -29.7440  -23.6126   18.2581 H   0  0  0  0  0  0
  -29.0781  -22.0930   17.6599 H   0  0  0  0  0  0
  -26.9412  -24.4513   20.1710 H   0  0  0  0  0  0
  -27.9419  -24.5778   18.7861 H   0  0  0  0  0  0
  -28.8697  -15.7480   21.1994 H   0  0  0  0  0  0
  1 25  1  0  0  0
  1 30  2  0  0  0
  1 80  1  0  0  0
  2  3  1  0  0  0
  2 25  1  0  0  0
  2 84  1  0  0  0
  2 85  1  0  0  0
  3  4  1  0  0  0
  3 86  1  0  0  0
  3 87  1  0  0  0
  4  5  1  0  0  0
  4 88  1  0  0  0
  4 89  1  0  0  0
  5  6  1  0  0  0
  5 26  1  0  0  0
  5 90  1  0  0  0
  6 25  1  0  0  0
  6 91  1  0  0  0
  6 92  1  0  0  0
  7  8  2  0  0  0
  7 26  1  0  0  0
  7 29  1  0  0  0
  8  9  1  0  0  0
  8 22  1  0  0  0
  9 10  1  0  0  0
  9 27  2  0  0  0
 10 11  2  0  0  0
 10 15  1  0  0  0
 11 12  1  0  0  0
 11 93  1  0  0  0
 12 13  2  0  0  0
 12 94  1  0  0  0
 13 14  1  0  0  0
 13 31  1  0  0  0
 14 15  2  0  0  0
 14 95  1  0  0  0
 15 96  1  0  0  0
 16 17  2  0  0  0
 16 21  1  0  0  0
 16 31  1  0  0  0
 17 18  1  0  0  0
 17 97  1  0  0  0
 18 19  2  0  0  0
 18 98  1  0  0  0
 19 20  1  0  0  0
 19 24  1  0  0  0
 20 21  2  0  0  0
 20 99  1  0  0  0
 21 23  1  0  0  0
 22 28  1  0  0  0
 22 32  2  0  0  0
 26 27  1  0  0  0
 28100  1  0  0  0
 28101  1  0  0  0
 29102  1  0  0  0
 29103  1  0  0  0
 33 34  1  0  0  0
 33 66  1  0  0  0
 33 70  2  0  0  0
 34 36  1  0  0  0
 34 59  1  0  0  0
 34104  1  0  0  0
 35 44  2  0  0  0
 35 45  1  0  0  0
 35 68  1  0  0  0
 36 56  1  0  0  0
 36105  1  0  0  0
 37 39  1  0  0  0
 37 47  1  0  0  0
 37 66  1  0  0  0
 37106  1  0  0  0
 38 43  2  0  0  0
 38 46  1  0  0  0
 38 47  1  0  0  0
 39 64  1  0  0  0
 39 67  2  0  0  0
 40 52  1  0  0  0
 40 53  2  0  0  0
 40 58  1  0  0  0
 41107  1  0  0  0
 41108  1  0  0  0
 41109  1  0  0  0
 41 48  1  0  0  0
 42 43  1  0  0  0
 42 66  1  0  0  0
 42110  1  0  0  0
 42111  1  0  0  0
 43 44  1  0  0  0
 44112  1  0  0  0
 45 46  2  0  0  0
 45113  1  0  0  0
 46114  1  0  0  0
 47115  1  0  0  0
 47116  1  0  0  0
 48 56  1  0  0  0
 48 65  1  0  0  0
 48117  1  0  0  0
 49 50  1  0  0  0
 49 53  1  0  0  0
 49 64  1  0  0  0
 49118  1  0  0  0
 50 51  1  0  0  0
 50119  1  0  0  0
 50120  1  0  0  0
 51 52  1  0  0  0
 51121  1  0  0  0
 51122  1  0  0  0
 52123  1  0  0  0
 52124  1  0  0  0
 53 54  1  0  0  0
 54 55  2  0  0  0
 54125  1  0  0  0
 55 57  1  0  0  0
 55126  1  0  0  0
 56 69  2  0  0  0
 57 58  2  0  0  0
 57127  1  0  0  0
 58128  1  0  0  0
 59 60  1  0  0  0
 59 61  1  0  0  0
 59 62  1  0  0  0
 60129  1  0  0  0
 60130  1  0  0  0
 60131  1  0  0  0
 61132  1  0  0  0
 61133  1  0  0  0
 61134  1  0  0  0
 62135  1  0  0  0
 62136  1  0  0  0
 62137  1  0  0  0
 63 65  1  0  0  0
 63138  1  0  0  0
 63139  1  0  0  0
 63140  1  0  0  0
 64141  1  0  0  0
 65142  1  0  0  0
 68 79  1  0  0  0
 71 72  2  0  0  0
 71 74  1  0  0  0
 71143  1  0  0  0
 72 75  1  0  0  0
 72144  1  0  0  0
 73 74  2  0  0  0
 73 76  1  0  0  0
 73145  1  0  0  0
 74 81  1  0  0  0
 75 76  2  0  0  0
 75 80  1  0  0  0
 76 83  1  0  0  0
 77 79  1  0  0  0
 77 81  1  0  0  0
 77 82  2  0  0  0
 78 81  1  0  0  0
 78146  1  0  0  0
 78147  1  0  0  0
 78148  1  0  0  0
 79149  1  0  0  0
 79150  1  0  0  0
 80151  1  0  0  0
M  ISO  4   1 100  68 101  79 101  80 100
M  END
> <chiral flag>
0

> <version>
0

> <s_m_source_file>
/data/baiqing/PycharmProjects/Reinvent-master-3.2/result/LINK_invent/BTK/process_docking_weight1_custom_product_contain_oxygen_bond_distance_aromatic_linkinvent_7_9_3/rearranged_h_0014.sdf

> <i_m_source_file_index>
8

> <r_mmod_Potential_Energy-OPLS-2005>
539.689331054688

> <r_mmod_Stretch_Energy-OPLS-2005>
246.542587280273

> <r_mmod_Bend_Energy-OPLS-2005>
267.756072998047

> <r_mmod_Torsional_Energy-OPLS-2005>
262.114929199219

> <r_mmod_Improper_Torsional_Energy-OPLS-2005>
4.09220123291016

> <r_mmod_Van_der_Waal_Energy-OPLS-2005>
146.888732910156

> <r_mmod_Electrostatic_Energy-OPLS-2005>
-353.439392089844

> <r_mmod_Solvation_Energy-OPLS-2005>
-226.557861328125

> <b_mmod_Minimization_Converged-OPLS-2005>
0

> <r_mmod_RMS_Derivative-OPLS-2005>
1.36997842788696

$$$$
8
                    3D
 Structure written by MMmdl.
151159  0  0  1  0            999 V2000
  -30.5957  -14.6517   20.5206 C   0  0  0  0  0  0
  -30.4468  -12.4001   19.4548 C   0  0  0  0  0  0
  -29.5175  -12.4896   18.2211 C   0  0  0  0  0  0
  -28.0388  -12.3182   18.6343 C   0  0  0  0  0  0
  -27.6471  -13.2047   19.8473 C   0  0  2  0  0  0
  -28.6842  -13.0682   20.9833 C   0  0  0  0  0  0
  -25.2580  -13.8137   20.5633 C   0  0  0  0  0  0
  -24.1827  -13.0428   20.9227 C   0  0  0  0  0  0
  -24.6354  -11.6893   20.8710 C   0  0  0  0  0  0
  -23.9015  -10.4278   21.0397 C   0  0  0  0  0  0
  -24.3569   -9.4216   21.9199 C   0  0  0  0  0  0
  -23.6261   -8.2230   22.0757 C   0  0  0  0  0  0
  -22.4270   -8.0265   21.3523 C   0  0  0  0  0  0
  -21.9875   -9.0242   20.4647 C   0  0  0  0  0  0
  -22.7164  -10.2144   20.3067 C   0  0  0  0  0  0
  -21.6862   -6.0724   22.5264 C   0  0  0  0  0  0
  -21.4002   -6.5624   23.8206 C   0  0  0  0  0  0
  -21.3665   -5.6794   24.9166 C   0  0  0  0  0  0
  -21.6040   -4.3047   24.7232 C   0  0  0  0  0  0
  -21.8817   -3.8136   23.4349 C   0  0  0  0  0  0
  -21.9190   -4.6941   22.3404 C   0  0  0  0  0  0
  -22.7864  -13.5255   21.1900 C   0  0  0  0  0  0
  -22.1666   -4.2120   21.0980 F   0  0  0  0  0  0
  -21.5633   -3.4549   25.7751 F   0  0  0  0  0  0
  -30.0017  -13.4181   20.4278 N   0  0  0  0  0  0
  -26.2941  -12.9266   20.3180 N   0  0  0  0  0  0
  -25.9267  -11.6439   20.5665 N   0  0  0  0  0  0
  -22.0453  -12.8288   22.0448 N   0  0  0  0  0  0
  -25.4305  -15.1849   20.4002 N   0  0  0  0  0  0
  -31.7706  -14.8318   20.1791 O   0  0  0  0  0  0
  -21.6631   -6.8860   21.4232 O   0  0  0  0  0  0
  -22.3553  -14.5545   20.6716 O   0  0  0  0  0  0
  -24.6241  -31.8606   23.2091 C   0  0  0  0  0  0
  -25.9097  -32.4810   23.8384 C   0  0  1  0  0  0
  -27.2068  -27.3064   20.1361 C   0  0  0  0  0  0
  -25.5893  -33.8600   24.2308 N   0  0  0  0  0  0
  -23.4184  -30.4879   21.5526 C   0  0  2  0  0  0
  -24.8622  -28.9471   20.1150 C   0  0  0  0  0  0
  -22.7449  -29.4623   22.4959 C   0  0  0  0  0  0
  -18.0267  -28.1411   22.8515 C   0  0  0  0  0  0
  -24.1470  -36.7275   23.2641 C   0  0  0  0  0  0
  -25.9587  -30.7950   21.3782 C   0  0  0  0  0  0
  -26.0307  -29.4178   20.7274 C   0  0  0  0  0  0
  -27.2054  -28.6054   20.7331 C   0  0  0  0  0  0
  -26.0186  -26.9041   19.4792 C   0  0  0  0  0  0
  -24.8589  -27.6972   19.4808 C   0  0  0  0  0  0
  -23.6325  -29.8279   20.1663 C   0  0  0  0  0  0
  -25.4121  -36.3133   24.0333 C   0  0  1  0  0  0
  -20.5866  -28.3711   23.1334 C   0  0  2  0  0  0
  -20.6754  -26.9443   22.5445 C   0  0  0  0  0  0
  -19.5735  -26.6417   21.5236 C   0  0  0  0  0  0
  -18.1904  -26.7958   22.1635 C   0  0  0  0  0  0
  -19.1516  -28.8872   23.2919 C   0  0  0  0  0  0
  -18.9427  -30.1463   23.8950 C   0  0  0  0  0  0
  -17.6432  -30.6617   24.0589 C   0  0  0  0  0  0
  -25.9044  -34.9474   23.5145 C   0  0  0  0  0  0
  -16.5323  -29.9116   23.6350 C   0  0  0  0  0  0
  -16.7252  -28.6525   23.0394 C   0  0  0  0  0  0
  -26.4541  -31.6603   25.0708 C   0  0  0  0  0  0
  -25.3754  -31.3671   26.1388 C   0  0  0  0  0  0
  -27.0390  -30.3045   24.6132 C   0  0  0  0  0  0
  -27.6172  -32.4267   25.7434 C   0  0  0  0  0  0
  -27.5590  -37.1816   24.8511 C   0  0  0  0  0  0
  -21.4166  -29.3044   22.3690 N   0  0  0  0  0  0
  -26.4334  -37.3806   23.9410 N   0  0  0  0  0  0
  -24.6863  -31.0629   22.1044 N   0  0  0  0  0  0
  -23.4142  -28.8130   23.3034 O   0  0  0  0  0  0
  -28.3051  -26.4329   20.2156 O   0  0  0  0  0  0
  -26.5613  -34.8941   22.4719 O   0  0  0  0  0  0
  -23.5408  -32.1377   23.7429 O   0  0  0  0  0  0
  -28.6038  -17.8877   20.8354 C   0  0  0  0  0  0
  -28.5756  -19.3133   20.8367 C   0  0  0  0  0  0
  -31.0125  -17.8992   20.8130 C   0  0  0  0  0  0
  -29.8153  -17.1382   20.8075 C   0  0  0  0  0  0
  -29.7739  -20.0754   20.8318 C   0  0  0  0  0  0
  -30.9902  -19.3267   20.8292 C   0  0  0  0  0  0
  -29.0710  -23.9165   20.6529 C   0  0  0  0  0  0
  -28.0426  -24.9781   20.0660 C   0  0  0  0  0  0
  -28.7044  -22.3638   20.6054 C   0  0  0  0  0  0
  -29.7301  -15.6757   20.8082 N   0  0  0  0  0  0
  -29.8455  -21.4832   20.8581 O   0  0  0  0  0  0
  -32.4981  -20.1751   20.8495 Cl  0  0  0  0  0  0
  -31.4837  -12.5484   19.1533 H   0  0  0  0  0  0
  -30.3994  -11.4050   19.8997 H   0  0  0  0  0  0
  -29.7900  -11.7216   17.4959 H   0  0  0  0  0  0
  -29.6569  -13.4464   17.7181 H   0  0  0  0  0  0
  -27.9001  -11.2690   18.8961 H   0  0  0  0  0  0
  -27.3836  -12.5121   17.7843 H   0  0  0  0  0  0
  -27.6634  -14.2333   19.4904 H   0  0  0  0  0  0
  -28.6964  -12.0460   21.3662 H   0  0  0  0  0  0
  -28.4174  -13.7041   21.8288 H   0  0  0  0  0  0
  -25.2709   -9.5716   22.4787 H   0  0  0  0  0  0
  -23.9990   -7.4619   22.7486 H   0  0  0  0  0  0
  -21.0797   -8.8722   19.8962 H   0  0  0  0  0  0
  -22.3578  -10.9681   19.6183 H   0  0  0  0  0  0
  -21.1982   -7.6137   23.9694 H   0  0  0  0  0  0
  -21.1504   -6.0527   25.9073 H   0  0  0  0  0  0
  -22.0595   -2.7595   23.2859 H   0  0  0  0  0  0
  -22.4024  -11.9946   22.4863 H   0  0  0  0  0  0
  -21.1058  -13.1335   22.2591 H   0  0  0  0  0  0
  -24.6544  -15.8326   20.4870 H   0  0  0  0  0  0
  -26.2488  -15.6020   19.9740 H   0  0  0  0  0  0
  -26.7114  -32.5552   23.1101 H   0  0  0  0  0  0
  -25.0075  -33.9761   25.0469 H   0  0  0  0  0  0
  -22.7155  -31.3108   21.4176 H   0  0  0  0  0  0
  -23.3767  -35.9585   23.3386 H   0  0  0  0  0  0
  -24.3548  -36.8784   22.2039 H   0  0  0  0  0  0
  -23.7140  -37.6473   23.6588 H   0  0  0  0  0  0
  -26.0789  -31.5508   20.6012 H   0  0  0  0  0  0
  -26.8409  -30.8619   22.0022 H   0  0  0  0  0  0
  -28.1004  -28.9483   21.2313 H   0  0  0  0  0  0
  -25.9464  -25.9579   18.9634 H   0  0  0  0  0  0
  -23.9596  -27.3465   18.9899 H   0  0  0  0  0  0
  -23.7498  -30.6040   19.4108 H   0  0  0  0  0  0
  -22.7500  -29.2594   19.8728 H   0  0  0  0  0  0
  -25.1302  -36.2034   25.0819 H   0  0  0  0  0  0
  -21.0002  -28.3289   24.1447 H   0  0  0  0  0  0
  -20.5706  -26.2300   23.3638 H   0  0  0  0  0  0
  -21.6607  -26.7512   22.1198 H   0  0  0  0  0  0
  -19.6914  -25.6339   21.1225 H   0  0  0  0  0  0
  -19.6653  -27.3266   20.6793 H   0  0  0  0  0  0
  -17.4176  -26.6733   21.4028 H   0  0  0  0  0  0
  -18.0300  -26.0098   22.9017 H   0  0  0  0  0  0
  -19.7886  -30.7266   24.2357 H   0  0  0  0  0  0
  -17.4979  -31.6331   24.5141 H   0  0  0  0  0  0
  -15.5322  -30.3043   23.7676 H   0  0  0  0  0  0
  -15.8629  -28.0857   22.7151 H   0  0  0  0  0  0
  -24.6016  -30.6972   25.7625 H   0  0  0  0  0  0
  -24.8839  -32.2787   26.4784 H   0  0  0  0  0  0
  -25.8009  -30.8824   27.0168 H   0  0  0  0  0  0
  -26.2948  -29.6744   24.1248 H   0  0  0  0  0  0
  -27.4223  -29.7362   25.4613 H   0  0  0  0  0  0
  -27.8748  -30.4376   23.9261 H   0  0  0  0  0  0
  -27.2936  -33.3602   26.2042 H   0  0  0  0  0  0
  -28.3950  -32.6717   25.0187 H   0  0  0  0  0  0
  -28.0886  -31.8317   26.5280 H   0  0  0  0  0  0
  -28.2713  -38.0020   24.7521 H   0  0  0  0  0  0
  -28.0966  -36.2562   24.6412 H   0  0  0  0  0  0
  -27.2300  -37.1544   25.8914 H   0  0  0  0  0  0
  -20.9343  -29.8683   21.6829 H   0  0  0  0  0  0
  -26.0245  -38.2892   24.1403 H   0  0  0  0  0  0
  -27.6518  -17.3742   20.8497 H   0  0  0  0  0  0
  -27.6123  -19.8083   20.8552 H   0  0  0  0  0  0
  -31.9732  -17.4040   20.8253 H   0  0  0  0  0  0
  -29.2673  -24.1704   21.6963 H   0  0  0  0  0  0
  -30.0170  -24.0480   20.1306 H   0  0  0  0  0  0
  -27.0787  -24.7403   20.5160 H   0  0  0  0  0  0
  -27.9339  -24.7756   18.9967 H   0  0  0  0  0  0
  -28.2820  -22.1226   19.6289 H   0  0  0  0  0  0
  -27.9324  -22.1616   21.3509 H   0  0  0  0  0  0
  -28.7959  -15.3218   20.9411 H   0  0  0  0  0  0
  1 25  1  0  0  0
  1 30  2  0  0  0
  1 80  1  0  0  0
  2  3  1  0  0  0
  2 25  1  0  0  0
  2 83  1  0  0  0
  2 84  1  0  0  0
  3  4  1  0  0  0
  3 85  1  0  0  0
  3 86  1  0  0  0
  4  5  1  0  0  0
  4 87  1  0  0  0
  4 88  1  0  0  0
  5  6  1  0  0  0
  5 26  1  0  0  0
  5 89  1  0  0  0
  6 25  1  0  0  0
  6 90  1  0  0  0
  6 91  1  0  0  0
  7  8  2  0  0  0
  7 26  1  0  0  0
  7 29  1  0  0  0
  8  9  1  0  0  0
  8 22  1  0  0  0
  9 10  1  0  0  0
  9 27  2  0  0  0
 10 11  2  0  0  0
 10 15  1  0  0  0
 11 12  1  0  0  0
 11 92  1  0  0  0
 12 13  2  0  0  0
 12 93  1  0  0  0
 13 14  1  0  0  0
 13 31  1  0  0  0
 14 15  2  0  0  0
 14 94  1  0  0  0
 15 95  1  0  0  0
 16 17  2  0  0  0
 16 21  1  0  0  0
 16 31  1  0  0  0
 17 18  1  0  0  0
 17 96  1  0  0  0
 18 19  2  0  0  0
 18 97  1  0  0  0
 19 20  1  0  0  0
 19 24  1  0  0  0
 20 21  2  0  0  0
 20 98  1  0  0  0
 21 23  1  0  0  0
 22 28  1  0  0  0
 22 32  2  0  0  0
 26 27  1  0  0  0
 28 99  1  0  0  0
 28100  1  0  0  0
 29101  1  0  0  0
 29102  1  0  0  0
 33 34  1  0  0  0
 33 66  1  0  0  0
 33 70  2  0  0  0
 34 36  1  0  0  0
 34 59  1  0  0  0
 34103  1  0  0  0
 35 44  2  0  0  0
 35 45  1  0  0  0
 35 68  1  0  0  0
 36 56  1  0  0  0
 36104  1  0  0  0
 37 39  1  0  0  0
 37 47  1  0  0  0
 37 66  1  0  0  0
 37105  1  0  0  0
 38 43  2  0  0  0
 38 46  1  0  0  0
 38 47  1  0  0  0
 39 64  1  0  0  0
 39 67  2  0  0  0
 40 52  1  0  0  0
 40 53  2  0  0  0
 40 58  1  0  0  0
 41106  1  0  0  0
 41107  1  0  0  0
 41108  1  0  0  0
 41 48  1  0  0  0
 42 43  1  0  0  0
 42 66  1  0  0  0
 42109  1  0  0  0
 42110  1  0  0  0
 43 44  1  0  0  0
 44111  1  0  0  0
 45 46  2  0  0  0
 45112  1  0  0  0
 46113  1  0  0  0
 47114  1  0  0  0
 47115  1  0  0  0
 48 56  1  0  0  0
 48 65  1  0  0  0
 48116  1  0  0  0
 49 50  1  0  0  0
 49 53  1  0  0  0
 49 64  1  0  0  0
 49117  1  0  0  0
 50 51  1  0  0  0
 50118  1  0  0  0
 50119  1  0  0  0
 51 52  1  0  0  0
 51120  1  0  0  0
 51121  1  0  0  0
 52122  1  0  0  0
 52123  1  0  0  0
 53 54  1  0  0  0
 54 55  2  0  0  0
 54124  1  0  0  0
 55 57  1  0  0  0
 55125  1  0  0  0
 56 69  2  0  0  0
 57 58  2  0  0  0
 57126  1  0  0  0
 58127  1  0  0  0
 59 60  1  0  0  0
 59 61  1  0  0  0
 59 62  1  0  0  0
 60128  1  0  0  0
 60129  1  0  0  0
 60130  1  0  0  0
 61131  1  0  0  0
 61132  1  0  0  0
 61133  1  0  0  0
 62134  1  0  0  0
 62135  1  0  0  0
 62136  1  0  0  0
 63 65  1  0  0  0
 63137  1  0  0  0
 63138  1  0  0  0
 63139  1  0  0  0
 64140  1  0  0  0
 65141  1  0  0  0
 68 78  1  0  0  0
 71 72  2  0  0  0
 71 74  1  0  0  0
 71142  1  0  0  0
 72 75  1  0  0  0
 72143  1  0  0  0
 73 74  2  0  0  0
 73 76  1  0  0  0
 73144  1  0  0  0
 74 80  1  0  0  0
 75 76  2  0  0  0
 75 81  1  0  0  0
 76 82  1  0  0  0
 77 78  1  0  0  0
 77 79  1  0  0  0
 77145  1  0  0  0
 77146  1  0  0  0
 78147  1  0  0  0
 78148  1  0  0  0
 79 81  1  0  0  0
 79149  1  0  0  0
 79150  1  0  0  0
 80151  1  0  0  0
M  ISO  4   1 100  68 101  78 101  80 100
M  END
> <chiral flag>
0

> <version>
0

> <s_m_source_file>
/data/baiqing/PycharmProjects/Reinvent-master-3.2/result/LINK_invent/BTK/process_docking_weight1_custom_product_contain_oxygen_bond_distance_aromatic_linkinvent_7_9_3/rearranged_h_0014.sdf

> <i_m_source_file_index>
9

> <r_mmod_Potential_Energy-OPLS-2005>
75.7188110351562

> <r_mmod_Stretch_Energy-OPLS-2005>
78.2957916259766

> <r_mmod_Bend_Energy-OPLS-2005>
144.195495605469

> <r_mmod_Torsional_Energy-OPLS-2005>
211.836456298828

> <r_mmod_Improper_Torsional_Energy-OPLS-2005>
5.42349863052368

> <r_mmod_Van_der_Waal_Energy-OPLS-2005>
143.755264282227

> <r_mmod_Electrostatic_Energy-OPLS-2005>
-350.020111083984

> <r_mmod_Solvation_Energy-OPLS-2005>
-215.935211181641

> <b_mmod_Minimization_Converged-OPLS-2005>
0

> <r_mmod_RMS_Derivative-OPLS-2005>
5.47856521606445

$$$$
9
                    3D
 Structure written by MMmdl.
158167  0  0  1  0            999 V2000
  -30.6198  -14.7061   20.3620 C   0  0  0  0  0  0
  -30.4379  -12.3960   19.4641 C   0  0  0  0  0  0
  -29.5013  -12.3707   18.2337 C   0  0  0  0  0  0
  -28.0204  -12.2845   18.6524 C   0  0  0  0  0  0
  -27.6391  -13.2180   19.8347 C   0  0  2  0  0  0
  -28.6933  -13.1786   20.9604 C   0  0  0  0  0  0
  -25.2535  -13.8178   20.5723 C   0  0  0  0  0  0
  -24.1801  -13.0442   20.9207 C   0  0  0  0  0  0
  -24.6375  -11.6916   20.8771 C   0  0  0  0  0  0
  -23.9056  -10.4294   21.0422 C   0  0  0  0  0  0
  -24.3613   -9.4207   21.9192 C   0  0  0  0  0  0
  -23.6292   -8.2240   22.0754 C   0  0  0  0  0  0
  -22.4275   -8.0280   21.3544 C   0  0  0  0  0  0
  -21.9910   -9.0255   20.4647 C   0  0  0  0  0  0
  -22.7235  -10.2136   20.3065 C   0  0  0  0  0  0
  -21.6852   -6.0736   22.5280 C   0  0  0  0  0  0
  -21.4013   -6.5638   23.8214 C   0  0  0  0  0  0
  -21.3659   -5.6791   24.9176 C   0  0  0  0  0  0
  -21.6044   -4.3055   24.7227 C   0  0  0  0  0  0
  -21.8818   -3.8146   23.4348 C   0  0  0  0  0  0
  -21.9191   -4.6963   22.3403 C   0  0  0  0  0  0
  -22.7825  -13.5234   21.1860 C   0  0  0  0  0  0
  -22.1660   -4.2148   21.0982 F   0  0  0  0  0  0
  -21.5629   -3.4540   25.7741 F   0  0  0  0  0  0
  -29.9903  -13.4871   20.3498 N   0  0  0  0  0  0
  -26.2943  -12.9362   20.3292 N   0  0  0  0  0  0
  -25.9303  -11.6523   20.5812 N   0  0  0  0  0  0
  -22.0469  -12.8226   22.0416 N   0  0  0  0  0  0
  -25.4269  -15.1898   20.4196 N   0  0  0  0  0  0
  -31.8513  -14.7680   20.3023 O   0  0  0  0  0  0
  -21.6639   -6.8879   21.4241 O   0  0  0  0  0  0
  -22.3508  -14.5538   20.6705 O   0  0  0  0  0  0
  -24.6247  -31.8593   23.2007 C   0  0  0  0  0  0
  -25.9098  -32.4777   23.8340 C   0  0  1  0  0  0
  -27.2267  -27.3248   20.1350 C   0  0  0  0  0  0
  -25.5919  -33.8576   24.2276 N   0  0  0  0  0  0
  -23.4187  -30.4803   21.5425 C   0  0  2  0  0  0
  -24.8673  -28.9285   20.1159 C   0  0  0  0  0  0
  -22.7466  -29.4619   22.4935 C   0  0  0  0  0  0
  -18.0283  -28.1382   22.8484 C   0  0  0  0  0  0
  -24.1489  -36.7294   23.2639 C   0  0  0  0  0  0
  -25.9567  -30.7947   21.3677 C   0  0  0  0  0  0
  -26.0339  -29.4193   20.7169 C   0  0  0  0  0  0
  -27.2203  -28.6303   20.7112 C   0  0  0  0  0  0
  -26.0424  -26.8757   19.5175 C   0  0  0  0  0  0
  -24.8727  -27.6623   19.5059 C   0  0  0  0  0  0
  -23.6345  -29.8084   20.1597 C   0  0  0  0  0  0
  -25.4114  -36.3083   24.0329 C   0  0  1  0  0  0
  -20.5881  -28.3684   23.1287 C   0  0  2  0  0  0
  -20.6772  -26.9408   22.5410 C   0  0  0  0  0  0
  -19.5750  -26.6383   21.5210 C   0  0  0  0  0  0
  -18.1930  -26.7923   22.1622 C   0  0  0  0  0  0
  -19.1534  -28.8849   23.2882 C   0  0  0  0  0  0
  -18.9460  -30.1452   23.8896 C   0  0  0  0  0  0
  -17.6461  -30.6585   24.0562 C   0  0  0  0  0  0
  -25.9046  -34.9453   23.5102 C   0  0  0  0  0  0
  -16.5352  -29.9084   23.6327 C   0  0  0  0  0  0
  -16.7270  -28.6502   23.0346 C   0  0  0  0  0  0
  -26.4491  -31.6582   25.0705 C   0  0  0  0  0  0
  -25.3736  -31.3717   26.1439 C   0  0  0  0  0  0
  -27.0329  -30.3009   24.6139 C   0  0  0  0  0  0
  -27.6053  -32.4312   25.7479 C   0  0  0  0  0  0
  -27.5578  -37.1804   24.8464 C   0  0  0  0  0  0
  -21.4179  -29.3039   22.3682 N   0  0  0  0  0  0
  -26.4291  -37.3778   23.9406 N   0  0  0  0  0  0
  -24.6854  -31.0616   22.0946 N   0  0  0  0  0  0
  -23.4192  -28.8165   23.3018 O   0  0  0  0  0  0
  -28.3505  -26.4945   20.1361 O   0  0  0  0  0  0
  -26.5615  -34.8920   22.4668 O   0  0  0  0  0  0
  -23.5414  -32.1384   23.7343 O   0  0  0  0  0  0
  -30.0152  -19.4231   20.8251 C   0  0  0  0  0  0
  -27.9535  -18.9475   19.6997 C   0  0  0  0  0  0
  -30.3529  -18.0241   20.7957 C   0  0  0  0  0  0
  -28.2808  -17.5671   19.6771 C   0  0  0  0  0  0
  -28.8224  -19.9419   20.2305 C   0  0  0  0  0  0
  -29.5063  -17.0593   20.1773 C   0  0  0  0  0  0
  -29.0266  -22.5174   20.5944 C   0  0  0  0  0  0
  -27.3029  -23.3164   19.1510 C   0  0  0  0  0  0
  -27.4542  -21.7841   19.0920 C   0  0  0  0  0  0
  -28.5221  -23.8409   19.9069 C   0  0  1  0  0  0
  -30.0528  -15.7106   18.2652 C   0  0  0  0  0  0
  -28.2435  -25.1584   20.7672 C   0  0  0  0  0  0
  -28.4861  -21.3783   20.0549 N   0  0  0  0  0  0
  -29.9061  -15.7165   19.7336 N   0  0  0  0  0  0
  -29.8439  -22.5426   21.5197 O   0  0  0  0  0  0
  -31.4736  -12.5273   19.1445 H   0  0  0  0  0  0
  -30.4021  -11.4444   19.9965 H   0  0  0  0  0  0
  -29.7493  -11.5105   17.6103 H   0  0  0  0  0  0
  -29.6574  -13.2298   17.5904 H   0  0  0  0  0  0
  -27.8394  -11.2474   18.9357 H   0  0  0  0  0  0
  -27.3731  -12.4758   17.7959 H   0  0  0  0  0  0
  -27.6234  -14.2286   19.4288 H   0  0  0  0  0  0
  -28.7166  -12.2017   21.4450 H   0  0  0  0  0  0
  -28.4525  -13.9105   21.7336 H   0  0  0  0  0  0
  -25.2756   -9.5684   22.4770 H   0  0  0  0  0  0
  -24.0004   -7.4627   22.7468 H   0  0  0  0  0  0
  -21.0845   -8.8774   19.8949 H   0  0  0  0  0  0
  -22.3696  -10.9677   19.6177 H   0  0  0  0  0  0
  -21.2005   -7.6147   23.9718 H   0  0  0  0  0  0
  -21.1481   -6.0521   25.9079 H   0  0  0  0  0  0
  -22.0598   -2.7610   23.2849 H   0  0  0  0  0  0
  -22.4085  -11.9895   22.4817 H   0  0  0  0  0  0
  -21.1085  -13.1250   22.2617 H   0  0  0  0  0  0
  -24.6717  -15.8523   20.5578 H   0  0  0  0  0  0
  -26.3040  -15.6308   20.1780 H   0  0  0  0  0  0
  -26.7164  -32.5458   23.1092 H   0  0  0  0  0  0
  -25.0078  -33.9722   25.0428 H   0  0  0  0  0  0
  -22.7119  -31.2996   21.3959 H   0  0  0  0  0  0
  -23.3748  -35.9630   23.3304 H   0  0  0  0  0  0
  -24.3581  -36.8911   22.2053 H   0  0  0  0  0  0
  -23.7245  -37.6499   23.6655 H   0  0  0  0  0  0
  -26.0815  -31.5552   20.5956 H   0  0  0  0  0  0
  -26.8395  -30.8503   21.9932 H   0  0  0  0  0  0
  -28.1201  -29.0052   21.1789 H   0  0  0  0  0  0
  -26.0198  -25.9049   19.0447 H   0  0  0  0  0  0
  -23.9788  -27.2807   19.0320 H   0  0  0  0  0  0
  -23.7542  -30.5810   19.3993 H   0  0  0  0  0  0
  -22.7554  -29.2358   19.8588 H   0  0  0  0  0  0
  -25.1295  -36.1933   25.0821 H   0  0  0  0  0  0
  -20.9978  -28.3259   24.1407 H   0  0  0  0  0  0
  -20.5669  -26.2294   23.3607 H   0  0  0  0  0  0
  -21.6643  -26.7437   22.1210 H   0  0  0  0  0  0
  -19.6913  -25.6295   21.1238 H   0  0  0  0  0  0
  -19.6691  -27.3192   20.6740 H   0  0  0  0  0  0
  -17.4200  -26.6666   21.4024 H   0  0  0  0  0  0
  -18.0336  -26.0066   22.9021 H   0  0  0  0  0  0
  -19.7937  -30.7266   24.2267 H   0  0  0  0  0  0
  -17.5015  -31.6264   24.5163 H   0  0  0  0  0  0
  -15.5351  -30.2987   23.7650 H   0  0  0  0  0  0
  -15.8672  -28.0823   22.7059 H   0  0  0  0  0  0
  -24.5910  -30.7063   25.7776 H   0  0  0  0  0  0
  -24.8931  -32.2884   26.4867 H   0  0  0  0  0  0
  -25.8077  -30.8898   27.0209 H   0  0  0  0  0  0
  -26.2895  -29.6767   24.1166 H   0  0  0  0  0  0
  -27.4039  -29.7255   25.4631 H   0  0  0  0  0  0
  -27.8757  -30.4300   23.9345 H   0  0  0  0  0  0
  -27.2659  -33.3605   26.2067 H   0  0  0  0  0  0
  -28.3863  -32.6883   25.0311 H   0  0  0  0  0  0
  -28.0718  -31.8428   26.5391 H   0  0  0  0  0  0
  -28.2601  -38.0096   24.7505 H   0  0  0  0  0  0
  -28.1070  -36.2628   24.6299 H   0  0  0  0  0  0
  -27.2295  -37.1464   25.8868 H   0  0  0  0  0  0
  -20.9353  -29.8765   21.6898 H   0  0  0  0  0  0
  -26.0173  -38.2853   24.1404 H   0  0  0  0  0  0
  -30.7337  -20.1082   21.2520 H   0  0  0  0  0  0
  -27.0211  -19.2233   19.2315 H   0  0  0  0  0  0
  -31.3203  -17.7171   21.1676 H   0  0  0  0  0  0
  -27.6040  -16.8986   19.1646 H   0  0  0  0  0  0
  -26.3873  -23.5671   19.6885 H   0  0  0  0  0  0
  -27.2229  -23.7531   18.1547 H   0  0  0  0  0  0
  -27.7547  -21.4671   18.0922 H   0  0  0  0  0  0
  -26.4943  -21.3195   19.3177 H   0  0  0  0  0  0
  -29.3048  -24.0825   19.1876 H   0  0  0  0  0  0
  -30.2968  -16.7036   17.8832 H   0  0  0  0  0  0
  -29.1179  -15.4072   17.7947 H   0  0  0  0  0  0
  -30.8489  -15.0587   17.8994 H   0  0  0  0  0  0
  -28.9695  -25.1758   21.5803 H   0  0  0  0  0  0
  -27.2813  -25.0610   21.2723 H   0  0  0  0  0  0
  1 25  1  0  0  0
  1 30  2  0  0  0
  1 84  1  0  0  0
  2  3  1  0  0  0
  2 25  1  0  0  0
  2 86  1  0  0  0
  2 87  1  0  0  0
  3  4  1  0  0  0
  3 88  1  0  0  0
  3 89  1  0  0  0
  4  5  1  0  0  0
  4 90  1  0  0  0
  4 91  1  0  0  0
  5  6  1  0  0  0
  5 26  1  0  0  0
  5 92  1  0  0  0
  6 25  1  0  0  0
  6 93  1  0  0  0
  6 94  1  0  0  0
  7  8  2  0  0  0
  7 26  1  0  0  0
  7 29  1  0  0  0
  8  9  1  0  0  0
  8 22  1  0  0  0
  9 10  1  0  0  0
  9 27  2  0  0  0
 10 11  2  0  0  0
 10 15  1  0  0  0
 11 12  1  0  0  0
 11 95  1  0  0  0
 12 13  2  0  0  0
 12 96  1  0  0  0
 13 14  1  0  0  0
 13 31  1  0  0  0
 14 15  2  0  0  0
 14 97  1  0  0  0
 15 98  1  0  0  0
 16 17  2  0  0  0
 16 21  1  0  0  0
 16 31  1  0  0  0
 17 18  1  0  0  0
 17 99  1  0  0  0
 18 19  2  0  0  0
 18100  1  0  0  0
 19 20  1  0  0  0
 19 24  1  0  0  0
 20 21  2  0  0  0
 20101  1  0  0  0
 21 23  1  0  0  0
 22 28  1  0  0  0
 22 32  2  0  0  0
 26 27  1  0  0  0
 28102  1  0  0  0
 28103  1  0  0  0
 29104  1  0  0  0
 29105  1  0  0  0
 33 34  1  0  0  0
 33 66  1  0  0  0
 33 70  2  0  0  0
 34 36  1  0  0  0
 34 59  1  0  0  0
 34106  1  0  0  0
 35 44  2  0  0  0
 35 45  1  0  0  0
 35 68  1  0  0  0
 36 56  1  0  0  0
 36107  1  0  0  0
 37 39  1  0  0  0
 37 47  1  0  0  0
 37 66  1  0  0  0
 37108  1  0  0  0
 38 43  2  0  0  0
 38 46  1  0  0  0
 38 47  1  0  0  0
 39 64  1  0  0  0
 39 67  2  0  0  0
 40 52  1  0  0  0
 40 53  2  0  0  0
 40 58  1  0  0  0
 41109  1  0  0  0
 41110  1  0  0  0
 41111  1  0  0  0
 41 48  1  0  0  0
 42 43  1  0  0  0
 42 66  1  0  0  0
 42112  1  0  0  0
 42113  1  0  0  0
 43 44  1  0  0  0
 44114  1  0  0  0
 45 46  2  0  0  0
 45115  1  0  0  0
 46116  1  0  0  0
 47117  1  0  0  0
 47118  1  0  0  0
 48 56  1  0  0  0
 48 65  1  0  0  0
 48119  1  0  0  0
 49 50  1  0  0  0
 49 53  1  0  0  0
 49 64  1  0  0  0
 49120  1  0  0  0
 50 51  1  0  0  0
 50121  1  0  0  0
 50122  1  0  0  0
 51 52  1  0  0  0
 51123  1  0  0  0
 51124  1  0  0  0
 52125  1  0  0  0
 52126  1  0  0  0
 53 54  1  0  0  0
 54 55  2  0  0  0
 54127  1  0  0  0
 55 57  1  0  0  0
 55128  1  0  0  0
 56 69  2  0  0  0
 57 58  2  0  0  0
 57129  1  0  0  0
 58130  1  0  0  0
 59 60  1  0  0  0
 59 61  1  0  0  0
 59 62  1  0  0  0
 60131  1  0  0  0
 60132  1  0  0  0
 60133  1  0  0  0
 61134  1  0  0  0
 61135  1  0  0  0
 61136  1  0  0  0
 62137  1  0  0  0
 62138  1  0  0  0
 62139  1  0  0  0
 63 65  1  0  0  0
 63140  1  0  0  0
 63141  1  0  0  0
 63142  1  0  0  0
 64143  1  0  0  0
 65144  1  0  0  0
 68 82  1  0  0  0
 71 73  2  0  0  0
 71 75  1  0  0  0
 71145  1  0  0  0
 72 74  1  0  0  0
 72 75  2  0  0  0
 72146  1  0  0  0
 73 76  1  0  0  0
 73147  1  0  0  0
 74 76  2  0  0  0
 74148  1  0  0  0
 75 83  1  0  0  0
 76 84  1  0  0  0
 77 80  1  0  0  0
 77 83  1  0  0  0
 77 85  2  0  0  0
 78 79  1  0  0  0
 78 80  1  0  0  0
 78149  1  0  0  0
 78150  1  0  0  0
 79 83  1  0  0  0
 79151  1  0  0  0
 79152  1  0  0  0
 80 82  1  0  0  0
 80153  1  0  0  0
 81 84  1  0  0  0
 81154  1  0  0  0
 81155  1  0  0  0
 81156  1  0  0  0
 82157  1  0  0  0
 82158  1  0  0  0
M  ISO  4   1 100  68 101  82 101  84 100
M  END
> <chiral flag>
0

> <version>
0

> <s_m_source_file>
/data/baiqing/PycharmProjects/Reinvent-master-3.2/result/LINK_invent/BTK/process_docking_weight1_custom_product_contain_oxygen_bond_distance_aromatic_linkinvent_7_9_3/rearranged_h_0014.sdf

> <i_m_source_file_index>
10

> <r_mmod_Potential_Energy-OPLS-2005>
435.304718017578

> <r_mmod_Stretch_Energy-OPLS-2005>
86.6733856201172

> <r_mmod_Bend_Energy-OPLS-2005>
185.174057006836

> <r_mmod_Torsional_Energy-OPLS-2005>
399.541442871094

> <r_mmod_Improper_Torsional_Energy-OPLS-2005>
31.7825603485107

> <r_mmod_Van_der_Waal_Energy-OPLS-2005>
138.330413818359

> <r_mmod_Electrostatic_Energy-OPLS-2005>
-274.18603515625

> <r_mmod_Solvation_Energy-OPLS-2005>
-206.901107788086

> <b_mmod_Minimization_Converged-OPLS-2005>
0

> <r_mmod_RMS_Derivative-OPLS-2005>
0.592943966388702

$$$$
10
                    3D
 Structure written by MMmdl.
154162  0  0  1  0            999 V2000
  -30.6987  -14.4181   20.6231 C   0  0  0  0  0  0
  -30.4238  -12.2904   19.4020 C   0  0  0  0  0  0
  -29.4865  -12.5241   18.1993 C   0  0  0  0  0  0
  -28.0070  -12.3871   18.6132 C   0  0  0  0  0  0
  -27.6670  -13.1993   19.8900 C   0  0  2  0  0  0
  -28.7073  -12.9205   20.9976 C   0  0  0  0  0  0
  -25.2599  -13.8150   20.5691 C   0  0  0  0  0  0
  -24.1838  -13.0442   20.9186 C   0  0  0  0  0  0
  -24.6381  -11.6905   20.8747 C   0  0  0  0  0  0
  -23.9050  -10.4293   21.0408 C   0  0  0  0  0  0
  -24.3595   -9.4206   21.9185 C   0  0  0  0  0  0
  -23.6276   -8.2239   22.0743 C   0  0  0  0  0  0
  -22.4259   -8.0281   21.3536 C   0  0  0  0  0  0
  -21.9897   -9.0261   20.4640 C   0  0  0  0  0  0
  -22.7224  -10.2140   20.3056 C   0  0  0  0  0  0
  -21.6840   -6.0736   22.5275 C   0  0  0  0  0  0
  -21.4014   -6.5641   23.8210 C   0  0  0  0  0  0
  -21.3674   -5.6796   24.9175 C   0  0  0  0  0  0
  -21.6050   -4.3059   24.7224 C   0  0  0  0  0  0
  -21.8816   -3.8150   23.4342 C   0  0  0  0  0  0
  -21.9186   -4.6970   22.3395 C   0  0  0  0  0  0
  -22.7856  -13.5239   21.1856 C   0  0  0  0  0  0
  -22.1646   -4.2151   21.0974 F   0  0  0  0  0  0
  -21.5639   -3.4543   25.7743 F   0  0  0  0  0  0
  -30.0444  -13.2374   20.4594 N   0  0  0  0  0  0
  -26.3047  -12.9304   20.3447 N   0  0  0  0  0  0
  -25.9312  -11.6467   20.5815 N   0  0  0  0  0  0
  -22.0509  -12.8225   22.0415 N   0  0  0  0  0  0
  -25.4369  -15.1863   20.4057 N   0  0  0  0  0  0
  -31.7708  -14.6867   20.0712 O   0  0  0  0  0  0
  -21.6629   -6.8873   21.4231 O   0  0  0  0  0  0
  -22.3545  -14.5549   20.6709 O   0  0  0  0  0  0
  -24.6151  -31.8683   23.2096 C   0  0  0  0  0  0
  -25.9047  -32.4823   23.8384 C   0  0  1  0  0  0
  -27.2369  -27.4463   20.0954 C   0  0  0  0  0  0
  -25.5908  -33.8619   24.2324 N   0  0  0  0  0  0
  -23.4011  -30.4891   21.5527 C   0  0  2  0  0  0
  -24.8464  -28.9469   20.1242 C   0  0  0  0  0  0
  -22.7402  -29.4666   22.5037 C   0  0  0  0  0  0
  -18.0267  -28.1378   22.8506 C   0  0  0  0  0  0
  -24.1485  -36.7314   23.2641 C   0  0  0  0  0  0
  -25.9271  -30.8357   21.3582 C   0  0  0  0  0  0
  -26.0059  -29.4674   20.7135 C   0  0  0  0  0  0
  -27.2068  -28.7249   20.6940 C   0  0  0  0  0  0
  -26.0633  -26.9268   19.5140 C   0  0  0  0  0  0
  -24.8677  -27.6726   19.5261 C   0  0  0  0  0  0
  -23.6077  -29.8137   20.1704 C   0  0  0  0  0  0
  -25.4111  -36.3116   24.0340 C   0  0  1  0  0  0
  -20.5858  -28.3655   23.1341 C   0  0  2  0  0  0
  -20.6756  -26.9385   22.5441 C   0  0  0  0  0  0
  -19.5741  -26.6381   21.5230 C   0  0  0  0  0  0
  -18.1911  -26.7937   22.1621 C   0  0  0  0  0  0
  -19.1517  -28.8835   23.2921 C   0  0  0  0  0  0
  -18.9448  -30.1453   23.8922 C   0  0  0  0  0  0
  -17.6451  -30.6586   24.0578 C   0  0  0  0  0  0
  -25.9040  -34.9480   23.5127 C   0  0  0  0  0  0
  -16.5343  -29.9089   23.6335 C   0  0  0  0  0  0
  -16.7261  -28.6507   23.0350 C   0  0  0  0  0  0
  -26.4479  -31.6604   25.0714 C   0  0  0  0  0  0
  -25.3750  -31.3728   26.1477 C   0  0  0  0  0  0
  -27.0302  -30.3048   24.6082 C   0  0  0  0  0  0
  -27.6088  -32.4308   25.7443 C   0  0  0  0  0  0
  -27.5593  -37.1801   24.8461 C   0  0  0  0  0  0
  -21.4139  -29.3023   22.3760 N   0  0  0  0  0  0
  -26.4298  -37.3798   23.9418 N   0  0  0  0  0  0
  -24.6664  -31.0782   22.0991 N   0  0  0  0  0  0
  -23.4179  -28.8220   23.3086 O   0  0  0  0  0  0
  -28.4105  -26.7367   20.0273 O   0  0  0  0  0  0
  -26.5602  -34.8935   22.4690 O   0  0  0  0  0  0
  -23.5348  -32.1443   23.7494 O   0  0  0  0  0  0
  -30.7469  -17.4576   22.3116 C   0  0  0  0  0  0
  -30.6670  -18.8639   22.2937 C   0  0  0  0  0  0
  -29.3857  -17.3746   20.2967 C   0  0  0  0  0  0
  -30.1017  -16.7043   21.3139 C   0  0  0  0  0  0
  -29.9377  -19.5490   21.2980 C   0  0  0  0  0  0
  -29.3053  -18.7846   20.2785 C   0  0  0  0  0  0
  -28.5950  -24.2782   20.2175 C   0  0  0  0  0  0
  -29.1472  -23.1647   21.1351 C   0  0  0  0  0  0
  -28.5307  -25.6437   20.9384 C   0  0  0  0  0  0
  -29.1102  -21.7335   20.5614 C   0  0  0  0  0  0
  -30.0643  -15.2917   21.4197 N   0  0  0  0  0  0
  -29.9039  -20.9260   21.4292 O   0  0  0  0  0  0
  -28.6013  -19.3721   19.2809 F   0  0  0  0  0  0
  -31.4673  -12.4000   19.1004 H   0  0  0  0  0  0
  -30.3279  -11.2672   19.7678 H   0  0  0  0  0  0
  -29.7160  -11.8197   17.3985 H   0  0  0  0  0  0
  -29.6596  -13.5192   17.7868 H   0  0  0  0  0  0
  -27.8042  -11.3288   18.7854 H   0  0  0  0  0  0
  -27.3552  -12.6917   17.7935 H   0  0  0  0  0  0
  -27.7293  -14.2564   19.6308 H   0  0  0  0  0  0
  -28.6779  -11.8681   21.2828 H   0  0  0  0  0  0
  -28.4619  -13.4623   21.9116 H   0  0  0  0  0  0
  -25.2736   -9.5681   22.4764 H   0  0  0  0  0  0
  -23.9993   -7.4620   22.7442 H   0  0  0  0  0  0
  -21.0830   -8.8782   19.8940 H   0  0  0  0  0  0
  -22.3685  -10.9682   19.6164 H   0  0  0  0  0  0
  -21.2011   -7.6147   23.9720 H   0  0  0  0  0  0
  -21.1495   -6.0521   25.9072 H   0  0  0  0  0  0
  -22.0585   -2.7612   23.2838 H   0  0  0  0  0  0
  -22.4120  -11.9861   22.4767 H   0  0  0  0  0  0
  -21.1139  -13.1261   22.2663 H   0  0  0  0  0  0
  -24.6763  -15.8499   20.5024 H   0  0  0  0  0  0
  -26.2960  -15.6159   20.0866 H   0  0  0  0  0  0
  -26.7118  -32.5531   23.1148 H   0  0  0  0  0  0
  -25.0070  -33.9780   25.0477 H   0  0  0  0  0  0
  -22.6907  -31.3056   21.4112 H   0  0  0  0  0  0
  -23.3757  -35.9637   23.3292 H   0  0  0  0  0  0
  -24.3586  -36.8946   22.2059 H   0  0  0  0  0  0
  -23.7218  -37.6508   23.6660 H   0  0  0  0  0  0
  -26.0318  -31.5952   20.5823 H   0  0  0  0  0  0
  -26.8195  -30.8967   21.9703 H   0  0  0  0  0  0
  -28.1086  -29.1283   21.1321 H   0  0  0  0  0  0
  -26.0771  -25.9531   19.0435 H   0  0  0  0  0  0
  -23.9730  -27.2632   19.0762 H   0  0  0  0  0  0
  -23.7140  -30.5839   19.4060 H   0  0  0  0  0  0
  -22.7317  -29.2310   19.8786 H   0  0  0  0  0  0
  -25.1292  -36.1977   25.0835 H   0  0  0  0  0  0
  -20.9946  -28.3204   24.1469 H   0  0  0  0  0  0
  -20.5642  -26.2259   23.3633 H   0  0  0  0  0  0
  -21.6629  -26.7420   22.1244 H   0  0  0  0  0  0
  -19.6887  -25.6293   21.1252 H   0  0  0  0  0  0
  -19.6693  -27.3206   20.6775 H   0  0  0  0  0  0
  -17.4196  -26.6731   21.3994 H   0  0  0  0  0  0
  -18.0266  -26.0054   22.8983 H   0  0  0  0  0  0
  -19.7921  -30.7272   24.2283 H   0  0  0  0  0  0
  -17.4997  -31.6265   24.5169 H   0  0  0  0  0  0
  -15.5338  -30.2993   23.7651 H   0  0  0  0  0  0
  -15.8660  -28.0838   22.7041 H   0  0  0  0  0  0
  -24.5901  -30.7097   25.7819 H   0  0  0  0  0  0
  -24.8964  -32.2891   26.4942 H   0  0  0  0  0  0
  -25.8099  -30.8878   27.0225 H   0  0  0  0  0  0
  -26.2826  -29.6779   24.1210 H   0  0  0  0  0  0
  -27.4161  -29.7322   25.4525 H   0  0  0  0  0  0
  -27.8619  -30.4375   23.9162 H   0  0  0  0  0  0
  -27.2755  -33.3606   26.2057 H   0  0  0  0  0  0
  -28.3861  -32.6864   25.0231 H   0  0  0  0  0  0
  -28.0794  -31.8402   26.5312 H   0  0  0  0  0  0
  -28.2618  -38.0093   24.7525 H   0  0  0  0  0  0
  -28.1085  -36.2633   24.6258 H   0  0  0  0  0  0
  -27.2324  -37.1422   25.8868 H   0  0  0  0  0  0
  -20.9300  -29.8744   21.6989 H   0  0  0  0  0  0
  -26.0192  -38.2879   24.1437 H   0  0  0  0  0  0
  -31.2854  -16.9625   23.1081 H   0  0  0  0  0  0
  -31.1544  -19.4288   23.0747 H   0  0  0  0  0  0
  -28.8683  -16.8155   19.5310 H   0  0  0  0  0  0
  -27.6055  -24.0107   19.8461 H   0  0  0  0  0  0
  -29.2409  -24.3621   19.3422 H   0  0  0  0  0  0
  -28.6010  -23.1703   22.0789 H   0  0  0  0  0  0
  -30.1803  -23.4107   21.3841 H   0  0  0  0  0  0
  -29.4595  -25.8036   21.4868 H   0  0  0  0  0  0
  -27.7357  -25.6399   21.6880 H   0  0  0  0  0  0
  -29.5192  -21.7081   19.5501 H   0  0  0  0  0  0
  -28.0770  -21.3818   20.5285 H   0  0  0  0  0  0
  -29.2555  -14.9091   21.8864 H   0  0  0  0  0  0
  1 25  1  0  0  0
  1 30  2  0  0  0
  1 81  1  0  0  0
  2  3  1  0  0  0
  2 25  1  0  0  0
  2 84  1  0  0  0
  2 85  1  0  0  0
  3  4  1  0  0  0
  3 86  1  0  0  0
  3 87  1  0  0  0
  4  5  1  0  0  0
  4 88  1  0  0  0
  4 89  1  0  0  0
  5  6  1  0  0  0
  5 26  1  0  0  0
  5 90  1  0  0  0
  6 25  1  0  0  0
  6 91  1  0  0  0
  6 92  1  0  0  0
  7  8  2  0  0  0
  7 26  1  0  0  0
  7 29  1  0  0  0
  8  9  1  0  0  0
  8 22  1  0  0  0
  9 10  1  0  0  0
  9 27  2  0  0  0
 10 11  2  0  0  0
 10 15  1  0  0  0
 11 12  1  0  0  0
 11 93  1  0  0  0
 12 13  2  0  0  0
 12 94  1  0  0  0
 13 14  1  0  0  0
 13 31  1  0  0  0
 14 15  2  0  0  0
 14 95  1  0  0  0
 15 96  1  0  0  0
 16 17  2  0  0  0
 16 21  1  0  0  0
 16 31  1  0  0  0
 17 18  1  0  0  0
 17 97  1  0  0  0
 18 19  2  0  0  0
 18 98  1  0  0  0
 19 20  1  0  0  0
 19 24  1  0  0  0
 20 21  2  0  0  0
 20 99  1  0  0  0
 21 23  1  0  0  0
 22 28  1  0  0  0
 22 32  2  0  0  0
 26 27  1  0  0  0
 28100  1  0  0  0
 28101  1  0  0  0
 29102  1  0  0  0
 29103  1  0  0  0
 33 34  1  0  0  0
 33 66  1  0  0  0
 33 70  2  0  0  0
 34 36  1  0  0  0
 34 59  1  0  0  0
 34104  1  0  0  0
 35 44  2  0  0  0
 35 45  1  0  0  0
 35 68  1  0  0  0
 36 56  1  0  0  0
 36105  1  0  0  0
 37 39  1  0  0  0
 37 47  1  0  0  0
 37 66  1  0  0  0
 37106  1  0  0  0
 38 43  2  0  0  0
 38 46  1  0  0  0
 38 47  1  0  0  0
 39 64  1  0  0  0
 39 67  2  0  0  0
 40 52  1  0  0  0
 40 53  2  0  0  0
 40 58  1  0  0  0
 41107  1  0  0  0
 41108  1  0  0  0
 41109  1  0  0  0
 41 48  1  0  0  0
 42 43  1  0  0  0
 42 66  1  0  0  0
 42110  1  0  0  0
 42111  1  0  0  0
 43 44  1  0  0  0
 44112  1  0  0  0
 45 46  2  0  0  0
 45113  1  0  0  0
 46114  1  0  0  0
 47115  1  0  0  0
 47116  1  0  0  0
 48 56  1  0  0  0
 48 65  1  0  0  0
 48117  1  0  0  0
 49 50  1  0  0  0
 49 53  1  0  0  0
 49 64  1  0  0  0
 49118  1  0  0  0
 50 51  1  0  0  0
 50119  1  0  0  0
 50120  1  0  0  0
 51 52  1  0  0  0
 51121  1  0  0  0
 51122  1  0  0  0
 52123  1  0  0  0
 52124  1  0  0  0
 53 54  1  0  0  0
 54 55  2  0  0  0
 54125  1  0  0  0
 55 57  1  0  0  0
 55126  1  0  0  0
 56 69  2  0  0  0
 57 58  2  0  0  0
 57127  1  0  0  0
 58128  1  0  0  0
 59 60  1  0  0  0
 59 61  1  0  0  0
 59 62  1  0  0  0
 60129  1  0  0  0
 60130  1  0  0  0
 60131  1  0  0  0
 61132  1  0  0  0
 61133  1  0  0  0
 61134  1  0  0  0
 62135  1  0  0  0
 62136  1  0  0  0
 62137  1  0  0  0
 63 65  1  0  0  0
 63138  1  0  0  0
 63139  1  0  0  0
 63140  1  0  0  0
 64141  1  0  0  0
 65142  1  0  0  0
 68 79  1  0  0  0
 71 72  2  0  0  0
 71 74  1  0  0  0
 71143  1  0  0  0
 72 75  1  0  0  0
 72144  1  0  0  0
 73 74  2  0  0  0
 73 76  1  0  0  0
 73145  1  0  0  0
 74 81  1  0  0  0
 75 76  2  0  0  0
 75 82  1  0  0  0
 76 83  1  0  0  0
 77 78  1  0  0  0
 77 79  1  0  0  0
 77146  1  0  0  0
 77147  1  0  0  0
 78 80  1  0  0  0
 78148  1  0  0  0
 78149  1  0  0  0
 79150  1  0  0  0
 79151  1  0  0  0
 80 82  1  0  0  0
 80152  1  0  0  0
 80153  1  0  0  0
 81154  1  0  0  0
M  ISO  4   1 100  68 101  79 101  81 100
M  END
> <chiral flag>
0

> <version>
0

> <s_m_source_file>
/data/baiqing/PycharmProjects/Reinvent-master-3.2/result/LINK_invent/BTK/process_docking_weight1_custom_product_contain_oxygen_bond_distance_aromatic_linkinvent_7_9_3/rearranged_h_0014.sdf

> <i_m_source_file_index>
11

> <r_mmod_Potential_Energy-OPLS-2005>
-7.72032642364502

> <r_mmod_Stretch_Energy-OPLS-2005>
33.7883720397949

> <r_mmod_Bend_Energy-OPLS-2005>
102.545356750488

> <r_mmod_Torsional_Energy-OPLS-2005>
260.977874755859

> <r_mmod_Improper_Torsional_Energy-OPLS-2005>
3.96556282043457

> <r_mmod_Van_der_Waal_Energy-OPLS-2005>
148.763961791992

> <r_mmod_Electrostatic_Energy-OPLS-2005>
-358.7958984375

> <r_mmod_Solvation_Energy-OPLS-2005>
-207.164703369141

> <b_mmod_Minimization_Converged-OPLS-2005>
0

> <r_mmod_RMS_Derivative-OPLS-2005>
1.57983112335205

$$$$
11
                    3D
 Structure written by MMmdl.
170178  0  0  1  0            999 V2000
  -30.7473  -14.4531   20.6337 C   0  0  0  0  0  0
  -30.4128  -12.3173   19.4286 C   0  0  0  0  0  0
  -29.4917  -12.5117   18.2074 C   0  0  0  0  0  0
  -28.0107  -12.3790   18.6110 C   0  0  0  0  0  0
  -27.6590  -13.2095   19.8737 C   0  0  2  0  0  0
  -28.6952  -12.9597   20.9860 C   0  0  0  0  0  0
  -25.2559  -13.8173   20.5641 C   0  0  0  0  0  0
  -24.1825  -13.0450   20.9174 C   0  0  0  0  0  0
  -24.6385  -11.6919   20.8731 C   0  0  0  0  0  0
  -23.9052  -10.4303   21.0409 C   0  0  0  0  0  0
  -24.3610   -9.4218   21.9184 C   0  0  0  0  0  0
  -23.6295   -8.2253   22.0762 C   0  0  0  0  0  0
  -22.4280   -8.0285   21.3552 C   0  0  0  0  0  0
  -21.9902   -9.0250   20.4645 C   0  0  0  0  0  0
  -22.7228  -10.2133   20.3052 C   0  0  0  0  0  0
  -21.6841   -6.0733   22.5287 C   0  0  0  0  0  0
  -21.4010   -6.5635   23.8222 C   0  0  0  0  0  0
  -21.3661   -5.6792   24.9179 C   0  0  0  0  0  0
  -21.6045   -4.3054   24.7231 C   0  0  0  0  0  0
  -21.8819   -3.8149   23.4351 C   0  0  0  0  0  0
  -21.9193   -4.6963   22.3410 C   0  0  0  0  0  0
  -22.7841  -13.5240   21.1849 C   0  0  0  0  0  0
  -22.1655   -4.2146   21.0982 F   0  0  0  0  0  0
  -21.5633   -3.4537   25.7742 F   0  0  0  0  0  0
  -30.0232  -13.3048   20.4570 N   0  0  0  0  0  0
  -26.2999  -12.9352   20.3341 N   0  0  0  0  0  0
  -25.9307  -11.6506   20.5758 N   0  0  0  0  0  0
  -22.0482  -12.8229   22.0401 N   0  0  0  0  0  0
  -25.4268  -15.1886   20.3990 N   0  0  0  0  0  0
  -31.8505  -14.5759   20.0855 O   0  0  0  0  0  0
  -21.6642   -6.8878   21.4253 O   0  0  0  0  0  0
  -22.3516  -14.5551   20.6701 O   0  0  0  0  0  0
  -24.6104  -31.8692   23.2114 C   0  0  0  0  0  0
  -25.8998  -32.4838   23.8416 C   0  0  1  0  0  0
  -27.2355  -27.4424   20.1129 C   0  0  0  0  0  0
  -25.5859  -33.8638   24.2344 N   0  0  0  0  0  0
  -23.4007  -30.4875   21.5516 C   0  0  2  0  0  0
  -24.8514  -28.9525   20.1207 C   0  0  0  0  0  0
  -22.7404  -29.4634   22.5011 C   0  0  0  0  0  0
  -18.0263  -28.1358   22.8489 C   0  0  0  0  0  0
  -24.1482  -36.7332   23.2640 C   0  0  0  0  0  0
  -25.9249  -30.8399   21.3622 C   0  0  0  0  0  0
  -26.0082  -29.4709   20.7167 C   0  0  0  0  0  0
  -27.2064  -28.7226   20.7092 C   0  0  0  0  0  0
  -26.0663  -26.9303   19.5151 C   0  0  0  0  0  0
  -24.8736  -27.6813   19.5167 C   0  0  0  0  0  0
  -23.6113  -29.8172   20.1670 C   0  0  0  0  0  0
  -25.4106  -36.3132   24.0335 C   0  0  1  0  0  0
  -20.5852  -28.3642   23.1326 C   0  0  2  0  0  0
  -20.6754  -26.9379   22.5426 C   0  0  0  0  0  0
  -19.5743  -26.6377   21.5209 C   0  0  0  0  0  0
  -18.1912  -26.7907   22.1616 C   0  0  0  0  0  0
  -19.1513  -28.8819   23.2894 C   0  0  0  0  0  0
  -18.9449  -30.1422   23.8906 C   0  0  0  0  0  0
  -17.6453  -30.6569   24.0559 C   0  0  0  0  0  0
  -25.9027  -34.9487   23.5144 C   0  0  0  0  0  0
  -16.5342  -29.9074   23.6321 C   0  0  0  0  0  0
  -16.7253  -28.6484   23.0347 C   0  0  0  0  0  0
  -26.4440  -31.6613   25.0733 C   0  0  0  0  0  0
  -25.3718  -31.3672   26.1492 C   0  0  0  0  0  0
  -27.0280  -30.3077   24.6065 C   0  0  0  0  0  0
  -27.6042  -32.4319   25.7479 C   0  0  0  0  0  0
  -27.5579  -37.1816   24.8455 C   0  0  0  0  0  0
  -21.4138  -29.3007   22.3745 N   0  0  0  0  0  0
  -26.4301  -37.3811   23.9392 N   0  0  0  0  0  0
  -24.6631  -31.0799   22.1011 N   0  0  0  0  0  0
  -23.4167  -28.8178   23.3059 O   0  0  0  0  0  0
  -28.4062  -26.7278   20.0488 O   0  0  0  0  0  0
  -26.5619  -34.8928   22.4721 O   0  0  0  0  0  0
  -23.5301  -32.1442   23.7522 O   0  0  0  0  0  0
  -30.3399  -18.8652   22.2902 C   0  0  0  0  0  0
  -29.8110  -20.1475   22.5499 C   0  0  0  0  0  0
  -28.6219  -20.0829   20.4368 C   0  0  0  0  0  0
  -30.0137  -18.1763   21.0997 C   0  0  0  0  0  0
  -28.9692  -20.7891   21.6096 C   0  0  0  0  0  0
  -29.1262  -18.7877   20.1865 C   0  0  0  0  0  0
  -27.8328  -15.9312   24.2766 C   0  0  0  0  0  0
  -28.9221  -23.2129   24.0214 C   0  0  0  0  0  0
  -30.7132  -16.8590   20.7434 C   0  0  0  0  0  0
  -28.2683  -16.0025   22.8107 C   0  0  0  0  0  0
  -28.1889  -24.2825   20.4869 C   0  0  0  0  0  0
  -27.9431  -22.4546   23.1088 C   0  0  0  0  0  0
  -29.7333  -15.5493   22.6144 C   0  0  0  0  0  0
  -29.1275  -23.1324   20.9514 C   0  0  0  0  0  0
  -28.5759  -25.6874   21.0188 C   0  0  0  0  0  0
  -28.4953  -22.1081   21.7967 N   0  0  0  0  0  0
  -30.1568  -15.5531   21.2012 N   0  0  0  0  0  0
  -28.7859  -18.1492   19.0407 F   0  0  0  0  0  0
  -31.4575  -12.3997   19.1234 H   0  0  0  0  0  0
  -30.3132  -11.3047   19.8225 H   0  0  0  0  0  0
  -29.7335  -11.7786   17.4362 H   0  0  0  0  0  0
  -29.6657  -13.4933   17.7637 H   0  0  0  0  0  0
  -27.8140  -11.3224   18.7981 H   0  0  0  0  0  0
  -27.3640  -12.6620   17.7805 H   0  0  0  0  0  0
  -27.7130  -14.2634   19.5976 H   0  0  0  0  0  0
  -28.6827  -11.9070   21.2726 H   0  0  0  0  0  0
  -28.4281  -13.4761   21.8966 H   0  0  0  0  0  0
  -25.2751   -9.5698   22.4753 H   0  0  0  0  0  0
  -23.9996   -7.4649   22.7484 H   0  0  0  0  0  0
  -21.0833   -8.8771   19.8949 H   0  0  0  0  0  0
  -22.3690  -10.9670   19.6159 H   0  0  0  0  0  0
  -21.1998   -7.6142   23.9724 H   0  0  0  0  0  0
  -21.1479   -6.0516   25.9083 H   0  0  0  0  0  0
  -22.0596   -2.7609   23.2855 H   0  0  0  0  0  0
  -22.4079  -11.9854   22.4746 H   0  0  0  0  0  0
  -21.1118  -13.1280   22.2642 H   0  0  0  0  0  0
  -24.6662  -15.8489   20.5115 H   0  0  0  0  0  0
  -26.2894  -15.6245   20.0999 H   0  0  0  0  0  0
  -26.7076  -32.5570   23.1198 H   0  0  0  0  0  0
  -24.9930  -33.9814   25.0433 H   0  0  0  0  0  0
  -22.6890  -31.3025   21.4122 H   0  0  0  0  0  0
  -23.3739  -35.9666   23.3308 H   0  0  0  0  0  0
  -24.3566  -36.8953   22.2053 H   0  0  0  0  0  0
  -23.7250  -37.6537   23.6663 H   0  0  0  0  0  0
  -26.0268  -31.6035   20.5904 H   0  0  0  0  0  0
  -26.8150  -30.9026   21.9755 H   0  0  0  0  0  0
  -28.1067  -29.1231   21.1550 H   0  0  0  0  0  0
  -26.0851  -25.9595   19.0383 H   0  0  0  0  0  0
  -23.9840  -27.2788   19.0534 H   0  0  0  0  0  0
  -23.7160  -30.5900   19.4042 H   0  0  0  0  0  0
  -22.7361  -29.2318   19.8789 H   0  0  0  0  0  0
  -25.1279  -36.2005   25.0831 H   0  0  0  0  0  0
  -20.9930  -28.3209   24.1455 H   0  0  0  0  0  0
  -20.5666  -26.2244   23.3604 H   0  0  0  0  0  0
  -21.6624  -26.7429   22.1215 H   0  0  0  0  0  0
  -19.6912  -25.6299   21.1216 H   0  0  0  0  0  0
  -19.6691  -27.3215   20.6751 H   0  0  0  0  0  0
  -17.4191  -26.6650   21.4007 H   0  0  0  0  0  0
  -18.0291  -26.0050   22.9011 H   0  0  0  0  0  0
  -19.7936  -30.7199   24.2310 H   0  0  0  0  0  0
  -17.5025  -31.6262   24.5140 H   0  0  0  0  0  0
  -15.5348  -30.2972   23.7646 H   0  0  0  0  0  0
  -15.8653  -28.0801   22.7070 H   0  0  0  0  0  0
  -24.5903  -30.7019   25.7804 H   0  0  0  0  0  0
  -24.8881  -32.2793   26.4990 H   0  0  0  0  0  0
  -25.8073  -30.8804   27.0231 H   0  0  0  0  0  0
  -26.2812  -29.6835   24.1145 H   0  0  0  0  0  0
  -27.4110  -29.7310   25.4491 H   0  0  0  0  0  0
  -27.8611  -30.4416   23.9164 H   0  0  0  0  0  0
  -27.2703  -33.3626   26.2075 H   0  0  0  0  0  0
  -28.3831  -32.6869   25.0283 H   0  0  0  0  0  0
  -28.0729  -31.8430   26.5372 H   0  0  0  0  0  0
  -28.2597  -38.0114   24.7523 H   0  0  0  0  0  0
  -28.1081  -36.2652   24.6262 H   0  0  0  0  0  0
  -27.2293  -37.1447   25.8857 H   0  0  0  0  0  0
  -20.9306  -29.8749   21.6983 H   0  0  0  0  0  0
  -26.0192  -38.2886   24.1413 H   0  0  0  0  0  0
  -31.0269  -18.4291   23.0017 H   0  0  0  0  0  0
  -30.1027  -20.6408   23.4639 H   0  0  0  0  0  0
  -27.9671  -20.5375   19.7089 H   0  0  0  0  0  0
  -26.8015  -16.2670   24.3897 H   0  0  0  0  0  0
  -28.4584  -16.5678   24.9039 H   0  0  0  0  0  0
  -27.8953  -14.9120   24.6594 H   0  0  0  0  0  0
  -28.4656  -23.4030   24.9944 H   0  0  0  0  0  0
  -29.1959  -24.1816   23.6041 H   0  0  0  0  0  0
  -29.8417  -22.6593   24.2038 H   0  0  0  0  0  0
  -31.7411  -16.9390   21.1032 H   0  0  0  0  0  0
  -30.7938  -16.8439   19.6531 H   0  0  0  0  0  0
  -28.1287  -17.0260   22.4686 H   0  0  0  0  0  0
  -27.5837  -15.4114   22.2066 H   0  0  0  0  0  0
  -27.1431  -24.0706   20.7126 H   0  0  0  0  0  0
  -28.2431  -24.3140   19.3976 H   0  0  0  0  0  0
  -27.0478  -23.0604   22.9596 H   0  0  0  0  0  0
  -27.6022  -21.5482   23.6144 H   0  0  0  0  0  0
  -29.8845  -14.5644   23.0612 H   0  0  0  0  0  0
  -30.3953  -16.1953   23.1908 H   0  0  0  0  0  0
  -29.9969  -23.5318   21.4755 H   0  0  0  0  0  0
  -29.5451  -22.6545   20.0626 H   0  0  0  0  0  0
  -29.6362  -25.7054   21.2714 H   0  0  0  0  0  0
  -28.0447  -25.9100   21.9470 H   0  0  0  0  0  0
  1 25  1  0  0  0
  1 30  2  0  0  0
  1 87  1  0  0  0
  2  3  1  0  0  0
  2 25  1  0  0  0
  2 89  1  0  0  0
  2 90  1  0  0  0
  3  4  1  0  0  0
  3 91  1  0  0  0
  3 92  1  0  0  0
  4  5  1  0  0  0
  4 93  1  0  0  0
  4 94  1  0  0  0
  5  6  1  0  0  0
  5 26  1  0  0  0
  5 95  1  0  0  0
  6 25  1  0  0  0
  6 96  1  0  0  0
  6 97  1  0  0  0
  7  8  2  0  0  0
  7 26  1  0  0  0
  7 29  1  0  0  0
  8  9  1  0  0  0
  8 22  1  0  0  0
  9 10  1  0  0  0
  9 27  2  0  0  0
 10 11  2  0  0  0
 10 15  1  0  0  0
 11 12  1  0  0  0
 11 98  1  0  0  0
 12 13  2  0  0  0
 12 99  1  0  0  0
 13 14  1  0  0  0
 13 31  1  0  0  0
 14 15  2  0  0  0
 14100  1  0  0  0
 15101  1  0  0  0
 16 17  2  0  0  0
 16 21  1  0  0  0
 16 31  1  0  0  0
 17 18  1  0  0  0
 17102  1  0  0  0
 18 19  2  0  0  0
 18103  1  0  0  0
 19 20  1  0  0  0
 19 24  1  0  0  0
 20 21  2  0  0  0
 20104  1  0  0  0
 21 23  1  0  0  0
 22 28  1  0  0  0
 22 32  2  0  0  0
 26 27  1  0  0  0
 28105  1  0  0  0
 28106  1  0  0  0
 29107  1  0  0  0
 29108  1  0  0  0
 33 34  1  0  0  0
 33 66  1  0  0  0
 33 70  2  0  0  0
 34 36  1  0  0  0
 34 59  1  0  0  0
 34109  1  0  0  0
 35 44  2  0  0  0
 35 45  1  0  0  0
 35 68  1  0  0  0
 36 56  1  0  0  0
 36110  1  0  0  0
 37 39  1  0  0  0
 37 47  1  0  0  0
 37 66  1  0  0  0
 37111  1  0  0  0
 38 43  2  0  0  0
 38 46  1  0  0  0
 38 47  1  0  0  0
 39 64  1  0  0  0
 39 67  2  0  0  0
 40 52  1  0  0  0
 40 53  2  0  0  0
 40 58  1  0  0  0
 41112  1  0  0  0
 41113  1  0  0  0
 41114  1  0  0  0
 41 48  1  0  0  0
 42 43  1  0  0  0
 42 66  1  0  0  0
 42115  1  0  0  0
 42116  1  0  0  0
 43 44  1  0  0  0
 44117  1  0  0  0
 45 46  2  0  0  0
 45118  1  0  0  0
 46119  1  0  0  0
 47120  1  0  0  0
 47121  1  0  0  0
 48 56  1  0  0  0
 48 65  1  0  0  0
 48122  1  0  0  0
 49 50  1  0  0  0
 49 53  1  0  0  0
 49 64  1  0  0  0
 49123  1  0  0  0
 50 51  1  0  0  0
 50124  1  0  0  0
 50125  1  0  0  0
 51 52  1  0  0  0
 51126  1  0  0  0
 51127  1  0  0  0
 52128  1  0  0  0
 52129  1  0  0  0
 53 54  1  0  0  0
 54 55  2  0  0  0
 54130  1  0  0  0
 55 57  1  0  0  0
 55131  1  0  0  0
 56 69  2  0  0  0
 57 58  2  0  0  0
 57132  1  0  0  0
 58133  1  0  0  0
 59 60  1  0  0  0
 59 61  1  0  0  0
 59 62  1  0  0  0
 60134  1  0  0  0
 60135  1  0  0  0
 60136  1  0  0  0
 61137  1  0  0  0
 61138  1  0  0  0
 61139  1  0  0  0
 62140  1  0  0  0
 62141  1  0  0  0
 62142  1  0  0  0
 63 65  1  0  0  0
 63143  1  0  0  0
 63144  1  0  0  0
 63145  1  0  0  0
 64146  1  0  0  0
 65147  1  0  0  0
 68 85  1  0  0  0
 71 72  2  0  0  0
 71 74  1  0  0  0
 71148  1  0  0  0
 72 75  1  0  0  0
 72149  1  0  0  0
 73 75  2  0  0  0
 73 76  1  0  0  0
 73150  1  0  0  0
 74 76  2  0  0  0
 74 79  1  0  0  0
 75 86  1  0  0  0
 76 88  1  0  0  0
 77 80  1  0  0  0
 77151  1  0  0  0
 77152  1  0  0  0
 77153  1  0  0  0
 78 82  1  0  0  0
 78154  1  0  0  0
 78155  1  0  0  0
 78156  1  0  0  0
 79 87  1  0  0  0
 79157  1  0  0  0
 79158  1  0  0  0
 80 83  1  0  0  0
 80159  1  0  0  0
 80160  1  0  0  0
 81 84  1  0  0  0
 81 85  1  0  0  0
 81161  1  0  0  0
 81162  1  0  0  0
 82 86  1  0  0  0
 82163  1  0  0  0
 82164  1  0  0  0
 83 87  1  0  0  0
 83165  1  0  0  0
 83166  1  0  0  0
 84 86  1  0  0  0
 84167  1  0  0  0
 84168  1  0  0  0
 85169  1  0  0  0
 85170  1  0  0  0
M  ISO  4   1 100  68 101  85 101  87 100
M  END
> <chiral flag>
0

> <version>
0

> <s_m_source_file>
/data/baiqing/PycharmProjects/Reinvent-master-3.2/result/LINK_invent/BTK/process_docking_weight1_custom_product_contain_oxygen_bond_distance_aromatic_linkinvent_7_9_3/rearranged_h_0014.sdf

> <i_m_source_file_index>
12

> <r_mmod_Potential_Energy-OPLS-2005>
180.530715942383

> <r_mmod_Stretch_Energy-OPLS-2005>
44.0947113037109

> <r_mmod_Bend_Energy-OPLS-2005>
124.953056335449

> <r_mmod_Torsional_Energy-OPLS-2005>
330.802642822266

> <r_mmod_Improper_Torsional_Energy-OPLS-2005>
10.780366897583

> <r_mmod_Van_der_Waal_Energy-OPLS-2005>
154.486938476562

> <r_mmod_Electrostatic_Energy-OPLS-2005>
-309.100402832031

> <r_mmod_Solvation_Energy-OPLS-2005>
-186.249359130859

> <b_mmod_Minimization_Converged-OPLS-2005>
0

> <r_mmod_RMS_Derivative-OPLS-2005>
2.03732180595398

$$$$
12
                    3D
 Structure written by MMmdl.
157165  0  0  1  0            999 V2000
  -30.6953  -14.4756   20.5545 C   0  0  0  0  0  0
  -30.4210  -12.3042   19.4230 C   0  0  0  0  0  0
  -29.4932  -12.4997   18.2057 C   0  0  0  0  0  0
  -28.0141  -12.3576   18.6191 C   0  0  0  0  0  0
  -27.6568  -13.2011   19.8722 C   0  0  2  0  0  0
  -28.6997  -12.9943   20.9934 C   0  0  0  0  0  0
  -25.2580  -13.8139   20.5696 C   0  0  0  0  0  0
  -24.1822  -13.0430   20.9184 C   0  0  0  0  0  0
  -24.6365  -11.6894   20.8734 C   0  0  0  0  0  0
  -23.9028  -10.4290   21.0404 C   0  0  0  0  0  0
  -24.3593   -9.4214   21.9182 C   0  0  0  0  0  0
  -23.6288   -8.2239   22.0748 C   0  0  0  0  0  0
  -22.4269   -8.0273   21.3542 C   0  0  0  0  0  0
  -21.9894   -9.0235   20.4644 C   0  0  0  0  0  0
  -22.7203  -10.2124   20.3052 C   0  0  0  0  0  0
  -21.6851   -6.0727   22.5282 C   0  0  0  0  0  0
  -21.4007   -6.5629   23.8216 C   0  0  0  0  0  0
  -21.3658   -5.6779   24.9175 C   0  0  0  0  0  0
  -21.6051   -4.3044   24.7224 C   0  0  0  0  0  0
  -21.8823   -3.8137   23.4344 C   0  0  0  0  0  0
  -21.9194   -4.6954   22.3400 C   0  0  0  0  0  0
  -22.7851  -13.5243   21.1845 C   0  0  0  0  0  0
  -22.1668   -4.2142   21.0980 F   0  0  0  0  0  0
  -21.5633   -3.4531   25.7738 F   0  0  0  0  0  0
  -30.0278  -13.2948   20.4366 N   0  0  0  0  0  0
  -26.2995  -12.9292   20.3362 N   0  0  0  0  0  0
  -25.9291  -11.6460   20.5763 N   0  0  0  0  0  0
  -22.0474  -12.8253   22.0405 N   0  0  0  0  0  0
  -25.4315  -15.1855   20.4108 N   0  0  0  0  0  0
  -31.8456  -14.6323   20.1315 O   0  0  0  0  0  0
  -21.6633   -6.8871   21.4244 O   0  0  0  0  0  0
  -22.3550  -14.5556   20.6698 O   0  0  0  0  0  0
  -24.6127  -31.8676   23.2099 C   0  0  0  0  0  0
  -25.9023  -32.4823   23.8390 C   0  0  1  0  0  0
  -27.2366  -27.4432   20.1048 C   0  0  0  0  0  0
  -25.5885  -33.8619   24.2325 N   0  0  0  0  0  0
  -23.4005  -30.4905   21.5491 C   0  0  2  0  0  0
  -24.8475  -28.9526   20.1165 C   0  0  0  0  0  0
  -22.7401  -29.4659   22.4987 C   0  0  0  0  0  0
  -18.0272  -28.1378   22.8494 C   0  0  0  0  0  0
  -24.1480  -36.7305   23.2641 C   0  0  0  0  0  0
  -25.9270  -30.8378   21.3599 C   0  0  0  0  0  0
  -26.0055  -29.4726   20.7074 C   0  0  0  0  0  0
  -27.2047  -28.7276   20.6906 C   0  0  0  0  0  0
  -26.0629  -26.9300   19.5129 C   0  0  0  0  0  0
  -24.8703  -27.6808   19.5152 C   0  0  0  0  0  0
  -23.6090  -29.8192   20.1644 C   0  0  0  0  0  0
  -25.4103  -36.3110   24.0346 C   0  0  1  0  0  0
  -20.5860  -28.3658   23.1325 C   0  0  2  0  0  0
  -20.6761  -26.9396   22.5420 C   0  0  0  0  0  0
  -19.5740  -26.6387   21.5215 C   0  0  0  0  0  0
  -18.1920  -26.7930   22.1624 C   0  0  0  0  0  0
  -19.1520  -28.8836   23.2910 C   0  0  0  0  0  0
  -18.9452  -30.1443   23.8918 C   0  0  0  0  0  0
  -17.6456  -30.6585   24.0570 C   0  0  0  0  0  0
  -25.9027  -34.9478   23.5137 C   0  0  0  0  0  0
  -16.5344  -29.9093   23.6325 C   0  0  0  0  0  0
  -16.7264  -28.6508   23.0347 C   0  0  0  0  0  0
  -26.4473  -31.6606   25.0711 C   0  0  0  0  0  0
  -25.3763  -31.3701   26.1479 C   0  0  0  0  0  0
  -27.0311  -30.3060   24.6068 C   0  0  0  0  0  0
  -27.6042  -32.4341   25.7468 C   0  0  0  0  0  0
  -27.5584  -37.1801   24.8466 C   0  0  0  0  0  0
  -21.4131  -29.3026   22.3732 N   0  0  0  0  0  0
  -26.4287  -37.3797   23.9423 N   0  0  0  0  0  0
  -24.6652  -31.0791   22.0987 N   0  0  0  0  0  0
  -23.4183  -28.8203   23.3026 O   0  0  0  0  0  0
  -28.4196  -26.7393   20.0971 O   0  0  0  0  0  0
  -26.5584  -34.8933   22.4695 O   0  0  0  0  0  0
  -23.5323  -32.1417   23.7506 O   0  0  0  0  0  0
  -30.4334  -18.9732   19.9283 C   0  0  0  0  0  0
  -30.1316  -20.3482   20.0274 C   0  0  0  0  0  0
  -28.1047  -18.4313   20.3458 C   0  0  0  0  0  0
  -29.4174  -18.0023   20.0504 C   0  0  0  0  0  0
  -28.8011  -20.7890   20.2477 C   0  0  0  0  0  0
  -27.8016  -19.8077   20.4453 C   0  0  0  0  0  0
  -29.7671  -16.0276   22.1912 C   0  0  0  0  0  0
  -29.7150  -16.5349   19.7187 C   0  0  0  0  0  0
  -28.6548  -24.4186   19.3104 C   0  0  0  0  0  0
  -28.3828  -25.3623   20.4984 C   0  0  0  0  0  0
  -29.3227  -23.0716   19.6723 C   0  0  0  0  0  0
  -29.9146  -15.5552   20.8125 N   0  0  0  0  0  0
  -28.4222  -22.1249   20.2560 O   0  0  0  0  0  0
  -26.5238  -20.1897   20.6858 F   0  0  0  0  0  0
  -31.4656  -12.4012   19.1212 H   0  0  0  0  0  0
  -30.3199  -11.2949   19.8259 H   0  0  0  0  0  0
  -29.7357  -11.7741   17.4282 H   0  0  0  0  0  0
  -29.6593  -13.4855   17.7676 H   0  0  0  0  0  0
  -27.8288  -11.3015   18.8207 H   0  0  0  0  0  0
  -27.3616  -12.6262   17.7874 H   0  0  0  0  0  0
  -27.6925  -14.2454   19.5686 H   0  0  0  0  0  0
  -28.6769  -11.9650   21.3541 H   0  0  0  0  0  0
  -28.4635  -13.6148   21.8578 H   0  0  0  0  0  0
  -25.2736   -9.5704   22.4754 H   0  0  0  0  0  0
  -24.0009   -7.4627   22.7461 H   0  0  0  0  0  0
  -21.0821   -8.8731   19.8953 H   0  0  0  0  0  0
  -22.3645  -10.9652   19.6159 H   0  0  0  0  0  0
  -21.1989   -7.6133   23.9723 H   0  0  0  0  0  0
  -21.1483   -6.0502   25.9083 H   0  0  0  0  0  0
  -22.0605   -2.7599   23.2837 H   0  0  0  0  0  0
  -22.4070  -11.9916   22.4812 H   0  0  0  0  0  0
  -21.1092  -13.1297   22.2586 H   0  0  0  0  0  0
  -24.6698  -15.8445   20.5267 H   0  0  0  0  0  0
  -26.2921  -15.6194   20.1054 H   0  0  0  0  0  0
  -26.7089  -32.5539   23.1151 H   0  0  0  0  0  0
  -25.0071  -33.9783   25.0496 H   0  0  0  0  0  0
  -22.6887  -31.3069   21.4087 H   0  0  0  0  0  0
  -23.3751  -35.9627   23.3309 H   0  0  0  0  0  0
  -24.3576  -36.8907   22.2053 H   0  0  0  0  0  0
  -23.7221  -37.6509   23.6649 H   0  0  0  0  0  0
  -26.0373  -31.6053   20.5923 H   0  0  0  0  0  0
  -26.8154  -30.8902   21.9777 H   0  0  0  0  0  0
  -28.1032  -29.1293   21.1388 H   0  0  0  0  0  0
  -26.0673  -25.9576   19.0416 H   0  0  0  0  0  0
  -23.9795  -27.2766   19.0544 H   0  0  0  0  0  0
  -23.7185  -30.5926   19.4030 H   0  0  0  0  0  0
  -22.7337  -29.2379   19.8688 H   0  0  0  0  0  0
  -25.1280  -36.1972   25.0837 H   0  0  0  0  0  0
  -20.9959  -28.3217   24.1445 H   0  0  0  0  0  0
  -20.5659  -26.2264   23.3603 H   0  0  0  0  0  0
  -21.6631  -26.7440   22.1213 H   0  0  0  0  0  0
  -19.6900  -25.6303   21.1229 H   0  0  0  0  0  0
  -19.6688  -27.3211   20.6756 H   0  0  0  0  0  0
  -17.4195  -26.6684   21.4020 H   0  0  0  0  0  0
  -18.0318  -26.0066   22.9011 H   0  0  0  0  0  0
  -19.7929  -30.7252   24.2294 H   0  0  0  0  0  0
  -17.5015  -31.6271   24.5167 H   0  0  0  0  0  0
  -15.5349  -30.3004   23.7641 H   0  0  0  0  0  0
  -15.8661  -28.0840   22.7047 H   0  0  0  0  0  0
  -24.5914  -30.7069   25.7828 H   0  0  0  0  0  0
  -24.8984  -32.2854   26.4978 H   0  0  0  0  0  0
  -25.8139  -30.8837   27.0205 H   0  0  0  0  0  0
  -26.2839  -29.6801   24.1172 H   0  0  0  0  0  0
  -27.4158  -29.7312   25.4502 H   0  0  0  0  0  0
  -27.8640  -30.4400   23.9160 H   0  0  0  0  0  0
  -27.2647  -33.3624   26.2078 H   0  0  0  0  0  0
  -28.3830  -32.6937   25.0284 H   0  0  0  0  0  0
  -28.0743  -31.8458   26.5358 H   0  0  0  0  0  0
  -28.2595  -38.0104   24.7539 H   0  0  0  0  0  0
  -28.1085  -36.2642   24.6260 H   0  0  0  0  0  0
  -27.2307  -37.1410   25.8867 H   0  0  0  0  0  0
  -20.9283  -29.8759   21.6965 H   0  0  0  0  0  0
  -26.0179  -38.2871   24.1446 H   0  0  0  0  0  0
  -31.4473  -18.6699   19.7048 H   0  0  0  0  0  0
  -30.9407  -21.0517   19.8979 H   0  0  0  0  0  0
  -27.3078  -17.7099   20.4472 H   0  0  0  0  0  0
  -28.7732  -16.4472   22.3511 H   0  0  0  0  0  0
  -30.5082  -16.7957   22.4164 H   0  0  0  0  0  0
  -29.8992  -15.2205   22.9147 H   0  0  0  0  0  0
  -30.5738  -16.5304   19.0429 H   0  0  0  0  0  0
  -28.8884  -16.1714   19.1075 H   0  0  0  0  0  0
  -29.3381  -24.9338   18.6348 H   0  0  0  0  0  0
  -27.7442  -24.2511   18.7353 H   0  0  0  0  0  0
  -29.1747  -25.2430   21.2381 H   0  0  0  0  0  0
  -27.4572  -25.0920   21.0102 H   0  0  0  0  0  0
  -30.1714  -23.2382   20.3381 H   0  0  0  0  0  0
  -29.7225  -22.6590   18.7443 H   0  0  0  0  0  0
  1 25  1  0  0  0
  1 30  2  0  0  0
  1 82  1  0  0  0
  2  3  1  0  0  0
  2 25  1  0  0  0
  2 85  1  0  0  0
  2 86  1  0  0  0
  3  4  1  0  0  0
  3 87  1  0  0  0
  3 88  1  0  0  0
  4  5  1  0  0  0
  4 89  1  0  0  0
  4 90  1  0  0  0
  5  6  1  0  0  0
  5 26  1  0  0  0
  5 91  1  0  0  0
  6 25  1  0  0  0
  6 92  1  0  0  0
  6 93  1  0  0  0
  7  8  2  0  0  0
  7 26  1  0  0  0
  7 29  1  0  0  0
  8  9  1  0  0  0
  8 22  1  0  0  0
  9 10  1  0  0  0
  9 27  2  0  0  0
 10 11  2  0  0  0
 10 15  1  0  0  0
 11 12  1  0  0  0
 11 94  1  0  0  0
 12 13  2  0  0  0
 12 95  1  0  0  0
 13 14  1  0  0  0
 13 31  1  0  0  0
 14 15  2  0  0  0
 14 96  1  0  0  0
 15 97  1  0  0  0
 16 17  2  0  0  0
 16 21  1  0  0  0
 16 31  1  0  0  0
 17 18  1  0  0  0
 17 98  1  0  0  0
 18 19  2  0  0  0
 18 99  1  0  0  0
 19 20  1  0  0  0
 19 24  1  0  0  0
 20 21  2  0  0  0
 20100  1  0  0  0
 21 23  1  0  0  0
 22 28  1  0  0  0
 22 32  2  0  0  0
 26 27  1  0  0  0
 28101  1  0  0  0
 28102  1  0  0  0
 29103  1  0  0  0
 29104  1  0  0  0
 33 34  1  0  0  0
 33 66  1  0  0  0
 33 70  2  0  0  0
 34 36  1  0  0  0
 34 59  1  0  0  0
 34105  1  0  0  0
 35 44  2  0  0  0
 35 45  1  0  0  0
 35 68  1  0  0  0
 36 56  1  0  0  0
 36106  1  0  0  0
 37 39  1  0  0  0
 37 47  1  0  0  0
 37 66  1  0  0  0
 37107  1  0  0  0
 38 43  2  0  0  0
 38 46  1  0  0  0
 38 47  1  0  0  0
 39 64  1  0  0  0
 39 67  2  0  0  0
 40 52  1  0  0  0
 40 53  2  0  0  0
 40 58  1  0  0  0
 41108  1  0  0  0
 41109  1  0  0  0
 41110  1  0  0  0
 41 48  1  0  0  0
 42 43  1  0  0  0
 42 66  1  0  0  0
 42111  1  0  0  0
 42112  1  0  0  0
 43 44  1  0  0  0
 44113  1  0  0  0
 45 46  2  0  0  0
 45114  1  0  0  0
 46115  1  0  0  0
 47116  1  0  0  0
 47117  1  0  0  0
 48 56  1  0  0  0
 48 65  1  0  0  0
 48118  1  0  0  0
 49 50  1  0  0  0
 49 53  1  0  0  0
 49 64  1  0  0  0
 49119  1  0  0  0
 50 51  1  0  0  0
 50120  1  0  0  0
 50121  1  0  0  0
 51 52  1  0  0  0
 51122  1  0  0  0
 51123  1  0  0  0
 52124  1  0  0  0
 52125  1  0  0  0
 53 54  1  0  0  0
 54 55  2  0  0  0
 54126  1  0  0  0
 55 57  1  0  0  0
 55127  1  0  0  0
 56 69  2  0  0  0
 57 58  2  0  0  0
 57128  1  0  0  0
 58129  1  0  0  0
 59 60  1  0  0  0
 59 61  1  0  0  0
 59 62  1  0  0  0
 60130  1  0  0  0
 60131  1  0  0  0
 60132  1  0  0  0
 61133  1  0  0  0
 61134  1  0  0  0
 61135  1  0  0  0
 62136  1  0  0  0
 62137  1  0  0  0
 62138  1  0  0  0
 63 65  1  0  0  0
 63139  1  0  0  0
 63140  1  0  0  0
 63141  1  0  0  0
 64142  1  0  0  0
 65143  1  0  0  0
 68 80  1  0  0  0
 71 72  2  0  0  0
 71 74  1  0  0  0
 71144  1  0  0  0
 72 75  1  0  0  0
 72145  1  0  0  0
 73 74  2  0  0  0
 73 76  1  0  0  0
 73146  1  0  0  0
 74 78  1  0  0  0
 75 76  2  0  0  0
 75 83  1  0  0  0
 76 84  1  0  0  0
 77 82  1  0  0  0
 77147  1  0  0  0
 77148  1  0  0  0
 77149  1  0  0  0
 78 82  1  0  0  0
 78150  1  0  0  0
 78151  1  0  0  0
 79 80  1  0  0  0
 79 81  1  0  0  0
 79152  1  0  0  0
 79153  1  0  0  0
 80154  1  0  0  0
 80155  1  0  0  0
 81 83  1  0  0  0
 81156  1  0  0  0
 81157  1  0  0  0
M  ISO  4   1 100  68 101  80 101  82 100
M  END
> <chiral flag>
0

> <version>
0

> <s_m_source_file>
/data/baiqing/PycharmProjects/Reinvent-master-3.2/result/LINK_invent/BTK/process_docking_weight1_custom_product_contain_oxygen_bond_distance_aromatic_linkinvent_7_9_3/rearranged_h_0014.sdf

> <i_m_source_file_index>
13

> <r_mmod_Potential_Energy-OPLS-2005>
127.763984680176

> <r_mmod_Stretch_Energy-OPLS-2005>
37.9584197998047

> <r_mmod_Bend_Energy-OPLS-2005>
103.055686950684

> <r_mmod_Torsional_Energy-OPLS-2005>
302.603088378906

> <r_mmod_Improper_Torsional_Energy-OPLS-2005>
11.7451877593994

> <r_mmod_Van_der_Waal_Energy-OPLS-2005>
151.135299682617

> <r_mmod_Electrostatic_Energy-OPLS-2005>
-297.491760253906

> <r_mmod_Solvation_Energy-OPLS-2005>
-194.516677856445

> <b_mmod_Minimization_Converged-OPLS-2005>
0

> <r_mmod_RMS_Derivative-OPLS-2005>
1.17501842975616

$$$$
13
                    3D
 Structure written by MMmdl.
158166  0  0  1  0            999 V2000
  -30.5541  -14.6714   20.4633 C   0  0  0  0  0  0
  -30.4461  -12.4043   19.4353 C   0  0  0  0  0  0
  -29.5004  -12.4965   18.2133 C   0  0  0  0  0  0
  -28.0221  -12.3449   18.6278 C   0  0  0  0  0  0
  -27.6517  -13.2069   19.8630 C   0  0  2  0  0  0
  -28.7034  -13.0289   20.9808 C   0  0  0  0  0  0
  -25.2573  -13.8172   20.5700 C   0  0  0  0  0  0
  -24.1829  -13.0439   20.9240 C   0  0  0  0  0  0
  -24.6390  -11.6912   20.8780 C   0  0  0  0  0  0
  -23.9056  -10.4294   21.0440 C   0  0  0  0  0  0
  -24.3604   -9.4211   21.9208 C   0  0  0  0  0  0
  -23.6285   -8.2235   22.0750 C   0  0  0  0  0  0
  -22.4259   -8.0284   21.3542 C   0  0  0  0  0  0
  -21.9919   -9.0261   20.4640 C   0  0  0  0  0  0
  -22.7242  -10.2155   20.3078 C   0  0  0  0  0  0
  -21.6841   -6.0740   22.5282 C   0  0  0  0  0  0
  -21.3986   -6.5633   23.8218 C   0  0  0  0  0  0
  -21.3665   -5.6783   24.9179 C   0  0  0  0  0  0
  -21.6042   -4.3041   24.7215 C   0  0  0  0  0  0
  -21.8826   -3.8148   23.4334 C   0  0  0  0  0  0
  -21.9182   -4.6973   22.3393 C   0  0  0  0  0  0
  -22.7859  -13.5250   21.1875 C   0  0  0  0  0  0
  -22.1656   -4.2161   21.0973 F   0  0  0  0  0  0
  -21.5642   -3.4524   25.7733 F   0  0  0  0  0  0
  -30.0085  -13.4124   20.4179 N   0  0  0  0  0  0
  -26.2991  -12.9320   20.3335 N   0  0  0  0  0  0
  -25.9314  -11.6500   20.5778 N   0  0  0  0  0  0
  -22.0471  -12.8262   22.0430 N   0  0  0  0  0  0
  -25.4303  -15.1872   20.4054 N   0  0  0  0  0  0
  -31.7148  -14.8815   20.0937 O   0  0  0  0  0  0
  -21.6615   -6.8885   21.4250 O   0  0  0  0  0  0
  -22.3584  -14.5565   20.6726 O   0  0  0  0  0  0
  -24.6277  -31.8602   23.1992 C   0  0  0  0  0  0
  -25.9128  -32.4764   23.8329 C   0  0  1  0  0  0
  -27.2345  -27.3101   20.1168 C   0  0  0  0  0  0
  -25.5952  -33.8563   24.2264 N   0  0  0  0  0  0
  -23.4247  -30.4739   21.5449 C   0  0  2  0  0  0
  -24.8707  -28.9194   20.1160 C   0  0  0  0  0  0
  -22.7483  -29.4562   22.4941 C   0  0  0  0  0  0
  -18.0277  -28.1317   22.8458 C   0  0  0  0  0  0
  -24.1486  -36.7270   23.2648 C   0  0  0  0  0  0
  -25.9597  -30.7832   21.3710 C   0  0  0  0  0  0
  -26.0386  -29.4080   20.7160 C   0  0  0  0  0  0
  -27.2260  -28.6172   20.6983 C   0  0  0  0  0  0
  -26.0417  -26.8602   19.5163 C   0  0  0  0  0  0
  -24.8736  -27.6500   19.5083 C   0  0  0  0  0  0
  -23.6421  -29.8067   20.1606 C   0  0  0  0  0  0
  -25.4113  -36.3050   24.0311 C   0  0  1  0  0  0
  -20.5875  -28.3632   23.1265 C   0  0  2  0  0  0
  -20.6768  -26.9350   22.5399 C   0  0  0  0  0  0
  -19.5760  -26.6340   21.5165 C   0  0  0  0  0  0
  -18.1921  -26.7855   22.1574 C   0  0  0  0  0  0
  -19.1527  -28.8798   23.2852 C   0  0  0  0  0  0
  -18.9481  -30.1406   23.8862 C   0  0  0  0  0  0
  -17.6494  -30.6563   24.0507 C   0  0  0  0  0  0
  -25.9065  -34.9441   23.5079 C   0  0  0  0  0  0
  -16.5368  -29.9036   23.6313 C   0  0  0  0  0  0
  -16.7277  -28.6445   23.0336 C   0  0  0  0  0  0
  -26.4516  -31.6577   25.0724 C   0  0  0  0  0  0
  -25.3752  -31.3708   26.1453 C   0  0  0  0  0  0
  -27.0358  -30.3017   24.6126 C   0  0  0  0  0  0
  -27.6083  -32.4313   25.7491 C   0  0  0  0  0  0
  -27.5558  -37.1780   24.8452 C   0  0  0  0  0  0
  -21.4204  -29.2985   22.3663 N   0  0  0  0  0  0
  -26.4276  -37.3757   23.9398 N   0  0  0  0  0  0
  -24.6884  -31.0568   22.0962 N   0  0  0  0  0  0
  -23.4197  -28.8085   23.3030 O   0  0  0  0  0  0
  -28.3786  -26.5056   20.0761 O   0  0  0  0  0  0
  -26.5640  -34.8911   22.4649 O   0  0  0  0  0  0
  -23.5447  -32.1416   23.7307 O   0  0  0  0  0  0
  -29.8617  -19.3895   19.6629 C   0  0  0  0  0  0
  -30.0857  -17.9647   19.6845 C   0  0  0  0  0  0
  -28.5958  -19.2094   21.6741 C   0  0  0  0  0  0
  -28.8419  -17.8058   21.7291 C   0  0  0  0  0  0
  -29.1190  -20.0793   20.6739 C   0  0  0  0  0  0
  -29.6018  -17.1329   20.7364 C   0  0  0  0  0  0
  -28.2776  -17.0168   22.9012 C   0  0  0  0  0  0
  -28.7168  -22.0980   22.0850 C   0  0  0  0  0  0
  -28.3229  -23.8555   19.5773 C   0  0  0  0  0  0
  -29.2863  -22.5767   19.7707 C   0  0  0  0  0  0
  -28.3414  -25.1067   20.5726 C   0  0  0  0  0  0
  -29.6646  -15.6617   20.8040 N   0  0  0  0  0  0
  -28.8733  -21.5171   20.7477 N   0  0  0  0  0  0
  -31.4820  -12.5575   19.1239 H   0  0  0  0  0  0
  -30.4105  -11.4043   19.8714 H   0  0  0  0  0  0
  -29.7566  -11.7308   17.4804 H   0  0  0  0  0  0
  -29.6456  -13.4556   17.7128 H   0  0  0  0  0  0
  -27.8476  -11.2925   18.8496 H   0  0  0  0  0  0
  -27.3698  -12.5893   17.7893 H   0  0  0  0  0  0
  -27.6712  -14.2444   19.5333 H   0  0  0  0  0  0
  -28.7293  -11.9876   21.3073 H   0  0  0  0  0  0
  -28.4533  -13.6100   21.8703 H   0  0  0  0  0  0
  -25.2735   -9.5686   22.4794 H   0  0  0  0  0  0
  -23.9980   -7.4626   22.7487 H   0  0  0  0  0  0
  -21.0836   -8.8806   19.8943 H   0  0  0  0  0  0
  -22.3694  -10.9710   19.6190 H   0  0  0  0  0  0
  -21.1957   -7.6136   23.9731 H   0  0  0  0  0  0
  -21.1481   -6.0498   25.9088 H   0  0  0  0  0  0
  -22.0597   -2.7613   23.2822 H   0  0  0  0  0  0
  -22.4021  -11.9867   22.4767 H   0  0  0  0  0  0
  -21.1118  -13.1353   22.2637 H   0  0  0  0  0  0
  -24.6602  -15.8401   20.5047 H   0  0  0  0  0  0
  -26.2596  -15.6226   20.0216 H   0  0  0  0  0  0
  -26.7200  -32.5453   23.1079 H   0  0  0  0  0  0
  -25.0025  -33.9655   25.0346 H   0  0  0  0  0  0
  -22.7194  -31.2942   21.4018 H   0  0  0  0  0  0
  -23.3741  -35.9613   23.3280 H   0  0  0  0  0  0
  -24.3579  -36.8928   22.2074 H   0  0  0  0  0  0
  -23.7202  -37.6431   23.6720 H   0  0  0  0  0  0
  -26.0855  -31.5489   20.6037 H   0  0  0  0  0  0
  -26.8394  -30.8380   21.9998 H   0  0  0  0  0  0
  -28.1334  -28.9921   21.1542 H   0  0  0  0  0  0
  -26.0113  -25.8878   19.0446 H   0  0  0  0  0  0
  -23.9787  -27.2685   19.0339 H   0  0  0  0  0  0
  -23.7597  -30.5870   19.4049 H   0  0  0  0  0  0
  -22.7603  -29.2362   19.8589 H   0  0  0  0  0  0
  -25.1263  -36.1908   25.0794 H   0  0  0  0  0  0
  -20.9943  -28.3238   24.1400 H   0  0  0  0  0  0
  -20.5596  -26.2257   23.3607 H   0  0  0  0  0  0
  -21.6653  -26.7348   22.1228 H   0  0  0  0  0  0
  -19.6909  -25.6237   21.1207 H   0  0  0  0  0  0
  -19.6699  -27.3163   20.6696 H   0  0  0  0  0  0
  -17.4177  -26.6597   21.3980 H   0  0  0  0  0  0
  -18.0320  -26.0006   22.8990 H   0  0  0  0  0  0
  -19.7999  -30.7163   24.2263 H   0  0  0  0  0  0
  -17.5076  -31.6247   24.5102 H   0  0  0  0  0  0
  -15.5363  -30.2911   23.7694 H   0  0  0  0  0  0
  -15.8669  -28.0751   22.7065 H   0  0  0  0  0  0
  -24.5926  -30.7041   25.7769 H   0  0  0  0  0  0
  -24.8957  -32.2888   26.4905 H   0  0  0  0  0  0
  -25.8107  -30.8876   27.0214 H   0  0  0  0  0  0
  -26.2899  -29.6751   24.1225 H   0  0  0  0  0  0
  -27.4116  -29.7285   25.4599 H   0  0  0  0  0  0
  -27.8754  -30.4258   23.9276 H   0  0  0  0  0  0
  -27.2700  -33.3662   26.1969 H   0  0  0  0  0  0
  -28.3978  -32.6778   25.0373 H   0  0  0  0  0  0
  -28.0637  -31.8479   26.5490 H   0  0  0  0  0  0
  -28.2548  -38.0116   24.7535 H   0  0  0  0  0  0
  -28.1080  -36.2623   24.6252 H   0  0  0  0  0  0
  -27.2284  -37.1381   25.8866 H   0  0  0  0  0  0
  -20.9387  -29.8786   21.6929 H   0  0  0  0  0  0
  -26.0147  -38.2799   24.1503 H   0  0  0  0  0  0
  -30.2714  -19.9440   18.8322 H   0  0  0  0  0  0
  -30.6119  -17.5051   18.8599 H   0  0  0  0  0  0
  -27.9610  -19.6111   22.4473 H   0  0  0  0  0  0
  -29.0987  -16.6601   23.5265 H   0  0  0  0  0  0
  -27.7121  -16.1498   22.5547 H   0  0  0  0  0  0
  -27.6187  -17.6172   23.5310 H   0  0  0  0  0  0
  -28.7528  -21.3974   22.9142 H   0  0  0  0  0  0
  -27.7782  -22.6501   22.1465 H   0  0  0  0  0  0
  -29.5217  -22.8085   22.2803 H   0  0  0  0  0  0
  -27.2983  -23.4970   19.4843 H   0  0  0  0  0  0
  -28.5535  -24.2664   18.5954 H   0  0  0  0  0  0
  -30.2730  -22.9408   20.0621 H   0  0  0  0  0  0
  -29.4403  -22.1147   18.7929 H   0  0  0  0  0  0
  -29.2383  -25.0076   21.1826 H   0  0  0  0  0  0
  -27.5170  -25.0004   21.2801 H   0  0  0  0  0  0
  -28.8211  -15.2503   21.1758 H   0  0  0  0  0  0
  1 25  1  0  0  0
  1 30  2  0  0  0
  1 82  1  0  0  0
  2  3  1  0  0  0
  2 25  1  0  0  0
  2 84  1  0  0  0
  2 85  1  0  0  0
  3  4  1  0  0  0
  3 86  1  0  0  0
  3 87  1  0  0  0
  4  5  1  0  0  0
  4 88  1  0  0  0
  4 89  1  0  0  0
  5  6  1  0  0  0
  5 26  1  0  0  0
  5 90  1  0  0  0
  6 25  1  0  0  0
  6 91  1  0  0  0
  6 92  1  0  0  0
  7  8  2  0  0  0
  7 26  1  0  0  0
  7 29  1  0  0  0
  8  9  1  0  0  0
  8 22  1  0  0  0
  9 10  1  0  0  0
  9 27  2  0  0  0
 10 11  2  0  0  0
 10 15  1  0  0  0
 11 12  1  0  0  0
 11 93  1  0  0  0
 12 13  2  0  0  0
 12 94  1  0  0  0
 13 14  1  0  0  0
 13 31  1  0  0  0
 14 15  2  0  0  0
 14 95  1  0  0  0
 15 96  1  0  0  0
 16 17  2  0  0  0
 16 21  1  0  0  0
 16 31  1  0  0  0
 17 18  1  0  0  0
 17 97  1  0  0  0
 18 19  2  0  0  0
 18 98  1  0  0  0
 19 20  1  0  0  0
 19 24  1  0  0  0
 20 21  2  0  0  0
 20 99  1  0  0  0
 21 23  1  0  0  0
 22 28  1  0  0  0
 22 32  2  0  0  0
 26 27  1  0  0  0
 28100  1  0  0  0
 28101  1  0  0  0
 29102  1  0  0  0
 29103  1  0  0  0
 33 34  1  0  0  0
 33 66  1  0  0  0
 33 70  2  0  0  0
 34 36  1  0  0  0
 34 59  1  0  0  0
 34104  1  0  0  0
 35 44  2  0  0  0
 35 45  1  0  0  0
 35 68  1  0  0  0
 36 56  1  0  0  0
 36105  1  0  0  0
 37 39  1  0  0  0
 37 47  1  0  0  0
 37 66  1  0  0  0
 37106  1  0  0  0
 38 43  2  0  0  0
 38 46  1  0  0  0
 38 47  1  0  0  0
 39 64  1  0  0  0
 39 67  2  0  0  0
 40 52  1  0  0  0
 40 53  2  0  0  0
 40 58  1  0  0  0
 41107  1  0  0  0
 41108  1  0  0  0
 41109  1  0  0  0
 41 48  1  0  0  0
 42 43  1  0  0  0
 42 66  1  0  0  0
 42110  1  0  0  0
 42111  1  0  0  0
 43 44  1  0  0  0
 44112  1  0  0  0
 45 46  2  0  0  0
 45113  1  0  0  0
 46114  1  0  0  0
 47115  1  0  0  0
 47116  1  0  0  0
 48 56  1  0  0  0
 48 65  1  0  0  0
 48117  1  0  0  0
 49 50  1  0  0  0
 49 53  1  0  0  0
 49 64  1  0  0  0
 49118  1  0  0  0
 50 51  1  0  0  0
 50119  1  0  0  0
 50120  1  0  0  0
 51 52  1  0  0  0
 51121  1  0  0  0
 51122  1  0  0  0
 52123  1  0  0  0
 52124  1  0  0  0
 53 54  1  0  0  0
 54 55  2  0  0  0
 54125  1  0  0  0
 55 57  1  0  0  0
 55126  1  0  0  0
 56 69  2  0  0  0
 57 58  2  0  0  0
 57127  1  0  0  0
 58128  1  0  0  0
 59 60  1  0  0  0
 59 61  1  0  0  0
 59 62  1  0  0  0
 60129  1  0  0  0
 60130  1  0  0  0
 60131  1  0  0  0
 61132  1  0  0  0
 61133  1  0  0  0
 61134  1  0  0  0
 62135  1  0  0  0
 62136  1  0  0  0
 62137  1  0  0  0
 63 65  1  0  0  0
 63138  1  0  0  0
 63139  1  0  0  0
 63140  1  0  0  0
 64141  1  0  0  0
 65142  1  0  0  0
 68 81  1  0  0  0
 71 72  2  0  0  0
 71 75  1  0  0  0
 71143  1  0  0  0
 72 76  1  0  0  0
 72144  1  0  0  0
 73 74  1  0  0  0
 73 75  2  0  0  0
 73145  1  0  0  0
 74 76  2  0  0  0
 74 77  1  0  0  0
 75 83  1  0  0  0
 76 82  1  0  0  0
 77146  1  0  0  0
 77147  1  0  0  0
 77148  1  0  0  0
 78 83  1  0  0  0
 78149  1  0  0  0
 78150  1  0  0  0
 78151  1  0  0  0
 79 80  1  0  0  0
 79 81  1  0  0  0
 79152  1  0  0  0
 79153  1  0  0  0
 80 83  1  0  0  0
 80154  1  0  0  0
 80155  1  0  0  0
 81156  1  0  0  0
 81157  1  0  0  0
 82158  1  0  0  0
M  ISO  4   1 100  68 101  81 101  82 100
M  END
> <chiral flag>
0

> <version>
0

> <s_m_source_file>
/data/baiqing/PycharmProjects/Reinvent-master-3.2/result/LINK_invent/BTK/process_docking_weight1_custom_product_contain_oxygen_bond_distance_aromatic_linkinvent_7_9_3/rearranged_h_0014.sdf

> <i_m_source_file_index>
14

> <r_mmod_Potential_Energy-OPLS-2005>
116.56453704834

> <r_mmod_Stretch_Energy-OPLS-2005>
92.8967971801758

> <r_mmod_Bend_Energy-OPLS-2005>
190.764923095703

> <r_mmod_Torsional_Energy-OPLS-2005>
247.660934448242

> <r_mmod_Improper_Torsional_Energy-OPLS-2005>
6.44188261032104

> <r_mmod_Van_der_Waal_Energy-OPLS-2005>
143.751998901367

> <r_mmod_Electrostatic_Energy-OPLS-2005>
-395.209808349609

> <r_mmod_Solvation_Energy-OPLS-2005>
-224.020843505859

> <b_mmod_Minimization_Converged-OPLS-2005>
0

> <r_mmod_RMS_Derivative-OPLS-2005>
5.40813636779785

$$$$
14
                    3D
 Structure written by MMmdl.
156164  0  0  1  0            999 V2000
  -30.6432  -14.6169   20.4850 C   0  0  0  0  0  0
  -30.4398  -12.3798   19.4302 C   0  0  0  0  0  0
  -29.4946  -12.4912   18.2139 C   0  0  0  0  0  0
  -28.0223  -12.3355   18.6407 C   0  0  0  0  0  0
  -27.6525  -13.2150   19.8644 C   0  0  2  0  0  0
  -28.7070  -13.0676   20.9867 C   0  0  0  0  0  0
  -25.2552  -13.8182   20.5755 C   0  0  0  0  0  0
  -24.1821  -13.0455   20.9255 C   0  0  0  0  0  0
  -24.6400  -11.6923   20.8801 C   0  0  0  0  0  0
  -23.9078  -10.4310   21.0443 C   0  0  0  0  0  0
  -24.3616   -9.4207   21.9217 C   0  0  0  0  0  0
  -23.6285   -8.2246   22.0756 C   0  0  0  0  0  0
  -22.4259   -8.0292   21.3553 C   0  0  0  0  0  0
  -21.9921   -9.0279   20.4646 C   0  0  0  0  0  0
  -22.7261  -10.2154   20.3074 C   0  0  0  0  0  0
  -21.6838   -6.0732   22.5284 C   0  0  0  0  0  0
  -21.4003   -6.5633   23.8218 C   0  0  0  0  0  0
  -21.3664   -5.6787   24.9191 C   0  0  0  0  0  0
  -21.6055   -4.3056   24.7245 C   0  0  0  0  0  0
  -21.8815   -3.8141   23.4370 C   0  0  0  0  0  0
  -21.9187   -4.6961   22.3413 C   0  0  0  0  0  0
  -22.7836  -13.5230   21.1918 C   0  0  0  0  0  0
  -22.1641   -4.2137   21.0996 F   0  0  0  0  0  0
  -21.5653   -3.4542   25.7763 F   0  0  0  0  0  0
  -30.0259  -13.3965   20.4155 N   0  0  0  0  0  0
  -26.2992  -12.9371   20.3386 N   0  0  0  0  0  0
  -25.9327  -11.6519   20.5813 N   0  0  0  0  0  0
  -22.0458  -12.8205   22.0435 N   0  0  0  0  0  0
  -25.4271  -15.1907   20.4177 N   0  0  0  0  0  0
  -31.8074  -14.7847   20.1132 O   0  0  0  0  0  0
  -21.6625   -6.8887   21.4240 O   0  0  0  0  0  0
  -22.3513  -14.5563   20.6793 O   0  0  0  0  0  0
  -24.6254  -31.8597   23.2078 C   0  0  0  0  0  0
  -25.9121  -32.4790   23.8373 C   0  0  1  0  0  0
  -27.2239  -27.3342   20.1027 C   0  0  0  0  0  0
  -25.5927  -33.8572   24.2297 N   0  0  0  0  0  0
  -23.4175  -30.4879   21.5493 C   0  0  2  0  0  0
  -24.8628  -28.9532   20.1109 C   0  0  0  0  0  0
  -22.7481  -29.4592   22.4908 C   0  0  0  0  0  0
  -18.0232  -28.1379   22.8424 C   0  0  0  0  0  0
  -24.1498  -36.7299   23.2638 C   0  0  0  0  0  0
  -25.9583  -30.8018   21.3713 C   0  0  0  0  0  0
  -26.0359  -29.4274   20.7150 C   0  0  0  0  0  0
  -27.2174  -28.6304   20.7041 C   0  0  0  0  0  0
  -26.0246  -26.9112   19.4832 C   0  0  0  0  0  0
  -24.8603  -27.6988   19.4883 C   0  0  0  0  0  0
  -23.6339  -29.8351   20.1591 C   0  0  0  0  0  0
  -25.4108  -36.3067   24.0329 C   0  0  1  0  0  0
  -20.5850  -28.3664   23.1272 C   0  0  2  0  0  0
  -20.6768  -26.9400   22.5391 C   0  0  0  0  0  0
  -19.5764  -26.6365   21.5173 C   0  0  0  0  0  0
  -18.1910  -26.7904   22.1556 C   0  0  0  0  0  0
  -19.1498  -28.8828   23.2842 C   0  0  0  0  0  0
  -18.9441  -30.1414   23.8879 C   0  0  0  0  0  0
  -17.6470  -30.6594   24.0530 C   0  0  0  0  0  0
  -25.9056  -34.9442   23.5108 C   0  0  0  0  0  0
  -16.5350  -29.9109   23.6326 C   0  0  0  0  0  0
  -16.7221  -28.6538   23.0300 C   0  0  0  0  0  0
  -26.4498  -31.6573   25.0713 C   0  0  0  0  0  0
  -25.3733  -31.3689   26.1438 C   0  0  0  0  0  0
  -27.0288  -30.3001   24.6065 C   0  0  0  0  0  0
  -27.6032  -32.4295   25.7508 C   0  0  0  0  0  0
  -27.5586  -37.1784   24.8455 C   0  0  0  0  0  0
  -21.4183  -29.3032   22.3714 N   0  0  0  0  0  0
  -26.4272  -37.3777   23.9436 N   0  0  0  0  0  0
  -24.6866  -31.0645   22.1004 N   0  0  0  0  0  0
  -23.4230  -28.8005   23.2863 O   0  0  0  0  0  0
  -28.3471  -26.4938   20.1368 O   0  0  0  0  0  0
  -26.5647  -34.8921   22.4691 O   0  0  0  0  0  0
  -23.5414  -32.1326   23.7464 O   0  0  0  0  0  0
  -31.0262  -19.3044   20.4894 C   0  0  0  0  0  0
  -31.0907  -17.8745   20.5203 C   0  0  0  0  0  0
  -28.6291  -19.2233   20.6431 C   0  0  0  0  0  0
  -29.7971  -20.0248   20.5786 C   0  0  0  0  0  0
  -29.9103  -17.0955   20.6381 C   0  0  0  0  0  0
  -28.6866  -17.8061   20.6618 C   0  0  0  0  0  0
  -27.7060  -22.1751   19.4428 C   0  0  0  0  0  0
  -29.7610  -21.5877   20.8002 C   0  0  0  0  0  0
  -29.3352  -24.0290   20.1077 C   0  0  0  0  0  0
  -28.1385  -25.0524   19.8792 C   0  0  0  0  0  0
  -29.8234  -15.6540   20.8078 N   0  0  0  0  0  0
  -29.1101  -22.5388   19.7986 N   0  3  1  0  0  0
  -27.5331  -17.1005   20.7291 F   0  0  0  0  0  0
  -31.4736  -12.5234   19.1072 H   0  0  0  0  0  0
  -30.3974  -11.3822   19.8689 H   0  0  0  0  0  0
  -29.7460  -11.7280   17.4778 H   0  0  0  0  0  0
  -29.6345  -13.4518   17.7121 H   0  0  0  0  0  0
  -27.8688  -11.2832   18.8883 H   0  0  0  0  0  0
  -27.3567  -12.5505   17.8031 H   0  0  0  0  0  0
  -27.6698  -14.2487   19.5198 H   0  0  0  0  0  0
  -28.7155  -12.0507   21.3758 H   0  0  0  0  0  0
  -28.4600  -13.7049   21.8374 H   0  0  0  0  0  0
  -25.2750   -9.5683   22.4811 H   0  0  0  0  0  0
  -24.0002   -7.4620   22.7456 H   0  0  0  0  0  0
  -21.0869   -8.8807   19.8927 H   0  0  0  0  0  0
  -22.3736  -10.9705   19.6189 H   0  0  0  0  0  0
  -21.1958   -7.6130   23.9729 H   0  0  0  0  0  0
  -21.1491   -6.0513   25.9096 H   0  0  0  0  0  0
  -22.0585   -2.7604   23.2877 H   0  0  0  0  0  0
  -22.3991  -11.9793   22.4765 H   0  0  0  0  0  0
  -21.1101  -13.1263   22.2673 H   0  0  0  0  0  0
  -24.6860  -15.8589   20.5976 H   0  0  0  0  0  0
  -26.3052  -15.6472   20.1985 H   0  0  0  0  0  0
  -26.7207  -32.5479   23.1151 H   0  0  0  0  0  0
  -24.9993  -33.9654   25.0388 H   0  0  0  0  0  0
  -22.7104  -31.3088   21.4151 H   0  0  0  0  0  0
  -23.3716  -35.9687   23.3291 H   0  0  0  0  0  0
  -24.3572  -36.8928   22.2047 H   0  0  0  0  0  0
  -23.7303  -37.6516   23.6666 H   0  0  0  0  0  0
  -26.0730  -31.5601   20.5967 H   0  0  0  0  0  0
  -26.8483  -30.8610   21.9857 H   0  0  0  0  0  0
  -28.1170  -28.9933   21.1843 H   0  0  0  0  0  0
  -25.9432  -25.9584   18.9853 H   0  0  0  0  0  0
  -23.9617  -27.3281   19.0147 H   0  0  0  0  0  0
  -23.7757  -30.6236   19.4205 H   0  0  0  0  0  0
  -22.7514  -29.2793   19.8371 H   0  0  0  0  0  0
  -25.1279  -36.1926   25.0821 H   0  0  0  0  0  0
  -20.9886  -28.3247   24.1406 H   0  0  0  0  0  0
  -20.5709  -26.2254   23.3576 H   0  0  0  0  0  0
  -21.6637  -26.7479   22.1169 H   0  0  0  0  0  0
  -19.6999  -25.6273   21.1205 H   0  0  0  0  0  0
  -19.6746  -27.3192   20.6741 H   0  0  0  0  0  0
  -17.4192  -26.6555   21.3973 H   0  0  0  0  0  0
  -18.0345  -26.0083   22.9002 H   0  0  0  0  0  0
  -19.7958  -30.7153   24.2289 H   0  0  0  0  0  0
  -17.5079  -31.6295   24.5102 H   0  0  0  0  0  0
  -15.5375  -30.3029   23.7707 H   0  0  0  0  0  0
  -15.8582  -28.0912   22.7014 H   0  0  0  0  0  0
  -24.5964  -30.6971   25.7783 H   0  0  0  0  0  0
  -24.8839  -32.2830   26.4778 H   0  0  0  0  0  0
  -25.8047  -30.8939   27.0262 H   0  0  0  0  0  0
  -26.2771  -29.6789   24.1180 H   0  0  0  0  0  0
  -27.4096  -29.7229   25.4503 H   0  0  0  0  0  0
  -27.8634  -30.4267   23.9171 H   0  0  0  0  0  0
  -27.2628  -33.3645   26.1974 H   0  0  0  0  0  0
  -28.3915  -32.6762   25.0384 H   0  0  0  0  0  0
  -28.0622  -31.8486   26.5508 H   0  0  0  0  0  0
  -28.2516  -38.0159   24.7521 H   0  0  0  0  0  0
  -28.1144  -36.2656   24.6233 H   0  0  0  0  0  0
  -27.2285  -37.1378   25.8852 H   0  0  0  0  0  0
  -20.9368  -29.8815   21.6970 H   0  0  0  0  0  0
  -26.0134  -38.2828   24.1515 H   0  0  0  0  0  0
  -31.9539  -19.8561   20.4574 H   0  0  0  0  0  0
  -32.0548  -17.3860   20.4961 H   0  0  0  0  0  0
  -27.6601  -19.6892   20.7262 H   0  0  0  0  0  0
  -27.0358  -22.2416   20.3040 H   0  0  0  0  0  0
  -27.6450  -21.1630   19.0479 H   0  0  0  0  0  0
  -27.3004  -22.7908   18.6355 H   0  0  0  0  0  0
  -30.7968  -21.9129   20.9236 H   0  0  0  0  0  0
  -29.3042  -21.7541   21.7782 H   0  0  0  0  0  0
  -29.6810  -24.1392   21.1370 H   0  0  0  0  0  0
  -30.1736  -24.3540   19.4865 H   0  0  0  0  0  0
  -27.2946  -24.7195   20.4889 H   0  0  0  0  0  0
  -27.8393  -24.9643   18.8322 H   0  0  0  0  0  0
  -28.8980  -15.3445   21.0678 H   0  0  0  0  0  0
  -29.6235  -22.3762   18.9437 H   0  0  0  0  0  0
  1 25  1  0  0  0
  1 30  2  0  0  0
  1 81  1  0  0  0
  2  3  1  0  0  0
  2 25  1  0  0  0
  2 84  1  0  0  0
  2 85  1  0  0  0
  3  4  1  0  0  0
  3 86  1  0  0  0
  3 87  1  0  0  0
  4  5  1  0  0  0
  4 88  1  0  0  0
  4 89  1  0  0  0
  5  6  1  0  0  0
  5 26  1  0  0  0
  5 90  1  0  0  0
  6 25  1  0  0  0
  6 91  1  0  0  0
  6 92  1  0  0  0
  7  8  2  0  0  0
  7 26  1  0  0  0
  7 29  1  0  0  0
  8  9  1  0  0  0
  8 22  1  0  0  0
  9 10  1  0  0  0
  9 27  2  0  0  0
 10 11  2  0  0  0
 10 15  1  0  0  0
 11 12  1  0  0  0
 11 93  1  0  0  0
 12 13  2  0  0  0
 12 94  1  0  0  0
 13 14  1  0  0  0
 13 31  1  0  0  0
 14 15  2  0  0  0
 14 95  1  0  0  0
 15 96  1  0  0  0
 16 17  2  0  0  0
 16 21  1  0  0  0
 16 31  1  0  0  0
 17 18  1  0  0  0
 17 97  1  0  0  0
 18 19  2  0  0  0
 18 98  1  0  0  0
 19 20  1  0  0  0
 19 24  1  0  0  0
 20 21  2  0  0  0
 20 99  1  0  0  0
 21 23  1  0  0  0
 22 28  1  0  0  0
 22 32  2  0  0  0
 26 27  1  0  0  0
 28100  1  0  0  0
 28101  1  0  0  0
 29102  1  0  0  0
 29103  1  0  0  0
 33 34  1  0  0  0
 33 66  1  0  0  0
 33 70  2  0  0  0
 34 36  1  0  0  0
 34 59  1  0  0  0
 34104  1  0  0  0
 35 44  2  0  0  0
 35 45  1  0  0  0
 35 68  1  0  0  0
 36 56  1  0  0  0
 36105  1  0  0  0
 37 39  1  0  0  0
 37 47  1  0  0  0
 37 66  1  0  0  0
 37106  1  0  0  0
 38 43  2  0  0  0
 38 46  1  0  0  0
 38 47  1  0  0  0
 39 64  1  0  0  0
 39 67  2  0  0  0
 40 52  1  0  0  0
 40 53  2  0  0  0
 40 58  1  0  0  0
 41107  1  0  0  0
 41108  1  0  0  0
 41109  1  0  0  0
 41 48  1  0  0  0
 42 43  1  0  0  0
 42 66  1  0  0  0
 42110  1  0  0  0
 42111  1  0  0  0
 43 44  1  0  0  0
 44112  1  0  0  0
 45 46  2  0  0  0
 45113  1  0  0  0
 46114  1  0  0  0
 47115  1  0  0  0
 47116  1  0  0  0
 48 56  1  0  0  0
 48 65  1  0  0  0
 48117  1  0  0  0
 49 50  1  0  0  0
 49 53  1  0  0  0
 49 64  1  0  0  0
 49118  1  0  0  0
 50 51  1  0  0  0
 50119  1  0  0  0
 50120  1  0  0  0
 51 52  1  0  0  0
 51121  1  0  0  0
 51122  1  0  0  0
 52123  1  0  0  0
 52124  1  0  0  0
 53 54  1  0  0  0
 54 55  2  0  0  0
 54125  1  0  0  0
 55 57  1  0  0  0
 55126  1  0  0  0
 56 69  2  0  0  0
 57 58  2  0  0  0
 57127  1  0  0  0
 58128  1  0  0  0
 59 60  1  0  0  0
 59 61  1  0  0  0
 59 62  1  0  0  0
 60129  1  0  0  0
 60130  1  0  0  0
 60131  1  0  0  0
 61132  1  0  0  0
 61133  1  0  0  0
 61134  1  0  0  0
 62135  1  0  0  0
 62136  1  0  0  0
 62137  1  0  0  0
 63 65  1  0  0  0
 63138  1  0  0  0
 63139  1  0  0  0
 63140  1  0  0  0
 64141  1  0  0  0
 65142  1  0  0  0
 68 80  1  0  0  0
 71 72  2  0  0  0
 71 74  1  0  0  0
 71143  1  0  0  0
 72 75  1  0  0  0
 72144  1  0  0  0
 73 74  2  0  0  0
 73 76  1  0  0  0
 73145  1  0  0  0
 74 78  1  0  0  0
 75 76  2  0  0  0
 75 81  1  0  0  0
 76 83  1  0  0  0
 77146  1  0  0  0
 77147  1  0  0  0
 77148  1  0  0  0
 77 82  1  0  0  0
 78 82  1  0  0  0
 78149  1  0  0  0
 78150  1  0  0  0
 79 80  1  0  0  0
 79 82  1  0  0  0
 79151  1  0  0  0
 79152  1  0  0  0
 80153  1  0  0  0
 80154  1  0  0  0
 81155  1  0  0  0
 82156  1  0  0  0
M  CHG  1  82   1
M  ISO  4   1 100  68 101  80 101  81 100
M  END
> <chiral flag>
0

> <version>
0

> <s_m_source_file>
/data/baiqing/PycharmProjects/Reinvent-master-3.2/result/LINK_invent/BTK/process_docking_weight1_custom_product_contain_oxygen_bond_distance_aromatic_linkinvent_7_9_3/rearranged_h_0014.sdf

> <i_m_source_file_index>
15

> <r_mmod_Potential_Energy-OPLS-2005>
-78.2039031982422

> <r_mmod_Stretch_Energy-OPLS-2005>
77.7842254638672

> <r_mmod_Bend_Energy-OPLS-2005>
148.004547119141

> <r_mmod_Torsional_Energy-OPLS-2005>
218.020614624023

> <r_mmod_Improper_Torsional_Energy-OPLS-2005>
5.68322610855103

> <r_mmod_Van_der_Waal_Energy-OPLS-2005>
152.313369750977

> <r_mmod_Electrostatic_Energy-OPLS-2005>
-279.912200927734

> <r_mmod_Solvation_Energy-OPLS-2005>
-442.414611816406

> <b_mmod_Minimization_Converged-OPLS-2005>
0

> <r_mmod_RMS_Derivative-OPLS-2005>
5.67423391342163

$$$$
15
                    3D
 Structure written by MMmdl.
159167  0  0  1  0            999 V2000
  -30.6556  -14.4952   20.5859 C   0  0  0  0  0  0
  -30.4366  -12.3229   19.4144 C   0  0  0  0  0  0
  -29.5007  -12.5079   18.1990 C   0  0  0  0  0  0
  -28.0224  -12.3498   18.6109 C   0  0  0  0  0  0
  -27.6627  -13.1910   19.8669 C   0  0  2  0  0  0
  -28.7023  -12.9538   20.9856 C   0  0  0  0  0  0
  -25.2604  -13.8125   20.5634 C   0  0  0  0  0  0
  -24.1847  -13.0399   20.9144 C   0  0  0  0  0  0
  -24.6385  -11.6879   20.8688 C   0  0  0  0  0  0
  -23.9048  -10.4271   21.0387 C   0  0  0  0  0  0
  -24.3613   -9.4193   21.9165 C   0  0  0  0  0  0
  -23.6283   -8.2241   22.0746 C   0  0  0  0  0  0
  -22.4263   -8.0275   21.3541 C   0  0  0  0  0  0
  -21.9900   -9.0245   20.4644 C   0  0  0  0  0  0
  -22.7222  -10.2118   20.3037 C   0  0  0  0  0  0
  -21.6843   -6.0732   22.5279 C   0  0  0  0  0  0
  -21.4006   -6.5635   23.8208 C   0  0  0  0  0  0
  -21.3669   -5.6779   24.9174 C   0  0  0  0  0  0
  -21.6048   -4.3047   24.7207 C   0  0  0  0  0  0
  -21.8823   -3.8143   23.4331 C   0  0  0  0  0  0
  -21.9196   -4.6969   22.3388 C   0  0  0  0  0  0
  -22.7883  -13.5238   21.1810 C   0  0  0  0  0  0
  -22.1658   -4.2163   21.0962 F   0  0  0  0  0  0
  -21.5640   -3.4519   25.7721 F   0  0  0  0  0  0
  -30.0336  -13.2893   20.4513 N   0  0  0  0  0  0
  -26.3016  -12.9260   20.3299 N   0  0  0  0  0  0
  -25.9297  -11.6419   20.5673 N   0  0  0  0  0  0
  -22.0527  -12.8233   22.0391 N   0  0  0  0  0  0
  -25.4247  -15.1840   20.4100 N   0  0  0  0  0  0
  -31.7493  -14.7482   20.0695 O   0  0  0  0  0  0
  -21.6617   -6.8882   21.4243 O   0  0  0  0  0  0
  -22.3577  -14.5545   20.6676 O   0  0  0  0  0  0
  -24.6203  -31.8661   23.2001 C   0  0  0  0  0  0
  -25.9054  -32.4805   23.8334 C   0  0  1  0  0  0
  -27.2315  -27.4237   20.0916 C   0  0  0  0  0  0
  -25.5877  -33.8590   24.2273 N   0  0  0  0  0  0
  -23.4033  -30.4937   21.5438 C   0  0  2  0  0  0
  -24.8501  -28.9454   20.1151 C   0  0  0  0  0  0
  -22.7401  -29.4767   22.5022 C   0  0  0  0  0  0
  -18.0302  -28.1430   22.8506 C   0  0  0  0  0  0
  -24.1499  -36.7327   23.2648 C   0  0  0  0  0  0
  -25.9311  -30.8287   21.3458 C   0  0  0  0  0  0
  -26.0121  -29.4585   20.7060 C   0  0  0  0  0  0
  -27.2097  -28.7032   20.6978 C   0  0  0  0  0  0
  -26.0578  -26.9271   19.4889 C   0  0  0  0  0  0
  -24.8682  -27.6778   19.5079 C   0  0  0  0  0  0
  -23.6050  -29.8047   20.1681 C   0  0  0  0  0  0
  -25.4114  -36.3127   24.0358 C   0  0  1  0  0  0
  -20.5884  -28.3746   23.1277 C   0  0  2  0  0  0
  -20.6891  -26.9524   22.5244 C   0  0  0  0  0  0
  -19.5746  -26.6403   21.5182 C   0  0  0  0  0  0
  -18.1933  -26.7975   22.1616 C   0  0  0  0  0  0
  -19.1553  -28.8898   23.2909 C   0  0  0  0  0  0
  -18.9518  -30.1507   23.8938 C   0  0  0  0  0  0
  -17.6534  -30.6680   24.0532 C   0  0  0  0  0  0
  -25.9030  -34.9481   23.5120 C   0  0  0  0  0  0
  -16.5420  -29.9179   23.6315 C   0  0  0  0  0  0
  -16.7312  -28.6560   23.0394 C   0  0  0  0  0  0
  -26.4420  -31.6598   25.0688 C   0  0  0  0  0  0
  -25.3637  -31.3720   26.1411 C   0  0  0  0  0  0
  -27.0252  -30.3077   24.5996 C   0  0  0  0  0  0
  -27.6024  -32.4298   25.7428 C   0  0  0  0  0  0
  -27.5587  -37.1820   24.8475 C   0  0  0  0  0  0
  -21.4126  -29.3226   22.3802 N   0  0  0  0  0  0
  -26.4309  -37.3812   23.9411 N   0  0  0  0  0  0
  -24.6723  -31.0756   22.0897 N   0  0  0  0  0  0
  -23.4163  -28.8288   23.3070 O   0  0  0  0  0  0
  -28.3468  -26.6171   20.1247 O   0  0  0  0  0  0
  -26.5627  -34.8940   22.4695 O   0  0  0  0  0  0
  -23.5403  -32.1461   23.7366 O   0  0  0  0  0  0
  -28.4721  -18.4510   19.6556 C   0  0  0  0  0  0
  -28.8768  -17.1147   19.8740 C   0  0  0  0  0  0
  -30.2377  -17.8344   21.7499 C   0  0  0  0  0  0
  -28.9330  -19.4976   20.4884 C   0  0  0  0  0  0
  -29.7424  -16.7838   20.9412 C   0  0  0  0  0  0
  -29.8564  -19.1768   21.5112 C   0  0  0  0  0  0
  -27.1897  -20.9682   22.4519 C   0  0  0  0  0  0
  -28.4219  -20.9395   20.2771 C   0  0  0  0  0  0
  -28.5444  -24.1286   20.6593 C   0  0  0  0  0  0
  -27.5893  -23.0961   21.3304 C   0  0  0  0  0  0
  -28.2311  -25.5820   21.1215 C   0  0  0  0  0  0
  -29.9595  -15.4130   21.2894 N   0  0  0  0  0  0
  -28.0971  -21.6982   21.5254 N   0  3  1  0  0  0
  -30.3304  -20.1649   22.3076 F   0  0  0  0  0  0
  -31.4786  -12.4532   19.1138 H   0  0  0  0  0  0
  -30.3631  -11.3037   19.8002 H   0  0  0  0  0  0
  -29.7510  -11.7828   17.4230 H   0  0  0  0  0  0
  -29.6553  -13.4930   17.7576 H   0  0  0  0  0  0
  -27.8524  -11.2908   18.8109 H   0  0  0  0  0  0
  -27.3679  -12.6091   17.7774 H   0  0  0  0  0  0
  -27.7049  -14.2376   19.5685 H   0  0  0  0  0  0
  -28.6905  -11.9059   21.2872 H   0  0  0  0  0  0
  -28.4439  -13.5101   21.8862 H   0  0  0  0  0  0
  -25.2777   -9.5659   22.4712 H   0  0  0  0  0  0
  -24.0000   -7.4629   22.7463 H   0  0  0  0  0  0
  -21.0835   -8.8751   19.8948 H   0  0  0  0  0  0
  -22.3694  -10.9649   19.6125 H   0  0  0  0  0  0
  -21.1968   -7.6134   23.9716 H   0  0  0  0  0  0
  -21.1500   -6.0499   25.9078 H   0  0  0  0  0  0
  -22.0597   -2.7611   23.2802 H   0  0  0  0  0  0
  -22.4135  -11.9912   22.4810 H   0  0  0  0  0  0
  -21.1124  -13.1260   22.2559 H   0  0  0  0  0  0
  -24.6422  -15.8159   20.5301 H   0  0  0  0  0  0
  -26.2721  -15.6576   20.1307 H   0  0  0  0  0  0
  -26.7125  -32.5566   23.1111 H   0  0  0  0  0  0
  -24.9980  -33.9719   25.0384 H   0  0  0  0  0  0
  -22.6977  -31.3129   21.3946 H   0  0  0  0  0  0
  -23.3748  -35.9673   23.3327 H   0  0  0  0  0  0
  -24.3609  -36.8910   22.2062 H   0  0  0  0  0  0
  -23.7227  -37.6537   23.6622 H   0  0  0  0  0  0
  -26.0198  -31.5718   20.5544 H   0  0  0  0  0  0
  -26.8262  -30.9052   21.9485 H   0  0  0  0  0  0
  -28.1007  -29.0897   21.1736 H   0  0  0  0  0  0
  -26.0628  -25.9485   19.0281 H   0  0  0  0  0  0
  -23.9753  -27.2683   19.0580 H   0  0  0  0  0  0
  -23.6952  -30.5603   19.3892 H   0  0  0  0  0  0
  -22.7287  -29.2128   19.8959 H   0  0  0  0  0  0
  -25.1271  -36.2016   25.0858 H   0  0  0  0  0  0
  -20.9955  -28.3229   24.1389 H   0  0  0  0  0  0
  -20.6035  -26.2302   23.3349 H   0  0  0  0  0  0
  -21.6752  -26.7738   22.0930 H   0  0  0  0  0  0
  -19.6857  -25.6300   21.1280 H   0  0  0  0  0  0
  -19.6579  -27.3091   20.6632 H   0  0  0  0  0  0
  -17.4295  -26.6837   21.3908 H   0  0  0  0  0  0
  -18.0164  -26.0041   22.8888 H   0  0  0  0  0  0
  -19.8023  -30.7304   24.2324 H   0  0  0  0  0  0
  -17.5170  -31.6380   24.5118 H   0  0  0  0  0  0
  -15.5418  -30.3050   23.7635 H   0  0  0  0  0  0
  -15.8694  -28.0879   22.7166 H   0  0  0  0  0  0
  -24.5814  -30.7067   25.7698 H   0  0  0  0  0  0
  -24.8822  -32.2906   26.4819 H   0  0  0  0  0  0
  -25.7955  -30.8900   27.0194 H   0  0  0  0  0  0
  -26.2795  -29.6868   24.1018 H   0  0  0  0  0  0
  -27.4060  -29.7267   25.4395 H   0  0  0  0  0  0
  -27.8585  -30.4468   23.9096 H   0  0  0  0  0  0
  -27.2654  -33.3584   26.2037 H   0  0  0  0  0  0
  -28.3778  -32.6871   25.0192 H   0  0  0  0  0  0
  -28.0725  -31.8398   26.5309 H   0  0  0  0  0  0
  -28.2636  -38.0096   24.7504 H   0  0  0  0  0  0
  -28.1057  -36.2625   24.6313 H   0  0  0  0  0  0
  -27.2313  -37.1467   25.8887 H   0  0  0  0  0  0
  -20.9282  -29.9173   21.7237 H   0  0  0  0  0  0
  -26.0216  -38.2914   24.1351 H   0  0  0  0  0  0
  -27.7820  -18.6598   18.8483 H   0  0  0  0  0  0
  -28.4784  -16.3442   19.2313 H   0  0  0  0  0  0
  -30.8876  -17.6240   22.5850 H   0  0  0  0  0  0
  -27.5668  -19.9896   22.7433 H   0  0  0  0  0  0
  -26.1974  -20.8283   22.0240 H   0  0  0  0  0  0
  -27.0657  -21.5269   23.3796 H   0  0  0  0  0  0
  -27.5296  -20.9081   19.6514 H   0  0  0  0  0  0
  -29.1721  -21.4824   19.7040 H   0  0  0  0  0  0
  -28.4596  -24.0525   19.5736 H   0  0  0  0  0  0
  -29.5801  -23.8951   20.9166 H   0  0  0  0  0  0
  -26.6411  -23.0789   20.7894 H   0  0  0  0  0  0
  -27.3530  -23.4756   22.3280 H   0  0  0  0  0  0
  -27.2374  -25.6002   21.5785 H   0  0  0  0  0  0
  -28.9112  -25.8437   21.9331 H   0  0  0  0  0  0
  -29.1884  -14.9899   21.7828 H   0  0  0  0  0  0
  -28.9789  -21.7551   22.0149 H   0  0  0  0  0  0
  1 25  1  0  0  0
  1 30  2  0  0  0
  1 82  1  0  0  0
  2  3  1  0  0  0
  2 25  1  0  0  0
  2 85  1  0  0  0
  2 86  1  0  0  0
  3  4  1  0  0  0
  3 87  1  0  0  0
  3 88  1  0  0  0
  4  5  1  0  0  0
  4 89  1  0  0  0
  4 90  1  0  0  0
  5  6  1  0  0  0
  5 26  1  0  0  0
  5 91  1  0  0  0
  6 25  1  0  0  0
  6 92  1  0  0  0
  6 93  1  0  0  0
  7  8  2  0  0  0
  7 26  1  0  0  0
  7 29  1  0  0  0
  8  9  1  0  0  0
  8 22  1  0  0  0
  9 10  1  0  0  0
  9 27  2  0  0  0
 10 11  2  0  0  0
 10 15  1  0  0  0
 11 12  1  0  0  0
 11 94  1  0  0  0
 12 13  2  0  0  0
 12 95  1  0  0  0
 13 14  1  0  0  0
 13 31  1  0  0  0
 14 15  2  0  0  0
 14 96  1  0  0  0
 15 97  1  0  0  0
 16 17  2  0  0  0
 16 21  1  0  0  0
 16 31  1  0  0  0
 17 18  1  0  0  0
 17 98  1  0  0  0
 18 19  2  0  0  0
 18 99  1  0  0  0
 19 20  1  0  0  0
 19 24  1  0  0  0
 20 21  2  0  0  0
 20100  1  0  0  0
 21 23  1  0  0  0
 22 28  1  0  0  0
 22 32  2  0  0  0
 26 27  1  0  0  0
 28101  1  0  0  0
 28102  1  0  0  0
 29103  1  0  0  0
 29104  1  0  0  0
 33 34  1  0  0  0
 33 66  1  0  0  0
 33 70  2  0  0  0
 34 36  1  0  0  0
 34 59  1  0  0  0
 34105  1  0  0  0
 35 44  2  0  0  0
 35 45  1  0  0  0
 35 68  1  0  0  0
 36 56  1  0  0  0
 36106  1  0  0  0
 37 39  1  0  0  0
 37 47  1  0  0  0
 37 66  1  0  0  0
 37107  1  0  0  0
 38 43  2  0  0  0
 38 46  1  0  0  0
 38 47  1  0  0  0
 39 64  1  0  0  0
 39 67  2  0  0  0
 40 52  1  0  0  0
 40 53  2  0  0  0
 40 58  1  0  0  0
 41108  1  0  0  0
 41109  1  0  0  0
 41110  1  0  0  0
 41 48  1  0  0  0
 42 43  1  0  0  0
 42 66  1  0  0  0
 42111  1  0  0  0
 42112  1  0  0  0
 43 44  1  0  0  0
 44113  1  0  0  0
 45 46  2  0  0  0
 45114  1  0  0  0
 46115  1  0  0  0
 47116  1  0  0  0
 47117  1  0  0  0
 48 56  1  0  0  0
 48 65  1  0  0  0
 48118  1  0  0  0
 49 50  1  0  0  0
 49 53  1  0  0  0
 49 64  1  0  0  0
 49119  1  0  0  0
 50 51  1  0  0  0
 50120  1  0  0  0
 50121  1  0  0  0
 51 52  1  0  0  0
 51122  1  0  0  0
 51123  1  0  0  0
 52124  1  0  0  0
 52125  1  0  0  0
 53 54  1  0  0  0
 54 55  2  0  0  0
 54126  1  0  0  0
 55 57  1  0  0  0
 55127  1  0  0  0
 56 69  2  0  0  0
 57 58  2  0  0  0
 57128  1  0  0  0
 58129  1  0  0  0
 59 60  1  0  0  0
 59 61  1  0  0  0
 59 62  1  0  0  0
 60130  1  0  0  0
 60131  1  0  0  0
 60132  1  0  0  0
 61133  1  0  0  0
 61134  1  0  0  0
 61135  1  0  0  0
 62136  1  0  0  0
 62137  1  0  0  0
 62138  1  0  0  0
 63 65  1  0  0  0
 63139  1  0  0  0
 63140  1  0  0  0
 63141  1  0  0  0
 64142  1  0  0  0
 65143  1  0  0  0
 68 81  1  0  0  0
 71 72  2  0  0  0
 71 74  1  0  0  0
 71144  1  0  0  0
 72 75  1  0  0  0
 72145  1  0  0  0
 73 75  2  0  0  0
 73 76  1  0  0  0
 73146  1  0  0  0
 74 76  2  0  0  0
 74 78  1  0  0  0
 75 82  1  0  0  0
 76 84  1  0  0  0
 77147  1  0  0  0
 77148  1  0  0  0
 77149  1  0  0  0
 77 83  1  0  0  0
 78 83  1  0  0  0
 78150  1  0  0  0
 78151  1  0  0  0
 79 80  1  0  0  0
 79 81  1  0  0  0
 79152  1  0  0  0
 79153  1  0  0  0
 80 83  1  0  0  0
 80154  1  0  0  0
 80155  1  0  0  0
 81156  1  0  0  0
 81157  1  0  0  0
 82158  1  0  0  0
 83159  1  0  0  0
M  CHG  1  83   1
M  ISO  4   1 100  68 101  81 101  82 100
M  END
> <chiral flag>
0

> <version>
0

> <s_m_source_file>
/data/baiqing/PycharmProjects/Reinvent-master-3.2/result/LINK_invent/BTK/process_docking_weight1_custom_product_contain_oxygen_bond_distance_aromatic_linkinvent_7_9_3/rearranged_h_0014.sdf

> <i_m_source_file_index>
16

> <r_mmod_Potential_Energy-OPLS-2005>
-123.312965393066

> <r_mmod_Stretch_Energy-OPLS-2005>
41.7686157226562

> <r_mmod_Bend_Energy-OPLS-2005>
103.873176574707

> <r_mmod_Torsional_Energy-OPLS-2005>
282.567504882812

> <r_mmod_Improper_Torsional_Energy-OPLS-2005>
5.60172033309937

> <r_mmod_Van_der_Waal_Energy-OPLS-2005>
149.639495849609

> <r_mmod_Electrostatic_Energy-OPLS-2005>
-279.183563232422

> <r_mmod_Solvation_Energy-OPLS-2005>
-444.560119628906

> <b_mmod_Minimization_Converged-OPLS-2005>
0

> <r_mmod_RMS_Derivative-OPLS-2005>
5.4221625328064

$$$$
16
                    3D
 Structure written by MMmdl.
156165  0  0  1  0            999 V2000
  -30.6565  -14.6543   20.4867 C   0  0  0  0  0  0
  -30.4274  -12.4025   19.4620 C   0  0  0  0  0  0
  -29.5081  -12.4999   18.2276 C   0  0  0  0  0  0
  -28.0315  -12.3357   18.6430 C   0  0  0  0  0  0
  -27.6476  -13.2243   19.8549 C   0  0  2  0  0  0
  -28.6902  -13.1265   20.9889 C   0  0  0  0  0  0
  -25.2541  -13.8196   20.5699 C   0  0  0  0  0  0
  -24.1808  -13.0457   20.9197 C   0  0  0  0  0  0
  -24.6381  -11.6925   20.8727 C   0  0  0  0  0  0
  -23.9048  -10.4305   21.0401 C   0  0  0  0  0  0
  -24.3596   -9.4221   21.9187 C   0  0  0  0  0  0
  -23.6263   -8.2254   22.0759 C   0  0  0  0  0  0
  -22.4252   -8.0288   21.3555 C   0  0  0  0  0  0
  -21.9886   -9.0267   20.4658 C   0  0  0  0  0  0
  -22.7215  -10.2142   20.3056 C   0  0  0  0  0  0
  -21.6861   -6.0719   22.5275 C   0  0  0  0  0  0
  -21.4024   -6.5617   23.8212 C   0  0  0  0  0  0
  -21.3655   -5.6775   24.9167 C   0  0  0  0  0  0
  -21.6044   -4.3035   24.7216 C   0  0  0  0  0  0
  -21.8819   -3.8135   23.4334 C   0  0  0  0  0  0
  -21.9196   -4.6955   22.3396 C   0  0  0  0  0  0
  -22.7828  -13.5262   21.1821 C   0  0  0  0  0  0
  -22.1658   -4.2140   21.0975 F   0  0  0  0  0  0
  -21.5623   -3.4523   25.7719 F   0  0  0  0  0  0
  -30.0018  -13.4506   20.4132 N   0  0  0  0  0  0
  -26.2955  -12.9387   20.3290 N   0  0  0  0  0  0
  -25.9309  -11.6529   20.5741 N   0  0  0  0  0  0
  -22.0435  -12.8293   22.0375 N   0  0  0  0  0  0
  -25.4265  -15.1925   20.4092 N   0  0  0  0  0  0
  -31.8347  -14.7500   20.1357 O   0  0  0  0  0  0
  -21.6633   -6.8867   21.4237 O   0  0  0  0  0  0
  -22.3527  -14.5558   20.6640 O   0  0  0  0  0  0
  -24.6245  -31.8603   23.2029 C   0  0  0  0  0  0
  -25.9095  -32.4795   23.8356 C   0  0  1  0  0  0
  -27.2402  -27.3297   20.1337 C   0  0  0  0  0  0
  -25.5921  -33.8591   24.2307 N   0  0  0  0  0  0
  -23.4214  -30.4805   21.5428 C   0  0  2  0  0  0
  -24.8775  -28.9350   20.1115 C   0  0  0  0  0  0
  -22.7480  -29.4614   22.4928 C   0  0  0  0  0  0
  -18.0288  -28.1381   22.8496 C   0  0  0  0  0  0
  -24.1477  -36.7290   23.2636 C   0  0  0  0  0  0
  -25.9586  -30.7969   21.3709 C   0  0  0  0  0  0
  -26.0417  -29.4206   20.7213 C   0  0  0  0  0  0
  -27.2282  -28.6286   20.7272 C   0  0  0  0  0  0
  -26.0618  -26.8960   19.4919 C   0  0  0  0  0  0
  -24.8888  -27.6768   19.4864 C   0  0  0  0  0  0
  -23.6407  -29.8099   20.1589 C   0  0  0  0  0  0
  -25.4098  -36.3091   24.0335 C   0  0  1  0  0  0
  -20.5892  -28.3680   23.1300 C   0  0  2  0  0  0
  -20.6774  -26.9400   22.5418 C   0  0  0  0  0  0
  -19.5748  -26.6383   21.5218 C   0  0  0  0  0  0
  -18.1928  -26.7926   22.1625 C   0  0  0  0  0  0
  -19.1540  -28.8844   23.2890 C   0  0  0  0  0  0
  -18.9459  -30.1459   23.8883 C   0  0  0  0  0  0
  -17.6458  -30.6590   24.0545 C   0  0  0  0  0  0
  -25.9032  -34.9461   23.5118 C   0  0  0  0  0  0
  -16.5350  -29.9084   23.6327 C   0  0  0  0  0  0
  -16.7271  -28.6499   23.0350 C   0  0  0  0  0  0
  -26.4483  -31.6597   25.0718 C   0  0  0  0  0  0
  -25.3734  -31.3773   26.1475 C   0  0  0  0  0  0
  -27.0292  -30.3017   24.6147 C   0  0  0  0  0  0
  -27.6059  -32.4307   25.7482 C   0  0  0  0  0  0
  -27.5581  -37.1792   24.8450 C   0  0  0  0  0  0
  -21.4186  -29.3048   22.3700 N   0  0  0  0  0  0
  -26.4273  -37.3789   23.9427 N   0  0  0  0  0  0
  -24.6867  -31.0614   22.0974 N   0  0  0  0  0  0
  -23.4207  -28.8140   23.2992 O   0  0  0  0  0  0
  -28.3239  -26.4441   20.1699 O   0  0  0  0  0  0
  -26.5576  -34.8926   22.4672 O   0  0  0  0  0  0
  -23.5406  -32.1380   23.7367 O   0  0  0  0  0  0
  -27.9454  -22.7877   20.2531 C   0  0  0  0  0  0
  -28.3790  -21.4227   20.2893 C   0  0  0  0  0  0
  -29.9959  -23.4748   21.2807 C   0  0  0  0  0  0
  -28.7283  -23.8540   20.7757 C   0  0  0  0  0  0
  -29.6218  -21.0259   20.8585 C   0  0  0  0  0  0
  -30.4309  -22.1164   21.3258 C   0  0  0  0  0  0
  -31.1118  -17.6916   21.9282 C   0  0  0  0  0  0
  -31.1442  -19.2291   21.8252 C   0  0  0  0  0  0
  -29.3864  -18.4031   20.4324 C   0  0  0  0  0  0
  -30.4123  -17.2132   20.6508 C   0  0  2  0  0  0
  -28.1152  -25.2812   21.0547 C   0  0  0  0  0  0
  -30.0174  -19.6343   20.9857 N   0  0  0  0  0  0
  -29.9242  -15.7839   20.7511 N   0  0  0  0  0  0
  -31.6519  -21.8871   21.8692 F   0  0  0  0  0  0
  -31.4700  -12.5122   19.1585 H   0  0  0  0  0  0
  -30.3511  -11.4176   19.9260 H   0  0  0  0  0  0
  -29.7795  -11.7364   17.4973 H   0  0  0  0  0  0
  -29.6520  -13.4617   17.7342 H   0  0  0  0  0  0
  -27.8770  -11.2861   18.8969 H   0  0  0  0  0  0
  -27.3767  -12.5444   17.7962 H   0  0  0  0  0  0
  -27.6558  -14.2511   19.4904 H   0  0  0  0  0  0
  -28.7062  -12.1237   21.4171 H   0  0  0  0  0  0
  -28.4363  -13.8029   21.8061 H   0  0  0  0  0  0
  -25.2736   -9.5704   22.4759 H   0  0  0  0  0  0
  -23.9973   -7.4661   22.7489 H   0  0  0  0  0  0
  -21.0814   -8.8795   19.8975 H   0  0  0  0  0  0
  -22.3678  -10.9678   19.6155 H   0  0  0  0  0  0
  -21.2024   -7.6123   23.9700 H   0  0  0  0  0  0
  -21.1471   -6.0501   25.9069 H   0  0  0  0  0  0
  -22.0601   -2.7600   23.2834 H   0  0  0  0  0  0
  -22.3964  -11.9943   22.4807 H   0  0  0  0  0  0
  -21.1072  -13.1406   22.2538 H   0  0  0  0  0  0
  -24.6610  -15.8504   20.5133 H   0  0  0  0  0  0
  -26.2745  -15.6276   20.0705 H   0  0  0  0  0  0
  -26.7154  -32.5483   23.1099 H   0  0  0  0  0  0
  -25.0123  -33.9720   25.0494 H   0  0  0  0  0  0
  -22.7141  -31.2999   21.3979 H   0  0  0  0  0  0
  -23.3756  -35.9601   23.3260 H   0  0  0  0  0  0
  -24.3574  -36.8937   22.2056 H   0  0  0  0  0  0
  -23.7203  -37.6477   23.6660 H   0  0  0  0  0  0
  -26.0774  -31.5570   20.5969 H   0  0  0  0  0  0
  -26.8430  -30.8586   21.9930 H   0  0  0  0  0  0
  -28.1178  -28.9948   21.2212 H   0  0  0  0  0  0
  -26.0488  -25.9273   19.0113 H   0  0  0  0  0  0
  -23.9976  -27.3009   19.0042 H   0  0  0  0  0  0
  -23.7553  -30.5822   19.3970 H   0  0  0  0  0  0
  -22.7650  -29.2304   19.8617 H   0  0  0  0  0  0
  -25.1277  -36.1926   25.0824 H   0  0  0  0  0  0
  -20.9996  -28.3233   24.1416 H   0  0  0  0  0  0
  -20.5690  -26.2275   23.3612 H   0  0  0  0  0  0
  -21.6640  -26.7431   22.1217 H   0  0  0  0  0  0
  -19.6903  -25.6292   21.1247 H   0  0  0  0  0  0
  -19.6693  -27.3191   20.6741 H   0  0  0  0  0  0
  -17.4220  -26.6698   21.4003 H   0  0  0  0  0  0
  -18.0292  -26.0057   22.9005 H   0  0  0  0  0  0
  -19.7932  -30.7290   24.2239 H   0  0  0  0  0  0
  -17.5006  -31.6268   24.5150 H   0  0  0  0  0  0
  -15.5347  -30.2977   23.7657 H   0  0  0  0  0  0
  -15.8668  -28.0815   22.7067 H   0  0  0  0  0  0
  -24.5814  -30.7228   25.7818 H   0  0  0  0  0  0
  -24.9039  -32.2972   26.4967 H   0  0  0  0  0  0
  -25.8055  -30.8874   27.0212 H   0  0  0  0  0  0
  -26.2846  -29.6807   24.1154 H   0  0  0  0  0  0
  -27.3981  -29.7237   25.4633 H   0  0  0  0  0  0
  -27.8723  -30.4307   23.9354 H   0  0  0  0  0  0
  -27.2694  -33.3622   26.2042 H   0  0  0  0  0  0
  -28.3879  -32.6843   25.0313 H   0  0  0  0  0  0
  -28.0703  -31.8430   26.5411 H   0  0  0  0  0  0
  -28.2578  -38.0114   24.7540 H   0  0  0  0  0  0
  -28.1092  -36.2646   24.6198 H   0  0  0  0  0  0
  -27.2306  -37.1368   25.8853 H   0  0  0  0  0  0
  -20.9352  -29.8786   21.6933 H   0  0  0  0  0  0
  -26.0149  -38.2859   24.1446 H   0  0  0  0  0  0
  -26.9563  -23.0066   19.8772 H   0  0  0  0  0  0
  -27.7051  -20.6654   19.9182 H   0  0  0  0  0  0
  -30.6353  -24.2266   21.7167 H   0  0  0  0  0  0
  -30.5262  -17.4090   22.8040 H   0  0  0  0  0  0
  -32.1084  -17.2657   22.0532 H   0  0  0  0  0  0
  -32.0737  -19.5490   21.3516 H   0  0  0  0  0  0
  -31.0943  -19.6806   22.8192 H   0  0  0  0  0  0
  -28.4511  -18.2125   20.9611 H   0  0  0  0  0  0
  -29.1505  -18.5320   19.3745 H   0  0  0  0  0  0
  -31.1341  -17.2658   19.8328 H   0  0  0  0  0  0
  -28.5026  -25.5895   22.0268 H   0  0  0  0  0  0
  -27.0513  -25.1231   21.2348 H   0  0  0  0  0  0
  -28.9492  -15.6472   20.9697 H   0  0  0  0  0  0
  1 25  1  0  0  0
  1 30  2  0  0  0
  1 83  1  0  0  0
  2  3  1  0  0  0
  2 25  1  0  0  0
  2 85  1  0  0  0
  2 86  1  0  0  0
  3  4  1  0  0  0
  3 87  1  0  0  0
  3 88  1  0  0  0
  4  5  1  0  0  0
  4 89  1  0  0  0
  4 90  1  0  0  0
  5  6  1  0  0  0
  5 26  1  0  0  0
  5 91  1  0  0  0
  6 25  1  0  0  0
  6 92  1  0  0  0
  6 93  1  0  0  0
  7  8  2  0  0  0
  7 26  1  0  0  0
  7 29  1  0  0  0
  8  9  1  0  0  0
  8 22  1  0  0  0
  9 10  1  0  0  0
  9 27  2  0  0  0
 10 11  2  0  0  0
 10 15  1  0  0  0
 11 12  1  0  0  0
 11 94  1  0  0  0
 12 13  2  0  0  0
 12 95  1  0  0  0
 13 14  1  0  0  0
 13 31  1  0  0  0
 14 15  2  0  0  0
 14 96  1  0  0  0
 15 97  1  0  0  0
 16 17  2  0  0  0
 16 21  1  0  0  0
 16 31  1  0  0  0
 17 18  1  0  0  0
 17 98  1  0  0  0
 18 19  2  0  0  0
 18 99  1  0  0  0
 19 20  1  0  0  0
 19 24  1  0  0  0
 20 21  2  0  0  0
 20100  1  0  0  0
 21 23  1  0  0  0
 22 28  1  0  0  0
 22 32  2  0  0  0
 26 27  1  0  0  0
 28101  1  0  0  0
 28102  1  0  0  0
 29103  1  0  0  0
 29104  1  0  0  0
 33 34  1  0  0  0
 33 66  1  0  0  0
 33 70  2  0  0  0
 34 36  1  0  0  0
 34 59  1  0  0  0
 34105  1  0  0  0
 35 44  2  0  0  0
 35 45  1  0  0  0
 35 68  1  0  0  0
 36 56  1  0  0  0
 36106  1  0  0  0
 37 39  1  0  0  0
 37 47  1  0  0  0
 37 66  1  0  0  0
 37107  1  0  0  0
 38 43  2  0  0  0
 38 46  1  0  0  0
 38 47  1  0  0  0
 39 64  1  0  0  0
 39 67  2  0  0  0
 40 52  1  0  0  0
 40 53  2  0  0  0
 40 58  1  0  0  0
 41108  1  0  0  0
 41109  1  0  0  0
 41110  1  0  0  0
 41 48  1  0  0  0
 42 43  1  0  0  0
 42 66  1  0  0  0
 42111  1  0  0  0
 42112  1  0  0  0
 43 44  1  0  0  0
 44113  1  0  0  0
 45 46  2  0  0  0
 45114  1  0  0  0
 46115  1  0  0  0
 47116  1  0  0  0
 47117  1  0  0  0
 48 56  1  0  0  0
 48 65  1  0  0  0
 48118  1  0  0  0
 49 50  1  0  0  0
 49 53  1  0  0  0
 49 64  1  0  0  0
 49119  1  0  0  0
 50 51  1  0  0  0
 50120  1  0  0  0
 50121  1  0  0  0
 51 52  1  0  0  0
 51122  1  0  0  0
 51123  1  0  0  0
 52124  1  0  0  0
 52125  1  0  0  0
 53 54  1  0  0  0
 54 55  2  0  0  0
 54126  1  0  0  0
 55 57  1  0  0  0
 55127  1  0  0  0
 56 69  2  0  0  0
 57 58  2  0  0  0
 57128  1  0  0  0
 58129  1  0  0  0
 59 60  1  0  0  0
 59 61  1  0  0  0
 59 62  1  0  0  0
 60130  1  0  0  0
 60131  1  0  0  0
 60132  1  0  0  0
 61133  1  0  0  0
 61134  1  0  0  0
 61135  1  0  0  0
 62136  1  0  0  0
 62137  1  0  0  0
 62138  1  0  0  0
 63 65  1  0  0  0
 63139  1  0  0  0
 63140  1  0  0  0
 63141  1  0  0  0
 64142  1  0  0  0
 65143  1  0  0  0
 68 81  1  0  0  0
 71 72  2  0  0  0
 71 74  1  0  0  0
 71144  1  0  0  0
 72 75  1  0  0  0
 72145  1  0  0  0
 73 74  2  0  0  0
 73 76  1  0  0  0
 73146  1  0  0  0
 74 81  1  0  0  0
 75 76  2  0  0  0
 75 82  1  0  0  0
 76 84  1  0  0  0
 77 78  1  0  0  0
 77 80  1  0  0  0
 77147  1  0  0  0
 77148  1  0  0  0
 78 82  1  0  0  0
 78149  1  0  0  0
 78150  1  0  0  0
 79 80  1  0  0  0
 79 82  1  0  0  0
 79151  1  0  0  0
 79152  1  0  0  0
 80 83  1  0  0  0
 80153  1  0  0  0
 81154  1  0  0  0
 81155  1  0  0  0
 83156  1  0  0  0
M  ISO  4   1 100  68 101  81 101  83 100
M  END
> <chiral flag>
0

> <version>
0

> <s_m_source_file>
/data/baiqing/PycharmProjects/Reinvent-master-3.2/result/LINK_invent/BTK/process_docking_weight1_custom_product_contain_oxygen_bond_distance_aromatic_linkinvent_7_9_3/rearranged_h_0014.sdf

> <i_m_source_file_index>
17

> <r_mmod_Potential_Energy-OPLS-2005>
154.900726318359

> <r_mmod_Stretch_Energy-OPLS-2005>
80.22265625

> <r_mmod_Bend_Energy-OPLS-2005>
183.954895019531

> <r_mmod_Torsional_Energy-OPLS-2005>
281.571044921875

> <r_mmod_Improper_Torsional_Energy-OPLS-2005>
6.67710828781128

> <r_mmod_Van_der_Waal_Energy-OPLS-2005>
141.485000610352

> <r_mmod_Electrostatic_Energy-OPLS-2005>
-367.814697265625

> <r_mmod_Solvation_Energy-OPLS-2005>
-224.658798217773

> <b_mmod_Minimization_Converged-OPLS-2005>
0

> <r_mmod_RMS_Derivative-OPLS-2005>
2.63582706451416

$$$$
17
                    3D
 Structure written by MMmdl.
176186  0  0  1  0            999 V2000
  -30.6687  -14.5107   20.3875 C   0  0  0  0  0  0
  -30.4352  -12.2684   19.4365 C   0  0  0  0  0  0
  -29.5003  -12.3839   18.2187 C   0  0  0  0  0  0
  -28.0126  -12.3082   18.6461 C   0  0  0  0  0  0
  -27.6631  -13.1618   19.9032 C   0  0  2  0  0  0
  -28.7293  -12.9986   21.0003 C   0  0  0  0  0  0
  -25.2633  -13.8059   20.5752 C   0  0  0  0  0  0
  -24.1842  -13.0399   20.9238 C   0  0  0  0  0  0
  -24.6348  -11.6843   20.8853 C   0  0  0  0  0  0
  -23.9008  -10.4266   21.0478 C   0  0  0  0  0  0
  -24.3581   -9.4172   21.9225 C   0  0  0  0  0  0
  -23.6259   -8.2209   22.0768 C   0  0  0  0  0  0
  -22.4259   -8.0262   21.3527 C   0  0  0  0  0  0
  -21.9889   -9.0258   20.4651 C   0  0  0  0  0  0
  -22.7213  -10.2133   20.3082 C   0  0  0  0  0  0
  -21.6841   -6.0731   22.5260 C   0  0  0  0  0  0
  -21.3995   -6.5644   23.8195 C   0  0  0  0  0  0
  -21.3651   -5.6792   24.9159 C   0  0  0  0  0  0
  -21.6050   -4.3063   24.7197 C   0  0  0  0  0  0
  -21.8825   -3.8149   23.4326 C   0  0  0  0  0  0
  -21.9185   -4.6958   22.3383 C   0  0  0  0  0  0
  -22.7860  -13.5226   21.1832 C   0  0  0  0  0  0
  -22.1649   -4.2145   21.0952 F   0  0  0  0  0  0
  -21.5635   -3.4548   25.7720 F   0  0  0  0  0  0
  -30.0270  -13.3107   20.3843 N   0  0  0  0  0  0
  -26.3057  -12.9121   20.3660 N   0  0  0  0  0  0
  -25.9285  -11.6345   20.6059 N   0  0  0  0  0  0
  -22.0482  -12.8250   22.0394 N   0  0  0  0  0  0
  -25.4348  -15.1763   20.4009 N   0  0  0  0  0  0
  -31.8805  -14.6051   20.1734 O   0  0  0  0  0  0
  -21.6604   -6.8878   21.4236 O   0  0  0  0  0  0
  -22.3579  -14.5530   20.6666 O   0  0  0  0  0  0
  -24.6063  -31.8713   23.2160 C   0  0  0  0  0  0
  -25.8965  -32.4871   23.8422 C   0  0  1  0  0  0
  -27.2355  -27.4848   20.0981 C   0  0  0  0  0  0
  -25.5815  -33.8693   24.2335 N   0  0  0  0  0  0
  -23.3950  -30.4909   21.5526 C   0  0  2  0  0  0
  -24.8439  -28.9588   20.1210 C   0  0  0  0  0  0
  -22.7336  -29.4664   22.5022 C   0  0  0  0  0  0
  -18.0257  -28.1377   22.8508 C   0  0  0  0  0  0
  -24.1473  -36.7368   23.2649 C   0  0  0  0  0  0
  -25.9158  -30.8488   21.3652 C   0  0  0  0  0  0
  -25.9953  -29.4842   20.7206 C   0  0  0  0  0  0
  -27.1956  -28.7475   20.7206 C   0  0  0  0  0  0
  -26.0708  -26.9527   19.5070 C   0  0  0  0  0  0
  -24.8711  -27.6878   19.5191 C   0  0  0  0  0  0
  -23.6024  -29.8192   20.1682 C   0  0  0  0  0  0
  -25.4093  -36.3176   24.0333 C   0  0  1  0  0  0
  -20.5837  -28.3665   23.1348 C   0  0  2  0  0  0
  -20.6759  -26.9408   22.5438 C   0  0  0  0  0  0
  -19.5748  -26.6398   21.5222 C   0  0  0  0  0  0
  -18.1922  -26.7938   22.1611 C   0  0  0  0  0  0
  -19.1506  -28.8836   23.2937 C   0  0  0  0  0  0
  -18.9426  -30.1433   23.8956 C   0  0  0  0  0  0
  -17.6435  -30.6605   24.0558 C   0  0  0  0  0  0
  -25.9000  -34.9529   23.5146 C   0  0  0  0  0  0
  -16.5335  -29.9084   23.6330 C   0  0  0  0  0  0
  -16.7238  -28.6476   23.0383 C   0  0  0  0  0  0
  -26.4426  -31.6680   25.0756 C   0  0  0  0  0  0
  -25.3725  -31.3765   26.1512 C   0  0  0  0  0  0
  -27.0228  -30.3110   24.6145 C   0  0  0  0  0  0
  -27.5972  -32.4449   25.7526 C   0  0  0  0  0  0
  -27.5584  -37.1828   24.8446 C   0  0  0  0  0  0
  -21.4085  -29.3016   22.3724 N   0  0  0  0  0  0
  -26.4295  -37.3841   23.9409 N   0  0  0  0  0  0
  -24.6560  -31.0841   22.1042 N   0  0  0  0  0  0
  -23.4102  -28.8212   23.3066 O   0  0  0  0  0  0
  -28.4128  -26.7944   20.0569 O   0  0  0  0  0  0
  -26.5597  -34.8975   22.4729 O   0  0  0  0  0  0
  -23.5262  -32.1434   23.7577 O   0  0  0  0  0  0
  -28.1681  -25.0340   15.7150 C   0  0  0  0  0  0
  -29.2566  -23.5214   17.2887 C   0  0  0  0  0  0
  -28.2964  -26.0871   16.6376 C   0  0  0  0  0  0
  -29.3975  -24.5816   18.2054 C   0  0  0  0  0  0
  -31.3907  -18.4044   18.1727 C   0  0  0  0  0  0
  -31.0775  -17.5344   19.2440 C   0  0  0  0  0  0
  -29.8195  -17.2081   16.7694 C   0  0  0  0  0  0
  -28.6571  -23.7462   16.0292 C   0  0  0  0  0  0
  -28.9292  -25.8662   17.8776 C   0  0  0  0  0  0
  -30.7730  -18.2243   16.9168 C   0  0  0  0  0  0
  -30.1322  -16.4866   19.0912 C   0  0  0  0  0  0
  -29.4588  -16.3858   17.8413 C   0  0  0  0  0  0
  -30.0004  -22.4454   14.3344 C   0  0  0  0  0  0
  -27.9305  -21.3326   15.4294 C   0  0  0  0  0  0
  -30.4330  -20.9770   14.2625 C   0  0  0  0  0  0
  -28.8536  -20.2315   16.0129 C   0  0  0  0  0  0
  -28.6104  -22.6483   14.9732 C   0  0  1  0  0  0
  -29.1706  -16.1839   21.3469 C   0  0  0  0  0  0
  -31.0936  -19.0924   15.7048 C   0  0  0  0  0  0
  -29.1389  -27.0030   18.8534 C   0  0  0  0  0  0
  -29.8750  -15.6037   20.2001 N   0  0  0  0  0  0
  -30.2818  -20.3359   15.5889 N   0  3  1  0  0  0
  -28.1084  -15.3747   17.5234 Cl  0  0  0  0  0  0
  -31.4763  -12.3647   19.1205 H   0  0  0  0  0  0
  -30.3532  -11.2842   19.9017 H   0  0  0  0  0  0
  -29.7149  -11.5828   17.5107 H   0  0  0  0  0  0
  -29.7184  -13.3035   17.6811 H   0  0  0  0  0  0
  -27.8002  -11.2602   18.8620 H   0  0  0  0  0  0
  -27.3630  -12.5704   17.8119 H   0  0  0  0  0  0
  -27.6813  -14.2063   19.6433 H   0  0  0  0  0  0
  -28.7397  -11.9770   21.3865 H   0  0  0  0  0  0
  -28.5275  -13.6399   21.8572 H   0  0  0  0  0  0
  -25.2729   -9.5650   22.4799 H   0  0  0  0  0  0
  -23.9960   -7.4613   22.7490 H   0  0  0  0  0  0
  -21.0818   -8.8801   19.8965 H   0  0  0  0  0  0
  -22.3696  -10.9695   19.6193 H   0  0  0  0  0  0
  -21.1971   -7.6146   23.9697 H   0  0  0  0  0  0
  -21.1469   -6.0516   25.9058 H   0  0  0  0  0  0
  -22.0614   -2.7609   23.2816 H   0  0  0  0  0  0
  -22.4058  -11.9865   22.4737 H   0  0  0  0  0  0
  -21.1123  -13.1341   22.2602 H   0  0  0  0  0  0
  -24.6685  -15.8362   20.4828 H   0  0  0  0  0  0
  -26.2791  -15.6019   20.0401 H   0  0  0  0  0  0
  -26.7021  -32.5646   23.1185 H   0  0  0  0  0  0
  -24.9884  -33.9883   25.0409 H   0  0  0  0  0  0
  -22.6849  -31.3100   21.4141 H   0  0  0  0  0  0
  -23.3740  -35.9696   23.3336 H   0  0  0  0  0  0
  -24.3554  -36.8982   22.2060 H   0  0  0  0  0  0
  -23.7194  -37.6567   23.6646 H   0  0  0  0  0  0
  -26.0164  -31.6124   20.5925 H   0  0  0  0  0  0
  -26.8069  -30.9145   21.9799 H   0  0  0  0  0  0
  -28.0895  -29.1459   21.1794 H   0  0  0  0  0  0
  -26.0978  -25.9830   19.0301 H   0  0  0  0  0  0
  -23.9816  -27.2715   19.0660 H   0  0  0  0  0  0
  -23.7066  -30.5940   19.4070 H   0  0  0  0  0  0
  -22.7311  -29.2316   19.8725 H   0  0  0  0  0  0
  -25.1275  -36.2064   25.0819 H   0  0  0  0  0  0
  -20.9924  -28.3212   24.1471 H   0  0  0  0  0  0
  -20.5715  -26.2246   23.3592 H   0  0  0  0  0  0
  -21.6621  -26.7510   22.1208 H   0  0  0  0  0  0
  -19.6918  -25.6312   21.1231 H   0  0  0  0  0  0
  -19.6715  -27.3220   20.6766 H   0  0  0  0  0  0
  -17.4213  -26.6742   21.3991 H   0  0  0  0  0  0
  -18.0317  -26.0045   22.8975 H   0  0  0  0  0  0
  -19.7915  -30.7224   24.2362 H   0  0  0  0  0  0
  -17.4995  -31.6286   24.5133 H   0  0  0  0  0  0
  -15.5333  -30.2996   23.7631 H   0  0  0  0  0  0
  -15.8644  -28.0775   22.7137 H   0  0  0  0  0  0
  -24.5825  -30.7208   25.7831 H   0  0  0  0  0  0
  -24.9010  -32.2929   26.5093 H   0  0  0  0  0  0
  -25.8088  -30.8813   27.0193 H   0  0  0  0  0  0
  -26.2743  -29.6925   24.1175 H   0  0  0  0  0  0
  -27.3900  -29.7332   25.4635 H   0  0  0  0  0  0
  -27.8642  -30.4408   23.9339 H   0  0  0  0  0  0
  -27.2503  -33.3690   26.2188 H   0  0  0  0  0  0
  -28.3727  -32.7145   25.0349 H   0  0  0  0  0  0
  -28.0703  -31.8571   26.5403 H   0  0  0  0  0  0
  -28.2587  -38.0145   24.7522 H   0  0  0  0  0  0
  -28.1098  -36.2662   24.6243 H   0  0  0  0  0  0
  -27.2310  -37.1483   25.8856 H   0  0  0  0  0  0
  -20.9207  -29.8691   21.6929 H   0  0  0  0  0  0
  -26.0200  -38.2929   24.1429 H   0  0  0  0  0  0
  -27.7157  -25.2321   14.7528 H   0  0  0  0  0  0
  -29.6481  -22.5520   17.5508 H   0  0  0  0  0  0
  -27.9273  -27.0697   16.3766 H   0  0  0  0  0  0
  -29.8831  -24.4178   19.1585 H   0  0  0  0  0  0
  -32.1156  -19.1952   18.3163 H   0  0  0  0  0  0
  -31.5768  -17.6714   20.1916 H   0  0  0  0  0  0
  -29.3112  -17.0705   15.8243 H   0  0  0  0  0  0
  -30.0163  -22.8899   13.3385 H   0  0  0  0  0  0
  -30.7577  -22.9896   14.9012 H   0  0  0  0  0  0
  -27.0969  -21.5345   16.1032 H   0  0  0  0  0  0
  -27.4600  -20.8974   14.5449 H   0  0  0  0  0  0
  -31.4743  -20.9345   13.9424 H   0  0  0  0  0  0
  -29.8546  -20.4398   13.5081 H   0  0  0  0  0  0
  -28.4407  -19.2727   15.6977 H   0  0  0  0  0  0
  -28.8070  -20.2340   17.1023 H   0  0  0  0  0  0
  -27.9653  -23.0345   14.1823 H   0  0  0  0  0  0
  -28.1148  -15.9202   21.3088 H   0  0  0  0  0  0
  -29.2272  -17.2742   21.3389 H   0  0  0  0  0  0
  -29.5747  -15.8423   22.3019 H   0  0  0  0  0  0
  -30.9403  -18.4891   14.8064 H   0  0  0  0  0  0
  -32.1542  -19.3517   15.7159 H   0  0  0  0  0  0
  -28.8904  -27.9562   18.3788 H   0  0  0  0  0  0
  -30.2000  -27.0626   19.0947 H   0  0  0  0  0  0
  -30.7104  -20.9689   16.2465 H   0  0  0  0  0  0
  1 25  1  0  0  0
  1 30  2  0  0  0
  1 91  1  0  0  0
  2  3  1  0  0  0
  2 25  1  0  0  0
  2 94  1  0  0  0
  2 95  1  0  0  0
  3  4  1  0  0  0
  3 96  1  0  0  0
  3 97  1  0  0  0
  4  5  1  0  0  0
  4 98  1  0  0  0
  4 99  1  0  0  0
  5  6  1  0  0  0
  5 26  1  0  0  0
  5100  1  0  0  0
  6 25  1  0  0  0
  6101  1  0  0  0
  6102  1  0  0  0
  7  8  2  0  0  0
  7 26  1  0  0  0
  7 29  1  0  0  0
  8  9  1  0  0  0
  8 22  1  0  0  0
  9 10  1  0  0  0
  9 27  2  0  0  0
 10 11  2  0  0  0
 10 15  1  0  0  0
 11 12  1  0  0  0
 11103  1  0  0  0
 12 13  2  0  0  0
 12104  1  0  0  0
 13 14  1  0  0  0
 13 31  1  0  0  0
 14 15  2  0  0  0
 14105  1  0  0  0
 15106  1  0  0  0
 16 17  2  0  0  0
 16 21  1  0  0  0
 16 31  1  0  0  0
 17 18  1  0  0  0
 17107  1  0  0  0
 18 19  2  0  0  0
 18108  1  0  0  0
 19 20  1  0  0  0
 19 24  1  0  0  0
 20 21  2  0  0  0
 20109  1  0  0  0
 21 23  1  0  0  0
 22 28  1  0  0  0
 22 32  2  0  0  0
 26 27  1  0  0  0
 28110  1  0  0  0
 28111  1  0  0  0
 29112  1  0  0  0
 29113  1  0  0  0
 33 34  1  0  0  0
 33 66  1  0  0  0
 33 70  2  0  0  0
 34 36  1  0  0  0
 34 59  1  0  0  0
 34114  1  0  0  0
 35 44  2  0  0  0
 35 45  1  0  0  0
 35 68  1  0  0  0
 36 56  1  0  0  0
 36115  1  0  0  0
 37 39  1  0  0  0
 37 47  1  0  0  0
 37 66  1  0  0  0
 37116  1  0  0  0
 38 43  2  0  0  0
 38 46  1  0  0  0
 38 47  1  0  0  0
 39 64  1  0  0  0
 39 67  2  0  0  0
 40 52  1  0  0  0
 40 53  2  0  0  0
 40 58  1  0  0  0
 41117  1  0  0  0
 41118  1  0  0  0
 41119  1  0  0  0
 41 48  1  0  0  0
 42 43  1  0  0  0
 42 66  1  0  0  0
 42120  1  0  0  0
 42121  1  0  0  0
 43 44  1  0  0  0
 44122  1  0  0  0
 45 46  2  0  0  0
 45123  1  0  0  0
 46124  1  0  0  0
 47125  1  0  0  0
 47126  1  0  0  0
 48 56  1  0  0  0
 48 65  1  0  0  0
 48127  1  0  0  0
 49 50  1  0  0  0
 49 53  1  0  0  0
 49 64  1  0  0  0
 49128  1  0  0  0
 50 51  1  0  0  0
 50129  1  0  0  0
 50130  1  0  0  0
 51 52  1  0  0  0
 51131  1  0  0  0
 51132  1  0  0  0
 52133  1  0  0  0
 52134  1  0  0  0
 53 54  1  0  0  0
 54 55  2  0  0  0
 54135  1  0  0  0
 55 57  1  0  0  0
 55136  1  0  0  0
 56 69  2  0  0  0
 57 58  2  0  0  0
 57137  1  0  0  0
 58138  1  0  0  0
 59 60  1  0  0  0
 59 61  1  0  0  0
 59 62  1  0  0  0
 60139  1  0  0  0
 60140  1  0  0  0
 60141  1  0  0  0
 61142  1  0  0  0
 61143  1  0  0  0
 61144  1  0  0  0
 62145  1  0  0  0
 62146  1  0  0  0
 62147  1  0  0  0
 63 65  1  0  0  0
 63148  1  0  0  0
 63149  1  0  0  0
 63150  1  0  0  0
 64151  1  0  0  0
 65152  1  0  0  0
 68 90  1  0  0  0
 71 73  2  0  0  0
 71 78  1  0  0  0
 71153  1  0  0  0
 72 74  1  0  0  0
 72 78  2  0  0  0
 72154  1  0  0  0
 73 79  1  0  0  0
 73155  1  0  0  0
 74 79  2  0  0  0
 74156  1  0  0  0
 75 76  2  0  0  0
 75 80  1  0  0  0
 75157  1  0  0  0
 76 81  1  0  0  0
 76158  1  0  0  0
 77 80  2  0  0  0
 77 82  1  0  0  0
 77159  1  0  0  0
 78 87  1  0  0  0
 79 90  1  0  0  0
 80 89  1  0  0  0
 81 82  2  0  0  0
 81 91  1  0  0  0
 82 93  1  0  0  0
 83 85  1  0  0  0
 83 87  1  0  0  0
 83160  1  0  0  0
 83161  1  0  0  0
 84 86  1  0  0  0
 84 87  1  0  0  0
 84162  1  0  0  0
 84163  1  0  0  0
 85 92  1  0  0  0
 85164  1  0  0  0
 85165  1  0  0  0
 86 92  1  0  0  0
 86166  1  0  0  0
 86167  1  0  0  0
 87168  1  0  0  0
 88 91  1  0  0  0
 88169  1  0  0  0
 88170  1  0  0  0
 88171  1  0  0  0
 89172  1  0  0  0
 89173  1  0  0  0
 89 92  1  0  0  0
 90174  1  0  0  0
 90175  1  0  0  0
 92176  1  0  0  0
M  CHG  1  92   1
M  ISO  4   1 100  68 101  90 101  91 100
M  END
> <chiral flag>
0

> <version>
0

> <s_m_source_file>
/data/baiqing/PycharmProjects/Reinvent-master-3.2/result/LINK_invent/BTK/process_docking_weight1_custom_product_contain_oxygen_bond_distance_aromatic_linkinvent_7_9_3/rearranged_h_0014.sdf

> <i_m_source_file_index>
18

> <r_mmod_Potential_Energy-OPLS-2005>
133.346588134766

> <r_mmod_Stretch_Energy-OPLS-2005>
39.1472930908203

> <r_mmod_Bend_Energy-OPLS-2005>
112.686424255371

> <r_mmod_Torsional_Energy-OPLS-2005>
419.600982666016

> <r_mmod_Improper_Torsional_Energy-OPLS-2005>
14.3961353302002

> <r_mmod_Van_der_Waal_Energy-OPLS-2005>
178.694213867188

> <r_mmod_Electrostatic_Energy-OPLS-2005>
-219.373168945312

> <r_mmod_Solvation_Energy-OPLS-2005>
-437.736267089844

> <b_mmod_Minimization_Converged-OPLS-2005>
0

> <r_mmod_RMS_Derivative-OPLS-2005>
3.91214752197266

$$$$
18
                    3D
 Structure written by MMmdl.
162170  0  0  1  0            999 V2000
  -30.7442  -14.3526   20.6796 C   0  0  0  0  0  0
  -30.4284  -12.2796   19.3837 C   0  0  0  0  0  0
  -29.4861  -12.5314   18.1897 C   0  0  0  0  0  0
  -28.0084  -12.3928   18.6036 C   0  0  0  0  0  0
  -27.6745  -13.1974   19.8867 C   0  0  2  0  0  0
  -28.7118  -12.8963   20.9907 C   0  0  0  0  0  0
  -25.2645  -13.8161   20.5657 C   0  0  0  0  0  0
  -24.1869  -13.0450   20.9146 C   0  0  0  0  0  0
  -24.6400  -11.6913   20.8712 C   0  0  0  0  0  0
  -23.9054  -10.4296   21.0402 C   0  0  0  0  0  0
  -24.3611   -9.4209   21.9177 C   0  0  0  0  0  0
  -23.6293   -8.2241   22.0747 C   0  0  0  0  0  0
  -22.4276   -8.0282   21.3542 C   0  0  0  0  0  0
  -21.9910   -9.0255   20.4649 C   0  0  0  0  0  0
  -22.7228  -10.2135   20.3050 C   0  0  0  0  0  0
  -21.6843   -6.0744   22.5277 C   0  0  0  0  0  0
  -21.4009   -6.5642   23.8216 C   0  0  0  0  0  0
  -21.3652   -5.6788   24.9176 C   0  0  0  0  0  0
  -21.6036   -4.3053   24.7213 C   0  0  0  0  0  0
  -21.8821   -3.8153   23.4333 C   0  0  0  0  0  0
  -21.9198   -4.6976   22.3395 C   0  0  0  0  0  0
  -22.7880  -13.5253   21.1814 C   0  0  0  0  0  0
  -22.1669   -4.2167   21.0972 F   0  0  0  0  0  0
  -21.5623   -3.4531   25.7723 F   0  0  0  0  0  0
  -30.0620  -13.1977   20.4696 N   0  0  0  0  0  0
  -26.3099  -12.9312   20.3415 N   0  0  0  0  0  0
  -25.9331  -11.6477   20.5755 N   0  0  0  0  0  0
  -22.0512  -12.8266   22.0374 N   0  0  0  0  0  0
  -25.4377  -15.1878   20.4061 N   0  0  0  0  0  0
  -31.7518  -14.6848   20.0458 O   0  0  0  0  0  0
  -21.6632   -6.8890   21.4240 O   0  0  0  0  0  0
  -22.3564  -14.5555   20.6656 O   0  0  0  0  0  0
  -24.6112  -31.8705   23.2126 C   0  0  0  0  0  0
  -25.9032  -32.4832   23.8400 C   0  0  1  0  0  0
  -27.2418  -27.4801   20.0841 C   0  0  0  0  0  0
  -25.5906  -33.8629   24.2333 N   0  0  0  0  0  0
  -23.3957  -30.4952   21.5519 C   0  0  2  0  0  0
  -24.8424  -28.9607   20.1188 C   0  0  0  0  0  0
  -22.7379  -29.4689   22.5008 C   0  0  0  0  0  0
  -18.0280  -28.1374   22.8470 C   0  0  0  0  0  0
  -24.1484  -36.7315   23.2633 C   0  0  0  0  0  0
  -25.9200  -30.8482   21.3596 C   0  0  0  0  0  0
  -25.9986  -29.4845   20.7108 C   0  0  0  0  0  0
  -27.2013  -28.7491   20.6950 C   0  0  0  0  0  0
  -26.0727  -26.9581   19.4902 C   0  0  0  0  0  0
  -24.8714  -27.6918   19.5107 C   0  0  0  0  0  0
  -23.6026  -29.8235   20.1667 C   0  0  0  0  0  0
  -25.4103  -36.3111   24.0341 C   0  0  1  0  0  0
  -20.5864  -28.3650   23.1311 C   0  0  2  0  0  0
  -20.6780  -26.9398   22.5397 C   0  0  0  0  0  0
  -19.5750  -26.6341   21.5214 C   0  0  0  0  0  0
  -18.1919  -26.7924   22.1588 C   0  0  0  0  0  0
  -19.1531  -28.8818   23.2901 C   0  0  0  0  0  0
  -18.9458  -30.1415   23.8944 C   0  0  0  0  0  0
  -17.6462  -30.6555   24.0612 C   0  0  0  0  0  0
  -25.9033  -34.9480   23.5128 C   0  0  0  0  0  0
  -16.5357  -29.9076   23.6327 C   0  0  0  0  0  0
  -16.7281  -28.6499   23.0330 C   0  0  0  0  0  0
  -26.4486  -31.6590   25.0702 C   0  0  0  0  0  0
  -25.3783  -31.3687   26.1469 C   0  0  0  0  0  0
  -27.0287  -30.3027   24.6036 C   0  0  0  0  0  0
  -27.6055  -32.4307   25.7472 C   0  0  0  0  0  0
  -27.5579  -37.1804   24.8466 C   0  0  0  0  0  0
  -21.4112  -29.3047   22.3739 N   0  0  0  0  0  0
  -26.4283  -37.3801   23.9418 N   0  0  0  0  0  0
  -24.6600  -31.0851   22.1003 N   0  0  0  0  0  0
  -23.4168  -28.8226   23.3029 O   0  0  0  0  0  0
  -28.4210  -26.7787   20.0523 O   0  0  0  0  0  0
  -26.5585  -34.8931   22.4681 O   0  0  0  0  0  0
  -23.5318  -32.1438   23.7550 O   0  0  0  0  0  0
  -28.9155  -18.2611   20.1349 C   0  0  0  0  0  0
  -27.5582  -17.6210   22.0575 C   0  0  0  0  0  0
  -29.7771  -17.1751   20.3804 C   0  0  0  0  0  0
  -28.4151  -16.5338   22.3009 C   0  0  0  0  0  0
  -27.7897  -18.4739   20.9594 C   0  0  0  0  0  0
  -29.5102  -16.2857   21.4471 C   0  0  0  0  0  0
  -26.2010  -21.0895   22.5150 C   0  0  0  0  0  0
  -26.8236  -19.6036   20.6597 C   0  0  0  0  0  0
  -27.9554  -23.2353   21.2935 C   0  0  0  0  0  0
  -28.2826  -24.3672   20.3092 C   0  0  0  0  0  0
  -27.4729  -21.9707   20.5560 C   0  0  0  0  0  0
  -28.4958  -25.7203   21.0012 C   0  0  0  0  0  0
  -30.2582  -15.1060   21.6734 N   0  0  0  0  0  0
  -27.1839  -20.8112   21.4395 N   0  3  1  0  0  0
  -31.4669  -12.4004   19.0724 H   0  0  0  0  0  0
  -30.3422  -11.2487   19.7293 H   0  0  0  0  0  0
  -29.7131  -11.8364   17.3801 H   0  0  0  0  0  0
  -29.6599  -13.5321   17.7913 H   0  0  0  0  0  0
  -27.8044  -11.3339   18.7617 H   0  0  0  0  0  0
  -27.3572  -12.7069   17.7872 H   0  0  0  0  0  0
  -27.7446  -14.2566   19.6394 H   0  0  0  0  0  0
  -28.6667  -11.8414   21.2668 H   0  0  0  0  0  0
  -28.4593  -13.4337   21.9039 H   0  0  0  0  0  0
  -25.2754   -9.5687   22.4754 H   0  0  0  0  0  0
  -23.9995   -7.4636   22.7468 H   0  0  0  0  0  0
  -21.0834   -8.8773   19.8968 H   0  0  0  0  0  0
  -22.3680  -10.9673   19.6162 H   0  0  0  0  0  0
  -21.1991   -7.6153   23.9727 H   0  0  0  0  0  0
  -21.1473   -6.0516   25.9081 H   0  0  0  0  0  0
  -22.0612   -2.7618   23.2821 H   0  0  0  0  0  0
  -22.4113  -11.9934   22.4784 H   0  0  0  0  0  0
  -21.1129  -13.1310   22.2567 H   0  0  0  0  0  0
  -24.6770  -15.8465   20.5298 H   0  0  0  0  0  0
  -26.3091  -15.6322   20.1438 H   0  0  0  0  0  0
  -26.7109  -32.5571   23.1174 H   0  0  0  0  0  0
  -25.0101  -33.9792   25.0507 H   0  0  0  0  0  0
  -22.6825  -31.3107   21.4135 H   0  0  0  0  0  0
  -23.3746  -35.9647   23.3308 H   0  0  0  0  0  0
  -24.3575  -36.8905   22.2042 H   0  0  0  0  0  0
  -23.7240  -37.6530   23.6633 H   0  0  0  0  0  0
  -26.0244  -31.6135   20.5898 H   0  0  0  0  0  0
  -26.8108  -30.9031   21.9728 H   0  0  0  0  0  0
  -28.0968  -29.1532   21.1457 H   0  0  0  0  0  0
  -26.0837  -25.9989   18.9955 H   0  0  0  0  0  0
  -23.9839  -27.2832   19.0474 H   0  0  0  0  0  0
  -23.7089  -30.5965   19.4036 H   0  0  0  0  0  0
  -22.7270  -29.2391   19.8770 H   0  0  0  0  0  0
  -25.1281  -36.1969   25.0836 H   0  0  0  0  0  0
  -20.9967  -28.3212   24.1433 H   0  0  0  0  0  0
  -20.5715  -26.2270   23.3581 H   0  0  0  0  0  0
  -21.6645  -26.7434   22.1176 H   0  0  0  0  0  0
  -19.6697  -27.3104   20.6700 H   0  0  0  0  0  0
  -19.6908  -25.6221   21.1309 H   0  0  0  0  0  0
  -17.4224  -26.6693   21.3946 H   0  0  0  0  0  0
  -18.0269  -26.0042   22.8955 H   0  0  0  0  0  0
  -19.7952  -30.7199   24.2338 H   0  0  0  0  0  0
  -17.5027  -31.6217   24.5258 H   0  0  0  0  0  0
  -15.5358  -30.2974   23.7634 H   0  0  0  0  0  0
  -15.8687  -28.0829   22.7016 H   0  0  0  0  0  0
  -24.5969  -30.6997   25.7845 H   0  0  0  0  0  0
  -24.8964  -32.2839   26.4918 H   0  0  0  0  0  0
  -25.8175  -30.8889   27.0219 H   0  0  0  0  0  0
  -26.2784  -29.6801   24.1133 H   0  0  0  0  0  0
  -27.4113  -29.7245   25.4458 H   0  0  0  0  0  0
  -27.8613  -30.4347   23.9117 H   0  0  0  0  0  0
  -27.2655  -33.3585   26.2084 H   0  0  0  0  0  0
  -28.3855  -32.6887   25.0301 H   0  0  0  0  0  0
  -28.0735  -31.8409   26.5363 H   0  0  0  0  0  0
  -28.2605  -38.0094   24.7519 H   0  0  0  0  0  0
  -28.1059  -36.2625   24.6280 H   0  0  0  0  0  0
  -27.2295  -37.1456   25.8867 H   0  0  0  0  0  0
  -20.9252  -29.8802   21.7001 H   0  0  0  0  0  0
  -26.0172  -38.2872   24.1438 H   0  0  0  0  0  0
  -29.1178  -18.9145   19.2966 H   0  0  0  0  0  0
  -26.7068  -17.7779   22.7049 H   0  0  0  0  0  0
  -30.6210  -17.0227   19.7216 H   0  0  0  0  0  0
  -28.1989  -15.8715   23.1274 H   0  0  0  0  0  0
  -25.9696  -20.1858   23.0786 H   0  0  0  0  0  0
  -25.2689  -21.4771   22.1037 H   0  0  0  0  0  0
  -26.5833  -21.8128   23.2338 H   0  0  0  0  0  0
  -25.8057  -19.2736   20.8727 H   0  0  0  0  0  0
  -26.8350  -19.8004   19.5866 H   0  0  0  0  0  0
  -27.1748  -23.5839   21.9691 H   0  0  0  0  0  0
  -28.8281  -23.0150   21.9089 H   0  0  0  0  0  0
  -27.4656  -24.4463   19.5952 H   0  0  0  0  0  0
  -29.1671  -24.1145   19.7222 H   0  0  0  0  0  0
  -28.2425  -21.6720   19.8407 H   0  0  0  0  0  0
  -26.5811  -22.2069   19.9722 H   0  0  0  0  0  0
  -29.4806  -25.7421   21.4688 H   0  0  0  0  0  0
  -27.7729  -25.8633   21.8083 H   0  0  0  0  0  0
  -29.8575  -14.5344   22.4018 H   0  0  0  0  0  0
  -28.0499  -20.5691   21.8969 H   0  0  0  0  0  0
  1 25  1  0  0  0
  1 30  2  0  0  0
  1 83  1  0  0  0
  2  3  1  0  0  0
  2 25  1  0  0  0
  2 85  1  0  0  0
  2 86  1  0  0  0
  3  4  1  0  0  0
  3 87  1  0  0  0
  3 88  1  0  0  0
  4  5  1  0  0  0
  4 89  1  0  0  0
  4 90  1  0  0  0
  5  6  1  0  0  0
  5 26  1  0  0  0
  5 91  1  0  0  0
  6 25  1  0  0  0
  6 92  1  0  0  0
  6 93  1  0  0  0
  7  8  2  0  0  0
  7 26  1  0  0  0
  7 29  1  0  0  0
  8  9  1  0  0  0
  8 22  1  0  0  0
  9 10  1  0  0  0
  9 27  2  0  0  0
 10 11  2  0  0  0
 10 15  1  0  0  0
 11 12  1  0  0  0
 11 94  1  0  0  0
 12 13  2  0  0  0
 12 95  1  0  0  0
 13 14  1  0  0  0
 13 31  1  0  0  0
 14 15  2  0  0  0
 14 96  1  0  0  0
 15 97  1  0  0  0
 16 17  2  0  0  0
 16 21  1  0  0  0
 16 31  1  0  0  0
 17 18  1  0  0  0
 17 98  1  0  0  0
 18 19  2  0  0  0
 18 99  1  0  0  0
 19 20  1  0  0  0
 19 24  1  0  0  0
 20 21  2  0  0  0
 20100  1  0  0  0
 21 23  1  0  0  0
 22 28  1  0  0  0
 22 32  2  0  0  0
 26 27  1  0  0  0
 28101  1  0  0  0
 28102  1  0  0  0
 29103  1  0  0  0
 29104  1  0  0  0
 33 34  1  0  0  0
 33 66  1  0  0  0
 33 70  2  0  0  0
 34 36  1  0  0  0
 34 59  1  0  0  0
 34105  1  0  0  0
 35 44  2  0  0  0
 35 45  1  0  0  0
 35 68  1  0  0  0
 36 56  1  0  0  0
 36106  1  0  0  0
 37 39  1  0  0  0
 37 47  1  0  0  0
 37 66  1  0  0  0
 37107  1  0  0  0
 38 43  2  0  0  0
 38 46  1  0  0  0
 38 47  1  0  0  0
 39 64  1  0  0  0
 39 67  2  0  0  0
 40 52  1  0  0  0
 40 53  2  0  0  0
 40 58  1  0  0  0
 41108  1  0  0  0
 41109  1  0  0  0
 41110  1  0  0  0
 41 48  1  0  0  0
 42 43  1  0  0  0
 42 66  1  0  0  0
 42111  1  0  0  0
 42112  1  0  0  0
 43 44  1  0  0  0
 44113  1  0  0  0
 45 46  2  0  0  0
 45114  1  0  0  0
 46115  1  0  0  0
 47116  1  0  0  0
 47117  1  0  0  0
 48 56  1  0  0  0
 48 65  1  0  0  0
 48118  1  0  0  0
 49 50  1  0  0  0
 49 53  1  0  0  0
 49 64  1  0  0  0
 49119  1  0  0  0
 50 51  1  0  0  0
 50120  1  0  0  0
 50121  1  0  0  0
 51 52  1  0  0  0
 51122  1  0  0  0
 51123  1  0  0  0
 52124  1  0  0  0
 52125  1  0  0  0
 53 54  1  0  0  0
 54 55  2  0  0  0
 54126  1  0  0  0
 55 57  1  0  0  0
 55127  1  0  0  0
 56 69  2  0  0  0
 57 58  2  0  0  0
 57128  1  0  0  0
 58129  1  0  0  0
 59 60  1  0  0  0
 59 61  1  0  0  0
 59 62  1  0  0  0
 60130  1  0  0  0
 60131  1  0  0  0
 60132  1  0  0  0
 61133  1  0  0  0
 61134  1  0  0  0
 61135  1  0  0  0
 62136  1  0  0  0
 62137  1  0  0  0
 62138  1  0  0  0
 63 65  1  0  0  0
 63139  1  0  0  0
 63140  1  0  0  0
 63141  1  0  0  0
 64142  1  0  0  0
 65143  1  0  0  0
 68 82  1  0  0  0
 71 73  2  0  0  0
 71 75  1  0  0  0
 71144  1  0  0  0
 72 74  1  0  0  0
 72 75  2  0  0  0
 72145  1  0  0  0
 73 76  1  0  0  0
 73146  1  0  0  0
 74 76  2  0  0  0
 74147  1  0  0  0
 75 78  1  0  0  0
 76 83  1  0  0  0
 77148  1  0  0  0
 77149  1  0  0  0
 77150  1  0  0  0
 77 84  1  0  0  0
 78 84  1  0  0  0
 78151  1  0  0  0
 78152  1  0  0  0
 79 80  1  0  0  0
 79 81  1  0  0  0
 79153  1  0  0  0
 79154  1  0  0  0
 80 82  1  0  0  0
 80155  1  0  0  0
 80156  1  0  0  0
 81 84  1  0  0  0
 81157  1  0  0  0
 81158  1  0  0  0
 82159  1  0  0  0
 82160  1  0  0  0
 83161  1  0  0  0
 84162  1  0  0  0
M  CHG  1  84   1
M  ISO  4   1 100  68 101  82 101  83 100
M  END
> <chiral flag>
0

> <version>
0

> <s_m_source_file>
/data/baiqing/PycharmProjects/Reinvent-master-3.2/result/LINK_invent/BTK/process_docking_weight1_custom_product_contain_oxygen_bond_distance_aromatic_linkinvent_7_9_3/rearranged_h_0014.sdf

> <i_m_source_file_index>
19

> <r_mmod_Potential_Energy-OPLS-2005>
-162.451797485352

> <r_mmod_Stretch_Energy-OPLS-2005>
31.2983951568604

> <r_mmod_Bend_Energy-OPLS-2005>
90.1419525146484

> <r_mmod_Torsional_Energy-OPLS-2005>
266.076354980469

> <r_mmod_Improper_Torsional_Energy-OPLS-2005>
5.99076080322266

> <r_mmod_Van_der_Waal_Energy-OPLS-2005>
148.191360473633

> <r_mmod_Electrostatic_Energy-OPLS-2005>
-261.635681152344

> <r_mmod_Solvation_Energy-OPLS-2005>
-449.375183105469

> <b_mmod_Minimization_Converged-OPLS-2005>
0

> <r_mmod_RMS_Derivative-OPLS-2005>
2.16217446327209

$$$$
19
                    3D
 Structure written by MMmdl.
158166  0  0  1  0            999 V2000
  -30.6857  -14.6708   20.3059 C   0  0  0  0  0  0
  -30.4184  -12.3724   19.4198 C   0  0  0  0  0  0
  -29.4656  -12.3561   18.2044 C   0  0  0  0  0  0
  -28.0018  -12.2577   18.6593 C   0  0  0  0  0  0
  -27.6389  -13.2188   19.8257 C   0  0  2  0  0  0
  -28.7130  -13.2137   20.9351 C   0  0  0  0  0  0
  -25.2530  -13.8249   20.5705 C   0  0  0  0  0  0
  -24.1823  -13.0485   20.9155 C   0  0  0  0  0  0
  -24.6417  -11.6948   20.8774 C   0  0  0  0  0  0
  -23.9070  -10.4298   21.0399 C   0  0  0  0  0  0
  -24.3625   -9.4201   21.9186 C   0  0  0  0  0  0
  -23.6290   -8.2239   22.0769 C   0  0  0  0  0  0
  -22.4274   -8.0275   21.3559 C   0  0  0  0  0  0
  -21.9890   -9.0233   20.4655 C   0  0  0  0  0  0
  -22.7228  -10.2110   20.3057 C   0  0  0  0  0  0
  -21.6876   -6.0719   22.5252 C   0  0  0  0  0  0
  -21.4032   -6.5614   23.8173 C   0  0  0  0  0  0
  -21.3655   -5.6784   24.9140 C   0  0  0  0  0  0
  -21.6043   -4.3033   24.7197 C   0  0  0  0  0  0
  -21.8837   -3.8119   23.4320 C   0  0  0  0  0  0
  -21.9217   -4.6939   22.3372 C   0  0  0  0  0  0
  -22.7832  -13.5218   21.1769 C   0  0  0  0  0  0
  -22.1660   -4.2117   21.0960 F   0  0  0  0  0  0
  -21.5597   -3.4530   25.7709 F   0  0  0  0  0  0
  -29.9983  -13.4857   20.2878 N   0  0  0  0  0  0
  -26.2970  -12.9451   20.3333 N   0  0  0  0  0  0
  -25.9346  -11.6607   20.5840 N   0  0  0  0  0  0
  -22.0525  -12.8226   22.0345 N   0  0  0  0  0  0
  -25.4149  -15.1985   20.4155 N   0  0  0  0  0  0
  -31.9148  -14.6687   20.3745 O   0  0  0  0  0  0
  -21.6655   -6.8874   21.4228 O   0  0  0  0  0  0
  -22.3504  -14.5523   20.6612 O   0  0  0  0  0  0
  -24.6285  -31.8597   23.1983 C   0  0  0  0  0  0
  -25.9129  -32.4786   23.8329 C   0  0  1  0  0  0
  -27.2196  -27.3152   20.1134 C   0  0  0  0  0  0
  -25.5897  -33.8594   24.2252 N   0  0  0  0  0  0
  -23.4209  -30.4826   21.5431 C   0  0  2  0  0  0
  -24.8647  -28.9361   20.1108 C   0  0  0  0  0  0
  -22.7487  -29.4617   22.4940 C   0  0  0  0  0  0
  -18.0325  -28.1314   22.8405 C   0  0  0  0  0  0
  -24.1476  -36.7332   23.2632 C   0  0  0  0  0  0
  -25.9628  -30.7866   21.3678 C   0  0  0  0  0  0
  -26.0334  -29.4127   20.7136 C   0  0  0  0  0  0
  -27.2160  -28.6130   20.7093 C   0  0  0  0  0  0
  -26.0239  -26.8952   19.4801 C   0  0  0  0  0  0
  -24.8597  -27.6787   19.4903 C   0  0  0  0  0  0
  -23.6350  -29.8165   20.1588 C   0  0  0  0  0  0
  -25.4108  -36.3114   24.0318 C   0  0  1  0  0  0
  -20.5927  -28.3611   23.1241 C   0  0  2  0  0  0
  -20.6827  -26.9334   22.5291 C   0  0  0  0  0  0
  -19.5734  -26.6316   21.5102 C   0  0  0  0  0  0
  -18.1973  -26.7808   22.1618 C   0  0  0  0  0  0
  -19.1563  -28.8759   23.2914 C   0  0  0  0  0  0
  -18.9447  -30.1298   23.9068 C   0  0  0  0  0  0
  -17.6435  -30.6437   24.0656 C   0  0  0  0  0  0
  -25.9045  -34.9474   23.5102 C   0  0  0  0  0  0
  -16.5347  -29.9008   23.6248 C   0  0  0  0  0  0
  -16.7320  -28.6457   23.0211 C   0  0  0  0  0  0
  -26.4486  -31.6619   25.0726 C   0  0  0  0  0  0
  -25.3702  -31.3779   26.1423 C   0  0  0  0  0  0
  -27.0296  -30.3033   24.6193 C   0  0  0  0  0  0
  -27.6010  -32.4368   25.7527 C   0  0  0  0  0  0
  -27.5580  -37.1825   24.8470 C   0  0  0  0  0  0
  -21.4224  -29.2990   22.3651 N   0  0  0  0  0  0
  -26.4297  -37.3804   23.9410 N   0  0  0  0  0  0
  -24.6894  -31.0580   22.0949 N   0  0  0  0  0  0
  -23.4212  -28.8198   23.3044 O   0  0  0  0  0  0
  -28.3283  -26.4548   20.1781 O   0  0  0  0  0  0
  -26.5621  -34.8952   22.4680 O   0  0  0  0  0  0
  -23.5431  -32.1403   23.7289 O   0  0  0  0  0  0
  -29.2780  -17.4210   21.1751 C   0  0  0  0  0  0
  -29.0023  -18.7801   21.5178 C   0  0  0  0  0  0
  -30.0733  -18.1804   19.0583 C   0  0  0  0  0  0
  -29.8421  -17.0657   19.9276 C   0  0  0  0  0  0
  -29.3019  -19.9056   20.6746 C   0  0  0  0  0  0
  -29.8818  -19.5422   19.4239 C   0  0  0  0  0  0
  -30.6657  -15.5799   18.1245 C   0  0  0  0  0  0
  -28.7052  -21.4044   22.5272 C   0  0  0  0  0  0
  -29.0327  -23.8923   20.5465 C   0  0  0  0  0  0
  -28.5455  -22.3907   20.2540 C   0  0  0  0  0  0
  -28.0796  -25.0106   19.9581 C   0  0  0  0  0  0
  -30.1500  -15.6743   19.5139 N   0  0  0  0  0  0
  -29.0853  -21.2791   21.1143 N   0  0  0  0  0  0
  -30.4908  -20.7264   18.3158 Cl  0  0  0  0  0  0
  -31.4517  -12.4789   19.0849 H   0  0  0  0  0  0
  -30.3660  -11.4249   19.9606 H   0  0  0  0  0  0
  -29.7085  -11.5067   17.5621 H   0  0  0  0  0  0
  -29.5704  -13.2287   17.5692 H   0  0  0  0  0  0
  -27.8449  -11.2277   18.9798 H   0  0  0  0  0  0
  -27.3275  -12.4073   17.8140 H   0  0  0  0  0  0
  -27.6153  -14.2193   19.3938 H   0  0  0  0  0  0
  -28.7495  -12.2617   21.4648 H   0  0  0  0  0  0
  -28.5030  -13.9824   21.6833 H   0  0  0  0  0  0
  -25.2802   -9.5648   22.4728 H   0  0  0  0  0  0
  -24.0011   -7.4652   22.7498 H   0  0  0  0  0  0
  -21.0826   -8.8735   19.8967 H   0  0  0  0  0  0
  -22.3716  -10.9625   19.6113 H   0  0  0  0  0  0
  -21.2027   -7.6127   23.9636 H   0  0  0  0  0  0
  -21.1460   -6.0524   25.9034 H   0  0  0  0  0  0
  -22.0641   -2.7581   23.2832 H   0  0  0  0  0  0
  -22.4253  -11.9968   22.4818 H   0  0  0  0  0  0
  -21.1085  -13.1126   22.2462 H   0  0  0  0  0  0
  -24.6393  -15.8398   20.5523 H   0  0  0  0  0  0
  -26.2762  -15.6577   20.1514 H   0  0  0  0  0  0
  -26.7253  -32.5480   23.1106 H   0  0  0  0  0  0
  -25.0042  -33.9740   25.0395 H   0  0  0  0  0  0
  -22.7159  -31.3046   21.4015 H   0  0  0  0  0  0
  -23.3719  -35.9687   23.3318 H   0  0  0  0  0  0
  -24.3549  -36.8922   22.2041 H   0  0  0  0  0  0
  -23.7238  -37.6549   23.6640 H   0  0  0  0  0  0
  -26.0845  -31.5412   20.5868 H   0  0  0  0  0  0
  -26.8475  -30.8459   21.9902 H   0  0  0  0  0  0
  -28.1103  -28.9726   21.2011 H   0  0  0  0  0  0
  -25.9505  -25.9378   18.9859 H   0  0  0  0  0  0
  -23.9650  -27.2943   19.0206 H   0  0  0  0  0  0
  -23.7633  -30.5882   19.4000 H   0  0  0  0  0  0
  -22.7574  -29.2441   19.8543 H   0  0  0  0  0  0
  -25.1284  -36.1982   25.0809 H   0  0  0  0  0  0
  -21.0064  -28.3156   24.1328 H   0  0  0  0  0  0
  -20.5780  -26.2180   23.3446 H   0  0  0  0  0  0
  -21.6682  -26.7439   22.0956 H   0  0  0  0  0  0
  -19.6882  -25.6221   21.1185 H   0  0  0  0  0  0
  -19.6596  -27.3040   20.6549 H   0  0  0  0  0  0
  -17.4135  -26.6435   21.4128 H   0  0  0  0  0  0
  -18.0534  -25.9962   22.9098 H   0  0  0  0  0  0
  -19.7871  -30.7033   24.2672 H   0  0  0  0  0  0
  -17.4931  -31.6042   24.5387 H   0  0  0  0  0  0
  -15.5325  -30.2907   23.7473 H   0  0  0  0  0  0
  -15.8769  -28.0806   22.6813 H   0  0  0  0  0  0
  -24.5884  -30.7111   25.7769 H   0  0  0  0  0  0
  -24.8871  -32.2946   26.4827 H   0  0  0  0  0  0
  -25.7999  -30.8991   27.0225 H   0  0  0  0  0  0
  -26.2877  -29.6815   24.1154 H   0  0  0  0  0  0
  -27.3895  -29.7266   25.4724 H   0  0  0  0  0  0
  -27.8801  -30.4289   23.9481 H   0  0  0  0  0  0
  -27.2588  -33.3656   26.2108 H   0  0  0  0  0  0
  -28.3835  -32.6943   25.0387 H   0  0  0  0  0  0
  -28.0664  -31.8495   26.5439 H   0  0  0  0  0  0
  -28.2619  -38.0097   24.7476 H   0  0  0  0  0  0
  -28.1036  -36.2620   24.6347 H   0  0  0  0  0  0
  -27.2285  -37.1561   25.8867 H   0  0  0  0  0  0
  -20.9497  -29.8667   21.6789 H   0  0  0  0  0  0
  -26.0177  -38.2893   24.1380 H   0  0  0  0  0  0
  -29.0341  -16.6552   21.8973 H   0  0  0  0  0  0
  -28.5484  -18.9204   22.4859 H   0  0  0  0  0  0
  -30.4545  -18.0481   18.0604 H   0  0  0  0  0  0
  -29.8810  -15.8031   17.3989 H   0  0  0  0  0  0
  -31.5002  -16.2610   17.9640 H   0  0  0  0  0  0
  -31.0844  -14.6121   17.8527 H   0  0  0  0  0  0
  -28.6183  -22.4374   22.8636 H   0  0  0  0  0  0
  -29.4331  -20.9236   23.1871 H   0  0  0  0  0  0
  -27.7306  -20.9439   22.7044 H   0  0  0  0  0  0
  -30.0487  -24.0286   20.1708 H   0  0  0  0  0  0
  -29.1075  -24.0757   21.6195 H   0  0  0  0  0  0
  -28.6439  -22.1896   19.1887 H   0  0  0  0  0  0
  -27.4669  -22.3757   20.4099 H   0  0  0  0  0  0
  -27.1180  -24.7643   20.4086 H   0  0  0  0  0  0
  -27.9728  -24.8389   18.8862 H   0  0  0  0  0  0
  1 25  1  0  0  0
  1 30  2  0  0  0
  1 82  1  0  0  0
  2  3  1  0  0  0
  2 25  1  0  0  0
  2 85  1  0  0  0
  2 86  1  0  0  0
  3  4  1  0  0  0
  3 87  1  0  0  0
  3 88  1  0  0  0
  4  5  1  0  0  0
  4 89  1  0  0  0
  4 90  1  0  0  0
  5  6  1  0  0  0
  5 26  1  0  0  0
  5 91  1  0  0  0
  6 25  1  0  0  0
  6 92  1  0  0  0
  6 93  1  0  0  0
  7  8  2  0  0  0
  7 26  1  0  0  0
  7 29  1  0  0  0
  8  9  1  0  0  0
  8 22  1  0  0  0
  9 10  1  0  0  0
  9 27  2  0  0  0
 10 11  2  0  0  0
 10 15  1  0  0  0
 11 12  1  0  0  0
 11 94  1  0  0  0
 12 13  2  0  0  0
 12 95  1  0  0  0
 13 14  1  0  0  0
 13 31  1  0  0  0
 14 15  2  0  0  0
 14 96  1  0  0  0
 15 97  1  0  0  0
 16 17  2  0  0  0
 16 21  1  0  0  0
 16 31  1  0  0  0
 17 18  1  0  0  0
 17 98  1  0  0  0
 18 19  2  0  0  0
 18 99  1  0  0  0
 19 20  1  0  0  0
 19 24  1  0  0  0
 20 21  2  0  0  0
 20100  1  0  0  0
 21 23  1  0  0  0
 22 28  1  0  0  0
 22 32  2  0  0  0
 26 27  1  0  0  0
 28101  1  0  0  0
 28102  1  0  0  0
 29103  1  0  0  0
 29104  1  0  0  0
 33 34  1  0  0  0
 33 66  1  0  0  0
 33 70  2  0  0  0
 34 36  1  0  0  0
 34 59  1  0  0  0
 34105  1  0  0  0
 35 44  2  0  0  0
 35 45  1  0  0  0
 35 68  1  0  0  0
 36 56  1  0  0  0
 36106  1  0  0  0
 37 39  1  0  0  0
 37 47  1  0  0  0
 37 66  1  0  0  0
 37107  1  0  0  0
 38 43  2  0  0  0
 38 46  1  0  0  0
 38 47  1  0  0  0
 39 64  1  0  0  0
 39 67  2  0  0  0
 40 52  1  0  0  0
 40 53  2  0  0  0
 40 58  1  0  0  0
 41108  1  0  0  0
 41109  1  0  0  0
 41110  1  0  0  0
 41 48  1  0  0  0
 42 43  1  0  0  0
 42 66  1  0  0  0
 42111  1  0  0  0
 42112  1  0  0  0
 43 44  1  0  0  0
 44113  1  0  0  0
 45 46  2  0  0  0
 45114  1  0  0  0
 46115  1  0  0  0
 47116  1  0  0  0
 47117  1  0  0  0
 48 56  1  0  0  0
 48 65  1  0  0  0
 48118  1  0  0  0
 49 50  1  0  0  0
 49 53  1  0  0  0
 49 64  1  0  0  0
 49119  1  0  0  0
 50 51  1  0  0  0
 50120  1  0  0  0
 50121  1  0  0  0
 51 52  1  0  0  0
 51122  1  0  0  0
 51123  1  0  0  0
 52124  1  0  0  0
 52125  1  0  0  0
 53 54  1  0  0  0
 54 55  2  0  0  0
 54126  1  0  0  0
 55 57  1  0  0  0
 55127  1  0  0  0
 56 69  2  0  0  0
 57 58  2  0  0  0
 57128  1  0  0  0
 58129  1  0  0  0
 59 60  1  0  0  0
 59 61  1  0  0  0
 59 62  1  0  0  0
 60130  1  0  0  0
 60131  1  0  0  0
 60132  1  0  0  0
 61133  1  0  0  0
 61134  1  0  0  0
 61135  1  0  0  0
 62136  1  0  0  0
 62137  1  0  0  0
 62138  1  0  0  0
 63 65  1  0  0  0
 63139  1  0  0  0
 63140  1  0  0  0
 63141  1  0  0  0
 64142  1  0  0  0
 65143  1  0  0  0
 68 81  1  0  0  0
 71 72  2  0  0  0
 71 74  1  0  0  0
 71144  1  0  0  0
 72 75  1  0  0  0
 72145  1  0  0  0
 73 74  2  0  0  0
 73 76  1  0  0  0
 73146  1  0  0  0
 74 82  1  0  0  0
 75 76  2  0  0  0
 75 83  1  0  0  0
 76 84  1  0  0  0
 77 82  1  0  0  0
 77147  1  0  0  0
 77148  1  0  0  0
 77149  1  0  0  0
 78 83  1  0  0  0
 78150  1  0  0  0
 78151  1  0  0  0
 78152  1  0  0  0
 79 80  1  0  0  0
 79 81  1  0  0  0
 79153  1  0  0  0
 79154  1  0  0  0
 80 83  1  0  0  0
 80155  1  0  0  0
 80156  1  0  0  0
 81157  1  0  0  0
 81158  1  0  0  0
M  ISO  4   1 100  68 101  81 101  82 100
M  END
> <chiral flag>
0

> <version>
0

> <s_m_source_file>
/data/baiqing/PycharmProjects/Reinvent-master-3.2/result/LINK_invent/BTK/process_docking_weight1_custom_product_contain_oxygen_bond_distance_aromatic_linkinvent_7_9_3/rearranged_h_0014.sdf

> <i_m_source_file_index>
20

> <r_mmod_Potential_Energy-OPLS-2005>
388.909484863281

> <r_mmod_Stretch_Energy-OPLS-2005>
95.3543701171875

> <r_mmod_Bend_Energy-OPLS-2005>
169.842971801758

> <r_mmod_Torsional_Energy-OPLS-2005>
294.858856201172

> <r_mmod_Improper_Torsional_Energy-OPLS-2005>
35.1636009216309

> <r_mmod_Van_der_Waal_Energy-OPLS-2005>
179.063919067383

> <r_mmod_Electrostatic_Energy-OPLS-2005>
-261.021118164062

> <r_mmod_Solvation_Energy-OPLS-2005>
-212.540771484375

> <b_mmod_Minimization_Converged-OPLS-2005>
0

> <r_mmod_RMS_Derivative-OPLS-2005>
6.38459062576294

$$$$
20
                    3D
 Structure written by MMmdl.
161170  0  0  1  0            999 V2000
  -30.5425  -14.9987   20.3463 C   0  0  0  0  0  0
  -30.4466  -12.6055   19.4770 C   0  0  0  0  0  0
  -29.5083  -12.3949   18.2595 C   0  0  0  0  0  0
  -28.0400  -12.2534   18.6944 C   0  0  0  0  0  0
  -27.6210  -13.2409   19.8150 C   0  0  2  0  0  0
  -28.6750  -13.3338   20.9355 C   0  0  0  0  0  0
  -25.2464  -13.8234   20.5738 C   0  0  0  0  0  0
  -24.1763  -13.0464   20.9241 C   0  0  0  0  0  0
  -24.6367  -11.6947   20.8792 C   0  0  0  0  0  0
  -23.9059  -10.4311   21.0431 C   0  0  0  0  0  0
  -24.3615   -9.4218   21.9194 C   0  0  0  0  0  0
  -23.6296   -8.2248   22.0753 C   0  0  0  0  0  0
  -22.4281   -8.0283   21.3543 C   0  0  0  0  0  0
  -21.9917   -9.0260   20.4650 C   0  0  0  0  0  0
  -22.7239  -10.2144   20.3069 C   0  0  0  0  0  0
  -21.6857   -6.0736   22.5276 C   0  0  0  0  0  0
  -21.4021   -6.5640   23.8211 C   0  0  0  0  0  0
  -21.3664   -5.6789   24.9171 C   0  0  0  0  0  0
  -21.6047   -4.3053   24.7221 C   0  0  0  0  0  0
  -21.8820   -3.8146   23.4342 C   0  0  0  0  0  0
  -21.9191   -4.6962   22.3399 C   0  0  0  0  0  0
  -22.7782  -13.5232   21.1882 C   0  0  0  0  0  0
  -22.1656   -4.2148   21.0976 F   0  0  0  0  0  0
  -21.5626   -3.4538   25.7735 F   0  0  0  0  0  0
  -29.9301  -13.7419   20.2921 N   0  0  0  0  0  0
  -26.2865  -12.9445   20.3250 N   0  0  0  0  0  0
  -25.9296  -11.6591   20.5813 N   0  0  0  0  0  0
  -22.0429  -12.8222   22.0437 N   0  0  0  0  0  0
  -25.4176  -15.1959   20.4177 N   0  0  0  0  0  0
  -31.7787  -15.0012   20.3058 O   0  0  0  0  0  0
  -21.6645   -6.8879   21.4237 O   0  0  0  0  0  0
  -22.3464  -14.5528   20.6715 O   0  0  0  0  0  0
  -24.6437  -31.8437   23.1883 C   0  0  0  0  0  0
  -25.9206  -32.4693   23.8273 C   0  0  1  0  0  0
  -27.2118  -27.1242   20.1628 C   0  0  0  0  0  0
  -25.5955  -33.8499   24.2185 N   0  0  0  0  0  0
  -23.4480  -30.4633   21.5337 C   0  0  2  0  0  0
  -24.8980  -28.8882   20.1130 C   0  0  0  0  0  0
  -22.7569  -29.4544   22.4858 C   0  0  0  0  0  0
  -18.0307  -28.1395   22.8478 C   0  0  0  0  0  0
  -24.1490  -36.7253   23.2641 C   0  0  0  0  0  0
  -26.0051  -30.7138   21.3902 C   0  0  0  0  0  0
  -26.0760  -29.3227   20.7351 C   0  0  0  0  0  0
  -27.2353  -28.4578   20.7417 C   0  0  0  0  0  0
  -26.0143  -26.8013   19.4880 C   0  0  0  0  0  0
  -24.8810  -27.6408   19.4723 C   0  0  0  0  0  0
  -23.6764  -29.7928   20.1534 C   0  0  0  0  0  0
  -25.4122  -36.3029   24.0314 C   0  0  1  0  0  0
  -20.5920  -28.3723   23.1234 C   0  0  2  0  0  0
  -20.6790  -26.9426   22.5401 C   0  0  0  0  0  0
  -19.5763  -26.6380   21.5209 C   0  0  0  0  0  0
  -18.1946  -26.7934   22.1623 C   0  0  0  0  0  0
  -19.1564  -28.8876   23.2848 C   0  0  0  0  0  0
  -18.9480  -30.1471   23.8873 C   0  0  0  0  0  0
  -17.6477  -30.6592   24.0557 C   0  0  0  0  0  0
  -25.9073  -34.9408   23.5057 C   0  0  0  0  0  0
  -16.5367  -29.9085   23.6338 C   0  0  0  0  0  0
  -16.7291  -28.6503   23.0358 C   0  0  0  0  0  0
  -26.4526  -31.6567   25.0719 C   0  0  0  0  0  0
  -25.3711  -31.3764   26.1414 C   0  0  0  0  0  0
  -27.0391  -30.2960   24.6310 C   0  0  0  0  0  0
  -27.6049  -32.4339   25.7510 C   0  0  0  0  0  0
  -27.5573  -37.1783   24.8466 C   0  0  0  0  0  0
  -21.4262  -29.3048   22.3604 N   0  0  0  0  0  0
  -26.4283  -37.3745   23.9409 N   0  0  0  0  0  0
  -24.7188  -31.0284   22.0921 N   0  0  0  0  0  0
  -23.4206  -28.8092   23.3011 O   0  0  0  0  0  0
  -28.2547  -26.1252   20.2005 O   0  0  0  0  0  0
  -26.5659  -34.8904   22.4636 O   0  0  0  0  0  0
  -23.5554  -32.1319   23.7094 O   0  0  0  0  0  0
  -28.3320  -19.8187   19.6950 C   0  0  0  0  0  0
  -28.5482  -18.3900   19.5701 C   0  0  0  0  0  0
  -30.3568  -18.4907   21.0556 C   0  0  0  0  0  0
  -30.1454  -19.9397   21.2069 C   0  0  0  0  0  0
  -29.1119  -20.6983   20.5109 C   0  0  0  0  0  0
  -29.5878  -17.6186   20.2099 C   0  0  0  0  0  0
  -28.7044  -23.3297   19.8888 C   0  0  0  0  0  0
  -28.0743  -24.2168   21.9747 C   0  0  0  0  0  0
  -28.2127  -22.6568   22.0055 C   0  0  0  0  0  0
  -27.9270  -24.6239   20.5061 C   0  0  1  0  0  0
  -30.7069  -17.0448   17.5856 C   0  0  0  0  0  0
  -29.8067  -16.0280   18.3239 C   0  0  0  0  0  0
  -31.0950  -20.6625   22.1635 C   0  0  0  0  0  0
  -28.7483  -22.1899   20.7165 N   0  0  0  0  0  0
  -29.8457  -16.1403   19.8063 N   0  0  0  0  0  0
  -29.1892  -23.3629   18.7536 O   0  0  0  0  0  0
  -32.2774  -20.0484   22.2251 F   0  0  0  0  0  0
  -31.3258  -21.9207   21.7889 F   0  0  0  0  0  0
  -30.5688  -20.6668   23.3877 F   0  0  0  0  0  0
  -31.4630  -12.7907   19.1258 H   0  0  0  0  0  0
  -30.4983  -11.7011   20.0845 H   0  0  0  0  0  0
  -29.8096  -11.4915   17.7279 H   0  0  0  0  0  0
  -29.5930  -13.1828   17.5195 H   0  0  0  0  0  0
  -27.9238  -11.2307   19.0552 H   0  0  0  0  0  0
  -27.3753  -12.3437   17.8348 H   0  0  0  0  0  0
  -27.5654  -14.2204   19.3385 H   0  0  0  0  0  0
  -28.7840  -12.3859   21.4644 H   0  0  0  0  0  0
  -28.3748  -14.0796   21.6738 H   0  0  0  0  0  0
  -25.2757   -9.5694   22.4770 H   0  0  0  0  0  0
  -24.0011   -7.4637   22.7469 H   0  0  0  0  0  0
  -21.0847   -8.8782   19.8949 H   0  0  0  0  0  0
  -22.3699  -10.9685   19.6180 H   0  0  0  0  0  0
  -21.2022   -7.6150   23.9717 H   0  0  0  0  0  0
  -21.1482   -6.0516   25.9073 H   0  0  0  0  0  0
  -22.0595   -2.7607   23.2840 H   0  0  0  0  0  0
  -22.4053  -11.9901   22.4855 H   0  0  0  0  0  0
  -21.1039  -13.1231   22.2630 H   0  0  0  0  0  0
  -24.6571  -15.8542   20.5468 H   0  0  0  0  0  0
  -26.2819  -15.6388   20.1330 H   0  0  0  0  0  0
  -26.7273  -32.5298   23.1003 H   0  0  0  0  0  0
  -25.0080  -33.9619   25.0318 H   0  0  0  0  0  0
  -22.7506  -31.2894   21.3784 H   0  0  0  0  0  0
  -23.3756  -35.9581   23.3293 H   0  0  0  0  0  0
  -24.3573  -36.8895   22.2058 H   0  0  0  0  0  0
  -23.7243  -37.6444   23.6687 H   0  0  0  0  0  0
  -26.1611  -31.4668   20.6166 H   0  0  0  0  0  0
  -26.8751  -30.7657   22.0329 H   0  0  0  0  0  0
  -28.1328  -28.7855   21.2476 H   0  0  0  0  0  0
  -25.9297  -25.8591   18.9675 H   0  0  0  0  0  0
  -23.9869  -27.3072   18.9636 H   0  0  0  0  0  0
  -23.8152  -30.5670   19.3977 H   0  0  0  0  0  0
  -22.7909  -29.2362   19.8410 H   0  0  0  0  0  0
  -25.1313  -36.1854   25.0805 H   0  0  0  0  0  0
  -21.0012  -28.3310   24.1354 H   0  0  0  0  0  0
  -20.5680  -26.2336   23.3620 H   0  0  0  0  0  0
  -21.6657  -26.7428   22.1200 H   0  0  0  0  0  0
  -19.6924  -25.6284   21.1255 H   0  0  0  0  0  0
  -19.6700  -27.3176   20.6729 H   0  0  0  0  0  0
  -17.4212  -26.6674   21.4030 H   0  0  0  0  0  0
  -18.0350  -26.0083   22.9029 H   0  0  0  0  0  0
  -19.7955  -30.7295   24.2229 H   0  0  0  0  0  0
  -17.5030  -31.6271   24.5163 H   0  0  0  0  0  0
  -15.5365  -30.2978   23.7677 H   0  0  0  0  0  0
  -15.8691  -28.0811   22.7090 H   0  0  0  0  0  0
  -24.5898  -30.7100   25.7740 H   0  0  0  0  0  0
  -24.8892  -32.2948   26.4772 H   0  0  0  0  0  0
  -25.7996  -30.8984   27.0232 H   0  0  0  0  0  0
  -26.3012  -29.6684   24.1300 H   0  0  0  0  0  0
  -27.3977  -29.7260   25.4891 H   0  0  0  0  0  0
  -27.8931  -30.4186   23.9648 H   0  0  0  0  0  0
  -27.2632  -33.3658   26.2026 H   0  0  0  0  0  0
  -28.3894  -32.6869   25.0367 H   0  0  0  0  0  0
  -28.0679  -31.8507   26.5479 H   0  0  0  0  0  0
  -28.2582  -38.0086   24.7507 H   0  0  0  0  0  0
  -28.1075  -36.2613   24.6299 H   0  0  0  0  0  0
  -27.2289  -37.1437   25.8868 H   0  0  0  0  0  0
  -20.9472  -29.8764   21.6787 H   0  0  0  0  0  0
  -26.0147  -38.2809   24.1418 H   0  0  0  0  0  0
  -27.5056  -20.2459   19.1443 H   0  0  0  0  0  0
  -27.8749  -17.8740   18.9008 H   0  0  0  0  0  0
  -31.1804  -18.0452   21.5924 H   0  0  0  0  0  0
  -28.9761  -24.6736   22.3843 H   0  0  0  0  0  0
  -27.2357  -24.5624   22.5801 H   0  0  0  0  0  0
  -27.2317  -22.2005   22.1449 H   0  0  0  0  0  0
  -28.8314  -22.3415   22.8436 H   0  0  0  0  0  0
  -26.8884  -24.4381   20.2397 H   0  0  0  0  0  0
  -31.7247  -17.0288   17.9778 H   0  0  0  0  0  0
  -30.3415  -18.0692   17.6442 H   0  0  0  0  0  0
  -30.7675  -16.7982   16.5245 H   0  0  0  0  0  0
  -28.7784  -16.0813   17.9665 H   0  0  0  0  0  0
  -30.1737  -15.0717   17.9705 H   0  0  0  0  0  0
  1 25  1  0  0  0
  1 30  2  0  0  0
  1 85  1  0  0  0
  2  3  1  0  0  0
  2 25  1  0  0  0
  2 90  1  0  0  0
  2 91  1  0  0  0
  3  4  1  0  0  0
  3 92  1  0  0  0
  3 93  1  0  0  0
  4  5  1  0  0  0
  4 94  1  0  0  0
  4 95  1  0  0  0
  5  6  1  0  0  0
  5 26  1  0  0  0
  5 96  1  0  0  0
  6 25  1  0  0  0
  6 97  1  0  0  0
  6 98  1  0  0  0
  7  8  2  0  0  0
  7 26  1  0  0  0
  7 29  1  0  0  0
  8  9  1  0  0  0
  8 22  1  0  0  0
  9 10  1  0  0  0
  9 27  2  0  0  0
 10 11  2  0  0  0
 10 15  1  0  0  0
 11 12  1  0  0  0
 11 99  1  0  0  0
 12 13  2  0  0  0
 12100  1  0  0  0
 13 14  1  0  0  0
 13 31  1  0  0  0
 14 15  2  0  0  0
 14101  1  0  0  0
 15102  1  0  0  0
 16 17  2  0  0  0
 16 21  1  0  0  0
 16 31  1  0  0  0
 17 18  1  0  0  0
 17103  1  0  0  0
 18 19  2  0  0  0
 18104  1  0  0  0
 19 20  1  0  0  0
 19 24  1  0  0  0
 20 21  2  0  0  0
 20105  1  0  0  0
 21 23  1  0  0  0
 22 28  1  0  0  0
 22 32  2  0  0  0
 26 27  1  0  0  0
 28106  1  0  0  0
 28107  1  0  0  0
 29108  1  0  0  0
 29109  1  0  0  0
 33 34  1  0  0  0
 33 66  1  0  0  0
 33 70  2  0  0  0
 34 36  1  0  0  0
 34 59  1  0  0  0
 34110  1  0  0  0
 35 44  2  0  0  0
 35 45  1  0  0  0
 35 68  1  0  0  0
 36 56  1  0  0  0
 36111  1  0  0  0
 37 39  1  0  0  0
 37 47  1  0  0  0
 37 66  1  0  0  0
 37112  1  0  0  0
 38 43  2  0  0  0
 38 46  1  0  0  0
 38 47  1  0  0  0
 39 64  1  0  0  0
 39 67  2  0  0  0
 40 52  1  0  0  0
 40 53  2  0  0  0
 40 58  1  0  0  0
 41113  1  0  0  0
 41114  1  0  0  0
 41115  1  0  0  0
 41 48  1  0  0  0
 42 43  1  0  0  0
 42 66  1  0  0  0
 42116  1  0  0  0
 42117  1  0  0  0
 43 44  1  0  0  0
 44118  1  0  0  0
 45 46  2  0  0  0
 45119  1  0  0  0
 46120  1  0  0  0
 47121  1  0  0  0
 47122  1  0  0  0
 48 56  1  0  0  0
 48 65  1  0  0  0
 48123  1  0  0  0
 49 50  1  0  0  0
 49 53  1  0  0  0
 49 64  1  0  0  0
 49124  1  0  0  0
 50 51  1  0  0  0
 50125  1  0  0  0
 50126  1  0  0  0
 51 52  1  0  0  0
 51127  1  0  0  0
 51128  1  0  0  0
 52129  1  0  0  0
 52130  1  0  0  0
 53 54  1  0  0  0
 54 55  2  0  0  0
 54131  1  0  0  0
 55 57  1  0  0  0
 55132  1  0  0  0
 56 69  2  0  0  0
 57 58  2  0  0  0
 57133  1  0  0  0
 58134  1  0  0  0
 59 60  1  0  0  0
 59 61  1  0  0  0
 59 62  1  0  0  0
 60135  1  0  0  0
 60136  1  0  0  0
 60137  1  0  0  0
 61138  1  0  0  0
 61139  1  0  0  0
 61140  1  0  0  0
 62141  1  0  0  0
 62142  1  0  0  0
 62143  1  0  0  0
 63 65  1  0  0  0
 63144  1  0  0  0
 63145  1  0  0  0
 63146  1  0  0  0
 64147  1  0  0  0
 65148  1  0  0  0
 68 80  1  0  0  0
 71 72  2  0  0  0
 71 75  1  0  0  0
 71149  1  0  0  0
 72 76  1  0  0  0
 72150  1  0  0  0
 73 74  1  0  0  0
 73 76  2  0  0  0
 73151  1  0  0  0
 74 75  2  0  0  0
 74 83  1  0  0  0
 75 84  1  0  0  0
 76 85  1  0  0  0
 77 80  1  0  0  0
 77 84  1  0  0  0
 77 86  2  0  0  0
 78 79  1  0  0  0
 78 80  1  0  0  0
 78152  1  0  0  0
 78153  1  0  0  0
 79 84  1  0  0  0
 79154  1  0  0  0
 79155  1  0  0  0
 80156  1  0  0  0
 81 82  1  0  0  0
 81157  1  0  0  0
 81158  1  0  0  0
 81159  1  0  0  0
 82 85  1  0  0  0
 82160  1  0  0  0
 82161  1  0  0  0
 83 87  1  0  0  0
 83 88  1  0  0  0
 83 89  1  0  0  0
M  ISO  4   1 100  68 101  80 101  85 100
M  END
> <chiral flag>
0

> <version>
0

> <s_m_source_file>
/data/baiqing/PycharmProjects/Reinvent-master-3.2/result/LINK_invent/BTK/process_docking_weight1_custom_product_contain_oxygen_bond_distance_aromatic_linkinvent_7_9_3/rearranged_h_0014.sdf

> <i_m_source_file_index>
21

> <r_mmod_Potential_Energy-OPLS-2005>
919.134521484375

> <r_mmod_Stretch_Energy-OPLS-2005>
248.557540893555

> <r_mmod_Bend_Energy-OPLS-2005>
308.747039794922

> <r_mmod_Torsional_Energy-OPLS-2005>
395.387115478516

> <r_mmod_Improper_Torsional_Energy-OPLS-2005>
27.3648586273193

> <r_mmod_Van_der_Waal_Energy-OPLS-2005>
138.962066650391

> <r_mmod_Electrostatic_Energy-OPLS-2005>
-222.561950683594

> <r_mmod_Solvation_Energy-OPLS-2005>
-206.653503417969

> <b_mmod_Minimization_Converged-OPLS-2005>
0

> <r_mmod_RMS_Derivative-OPLS-2005>
0.92305326461792

$$$$
21
                    3D
 Structure written by MMmdl.
156165  0  0  1  0            999 V2000
  -30.5152  -14.9045   20.4385 C   0  0  0  0  0  0
  -30.4551  -12.5547   19.4921 C   0  0  0  0  0  0
  -29.5292  -12.5306   18.2519 C   0  0  0  0  0  0
  -28.0570  -12.3237   18.6625 C   0  0  0  0  0  0
  -27.6397  -13.2364   19.8457 C   0  0  2  0  0  0
  -28.6833  -13.2088   20.9834 C   0  0  0  0  0  0
  -25.2510  -13.8191   20.5685 C   0  0  0  0  0  0
  -24.1814  -13.0435   20.9232 C   0  0  0  0  0  0
  -24.6408  -11.6914   20.8756 C   0  0  0  0  0  0
  -23.9090  -10.4293   21.0418 C   0  0  0  0  0  0
  -24.3639   -9.4204   21.9194 C   0  0  0  0  0  0
  -23.6307   -8.2242   22.0761 C   0  0  0  0  0  0
  -22.4285   -8.0286   21.3553 C   0  0  0  0  0  0
  -21.9926   -9.0262   20.4653 C   0  0  0  0  0  0
  -22.7264  -10.2137   20.3062 C   0  0  0  0  0  0
  -21.6855   -6.0745   22.5284 C   0  0  0  0  0  0
  -21.4009   -6.5643   23.8219 C   0  0  0  0  0  0
  -21.3662   -5.6794   24.9180 C   0  0  0  0  0  0
  -21.6047   -4.3056   24.7227 C   0  0  0  0  0  0
  -21.8816   -3.8151   23.4345 C   0  0  0  0  0  0
  -21.9191   -4.6972   22.3404 C   0  0  0  0  0  0
  -22.7833  -13.5219   21.1882 C   0  0  0  0  0  0
  -22.1662   -4.2159   21.0983 F   0  0  0  0  0  0
  -21.5633   -3.4537   25.7737 F   0  0  0  0  0  0
  -29.9701  -13.6253   20.4038 N   0  0  0  0  0  0
  -26.2929  -12.9398   20.3237 N   0  0  0  0  0  0
  -25.9334  -11.6540   20.5734 N   0  0  0  0  0  0
  -22.0466  -12.8216   22.0429 N   0  0  0  0  0  0
  -25.4173  -15.1920   20.4068 N   0  0  0  0  0  0
  -31.7023  -15.0475   20.1226 O   0  0  0  0  0  0
  -21.6641   -6.8887   21.4247 O   0  0  0  0  0  0
  -22.3517  -14.5525   20.6722 O   0  0  0  0  0  0
  -24.6421  -31.8463   23.1891 C   0  0  0  0  0  0
  -25.9196  -32.4708   23.8279 C   0  0  1  0  0  0
  -27.2244  -27.1602   20.1434 C   0  0  0  0  0  0
  -25.5954  -33.8514   24.2205 N   0  0  0  0  0  0
  -23.4453  -30.4652   21.5356 C   0  0  2  0  0  0
  -24.8946  -28.8968   20.1126 C   0  0  0  0  0  0
  -22.7562  -29.4553   22.4872 C   0  0  0  0  0  0
  -18.0307  -28.1394   22.8484 C   0  0  0  0  0  0
  -24.1496  -36.7255   23.2643 C   0  0  0  0  0  0
  -25.9997  -30.7282   21.3840 C   0  0  0  0  0  0
  -26.0727  -29.3412   20.7263 C   0  0  0  0  0  0
  -27.2393  -28.4903   20.7225 C   0  0  0  0  0  0
  -26.0161  -26.8120   19.4971 C   0  0  0  0  0  0
  -24.8775  -27.6440   19.4844 C   0  0  0  0  0  0
  -23.6702  -29.7957   20.1548 C   0  0  0  0  0  0
  -25.4127  -36.3039   24.0322 C   0  0  1  0  0  0
  -20.5920  -28.3718   23.1246 C   0  0  2  0  0  0
  -20.6793  -26.9424   22.5408 C   0  0  0  0  0  0
  -19.5763  -26.6384   21.5219 C   0  0  0  0  0  0
  -18.1945  -26.7931   22.1631 C   0  0  0  0  0  0
  -19.1563  -28.8872   23.2857 C   0  0  0  0  0  0
  -18.9476  -30.1468   23.8882 C   0  0  0  0  0  0
  -17.6471  -30.6591   24.0560 C   0  0  0  0  0  0
  -25.9074  -34.9415   23.5074 C   0  0  0  0  0  0
  -16.5364  -29.9085   23.6334 C   0  0  0  0  0  0
  -16.7288  -28.6505   23.0354 C   0  0  0  0  0  0
  -26.4518  -31.6545   25.0701 C   0  0  0  0  0  0
  -25.3712  -31.3730   26.1402 C   0  0  0  0  0  0
  -27.0367  -30.2941   24.6244 C   0  0  0  0  0  0
  -27.6054  -32.4293   25.7495 C   0  0  0  0  0  0
  -27.5580  -37.1789   24.8469 C   0  0  0  0  0  0
  -21.4256  -29.3048   22.3618 N   0  0  0  0  0  0
  -26.4291  -37.3746   23.9407 N   0  0  0  0  0  0
  -24.7156  -31.0332   22.0921 N   0  0  0  0  0  0
  -23.4208  -28.8104   23.3022 O   0  0  0  0  0  0
  -28.2933  -26.1960   20.1898 O   0  0  0  0  0  0
  -26.5656  -34.8911   22.4647 O   0  0  0  0  0  0
  -23.5543  -32.1333   23.7113 O   0  0  0  0  0  0
  -28.0185  -19.5339   20.8576 C   0  0  0  0  0  0
  -30.2577  -19.9620   20.2751 C   0  0  0  0  0  0
  -28.2796  -18.1165   20.8625 C   0  0  0  0  0  0
  -30.5274  -18.5174   20.2783 C   0  0  0  0  0  0
  -28.9788  -20.5575   20.5795 C   0  0  0  0  0  0
  -29.5434  -17.5075   20.5869 C   0  0  0  0  0  0
  -29.5531  -23.1116   22.6462 C   0  0  0  0  0  0
  -30.1331  -23.7010   21.3564 C   0  0  0  0  0  0
  -28.3925  -22.2099   22.1969 C   0  0  0  0  0  0
  -29.0798  -23.3786   20.3002 C   0  0  2  0  0  0
  -28.0000  -24.6731   20.2231 C   0  0  0  0  0  0
  -28.5810  -21.9833   20.7634 N   0  0  0  0  0  0
  -29.6309  -15.9819   20.6696 N   0  0  0  0  0  0
  -31.4886  -12.7251   19.1857 H   0  0  0  0  0  0
  -30.4499  -11.5876   19.9975 H   0  0  0  0  0  0
  -29.8389  -11.7430   17.5635 H   0  0  0  0  0  0
  -29.6279  -13.4699   17.7063 H   0  0  0  0  0  0
  -27.9381  -11.2777   18.9468 H   0  0  0  0  0  0
  -27.3992  -12.4821   17.8072 H   0  0  0  0  0  0
  -27.6177  -14.2497   19.4436 H   0  0  0  0  0  0
  -28.7571  -12.2106   21.4171 H   0  0  0  0  0  0
  -28.3875  -13.8720   21.7980 H   0  0  0  0  0  0
  -25.2782   -9.5676   22.4769 H   0  0  0  0  0  0
  -24.0019   -7.4627   22.7469 H   0  0  0  0  0  0
  -21.0863   -8.8790   19.8948 H   0  0  0  0  0  0
  -22.3736  -10.9685   19.6172 H   0  0  0  0  0  0
  -21.1994   -7.6148   23.9729 H   0  0  0  0  0  0
  -21.1493   -6.0520   25.9089 H   0  0  0  0  0  0
  -22.0591   -2.7613   23.2844 H   0  0  0  0  0  0
  -22.4075  -11.9888   22.4846 H   0  0  0  0  0  0
  -21.1075  -13.1238   22.2603 H   0  0  0  0  0  0
  -24.6349  -15.8321   20.4952 H   0  0  0  0  0  0
  -26.2314  -15.6220   19.9877 H   0  0  0  0  0  0
  -26.7262  -32.5326   23.1012 H   0  0  0  0  0  0
  -25.0076  -33.9632   25.0335 H   0  0  0  0  0  0
  -22.7469  -31.2902   21.3817 H   0  0  0  0  0  0
  -23.3765  -35.9581   23.3295 H   0  0  0  0  0  0
  -24.3583  -36.8891   22.2058 H   0  0  0  0  0  0
  -23.7250  -37.6453   23.6676 H   0  0  0  0  0  0
  -26.1507  -31.4845   20.6125 H   0  0  0  0  0  0
  -26.8720  -30.7795   22.0238 H   0  0  0  0  0  0
  -28.1385  -28.8292   21.2167 H   0  0  0  0  0  0
  -25.9123  -25.8624   18.9975 H   0  0  0  0  0  0
  -23.9789  -27.2984   18.9923 H   0  0  0  0  0  0
  -23.8041  -30.5701   19.3990 H   0  0  0  0  0  0
  -22.7868  -29.2355   19.8447 H   0  0  0  0  0  0
  -25.1314  -36.1878   25.0817 H   0  0  0  0  0  0
  -21.0007  -28.3297   24.1369 H   0  0  0  0  0  0
  -20.5695  -26.2329   23.3622 H   0  0  0  0  0  0
  -21.6657  -26.7431   22.1197 H   0  0  0  0  0  0
  -19.6922  -25.6291   21.1256 H   0  0  0  0  0  0
  -19.6698  -27.3188   20.6742 H   0  0  0  0  0  0
  -17.4214  -26.6678   21.4033 H   0  0  0  0  0  0
  -18.0337  -26.0080   22.9034 H   0  0  0  0  0  0
  -19.7950  -30.7294   24.2239 H   0  0  0  0  0  0
  -17.5024  -31.6269   24.5166 H   0  0  0  0  0  0
  -15.5364  -30.2984   23.7662 H   0  0  0  0  0  0
  -15.8689  -28.0819   22.7071 H   0  0  0  0  0  0
  -24.5901  -30.7072   25.7711 H   0  0  0  0  0  0
  -24.8894  -32.2917   26.4767 H   0  0  0  0  0  0
  -25.7990  -30.8939   27.0219 H   0  0  0  0  0  0
  -26.2963  -29.6689   24.1238 H   0  0  0  0  0  0
  -27.3977  -29.7214   25.4798 H   0  0  0  0  0  0
  -27.8876  -30.4185   23.9546 H   0  0  0  0  0  0
  -27.2644  -33.3607   26.2030 H   0  0  0  0  0  0
  -28.3887  -32.6826   25.0340 H   0  0  0  0  0  0
  -28.0677  -31.8433   26.5448 H   0  0  0  0  0  0
  -28.2591  -38.0089   24.7502 H   0  0  0  0  0  0
  -28.1085  -36.2617   24.6312 H   0  0  0  0  0  0
  -27.2296  -37.1449   25.8873 H   0  0  0  0  0  0
  -20.9459  -29.8765   21.6805 H   0  0  0  0  0  0
  -26.0165  -38.2821   24.1397 H   0  0  0  0  0  0
  -27.0149  -19.8439   21.1135 H   0  0  0  0  0  0
  -31.0840  -20.6259   20.0668 H   0  0  0  0  0  0
  -27.4470  -17.4744   21.1121 H   0  0  0  0  0  0
  -31.5333  -18.1935   20.0521 H   0  0  0  0  0  0
  -29.1958  -23.8895   23.3218 H   0  0  0  0  0  0
  -30.3155  -22.5414   23.1783 H   0  0  0  0  0  0
  -31.0666  -23.1948   21.1074 H   0  0  0  0  0  0
  -30.3514  -24.7672   21.4309 H   0  0  0  0  0  0
  -27.4346  -22.7068   22.3604 H   0  0  0  0  0  0
  -28.3700  -21.2978   22.7974 H   0  0  0  0  0  0
  -29.5690  -23.2839   19.3294 H   0  0  0  0  0  0
  -27.3120  -24.5606   21.0606 H   0  0  0  0  0  0
  -27.4053  -24.4484   19.3403 H   0  0  0  0  0  0
  -28.7376  -15.5854   20.9191 H   0  0  0  0  0  0
  1 25  1  0  0  0
  1 30  2  0  0  0
  1 83  1  0  0  0
  2  3  1  0  0  0
  2 25  1  0  0  0
  2 84  1  0  0  0
  2 85  1  0  0  0
  3  4  1  0  0  0
  3 86  1  0  0  0
  3 87  1  0  0  0
  4  5  1  0  0  0
  4 88  1  0  0  0
  4 89  1  0  0  0
  5  6  1  0  0  0
  5 26  1  0  0  0
  5 90  1  0  0  0
  6 25  1  0  0  0
  6 91  1  0  0  0
  6 92  1  0  0  0
  7  8  2  0  0  0
  7 26  1  0  0  0
  7 29  1  0  0  0
  8  9  1  0  0  0
  8 22  1  0  0  0
  9 10  1  0  0  0
  9 27  2  0  0  0
 10 11  2  0  0  0
 10 15  1  0  0  0
 11 12  1  0  0  0
 11 93  1  0  0  0
 12 13  2  0  0  0
 12 94  1  0  0  0
 13 14  1  0  0  0
 13 31  1  0  0  0
 14 15  2  0  0  0
 14 95  1  0  0  0
 15 96  1  0  0  0
 16 17  2  0  0  0
 16 21  1  0  0  0
 16 31  1  0  0  0
 17 18  1  0  0  0
 17 97  1  0  0  0
 18 19  2  0  0  0
 18 98  1  0  0  0
 19 20  1  0  0  0
 19 24  1  0  0  0
 20 21  2  0  0  0
 20 99  1  0  0  0
 21 23  1  0  0  0
 22 28  1  0  0  0
 22 32  2  0  0  0
 26 27  1  0  0  0
 28100  1  0  0  0
 28101  1  0  0  0
 29102  1  0  0  0
 29103  1  0  0  0
 33 34  1  0  0  0
 33 66  1  0  0  0
 33 70  2  0  0  0
 34 36  1  0  0  0
 34 59  1  0  0  0
 34104  1  0  0  0
 35 44  2  0  0  0
 35 45  1  0  0  0
 35 68  1  0  0  0
 36 56  1  0  0  0
 36105  1  0  0  0
 37 39  1  0  0  0
 37 47  1  0  0  0
 37 66  1  0  0  0
 37106  1  0  0  0
 38 43  2  0  0  0
 38 46  1  0  0  0
 38 47  1  0  0  0
 39 64  1  0  0  0
 39 67  2  0  0  0
 40 52  1  0  0  0
 40 53  2  0  0  0
 40 58  1  0  0  0
 41107  1  0  0  0
 41108  1  0  0  0
 41109  1  0  0  0
 41 48  1  0  0  0
 42 43  1  0  0  0
 42 66  1  0  0  0
 42110  1  0  0  0
 42111  1  0  0  0
 43 44  1  0  0  0
 44112  1  0  0  0
 45 46  2  0  0  0
 45113  1  0  0  0
 46114  1  0  0  0
 47115  1  0  0  0
 47116  1  0  0  0
 48 56  1  0  0  0
 48 65  1  0  0  0
 48117  1  0  0  0
 49 50  1  0  0  0
 49 53  1  0  0  0
 49 64  1  0  0  0
 49118  1  0  0  0
 50 51  1  0  0  0
 50119  1  0  0  0
 50120  1  0  0  0
 51 52  1  0  0  0
 51121  1  0  0  0
 51122  1  0  0  0
 52123  1  0  0  0
 52124  1  0  0  0
 53 54  1  0  0  0
 54 55  2  0  0  0
 54125  1  0  0  0
 55 57  1  0  0  0
 55126  1  0  0  0
 56 69  2  0  0  0
 57 58  2  0  0  0
 57127  1  0  0  0
 58128  1  0  0  0
 59 60  1  0  0  0
 59 61  1  0  0  0
 59 62  1  0  0  0
 60129  1  0  0  0
 60130  1  0  0  0
 60131  1  0  0  0
 61132  1  0  0  0
 61133  1  0  0  0
 61134  1  0  0  0
 62135  1  0  0  0
 62136  1  0  0  0
 62137  1  0  0  0
 63 65  1  0  0  0
 63138  1  0  0  0
 63139  1  0  0  0
 63140  1  0  0  0
 64141  1  0  0  0
 65142  1  0  0  0
 68 81  1  0  0  0
 71 73  2  0  0  0
 71 75  1  0  0  0
 71143  1  0  0  0
 72 74  1  0  0  0
 72 75  2  0  0  0
 72144  1  0  0  0
 73 76  1  0  0  0
 73145  1  0  0  0
 74 76  2  0  0  0
 74146  1  0  0  0
 75 82  1  0  0  0
 76 83  1  0  0  0
 77 78  1  0  0  0
 77 79  1  0  0  0
 77147  1  0  0  0
 77148  1  0  0  0
 78 80  1  0  0  0
 78149  1  0  0  0
 78150  1  0  0  0
 79 82  1  0  0  0
 79151  1  0  0  0
 79152  1  0  0  0
 80 81  1  0  0  0
 80 82  1  0  0  0
 80153  1  0  0  0
 81154  1  0  0  0
 81155  1  0  0  0
 83156  1  0  0  0
M  ISO  4   1 100  68 101  81 101  83 100
M  END
> <chiral flag>
0

> <version>
0

> <s_m_source_file>
/data/baiqing/PycharmProjects/Reinvent-master-3.2/result/LINK_invent/BTK/process_docking_weight1_custom_product_contain_oxygen_bond_distance_aromatic_linkinvent_7_9_3/rearranged_h_0014.sdf

> <i_m_source_file_index>
22

> <r_mmod_Potential_Energy-OPLS-2005>
525.689758300781

> <r_mmod_Stretch_Energy-OPLS-2005>
211.368698120117

> <r_mmod_Bend_Energy-OPLS-2005>
321.957733154297

> <r_mmod_Torsional_Energy-OPLS-2005>
291.578582763672

> <r_mmod_Improper_Torsional_Energy-OPLS-2005>
9.57497978210449

> <r_mmod_Van_der_Waal_Energy-OPLS-2005>
131.84602355957

> <r_mmod_Electrostatic_Energy-OPLS-2005>
-382.026885986328

> <r_mmod_Solvation_Energy-OPLS-2005>
-224.497863769531

> <b_mmod_Minimization_Converged-OPLS-2005>
0

> <r_mmod_RMS_Derivative-OPLS-2005>
1.1657212972641

$$$$
22
                    3D
 Structure written by MMmdl.
152160  0  0  1  0            999 V2000
  -30.5241  -14.9140   20.4248 C   0  0  0  0  0  0
  -30.4496  -12.5628   19.4915 C   0  0  0  0  0  0
  -29.5227  -12.5333   18.2527 C   0  0  0  0  0  0
  -28.0560  -12.3214   18.6719 C   0  0  0  0  0  0
  -27.6396  -13.2411   19.8490 C   0  0  2  0  0  0
  -28.6832  -13.2337   20.9874 C   0  0  0  0  0  0
  -25.2509  -13.8204   20.5718 C   0  0  0  0  0  0
  -24.1804  -13.0440   20.9192 C   0  0  0  0  0  0
  -24.6419  -11.6924   20.8756 C   0  0  0  0  0  0
  -23.9099  -10.4292   21.0419 C   0  0  0  0  0  0
  -24.3644   -9.4207   21.9195 C   0  0  0  0  0  0
  -23.6311   -8.2248   22.0767 C   0  0  0  0  0  0
  -22.4285   -8.0296   21.3551 C   0  0  0  0  0  0
  -21.9934   -9.0269   20.4650 C   0  0  0  0  0  0
  -22.7274  -10.2145   20.3063 C   0  0  0  0  0  0
  -21.6855   -6.0751   22.5276 C   0  0  0  0  0  0
  -21.4016   -6.5654   23.8211 C   0  0  0  0  0  0
  -21.3653   -5.6803   24.9166 C   0  0  0  0  0  0
  -21.6049   -4.3067   24.7215 C   0  0  0  0  0  0
  -21.8819   -3.8162   23.4332 C   0  0  0  0  0  0
  -21.9192   -4.6982   22.3394 C   0  0  0  0  0  0
  -22.7820  -13.5225   21.1845 C   0  0  0  0  0  0
  -22.1661   -4.2174   21.0967 F   0  0  0  0  0  0
  -21.5625   -3.4549   25.7723 F   0  0  0  0  0  0
  -29.9668  -13.6399   20.3991 N   0  0  0  0  0  0
  -26.2944  -12.9430   20.3294 N   0  0  0  0  0  0
  -25.9355  -11.6565   20.5763 N   0  0  0  0  0  0
  -22.0473  -12.8204   22.0406 N   0  0  0  0  0  0
  -25.4188  -15.1937   20.4193 N   0  0  0  0  0  0
  -31.7125  -15.0319   20.1071 O   0  0  0  0  0  0
  -21.6640   -6.8900   21.4244 O   0  0  0  0  0  0
  -22.3507  -14.5526   20.6698 O   0  0  0  0  0  0
  -24.6410  -31.8434   23.1899 C   0  0  0  0  0  0
  -25.9190  -32.4692   23.8273 C   0  0  1  0  0  0
  -27.2235  -27.1559   20.1377 C   0  0  0  0  0  0
  -25.5950  -33.8501   24.2198 N   0  0  0  0  0  0
  -23.4431  -30.4661   21.5326 C   0  0  2  0  0  0
  -24.8925  -28.8947   20.1080 C   0  0  0  0  0  0
  -22.7568  -29.4546   22.4842 C   0  0  0  0  0  0
  -18.0303  -28.1390   22.8441 C   0  0  0  0  0  0
  -24.1493  -36.7256   23.2649 C   0  0  0  0  0  0
  -25.9968  -30.7269   21.3834 C   0  0  0  0  0  0
  -26.0679  -29.3397   20.7232 C   0  0  0  0  0  0
  -27.2286  -28.4837   20.7265 C   0  0  0  0  0  0
  -26.0165  -26.8038   19.4929 C   0  0  0  0  0  0
  -24.8778  -27.6379   19.4845 C   0  0  0  0  0  0
  -23.6701  -29.7971   20.1507 C   0  0  0  0  0  0
  -25.4115  -36.3037   24.0337 C   0  0  1  0  0  0
  -20.5912  -28.3706   23.1228 C   0  0  2  0  0  0
  -20.6779  -26.9408   22.5404 C   0  0  0  0  0  0
  -19.5764  -26.6367   21.5200 C   0  0  0  0  0  0
  -18.1942  -26.7921   22.1598 C   0  0  0  0  0  0
  -19.1561  -28.8860   23.2822 C   0  0  0  0  0  0
  -18.9487  -30.1448   23.8855 C   0  0  0  0  0  0
  -17.6493  -30.6575   24.0548 C   0  0  0  0  0  0
  -25.9074  -34.9412   23.5078 C   0  0  0  0  0  0
  -16.5376  -29.9071   23.6335 C   0  0  0  0  0  0
  -16.7294  -28.6505   23.0324 C   0  0  0  0  0  0
  -26.4525  -31.6549   25.0703 C   0  0  0  0  0  0
  -25.3723  -31.3745   26.1416 C   0  0  0  0  0  0
  -27.0406  -30.2956   24.6267 C   0  0  0  0  0  0
  -27.6042  -32.4319   25.7482 C   0  0  0  0  0  0
  -27.5575  -37.1770   24.8464 C   0  0  0  0  0  0
  -21.4263  -29.3048   22.3617 N   0  0  0  0  0  0
  -26.4266  -37.3756   23.9437 N   0  0  0  0  0  0
  -24.7134  -31.0326   22.0915 N   0  0  0  0  0  0
  -23.4229  -28.8117   23.2993 O   0  0  0  0  0  0
  -28.3041  -26.2109   20.2404 O   0  0  0  0  0  0
  -26.5653  -34.8913   22.4653 O   0  0  0  0  0  0
  -23.5534  -32.1276   23.7151 O   0  0  0  0  0  0
  -30.6158  -19.7982   19.7829 C   0  0  0  0  0  0
  -30.7261  -18.3596   19.9412 C   0  0  0  0  0  0
  -28.4713  -19.8011   20.7349 C   0  0  0  0  0  0
  -29.4918  -20.6363   20.1646 C   0  0  0  0  0  0
  -29.6947  -17.5436   20.4909 C   0  0  0  0  0  0
  -28.5644  -18.3508   20.8766 C   0  0  0  0  0  0
  -30.7553  -22.6115   19.4647 C   0  0  0  0  0  0
  -28.5881  -23.2981   20.4998 C   0  0  0  0  0  0
  -28.3524  -24.7628   19.6801 C   0  0  0  0  0  0
  -29.6754  -16.0219   20.6532 N   0  0  0  0  0  0
  -29.4558  -22.1237   19.9374 N   0  0  0  0  0  0
  -27.5001  -17.6990   21.4040 F   0  0  0  0  0  0
  -31.4820  -12.7272   19.1778 H   0  0  0  0  0  0
  -30.4427  -11.5993   20.0035 H   0  0  0  0  0  0
  -29.8331  -11.7462   17.5643 H   0  0  0  0  0  0
  -29.6136  -13.4725   17.7048 H   0  0  0  0  0  0
  -27.9457  -11.2778   18.9673 H   0  0  0  0  0  0
  -27.3909  -12.4692   17.8207 H   0  0  0  0  0  0
  -27.6135  -14.2503   19.4376 H   0  0  0  0  0  0
  -28.7592  -12.2489   21.4506 H   0  0  0  0  0  0
  -28.3880  -13.9219   21.7811 H   0  0  0  0  0  0
  -25.2794   -9.5677   22.4765 H   0  0  0  0  0  0
  -24.0017   -7.4643   22.7494 H   0  0  0  0  0  0
  -21.0866   -8.8806   19.8952 H   0  0  0  0  0  0
  -22.3752  -10.9692   19.6175 H   0  0  0  0  0  0
  -21.2013   -7.6162   23.9723 H   0  0  0  0  0  0
  -21.1474   -6.0526   25.9070 H   0  0  0  0  0  0
  -22.0604   -2.7630   23.2818 H   0  0  0  0  0  0
  -22.4100  -11.9858   22.4759 H   0  0  0  0  0  0
  -21.1101  -13.1239   22.2635 H   0  0  0  0  0  0
  -24.6603  -15.8487   20.5679 H   0  0  0  0  0  0
  -26.2797  -15.6509   20.1507 H   0  0  0  0  0  0
  -26.7253  -32.5304   23.0996 H   0  0  0  0  0  0
  -25.0092  -33.9610   25.0344 H   0  0  0  0  0  0
  -22.7433  -31.2913   21.3798 H   0  0  0  0  0  0
  -23.3767  -35.9569   23.3270 H   0  0  0  0  0  0
  -24.3593  -36.8919   22.2074 H   0  0  0  0  0  0
  -23.7234  -37.6443   23.6695 H   0  0  0  0  0  0
  -26.1493  -31.4857   20.6145 H   0  0  0  0  0  0
  -26.8688  -30.7764   22.0242 H   0  0  0  0  0  0
  -28.1218  -28.8202   21.2351 H   0  0  0  0  0  0
  -25.8984  -25.8420   19.0229 H   0  0  0  0  0  0
  -23.9760  -27.2853   19.0034 H   0  0  0  0  0  0
  -23.8116  -30.5730   19.3972 H   0  0  0  0  0  0
  -22.7844  -29.2439   19.8351 H   0  0  0  0  0  0
  -25.1294  -36.1855   25.0826 H   0  0  0  0  0  0
  -20.9972  -28.3284   24.1360 H   0  0  0  0  0  0
  -20.5644  -26.2328   23.3626 H   0  0  0  0  0  0
  -21.6648  -26.7397   22.1223 H   0  0  0  0  0  0
  -19.6935  -25.6281   21.1228 H   0  0  0  0  0  0
  -19.6705  -27.3163   20.6722 H   0  0  0  0  0  0
  -17.4217  -26.6652   21.4003 H   0  0  0  0  0  0
  -18.0328  -26.0074   22.9004 H   0  0  0  0  0  0
  -19.7981  -30.7246   24.2205 H   0  0  0  0  0  0
  -17.5069  -31.6251   24.5158 H   0  0  0  0  0  0
  -15.5378  -30.2961   23.7693 H   0  0  0  0  0  0
  -15.8695  -28.0825   22.7034 H   0  0  0  0  0  0
  -24.5914  -30.7070   25.7761 H   0  0  0  0  0  0
  -24.8898  -32.2932   26.4760 H   0  0  0  0  0  0
  -25.8011  -30.8990   27.0245 H   0  0  0  0  0  0
  -26.3033  -29.6659   24.1277 H   0  0  0  0  0  0
  -27.4067  -29.7281   25.4835 H   0  0  0  0  0  0
  -27.8907  -30.4235   23.9560 H   0  0  0  0  0  0
  -27.2638  -33.3661   26.1966 H   0  0  0  0  0  0
  -28.3886  -32.6804   25.0319 H   0  0  0  0  0  0
  -28.0664  -31.8506   26.5477 H   0  0  0  0  0  0
  -28.2547  -38.0110   24.7542 H   0  0  0  0  0  0
  -28.1118  -36.2638   24.6221 H   0  0  0  0  0  0
  -27.2311  -37.1329   25.8872 H   0  0  0  0  0  0
  -20.9470  -29.8823   21.6854 H   0  0  0  0  0  0
  -26.0140  -38.2821   24.1454 H   0  0  0  0  0  0
  -31.4802  -20.2467   19.3186 H   0  0  0  0  0  0
  -31.6352  -17.8786   19.6103 H   0  0  0  0  0  0
  -27.5568  -20.2699   21.0671 H   0  0  0  0  0  0
  -30.9828  -22.2250   18.4702 H   0  0  0  0  0  0
  -31.5522  -22.3130   20.1473 H   0  0  0  0  0  0
  -30.8206  -23.6948   19.4033 H   0  0  0  0  0  0
  -27.6016  -22.8949   20.7344 H   0  0  0  0  0  0
  -29.0175  -23.5435   21.4710 H   0  0  0  0  0  0
  -27.5102  -24.5937   19.0169 H   0  0  0  0  0  0
  -29.1656  -24.8529   18.9647 H   0  0  0  0  0  0
  -28.7695  -15.7009   20.9602 H   0  0  0  0  0  0
  1 25  1  0  0  0
  1 30  2  0  0  0
  1 80  1  0  0  0
  2  3  1  0  0  0
  2 25  1  0  0  0
  2 83  1  0  0  0
  2 84  1  0  0  0
  3  4  1  0  0  0
  3 85  1  0  0  0
  3 86  1  0  0  0
  4  5  1  0  0  0
  4 87  1  0  0  0
  4 88  1  0  0  0
  5  6  1  0  0  0
  5 26  1  0  0  0
  5 89  1  0  0  0
  6 25  1  0  0  0
  6 90  1  0  0  0
  6 91  1  0  0  0
  7  8  2  0  0  0
  7 26  1  0  0  0
  7 29  1  0  0  0
  8  9  1  0  0  0
  8 22  1  0  0  0
  9 10  1  0  0  0
  9 27  2  0  0  0
 10 11  2  0  0  0
 10 15  1  0  0  0
 11 12  1  0  0  0
 11 92  1  0  0  0
 12 13  2  0  0  0
 12 93  1  0  0  0
 13 14  1  0  0  0
 13 31  1  0  0  0
 14 15  2  0  0  0
 14 94  1  0  0  0
 15 95  1  0  0  0
 16 17  2  0  0  0
 16 21  1  0  0  0
 16 31  1  0  0  0
 17 18  1  0  0  0
 17 96  1  0  0  0
 18 19  2  0  0  0
 18 97  1  0  0  0
 19 20  1  0  0  0
 19 24  1  0  0  0
 20 21  2  0  0  0
 20 98  1  0  0  0
 21 23  1  0  0  0
 22 28  1  0  0  0
 22 32  2  0  0  0
 26 27  1  0  0  0
 28 99  1  0  0  0
 28100  1  0  0  0
 29101  1  0  0  0
 29102  1  0  0  0
 33 34  1  0  0  0
 33 66  1  0  0  0
 33 70  2  0  0  0
 34 36  1  0  0  0
 34 59  1  0  0  0
 34103  1  0  0  0
 35 44  2  0  0  0
 35 45  1  0  0  0
 35 68  1  0  0  0
 36 56  1  0  0  0
 36104  1  0  0  0
 37 39  1  0  0  0
 37 47  1  0  0  0
 37 66  1  0  0  0
 37105  1  0  0  0
 38 43  2  0  0  0
 38 46  1  0  0  0
 38 47  1  0  0  0
 39 64  1  0  0  0
 39 67  2  0  0  0
 40 52  1  0  0  0
 40 53  2  0  0  0
 40 58  1  0  0  0
 41106  1  0  0  0
 41107  1  0  0  0
 41108  1  0  0  0
 41 48  1  0  0  0
 42 43  1  0  0  0
 42 66  1  0  0  0
 42109  1  0  0  0
 42110  1  0  0  0
 43 44  1  0  0  0
 44111  1  0  0  0
 45 46  2  0  0  0
 45112  1  0  0  0
 46113  1  0  0  0
 47114  1  0  0  0
 47115  1  0  0  0
 48 56  1  0  0  0
 48 65  1  0  0  0
 48116  1  0  0  0
 49 50  1  0  0  0
 49 53  1  0  0  0
 49 64  1  0  0  0
 49117  1  0  0  0
 50 51  1  0  0  0
 50118  1  0  0  0
 50119  1  0  0  0
 51 52  1  0  0  0
 51120  1  0  0  0
 51121  1  0  0  0
 52122  1  0  0  0
 52123  1  0  0  0
 53 54  1  0  0  0
 54 55  2  0  0  0
 54124  1  0  0  0
 55 57  1  0  0  0
 55125  1  0  0  0
 56 69  2  0  0  0
 57 58  2  0  0  0
 57126  1  0  0  0
 58127  1  0  0  0
 59 60  1  0  0  0
 59 61  1  0  0  0
 59 62  1  0  0  0
 60128  1  0  0  0
 60129  1  0  0  0
 60130  1  0  0  0
 61131  1  0  0  0
 61132  1  0  0  0
 61133  1  0  0  0
 62134  1  0  0  0
 62135  1  0  0  0
 62136  1  0  0  0
 63 65  1  0  0  0
 63137  1  0  0  0
 63138  1  0  0  0
 63139  1  0  0  0
 64140  1  0  0  0
 65141  1  0  0  0
 68 79  1  0  0  0
 71 72  2  0  0  0
 71 74  1  0  0  0
 71142  1  0  0  0
 72 75  1  0  0  0
 72143  1  0  0  0
 73 74  2  0  0  0
 73 76  1  0  0  0
 73144  1  0  0  0
 74 81  1  0  0  0
 75 76  2  0  0  0
 75 80  1  0  0  0
 76 82  1  0  0  0
 77 81  1  0  0  0
 77145  1  0  0  0
 77146  1  0  0  0
 77147  1  0  0  0
 78 79  1  0  0  0
 78 81  1  0  0  0
 78148  1  0  0  0
 78149  1  0  0  0
 79150  1  0  0  0
 79151  1  0  0  0
 80152  1  0  0  0
M  ISO  4   1 100  68 101  79 101  80 100
M  END
> <chiral flag>
0

> <version>
0

> <s_m_source_file>
/data/baiqing/PycharmProjects/Reinvent-master-3.2/result/LINK_invent/BTK/process_docking_weight1_custom_product_contain_oxygen_bond_distance_aromatic_linkinvent_7_9_3/rearranged_h_0014.sdf

> <i_m_source_file_index>
23

> <r_mmod_Potential_Energy-OPLS-2005>
422.703674316406

> <r_mmod_Stretch_Energy-OPLS-2005>
226.532485961914

> <r_mmod_Bend_Energy-OPLS-2005>
287.821533203125

> <r_mmod_Torsional_Energy-OPLS-2005>
202.968505859375

> <r_mmod_Improper_Torsional_Energy-OPLS-2005>
4.99595546722412

> <r_mmod_Van_der_Waal_Energy-OPLS-2005>
146.032180786133

> <r_mmod_Electrostatic_Energy-OPLS-2005>
-393.502685546875

> <r_mmod_Solvation_Energy-OPLS-2005>
-222.135986328125

> <b_mmod_Minimization_Converged-OPLS-2005>
0

> <r_mmod_RMS_Derivative-OPLS-2005>
2.36566257476807

$$$$
23
                    3D
 Structure written by MMmdl.
163172  0  0  1  0            999 V2000
  -30.7324  -14.4067   20.6268 C   0  0  0  0  0  0
  -30.4213  -12.2932   19.3926 C   0  0  0  0  0  0
  -29.4851  -12.5144   18.1886 C   0  0  0  0  0  0
  -28.0081  -12.3733   18.6072 C   0  0  0  0  0  0
  -27.6632  -13.1968   19.8760 C   0  0  2  0  0  0
  -28.7056  -12.9469   20.9878 C   0  0  0  0  0  0
  -25.2609  -13.8141   20.5667 C   0  0  0  0  0  0
  -24.1851  -13.0432   20.9181 C   0  0  0  0  0  0
  -24.6383  -11.6893   20.8738 C   0  0  0  0  0  0
  -23.9047  -10.4288   21.0411 C   0  0  0  0  0  0
  -24.3606   -9.4202   21.9185 C   0  0  0  0  0  0
  -23.6280   -8.2239   22.0751 C   0  0  0  0  0  0
  -22.4265   -8.0280   21.3545 C   0  0  0  0  0  0
  -21.9905   -9.0255   20.4645 C   0  0  0  0  0  0
  -22.7223  -10.2132   20.3055 C   0  0  0  0  0  0
  -21.6846   -6.0734   22.5274 C   0  0  0  0  0  0
  -21.4010   -6.5638   23.8210 C   0  0  0  0  0  0
  -21.3659   -5.6790   24.9173 C   0  0  0  0  0  0
  -21.6042   -4.3052   24.7222 C   0  0  0  0  0  0
  -21.8822   -3.8148   23.4343 C   0  0  0  0  0  0
  -21.9192   -4.6963   22.3397 C   0  0  0  0  0  0
  -22.7879  -13.5245   21.1848 C   0  0  0  0  0  0
  -22.1660   -4.2146   21.0977 F   0  0  0  0  0  0
  -21.5633   -3.4536   25.7735 F   0  0  0  0  0  0
  -30.0401  -13.2515   20.4388 N   0  0  0  0  0  0
  -26.3030  -12.9287   20.3369 N   0  0  0  0  0  0
  -25.9304  -11.6457   20.5761 N   0  0  0  0  0  0
  -22.0511  -12.8236   22.0393 N   0  0  0  0  0  0
  -25.4328  -15.1854   20.4044 N   0  0  0  0  0  0
  -31.8339  -14.6273   20.1143 O   0  0  0  0  0  0
  -21.6632   -6.8876   21.4238 O   0  0  0  0  0  0
  -22.3570  -14.5549   20.6690 O   0  0  0  0  0  0
  -24.6150  -31.8693   23.2130 C   0  0  0  0  0  0
  -25.9042  -32.4829   23.8422 C   0  0  1  0  0  0
  -27.2274  -27.4359   20.0790 C   0  0  0  0  0  0
  -25.5894  -33.8630   24.2331 N   0  0  0  0  0  0
  -23.4023  -30.4979   21.5551 C   0  0  2  0  0  0
  -24.8444  -28.9702   20.1179 C   0  0  0  0  0  0
  -22.7406  -29.4689   22.4997 C   0  0  0  0  0  0
  -18.0266  -28.1402   22.8509 C   0  0  0  0  0  0
  -24.1484  -36.7332   23.2644 C   0  0  0  0  0  0
  -25.9352  -30.8346   21.3688 C   0  0  0  0  0  0
  -26.0104  -29.4728   20.7087 C   0  0  0  0  0  0
  -27.2059  -28.7161   20.6822 C   0  0  0  0  0  0
  -26.0362  -26.9573   19.4799 C   0  0  0  0  0  0
  -24.8524  -27.7107   19.5036 C   0  0  0  0  0  0
  -23.6080  -29.8362   20.1699 C   0  0  0  0  0  0
  -25.4111  -36.3122   24.0335 C   0  0  1  0  0  0
  -20.5860  -28.3693   23.1330 C   0  0  2  0  0  0
  -20.6748  -26.9426   22.5444 C   0  0  0  0  0  0
  -19.5731  -26.6402   21.5240 C   0  0  0  0  0  0
  -18.1903  -26.7958   22.1631 C   0  0  0  0  0  0
  -19.1517  -28.8860   23.2913 C   0  0  0  0  0  0
  -18.9445  -30.1467   23.8927 C   0  0  0  0  0  0
  -17.6450  -30.6607   24.0593 C   0  0  0  0  0  0
  -25.9033  -34.9482   23.5125 C   0  0  0  0  0  0
  -16.5337  -29.9117   23.6336 C   0  0  0  0  0  0
  -16.7252  -28.6533   23.0357 C   0  0  0  0  0  0
  -26.4473  -31.6616   25.0756 C   0  0  0  0  0  0
  -25.3737  -31.3714   26.1501 C   0  0  0  0  0  0
  -27.0336  -30.3051   24.6178 C   0  0  0  0  0  0
  -27.6036  -32.4378   25.7508 C   0  0  0  0  0  0
  -27.5591  -37.1814   24.8461 C   0  0  0  0  0  0
  -21.4130  -29.3054   22.3721 N   0  0  0  0  0  0
  -26.4302  -37.3801   23.9400 N   0  0  0  0  0  0
  -24.6695  -31.0802   22.1031 N   0  0  0  0  0  0
  -23.4178  -28.8211   23.3024 O   0  0  0  0  0  0
  -28.3971  -26.6953   20.0713 O   0  0  0  0  0  0
  -26.5592  -34.8937   22.4687 O   0  0  0  0  0  0
  -23.5334  -32.1454   23.7509 O   0  0  0  0  0  0
  -29.4679  -19.9463   22.1387 C   0  0  0  0  0  0
  -29.0682  -18.6203   21.8840 C   0  0  0  0  0  0
  -31.2796  -19.7102   20.5288 C   0  0  0  0  0  0
  -30.5828  -20.5015   21.4709 C   0  0  0  0  0  0
  -29.7709  -17.8278   20.9529 C   0  0  0  0  0  0
  -30.8723  -18.3846   20.2654 C   0  0  0  0  0  0
  -30.5789  -24.3163   21.1573 C   0  0  0  0  0  0
  -29.3892  -22.9414   20.1976 C   0  0  0  0  0  0
  -29.5149  -24.4631   20.0651 C   0  0  1  0  0  0
  -30.5947  -15.6343   22.7157 C   0  0  0  0  0  0
  -29.3214  -16.3912   20.6964 C   0  0  0  0  0  0
  -31.0371  -21.9273   21.7992 C   0  0  0  0  0  0
  -28.2375  -25.2797   20.2557 C   0  0  0  0  0  0
  -30.1038  -15.3394   21.3696 N   0  0  0  0  0  0
  -30.7471  -22.9193   20.7322 N   0  3  2  0  0  0
  -31.5433  -17.6499   19.3484 F   0  0  0  0  0  0
  -31.4625  -12.4020   19.0835 H   0  0  0  0  0  0
  -30.3275  -11.2736   19.7692 H   0  0  0  0  0  0
  -29.7163  -11.8023   17.3950 H   0  0  0  0  0  0
  -29.6530  -13.5074   17.7677 H   0  0  0  0  0  0
  -27.8137  -11.3158   18.7888 H   0  0  0  0  0  0
  -27.3541  -12.6636   17.7836 H   0  0  0  0  0  0
  -27.7141  -14.2477   19.5943 H   0  0  0  0  0  0
  -28.6766  -11.9039   21.3065 H   0  0  0  0  0  0
  -28.4645  -13.5270   21.8796 H   0  0  0  0  0  0
  -25.2753   -9.5680   22.4758 H   0  0  0  0  0  0
  -23.9992   -7.4632   22.7466 H   0  0  0  0  0  0
  -21.0838   -8.8773   19.8949 H   0  0  0  0  0  0
  -22.3684  -10.9678   19.6168 H   0  0  0  0  0  0
  -21.1997   -7.6146   23.9710 H   0  0  0  0  0  0
  -21.1479   -6.0520   25.9074 H   0  0  0  0  0  0
  -22.0601   -2.7609   23.2840 H   0  0  0  0  0  0
  -22.4118  -11.9893   22.4778 H   0  0  0  0  0  0
  -21.1127  -13.1268   22.2593 H   0  0  0  0  0  0
  -24.6649  -15.8404   20.5039 H   0  0  0  0  0  0
  -26.2807  -15.6196   20.0643 H   0  0  0  0  0  0
  -26.7109  -32.5549   23.1187 H   0  0  0  0  0  0
  -25.0017  -33.9812   25.0450 H   0  0  0  0  0  0
  -22.6914  -31.3153   21.4180 H   0  0  0  0  0  0
  -23.3755  -35.9658   23.3312 H   0  0  0  0  0  0
  -24.3555  -36.8957   22.2057 H   0  0  0  0  0  0
  -23.7242  -37.6528   23.6683 H   0  0  0  0  0  0
  -26.0522  -31.6046   20.6056 H   0  0  0  0  0  0
  -26.8206  -30.8810   21.9909 H   0  0  0  0  0  0
  -28.1092  -29.1036   21.1334 H   0  0  0  0  0  0
  -25.9825  -26.0128   18.9634 H   0  0  0  0  0  0
  -23.9578  -27.3202   19.0388 H   0  0  0  0  0  0
  -23.7129  -30.6138   19.4123 H   0  0  0  0  0  0
  -22.7320  -29.2558   19.8747 H   0  0  0  0  0  0
  -25.1278  -36.1986   25.0827 H   0  0  0  0  0  0
  -20.9943  -28.3285   24.1458 H   0  0  0  0  0  0
  -20.5677  -26.2305   23.3633 H   0  0  0  0  0  0
  -21.6617  -26.7495   22.1232 H   0  0  0  0  0  0
  -19.6892  -25.6320   21.1259 H   0  0  0  0  0  0
  -19.6672  -27.3223   20.6780 H   0  0  0  0  0  0
  -17.4183  -26.6756   21.4015 H   0  0  0  0  0  0
  -18.0260  -26.0099   22.9014 H   0  0  0  0  0  0
  -19.7916  -30.7287   24.2300 H   0  0  0  0  0  0
  -17.5003  -31.6276   24.5215 H   0  0  0  0  0  0
  -15.5334  -30.3022   23.7658 H   0  0  0  0  0  0
  -15.8652  -28.0860   22.7045 H   0  0  0  0  0  0
  -24.5946  -30.7005   25.7856 H   0  0  0  0  0  0
  -24.8866  -32.2854   26.4909 H   0  0  0  0  0  0
  -25.8093  -30.8943   27.0289 H   0  0  0  0  0  0
  -26.2904  -29.6765   24.1261 H   0  0  0  0  0  0
  -27.4108  -29.7331   25.4663 H   0  0  0  0  0  0
  -27.8729  -30.4342   23.9344 H   0  0  0  0  0  0
  -27.2632  -33.3677   26.2077 H   0  0  0  0  0  0
  -28.3831  -32.6952   25.0326 H   0  0  0  0  0  0
  -28.0741  -31.8539   26.5425 H   0  0  0  0  0  0
  -28.2607  -38.0113   24.7503 H   0  0  0  0  0  0
  -28.1091  -36.2639   24.6301 H   0  0  0  0  0  0
  -27.2307  -37.1476   25.8865 H   0  0  0  0  0  0
  -20.9275  -29.8763   21.6937 H   0  0  0  0  0  0
  -26.0199  -38.2880   24.1402 H   0  0  0  0  0  0
  -28.9167  -20.5286   22.8650 H   0  0  0  0  0  0
  -28.2201  -18.2094   22.4143 H   0  0  0  0  0  0
  -32.1350  -20.1076   20.0020 H   0  0  0  0  0  0
  -30.1753  -24.4264   22.1649 H   0  0  0  0  0  0
  -31.4695  -24.9302   21.0126 H   0  0  0  0  0  0
  -29.2738  -22.4047   19.2557 H   0  0  0  0  0  0
  -28.6360  -22.6367   20.9286 H   0  0  0  0  0  0
  -29.9924  -24.7008   19.1120 H   0  0  0  0  0  0
  -29.8123  -16.0994   23.3170 H   0  0  0  0  0  0
  -31.4521  -16.3080   22.6778 H   0  0  0  0  0  0
  -30.9027  -14.7214   23.2298 H   0  0  0  0  0  0
  -29.3077  -16.2316   19.6155 H   0  0  0  0  0  0
  -28.2845  -16.2811   21.0155 H   0  0  0  0  0  0
  -32.1072  -21.9323   22.0061 H   0  0  0  0  0  0
  -30.5543  -22.2364   22.7265 H   0  0  0  0  0  0
  -27.8204  -25.1039   21.2485 H   0  0  0  0  0  0
  -27.5251  -24.8584   19.5525 H   0  0  0  0  0  0
  -31.4148  -22.8517   19.9794 H   0  0  0  0  0  0
  1 25  1  0  0  0
  1 30  2  0  0  0
  1 84  1  0  0  0
  2  3  1  0  0  0
  2 25  1  0  0  0
  2 87  1  0  0  0
  2 88  1  0  0  0
  3  4  1  0  0  0
  3 89  1  0  0  0
  3 90  1  0  0  0
  4  5  1  0  0  0
  4 91  1  0  0  0
  4 92  1  0  0  0
  5  6  1  0  0  0
  5 26  1  0  0  0
  5 93  1  0  0  0
  6 25  1  0  0  0
  6 94  1  0  0  0
  6 95  1  0  0  0
  7  8  2  0  0  0
  7 26  1  0  0  0
  7 29  1  0  0  0
  8  9  1  0  0  0
  8 22  1  0  0  0
  9 10  1  0  0  0
  9 27  2  0  0  0
 10 11  2  0  0  0
 10 15  1  0  0  0
 11 12  1  0  0  0
 11 96  1  0  0  0
 12 13  2  0  0  0
 12 97  1  0  0  0
 13 14  1  0  0  0
 13 31  1  0  0  0
 14 15  2  0  0  0
 14 98  1  0  0  0
 15 99  1  0  0  0
 16 17  2  0  0  0
 16 21  1  0  0  0
 16 31  1  0  0  0
 17 18  1  0  0  0
 17100  1  0  0  0
 18 19  2  0  0  0
 18101  1  0  0  0
 19 20  1  0  0  0
 19 24  1  0  0  0
 20 21  2  0  0  0
 20102  1  0  0  0
 21 23  1  0  0  0
 22 28  1  0  0  0
 22 32  2  0  0  0
 26 27  1  0  0  0
 28103  1  0  0  0
 28104  1  0  0  0
 29105  1  0  0  0
 29106  1  0  0  0
 33 34  1  0  0  0
 33 66  1  0  0  0
 33 70  2  0  0  0
 34 36  1  0  0  0
 34 59  1  0  0  0
 34107  1  0  0  0
 35 44  2  0  0  0
 35 45  1  0  0  0
 35 68  1  0  0  0
 36 56  1  0  0  0
 36108  1  0  0  0
 37 39  1  0  0  0
 37 47  1  0  0  0
 37 66  1  0  0  0
 37109  1  0  0  0
 38 43  2  0  0  0
 38 46  1  0  0  0
 38 47  1  0  0  0
 39 64  1  0  0  0
 39 67  2  0  0  0
 40 52  1  0  0  0
 40 53  2  0  0  0
 40 58  1  0  0  0
 41110  1  0  0  0
 41111  1  0  0  0
 41112  1  0  0  0
 41 48  1  0  0  0
 42 43  1  0  0  0
 42 66  1  0  0  0
 42113  1  0  0  0
 42114  1  0  0  0
 43 44  1  0  0  0
 44115  1  0  0  0
 45 46  2  0  0  0
 45116  1  0  0  0
 46117  1  0  0  0
 47118  1  0  0  0
 47119  1  0  0  0
 48 56  1  0  0  0
 48 65  1  0  0  0
 48120  1  0  0  0
 49 50  1  0  0  0
 49 53  1  0  0  0
 49 64  1  0  0  0
 49121  1  0  0  0
 50 51  1  0  0  0
 50122  1  0  0  0
 50123  1  0  0  0
 51 52  1  0  0  0
 51124  1  0  0  0
 51125  1  0  0  0
 52126  1  0  0  0
 52127  1  0  0  0
 53 54  1  0  0  0
 54 55  2  0  0  0
 54128  1  0  0  0
 55 57  1  0  0  0
 55129  1  0  0  0
 56 69  2  0  0  0
 57 58  2  0  0  0
 57130  1  0  0  0
 58131  1  0  0  0
 59 60  1  0  0  0
 59 61  1  0  0  0
 59 62  1  0  0  0
 60132  1  0  0  0
 60133  1  0  0  0
 60134  1  0  0  0
 61135  1  0  0  0
 61136  1  0  0  0
 61137  1  0  0  0
 62138  1  0  0  0
 62139  1  0  0  0
 62140  1  0  0  0
 63 65  1  0  0  0
 63141  1  0  0  0
 63142  1  0  0  0
 63143  1  0  0  0
 64144  1  0  0  0
 65145  1  0  0  0
 68 83  1  0  0  0
 71 72  2  0  0  0
 71 74  1  0  0  0
 71146  1  0  0  0
 72 75  1  0  0  0
 72147  1  0  0  0
 73 74  2  0  0  0
 73 76  1  0  0  0
 73148  1  0  0  0
 74 82  1  0  0  0
 75 76  2  0  0  0
 75 81  1  0  0  0
 76 86  1  0  0  0
 77 79  1  0  0  0
 77 85  1  0  0  0
 77149  1  0  0  0
 77150  1  0  0  0
 78 79  1  0  0  0
 78 85  1  0  0  0
 78151  1  0  0  0
 78152  1  0  0  0
 79 83  1  0  0  0
 79153  1  0  0  0
 80 84  1  0  0  0
 80154  1  0  0  0
 80155  1  0  0  0
 80156  1  0  0  0
 81 84  1  0  0  0
 81157  1  0  0  0
 81158  1  0  0  0
 82159  1  0  0  0
 82160  1  0  0  0
 82 85  1  0  0  0
 83161  1  0  0  0
 83162  1  0  0  0
 85163  1  0  0  0
M  CHG  1  85   1
M  ISO  4   1 100  68 101  83 101  84 100
M  END
> <chiral flag>
0

> <version>
0

> <s_m_source_file>
/data/baiqing/PycharmProjects/Reinvent-master-3.2/result/LINK_invent/BTK/process_docking_weight1_custom_product_contain_oxygen_bond_distance_aromatic_linkinvent_7_9_3/rearranged_h_0014.sdf

> <i_m_source_file_index>
24

> <r_mmod_Potential_Energy-OPLS-2005>
-67.4599533081055

> <r_mmod_Stretch_Energy-OPLS-2005>
36.0814170837402

> <r_mmod_Bend_Energy-OPLS-2005>
105.667022705078

> <r_mmod_Torsional_Energy-OPLS-2005>
303.668609619141

> <r_mmod_Improper_Torsional_Energy-OPLS-2005>
3.45858120918274

> <r_mmod_Van_der_Waal_Energy-OPLS-2005>
152.651885986328

> <r_mmod_Electrostatic_Energy-OPLS-2005>
-220.974487304688

> <r_mmod_Solvation_Energy-OPLS-2005>
-457.978271484375

> <b_mmod_Minimization_Converged-OPLS-2005>
0

> <r_mmod_RMS_Derivative-OPLS-2005>
1.5703889131546

$$$$
24
                    3D
 Structure written by MMmdl.
170178  0  0  1  0            999 V2000
  -30.6519  -14.5246   20.6457 C   0  0  0  0  0  0
  -30.4551  -12.3697   19.4152 C   0  0  0  0  0  0
  -29.5100  -12.5377   18.2021 C   0  0  0  0  0  0
  -28.0261  -12.3801   18.6060 C   0  0  0  0  0  0
  -27.6667  -13.1981   19.8731 C   0  0  2  0  0  0
  -28.7023  -12.9239   20.9810 C   0  0  0  0  0  0
  -25.2625  -13.8147   20.5661 C   0  0  0  0  0  0
  -24.1850  -13.0443   20.9133 C   0  0  0  0  0  0
  -24.6388  -11.6906   20.8692 C   0  0  0  0  0  0
  -23.9055  -10.4303   21.0387 C   0  0  0  0  0  0
  -24.3604   -9.4222   21.9168 C   0  0  0  0  0  0
  -23.6274   -8.2265   22.0760 C   0  0  0  0  0  0
  -22.4256   -8.0297   21.3563 C   0  0  0  0  0  0
  -21.9880   -9.0269   20.4666 C   0  0  0  0  0  0
  -22.7221  -10.2136   20.3055 C   0  0  0  0  0  0
  -21.6855   -6.0736   22.5287 C   0  0  0  0  0  0
  -21.4021   -6.5634   23.8219 C   0  0  0  0  0  0
  -21.3652   -5.6786   24.9172 C   0  0  0  0  0  0
  -21.6033   -4.3054   24.7221 C   0  0  0  0  0  0
  -21.8824   -3.8149   23.4343 C   0  0  0  0  0  0
  -21.9192   -4.6965   22.3402 C   0  0  0  0  0  0
  -22.7886  -13.5274   21.1809 C   0  0  0  0  0  0
  -22.1664   -4.2157   21.0982 F   0  0  0  0  0  0
  -21.5607   -3.4538   25.7725 F   0  0  0  0  0  0
  -30.0324  -13.3145   20.4675 N   0  0  0  0  0  0
  -26.3045  -12.9296   20.3308 N   0  0  0  0  0  0
  -25.9302  -11.6476   20.5686 N   0  0  0  0  0  0
  -22.0494  -12.8306   22.0368 N   0  0  0  0  0  0
  -25.4381  -15.1865   20.4121 N   0  0  0  0  0  0
  -31.7110  -14.8075   20.0761 O   0  0  0  0  0  0
  -21.6632   -6.8885   21.4255 O   0  0  0  0  0  0
  -22.3586  -14.5586   20.6651 O   0  0  0  0  0  0
  -24.6162  -31.8668   23.2075 C   0  0  0  0  0  0
  -25.9043  -32.4825   23.8381 C   0  0  1  0  0  0
  -27.2368  -27.4190   20.0978 C   0  0  0  0  0  0
  -25.5880  -33.8629   24.2318 N   0  0  0  0  0  0
  -23.4044  -30.4887   21.5512 C   0  0  2  0  0  0
  -24.8498  -28.9417   20.1267 C   0  0  0  0  0  0
  -22.7405  -29.4656   22.5014 C   0  0  0  0  0  0
  -18.0258  -28.1374   22.8498 C   0  0  0  0  0  0
  -24.1477  -36.7323   23.2647 C   0  0  0  0  0  0
  -25.9335  -30.8282   21.3608 C   0  0  0  0  0  0
  -26.0120  -29.4564   20.7149 C   0  0  0  0  0  0
  -27.2106  -28.7044   20.6920 C   0  0  0  0  0  0
  -26.0556  -26.9116   19.5205 C   0  0  0  0  0  0
  -24.8666  -27.6668   19.5312 C   0  0  0  0  0  0
  -23.6148  -29.8147   20.1688 C   0  0  0  0  0  0
  -25.4101  -36.3134   24.0354 C   0  0  1  0  0  0
  -20.5848  -28.3666   23.1326 C   0  0  2  0  0  0
  -20.6750  -26.9403   22.5425 C   0  0  0  0  0  0
  -19.5730  -26.6386   21.5214 C   0  0  0  0  0  0
  -18.1904  -26.7918   22.1620 C   0  0  0  0  0  0
  -19.1507  -28.8835   23.2906 C   0  0  0  0  0  0
  -18.9448  -30.1436   23.8925 C   0  0  0  0  0  0
  -17.6454  -30.6588   24.0569 C   0  0  0  0  0  0
  -25.9032  -34.9493   23.5143 C   0  0  0  0  0  0
  -16.5344  -29.9097   23.6322 C   0  0  0  0  0  0
  -16.7252  -28.6505   23.0361 C   0  0  0  0  0  0
  -26.4480  -31.6603   25.0702 C   0  0  0  0  0  0
  -25.3748  -31.3707   26.1446 C   0  0  0  0  0  0
  -27.0318  -30.3049   24.6089 C   0  0  0  0  0  0
  -27.6067  -32.4323   25.7445 C   0  0  0  0  0  0
  -27.5585  -37.1814   24.8475 C   0  0  0  0  0  0
  -21.4128  -29.3031   22.3746 N   0  0  0  0  0  0
  -26.4289  -37.3815   23.9421 N   0  0  0  0  0  0
  -24.6704  -31.0764   22.0986 N   0  0  0  0  0  0
  -23.4160  -28.8204   23.3072 O   0  0  0  0  0  0
  -28.4111  -26.6988   20.0214 O   0  0  0  0  0  0
  -26.5608  -34.8950   22.4716 O   0  0  0  0  0  0
  -23.5346  -32.1423   23.7442 O   0  0  0  0  0  0
  -29.8372  -16.8380   21.4540 C   0  0  0  0  0  0
  -29.9183  -15.4754   21.4997 C   0  0  0  0  0  0
  -28.9294  -17.5615   22.4290 C   0  0  0  0  0  0
  -28.7490  -18.9964   21.9145 C   0  0  0  0  0  0
  -30.4467  -17.9247   20.5517 C   0  0  2  0  0  0
  -29.3569  -19.0657   20.4999 C   0  0  2  0  0  0
  -29.9913  -17.2206   18.1796 C   0  0  0  0  0  0
  -32.1843  -18.1659   18.7863 C   0  0  0  0  0  0
  -28.0602  -21.4199   18.6465 C   0  0  0  0  0  0
  -29.8176  -20.5325   20.1588 C   0  0  0  0  0  0
  -28.2367  -24.1466   19.8824 C   0  0  0  0  0  0
  -29.1602  -22.9477   20.3047 C   0  0  0  0  0  0
  -28.4786  -25.4397   20.7195 C   0  0  0  0  0  0
  -30.9883  -17.4235   19.2550 N   0  3  0  0  0  0
  -28.7162  -21.5459   19.9725 N   0  3  1  0  0  0
  -31.4931  -12.5277   19.1130 H   0  0  0  0  0  0
  -30.4139  -11.3486   19.7967 H   0  0  0  0  0  0
  -29.7664  -11.8125   17.4280 H   0  0  0  0  0  0
  -29.6611  -13.5220   17.7542 H   0  0  0  0  0  0
  -27.8404  -11.3207   18.7900 H   0  0  0  0  0  0
  -27.3802  -12.6665   17.7753 H   0  0  0  0  0  0
  -27.7242  -14.2544   19.6090 H   0  0  0  0  0  0
  -28.7067  -11.8593   21.2190 H   0  0  0  0  0  0
  -28.3941  -13.3890   21.9137 H   0  0  0  0  0  0
  -25.2749   -9.5688   22.4736 H   0  0  0  0  0  0
  -23.9980   -7.4662   22.7483 H   0  0  0  0  0  0
  -21.0809   -8.8816   19.8974 H   0  0  0  0  0  0
  -22.3709  -10.9673   19.6168 H   0  0  0  0  0  0
  -21.2042   -7.6148   23.9729 H   0  0  0  0  0  0
  -21.1452   -6.0508   25.9075 H   0  0  0  0  0  0
  -22.0602   -2.7615   23.2842 H   0  0  0  0  0  0
  -22.4059  -11.9977   22.4808 H   0  0  0  0  0  0
  -21.1125  -13.1411   22.2539 H   0  0  0  0  0  0
  -24.6789  -15.8457   20.5365 H   0  0  0  0  0  0
  -26.3033  -15.6257   20.1256 H   0  0  0  0  0  0
  -26.7104  -32.5542   23.1134 H   0  0  0  0  0  0
  -25.0001  -33.9786   25.0446 H   0  0  0  0  0  0
  -22.6948  -31.3070   21.4095 H   0  0  0  0  0  0
  -23.3743  -35.9650   23.3326 H   0  0  0  0  0  0
  -24.3578  -36.8918   22.2058 H   0  0  0  0  0  0
  -23.7214  -37.6532   23.6643 H   0  0  0  0  0  0
  -26.0428  -31.5898   20.5875 H   0  0  0  0  0  0
  -26.8223  -30.8872   21.9776 H   0  0  0  0  0  0
  -28.1135  -29.1074   21.1318 H   0  0  0  0  0  0
  -26.0605  -25.9406   19.0476 H   0  0  0  0  0  0
  -23.9721  -27.2657   19.0723 H   0  0  0  0  0  0
  -23.7286  -30.5883   19.4087 H   0  0  0  0  0  0
  -22.7358  -29.2411   19.8704 H   0  0  0  0  0  0
  -25.1272  -36.2011   25.0847 H   0  0  0  0  0  0
  -20.9936  -28.3233   24.1448 H   0  0  0  0  0  0
  -20.5656  -26.2276   23.3618 H   0  0  0  0  0  0
  -21.6628  -26.7452   22.1226 H   0  0  0  0  0  0
  -19.6906  -25.6304   21.1232 H   0  0  0  0  0  0
  -19.6667  -27.3213   20.6763 H   0  0  0  0  0  0
  -17.4179  -26.6675   21.4015 H   0  0  0  0  0  0
  -18.0305  -26.0047   22.9010 H   0  0  0  0  0  0
  -19.7937  -30.7227   24.2314 H   0  0  0  0  0  0
  -17.5028  -31.6281   24.5159 H   0  0  0  0  0  0
  -15.5351  -30.3018   23.7643 H   0  0  0  0  0  0
  -15.8645  -28.0841   22.7075 H   0  0  0  0  0  0
  -24.5912  -30.7072   25.7779 H   0  0  0  0  0  0
  -24.8933  -32.2847   26.4924 H   0  0  0  0  0  0
  -25.8081  -30.8848   27.0190 H   0  0  0  0  0  0
  -26.2852  -29.6768   24.1200 H   0  0  0  0  0  0
  -27.4161  -29.7342   25.4554 H   0  0  0  0  0  0
  -27.8660  -30.4392   23.9193 H   0  0  0  0  0  0
  -27.2713  -33.3628   26.2041 H   0  0  0  0  0  0
  -28.3834  -32.6867   25.0222 H   0  0  0  0  0  0
  -28.0770  -31.8422   26.5320 H   0  0  0  0  0  0
  -28.2621  -38.0097   24.7522 H   0  0  0  0  0  0
  -28.1055  -36.2632   24.6286 H   0  0  0  0  0  0
  -27.2310  -37.1459   25.8882 H   0  0  0  0  0  0
  -20.9297  -29.8773   21.6982 H   0  0  0  0  0  0
  -26.0191  -38.2901   24.1413 H   0  0  0  0  0  0
  -29.3804  -15.0647   22.3338 H   0  0  0  0  0  0
  -29.3682  -17.5606   23.4274 H   0  0  0  0  0  0
  -27.9672  -17.0523   22.4928 H   0  0  0  0  0  0
  -29.2796  -19.6694   22.5899 H   0  0  0  0  0  0
  -27.7019  -19.3005   21.9263 H   0  0  0  0  0  0
  -31.2847  -18.2988   21.1420 H   0  0  0  0  0  0
  -28.5777  -18.7567   19.8054 H   0  0  0  0  0  0
  -29.1483  -16.6232   18.5215 H   0  0  0  0  0  0
  -30.4422  -16.6958   17.3374 H   0  0  0  0  0  0
  -29.6091  -18.1716   17.8068 H   0  0  0  0  0  0
  -32.9206  -18.2809   19.5819 H   0  0  0  0  0  0
  -31.9304  -19.1595   18.4174 H   0  0  0  0  0  0
  -32.6736  -17.6298   17.9734 H   0  0  0  0  0  0
  -27.7399  -20.3965   18.4566 H   0  0  0  0  0  0
  -28.7326  -21.7158   17.8403 H   0  0  0  0  0  0
  -27.1622  -22.0304   18.5764 H   0  0  0  0  0  0
  -30.4248  -20.5416   19.2555 H   0  0  0  0  0  0
  -30.4865  -20.8712   20.9518 H   0  0  0  0  0  0
  -27.1847  -23.8806   19.9731 H   0  0  0  0  0  0
  -28.4090  -24.3629   18.8270 H   0  0  0  0  0  0
  -29.3061  -22.9843   21.3846 H   0  0  0  0  0  0
  -30.1449  -23.1155   19.8675 H   0  0  0  0  0  0
  -29.4909  -25.3999   21.1241 H   0  0  0  0  0  0
  -27.8233  -25.4457   21.5924 H   0  0  0  0  0  0
  -31.3528  -16.4983   19.4766 H   0  0  0  0  0  0
  -28.0041  -21.3273   20.6549 H   0  0  0  0  0  0
  1 25  1  0  0  0
  1 30  2  0  0  0
  1 72  1  0  0  0
  2  3  1  0  0  0
  2 25  1  0  0  0
  2 86  1  0  0  0
  2 87  1  0  0  0
  3  4  1  0  0  0
  3 88  1  0  0  0
  3 89  1  0  0  0
  4  5  1  0  0  0
  4 90  1  0  0  0
  4 91  1  0  0  0
  5  6  1  0  0  0
  5 26  1  0  0  0
  5 92  1  0  0  0
  6 25  1  0  0  0
  6 93  1  0  0  0
  6 94  1  0  0  0
  7  8  2  0  0  0
  7 26  1  0  0  0
  7 29  1  0  0  0
  8  9  1  0  0  0
  8 22  1  0  0  0
  9 10  1  0  0  0
  9 27  2  0  0  0
 10 11  2  0  0  0
 10 15  1  0  0  0
 11 12  1  0  0  0
 11 95  1  0  0  0
 12 13  2  0  0  0
 12 96  1  0  0  0
 13 14  1  0  0  0
 13 31  1  0  0  0
 14 15  2  0  0  0
 14 97  1  0  0  0
 15 98  1  0  0  0
 16 17  2  0  0  0
 16 21  1  0  0  0
 16 31  1  0  0  0
 17 18  1  0  0  0
 17 99  1  0  0  0
 18 19  2  0  0  0
 18100  1  0  0  0
 19 20  1  0  0  0
 19 24  1  0  0  0
 20 21  2  0  0  0
 20101  1  0  0  0
 21 23  1  0  0  0
 22 28  1  0  0  0
 22 32  2  0  0  0
 26 27  1  0  0  0
 28102  1  0  0  0
 28103  1  0  0  0
 29104  1  0  0  0
 29105  1  0  0  0
 33 34  1  0  0  0
 33 66  1  0  0  0
 33 70  2  0  0  0
 34 36  1  0  0  0
 34 59  1  0  0  0
 34106  1  0  0  0
 35 44  2  0  0  0
 35 45  1  0  0  0
 35 68  1  0  0  0
 36 56  1  0  0  0
 36107  1  0  0  0
 37 39  1  0  0  0
 37 47  1  0  0  0
 37 66  1  0  0  0
 37108  1  0  0  0
 38 43  2  0  0  0
 38 46  1  0  0  0
 38 47  1  0  0  0
 39 64  1  0  0  0
 39 67  2  0  0  0
 40 52  1  0  0  0
 40 53  2  0  0  0
 40 58  1  0  0  0
 41109  1  0  0  0
 41110  1  0  0  0
 41111  1  0  0  0
 41 48  1  0  0  0
 42 43  1  0  0  0
 42 66  1  0  0  0
 42112  1  0  0  0
 42113  1  0  0  0
 43 44  1  0  0  0
 44114  1  0  0  0
 45 46  2  0  0  0
 45115  1  0  0  0
 46116  1  0  0  0
 47117  1  0  0  0
 47118  1  0  0  0
 48 56  1  0  0  0
 48 65  1  0  0  0
 48119  1  0  0  0
 49 50  1  0  0  0
 49 53  1  0  0  0
 49 64  1  0  0  0
 49120  1  0  0  0
 50 51  1  0  0  0
 50121  1  0  0  0
 50122  1  0  0  0
 51 52  1  0  0  0
 51123  1  0  0  0
 51124  1  0  0  0
 52125  1  0  0  0
 52126  1  0  0  0
 53 54  1  0  0  0
 54 55  2  0  0  0
 54127  1  0  0  0
 55 57  1  0  0  0
 55128  1  0  0  0
 56 69  2  0  0  0
 57 58  2  0  0  0
 57129  1  0  0  0
 58130  1  0  0  0
 59 60  1  0  0  0
 59 61  1  0  0  0
 59 62  1  0  0  0
 60131  1  0  0  0
 60132  1  0  0  0
 60133  1  0  0  0
 61134  1  0  0  0
 61135  1  0  0  0
 61136  1  0  0  0
 62137  1  0  0  0
 62138  1  0  0  0
 62139  1  0  0  0
 63 65  1  0  0  0
 63140  1  0  0  0
 63141  1  0  0  0
 63142  1  0  0  0
 64143  1  0  0  0
 65144  1  0  0  0
 68 83  1  0  0  0
 71 72  2  0  0  0
 71 73  1  0  0  0
 71 75  1  0  0  0
 72145  1  0  0  0
 73 74  1  0  0  0
 73146  1  0  0  0
 73147  1  0  0  0
 74 76  1  0  0  0
 74148  1  0  0  0
 74149  1  0  0  0
 75 76  1  0  0  0
 75 84  1  0  0  0
 75150  1  0  0  0
 76 80  1  0  0  0
 76151  1  0  0  0
 77152  1  0  0  0
 77153  1  0  0  0
 77154  1  0  0  0
 77 84  1  0  0  0
 78 84  1  0  0  0
 78155  1  0  0  0
 78156  1  0  0  0
 78157  1  0  0  0
 79158  1  0  0  0
 79159  1  0  0  0
 79160  1  0  0  0
 79 85  1  0  0  0
 80 85  1  0  0  0
 80161  1  0  0  0
 80162  1  0  0  0
 81 82  1  0  0  0
 81 83  1  0  0  0
 81163  1  0  0  0
 81164  1  0  0  0
 82 85  1  0  0  0
 82165  1  0  0  0
 82166  1  0  0  0
 83167  1  0  0  0
 83168  1  0  0  0
 84169  1  0  0  0
 85170  1  0  0  0
M  CHG  2  84   1  85   1
M  ISO  4   1 100  68 101  72 100  83 101
M  END
> <chiral flag>
0

> <version>
0

> <s_m_source_file>
/data/baiqing/PycharmProjects/Reinvent-master-3.2/result/LINK_invent/BTK/process_docking_weight1_custom_product_contain_oxygen_bond_distance_aromatic_linkinvent_7_9_3/rearranged_h_0014.sdf

> <i_m_source_file_index>
25

> <r_mmod_Potential_Energy-OPLS-2005>
-131.201599121094

> <r_mmod_Stretch_Energy-OPLS-2005>
51.4702682495117

> <r_mmod_Bend_Energy-OPLS-2005>
177.886016845703

> <r_mmod_Torsional_Energy-OPLS-2005>
279.959045410156

> <r_mmod_Improper_Torsional_Energy-OPLS-2005>
2.31440615653992

> <r_mmod_Van_der_Waal_Energy-OPLS-2005>
127.080123901367

> <r_mmod_Electrostatic_Energy-OPLS-2005>
101.462867736816

> <r_mmod_Solvation_Energy-OPLS-2005>
-889.133666992188

> <b_mmod_Minimization_Converged-OPLS-2005>
0

> <r_mmod_RMS_Derivative-OPLS-2005>
3.00868535041809

$$$$
25
                    3D
 Structure written by MMmdl.
156165  0  0  1  0            999 V2000
  -30.5497  -14.7821   20.4519 C   0  0  0  0  0  0
  -30.4512  -12.4771   19.4671 C   0  0  0  0  0  0
  -29.5168  -12.5175   18.2348 C   0  0  0  0  0  0
  -28.0424  -12.3294   18.6487 C   0  0  0  0  0  0
  -27.6444  -13.2226   19.8529 C   0  0  2  0  0  0
  -28.6921  -13.1382   20.9851 C   0  0  0  0  0  0
  -25.2523  -13.8162   20.5686 C   0  0  0  0  0  0
  -24.1812  -13.0422   20.9211 C   0  0  0  0  0  0
  -24.6396  -11.6899   20.8750 C   0  0  0  0  0  0
  -23.9069  -10.4285   21.0413 C   0  0  0  0  0  0
  -24.3619   -9.4199   21.9189 C   0  0  0  0  0  0
  -23.6291   -8.2237   22.0756 C   0  0  0  0  0  0
  -22.4272   -8.0280   21.3548 C   0  0  0  0  0  0
  -21.9911   -9.0255   20.4650 C   0  0  0  0  0  0
  -22.7244  -10.2132   20.3060 C   0  0  0  0  0  0
  -21.6851   -6.0736   22.5281 C   0  0  0  0  0  0
  -21.4012   -6.5641   23.8214 C   0  0  0  0  0  0
  -21.3657   -5.6792   24.9175 C   0  0  0  0  0  0
  -21.6043   -4.3055   24.7225 C   0  0  0  0  0  0
  -21.8818   -3.8148   23.4346 C   0  0  0  0  0  0
  -21.9190   -4.6965   22.3402 C   0  0  0  0  0  0
  -22.7835  -13.5213   21.1867 C   0  0  0  0  0  0
  -22.1659   -4.2151   21.0978 F   0  0  0  0  0  0
  -21.5632   -3.4539   25.7738 F   0  0  0  0  0  0
  -29.9901  -13.5215   20.4096 N   0  0  0  0  0  0
  -26.2948  -12.9354   20.3280 N   0  0  0  0  0  0
  -25.9323  -11.6507   20.5748 N   0  0  0  0  0  0
  -22.0477  -12.8207   22.0424 N   0  0  0  0  0  0
  -25.4191  -15.1887   20.4079 N   0  0  0  0  0  0
  -31.7364  -14.9440   20.1486 O   0  0  0  0  0  0
  -21.6636   -6.8880   21.4243 O   0  0  0  0  0  0
  -22.3524  -14.5520   20.6712 O   0  0  0  0  0  0
  -24.6339  -31.8517   23.1948 C   0  0  0  0  0  0
  -25.9154  -32.4737   23.8303 C   0  0  1  0  0  0
  -27.2274  -27.2423   20.1355 C   0  0  0  0  0  0
  -25.5933  -33.8539   24.2223 N   0  0  0  0  0  0
  -23.4318  -30.4723   21.5387 C   0  0  2  0  0  0
  -24.8800  -28.9099   20.1135 C   0  0  0  0  0  0
  -22.7511  -29.4586   22.4901 C   0  0  0  0  0  0
  -18.0295  -28.1392   22.8489 C   0  0  0  0  0  0
  -24.1489  -36.7276   23.2641 C   0  0  0  0  0  0
  -25.9785  -30.7606   21.3753 C   0  0  0  0  0  0
  -26.0528  -29.3806   20.7177 C   0  0  0  0  0  0
  -27.2303  -28.5624   20.7080 C   0  0  0  0  0  0
  -26.0273  -26.8349   19.5159 C   0  0  0  0  0  0
  -24.8735  -27.6464   19.5006 C   0  0  0  0  0  0
  -23.6514  -29.8000   20.1573 C   0  0  0  0  0  0
  -25.4120  -36.3059   24.0318 C   0  0  1  0  0  0
  -20.5900  -28.3705   23.1269 C   0  0  2  0  0  0
  -20.6780  -26.9419   22.5412 C   0  0  0  0  0  0
  -19.5751  -26.6385   21.5219 C   0  0  0  0  0  0
  -18.1932  -26.7933   22.1630 C   0  0  0  0  0  0
  -19.1550  -28.8867   23.2870 C   0  0  0  0  0  0
  -18.9468  -30.1470   23.8883 C   0  0  0  0  0  0
  -17.6466  -30.6588   24.0569 C   0  0  0  0  0  0
  -25.9061  -34.9431   23.5076 C   0  0  0  0  0  0
  -16.5358  -29.9085   23.6338 C   0  0  0  0  0  0
  -16.7283  -28.6507   23.0353 C   0  0  0  0  0  0
  -26.4508  -31.6580   25.0714 C   0  0  0  0  0  0
  -25.3720  -31.3737   26.1428 C   0  0  0  0  0  0
  -27.0367  -30.2994   24.6228 C   0  0  0  0  0  0
  -27.6052  -32.4335   25.7491 C   0  0  0  0  0  0
  -27.5578  -37.1792   24.8462 C   0  0  0  0  0  0
  -21.4215  -29.3043   22.3648 N   0  0  0  0  0  0
  -26.4290  -37.3764   23.9408 N   0  0  0  0  0  0
  -24.7007  -31.0466   22.0929 N   0  0  0  0  0  0
  -23.4199  -28.8135   23.3019 O   0  0  0  0  0  0
  -28.3394  -26.3630   20.1640 O   0  0  0  0  0  0
  -26.5638  -34.8918   22.4649 O   0  0  0  0  0  0
  -23.5488  -32.1342   23.7240 O   0  0  0  0  0  0
  -28.3438  -19.3846   19.8152 C   0  0  0  0  0  0
  -28.5074  -17.9604   19.9085 C   0  0  0  0  0  0
  -30.6354  -18.2504   20.9277 C   0  0  0  0  0  0
  -29.2993  -20.3271   20.3006 C   0  0  0  0  0  0
  -29.6563  -17.3212   20.4627 C   0  0  0  0  0  0
  -30.4621  -19.6859   20.8597 C   0  0  0  0  0  0
  -28.1729  -23.9423   19.0682 C   0  0  0  0  0  0
  -29.3328  -24.1991   21.1774 C   0  0  0  0  0  0
  -28.0592  -22.3741   19.3373 C   0  0  0  0  0  0
  -29.2464  -22.6279   21.4245 C   0  0  0  0  0  0
  -28.1825  -24.8623   20.3399 C   0  0  0  0  0  0
  -29.1081  -21.7861   20.2106 N   0  0  0  0  0  0
  -29.6581  -15.8348   20.6374 N   0  0  0  0  0  0
  -31.4650  -20.4602   21.3431 F   0  0  0  0  0  0
  -31.4864  -12.6362   19.1599 H   0  0  0  0  0  0
  -30.4249  -11.4955   19.9430 H   0  0  0  0  0  0
  -29.8036  -11.7484   17.5166 H   0  0  0  0  0  0
  -29.6314  -13.4729   17.7202 H   0  0  0  0  0  0
  -27.9045  -11.2791   18.9076 H   0  0  0  0  0  0
  -27.3840  -12.5218   17.8008 H   0  0  0  0  0  0
  -27.6385  -14.2450   19.4756 H   0  0  0  0  0  0
  -28.7391  -12.1279   21.3941 H   0  0  0  0  0  0
  -28.4213  -13.7880   21.8191 H   0  0  0  0  0  0
  -25.2766   -9.5671   22.4760 H   0  0  0  0  0  0
  -24.0001   -7.4626   22.7474 H   0  0  0  0  0  0
  -21.0844   -8.8777   19.8950 H   0  0  0  0  0  0
  -22.3710  -10.9673   19.6169 H   0  0  0  0  0  0
  -21.2004   -7.6150   23.9720 H   0  0  0  0  0  0
  -21.1482   -6.0523   25.9079 H   0  0  0  0  0  0
  -22.0598   -2.7609   23.2850 H   0  0  0  0  0  0
  -22.4090  -11.9868   22.4810 H   0  0  0  0  0  0
  -21.1097  -13.1239   22.2630 H   0  0  0  0  0  0
  -24.6424  -15.8335   20.5071 H   0  0  0  0  0  0
  -26.2475  -15.6259   20.0291 H   0  0  0  0  0  0
  -26.7223  -32.5378   23.1045 H   0  0  0  0  0  0
  -25.0076  -33.9667   25.0366 H   0  0  0  0  0  0
  -22.7303  -31.2954   21.3883 H   0  0  0  0  0  0
  -23.3758  -35.9600   23.3296 H   0  0  0  0  0  0
  -24.3575  -36.8914   22.2056 H   0  0  0  0  0  0
  -23.7236  -37.6468   23.6683 H   0  0  0  0  0  0
  -26.1195  -31.5212   20.6059 H   0  0  0  0  0  0
  -26.8546  -30.8096   22.0105 H   0  0  0  0  0  0
  -28.1325  -28.9225   21.1828 H   0  0  0  0  0  0
  -25.9640  -25.8649   19.0479 H   0  0  0  0  0  0
  -23.9746  -27.2783   19.0249 H   0  0  0  0  0  0
  -23.7768  -30.5729   19.3980 H   0  0  0  0  0  0
  -22.7698  -29.2326   19.8542 H   0  0  0  0  0  0
  -25.1305  -36.1894   25.0809 H   0  0  0  0  0  0
  -20.9994  -28.3290   24.1390 H   0  0  0  0  0  0
  -20.5687  -26.2313   23.3617 H   0  0  0  0  0  0
  -21.6645  -26.7438   22.1205 H   0  0  0  0  0  0
  -19.6912  -25.6295   21.1250 H   0  0  0  0  0  0
  -19.6690  -27.3195   20.6750 H   0  0  0  0  0  0
  -17.4201  -26.6695   21.4029 H   0  0  0  0  0  0
  -18.0323  -26.0073   22.9026 H   0  0  0  0  0  0
  -19.7942  -30.7297   24.2236 H   0  0  0  0  0  0
  -17.5016  -31.6266   24.5178 H   0  0  0  0  0  0
  -15.5357  -30.2981   23.7665 H   0  0  0  0  0  0
  -15.8686  -28.0824   22.7065 H   0  0  0  0  0  0
  -24.5896  -30.7090   25.7748 H   0  0  0  0  0  0
  -24.8916  -32.2912   26.4837 H   0  0  0  0  0  0
  -25.8023  -30.8917   27.0217 H   0  0  0  0  0  0
  -26.2963  -29.6728   24.1243 H   0  0  0  0  0  0
  -27.4028  -29.7273   25.4764 H   0  0  0  0  0  0
  -27.8847  -30.4261   23.9494 H   0  0  0  0  0  0
  -27.2648  -33.3644   26.2038 H   0  0  0  0  0  0
  -28.3874  -32.6881   25.0328 H   0  0  0  0  0  0
  -28.0710  -31.8484   26.5431 H   0  0  0  0  0  0
  -28.2586  -38.0099   24.7521 H   0  0  0  0  0  0
  -28.1083  -36.2630   24.6278 H   0  0  0  0  0  0
  -27.2294  -37.1424   25.8863 H   0  0  0  0  0  0
  -20.9404  -29.8751   21.6838 H   0  0  0  0  0  0
  -26.0163  -38.2830   24.1427 H   0  0  0  0  0  0
  -27.4285  -19.7454   19.3710 H   0  0  0  0  0  0
  -27.7001  -17.3452   19.5384 H   0  0  0  0  0  0
  -31.5355  -17.8695   21.3860 H   0  0  0  0  0  0
  -27.3535  -24.2377   18.4141 H   0  0  0  0  0  0
  -29.0800  -24.1299   18.4922 H   0  0  0  0  0  0
  -30.2846  -24.4173   20.6914 H   0  0  0  0  0  0
  -29.3852  -24.6958   22.1468 H   0  0  0  0  0  0
  -28.0744  -21.8574   18.3767 H   0  0  0  0  0  0
  -27.0836  -22.1619   19.7780 H   0  0  0  0  0  0
  -28.3936  -22.4222   22.0735 H   0  0  0  0  0  0
  -30.1268  -22.3187   21.9875 H   0  0  0  0  0  0
  -27.2519  -24.6954   20.8844 H   0  0  0  0  0  0
  -28.7336  -15.4613   20.7865 H   0  0  0  0  0  0
  1 25  1  0  0  0
  1 30  2  0  0  0
  1 83  1  0  0  0
  2  3  1  0  0  0
  2 25  1  0  0  0
  2 85  1  0  0  0
  2 86  1  0  0  0
  3  4  1  0  0  0
  3 87  1  0  0  0
  3 88  1  0  0  0
  4  5  1  0  0  0
  4 89  1  0  0  0
  4 90  1  0  0  0
  5  6  1  0  0  0
  5 26  1  0  0  0
  5 91  1  0  0  0
  6 25  1  0  0  0
  6 92  1  0  0  0
  6 93  1  0  0  0
  7  8  2  0  0  0
  7 26  1  0  0  0
  7 29  1  0  0  0
  8  9  1  0  0  0
  8 22  1  0  0  0
  9 10  1  0  0  0
  9 27  2  0  0  0
 10 11  2  0  0  0
 10 15  1  0  0  0
 11 12  1  0  0  0
 11 94  1  0  0  0
 12 13  2  0  0  0
 12 95  1  0  0  0
 13 14  1  0  0  0
 13 31  1  0  0  0
 14 15  2  0  0  0
 14 96  1  0  0  0
 15 97  1  0  0  0
 16 17  2  0  0  0
 16 21  1  0  0  0
 16 31  1  0  0  0
 17 18  1  0  0  0
 17 98  1  0  0  0
 18 19  2  0  0  0
 18 99  1  0  0  0
 19 20  1  0  0  0
 19 24  1  0  0  0
 20 21  2  0  0  0
 20100  1  0  0  0
 21 23  1  0  0  0
 22 28  1  0  0  0
 22 32  2  0  0  0
 26 27  1  0  0  0
 28101  1  0  0  0
 28102  1  0  0  0
 29103  1  0  0  0
 29104  1  0  0  0
 33 34  1  0  0  0
 33 66  1  0  0  0
 33 70  2  0  0  0
 34 36  1  0  0  0
 34 59  1  0  0  0
 34105  1  0  0  0
 35 44  2  0  0  0
 35 45  1  0  0  0
 35 68  1  0  0  0
 36 56  1  0  0  0
 36106  1  0  0  0
 37 39  1  0  0  0
 37 47  1  0  0  0
 37 66  1  0  0  0
 37107  1  0  0  0
 38 43  2  0  0  0
 38 46  1  0  0  0
 38 47  1  0  0  0
 39 64  1  0  0  0
 39 67  2  0  0  0
 40 52  1  0  0  0
 40 53  2  0  0  0
 40 58  1  0  0  0
 41108  1  0  0  0
 41109  1  0  0  0
 41110  1  0  0  0
 41 48  1  0  0  0
 42 43  1  0  0  0
 42 66  1  0  0  0
 42111  1  0  0  0
 42112  1  0  0  0
 43 44  1  0  0  0
 44113  1  0  0  0
 45 46  2  0  0  0
 45114  1  0  0  0
 46115  1  0  0  0
 47116  1  0  0  0
 47117  1  0  0  0
 48 56  1  0  0  0
 48 65  1  0  0  0
 48118  1  0  0  0
 49 50  1  0  0  0
 49 53  1  0  0  0
 49 64  1  0  0  0
 49119  1  0  0  0
 50 51  1  0  0  0
 50120  1  0  0  0
 50121  1  0  0  0
 51 52  1  0  0  0
 51122  1  0  0  0
 51123  1  0  0  0
 52124  1  0  0  0
 52125  1  0  0  0
 53 54  1  0  0  0
 54 55  2  0  0  0
 54126  1  0  0  0
 55 57  1  0  0  0
 55127  1  0  0  0
 56 69  2  0  0  0
 57 58  2  0  0  0
 57128  1  0  0  0
 58129  1  0  0  0
 59 60  1  0  0  0
 59 61  1  0  0  0
 59 62  1  0  0  0
 60130  1  0  0  0
 60131  1  0  0  0
 60132  1  0  0  0
 61133  1  0  0  0
 61134  1  0  0  0
 61135  1  0  0  0
 62136  1  0  0  0
 62137  1  0  0  0
 62138  1  0  0  0
 63 65  1  0  0  0
 63139  1  0  0  0
 63140  1  0  0  0
 63141  1  0  0  0
 64142  1  0  0  0
 65143  1  0  0  0
 68 81  1  0  0  0
 71 72  2  0  0  0
 71 74  1  0  0  0
 71144  1  0  0  0
 72 75  1  0  0  0
 72145  1  0  0  0
 73 75  2  0  0  0
 73 76  1  0  0  0
 73146  1  0  0  0
 74 76  2  0  0  0
 74 82  1  0  0  0
 75 83  1  0  0  0
 76 84  1  0  0  0
 77 79  1  0  0  0
 77 81  1  0  0  0
 77147  1  0  0  0
 77148  1  0  0  0
 78 80  1  0  0  0
 78 81  1  0  0  0
 78149  1  0  0  0
 78150  1  0  0  0
 79 82  1  0  0  0
 79151  1  0  0  0
 79152  1  0  0  0
 80 82  1  0  0  0
 80153  1  0  0  0
 80154  1  0  0  0
 81155  1  0  0  0
 83156  1  0  0  0
M  ISO  4   1 100  68 101  81 101  83 100
M  END
> <chiral flag>
0

> <version>
0

> <s_m_source_file>
/data/baiqing/PycharmProjects/Reinvent-master-3.2/result/LINK_invent/BTK/process_docking_weight1_custom_product_contain_oxygen_bond_distance_aromatic_linkinvent_7_9_3/rearranged_h_0014.sdf

> <i_m_source_file_index>
26

> <r_mmod_Potential_Energy-OPLS-2005>
254.181579589844

> <r_mmod_Stretch_Energy-OPLS-2005>
125.977783203125

> <r_mmod_Bend_Energy-OPLS-2005>
190.887908935547

> <r_mmod_Torsional_Energy-OPLS-2005>
258.732482910156

> <r_mmod_Improper_Torsional_Energy-OPLS-2005>
9.17599487304688

> <r_mmod_Van_der_Waal_Energy-OPLS-2005>
136.813186645508

> <r_mmod_Electrostatic_Energy-OPLS-2005>
-338.643615722656

> <r_mmod_Solvation_Energy-OPLS-2005>
-226.951202392578

> <b_mmod_Minimization_Converged-OPLS-2005>
0

> <r_mmod_RMS_Derivative-OPLS-2005>
0.569487690925598

$$$$
26
                    3D
 Structure written by MMmdl.
151159  0  0  1  0            999 V2000
  -30.6207  -14.6404   20.5017 C   0  0  0  0  0  0
  -30.4366  -12.3919   19.4535 C   0  0  0  0  0  0
  -29.5098  -12.5192   18.2233 C   0  0  0  0  0  0
  -28.0301  -12.3614   18.6287 C   0  0  0  0  0  0
  -27.6546  -13.2197   19.8662 C   0  0  2  0  0  0
  -28.6989  -13.0661   20.9954 C   0  0  0  0  0  0
  -25.2562  -13.8176   20.5677 C   0  0  0  0  0  0
  -24.1832  -13.0437   20.9184 C   0  0  0  0  0  0
  -24.6408  -11.6909   20.8734 C   0  0  0  0  0  0
  -23.9071  -10.4294   21.0403 C   0  0  0  0  0  0
  -24.3624   -9.4210   21.9184 C   0  0  0  0  0  0
  -23.6305   -8.2243   22.0754 C   0  0  0  0  0  0
  -22.4286   -8.0284   21.3541 C   0  0  0  0  0  0
  -21.9914   -9.0260   20.4646 C   0  0  0  0  0  0
  -22.7240  -10.2138   20.3055 C   0  0  0  0  0  0
  -21.6857   -6.0737   22.5278 C   0  0  0  0  0  0
  -21.4014   -6.5640   23.8212 C   0  0  0  0  0  0
  -21.3660   -5.6793   24.9175 C   0  0  0  0  0  0
  -21.6046   -4.3057   24.7221 C   0  0  0  0  0  0
  -21.8818   -3.8145   23.4342 C   0  0  0  0  0  0
  -21.9192   -4.6963   22.3399 C   0  0  0  0  0  0
  -22.7853  -13.5234   21.1843 C   0  0  0  0  0  0
  -22.1661   -4.2148   21.0977 F   0  0  0  0  0  0
  -21.5634   -3.4541   25.7733 F   0  0  0  0  0  0
  -30.0151  -13.4116   20.4353 N   0  0  0  0  0  0
  -26.2997  -12.9363   20.3319 N   0  0  0  0  0  0
  -25.9335  -11.6512   20.5749 N   0  0  0  0  0  0
  -22.0486  -12.8240   22.0403 N   0  0  0  0  0  0
  -25.4262  -15.1899   20.4079 N   0  0  0  0  0  0
  -31.7816  -14.8007   20.1137 O   0  0  0  0  0  0
  -21.6645   -6.8881   21.4242 O   0  0  0  0  0  0
  -22.3545  -14.5541   20.6689 O   0  0  0  0  0  0
  -24.6261  -31.8609   23.2045 C   0  0  0  0  0  0
  -25.9106  -32.4786   23.8370 C   0  0  1  0  0  0
  -27.2208  -27.3184   20.1168 C   0  0  0  0  0  0
  -25.5922  -33.8588   24.2296 N   0  0  0  0  0  0
  -23.4191  -30.4865   21.5481 C   0  0  2  0  0  0
  -24.8644  -28.9431   20.1147 C   0  0  0  0  0  0
  -22.7475  -29.4631   22.4947 C   0  0  0  0  0  0
  -18.0285  -28.1384   22.8493 C   0  0  0  0  0  0
  -24.1484  -36.7305   23.2639 C   0  0  0  0  0  0
  -25.9610  -30.7917   21.3754 C   0  0  0  0  0  0
  -26.0348  -29.4188   20.7191 C   0  0  0  0  0  0
  -27.2166  -28.6186   20.7108 C   0  0  0  0  0  0
  -26.0277  -26.9035   19.4793 C   0  0  0  0  0  0
  -24.8629  -27.6902   19.4870 C   0  0  0  0  0  0
  -23.6338  -29.8253   20.1625 C   0  0  0  0  0  0
  -25.4108  -36.3093   24.0334 C   0  0  1  0  0  0
  -20.5887  -28.3687   23.1297 C   0  0  2  0  0  0
  -20.6778  -26.9412   22.5417 C   0  0  0  0  0  0
  -19.5748  -26.6383   21.5224 C   0  0  0  0  0  0
  -18.1930  -26.7927   22.1635 C   0  0  0  0  0  0
  -19.1538  -28.8852   23.2889 C   0  0  0  0  0  0
  -18.9458  -30.1459   23.8898 C   0  0  0  0  0  0
  -17.6457  -30.6586   24.0566 C   0  0  0  0  0  0
  -25.9048  -34.9459   23.5116 C   0  0  0  0  0  0
  -16.5350  -29.9089   23.6324 C   0  0  0  0  0  0
  -16.7273  -28.6507   23.0345 C   0  0  0  0  0  0
  -26.4484  -31.6584   25.0734 C   0  0  0  0  0  0
  -25.3716  -31.3731   26.1462 C   0  0  0  0  0  0
  -27.0320  -30.3006   24.6178 C   0  0  0  0  0  0
  -27.6040  -32.4319   25.7509 C   0  0  0  0  0  0
  -27.5581  -37.1809   24.8464 C   0  0  0  0  0  0
  -21.4188  -29.3042   22.3692 N   0  0  0  0  0  0
  -26.4287  -37.3788   23.9414 N   0  0  0  0  0  0
  -24.6878  -31.0628   22.0996 N   0  0  0  0  0  0
  -23.4204  -28.8162   23.3016 O   0  0  0  0  0  0
  -28.3380  -26.4663   20.1474 O   0  0  0  0  0  0
  -26.5621  -34.8920   22.4686 O   0  0  0  0  0  0
  -23.5426  -32.1409   23.7376 O   0  0  0  0  0  0
  -30.9863  -17.8445   20.1353 C   0  0  0  0  0  0
  -30.9685  -19.2641   19.9932 C   0  0  0  0  0  0
  -28.7959  -17.9532   21.1125 C   0  0  0  0  0  0
  -29.8921  -17.1406   20.7028 C   0  0  0  0  0  0
  -29.8751  -20.0780   20.4000 C   0  0  0  0  0  0
  -28.7766  -19.3749   20.9706 C   0  0  0  0  0  0
  -29.2657  -23.9632   20.2182 C   0  0  0  0  0  0
  -28.0896  -25.0186   20.3689 C   0  0  0  0  0  0
  -28.9132  -22.4303   20.4994 C   0  0  0  0  0  0
  -29.8096  -15.6840   20.8721 N   0  0  0  0  0  0
  -29.9850  -21.4758   20.2123 O   0  0  0  0  0  0
  -27.6825  -20.0505   21.3985 F   0  0  0  0  0  0
  -31.4800  -12.5130   19.1578 H   0  0  0  0  0  0
  -30.3636  -11.3933   19.8877 H   0  0  0  0  0  0
  -29.7745  -11.7737   17.4721 H   0  0  0  0  0  0
  -29.6578  -13.4925   17.7514 H   0  0  0  0  0  0
  -27.8564  -11.3069   18.8449 H   0  0  0  0  0  0
  -27.3814  -12.6100   17.7878 H   0  0  0  0  0  0
  -27.6751  -14.2577   19.5349 H   0  0  0  0  0  0
  -28.7070  -12.0412   21.3704 H   0  0  0  0  0  0
  -28.4466  -13.6905   21.8533 H   0  0  0  0  0  0
  -25.2762   -9.5698   22.4766 H   0  0  0  0  0  0
  -24.0009   -7.4636   22.7478 H   0  0  0  0  0  0
  -21.0837   -8.8783   19.8964 H   0  0  0  0  0  0
  -22.3691  -10.9683   19.6175 H   0  0  0  0  0  0
  -21.2008   -7.6150   23.9716 H   0  0  0  0  0  0
  -21.1488   -6.0523   25.9081 H   0  0  0  0  0  0
  -22.0595   -2.7607   23.2840 H   0  0  0  0  0  0
  -22.4089  -11.9910   22.4815 H   0  0  0  0  0  0
  -21.1103  -13.1286   22.2588 H   0  0  0  0  0  0
  -24.6535  -15.8392   20.5078 H   0  0  0  0  0  0
  -26.2659  -15.6258   20.0488 H   0  0  0  0  0  0
  -26.7176  -32.5454   23.1120 H   0  0  0  0  0  0
  -25.0041  -33.9736   25.0421 H   0  0  0  0  0  0
  -22.7122  -31.3072   21.4089 H   0  0  0  0  0  0
  -23.3742  -35.9641   23.3296 H   0  0  0  0  0  0
  -24.3581  -36.8930   22.2055 H   0  0  0  0  0  0
  -23.7231  -37.6505   23.6659 H   0  0  0  0  0  0
  -26.0901  -31.5536   20.6055 H   0  0  0  0  0  0
  -26.8432  -30.8433   22.0018 H   0  0  0  0  0  0
  -28.1141  -28.9809   21.1926 H   0  0  0  0  0  0
  -25.9631  -25.9651   18.9527 H   0  0  0  0  0  0
  -23.9688  -27.3238   19.0015 H   0  0  0  0  0  0
  -23.7580  -30.6052   19.4102 H   0  0  0  0  0  0
  -22.7510  -29.2610   19.8558 H   0  0  0  0  0  0
  -25.1278  -36.1954   25.0826 H   0  0  0  0  0  0
  -20.9986  -28.3259   24.1416 H   0  0  0  0  0  0
  -20.5700  -26.2292   23.3614 H   0  0  0  0  0  0
  -21.6645  -26.7453   22.1199 H   0  0  0  0  0  0
  -19.6912  -25.6297   21.1248 H   0  0  0  0  0  0
  -19.6681  -27.3198   20.6759 H   0  0  0  0  0  0
  -17.4202  -26.6681   21.4034 H   0  0  0  0  0  0
  -18.0319  -26.0066   22.9030 H   0  0  0  0  0  0
  -19.7934  -30.7281   24.2258 H   0  0  0  0  0  0
  -17.5009  -31.6264   24.5173 H   0  0  0  0  0  0
  -15.5352  -30.2993   23.7638 H   0  0  0  0  0  0
  -15.8675  -28.0836   22.7043 H   0  0  0  0  0  0
  -24.5875  -30.7096   25.7793 H   0  0  0  0  0  0
  -24.8922  -32.2904   26.4894 H   0  0  0  0  0  0
  -25.8038  -30.8898   27.0234 H   0  0  0  0  0  0
  -26.2896  -29.6772   24.1177 H   0  0  0  0  0  0
  -27.3990  -29.7243   25.4681 H   0  0  0  0  0  0
  -27.8778  -30.4287   23.9419 H   0  0  0  0  0  0
  -27.2638  -33.3610   26.2096 H   0  0  0  0  0  0
  -28.3847  -32.6897   25.0339 H   0  0  0  0  0  0
  -28.0707  -31.8436   26.5420 H   0  0  0  0  0  0
  -28.2592  -38.0112   24.7515 H   0  0  0  0  0  0
  -28.1081  -36.2644   24.6274 H   0  0  0  0  0  0
  -27.2308  -37.1443   25.8869 H   0  0  0  0  0  0
  -20.9359  -29.8783   21.6922 H   0  0  0  0  0  0
  -26.0170  -38.2865   24.1414 H   0  0  0  0  0  0
  -31.8602  -17.3082   19.7940 H   0  0  0  0  0  0
  -31.8306  -19.7434   19.5523 H   0  0  0  0  0  0
  -27.9270  -17.4854   21.5514 H   0  0  0  0  0  0
  -30.0869  -24.2585   20.8705 H   0  0  0  0  0  0
  -29.6558  -24.0408   19.2037 H   0  0  0  0  0  0
  -27.6780  -24.9194   21.3744 H   0  0  0  0  0  0
  -27.3178  -24.6505   19.6997 H   0  0  0  0  0  0
  -28.0446  -22.1532   19.9005 H   0  0  0  0  0  0
  -28.6236  -22.3281   21.5461 H   0  0  0  0  0  0
  -28.9203  -15.3590   21.2197 H   0  0  0  0  0  0
  1 25  1  0  0  0
  1 30  2  0  0  0
  1 80  1  0  0  0
  2  3  1  0  0  0
  2 25  1  0  0  0
  2 83  1  0  0  0
  2 84  1  0  0  0
  3  4  1  0  0  0
  3 85  1  0  0  0
  3 86  1  0  0  0
  4  5  1  0  0  0
  4 87  1  0  0  0
  4 88  1  0  0  0
  5  6  1  0  0  0
  5 26  1  0  0  0
  5 89  1  0  0  0
  6 25  1  0  0  0
  6 90  1  0  0  0
  6 91  1  0  0  0
  7  8  2  0  0  0
  7 26  1  0  0  0
  7 29  1  0  0  0
  8  9  1  0  0  0
  8 22  1  0  0  0
  9 10  1  0  0  0
  9 27  2  0  0  0
 10 11  2  0  0  0
 10 15  1  0  0  0
 11 12  1  0  0  0
 11 92  1  0  0  0
 12 13  2  0  0  0
 12 93  1  0  0  0
 13 14  1  0  0  0
 13 31  1  0  0  0
 14 15  2  0  0  0
 14 94  1  0  0  0
 15 95  1  0  0  0
 16 17  2  0  0  0
 16 21  1  0  0  0
 16 31  1  0  0  0
 17 18  1  0  0  0
 17 96  1  0  0  0
 18 19  2  0  0  0
 18 97  1  0  0  0
 19 20  1  0  0  0
 19 24  1  0  0  0
 20 21  2  0  0  0
 20 98  1  0  0  0
 21 23  1  0  0  0
 22 28  1  0  0  0
 22 32  2  0  0  0
 26 27  1  0  0  0
 28 99  1  0  0  0
 28100  1  0  0  0
 29101  1  0  0  0
 29102  1  0  0  0
 33 34  1  0  0  0
 33 66  1  0  0  0
 33 70  2  0  0  0
 34 36  1  0  0  0
 34 59  1  0  0  0
 34103  1  0  0  0
 35 44  2  0  0  0
 35 45  1  0  0  0
 35 68  1  0  0  0
 36 56  1  0  0  0
 36104  1  0  0  0
 37 39  1  0  0  0
 37 47  1  0  0  0
 37 66  1  0  0  0
 37105  1  0  0  0
 38 43  2  0  0  0
 38 46  1  0  0  0
 38 47  1  0  0  0
 39 64  1  0  0  0
 39 67  2  0  0  0
 40 52  1  0  0  0
 40 53  2  0  0  0
 40 58  1  0  0  0
 41106  1  0  0  0
 41107  1  0  0  0
 41108  1  0  0  0
 41 48  1  0  0  0
 42 43  1  0  0  0
 42 66  1  0  0  0
 42109  1  0  0  0
 42110  1  0  0  0
 43 44  1  0  0  0
 44111  1  0  0  0
 45 46  2  0  0  0
 45112  1  0  0  0
 46113  1  0  0  0
 47114  1  0  0  0
 47115  1  0  0  0
 48 56  1  0  0  0
 48 65  1  0  0  0
 48116  1  0  0  0
 49 50  1  0  0  0
 49 53  1  0  0  0
 49 64  1  0  0  0
 49117  1  0  0  0
 50 51  1  0  0  0
 50118  1  0  0  0
 50119  1  0  0  0
 51 52  1  0  0  0
 51120  1  0  0  0
 51121  1  0  0  0
 52122  1  0  0  0
 52123  1  0  0  0
 53 54  1  0  0  0
 54 55  2  0  0  0
 54124  1  0  0  0
 55 57  1  0  0  0
 55125  1  0  0  0
 56 69  2  0  0  0
 57 58  2  0  0  0
 57126  1  0  0  0
 58127  1  0  0  0
 59 60  1  0  0  0
 59 61  1  0  0  0
 59 62  1  0  0  0
 60128  1  0  0  0
 60129  1  0  0  0
 60130  1  0  0  0
 61131  1  0  0  0
 61132  1  0  0  0
 61133  1  0  0  0
 62134  1  0  0  0
 62135  1  0  0  0
 62136  1  0  0  0
 63 65  1  0  0  0
 63137  1  0  0  0
 63138  1  0  0  0
 63139  1  0  0  0
 64140  1  0  0  0
 65141  1  0  0  0
 68 78  1  0  0  0
 71 72  2  0  0  0
 71 74  1  0  0  0
 71142  1  0  0  0
 72 75  1  0  0  0
 72143  1  0  0  0
 73 74  2  0  0  0
 73 76  1  0  0  0
 73144  1  0  0  0
 74 80  1  0  0  0
 75 76  2  0  0  0
 75 81  1  0  0  0
 76 82  1  0  0  0
 77 78  1  0  0  0
 77 79  1  0  0  0
 77145  1  0  0  0
 77146  1  0  0  0
 78147  1  0  0  0
 78148  1  0  0  0
 79 81  1  0  0  0
 79149  1  0  0  0
 79150  1  0  0  0
 80151  1  0  0  0
M  ISO  4   1 100  68 101  78 101  80 100
M  END
> <chiral flag>
0

> <version>
0

> <s_m_source_file>
/data/baiqing/PycharmProjects/Reinvent-master-3.2/result/LINK_invent/BTK/process_docking_weight1_custom_product_contain_oxygen_bond_distance_aromatic_linkinvent_7_9_3/rearranged_h_0014.sdf

> <i_m_source_file_index>
27

> <r_mmod_Potential_Energy-OPLS-2005>
74.7860946655273

> <r_mmod_Stretch_Energy-OPLS-2005>
79.5826568603516

> <r_mmod_Bend_Energy-OPLS-2005>
147.580917358398

> <r_mmod_Torsional_Energy-OPLS-2005>
214.559097290039

> <r_mmod_Improper_Torsional_Energy-OPLS-2005>
3.90157985687256

> <r_mmod_Van_der_Waal_Energy-OPLS-2005>
146.884353637695

> <r_mmod_Electrostatic_Energy-OPLS-2005>
-358.382598876953

> <r_mmod_Solvation_Energy-OPLS-2005>
-207.118133544922

> <b_mmod_Minimization_Converged-OPLS-2005>
0

> <r_mmod_RMS_Derivative-OPLS-2005>
1.06894218921661

$$$$
27
                    3D
 Structure written by MMmdl.
159167  0  0  1  0            999 V2000
  -30.6520  -14.5428   20.6300 C   0  0  0  0  0  0
  -30.4349  -12.3810   19.4538 C   0  0  0  0  0  0
  -29.5197  -12.5747   18.2232 C   0  0  0  0  0  0
  -28.0334  -12.4112   18.6155 C   0  0  0  0  0  0
  -27.6598  -13.2183   19.8903 C   0  0  2  0  0  0
  -28.6921  -13.0090   21.0200 C   0  0  0  0  0  0
  -25.2503  -13.8167   20.5643 C   0  0  0  0  0  0
  -24.1814  -13.0477   20.9111 C   0  0  0  0  0  0
  -24.6370  -11.6933   20.8687 C   0  0  0  0  0  0
  -23.9076  -10.4336   21.0389 C   0  0  0  0  0  0
  -24.3614   -9.4232   21.9180 C   0  0  0  0  0  0
  -23.6279   -8.2271   22.0755 C   0  0  0  0  0  0
  -22.4300   -8.0259   21.3523 C   0  0  0  0  0  0
  -21.9911   -9.0260   20.4676 C   0  0  0  0  0  0
  -22.7237  -10.2142   20.3080 C   0  0  0  0  0  0
  -21.6849   -6.0733   22.5296 C   0  0  0  0  0  0
  -21.4010   -6.5622   23.8236 C   0  0  0  0  0  0
  -21.3676   -5.6767   24.9196 C   0  0  0  0  0  0
  -21.6055   -4.3034   24.7237 C   0  0  0  0  0  0
  -21.8823   -3.8130   23.4360 C   0  0  0  0  0  0
  -21.9186   -4.6954   22.3412 C   0  0  0  0  0  0
  -22.7852  -13.5273   21.1863 C   0  0  0  0  0  0
  -22.1650   -4.2117   21.0990 F   0  0  0  0  0  0
  -21.5646   -3.4542   25.7759 F   0  0  0  0  0  0
  -30.0232  -13.3417   20.4893 N   0  0  0  0  0  0
  -26.3026  -12.9413   20.3424 N   0  0  0  0  0  0
  -25.9298  -11.6580   20.5740 N   0  0  0  0  0  0
  -22.0494  -12.8265   22.0369 N   0  0  0  0  0  0
  -25.4099  -15.1948   20.4017 N   0  0  0  0  0  0
  -31.7265  -14.7959   20.0744 O   0  0  0  0  0  0
  -21.6642   -6.8891   21.4266 O   0  0  0  0  0  0
  -22.3503  -14.5601   20.6668 O   0  0  0  0  0  0
  -24.6209  -31.8681   23.2167 C   0  0  0  0  0  0
  -25.9091  -32.4863   23.8487 C   0  0  1  0  0  0
  -27.1500  -27.3193   20.1766 C   0  0  0  0  0  0
  -25.5995  -33.8675   24.2471 N   0  0  0  0  0  0
  -23.4026  -30.5077   21.5549 C   0  0  2  0  0  0
  -24.8420  -28.9708   20.1179 C   0  0  0  0  0  0
  -22.7336  -29.4785   22.5044 C   0  0  0  0  0  0
  -18.0051  -28.1504   22.8377 C   0  0  0  0  0  0
  -24.1484  -36.7357   23.2638 C   0  0  0  0  0  0
  -25.9492  -30.8117   21.3745 C   0  0  0  0  0  0
  -26.0085  -29.4328   20.7382 C   0  0  0  0  0  0
  -27.1662  -28.6114   20.7740 C   0  0  0  0  0  0
  -25.9640  -26.9132   19.5104 C   0  0  0  0  0  0
  -24.8221  -27.7251   19.4864 C   0  0  0  0  0  0
  -23.6129  -29.8454   20.1647 C   0  0  0  0  0  0
  -25.4098  -36.3189   24.0353 C   0  0  1  0  0  0
  -20.5670  -28.4010   23.1385 C   0  0  2  0  0  0
  -20.6773  -26.9800   22.5553 C   0  0  0  0  0  0
  -19.5808  -26.6500   21.5505 C   0  0  0  0  0  0
  -18.2084  -26.7940   22.1932 C   0  0  0  0  0  0
  -19.1213  -28.9062   23.2879 C   0  0  0  0  0  0
  -18.9063  -30.1598   23.8912 C   0  0  0  0  0  0
  -17.6023  -30.6477   24.0641 C   0  0  0  0  0  0
  -25.9016  -34.9524   23.5198 C   0  0  0  0  0  0
  -16.4956  -29.9067   23.6052 C   0  0  0  0  0  0
  -16.6999  -28.6565   22.9883 C   0  0  0  0  0  0
  -26.4486  -31.6602   25.0769 C   0  0  0  0  0  0
  -25.3742  -31.3625   26.1519 C   0  0  0  0  0  0
  -27.0269  -30.3067   24.6019 C   0  0  0  0  0  0
  -27.6077  -32.4270   25.7538 C   0  0  0  0  0  0
  -27.5598  -37.1857   24.8469 C   0  0  0  0  0  0
  -21.4005  -29.3502   22.3993 N   0  0  0  0  0  0
  -26.4316  -37.3865   23.9399 N   0  0  0  0  0  0
  -24.6814  -31.0737   22.1100 N   0  0  0  0  0  0
  -23.4101  -28.8023   23.2828 O   0  0  0  0  0  0
  -28.2613  -26.4883   20.2702 O   0  0  0  0  0  0
  -26.5537  -34.8939   22.4717 O   0  0  0  0  0  0
  -23.5389  -32.1499   23.7573 O   0  0  0  0  0  0
  -28.4915  -18.8121   21.9961 C   0  0  0  0  0  0
  -29.1500  -17.5787   22.2099 C   0  0  0  0  0  0
  -28.2412  -18.2359   19.6613 C   0  0  0  0  0  0
  -28.0344  -19.1653   20.7069 C   0  0  0  0  0  0
  -29.3901  -16.6618   21.1550 C   0  0  0  0  0  0
  -28.8927  -17.0024   19.8739 C   0  0  0  0  0  0
  -26.1403  -21.1719   22.3975 C   0  0  0  0  0  0
  -27.3830  -20.5037   20.3464 C   0  0  0  0  0  0
  -27.4084  -24.2022   21.2123 C   0  0  0  0  0  0
  -26.7820  -22.8627   20.7103 C   0  0  0  0  0  0
  -28.0775  -25.0548   20.0648 C   0  0  0  0  0  0
  -30.0806  -15.4415   21.4612 N   0  0  0  0  0  0
  -27.1594  -21.5676   21.3851 N   0  3  1  0  0  0
  -29.0173  -16.1499   18.8373 F   0  0  0  0  0  0
  -31.4809  -12.5174   19.1701 H   0  0  0  0  0  0
  -30.3606  -11.3600   19.8344 H   0  0  0  0  0  0
  -29.7881  -11.8663   17.4306 H   0  0  0  0  0  0
  -29.6771  -13.5721   17.8053 H   0  0  0  0  0  0
  -27.8451  -11.3498   18.7683 H   0  0  0  0  0  0
  -27.3967  -12.7183   17.7788 H   0  0  0  0  0  0
  -27.6892  -14.2723   19.6157 H   0  0  0  0  0  0
  -28.6869  -11.9822   21.3625 H   0  0  0  0  0  0
  -28.4207  -13.6125   21.8836 H   0  0  0  0  0  0
  -25.2822   -9.5681   22.4699 H   0  0  0  0  0  0
  -24.0011   -7.4676   22.7467 H   0  0  0  0  0  0
  -21.0854   -8.8813   19.8952 H   0  0  0  0  0  0
  -22.3757  -10.9671   19.6134 H   0  0  0  0  0  0
  -21.1977   -7.6131   23.9724 H   0  0  0  0  0  0
  -21.1506   -6.0508   25.9096 H   0  0  0  0  0  0
  -22.0569   -2.7589   23.2887 H   0  0  0  0  0  0
  -22.4114  -11.9937   22.4812 H   0  0  0  0  0  0
  -21.1100  -13.1275   22.2647 H   0  0  0  0  0  0
  -24.6210  -15.8273   20.4917 H   0  0  0  0  0  0
  -26.2622  -15.6632   20.1113 H   0  0  0  0  0  0
  -26.7104  -32.5572   23.1227 H   0  0  0  0  0  0
  -25.0227  -33.9856   25.0693 H   0  0  0  0  0  0
  -22.7125  -31.3491   21.4092 H   0  0  0  0  0  0
  -23.3786  -35.9665   23.3305 H   0  0  0  0  0  0
  -24.3584  -36.8963   22.2058 H   0  0  0  0  0  0
  -23.7189  -37.6535   23.6615 H   0  0  0  0  0  0
  -26.0329  -31.5513   20.5765 H   0  0  0  0  0  0
  -26.8667  -30.9193   21.9379 H   0  0  0  0  0  0
  -28.0537  -28.9295   21.3023 H   0  0  0  0  0  0
  -25.8439  -25.9570   19.0204 H   0  0  0  0  0  0
  -23.9113  -27.3825   19.0139 H   0  0  0  0  0  0
  -23.7386  -30.6233   19.4079 H   0  0  0  0  0  0
  -22.7409  -29.2543   19.8596 H   0  0  0  0  0  0
  -25.1272  -36.2095   25.0844 H   0  0  0  0  0  0
  -20.9536  -28.3777   24.1608 H   0  0  0  0  0  0
  -20.5976  -26.2636   23.3695 H   0  0  0  0  0  0
  -21.6694  -26.8026   22.1278 H   0  0  0  0  0  0
  -19.7060  -25.6264   21.1690 H   0  0  0  0  0  0
  -19.6599  -27.3352   20.6981 H   0  0  0  0  0  0
  -17.4316  -26.5953   21.4570 H   0  0  0  0  0  0
  -18.0618  -26.0265   22.9447 H   0  0  0  0  0  0
  -19.7380  -30.7655   24.2115 H   0  0  0  0  0  0
  -17.4464  -31.5976   24.5586 H   0  0  0  0  0  0
  -15.4924  -30.2981   23.7465 H   0  0  0  0  0  0
  -15.8452  -28.1062   22.6201 H   0  0  0  0  0  0
  -24.5981  -30.6912   25.7827 H   0  0  0  0  0  0
  -24.8857  -32.2730   26.5009 H   0  0  0  0  0  0
  -25.8161  -30.8758   27.0268 H   0  0  0  0  0  0
  -26.2778  -29.6916   24.1008 H   0  0  0  0  0  0
  -27.4029  -29.7170   25.4416 H   0  0  0  0  0  0
  -27.8643  -30.4448   23.9166 H   0  0  0  0  0  0
  -27.2753  -33.3616   26.2120 H   0  0  0  0  0  0
  -28.3921  -32.6789   25.0364 H   0  0  0  0  0  0
  -28.0724  -31.8356   26.5472 H   0  0  0  0  0  0
  -28.2637  -38.0146   24.7542 H   0  0  0  0  0  0
  -28.1073  -36.2673   24.6274 H   0  0  0  0  0  0
  -27.2300  -37.1515   25.8876 H   0  0  0  0  0  0
  -20.9082  -29.9585   21.7585 H   0  0  0  0  0  0
  -26.0224  -38.2948   24.1418 H   0  0  0  0  0  0
  -28.3715  -19.4756   22.8330 H   0  0  0  0  0  0
  -29.4834  -17.3557   23.2017 H   0  0  0  0  0  0
  -27.9181  -18.4798   18.6608 H   0  0  0  0  0  0
  -26.3640  -20.2117   22.8576 H   0  0  0  0  0  0
  -25.1512  -21.0748   21.9459 H   0  0  0  0  0  0
  -26.0863  -21.9123   23.1908 H   0  0  0  0  0  0
  -26.4432  -20.3080   19.8328 H   0  0  0  0  0  0
  -28.0662  -20.9029   19.6059 H   0  0  0  0  0  0
  -28.1407  -24.0193   21.9786 H   0  0  0  0  0  0
  -26.6103  -24.7945   21.6771 H   0  0  0  0  0  0
  -27.0739  -22.8029   19.6663 H   0  0  0  0  0  0
  -25.6912  -22.9493   20.7067 H   0  0  0  0  0  0
  -27.5233  -24.9197   19.1493 H   0  0  0  0  0  0
  -29.0663  -24.6277   19.8664 H   0  0  0  0  0  0
  -30.2637  -15.2766   22.4499 H   0  0  0  0  0  0
  -28.0525  -21.6784   21.8484 H   0  0  0  0  0  0
  1 25  1  0  0  0
  1 30  2  0  0  0
  1 82  1  0  0  0
  2  3  1  0  0  0
  2 25  1  0  0  0
  2 85  1  0  0  0
  2 86  1  0  0  0
  3  4  1  0  0  0
  3 87  1  0  0  0
  3 88  1  0  0  0
  4  5  1  0  0  0
  4 89  1  0  0  0
  4 90  1  0  0  0
  5  6  1  0  0  0
  5 26  1  0  0  0
  5 91  1  0  0  0
  6 25  1  0  0  0
  6 92  1  0  0  0
  6 93  1  0  0  0
  7  8  2  0  0  0
  7 26  1  0  0  0
  7 29  1  0  0  0
  8  9  1  0  0  0
  8 22  1  0  0  0
  9 10  1  0  0  0
  9 27  2  0  0  0
 10 11  2  0  0  0
 10 15  1  0  0  0
 11 12  1  0  0  0
 11 94  1  0  0  0
 12 13  2  0  0  0
 12 95  1  0  0  0
 13 14  1  0  0  0
 13 31  1  0  0  0
 14 15  2  0  0  0
 14 96  1  0  0  0
 15 97  1  0  0  0
 16 17  2  0  0  0
 16 21  1  0  0  0
 16 31  1  0  0  0
 17 18  1  0  0  0
 17 98  1  0  0  0
 18 19  2  0  0  0
 18 99  1  0  0  0
 19 20  1  0  0  0
 19 24  1  0  0  0
 20 21  2  0  0  0
 20100  1  0  0  0
 21 23  1  0  0  0
 22 28  1  0  0  0
 22 32  2  0  0  0
 26 27  1  0  0  0
 28101  1  0  0  0
 28102  1  0  0  0
 29103  1  0  0  0
 29104  1  0  0  0
 33 34  1  0  0  0
 33 66  1  0  0  0
 33 70  2  0  0  0
 34 36  1  0  0  0
 34 59  1  0  0  0
 34105  1  0  0  0
 35 44  2  0  0  0
 35 45  1  0  0  0
 35 68  1  0  0  0
 36 56  1  0  0  0
 36106  1  0  0  0
 37 39  1  0  0  0
 37 47  1  0  0  0
 37 66  1  0  0  0
 37107  1  0  0  0
 38 43  2  0  0  0
 38 46  1  0  0  0
 38 47  1  0  0  0
 39 64  1  0  0  0
 39 67  2  0  0  0
 40 52  1  0  0  0
 40 53  2  0  0  0
 40 58  1  0  0  0
 41108  1  0  0  0
 41109  1  0  0  0
 41110  1  0  0  0
 41 48  1  0  0  0
 42 43  1  0  0  0
 42 66  1  0  0  0
 42111  1  0  0  0
 42112  1  0  0  0
 43 44  1  0  0  0
 44113  1  0  0  0
 45 46  2  0  0  0
 45114  1  0  0  0
 46115  1  0  0  0
 47116  1  0  0  0
 47117  1  0  0  0
 48 56  1  0  0  0
 48 65  1  0  0  0
 48118  1  0  0  0
 49 50  1  0  0  0
 49 53  1  0  0  0
 49 64  1  0  0  0
 49119  1  0  0  0
 50 51  1  0  0  0
 50120  1  0  0  0
 50121  1  0  0  0
 51 52  1  0  0  0
 51122  1  0  0  0
 51123  1  0  0  0
 52124  1  0  0  0
 52125  1  0  0  0
 53 54  1  0  0  0
 54 55  2  0  0  0
 54126  1  0  0  0
 55 57  1  0  0  0
 55127  1  0  0  0
 56 69  2  0  0  0
 57 58  2  0  0  0
 57128  1  0  0  0
 58129  1  0  0  0
 59 60  1  0  0  0
 59 61  1  0  0  0
 59 62  1  0  0  0
 60130  1  0  0  0
 60131  1  0  0  0
 60132  1  0  0  0
 61133  1  0  0  0
 61134  1  0  0  0
 61135  1  0  0  0
 62136  1  0  0  0
 62137  1  0  0  0
 62138  1  0  0  0
 63 65  1  0  0  0
 63139  1  0  0  0
 63140  1  0  0  0
 63141  1  0  0  0
 64142  1  0  0  0
 65143  1  0  0  0
 68 81  1  0  0  0
 71 72  2  0  0  0
 71 74  1  0  0  0
 71144  1  0  0  0
 72 75  1  0  0  0
 72145  1  0  0  0
 73 74  2  0  0  0
 73 76  1  0  0  0
 73146  1  0  0  0
 74 78  1  0  0  0
 75 76  2  0  0  0
 75 82  1  0  0  0
 76 84  1  0  0  0
 77147  1  0  0  0
 77148  1  0  0  0
 77149  1  0  0  0
 77 83  1  0  0  0
 78 83  1  0  0  0
 78150  1  0  0  0
 78151  1  0  0  0
 79 80  1  0  0  0
 79 81  1  0  0  0
 79152  1  0  0  0
 79153  1  0  0  0
 80 83  1  0  0  0
 80154  1  0  0  0
 80155  1  0  0  0
 81156  1  0  0  0
 81157  1  0  0  0
 82158  1  0  0  0
 83159  1  0  0  0
M  CHG  1  83   1
M  ISO  4   1 100  68 101  81 101  82 100
M  END
> <chiral flag>
0

> <version>
0

> <s_m_source_file>
/data/baiqing/PycharmProjects/Reinvent-master-3.2/result/LINK_invent/BTK/process_docking_weight1_custom_product_contain_oxygen_bond_distance_aromatic_linkinvent_7_9_3/rearranged_h_0014.sdf

> <i_m_source_file_index>
28

> <r_mmod_Potential_Energy-OPLS-2005>
-84.5593566894531

> <r_mmod_Stretch_Energy-OPLS-2005>
53.925968170166

> <r_mmod_Bend_Energy-OPLS-2005>
135.061645507812

> <r_mmod_Torsional_Energy-OPLS-2005>
277.843109130859

> <r_mmod_Improper_Torsional_Energy-OPLS-2005>
2.47277736663818

> <r_mmod_Van_der_Waal_Energy-OPLS-2005>
158.503005981445

> <r_mmod_Electrostatic_Energy-OPLS-2005>
-284.603881835938

> <r_mmod_Solvation_Energy-OPLS-2005>
-472.899078369141

> <b_mmod_Minimization_Converged-OPLS-2005>
0

> <r_mmod_RMS_Derivative-OPLS-2005>
18.0441875457764

$$$$
28
                    3D
 Structure written by MMmdl.
158167  0  0  1  0            999 V2000
  -30.6657  -14.6049   20.4016 C   0  0  0  0  0  0
  -30.4311  -12.3443   19.4490 C   0  0  0  0  0  0
  -29.4984  -12.4179   18.2214 C   0  0  0  0  0  0
  -28.0198  -12.3155   18.6454 C   0  0  0  0  0  0
  -27.6469  -13.2200   19.8506 C   0  0  2  0  0  0
  -28.7010  -13.1301   20.9766 C   0  0  0  0  0  0
  -25.2463  -13.8170   20.5558 C   0  0  0  0  0  0
  -24.1779  -13.0439   20.9150 C   0  0  0  0  0  0
  -24.6400  -11.6927   20.8783 C   0  0  0  0  0  0
  -23.9090  -10.4303   21.0469 C   0  0  0  0  0  0
  -24.3648   -9.4218   21.9242 C   0  0  0  0  0  0
  -23.6313   -8.2256   22.0789 C   0  0  0  0  0  0
  -22.4308   -8.0280   21.3573 C   0  0  0  0  0  0
  -21.9944   -9.0263   20.4698 C   0  0  0  0  0  0
  -22.7268  -10.2146   20.3120 C   0  0  0  0  0  0
  -21.6867   -6.0717   22.5293 C   0  0  0  0  0  0
  -21.4038   -6.5625   23.8223 C   0  0  0  0  0  0
  -21.3706   -5.6784   24.9184 C   0  0  0  0  0  0
  -21.6061   -4.3041   24.7252 C   0  0  0  0  0  0
  -21.8798   -3.8118   23.4376 C   0  0  0  0  0  0
  -21.9180   -4.6931   22.3430 C   0  0  0  0  0  0
  -22.7804  -13.5200   21.1780 C   0  0  0  0  0  0
  -22.1604   -4.2102   21.1000 F   0  0  0  0  0  0
  -21.5674   -3.4540   25.7787 F   0  0  0  0  0  0
  -30.0139  -13.4064   20.3789 N   0  0  0  0  0  0
  -26.2954  -12.9393   20.3308 N   0  0  0  0  0  0
  -25.9339  -11.6553   20.5867 N   0  0  0  0  0  0
  -22.0415  -12.8197   22.0305 N   0  0  0  0  0  0
  -25.3961  -15.1866   20.3715 N   0  0  0  0  0  0
  -31.8899  -14.6715   20.2659 O   0  0  0  0  0  0
  -21.6672   -6.8878   21.4266 O   0  0  0  0  0  0
  -22.3501  -14.5525   20.6638 O   0  0  0  0  0  0
  -24.6181  -31.8642   23.2084 C   0  0  0  0  0  0
  -25.9047  -32.4811   23.8404 C   0  0  1  0  0  0
  -27.2335  -27.4013   20.1244 C   0  0  0  0  0  0
  -25.5863  -33.8617   24.2314 N   0  0  0  0  0  0
  -23.4087  -30.4875   21.5468 C   0  0  2  0  0  0
  -24.8594  -28.9477   20.1137 C   0  0  0  0  0  0
  -22.7420  -29.4656   22.4973 C   0  0  0  0  0  0
  -18.0280  -28.1355   22.8482 C   0  0  0  0  0  0
  -24.1525  -36.7378   23.2627 C   0  0  0  0  0  0
  -25.9387  -30.8246   21.3630 C   0  0  0  0  0  0
  -26.0202  -29.4552   20.7132 C   0  0  0  0  0  0
  -27.2141  -28.6920   20.7111 C   0  0  0  0  0  0
  -26.0599  -26.9173   19.5097 C   0  0  0  0  0  0
  -24.8760  -27.6805   19.5058 C   0  0  0  0  0  0
  -23.6210  -29.8167   20.1621 C   0  0  0  0  0  0
  -25.4131  -36.3124   24.0322 C   0  0  1  0  0  0
  -20.5875  -28.3668   23.1303 C   0  0  2  0  0  0
  -20.6775  -26.9396   22.5419 C   0  0  0  0  0  0
  -19.5766  -26.6377   21.5201 C   0  0  0  0  0  0
  -18.1945  -26.7899   22.1610 C   0  0  0  0  0  0
  -19.1525  -28.8827   23.2892 C   0  0  0  0  0  0
  -18.9453  -30.1425   23.8924 C   0  0  0  0  0  0
  -17.6457  -30.6565   24.0565 C   0  0  0  0  0  0
  -25.9035  -34.9474   23.5124 C   0  0  0  0  0  0
  -16.5353  -29.9080   23.6294 C   0  0  0  0  0  0
  -16.7267  -28.6483   23.0335 C   0  0  0  0  0  0
  -26.4450  -31.6595   25.0745 C   0  0  0  0  0  0
  -25.3684  -31.3772   26.1474 C   0  0  0  0  0  0
  -27.0250  -30.3023   24.6136 C   0  0  0  0  0  0
  -27.6042  -32.4308   25.7485 C   0  0  0  0  0  0
  -27.5609  -37.1855   24.8433 C   0  0  0  0  0  0
  -21.4142  -29.3041   22.3713 N   0  0  0  0  0  0
  -26.4344  -37.3791   23.9351 N   0  0  0  0  0  0
  -24.6735  -31.0751   22.0978 N   0  0  0  0  0  0
  -23.4176  -28.8172   23.3005 O   0  0  0  0  0  0
  -28.3588  -26.5980   20.1402 O   0  0  0  0  0  0
  -26.5634  -34.8922   22.4709 O   0  0  0  0  0  0
  -23.5366  -32.1407   23.7473 O   0  0  0  0  0  0
  -27.8082  -18.3353   21.4638 C   0  0  0  0  0  0
  -28.2868  -17.0489   21.1181 C   0  0  0  0  0  0
  -29.9586  -19.3012   20.9259 C   0  0  0  0  0  0
  -28.6212  -19.4906   21.3445 C   0  0  0  0  0  0
  -29.5962  -16.8674   20.6278 C   0  0  0  0  0  0
  -30.4403  -18.0121   20.5682 C   0  0  0  0  0  0
  -28.0347  -22.9939   20.1977 C   0  0  0  0  0  0
  -29.5121  -23.1385   21.6410 C   0  0  0  0  0  0
  -28.9924  -24.1490   20.5961 C   0  0  2  0  0  0
  -29.9557  -15.8402   18.4629 C   0  0  0  0  0  0
  -28.0217  -20.8697   21.7165 C   0  0  0  0  0  0
  -28.2842  -25.4663   21.0514 C   0  0  0  0  0  0
  -28.5645  -22.1233   21.1354 N   0  0  0  0  0  0
  -29.9132  -15.6470   19.9258 N   0  0  0  0  0  0
  -27.1097  -22.8529   19.4256 O   0  0  0  0  0  0
  -31.7038  -17.8980   20.0927 F   0  0  0  0  0  0
  -31.4710  -12.4503   19.1321 H   0  0  0  0  0  0
  -30.3666  -11.3719   19.9369 H   0  0  0  0  0  0
  -29.7332  -11.6084   17.5298 H   0  0  0  0  0  0
  -29.6660  -13.3320   17.6600 H   0  0  0  0  0  0
  -27.8375  -11.2710   18.9038 H   0  0  0  0  0  0
  -27.3715  -12.5347   17.7994 H   0  0  0  0  0  0
  -27.6434  -14.2416   19.4722 H   0  0  0  0  0  0
  -28.7027  -12.1421   21.4425 H   0  0  0  0  0  0
  -28.4826  -13.8538   21.7635 H   0  0  0  0  0  0
  -25.2817   -9.5659   22.4793 H   0  0  0  0  0  0
  -24.0017   -7.4647   22.7498 H   0  0  0  0  0  0
  -21.0866   -8.8793   19.9027 H   0  0  0  0  0  0
  -22.3732  -10.9677   19.6215 H   0  0  0  0  0  0
  -21.2016   -7.6129   23.9712 H   0  0  0  0  0  0
  -21.1569   -6.0518   25.9081 H   0  0  0  0  0  0
  -22.0546   -2.7556   23.2901 H   0  0  0  0  0  0
  -22.3970  -11.9841   22.4718 H   0  0  0  0  0  0
  -21.1022  -13.1213   22.2446 H   0  0  0  0  0  0
  -24.6036  -15.8187   20.4197 H   0  0  0  0  0  0
  -26.2141  -15.6088   19.9545 H   0  0  0  0  0  0
  -26.7115  -32.5501   23.1173 H   0  0  0  0  0  0
  -24.9902  -33.9776   25.0374 H   0  0  0  0  0  0
  -22.6997  -31.3049   21.4038 H   0  0  0  0  0  0
  -23.3755  -35.9745   23.3283 H   0  0  0  0  0  0
  -24.3638  -36.9011   22.2047 H   0  0  0  0  0  0
  -23.7331  -37.6609   23.6644 H   0  0  0  0  0  0
  -26.0502  -31.5859   20.5900 H   0  0  0  0  0  0
  -26.8279  -30.8820   21.9789 H   0  0  0  0  0  0
  -28.1056  -29.0787   21.1832 H   0  0  0  0  0  0
  -26.0599  -25.9401   19.0476 H   0  0  0  0  0  0
  -23.9827  -27.2830   19.0445 H   0  0  0  0  0  0
  -23.7267  -30.5875   19.3972 H   0  0  0  0  0  0
  -22.7485  -29.2325   19.8703 H   0  0  0  0  0  0
  -25.1330  -36.2013   25.0831 H   0  0  0  0  0  0
  -20.9971  -28.3223   24.1417 H   0  0  0  0  0  0
  -20.5654  -26.2269   23.3601 H   0  0  0  0  0  0
  -21.6648  -26.7409   22.1239 H   0  0  0  0  0  0
  -19.6914  -25.6295   21.1208 H   0  0  0  0  0  0
  -19.6705  -27.3200   20.6738 H   0  0  0  0  0  0
  -17.4217  -26.6636   21.4014 H   0  0  0  0  0  0
  -18.0353  -26.0043   22.9009 H   0  0  0  0  0  0
  -19.7939  -30.7217   24.2323 H   0  0  0  0  0  0
  -17.5019  -31.6242   24.5165 H   0  0  0  0  0  0
  -15.5357  -30.3001   23.7578 H   0  0  0  0  0  0
  -15.8667  -28.0805   22.7042 H   0  0  0  0  0  0
  -24.5842  -30.7122   25.7830 H   0  0  0  0  0  0
  -24.8884  -32.2958   26.4864 H   0  0  0  0  0  0
  -25.7983  -30.8980   27.0271 H   0  0  0  0  0  0
  -26.2790  -29.6850   24.1109 H   0  0  0  0  0  0
  -27.3901  -29.7212   25.4615 H   0  0  0  0  0  0
  -27.8680  -30.4346   23.9345 H   0  0  0  0  0  0
  -27.2648  -33.3593   26.2098 H   0  0  0  0  0  0
  -28.3786  -32.6900   25.0247 H   0  0  0  0  0  0
  -28.0745  -31.8401   26.5353 H   0  0  0  0  0  0
  -28.2630  -38.0159   24.7468 H   0  0  0  0  0  0
  -28.1102  -36.2685   24.6255 H   0  0  0  0  0  0
  -27.2310  -37.1504   25.8836 H   0  0  0  0  0  0
  -20.9295  -29.8791   21.6970 H   0  0  0  0  0  0
  -26.0241  -38.2882   24.1318 H   0  0  0  0  0  0
  -26.7818  -18.4312   21.7944 H   0  0  0  0  0  0
  -27.6153  -16.2087   21.1588 H   0  0  0  0  0  0
  -30.6180  -20.1516   20.8453 H   0  0  0  0  0  0
  -29.3216  -23.4535   22.6685 H   0  0  0  0  0  0
  -30.5652  -22.8819   21.5080 H   0  0  0  0  0  0
  -29.7709  -24.3385   19.8567 H   0  0  0  0  0  0
  -30.0481  -16.8911   18.1804 H   0  0  0  0  0  0
  -29.0247  -15.4828   18.0244 H   0  0  0  0  0  0
  -30.7792  -15.3211   17.9701 H   0  0  0  0  0  0
  -28.0716  -20.9684   22.8031 H   0  0  0  0  0  0
  -26.9550  -20.8354   21.4826 H   0  0  0  0  0  0
  -28.7421  -25.8059   21.9789 H   0  0  0  0  0  0
  -27.2477  -25.2543   21.3235 H   0  0  0  0  0  0
  1 25  1  0  0  0
  1 30  2  0  0  0
  1 84  1  0  0  0
  2  3  1  0  0  0
  2 25  1  0  0  0
  2 87  1  0  0  0
  2 88  1  0  0  0
  3  4  1  0  0  0
  3 89  1  0  0  0
  3 90  1  0  0  0
  4  5  1  0  0  0
  4 91  1  0  0  0
  4 92  1  0  0  0
  5  6  1  0  0  0
  5 26  1  0  0  0
  5 93  1  0  0  0
  6 25  1  0  0  0
  6 94  1  0  0  0
  6 95  1  0  0  0
  7  8  2  0  0  0
  7 26  1  0  0  0
  7 29  1  0  0  0
  8  9  1  0  0  0
  8 22  1  0  0  0
  9 10  1  0  0  0
  9 27  2  0  0  0
 10 11  2  0  0  0
 10 15  1  0  0  0
 11 12  1  0  0  0
 11 96  1  0  0  0
 12 13  2  0  0  0
 12 97  1  0  0  0
 13 14  1  0  0  0
 13 31  1  0  0  0
 14 15  2  0  0  0
 14 98  1  0  0  0
 15 99  1  0  0  0
 16 17  2  0  0  0
 16 21  1  0  0  0
 16 31  1  0  0  0
 17 18  1  0  0  0
 17100  1  0  0  0
 18 19  2  0  0  0
 18101  1  0  0  0
 19 20  1  0  0  0
 19 24  1  0  0  0
 20 21  2  0  0  0
 20102  1  0  0  0
 21 23  1  0  0  0
 22 28  1  0  0  0
 22 32  2  0  0  0
 26 27  1  0  0  0
 28103  1  0  0  0
 28104  1  0  0  0
 29105  1  0  0  0
 29106  1  0  0  0
 33 34  1  0  0  0
 33 66  1  0  0  0
 33 70  2  0  0  0
 34 36  1  0  0  0
 34 59  1  0  0  0
 34107  1  0  0  0
 35 44  2  0  0  0
 35 45  1  0  0  0
 35 68  1  0  0  0
 36 56  1  0  0  0
 36108  1  0  0  0
 37 39  1  0  0  0
 37 47  1  0  0  0
 37 66  1  0  0  0
 37109  1  0  0  0
 38 43  2  0  0  0
 38 46  1  0  0  0
 38 47  1  0  0  0
 39 64  1  0  0  0
 39 67  2  0  0  0
 40 52  1  0  0  0
 40 53  2  0  0  0
 40 58  1  0  0  0
 41110  1  0  0  0
 41111  1  0  0  0
 41112  1  0  0  0
 41 48  1  0  0  0
 42 43  1  0  0  0
 42 66  1  0  0  0
 42113  1  0  0  0
 42114  1  0  0  0
 43 44  1  0  0  0
 44115  1  0  0  0
 45 46  2  0  0  0
 45116  1  0  0  0
 46117  1  0  0  0
 47118  1  0  0  0
 47119  1  0  0  0
 48 56  1  0  0  0
 48 65  1  0  0  0
 48120  1  0  0  0
 49 50  1  0  0  0
 49 53  1  0  0  0
 49 64  1  0  0  0
 49121  1  0  0  0
 50 51  1  0  0  0
 50122  1  0  0  0
 50123  1  0  0  0
 51 52  1  0  0  0
 51124  1  0  0  0
 51125  1  0  0  0
 52126  1  0  0  0
 52127  1  0  0  0
 53 54  1  0  0  0
 54 55  2  0  0  0
 54128  1  0  0  0
 55 57  1  0  0  0
 55129  1  0  0  0
 56 69  2  0  0  0
 57 58  2  0  0  0
 57130  1  0  0  0
 58131  1  0  0  0
 59 60  1  0  0  0
 59 61  1  0  0  0
 59 62  1  0  0  0
 60132  1  0  0  0
 60133  1  0  0  0
 60134  1  0  0  0
 61135  1  0  0  0
 61136  1  0  0  0
 61137  1  0  0  0
 62138  1  0  0  0
 62139  1  0  0  0
 62140  1  0  0  0
 63 65  1  0  0  0
 63141  1  0  0  0
 63142  1  0  0  0
 63143  1  0  0  0
 64144  1  0  0  0
 65145  1  0  0  0
 68 82  1  0  0  0
 71 72  2  0  0  0
 71 74  1  0  0  0
 71146  1  0  0  0
 72 75  1  0  0  0
 72147  1  0  0  0
 73 74  2  0  0  0
 73 76  1  0  0  0
 73148  1  0  0  0
 74 81  1  0  0  0
 75 76  2  0  0  0
 75 84  1  0  0  0
 76 86  1  0  0  0
 77 79  1  0  0  0
 77 83  1  0  0  0
 77 85  2  0  0  0
 78 79  1  0  0  0
 78 83  1  0  0  0
 78149  1  0  0  0
 78150  1  0  0  0
 79 82  1  0  0  0
 79151  1  0  0  0
 80 84  1  0  0  0
 80152  1  0  0  0
 80153  1  0  0  0
 80154  1  0  0  0
 81 83  1  0  0  0
 81155  1  0  0  0
 81156  1  0  0  0
 82157  1  0  0  0
 82158  1  0  0  0
M  ISO  4   1 100  68 101  82 101  84 100
M  END
> <chiral flag>
0

> <version>
0

> <s_m_source_file>
/data/baiqing/PycharmProjects/Reinvent-master-3.2/result/LINK_invent/BTK/process_docking_weight1_custom_product_contain_oxygen_bond_distance_aromatic_linkinvent_7_9_3/rearranged_h_0014.sdf

> <i_m_source_file_index>
29

> <r_mmod_Potential_Energy-OPLS-2005>
187.21223449707

> <r_mmod_Stretch_Energy-OPLS-2005>
50.6908531188965

> <r_mmod_Bend_Energy-OPLS-2005>
114.990943908691

> <r_mmod_Torsional_Energy-OPLS-2005>
372.838653564453

> <r_mmod_Improper_Torsional_Energy-OPLS-2005>
29.6709384918213

> <r_mmod_Van_der_Waal_Energy-OPLS-2005>
132.55615234375

> <r_mmod_Electrostatic_Energy-OPLS-2005>
-340.427612304688

> <r_mmod_Solvation_Energy-OPLS-2005>
-216.344604492188

> <b_mmod_Minimization_Converged-OPLS-2005>
0

> <r_mmod_RMS_Derivative-OPLS-2005>
4.57394886016846

$$$$
29
                    3D
 Structure written by MMmdl.
162170  0  0  1  0            999 V2000
  -29.5240  -15.8888   20.3116 C   0  0  0  0  0  0
  -30.2796  -13.3301   19.5923 C   0  0  0  0  0  0
  -29.5216  -12.7322   18.3640 C   0  0  0  0  0  0
  -28.1054  -12.2789   18.7636 C   0  0  0  0  0  0
  -27.5017  -13.2662   19.7838 C   0  0  2  0  0  0
  -28.4146  -13.6011   20.9576 C   0  0  0  0  0  0
  -25.1936  -13.8134   20.5647 C   0  0  0  0  0  0
  -24.1413  -13.0334   20.9361 C   0  0  0  0  0  0
  -24.6086  -11.6829   20.8808 C   0  0  0  0  0  0
  -23.8902  -10.4211   21.0471 C   0  0  0  0  0  0
  -24.3543   -9.4159   21.9221 C   0  0  0  0  0  0
  -23.6260   -8.2180   22.0764 C   0  0  0  0  0  0
  -22.4243   -8.0220   21.3550 C   0  0  0  0  0  0
  -21.9841   -9.0174   20.4653 C   0  0  0  0  0  0
  -22.7120  -10.2064   20.3083 C   0  0  0  0  0  0
  -21.6835   -6.0710   22.5289 C   0  0  0  0  0  0
  -21.3997   -6.5626   23.8217 C   0  0  0  0  0  0
  -21.3650   -5.6785   24.9180 C   0  0  0  0  0  0
  -21.6044   -4.3049   24.7233 C   0  0  0  0  0  0
  -21.8821   -3.8137   23.4356 C   0  0  0  0  0  0
  -21.9185   -4.6945   22.3409 C   0  0  0  0  0  0
  -22.7502  -13.5143   21.2034 C   0  0  0  0  0  0
  -22.1662   -4.2137   21.0985 F   0  0  0  0  0  0
  -21.5627   -3.4532   25.7745 F   0  0  0  0  0  0
  -29.4263  -14.4108   20.3151 N   0  0  0  0  0  0
  -26.2061  -12.9259   20.2749 N   0  0  0  0  0  0
  -25.8900  -11.6426   20.5495 N   0  0  0  0  0  0
  -22.0186  -12.8131   22.0590 N   0  0  0  0  0  0
  -25.3655  -15.1885   20.4015 N   0  0  0  0  0  0
  -30.7698  -16.0335   20.1168 O   0  0  0  0  0  0
  -21.6612   -6.8829   21.4245 O   0  0  0  0  0  0
  -22.3248  -14.5459   20.6854 O   0  0  0  0  0  0
  -24.7035  -31.8569   22.7947 C   0  0  0  0  0  0
  -25.9380  -32.4711   23.6325 C   0  0  1  0  0  0
  -26.5901  -27.9534   21.4179 C   0  0  0  0  0  0
  -25.5560  -33.8288   24.0691 N   0  0  0  0  0  0
  -23.9985  -29.5246   21.1231 C   0  0  2  0  0  0
  -25.3280  -29.0241   19.4989 C   0  0  0  0  0  0
  -23.5720  -27.7616   22.0537 C   0  0  0  0  0  0
  -18.1622  -28.0917   22.7853 C   0  0  0  0  0  0
  -24.1448  -36.7311   23.2692 C   0  0  0  0  0  0
  -26.0431  -31.0261   20.9237 C   0  0  0  0  0  0
  -26.3492  -29.7189   20.2128 C   0  0  0  0  0  0
  -27.3331  -28.9304   20.7960 C   0  0  0  0  0  0
  -26.0621  -27.0359   20.4277 C   0  0  0  0  0  0
  -25.3495  -27.6281   19.3847 C   0  0  0  0  0  0
  -24.0171  -29.5663   19.6166 C   0  0  0  0  0  0
  -25.4135  -36.2935   24.0167 C   0  0  1  0  0  0
  -20.7750  -27.6049   23.3228 C   0  0  2  0  0  0
  -20.3236  -26.2722   22.7800 C   0  0  0  0  0  0
  -19.3780  -26.2715   21.5800 C   0  0  0  0  0  0
  -18.0570  -26.7702   22.0647 C   0  0  0  0  0  0
  -19.4284  -28.6285   23.2519 C   0  0  0  0  0  0
  -19.2306  -29.9111   23.8956 C   0  0  0  0  0  0
  -17.9583  -30.5483   24.0497 C   0  0  0  0  0  0
  -25.9152  -34.9534   23.4461 C   0  0  0  0  0  0
  -16.7732  -29.9356   23.6124 C   0  0  0  0  0  0
  -16.8949  -28.7027   22.9754 C   0  0  0  0  0  0
  -26.4735  -31.7189   24.9593 C   0  0  0  0  0  0
  -25.4238  -31.5770   26.1071 C   0  0  0  0  0  0
  -27.1591  -30.3604   24.6423 C   0  0  0  0  0  0
  -27.6291  -32.5447   25.5893 C   0  0  0  0  0  0
  -27.5544  -37.1745   24.8446 C   0  0  0  0  0  0
  -22.3618  -27.4152   22.9115 N   0  0  0  0  0  0
  -26.4190  -37.3749   23.9492 N   0  0  0  0  0  0
  -24.7984  -30.9162   21.6771 N   0  0  0  0  0  0
  -24.2812  -27.0226   22.6399 O   0  0  0  0  0  0
  -25.9897  -28.6247   22.6491 O   0  0  0  0  0  0
  -26.6109  -34.9424   22.4296 O   0  0  0  0  0  0
  -23.6331  -32.1517   23.3575 O   0  0  0  0  0  0
  -25.3423  -22.9288   19.4474 C   0  0  0  0  0  0
  -26.2144  -21.6123   19.4151 C   0  0  0  0  0  0
  -24.5226  -22.3059   21.3099 C   0  0  0  0  0  0
  -24.3197  -23.5373   20.4074 C   0  0  0  0  0  0
  -26.4348  -20.3884   20.3169 C   0  0  0  0  0  0
  -25.4005  -20.9793   21.2933 C   0  0  0  0  0  0
  -21.7022  -26.6432   18.8524 C   0  0  0  0  0  0
  -27.7855  -18.8827   20.2014 C   0  0  0  0  0  0
  -23.3587  -25.2989   20.6121 C   0  0  0  0  0  0
  -22.3472  -29.7648   22.7559 C   0  0  0  0  0  0
  -21.5662  -28.5336   20.9346 C   0  0  0  0  0  0
  -24.3977  -29.3568   23.5943 C   0  0  0  0  0  0
  -28.3469  -17.0574   20.3875 N   0  0  0  0  0  0
  -22.0811  -26.7098   20.2863 N   0  3  1  0  0  0
  -25.2162  -20.2159   22.3990 F   0  0  0  0  0  0
  -31.2185  -13.7620   19.2439 H   0  0  0  0  0  0
  -30.5814  -12.5369   20.2794 H   0  0  0  0  0  0
  -30.0844  -11.9089   17.9225 H   0  0  0  0  0  0
  -29.4449  -13.5010   17.5917 H   0  0  0  0  0  0
  -28.1714  -11.2847   19.2082 H   0  0  0  0  0  0
  -27.4686  -12.1882   17.8812 H   0  0  0  0  0  0
  -27.3456  -14.1714   19.1932 H   0  0  0  0  0  0
  -28.7858  -12.7202   21.4836 H   0  0  0  0  0  0
  -27.8975  -14.2129   21.6978 H   0  0  0  0  0  0
  -25.2696   -9.5656   22.4773 H   0  0  0  0  0  0
  -23.9983   -7.4564   22.7464 H   0  0  0  0  0  0
  -21.0780   -8.8677   19.8956 H   0  0  0  0  0  0
  -22.3591  -10.9610   19.6195 H   0  0  0  0  0  0
  -21.1991   -7.6133   23.9715 H   0  0  0  0  0  0
  -21.1472   -6.0517   25.9083 H   0  0  0  0  0  0
  -22.0612   -2.7598   23.2857 H   0  0  0  0  0  0
  -22.3839  -11.9795   22.4951 H   0  0  0  0  0  0
  -21.0817  -13.1144   22.2833 H   0  0  0  0  0  0
  -24.5247  -15.7563   20.4376 H   0  0  0  0  0  0
  -26.0023  -15.5105   19.6856 H   0  0  0  0  0  0
  -26.8006  -32.5860   22.9893 H   0  0  0  0  0  0
  -24.9126  -33.8944   24.8430 H   0  0  0  0  0  0
  -23.1838  -30.1820   20.8346 H   0  0  0  0  0  0
  -23.3726  -35.9614   23.3195 H   0  0  0  0  0  0
  -24.3449  -36.9276   22.2139 H   0  0  0  0  0  0
  -23.7236  -37.6385   23.7038 H   0  0  0  0  0  0
  -25.9520  -31.8138   20.1763 H   0  0  0  0  0  0
  -26.9169  -31.2695   21.5098 H   0  0  0  0  0  0
  -28.0001  -29.4681   21.4505 H   0  0  0  0  0  0
  -25.8500  -26.0113   20.6888 H   0  0  0  0  0  0
  -24.6492  -27.0484   18.8090 H   0  0  0  0  0  0
  -23.9996  -30.5593   19.1517 H   0  0  0  0  0  0
  -23.3251  -28.9314   19.0703 H   0  0  0  0  0  0
  -25.1465  -36.1383   25.0629 H   0  0  0  0  0  0
  -20.8607  -27.4942   24.4062 H   0  0  0  0  0  0
  -19.7636  -25.8079   23.5989 H   0  0  0  0  0  0
  -21.1027  -25.5337   22.6198 H   0  0  0  0  0  0
  -19.2459  -25.2451   21.2329 H   0  0  0  0  0  0
  -19.6434  -26.8240   20.6954 H   0  0  0  0  0  0
  -17.3987  -26.8793   21.2008 H   0  0  0  0  0  0
  -17.5906  -26.0349   22.7195 H   0  0  0  0  0  0
  -20.0444  -30.4250   24.3791 H   0  0  0  0  0  0
  -17.9020  -31.5000   24.5609 H   0  0  0  0  0  0
  -15.8083  -30.4041   23.7600 H   0  0  0  0  0  0
  -16.0005  -28.2173   22.6079 H   0  0  0  0  0  0
  -24.3924  -31.4463   25.7900 H   0  0  0  0  0  0
  -25.3981  -32.4844   26.7118 H   0  0  0  0  0  0
  -25.6696  -30.7709   26.7935 H   0  0  0  0  0  0
  -27.4407  -30.2814   23.5956 H   0  0  0  0  0  0
  -26.5883  -29.4839   24.9345 H   0  0  0  0  0  0
  -28.0979  -30.2237   25.1796 H   0  0  0  0  0  0
  -27.3086  -33.5247   25.9410 H   0  0  0  0  0  0
  -28.4176  -32.7217   24.8583 H   0  0  0  0  0  0
  -28.0892  -32.0444   26.4430 H   0  0  0  0  0  0
  -28.2492  -38.0116   24.7589 H   0  0  0  0  0  0
  -28.1105  -36.2653   24.6106 H   0  0  0  0  0  0
  -27.2328  -37.1215   25.8862 H   0  0  0  0  0  0
  -22.7266  -26.6983   23.5240 H   0  0  0  0  0  0
  -25.9975  -38.2721   24.1713 H   0  0  0  0  0  0
  -25.5355  -23.5799   18.6036 H   0  0  0  0  0  0
  -26.8367  -21.5730   18.5338 H   0  0  0  0  0  0
  -23.9341  -22.3803   22.2121 H   0  0  0  0  0  0
  -22.5571  -26.8781   18.2204 H   0  0  0  0  0  0
  -20.9113  -27.3480   18.5959 H   0  0  0  0  0  0
  -21.3676  -25.6393   18.5809 H   0  0  0  0  0  0
  -28.6267  -19.3714   20.6921 H   0  0  0  0  0  0
  -28.0099  -18.9932   19.1399 H   0  0  0  0  0  0
  -22.6407  -24.7857   21.2440 H   0  0  0  0  0  0
  -23.2978  -25.0849   19.5501 H   0  0  0  0  0  0
  -21.7746  -29.7250   23.6665 H   0  0  0  0  0  0
  -22.0994  -30.7849   22.4787 H   0  0  0  0  0  0
  -21.5768  -29.1567   20.0516 H   0  0  0  0  0  0
  -20.4897  -28.6130   20.9764 H   0  0  0  0  0  0
  -24.2249  -28.6082   24.3727 H   0  0  0  0  0  0
  -24.6386  -30.0411   24.3681 H   0  0  0  0  0  0
  -27.5023  -16.5427   20.6067 H   0  0  0  0  0  0
  -21.3018  -26.2359   20.7177 H   0  0  0  0  0  0
  1 25  1  0  0  0
  1 30  2  0  0  0
  1 83  1  0  0  0
  2  3  1  0  0  0
  2 25  1  0  0  0
  2 86  1  0  0  0
  2 87  1  0  0  0
  3  4  1  0  0  0
  3 88  1  0  0  0
  3 89  1  0  0  0
  4  5  1  0  0  0
  4 90  1  0  0  0
  4 91  1  0  0  0
  5  6  1  0  0  0
  5 26  1  0  0  0
  5 92  1  0  0  0
  6 25  1  0  0  0
  6 93  1  0  0  0
  6 94  1  0  0  0
  7  8  2  0  0  0
  7 26  1  0  0  0
  7 29  1  0  0  0
  8  9  1  0  0  0
  8 22  1  0  0  0
  9 10  1  0  0  0
  9 27  2  0  0  0
 10 11  2  0  0  0
 10 15  1  0  0  0
 11 12  1  0  0  0
 11 95  1  0  0  0
 12 13  2  0  0  0
 12 96  1  0  0  0
 13 14  1  0  0  0
 13 31  1  0  0  0
 14 15  2  0  0  0
 14 97  1  0  0  0
 15 98  1  0  0  0
 16 17  2  0  0  0
 16 21  1  0  0  0
 16 31  1  0  0  0
 17 18  1  0  0  0
 17 99  1  0  0  0
 18 19  2  0  0  0
 18100  1  0  0  0
 19 20  1  0  0  0
 19 24  1  0  0  0
 20 21  2  0  0  0
 20101  1  0  0  0
 21 23  1  0  0  0
 22 28  1  0  0  0
 22 32  2  0  0  0
 26 27  1  0  0  0
 28102  1  0  0  0
 28103  1  0  0  0
 29104  1  0  0  0
 29105  1  0  0  0
 33 34  1  0  0  0
 33 66  1  0  0  0
 33 70  2  0  0  0
 34 36  1  0  0  0
 34 59  1  0  0  0
 34106  1  0  0  0
 35 44  2  0  0  0
 35 45  1  0  0  0
 35 68  1  0  0  0
 36 56  1  0  0  0
 36107  1  0  0  0
 37 39  1  0  0  0
 37 47  1  0  0  0
 37 66  1  0  0  0
 37108  1  0  0  0
 38 43  2  0  0  0
 38 46  1  0  0  0
 38 47  1  0  0  0
 39 64  1  0  0  0
 39 67  2  0  0  0
 40 52  1  0  0  0
 40 53  2  0  0  0
 40 58  1  0  0  0
 41109  1  0  0  0
 41110  1  0  0  0
 41111  1  0  0  0
 41 48  1  0  0  0
 42 43  1  0  0  0
 42 66  1  0  0  0
 42112  1  0  0  0
 42113  1  0  0  0
 43 44  1  0  0  0
 44114  1  0  0  0
 45 46  2  0  0  0
 45115  1  0  0  0
 46116  1  0  0  0
 47117  1  0  0  0
 47118  1  0  0  0
 48 56  1  0  0  0
 48 65  1  0  0  0
 48119  1  0  0  0
 49 50  1  0  0  0
 49 53  1  0  0  0
 49 64  1  0  0  0
 49120  1  0  0  0
 50 51  1  0  0  0
 50121  1  0  0  0
 50122  1  0  0  0
 51 52  1  0  0  0
 51123  1  0  0  0
 51124  1  0  0  0
 52125  1  0  0  0
 52126  1  0  0  0
 53 54  1  0  0  0
 54 55  2  0  0  0
 54127  1  0  0  0
 55 57  1  0  0  0
 55128  1  0  0  0
 56 69  2  0  0  0
 57 58  2  0  0  0
 57129  1  0  0  0
 58130  1  0  0  0
 59 60  1  0  0  0
 59 61  1  0  0  0
 59 62  1  0  0  0
 60131  1  0  0  0
 60132  1  0  0  0
 60133  1  0  0  0
 61134  1  0  0  0
 61135  1  0  0  0
 61136  1  0  0  0
 62137  1  0  0  0
 62138  1  0  0  0
 62139  1  0  0  0
 63 65  1  0  0  0
 63140  1  0  0  0
 63141  1  0  0  0
 63142  1  0  0  0
 64143  1  0  0  0
 65144  1  0  0  0
 68 82  1  0  0  0
 71 72  2  0  0  0
 71 74  1  0  0  0
 71145  1  0  0  0
 72 75  1  0  0  0
 72146  1  0  0  0
 73 74  2  0  0  0
 73 76  1  0  0  0
 73147  1  0  0  0
 74 79  1  0  0  0
 75 76  2  0  0  0
 75 78  1  0  0  0
 76 85  1  0  0  0
 77148  1  0  0  0
 77149  1  0  0  0
 77150  1  0  0  0
 77 84  1  0  0  0
 78 83  1  0  0  0
 78151  1  0  0  0
 78152  1  0  0  0
 79 84  1  0  0  0
 79153  1  0  0  0
 79154  1  0  0  0
 80 81  1  0  0  0
 80 82  1  0  0  0
 80155  1  0  0  0
 80156  1  0  0  0
 81 84  1  0  0  0
 81157  1  0  0  0
 81158  1  0  0  0
 82159  1  0  0  0
 82160  1  0  0  0
 83161  1  0  0  0
 84162  1  0  0  0
M  CHG  1  84   1
M  ISO  4   1 100  68 101  82 101  83 100
M  END
> <chiral flag>
0

> <version>
0

> <s_m_source_file>
/data/baiqing/PycharmProjects/Reinvent-master-3.2/result/LINK_invent/BTK/process_docking_weight1_custom_product_contain_oxygen_bond_distance_aromatic_linkinvent_7_9_3/rearranged_h_0014.sdf

> <i_m_source_file_index>
30

> <r_mmod_Potential_Energy-OPLS-2005>
13780.263671875

> <r_mmod_Stretch_Energy-OPLS-2005>
4861.09716796875

> <r_mmod_Bend_Energy-OPLS-2005>
2218.49829101562

> <r_mmod_Torsional_Energy-OPLS-2005>
639.767639160156

> <r_mmod_Improper_Torsional_Energy-OPLS-2005>
82.2073364257812

> <r_mmod_Van_der_Waal_Energy-OPLS-2005>
1711.99340820312

> <r_mmod_Electrostatic_Energy-OPLS-2005>
-272.938507080078

> <r_mmod_Solvation_Energy-OPLS-2005>
-427.487365722656

> <b_mmod_Minimization_Converged-OPLS-2005>
0

> <r_mmod_RMS_Derivative-OPLS-2005>
8.04247951507568

$$$$
30
                    3D
 Structure written by MMmdl.
160168  0  0  1  0            999 V2000
  -30.6913  -14.5037   20.5086 C   0  0  0  0  0  0
  -30.4229  -12.3036   19.4446 C   0  0  0  0  0  0
  -29.4987  -12.4842   18.2207 C   0  0  0  0  0  0
  -28.0201  -12.3480   18.6319 C   0  0  0  0  0  0
  -27.6594  -13.2079   19.8731 C   0  0  2  0  0  0
  -28.7036  -13.0314   21.0025 C   0  0  0  0  0  0
  -25.2592  -13.8158   20.5703 C   0  0  0  0  0  0
  -24.1844  -13.0449   20.9189 C   0  0  0  0  0  0
  -24.6389  -11.6907   20.8748 C   0  0  0  0  0  0
  -23.9061  -10.4299   21.0406 C   0  0  0  0  0  0
  -24.3617   -9.4213   21.9178 C   0  0  0  0  0  0
  -23.6298   -8.2246   22.0750 C   0  0  0  0  0  0
  -22.4275   -8.0283   21.3546 C   0  0  0  0  0  0
  -21.9914   -9.0256   20.4644 C   0  0  0  0  0  0
  -22.7242  -10.2134   20.3056 C   0  0  0  0  0  0
  -21.6847   -6.0737   22.5278 C   0  0  0  0  0  0
  -21.4013   -6.5642   23.8213 C   0  0  0  0  0  0
  -21.3660   -5.6788   24.9171 C   0  0  0  0  0  0
  -21.6049   -4.3053   24.7216 C   0  0  0  0  0  0
  -21.8819   -3.8153   23.4336 C   0  0  0  0  0  0
  -21.9194   -4.6967   22.3395 C   0  0  0  0  0  0
  -22.7862  -13.5238   21.1845 C   0  0  0  0  0  0
  -22.1659   -4.2158   21.0970 F   0  0  0  0  0  0
  -21.5632   -3.4536   25.7728 F   0  0  0  0  0  0
  -30.0345  -13.3133   20.4430 N   0  0  0  0  0  0
  -26.3014  -12.9329   20.3370 N   0  0  0  0  0  0
  -25.9316  -11.6490   20.5783 N   0  0  0  0  0  0
  -22.0514  -12.8228   22.0404 N   0  0  0  0  0  0
  -25.4334  -15.1881   20.4115 N   0  0  0  0  0  0
  -31.8512  -14.6449   20.1148 O   0  0  0  0  0  0
  -21.6640   -6.8881   21.4241 O   0  0  0  0  0  0
  -22.3547  -14.5544   20.6684 O   0  0  0  0  0  0
  -24.6201  -31.8670   23.2105 C   0  0  0  0  0  0
  -25.9089  -32.4815   23.8389 C   0  0  1  0  0  0
  -27.2246  -27.4108   20.0896 C   0  0  0  0  0  0
  -25.5943  -33.8609   24.2333 N   0  0  0  0  0  0
  -23.4060  -30.4954   21.5520 C   0  0  2  0  0  0
  -24.8466  -28.9626   20.1137 C   0  0  0  0  0  0
  -22.7422  -29.4673   22.4982 C   0  0  0  0  0  0
  -18.0263  -28.1398   22.8493 C   0  0  0  0  0  0
  -24.1469  -36.7304   23.2640 C   0  0  0  0  0  0
  -25.9393  -30.8270   21.3626 C   0  0  0  0  0  0
  -26.0120  -29.4600   20.7093 C   0  0  0  0  0  0
  -27.2049  -28.6950   20.6903 C   0  0  0  0  0  0
  -26.0327  -26.9394   19.4880 C   0  0  0  0  0  0
  -24.8535  -27.7015   19.4998 C   0  0  0  0  0  0
  -23.6132  -29.8352   20.1642 C   0  0  0  0  0  0
  -25.4088  -36.3104   24.0350 C   0  0  1  0  0  0
  -20.5862  -28.3694   23.1308 C   0  0  2  0  0  0
  -20.6748  -26.9426   22.5422 C   0  0  0  0  0  0
  -19.5727  -26.6403   21.5217 C   0  0  0  0  0  0
  -18.1904  -26.7946   22.1622 C   0  0  0  0  0  0
  -19.1519  -28.8859   23.2898 C   0  0  0  0  0  0
  -18.9461  -30.1464   23.8914 C   0  0  0  0  0  0
  -17.6469  -30.6607   24.0578 C   0  0  0  0  0  0
  -25.9037  -34.9477   23.5138 C   0  0  0  0  0  0
  -16.5355  -29.9124   23.6333 C   0  0  0  0  0  0
  -16.7257  -28.6536   23.0356 C   0  0  0  0  0  0
  -26.4495  -31.6596   25.0725 C   0  0  0  0  0  0
  -25.3779  -31.3707   26.1494 C   0  0  0  0  0  0
  -27.0327  -30.3043   24.6099 C   0  0  0  0  0  0
  -27.6073  -32.4311   25.7493 C   0  0  0  0  0  0
  -27.5560  -37.1805   24.8471 C   0  0  0  0  0  0
  -21.4144  -29.3062   22.3719 N   0  0  0  0  0  0
  -26.4265  -37.3803   23.9432 N   0  0  0  0  0  0
  -24.6742  -31.0780   22.0998 N   0  0  0  0  0  0
  -23.4197  -28.8200   23.3011 O   0  0  0  0  0  0
  -28.3813  -26.6441   20.0982 O   0  0  0  0  0  0
  -26.5588  -34.8941   22.4695 O   0  0  0  0  0  0
  -23.5396  -32.1416   23.7507 O   0  0  0  0  0  0
  -30.0809  -19.2712   23.1429 C   0  0  0  0  0  0
  -30.0434  -18.0879   22.3802 C   0  0  0  0  0  0
  -30.1411  -20.5294   22.5103 C   0  0  0  0  0  0
  -30.0763  -19.4298   20.3435 C   0  0  0  0  0  0
  -30.0575  -18.1543   20.9706 C   0  0  0  0  0  0
  -30.1328  -20.6328   21.0998 C   0  0  0  0  0  0
  -29.2910  -22.9070   20.7480 C   0  0  0  0  0  0
  -32.4941  -21.2131   19.4859 C   0  0  0  0  0  0
  -30.1037  -16.8912   20.0993 C   0  0  0  0  0  0
  -29.4986  -24.3826   20.2847 C   0  0  0  0  0  0
  -31.3342  -22.2301   19.5404 C   0  0  0  0  0  0
  -28.1910  -25.2109   20.1566 C   0  0  0  0  0  0
  -29.9116  -15.5772   20.7500 N   0  0  0  0  0  0
  -30.2245  -21.9376   20.4786 N   0  0  0  0  0  0
  -28.2598  -22.6469   21.3790 O   0  0  0  0  0  0
  -31.4689  -12.3911   19.1424 H   0  0  0  0  0  0
  -30.3191  -11.3012   19.8629 H   0  0  0  0  0  0
  -29.7414  -11.7480   17.4527 H   0  0  0  0  0  0
  -29.6674  -13.4634   17.7710 H   0  0  0  0  0  0
  -27.8365  -11.2936   18.8452 H   0  0  0  0  0  0
  -27.3680  -12.6033   17.7958 H   0  0  0  0  0  0
  -27.6881  -14.2470   19.5470 H   0  0  0  0  0  0
  -28.6757  -12.0141   21.3932 H   0  0  0  0  0  0
  -28.4772  -13.6813   21.8495 H   0  0  0  0  0  0
  -25.2763   -9.5678   22.4754 H   0  0  0  0  0  0
  -24.0008   -7.4628   22.7454 H   0  0  0  0  0  0
  -21.0853   -8.8771   19.8942 H   0  0  0  0  0  0
  -22.3701  -10.9672   19.6170 H   0  0  0  0  0  0
  -21.2005   -7.6148   23.9714 H   0  0  0  0  0  0
  -21.1484   -6.0519   25.9070 H   0  0  0  0  0  0
  -22.0602   -2.7621   23.2828 H   0  0  0  0  0  0
  -22.4118  -11.9880   22.4782 H   0  0  0  0  0  0
  -21.1138  -13.1254   22.2600 H   0  0  0  0  0  0
  -24.6745  -15.8502   20.5321 H   0  0  0  0  0  0
  -26.2862  -15.6271   20.0902 H   0  0  0  0  0  0
  -26.7168  -32.5507   23.1154 H   0  0  0  0  0  0
  -25.0104  -33.9736   25.0489 H   0  0  0  0  0  0
  -22.6963  -31.3142   21.4151 H   0  0  0  0  0  0
  -23.3733  -35.9637   23.3317 H   0  0  0  0  0  0
  -24.3550  -36.8901   22.2048 H   0  0  0  0  0  0
  -23.7222  -37.6521   23.6631 H   0  0  0  0  0  0
  -26.0516  -31.5892   20.5899 H   0  0  0  0  0  0
  -26.8295  -30.8807   21.9771 H   0  0  0  0  0  0
  -28.1022  -29.0796   21.1549 H   0  0  0  0  0  0
  -25.9807  -25.9845   18.9900 H   0  0  0  0  0  0
  -23.9602  -27.3102   19.0314 H   0  0  0  0  0  0
  -23.7290  -30.6128   19.4084 H   0  0  0  0  0  0
  -22.7343  -29.2631   19.8626 H   0  0  0  0  0  0
  -25.1253  -36.1960   25.0841 H   0  0  0  0  0  0
  -20.9950  -28.3265   24.1428 H   0  0  0  0  0  0
  -20.5633  -26.2316   23.3620 H   0  0  0  0  0  0
  -21.6620  -26.7441   22.1226 H   0  0  0  0  0  0
  -19.6887  -25.6316   21.1240 H   0  0  0  0  0  0
  -19.6670  -27.3220   20.6753 H   0  0  0  0  0  0
  -17.4175  -26.6712   21.4022 H   0  0  0  0  0  0
  -18.0284  -26.0084   22.9010 H   0  0  0  0  0  0
  -19.7948  -30.7262   24.2296 H   0  0  0  0  0  0
  -17.5042  -31.6284   24.5191 H   0  0  0  0  0  0
  -15.5367  -30.3057   23.7651 H   0  0  0  0  0  0
  -15.8639  -28.0877   22.7077 H   0  0  0  0  0  0
  -24.6000  -30.6964   25.7890 H   0  0  0  0  0  0
  -24.8906  -32.2854   26.4884 H   0  0  0  0  0  0
  -25.8185  -30.8975   27.0286 H   0  0  0  0  0  0
  -26.2870  -29.6815   24.1146 H   0  0  0  0  0  0
  -27.4110  -29.7257   25.4543 H   0  0  0  0  0  0
  -27.8698  -30.4378   23.9241 H   0  0  0  0  0  0
  -27.2697  -33.3632   26.2039 H   0  0  0  0  0  0
  -28.3906  -32.6838   25.0330 H   0  0  0  0  0  0
  -28.0710  -31.8445   26.5435 H   0  0  0  0  0  0
  -28.2606  -38.0074   24.7501 H   0  0  0  0  0  0
  -28.1022  -36.2617   24.6300 H   0  0  0  0  0  0
  -27.2284  -37.1467   25.8875 H   0  0  0  0  0  0
  -20.9308  -29.8837   21.6980 H   0  0  0  0  0  0
  -26.0152  -38.2882   24.1451 H   0  0  0  0  0  0
  -30.0769  -19.2127   24.2228 H   0  0  0  0  0  0
  -30.0227  -17.1342   22.8887 H   0  0  0  0  0  0
  -30.1938  -21.4216   23.1183 H   0  0  0  0  0  0
  -30.0705  -19.4815   19.2638 H   0  0  0  0  0  0
  -32.2072  -20.2786   19.0052 H   0  0  0  0  0  0
  -32.8863  -20.9873   20.4775 H   0  0  0  0  0  0
  -33.3196  -21.6171   18.9000 H   0  0  0  0  0  0
  -31.0458  -16.9225   19.5481 H   0  0  0  0  0  0
  -29.3286  -16.9823   19.3372 H   0  0  0  0  0  0
  -30.1551  -24.8548   21.0152 H   0  0  0  0  0  0
  -30.0090  -24.4333   19.3243 H   0  0  0  0  0  0
  -30.9209  -22.3576   18.5391 H   0  0  0  0  0  0
  -31.7900  -23.1819   19.8163 H   0  0  0  0  0  0
  -27.5159  -25.0038   20.9896 H   0  0  0  0  0  0
  -27.7025  -24.8564   19.2490 H   0  0  0  0  0  0
  -28.9804  -15.3807   21.0821 H   0  0  0  0  0  0
  1 25  1  0  0  0
  1 30  2  0  0  0
  1 83  1  0  0  0
  2  3  1  0  0  0
  2 25  1  0  0  0
  2 86  1  0  0  0
  2 87  1  0  0  0
  3  4  1  0  0  0
  3 88  1  0  0  0
  3 89  1  0  0  0
  4  5  1  0  0  0
  4 90  1  0  0  0
  4 91  1  0  0  0
  5  6  1  0  0  0
  5 26  1  0  0  0
  5 92  1  0  0  0
  6 25  1  0  0  0
  6 93  1  0  0  0
  6 94  1  0  0  0
  7  8  2  0  0  0
  7 26  1  0  0  0
  7 29  1  0  0  0
  8  9  1  0  0  0
  8 22  1  0  0  0
  9 10  1  0  0  0
  9 27  2  0  0  0
 10 11  2  0  0  0
 10 15  1  0  0  0
 11 12  1  0  0  0
 11 95  1  0  0  0
 12 13  2  0  0  0
 12 96  1  0  0  0
 13 14  1  0  0  0
 13 31  1  0  0  0
 14 15  2  0  0  0
 14 97  1  0  0  0
 15 98  1  0  0  0
 16 17  2  0  0  0
 16 21  1  0  0  0
 16 31  1  0  0  0
 17 18  1  0  0  0
 17 99  1  0  0  0
 18 19  2  0  0  0
 18100  1  0  0  0
 19 20  1  0  0  0
 19 24  1  0  0  0
 20 21  2  0  0  0
 20101  1  0  0  0
 21 23  1  0  0  0
 22 28  1  0  0  0
 22 32  2  0  0  0
 26 27  1  0  0  0
 28102  1  0  0  0
 28103  1  0  0  0
 29104  1  0  0  0
 29105  1  0  0  0
 33 34  1  0  0  0
 33 66  1  0  0  0
 33 70  2  0  0  0
 34 36  1  0  0  0
 34 59  1  0  0  0
 34106  1  0  0  0
 35 44  2  0  0  0
 35 45  1  0  0  0
 35 68  1  0  0  0
 36 56  1  0  0  0
 36107  1  0  0  0
 37 39  1  0  0  0
 37 47  1  0  0  0
 37 66  1  0  0  0
 37108  1  0  0  0
 38 43  2  0  0  0
 38 46  1  0  0  0
 38 47  1  0  0  0
 39 64  1  0  0  0
 39 67  2  0  0  0
 40 52  1  0  0  0
 40 53  2  0  0  0
 40 58  1  0  0  0
 41109  1  0  0  0
 41110  1  0  0  0
 41111  1  0  0  0
 41 48  1  0  0  0
 42 43  1  0  0  0
 42 66  1  0  0  0
 42112  1  0  0  0
 42113  1  0  0  0
 43 44  1  0  0  0
 44114  1  0  0  0
 45 46  2  0  0  0
 45115  1  0  0  0
 46116  1  0  0  0
 47117  1  0  0  0
 47118  1  0  0  0
 48 56  1  0  0  0
 48 65  1  0  0  0
 48119  1  0  0  0
 49 50  1  0  0  0
 49 53  1  0  0  0
 49 64  1  0  0  0
 49120  1  0  0  0
 50 51  1  0  0  0
 50121  1  0  0  0
 50122  1  0  0  0
 51 52  1  0  0  0
 51123  1  0  0  0
 51124  1  0  0  0
 52125  1  0  0  0
 52126  1  0  0  0
 53 54  1  0  0  0
 54 55  2  0  0  0
 54127  1  0  0  0
 55 57  1  0  0  0
 55128  1  0  0  0
 56 69  2  0  0  0
 57 58  2  0  0  0
 57129  1  0  0  0
 58130  1  0  0  0
 59 60  1  0  0  0
 59 61  1  0  0  0
 59 62  1  0  0  0
 60131  1  0  0  0
 60132  1  0  0  0
 60133  1  0  0  0
 61134  1  0  0  0
 61135  1  0  0  0
 61136  1  0  0  0
 62137  1  0  0  0
 62138  1  0  0  0
 62139  1  0  0  0
 63 65  1  0  0  0
 63140  1  0  0  0
 63141  1  0  0  0
 63142  1  0  0  0
 64143  1  0  0  0
 65144  1  0  0  0
 68 82  1  0  0  0
 71 72  2  0  0  0
 71 73  1  0  0  0
 71145  1  0  0  0
 72 75  1  0  0  0
 72146  1  0  0  0
 73 76  2  0  0  0
 73147  1  0  0  0
 74 75  2  0  0  0
 74 76  1  0  0  0
 74148  1  0  0  0
 75 79  1  0  0  0
 76 84  1  0  0  0
 77 80  1  0  0  0
 77 84  1  0  0  0
 77 85  2  0  0  0
 78 81  1  0  0  0
 78149  1  0  0  0
 78150  1  0  0  0
 78151  1  0  0  0
 79 83  1  0  0  0
 79152  1  0  0  0
 79153  1  0  0  0
 80 82  1  0  0  0
 80154  1  0  0  0
 80155  1  0  0  0
 81 84  1  0  0  0
 81156  1  0  0  0
 81157  1  0  0  0
 82158  1  0  0  0
 82159  1  0  0  0
 83160  1  0  0  0
M  ISO  4   1 100  68 101  82 101  83 100
M  END
> <chiral flag>
0

> <version>
0

> <s_m_source_file>
/data/baiqing/PycharmProjects/Reinvent-master-3.2/result/LINK_invent/BTK/process_docking_weight1_custom_product_contain_oxygen_bond_distance_aromatic_linkinvent_7_9_3/rearranged_h_0014.sdf

> <i_m_source_file_index>
31

> <r_mmod_Potential_Energy-OPLS-2005>
16.040433883667

> <r_mmod_Stretch_Energy-OPLS-2005>
48.5621032714844

> <r_mmod_Bend_Energy-OPLS-2005>
102.846351623535

> <r_mmod_Torsional_Energy-OPLS-2005>
267.962829589844

> <r_mmod_Improper_Torsional_Energy-OPLS-2005>
8.64721393585205

> <r_mmod_Van_der_Waal_Energy-OPLS-2005>
173.597610473633

> <r_mmod_Electrostatic_Energy-OPLS-2005>
-381.965179443359

> <r_mmod_Solvation_Energy-OPLS-2005>
-222.695465087891

> <b_mmod_Minimization_Converged-OPLS-2005>
0

> <r_mmod_RMS_Derivative-OPLS-2005>
1.99713373184204

$$$$
31
                    3D
 Structure written by MMmdl.
158166  0  0  1  0            999 V2000
  -30.7351  -14.4559   20.6322 C   0  0  0  0  0  0
  -30.4216  -12.3272   19.4100 C   0  0  0  0  0  0
  -29.4821  -12.4975   18.2005 C   0  0  0  0  0  0
  -28.0132  -12.3365   18.6303 C   0  0  0  0  0  0
  -27.6582  -13.2017   19.8671 C   0  0  2  0  0  0
  -28.6989  -13.0025   20.9903 C   0  0  0  0  0  0
  -25.2601  -13.8159   20.5670 C   0  0  0  0  0  0
  -24.1847  -13.0444   20.9180 C   0  0  0  0  0  0
  -24.6392  -11.6911   20.8765 C   0  0  0  0  0  0
  -23.9063  -10.4296   21.0440 C   0  0  0  0  0  0
  -24.3615   -9.4203   21.9209 C   0  0  0  0  0  0
  -23.6287   -8.2238   22.0765 C   0  0  0  0  0  0
  -22.4270   -8.0282   21.3551 C   0  0  0  0  0  0
  -21.9912   -9.0271   20.4660 C   0  0  0  0  0  0
  -22.7246  -10.2145   20.3078 C   0  0  0  0  0  0
  -21.6844   -6.0745   22.5285 C   0  0  0  0  0  0
  -21.4009   -6.5647   23.8221 C   0  0  0  0  0  0
  -21.3655   -5.6799   24.9186 C   0  0  0  0  0  0
  -21.6033   -4.3061   24.7232 C   0  0  0  0  0  0
  -21.8816   -3.8155   23.4356 C   0  0  0  0  0  0
  -21.9192   -4.6973   22.3416 C   0  0  0  0  0  0
  -22.7871  -13.5256   21.1849 C   0  0  0  0  0  0
  -22.1655   -4.2155   21.0991 F   0  0  0  0  0  0
  -21.5632   -3.4546   25.7748 F   0  0  0  0  0  0
  -30.0283  -13.3096   20.4345 N   0  0  0  0  0  0
  -26.3011  -12.9306   20.3340 N   0  0  0  0  0  0
  -25.9307  -11.6482   20.5786 N   0  0  0  0  0  0
  -22.0504  -12.8261   22.0399 N   0  0  0  0  0  0
  -25.4372  -15.1870   20.4076 N   0  0  0  0  0  0
  -31.8357  -14.6531   20.1131 O   0  0  0  0  0  0
  -21.6625   -6.8886   21.4244 O   0  0  0  0  0  0
  -22.3565  -14.5570   20.6695 O   0  0  0  0  0  0
  -24.6164  -31.8677   23.2110 C   0  0  0  0  0  0
  -25.9058  -32.4819   23.8406 C   0  0  1  0  0  0
  -27.2194  -27.4112   20.0965 C   0  0  0  0  0  0
  -25.5908  -33.8618   24.2332 N   0  0  0  0  0  0
  -23.4035  -30.4945   21.5525 C   0  0  2  0  0  0
  -24.8453  -28.9621   20.1143 C   0  0  0  0  0  0
  -22.7416  -29.4666   22.4991 C   0  0  0  0  0  0
  -18.0268  -28.1378   22.8484 C   0  0  0  0  0  0
  -24.1486  -36.7321   23.2639 C   0  0  0  0  0  0
  -25.9368  -30.8263   21.3682 C   0  0  0  0  0  0
  -26.0103  -29.4622   20.7087 C   0  0  0  0  0  0
  -27.2018  -28.6965   20.6928 C   0  0  0  0  0  0
  -26.0312  -26.9366   19.4910 C   0  0  0  0  0  0
  -24.8514  -27.6998   19.5016 C   0  0  0  0  0  0
  -23.6110  -29.8323   20.1652 C   0  0  0  0  0  0
  -25.4105  -36.3111   24.0338 C   0  0  1  0  0  0
  -20.5862  -28.3671   23.1308 C   0  0  2  0  0  0
  -20.6762  -26.9408   22.5406 C   0  0  0  0  0  0
  -19.5738  -26.6389   21.5205 C   0  0  0  0  0  0
  -18.1920  -26.7918   22.1624 C   0  0  0  0  0  0
  -19.1520  -28.8842   23.2893 C   0  0  0  0  0  0
  -18.9448  -30.1447   23.8904 C   0  0  0  0  0  0
  -17.6451  -30.6584   24.0567 C   0  0  0  0  0  0
  -25.9031  -34.9477   23.5134 C   0  0  0  0  0  0
  -16.5342  -29.9086   23.6327 C   0  0  0  0  0  0
  -16.7260  -28.6505   23.0344 C   0  0  0  0  0  0
  -26.4472  -31.6594   25.0737 C   0  0  0  0  0  0
  -25.3738  -31.3711   26.1492 C   0  0  0  0  0  0
  -27.0299  -30.3026   24.6134 C   0  0  0  0  0  0
  -27.6059  -32.4310   25.7491 C   0  0  0  0  0  0
  -27.5576  -37.1815   24.8465 C   0  0  0  0  0  0
  -21.4146  -29.3040   22.3719 N   0  0  0  0  0  0
  -26.4296  -37.3794   23.9403 N   0  0  0  0  0  0
  -24.6706  -31.0770   22.1013 N   0  0  0  0  0  0
  -23.4188  -28.8200   23.3026 O   0  0  0  0  0  0
  -28.3732  -26.6460   20.1292 O   0  0  0  0  0  0
  -26.5596  -34.8931   22.4694 O   0  0  0  0  0  0
  -23.5355  -32.1442   23.7494 O   0  0  0  0  0  0
  -29.5403  -18.6713   21.8707 C   0  0  0  0  0  0
  -29.4684  -20.0563   21.5756 C   0  0  0  0  0  0
  -31.6639  -19.9421   20.5794 C   0  0  0  0  0  0
  -30.6947  -17.9120   21.5642 C   0  0  0  0  0  0
  -30.5532  -20.7352   20.9672 C   0  0  0  0  0  0
  -31.7482  -18.5652   20.8793 C   0  0  0  0  0  0
  -31.8831  -22.7857   20.6625 C   0  0  0  0  0  0
  -30.8553  -16.4780   22.1074 C   0  0  0  0  0  0
  -29.4765  -24.4387   20.4617 C   0  0  0  0  0  0
  -29.3612  -22.8824   20.3685 C   0  0  0  0  0  0
  -28.2030  -25.2130   20.0547 C   0  0  0  0  0  0
  -30.1567  -15.3795   21.4209 N   0  0  0  0  0  0
  -30.5681  -22.1529   20.8131 N   0  0  0  0  0  0
  -33.1996  -17.7348   20.4415 Cl  0  0  0  0  0  0
  -31.4609  -12.4414   19.0949 H   0  0  0  0  0  0
  -30.3457  -11.3187   19.8177 H   0  0  0  0  0  0
  -29.7257  -11.7649   17.4299 H   0  0  0  0  0  0
  -29.6286  -13.4794   17.7488 H   0  0  0  0  0  0
  -27.8532  -11.2822   18.8642 H   0  0  0  0  0  0
  -27.3442  -12.5618   17.7997 H   0  0  0  0  0  0
  -27.7002  -14.2435   19.5487 H   0  0  0  0  0  0
  -28.6839  -11.9702   21.3423 H   0  0  0  0  0  0
  -28.4428  -13.6087   21.8601 H   0  0  0  0  0  0
  -25.2767   -9.5662   22.4784 H   0  0  0  0  0  0
  -23.9991   -7.4625   22.7482 H   0  0  0  0  0  0
  -21.0844   -8.8811   19.8964 H   0  0  0  0  0  0
  -22.3733  -10.9694   19.6186 H   0  0  0  0  0  0
  -21.1990   -7.6153   23.9727 H   0  0  0  0  0  0
  -21.1474   -6.0532   25.9089 H   0  0  0  0  0  0
  -22.0595   -2.7613   23.2864 H   0  0  0  0  0  0
  -22.4092  -11.9901   22.4778 H   0  0  0  0  0  0
  -21.1133  -13.1314   22.2624 H   0  0  0  0  0  0
  -24.6788  -15.8515   20.5190 H   0  0  0  0  0  0
  -26.2996  -15.6185   20.0977 H   0  0  0  0  0  0
  -26.7119  -32.5511   23.1164 H   0  0  0  0  0  0
  -25.0050  -33.9784   25.0472 H   0  0  0  0  0  0
  -22.6930  -31.3124   21.4158 H   0  0  0  0  0  0
  -23.3736  -35.9668   23.3322 H   0  0  0  0  0  0
  -24.3577  -36.8911   22.2047 H   0  0  0  0  0  0
  -23.7259  -37.6542   23.6638 H   0  0  0  0  0  0
  -26.0583  -31.5954   20.6042 H   0  0  0  0  0  0
  -26.8222  -30.8713   21.9907 H   0  0  0  0  0  0
  -28.1004  -29.0759   21.1591 H   0  0  0  0  0  0
  -25.9886  -25.9730   19.0060 H   0  0  0  0  0  0
  -23.9543  -27.3103   19.0403 H   0  0  0  0  0  0
  -23.7235  -30.6104   19.4095 H   0  0  0  0  0  0
  -22.7330  -29.2562   19.8658 H   0  0  0  0  0  0
  -25.1280  -36.1980   25.0833 H   0  0  0  0  0  0
  -20.9945  -28.3233   24.1434 H   0  0  0  0  0  0
  -20.5661  -26.2281   23.3593 H   0  0  0  0  0  0
  -21.6635  -26.7447   22.1203 H   0  0  0  0  0  0
  -19.6905  -25.6304   21.1222 H   0  0  0  0  0  0
  -19.6676  -27.3211   20.6743 H   0  0  0  0  0  0
  -17.4183  -26.6654   21.4035 H   0  0  0  0  0  0
  -18.0342  -26.0063   22.9027 H   0  0  0  0  0  0
  -19.7931  -30.7257   24.2278 H   0  0  0  0  0  0
  -17.5013  -31.6263   24.5172 H   0  0  0  0  0  0
  -15.5347  -30.2993   23.7652 H   0  0  0  0  0  0
  -15.8658  -28.0832   22.7053 H   0  0  0  0  0  0
  -24.5917  -30.7043   25.7838 H   0  0  0  0  0  0
  -24.8926  -32.2866   26.4938 H   0  0  0  0  0  0
  -25.8101  -30.8888   27.0250 H   0  0  0  0  0  0
  -26.2847  -29.6794   24.1172 H   0  0  0  0  0  0
  -27.4025  -29.7258   25.4609 H   0  0  0  0  0  0
  -27.8707  -30.4323   23.9322 H   0  0  0  0  0  0
  -27.2685  -33.3596   26.2107 H   0  0  0  0  0  0
  -28.3846  -32.6885   25.0300 H   0  0  0  0  0  0
  -28.0754  -31.8409   26.5370 H   0  0  0  0  0  0
  -28.2612  -38.0092   24.7487 H   0  0  0  0  0  0
  -28.1053  -36.2624   24.6321 H   0  0  0  0  0  0
  -27.2293  -37.1505   25.8870 H   0  0  0  0  0  0
  -20.9308  -29.8778   21.6954 H   0  0  0  0  0  0
  -26.0183  -38.2875   24.1395 H   0  0  0  0  0  0
  -28.7189  -18.2061   22.3980 H   0  0  0  0  0  0
  -28.5894  -20.5989   21.8901 H   0  0  0  0  0  0
  -32.5098  -20.3809   20.0743 H   0  0  0  0  0  0
  -31.8926  -23.7913   21.0831 H   0  0  0  0  0  0
  -32.1690  -22.8520   19.6115 H   0  0  0  0  0  0
  -32.6640  -22.2479   21.2010 H   0  0  0  0  0  0
  -30.4808  -16.4823   23.1324 H   0  0  0  0  0  0
  -31.9123  -16.2328   22.2222 H   0  0  0  0  0  0
  -30.2817  -24.7870   19.8138 H   0  0  0  0  0  0
  -29.7446  -24.7272   21.4793 H   0  0  0  0  0  0
  -29.1387  -22.5962   19.3384 H   0  0  0  0  0  0
  -28.5041  -22.5635   20.9622 H   0  0  0  0  0  0
  -27.3888  -24.9018   20.7137 H   0  0  0  0  0  0
  -27.9318  -24.9266   19.0371 H   0  0  0  0  0  0
  -29.2254  -15.1660   21.7441 H   0  0  0  0  0  0
  1 25  1  0  0  0
  1 30  2  0  0  0
  1 82  1  0  0  0
  2  3  1  0  0  0
  2 25  1  0  0  0
  2 85  1  0  0  0
  2 86  1  0  0  0
  3  4  1  0  0  0
  3 87  1  0  0  0
  3 88  1  0  0  0
  4  5  1  0  0  0
  4 89  1  0  0  0
  4 90  1  0  0  0
  5  6  1  0  0  0
  5 26  1  0  0  0
  5 91  1  0  0  0
  6 25  1  0  0  0
  6 92  1  0  0  0
  6 93  1  0  0  0
  7  8  2  0  0  0
  7 26  1  0  0  0
  7 29  1  0  0  0
  8  9  1  0  0  0
  8 22  1  0  0  0
  9 10  1  0  0  0
  9 27  2  0  0  0
 10 11  2  0  0  0
 10 15  1  0  0  0
 11 12  1  0  0  0
 11 94  1  0  0  0
 12 13  2  0  0  0
 12 95  1  0  0  0
 13 14  1  0  0  0
 13 31  1  0  0  0
 14 15  2  0  0  0
 14 96  1  0  0  0
 15 97  1  0  0  0
 16 17  2  0  0  0
 16 21  1  0  0  0
 16 31  1  0  0  0
 17 18  1  0  0  0
 17 98  1  0  0  0
 18 19  2  0  0  0
 18 99  1  0  0  0
 19 20  1  0  0  0
 19 24  1  0  0  0
 20 21  2  0  0  0
 20100  1  0  0  0
 21 23  1  0  0  0
 22 28  1  0  0  0
 22 32  2  0  0  0
 26 27  1  0  0  0
 28101  1  0  0  0
 28102  1  0  0  0
 29103  1  0  0  0
 29104  1  0  0  0
 33 34  1  0  0  0
 33 66  1  0  0  0
 33 70  2  0  0  0
 34 36  1  0  0  0
 34 59  1  0  0  0
 34105  1  0  0  0
 35 44  2  0  0  0
 35 45  1  0  0  0
 35 68  1  0  0  0
 36 56  1  0  0  0
 36106  1  0  0  0
 37 39  1  0  0  0
 37 47  1  0  0  0
 37 66  1  0  0  0
 37107  1  0  0  0
 38 43  2  0  0  0
 38 46  1  0  0  0
 38 47  1  0  0  0
 39 64  1  0  0  0
 39 67  2  0  0  0
 40 52  1  0  0  0
 40 53  2  0  0  0
 40 58  1  0  0  0
 41108  1  0  0  0
 41109  1  0  0  0
 41110  1  0  0  0
 41 48  1  0  0  0
 42 43  1  0  0  0
 42 66  1  0  0  0
 42111  1  0  0  0
 42112  1  0  0  0
 43 44  1  0  0  0
 44113  1  0  0  0
 45 46  2  0  0  0
 45114  1  0  0  0
 46115  1  0  0  0
 47116  1  0  0  0
 47117  1  0  0  0
 48 56  1  0  0  0
 48 65  1  0  0  0
 48118  1  0  0  0
 49 50  1  0  0  0
 49 53  1  0  0  0
 49 64  1  0  0  0
 49119  1  0  0  0
 50 51  1  0  0  0
 50120  1  0  0  0
 50121  1  0  0  0
 51 52  1  0  0  0
 51122  1  0  0  0
 51123  1  0  0  0
 52124  1  0  0  0
 52125  1  0  0  0
 53 54  1  0  0  0
 54 55  2  0  0  0
 54126  1  0  0  0
 55 57  1  0  0  0
 55127  1  0  0  0
 56 69  2  0  0  0
 57 58  2  0  0  0
 57128  1  0  0  0
 58129  1  0  0  0
 59 60  1  0  0  0
 59 61  1  0  0  0
 59 62  1  0  0  0
 60130  1  0  0  0
 60131  1  0  0  0
 60132  1  0  0  0
 61133  1  0  0  0
 61134  1  0  0  0
 61135  1  0  0  0
 62136  1  0  0  0
 62137  1  0  0  0
 62138  1  0  0  0
 63 65  1  0  0  0
 63139  1  0  0  0
 63140  1  0  0  0
 63141  1  0  0  0
 64142  1  0  0  0
 65143  1  0  0  0
 68 81  1  0  0  0
 71 72  2  0  0  0
 71 74  1  0  0  0
 71144  1  0  0  0
 72 75  1  0  0  0
 72145  1  0  0  0
 73 75  2  0  0  0
 73 76  1  0  0  0
 73146  1  0  0  0
 74 76  2  0  0  0
 74 78  1  0  0  0
 75 83  1  0  0  0
 76 84  1  0  0  0
 77 83  1  0  0  0
 77147  1  0  0  0
 77148  1  0  0  0
 77149  1  0  0  0
 78 82  1  0  0  0
 78150  1  0  0  0
 78151  1  0  0  0
 79 80  1  0  0  0
 79 81  1  0  0  0
 79152  1  0  0  0
 79153  1  0  0  0
 80 83  1  0  0  0
 80154  1  0  0  0
 80155  1  0  0  0
 81156  1  0  0  0
 81157  1  0  0  0
 82158  1  0  0  0
M  ISO  4   1 100  68 101  81 101  82 100
M  END
> <chiral flag>
0

> <version>
0

> <s_m_source_file>
/data/baiqing/PycharmProjects/Reinvent-master-3.2/result/LINK_invent/BTK/process_docking_weight1_custom_product_contain_oxygen_bond_distance_aromatic_linkinvent_7_9_3/rearranged_h_0014.sdf

> <i_m_source_file_index>
32

> <r_mmod_Potential_Energy-OPLS-2005>
-65.2804718017578

> <r_mmod_Stretch_Energy-OPLS-2005>
43.4112091064453

> <r_mmod_Bend_Energy-OPLS-2005>
108.690124511719

> <r_mmod_Torsional_Energy-OPLS-2005>
204.969955444336

> <r_mmod_Improper_Torsional_Energy-OPLS-2005>
3.98026251792908

> <r_mmod_Van_der_Waal_Energy-OPLS-2005>
166.533630371094

> <r_mmod_Electrostatic_Energy-OPLS-2005>
-374.514099121094

> <r_mmod_Solvation_Energy-OPLS-2005>
-233.370071411133

> <b_mmod_Minimization_Converged-OPLS-2005>
0

> <r_mmod_RMS_Derivative-OPLS-2005>
1.79727911949158

$$$$
32
                    3D
 Structure written by MMmdl.
159167  0  0  1  0            999 V2000
  -30.6118  -14.7219   20.3594 C   0  0  0  0  0  0
  -30.4359  -12.4009   19.4783 C   0  0  0  0  0  0
  -29.5120  -12.3776   18.2394 C   0  0  0  0  0  0
  -28.0302  -12.2865   18.6549 C   0  0  0  0  0  0
  -27.6376  -13.2158   19.8365 C   0  0  2  0  0  0
  -28.6883  -13.1892   20.9669 C   0  0  0  0  0  0
  -25.2504  -13.8177   20.5669 C   0  0  0  0  0  0
  -24.1784  -13.0448   20.9235 C   0  0  0  0  0  0
  -24.6342  -11.6920   20.8787 C   0  0  0  0  0  0
  -23.9018  -10.4295   21.0429 C   0  0  0  0  0  0
  -24.3590   -9.4218   21.9195 C   0  0  0  0  0  0
  -23.6304   -8.2234   22.0740 C   0  0  0  0  0  0
  -22.4291   -8.0256   21.3532 C   0  0  0  0  0  0
  -21.9922   -9.0215   20.4642 C   0  0  0  0  0  0
  -22.7197  -10.2127   20.3063 C   0  0  0  0  0  0
  -21.6846   -6.0740   22.5282 C   0  0  0  0  0  0
  -21.4004   -6.5647   23.8219 C   0  0  0  0  0  0
  -21.3674   -5.6788   24.9177 C   0  0  0  0  0  0
  -21.6068   -4.3052   24.7214 C   0  0  0  0  0  0
  -21.8809   -3.8152   23.4326 C   0  0  0  0  0  0
  -21.9182   -4.6978   22.3393 C   0  0  0  0  0  0
  -22.7806  -13.5237   21.1870 C   0  0  0  0  0  0
  -22.1639   -4.2181   21.0972 F   0  0  0  0  0  0
  -21.5675   -3.4528   25.7719 F   0  0  0  0  0  0
  -29.9833  -13.5015   20.3526 N   0  0  0  0  0  0
  -26.2914  -12.9348   20.3251 N   0  0  0  0  0  0
  -25.9259  -11.6519   20.5776 N   0  0  0  0  0  0
  -22.0419  -12.8270   22.0447 N   0  0  0  0  0  0
  -25.4188  -15.1902   20.4019 N   0  0  0  0  0  0
  -31.8426  -14.7821   20.2704 O   0  0  0  0  0  0
  -21.6643   -6.8865   21.4232 O   0  0  0  0  0  0
  -22.3486  -14.5495   20.6621 O   0  0  0  0  0  0
  -24.6256  -31.8582   23.2020 C   0  0  0  0  0  0
  -25.9120  -32.4757   23.8346 C   0  0  1  0  0  0
  -27.2323  -27.3303   20.1234 C   0  0  0  0  0  0
  -25.5936  -33.8562   24.2278 N   0  0  0  0  0  0
  -23.4174  -30.4822   21.5413 C   0  0  2  0  0  0
  -24.8641  -28.9315   20.1092 C   0  0  0  0  0  0
  -22.7462  -29.4613   22.4905 C   0  0  0  0  0  0
  -18.0297  -28.1360   22.8503 C   0  0  0  0  0  0
  -24.1488  -36.7298   23.2642 C   0  0  0  0  0  0
  -25.9550  -30.7916   21.3718 C   0  0  0  0  0  0
  -26.0278  -29.4208   20.7137 C   0  0  0  0  0  0
  -27.2099  -28.6314   20.7094 C   0  0  0  0  0  0
  -26.0415  -26.8746   19.5120 C   0  0  0  0  0  0
  -24.8721  -27.6651   19.5010 C   0  0  0  0  0  0
  -23.6323  -29.8151   20.1563 C   0  0  0  0  0  0
  -25.4102  -36.3067   24.0340 C   0  0  1  0  0  0
  -20.5904  -28.3675   23.1284 C   0  0  2  0  0  0
  -20.6783  -26.9398   22.5412 C   0  0  0  0  0  0
  -19.5752  -26.6376   21.5213 C   0  0  0  0  0  0
  -18.1934  -26.7920   22.1624 C   0  0  0  0  0  0
  -19.1555  -28.8833   23.2897 C   0  0  0  0  0  0
  -18.9469  -30.1435   23.8904 C   0  0  0  0  0  0
  -17.6468  -30.6576   24.0556 C   0  0  0  0  0  0
  -25.9040  -34.9439   23.5113 C   0  0  0  0  0  0
  -16.5360  -29.9065   23.6330 C   0  0  0  0  0  0
  -16.7283  -28.6476   23.0371 C   0  0  0  0  0  0
  -26.4529  -31.6573   25.0723 C   0  0  0  0  0  0
  -25.3778  -31.3733   26.1468 C   0  0  0  0  0  0
  -27.0386  -30.2984   24.6212 C   0  0  0  0  0  0
  -27.6043  -32.4350   25.7507 C   0  0  0  0  0  0
  -27.5582  -37.1798   24.8466 C   0  0  0  0  0  0
  -21.4176  -29.3032   22.3656 N   0  0  0  0  0  0
  -26.4279  -37.3759   23.9421 N   0  0  0  0  0  0
  -24.6837  -31.0625   22.0947 N   0  0  0  0  0  0
  -23.4190  -28.8156   23.2983 O   0  0  0  0  0  0
  -28.3953  -26.5553   20.1872 O   0  0  0  0  0  0
  -26.5597  -34.8916   22.4667 O   0  0  0  0  0  0
  -23.5437  -32.1357   23.7395 O   0  0  0  0  0  0
  -30.1492  -19.5819   19.8550 C   0  0  0  0  0  0
  -28.1395  -18.9401   20.9987 C   0  0  0  0  0  0
  -30.5528  -18.2112   19.8249 C   0  0  0  0  0  0
  -28.5323  -17.5677   20.9490 C   0  0  0  0  0  0
  -28.9003  -19.9852   20.3997 C   0  0  0  0  0  0
  -29.7243  -17.1532   20.3050 C   0  0  0  0  0  0
  -29.8216  -15.7385   18.3423 C   0  0  0  0  0  0
  -29.7023  -22.4779   21.9444 C   0  0  0  0  0  0
  -28.2765  -21.4315   20.2004 C   0  0  0  0  0  0
  -28.1379  -23.9773   20.7063 C   0  0  0  0  0  0
  -28.4992  -25.1620   19.7104 C   0  0  0  0  0  0
  -29.8767  -15.7718   19.8195 N   0  0  0  0  0  0
  -28.9851  -22.6953   20.6630 N   0  3  1  0  0  0
  -31.4765  -12.5278   19.1775 H   0  0  0  0  0  0
  -30.3853  -11.4482   20.0073 H   0  0  0  0  0  0
  -29.7680  -11.5199   17.6168 H   0  0  0  0  0  0
  -29.6828  -13.2366   17.5985 H   0  0  0  0  0  0
  -27.8586  -11.2501   18.9456 H   0  0  0  0  0  0
  -27.3819  -12.4688   17.7974 H   0  0  0  0  0  0
  -27.6083  -14.2257   19.4334 H   0  0  0  0  0  0
  -28.7187  -12.2152   21.4574 H   0  0  0  0  0  0
  -28.4434  -13.9243   21.7372 H   0  0  0  0  0  0
  -25.2699   -9.5766   22.4799 H   0  0  0  0  0  0
  -24.0050   -7.4642   22.7450 H   0  0  0  0  0  0
  -21.0860   -8.8691   19.8938 H   0  0  0  0  0  0
  -22.3595  -10.9668   19.6207 H   0  0  0  0  0  0
  -21.1962   -7.6150   23.9726 H   0  0  0  0  0  0
  -21.1524   -6.0516   25.9092 H   0  0  0  0  0  0
  -22.0574   -2.7623   23.2784 H   0  0  0  0  0  0
  -22.3968  -11.9959   22.4928 H   0  0  0  0  0  0
  -21.0996  -13.1267   22.2529 H   0  0  0  0  0  0
  -24.6447  -15.8355   20.5097 H   0  0  0  0  0  0
  -26.2506  -15.6247   20.0233 H   0  0  0  0  0  0
  -26.7187  -32.5432   23.1091 H   0  0  0  0  0  0
  -25.0134  -33.9698   25.0463 H   0  0  0  0  0  0
  -22.7117  -31.3035   21.3987 H   0  0  0  0  0  0
  -23.3751  -35.9633   23.3290 H   0  0  0  0  0  0
  -24.3576  -36.8922   22.2059 H   0  0  0  0  0  0
  -23.7254  -37.6504   23.6665 H   0  0  0  0  0  0
  -26.0973  -31.5593   20.6098 H   0  0  0  0  0  0
  -26.8303  -30.8312   22.0079 H   0  0  0  0  0  0
  -28.1033  -29.0078   21.1878 H   0  0  0  0  0  0
  -25.9863  -25.8986   19.0542 H   0  0  0  0  0  0
  -23.9730  -27.2841   19.0334 H   0  0  0  0  0  0
  -23.7567  -30.5922   19.4003 H   0  0  0  0  0  0
  -22.7502  -29.2495   19.8493 H   0  0  0  0  0  0
  -25.1279  -36.1905   25.0832 H   0  0  0  0  0  0
  -21.0009  -28.3259   24.1399 H   0  0  0  0  0  0
  -20.5696  -26.2278   23.3605 H   0  0  0  0  0  0
  -21.6644  -26.7417   22.1189 H   0  0  0  0  0  0
  -19.6918  -25.6292   21.1221 H   0  0  0  0  0  0
  -19.6705  -27.3207   20.6760 H   0  0  0  0  0  0
  -17.4213  -26.6713   21.4012 H   0  0  0  0  0  0
  -18.0307  -26.0029   22.8982 H   0  0  0  0  0  0
  -19.7942  -30.7255   24.2282 H   0  0  0  0  0  0
  -17.5020  -31.6258   24.5153 H   0  0  0  0  0  0
  -15.5367  -30.2968   23.7650 H   0  0  0  0  0  0
  -15.8676  -28.0779   22.7104 H   0  0  0  0  0  0
  -24.5902  -30.7131   25.7828 H   0  0  0  0  0  0
  -24.9067  -32.2931   26.4941 H   0  0  0  0  0  0
  -25.8132  -30.8873   27.0211 H   0  0  0  0  0  0
  -26.2968  -29.6692   24.1277 H   0  0  0  0  0  0
  -27.4111  -29.7281   25.4741 H   0  0  0  0  0  0
  -27.8831  -30.4255   23.9424 H   0  0  0  0  0  0
  -27.2571  -33.3610   26.2104 H   0  0  0  0  0  0
  -28.3846  -32.6984   25.0352 H   0  0  0  0  0  0
  -28.0730  -31.8490   26.5422 H   0  0  0  0  0  0
  -28.2580  -38.0109   24.7494 H   0  0  0  0  0  0
  -28.1090  -36.2638   24.6289 H   0  0  0  0  0  0
  -27.2306  -37.1439   25.8868 H   0  0  0  0  0  0
  -20.9340  -29.8743   21.6861 H   0  0  0  0  0  0
  -26.0169  -38.2839   24.1403 H   0  0  0  0  0  0
  -30.7762  -20.3166   19.3723 H   0  0  0  0  0  0
  -27.1759  -19.1687   21.4330 H   0  0  0  0  0  0
  -31.4675  -17.9668   19.3022 H   0  0  0  0  0  0
  -27.8430  -16.8215   21.3185 H   0  0  0  0  0  0
  -28.8968  -15.2780   18.0017 H   0  0  0  0  0  0
  -30.6630  -15.2029   17.8962 H   0  0  0  0  0  0
  -29.8286  -16.7240   17.8788 H   0  0  0  0  0  0
  -29.0089  -22.2267   22.7503 H   0  0  0  0  0  0
  -30.2553  -23.3714   22.2369 H   0  0  0  0  0  0
  -30.4333  -21.6713   21.8647 H   0  0  0  0  0  0
  -27.2962  -21.4163   20.6771 H   0  0  0  0  0  0
  -28.0653  -21.5524   19.1369 H   0  0  0  0  0  0
  -27.0813  -23.7339   20.5910 H   0  0  0  0  0  0
  -28.2023  -24.3978   21.7112 H   0  0  0  0  0  0
  -27.9791  -25.0351   18.7595 H   0  0  0  0  0  0
  -29.5524  -25.0531   19.4459 H   0  0  0  0  0  0
  -29.7127  -22.8516   19.9806 H   0  0  0  0  0  0
  1 25  1  0  0  0
  1 30  2  0  0  0
  1 82  1  0  0  0
  2  3  1  0  0  0
  2 25  1  0  0  0
  2 84  1  0  0  0
  2 85  1  0  0  0
  3  4  1  0  0  0
  3 86  1  0  0  0
  3 87  1  0  0  0
  4  5  1  0  0  0
  4 88  1  0  0  0
  4 89  1  0  0  0
  5  6  1  0  0  0
  5 26  1  0  0  0
  5 90  1  0  0  0
  6 25  1  0  0  0
  6 91  1  0  0  0
  6 92  1  0  0  0
  7  8  2  0  0  0
  7 26  1  0  0  0
  7 29  1  0  0  0
  8  9  1  0  0  0
  8 22  1  0  0  0
  9 10  1  0  0  0
  9 27  2  0  0  0
 10 11  2  0  0  0
 10 15  1  0  0  0
 11 12  1  0  0  0
 11 93  1  0  0  0
 12 13  2  0  0  0
 12 94  1  0  0  0
 13 14  1  0  0  0
 13 31  1  0  0  0
 14 15  2  0  0  0
 14 95  1  0  0  0
 15 96  1  0  0  0
 16 17  2  0  0  0
 16 21  1  0  0  0
 16 31  1  0  0  0
 17 18  1  0  0  0
 17 97  1  0  0  0
 18 19  2  0  0  0
 18 98  1  0  0  0
 19 20  1  0  0  0
 19 24  1  0  0  0
 20 21  2  0  0  0
 20 99  1  0  0  0
 21 23  1  0  0  0
 22 28  1  0  0  0
 22 32  2  0  0  0
 26 27  1  0  0  0
 28100  1  0  0  0
 28101  1  0  0  0
 29102  1  0  0  0
 29103  1  0  0  0
 33 34  1  0  0  0
 33 66  1  0  0  0
 33 70  2  0  0  0
 34 36  1  0  0  0
 34 59  1  0  0  0
 34104  1  0  0  0
 35 44  2  0  0  0
 35 45  1  0  0  0
 35 68  1  0  0  0
 36 56  1  0  0  0
 36105  1  0  0  0
 37 39  1  0  0  0
 37 47  1  0  0  0
 37 66  1  0  0  0
 37106  1  0  0  0
 38 43  2  0  0  0
 38 46  1  0  0  0
 38 47  1  0  0  0
 39 64  1  0  0  0
 39 67  2  0  0  0
 40 52  1  0  0  0
 40 53  2  0  0  0
 40 58  1  0  0  0
 41107  1  0  0  0
 41108  1  0  0  0
 41109  1  0  0  0
 41 48  1  0  0  0
 42 43  1  0  0  0
 42 66  1  0  0  0
 42110  1  0  0  0
 42111  1  0  0  0
 43 44  1  0  0  0
 44112  1  0  0  0
 45 46  2  0  0  0
 45113  1  0  0  0
 46114  1  0  0  0
 47115  1  0  0  0
 47116  1  0  0  0
 48 56  1  0  0  0
 48 65  1  0  0  0
 48117  1  0  0  0
 49 50  1  0  0  0
 49 53  1  0  0  0
 49 64  1  0  0  0
 49118  1  0  0  0
 50 51  1  0  0  0
 50119  1  0  0  0
 50120  1  0  0  0
 51 52  1  0  0  0
 51121  1  0  0  0
 51122  1  0  0  0
 52123  1  0  0  0
 52124  1  0  0  0
 53 54  1  0  0  0
 54 55  2  0  0  0
 54125  1  0  0  0
 55 57  1  0  0  0
 55126  1  0  0  0
 56 69  2  0  0  0
 57 58  2  0  0  0
 57127  1  0  0  0
 58128  1  0  0  0
 59 60  1  0  0  0
 59 61  1  0  0  0
 59 62  1  0  0  0
 60129  1  0  0  0
 60130  1  0  0  0
 60131  1  0  0  0
 61132  1  0  0  0
 61133  1  0  0  0
 61134  1  0  0  0
 62135  1  0  0  0
 62136  1  0  0  0
 62137  1  0  0  0
 63 65  1  0  0  0
 63138  1  0  0  0
 63139  1  0  0  0
 63140  1  0  0  0
 64141  1  0  0  0
 65142  1  0  0  0
 68 81  1  0  0  0
 71 73  2  0  0  0
 71 75  1  0  0  0
 71143  1  0  0  0
 72 74  1  0  0  0
 72 75  2  0  0  0
 72144  1  0  0  0
 73 76  1  0  0  0
 73145  1  0  0  0
 74 76  2  0  0  0
 74146  1  0  0  0
 75 79  1  0  0  0
 76 82  1  0  0  0
 77 82  1  0  0  0
 77147  1  0  0  0
 77148  1  0  0  0
 77149  1  0  0  0
 78150  1  0  0  0
 78151  1  0  0  0
 78152  1  0  0  0
 78 83  1  0  0  0
 79 83  1  0  0  0
 79153  1  0  0  0
 79154  1  0  0  0
 80 81  1  0  0  0
 80 83  1  0  0  0
 80155  1  0  0  0
 80156  1  0  0  0
 81157  1  0  0  0
 81158  1  0  0  0
 83159  1  0  0  0
M  CHG  1  83   1
M  ISO  4   1 100  68 101  81 101  82 100
M  END
> <chiral flag>
0

> <version>
0

> <s_m_source_file>
/data/baiqing/PycharmProjects/Reinvent-master-3.2/result/LINK_invent/BTK/process_docking_weight1_custom_product_contain_oxygen_bond_distance_aromatic_linkinvent_7_9_3/rearranged_h_0014.sdf

> <i_m_source_file_index>
33

> <r_mmod_Potential_Energy-OPLS-2005>
247.882232666016

> <r_mmod_Stretch_Energy-OPLS-2005>
86.8487396240234

> <r_mmod_Bend_Energy-OPLS-2005>
166.138732910156

> <r_mmod_Torsional_Energy-OPLS-2005>
345.793884277344

> <r_mmod_Improper_Torsional_Energy-OPLS-2005>
30.5632781982422

> <r_mmod_Van_der_Waal_Energy-OPLS-2005>
143.232284545898

> <r_mmod_Electrostatic_Energy-OPLS-2005>
-172.726577758789

> <r_mmod_Solvation_Energy-OPLS-2005>
-427.340942382812

> <b_mmod_Minimization_Converged-OPLS-2005>
0

> <r_mmod_RMS_Derivative-OPLS-2005>
3.28161954879761

$$$$
33
                    3D
 Structure written by MMmdl.
165173  0  0  1  0            999 V2000
  -30.7050  -14.4707   20.5764 C   0  0  0  0  0  0
  -30.4272  -12.3099   19.4173 C   0  0  0  0  0  0
  -29.4935  -12.4999   18.2035 C   0  0  0  0  0  0
  -28.0153  -12.3586   18.6184 C   0  0  0  0  0  0
  -27.6614  -13.1996   19.8730 C   0  0  2  0  0  0
  -28.7056  -12.9864   20.9923 C   0  0  0  0  0  0
  -25.2607  -13.8149   20.5679 C   0  0  0  0  0  0
  -24.1848  -13.0432   20.9171 C   0  0  0  0  0  0
  -24.6390  -11.6894   20.8728 C   0  0  0  0  0  0
  -23.9051  -10.4288   21.0403 C   0  0  0  0  0  0
  -24.3608   -9.4211   21.9181 C   0  0  0  0  0  0
  -23.6295   -8.2244   22.0753 C   0  0  0  0  0  0
  -22.4273   -8.0277   21.3546 C   0  0  0  0  0  0
  -21.9903   -9.0246   20.4650 C   0  0  0  0  0  0
  -22.7222  -10.2128   20.3057 C   0  0  0  0  0  0
  -21.6854   -6.0738   22.5281 C   0  0  0  0  0  0
  -21.4013   -6.5644   23.8213 C   0  0  0  0  0  0
  -21.3658   -5.6795   24.9176 C   0  0  0  0  0  0
  -21.6043   -4.3055   24.7228 C   0  0  0  0  0  0
  -21.8825   -3.8151   23.4349 C   0  0  0  0  0  0
  -21.9201   -4.6966   22.3407 C   0  0  0  0  0  0
  -22.7872  -13.5230   21.1843 C   0  0  0  0  0  0
  -22.1670   -4.2153   21.0985 F   0  0  0  0  0  0
  -21.5628   -3.4539   25.7744 F   0  0  0  0  0  0
  -30.0358  -13.2925   20.4388 N   0  0  0  0  0  0
  -26.3031  -12.9295   20.3377 N   0  0  0  0  0  0
  -25.9317  -11.6462   20.5772 N   0  0  0  0  0  0
  -22.0525  -12.8210   22.0397 N   0  0  0  0  0  0
  -25.4360  -15.1868   20.4086 N   0  0  0  0  0  0
  -31.8306  -14.6608   20.1040 O   0  0  0  0  0  0
  -21.6639   -6.8877   21.4241 O   0  0  0  0  0  0
  -22.3551  -14.5543   20.6713 O   0  0  0  0  0  0
  -24.6146  -31.8678   23.2115 C   0  0  0  0  0  0
  -25.9047  -32.4817   23.8403 C   0  0  1  0  0  0
  -27.2349  -27.4281   20.0751 C   0  0  0  0  0  0
  -25.5904  -33.8617   24.2329 N   0  0  0  0  0  0
  -23.4015  -30.4939   21.5518 C   0  0  2  0  0  0
  -24.8458  -28.9624   20.1133 C   0  0  0  0  0  0
  -22.7405  -29.4661   22.4980 C   0  0  0  0  0  0
  -18.0271  -28.1368   22.8483 C   0  0  0  0  0  0
  -24.1489  -36.7318   23.2643 C   0  0  0  0  0  0
  -25.9334  -30.8268   21.3696 C   0  0  0  0  0  0
  -26.0066  -29.4616   20.7141 C   0  0  0  0  0  0
  -27.1978  -28.6985   20.7005 C   0  0  0  0  0  0
  -26.0465  -26.9493   19.4698 C   0  0  0  0  0  0
  -24.8608  -27.7038   19.4926 C   0  0  0  0  0  0
  -23.6092  -29.8307   20.1644 C   0  0  0  0  0  0
  -25.4110  -36.3111   24.0336 C   0  0  1  0  0  0
  -20.5861  -28.3661   23.1308 C   0  0  2  0  0  0
  -20.6759  -26.9394   22.5412 C   0  0  0  0  0  0
  -19.5743  -26.6380   21.5204 C   0  0  0  0  0  0
  -18.1920  -26.7918   22.1612 C   0  0  0  0  0  0
  -19.1521  -28.8831   23.2894 C   0  0  0  0  0  0
  -18.9450  -30.1438   23.8907 C   0  0  0  0  0  0
  -17.6455  -30.6580   24.0561 C   0  0  0  0  0  0
  -25.9038  -34.9474   23.5132 C   0  0  0  0  0  0
  -16.5344  -29.9081   23.6321 C   0  0  0  0  0  0
  -16.7262  -28.6495   23.0341 C   0  0  0  0  0  0
  -26.4478  -31.6600   25.0735 C   0  0  0  0  0  0
  -25.3747  -31.3711   26.1490 C   0  0  0  0  0  0
  -27.0312  -30.3038   24.6126 C   0  0  0  0  0  0
  -27.6046  -32.4332   25.7494 C   0  0  0  0  0  0
  -27.5581  -37.1814   24.8463 C   0  0  0  0  0  0
  -21.4136  -29.3035   22.3720 N   0  0  0  0  0  0
  -26.4293  -37.3795   23.9408 N   0  0  0  0  0  0
  -24.6677  -31.0777   22.1016 N   0  0  0  0  0  0
  -23.4181  -28.8191   23.3012 O   0  0  0  0  0  0
  -28.4242  -26.7138   20.1024 O   0  0  0  0  0  0
  -26.5591  -34.8925   22.4690 O   0  0  0  0  0  0
  -23.5339  -32.1431   23.7512 O   0  0  0  0  0  0
  -28.8611  -18.8096   20.9993 C   0  0  0  0  0  0
  -29.0590  -20.2021   21.1280 C   0  0  0  0  0  0
  -30.9610  -18.6187   19.7901 C   0  0  0  0  0  0
  -29.7992  -18.0078   20.3107 C   0  0  0  0  0  0
  -30.1968  -20.8215   20.5629 C   0  0  0  0  0  0
  -31.1573  -20.0117   19.9126 C   0  0  0  0  0  0
  -28.9457  -26.0196   17.8910 C   0  0  0  0  0  0
  -29.9415  -15.8888   22.4151 C   0  0  0  0  0  0
  -29.6636  -22.7300   18.3131 C   0  0  0  0  0  0
  -29.5006  -16.5317   20.0276 C   0  0  0  0  0  0
  -30.3892  -22.3431   20.6574 C   0  0  0  0  0  0
  -29.6939  -24.6262   19.9429 C   0  0  0  0  0  0
  -28.5905  -25.5240   19.3064 C   0  0  1  0  0  0
  -29.9548  -15.5152   21.0002 N   0  0  0  0  0  0
  -29.5281  -23.1463   19.7335 N   0  3  1  0  0  0
  -32.2614  -20.5763   19.3690 F   0  0  0  0  0  0
  -31.4695  -12.4163   19.1101 H   0  0  0  0  0  0
  -30.3417  -11.2988   19.8180 H   0  0  0  0  0  0
  -29.7317  -11.7730   17.4261 H   0  0  0  0  0  0
  -29.6606  -13.4835   17.7609 H   0  0  0  0  0  0
  -27.8256  -11.3033   18.8155 H   0  0  0  0  0  0
  -27.3631  -12.6299   17.7875 H   0  0  0  0  0  0
  -27.6997  -14.2434   19.5667 H   0  0  0  0  0  0
  -28.6814  -11.9528   21.3406 H   0  0  0  0  0  0
  -28.4649  -13.5944   21.8656 H   0  0  0  0  0  0
  -25.2760   -9.5692   22.4748 H   0  0  0  0  0  0
  -24.0019   -7.4629   22.7460 H   0  0  0  0  0  0
  -21.0845   -8.8755   19.8940 H   0  0  0  0  0  0
  -22.3684  -10.9669   19.6159 H   0  0  0  0  0  0
  -21.1995   -7.6147   23.9713 H   0  0  0  0  0  0
  -21.1476   -6.0529   25.9080 H   0  0  0  0  0  0
  -22.0607   -2.7614   23.2852 H   0  0  0  0  0  0
  -22.4136  -11.9860   22.4775 H   0  0  0  0  0  0
  -21.1144  -13.1230   22.2611 H   0  0  0  0  0  0
  -24.6759  -15.8490   20.5207 H   0  0  0  0  0  0
  -26.2993  -15.6214   20.1104 H   0  0  0  0  0  0
  -26.7110  -32.5523   23.1156 H   0  0  0  0  0  0
  -25.0064  -33.9785   25.0478 H   0  0  0  0  0  0
  -22.6911  -31.3117   21.4155 H   0  0  0  0  0  0
  -23.3744  -35.9660   23.3307 H   0  0  0  0  0  0
  -24.3582  -36.8931   22.2056 H   0  0  0  0  0  0
  -23.7243  -37.6527   23.6649 H   0  0  0  0  0  0
  -26.0534  -31.5938   20.6031 H   0  0  0  0  0  0
  -26.8187  -30.8742   21.9916 H   0  0  0  0  0  0
  -28.0934  -29.0844   21.1680 H   0  0  0  0  0  0
  -25.9883  -25.9988   18.9653 H   0  0  0  0  0  0
  -23.9677  -27.3141   19.0236 H   0  0  0  0  0  0
  -23.7180  -30.6086   19.4072 H   0  0  0  0  0  0
  -22.7318  -29.2529   19.8674 H   0  0  0  0  0  0
  -25.1284  -36.1978   25.0827 H   0  0  0  0  0  0
  -20.9954  -28.3223   24.1428 H   0  0  0  0  0  0
  -20.5651  -26.2269   23.3597 H   0  0  0  0  0  0
  -21.6629  -26.7427   22.1212 H   0  0  0  0  0  0
  -19.6907  -25.6293   21.1226 H   0  0  0  0  0  0
  -19.6689  -27.3198   20.6737 H   0  0  0  0  0  0
  -17.4188  -26.6661   21.4014 H   0  0  0  0  0  0
  -18.0327  -26.0056   22.9005 H   0  0  0  0  0  0
  -19.7927  -30.7247   24.2283 H   0  0  0  0  0  0
  -17.5010  -31.6264   24.5155 H   0  0  0  0  0  0
  -15.5345  -30.2990   23.7644 H   0  0  0  0  0  0
  -15.8656  -28.0831   22.7044 H   0  0  0  0  0  0
  -24.5902  -30.7077   25.7831 H   0  0  0  0  0  0
  -24.8971  -32.2877   26.4967 H   0  0  0  0  0  0
  -25.8118  -30.8855   27.0227 H   0  0  0  0  0  0
  -26.2863  -29.6794   24.1177 H   0  0  0  0  0  0
  -27.4067  -29.7282   25.4599 H   0  0  0  0  0  0
  -27.8708  -30.4348   23.9293 H   0  0  0  0  0  0
  -27.2640  -33.3605   26.2119 H   0  0  0  0  0  0
  -28.3829  -32.6942   25.0308 H   0  0  0  0  0  0
  -28.0742  -31.8431   26.5375 H   0  0  0  0  0  0
  -28.2598  -38.0110   24.7503 H   0  0  0  0  0  0
  -28.1073  -36.2639   24.6291 H   0  0  0  0  0  0
  -27.2298  -37.1472   25.8867 H   0  0  0  0  0  0
  -20.9285  -29.8783   21.6970 H   0  0  0  0  0  0
  -26.0182  -38.2872   24.1412 H   0  0  0  0  0  0
  -27.9638  -18.3625   21.4054 H   0  0  0  0  0  0
  -28.3185  -20.7946   21.6470 H   0  0  0  0  0  0
  -31.6898  -18.0262   19.2552 H   0  0  0  0  0  0
  -29.1523  -25.2136   17.1916 H   0  0  0  0  0  0
  -29.8286  -26.6586   17.9178 H   0  0  0  0  0  0
  -28.1318  -26.6073   17.4659 H   0  0  0  0  0  0
  -28.9544  -16.2523   22.7005 H   0  0  0  0  0  0
  -30.6687  -16.6769   22.6131 H   0  0  0  0  0  0
  -30.1826  -15.0433   23.0623 H   0  0  0  0  0  0
  -29.5920  -21.6504   18.1874 H   0  0  0  0  0  0
  -30.6172  -23.0529   17.8924 H   0  0  0  0  0  0
  -28.8581  -23.1358   17.7053 H   0  0  0  0  0  0
  -29.8881  -16.3016   19.0320 H   0  0  0  0  0  0
  -28.4204  -16.4281   19.9291 H   0  0  0  0  0  0
  -31.4362  -22.5912   20.4794 H   0  0  0  0  0  0
  -30.1868  -22.6389   21.6878 H   0  0  0  0  0  0
  -29.6578  -24.7996   21.0193 H   0  0  0  0  0  0
  -30.6867  -24.9512   19.6271 H   0  0  0  0  0  0
  -27.6841  -24.9237   19.2986 H   0  0  0  0  0  0
  -28.5821  -22.9182   20.0017 H   0  0  0  0  0  0
  1 25  1  0  0  0
  1 30  2  0  0  0
  1 84  1  0  0  0
  2  3  1  0  0  0
  2 25  1  0  0  0
  2 87  1  0  0  0
  2 88  1  0  0  0
  3  4  1  0  0  0
  3 89  1  0  0  0
  3 90  1  0  0  0
  4  5  1  0  0  0
  4 91  1  0  0  0
  4 92  1  0  0  0
  5  6  1  0  0  0
  5 26  1  0  0  0
  5 93  1  0  0  0
  6 25  1  0  0  0
  6 94  1  0  0  0
  6 95  1  0  0  0
  7  8  2  0  0  0
  7 26  1  0  0  0
  7 29  1  0  0  0
  8  9  1  0  0  0
  8 22  1  0  0  0
  9 10  1  0  0  0
  9 27  2  0  0  0
 10 11  2  0  0  0
 10 15  1  0  0  0
 11 12  1  0  0  0
 11 96  1  0  0  0
 12 13  2  0  0  0
 12 97  1  0  0  0
 13 14  1  0  0  0
 13 31  1  0  0  0
 14 15  2  0  0  0
 14 98  1  0  0  0
 15 99  1  0  0  0
 16 17  2  0  0  0
 16 21  1  0  0  0
 16 31  1  0  0  0
 17 18  1  0  0  0
 17100  1  0  0  0
 18 19  2  0  0  0
 18101  1  0  0  0
 19 20  1  0  0  0
 19 24  1  0  0  0
 20 21  2  0  0  0
 20102  1  0  0  0
 21 23  1  0  0  0
 22 28  1  0  0  0
 22 32  2  0  0  0
 26 27  1  0  0  0
 28103  1  0  0  0
 28104  1  0  0  0
 29105  1  0  0  0
 29106  1  0  0  0
 33 34  1  0  0  0
 33 66  1  0  0  0
 33 70  2  0  0  0
 34 36  1  0  0  0
 34 59  1  0  0  0
 34107  1  0  0  0
 35 44  2  0  0  0
 35 45  1  0  0  0
 35 68  1  0  0  0
 36 56  1  0  0  0
 36108  1  0  0  0
 37 39  1  0  0  0
 37 47  1  0  0  0
 37 66  1  0  0  0
 37109  1  0  0  0
 38 43  2  0  0  0
 38 46  1  0  0  0
 38 47  1  0  0  0
 39 64  1  0  0  0
 39 67  2  0  0  0
 40 52  1  0  0  0
 40 53  2  0  0  0
 40 58  1  0  0  0
 41110  1  0  0  0
 41111  1  0  0  0
 41112  1  0  0  0
 41 48  1  0  0  0
 42 43  1  0  0  0
 42 66  1  0  0  0
 42113  1  0  0  0
 42114  1  0  0  0
 43 44  1  0  0  0
 44115  1  0  0  0
 45 46  2  0  0  0
 45116  1  0  0  0
 46117  1  0  0  0
 47118  1  0  0  0
 47119  1  0  0  0
 48 56  1  0  0  0
 48 65  1  0  0  0
 48120  1  0  0  0
 49 50  1  0  0  0
 49 53  1  0  0  0
 49 64  1  0  0  0
 49121  1  0  0  0
 50 51  1  0  0  0
 50122  1  0  0  0
 50123  1  0  0  0
 51 52  1  0  0  0
 51124  1  0  0  0
 51125  1  0  0  0
 52126  1  0  0  0
 52127  1  0  0  0
 53 54  1  0  0  0
 54 55  2  0  0  0
 54128  1  0  0  0
 55 57  1  0  0  0
 55129  1  0  0  0
 56 69  2  0  0  0
 57 58  2  0  0  0
 57130  1  0  0  0
 58131  1  0  0  0
 59 60  1  0  0  0
 59 61  1  0  0  0
 59 62  1  0  0  0
 60132  1  0  0  0
 60133  1  0  0  0
 60134  1  0  0  0
 61135  1  0  0  0
 61136  1  0  0  0
 61137  1  0  0  0
 62138  1  0  0  0
 62139  1  0  0  0
 62140  1  0  0  0
 63 65  1  0  0  0
 63141  1  0  0  0
 63142  1  0  0  0
 63143  1  0  0  0
 64144  1  0  0  0
 65145  1  0  0  0
 68 83  1  0  0  0
 71 72  2  0  0  0
 71 74  1  0  0  0
 71146  1  0  0  0
 72 75  1  0  0  0
 72147  1  0  0  0
 73 74  2  0  0  0
 73 76  1  0  0  0
 73148  1  0  0  0
 74 80  1  0  0  0
 75 76  2  0  0  0
 75 81  1  0  0  0
 76 86  1  0  0  0
 77149  1  0  0  0
 77150  1  0  0  0
 77151  1  0  0  0
 77 83  1  0  0  0
 78 84  1  0  0  0
 78152  1  0  0  0
 78153  1  0  0  0
 78154  1  0  0  0
 79155  1  0  0  0
 79156  1  0  0  0
 79157  1  0  0  0
 79 85  1  0  0  0
 80 84  1  0  0  0
 80158  1  0  0  0
 80159  1  0  0  0
 81 85  1  0  0  0
 81160  1  0  0  0
 81161  1  0  0  0
 82 83  1  0  0  0
 82 85  1  0  0  0
 82162  1  0  0  0
 82163  1  0  0  0
 83164  1  0  0  0
 85165  1  0  0  0
M  CHG  1  85   1
M  ISO  4   1 100  68 101  83 101  84 100
M  END
> <chiral flag>
0

> <version>
0

> <s_m_source_file>
/data/baiqing/PycharmProjects/Reinvent-master-3.2/result/LINK_invent/BTK/process_docking_weight1_custom_product_contain_oxygen_bond_distance_aromatic_linkinvent_7_9_3/rearranged_h_0014.sdf

> <i_m_source_file_index>
34

> <r_mmod_Potential_Energy-OPLS-2005>
-31.9849433898926

> <r_mmod_Stretch_Energy-OPLS-2005>
41.9959678649902

> <r_mmod_Bend_Energy-OPLS-2005>
105.939109802246

> <r_mmod_Torsional_Energy-OPLS-2005>
280.417694091797

> <r_mmod_Improper_Torsional_Energy-OPLS-2005>
8.01620292663574

> <r_mmod_Van_der_Waal_Energy-OPLS-2005>
153.250427246094

> <r_mmod_Electrostatic_Energy-OPLS-2005>
-228.360885620117

> <r_mmod_Solvation_Energy-OPLS-2005>
-406.544311523438

> <b_mmod_Minimization_Converged-OPLS-2005>
0

> <r_mmod_RMS_Derivative-OPLS-2005>
1.49375975131989

$$$$
34
                    3D
 Structure written by MMmdl.
166175  0  0  1  0            999 V2000
  -30.6543  -14.6860   20.5607 C   0  0  0  0  0  0
  -30.4245  -12.4464   19.4641 C   0  0  0  0  0  0
  -29.5075  -12.5400   18.2244 C   0  0  0  0  0  0
  -28.0291  -12.3615   18.6190 C   0  0  0  0  0  0
  -27.6444  -13.2269   19.8452 C   0  0  2  0  0  0
  -28.6759  -13.0968   20.9788 C   0  0  0  0  0  0
  -25.2543  -13.8155   20.5654 C   0  0  0  0  0  0
  -24.1835  -13.0423   20.9161 C   0  0  0  0  0  0
  -24.6412  -11.6891   20.8704 C   0  0  0  0  0  0
  -23.9068  -10.4280   21.0390 C   0  0  0  0  0  0
  -24.3601   -9.4211   21.9194 C   0  0  0  0  0  0
  -23.6276   -8.2256   22.0774 C   0  0  0  0  0  0
  -22.4258   -8.0284   21.3555 C   0  0  0  0  0  0
  -21.9890   -9.0249   20.4653 C   0  0  0  0  0  0
  -22.7239  -10.2127   20.3058 C   0  0  0  0  0  0
  -21.6866   -6.0735   22.5265 C   0  0  0  0  0  0
  -21.4030   -6.5644   23.8195 C   0  0  0  0  0  0
  -21.3656   -5.6790   24.9157 C   0  0  0  0  0  0
  -21.6027   -4.3054   24.7215 C   0  0  0  0  0  0
  -21.8818   -3.8150   23.4335 C   0  0  0  0  0  0
  -21.9207   -4.6963   22.3397 C   0  0  0  0  0  0
  -22.7867  -13.5236   21.1843 C   0  0  0  0  0  0
  -22.1673   -4.2147   21.0981 F   0  0  0  0  0  0
  -21.5613   -3.4554   25.7738 F   0  0  0  0  0  0
  -29.9953  -13.4746   20.4463 N   0  0  0  0  0  0
  -26.2941  -12.9353   20.3176 N   0  0  0  0  0  0
  -25.9325  -11.6490   20.5629 N   0  0  0  0  0  0
  -22.0525  -12.8214   22.0378 N   0  0  0  0  0  0
  -25.4286  -15.1876   20.4128 N   0  0  0  0  0  0
  -31.7842  -14.8020   20.0713 O   0  0  0  0  0  0
  -21.6644   -6.8867   21.4229 O   0  0  0  0  0  0
  -22.3568  -14.5582   20.6739 O   0  0  0  0  0  0
  -24.6276  -31.8560   23.1960 C   0  0  0  0  0  0
  -25.9131  -32.4732   23.8301 C   0  0  1  0  0  0
  -27.2146  -27.2776   20.1243 C   0  0  0  0  0  0
  -25.5944  -33.8538   24.2253 N   0  0  0  0  0  0
  -23.4182  -30.4791   21.5394 C   0  0  2  0  0  0
  -24.8648  -28.9197   20.1041 C   0  0  0  0  0  0
  -22.7453  -29.4590   22.4904 C   0  0  0  0  0  0
  -18.0274  -28.1345   22.8466 C   0  0  0  0  0  0
  -24.1497  -36.7300   23.2621 C   0  0  0  0  0  0
  -25.9587  -30.7731   21.3675 C   0  0  0  0  0  0
  -26.0311  -29.3932   20.7174 C   0  0  0  0  0  0
  -27.2047  -28.5813   20.7195 C   0  0  0  0  0  0
  -26.0314  -26.8579   19.4828 C   0  0  0  0  0  0
  -24.8703  -27.6605   19.4800 C   0  0  0  0  0  0
  -23.6350  -29.8105   20.1522 C   0  0  0  0  0  0
  -25.4115  -36.3066   24.0309 C   0  0  1  0  0  0
  -20.5871  -28.3662   23.1267 C   0  0  2  0  0  0
  -20.6767  -26.9378   22.5393 C   0  0  0  0  0  0
  -19.5757  -26.6355   21.5167 C   0  0  0  0  0  0
  -18.1930  -26.7895   22.1570 C   0  0  0  0  0  0
  -19.1533  -28.8813   23.2865 C   0  0  0  0  0  0
  -18.9457  -30.1419   23.8879 C   0  0  0  0  0  0
  -17.6471  -30.6559   24.0554 C   0  0  0  0  0  0
  -25.9060  -34.9419   23.5083 C   0  0  0  0  0  0
  -16.5357  -29.9067   23.6325 C   0  0  0  0  0  0
  -16.7257  -28.6484   23.0331 C   0  0  0  0  0  0
  -26.4509  -31.6543   25.0686 C   0  0  0  0  0  0
  -25.3731  -31.3666   26.1422 C   0  0  0  0  0  0
  -27.0312  -30.2951   24.6137 C   0  0  0  0  0  0
  -27.6106  -32.4238   25.7439 C   0  0  0  0  0  0
  -27.5567  -37.1800   24.8450 C   0  0  0  0  0  0
  -21.4169  -29.3033   22.3672 N   0  0  0  0  0  0
  -26.4283  -37.3769   23.9398 N   0  0  0  0  0  0
  -24.6874  -31.0541   22.0919 N   0  0  0  0  0  0
  -23.4177  -28.8139   23.2998 O   0  0  0  0  0  0
  -28.3422  -26.4439   20.2202 O   0  0  0  0  0  0
  -26.5592  -34.8867   22.4637 O   0  0  0  0  0  0
  -23.5456  -32.1390   23.7310 O   0  0  0  0  0  0
  -29.9710  -14.8285   23.4230 C   0  0  0  0  0  0
  -29.5197  -14.8668   24.7550 C   0  0  0  0  0  0
  -28.3318  -16.9350   24.2861 C   0  0  0  0  0  0
  -28.7599  -16.8973   22.9391 C   0  0  0  0  0  0
  -29.5753  -15.8212   22.4860 C   0  0  0  0  0  0
  -28.6988  -15.9203   25.1876 C   0  0  0  0  0  0
  -28.2832  -18.0205   22.0189 C   0  0  0  0  0  0
  -30.2950  -17.2085   20.6083 C   0  0  0  0  0  0
  -29.1304  -18.3026   20.7543 C   0  0  2  0  0  0
  -27.2464  -20.5836   19.8804 C   0  0  0  0  0  0
  -29.5425  -19.8731   20.6032 C   0  0  0  0  0  0
  -28.0734  -23.7084   20.4258 C   0  0  0  0  0  0
  -28.9583  -22.3832   20.1297 C   0  0  0  0  0  0
  -28.4565  -25.0698   19.6491 C   0  0  0  0  0  0
  -30.0258  -15.8044   21.1229 N   0  0  0  0  0  0
  -28.4803  -20.9949   20.5950 N   0  3  1  0  0  0
  -28.2724  -15.9583   26.4712 F   0  0  0  0  0  0
  -31.4649  -12.5620   19.1635 H   0  0  0  0  0  0
  -30.3595  -11.4516   19.9059 H   0  0  0  0  0  0
  -29.6412  -13.5054   17.7323 H   0  0  0  0  0  0
  -29.7892  -11.7858   17.4870 H   0  0  0  0  0  0
  -27.8660  -11.3049   18.8370 H   0  0  0  0  0  0
  -27.3803  -12.5980   17.7742 H   0  0  0  0  0  0
  -27.6578  -14.2667   19.5115 H   0  0  0  0  0  0
  -28.7045  -12.0770   21.3642 H   0  0  0  0  0  0
  -28.3415  -13.7063   21.8122 H   0  0  0  0  0  0
  -25.2735   -9.5698   22.4770 H   0  0  0  0  0  0
  -23.9989   -7.4645   22.7498 H   0  0  0  0  0  0
  -21.0832   -8.8773   19.8946 H   0  0  0  0  0  0
  -22.3699  -10.9670   19.6163 H   0  0  0  0  0  0
  -21.2039   -7.6152   23.9703 H   0  0  0  0  0  0
  -21.1476   -6.0529   25.9058 H   0  0  0  0  0  0
  -22.0606   -2.7621   23.2845 H   0  0  0  0  0  0
  -22.4097  -11.9824   22.4692 H   0  0  0  0  0  0
  -21.1141  -13.1241   22.2583 H   0  0  0  0  0  0
  -24.6641  -15.8413   20.5263 H   0  0  0  0  0  0
  -26.2869  -15.6271   20.1107 H   0  0  0  0  0  0
  -26.7173  -32.5392   23.1017 H   0  0  0  0  0  0
  -25.0188  -33.9707   25.0468 H   0  0  0  0  0  0
  -22.7099  -31.2977   21.3924 H   0  0  0  0  0  0
  -23.3746  -35.9648   23.3302 H   0  0  0  0  0  0
  -24.3606  -36.8917   22.2029 H   0  0  0  0  0  0
  -23.7240  -37.6494   23.6673 H   0  0  0  0  0  0
  -26.0752  -31.5237   20.5848 H   0  0  0  0  0  0
  -26.8442  -30.8366   21.9871 H   0  0  0  0  0  0
  -28.0980  -28.9347   21.2179 H   0  0  0  0  0  0
  -25.9683  -25.8870   19.0113 H   0  0  0  0  0  0
  -23.9725  -27.2937   19.0021 H   0  0  0  0  0  0
  -23.7611  -30.5906   19.3995 H   0  0  0  0  0  0
  -22.7463  -29.2500   19.8534 H   0  0  0  0  0  0
  -25.1284  -36.1913   25.0792 H   0  0  0  0  0  0
  -20.9954  -28.3264   24.1386 H   0  0  0  0  0  0
  -20.5600  -26.2278   23.3609 H   0  0  0  0  0  0
  -21.6661  -26.7354   22.1227 H   0  0  0  0  0  0
  -19.6948  -25.6256   21.1218 H   0  0  0  0  0  0
  -19.6743  -27.3163   20.6705 H   0  0  0  0  0  0
  -17.4212  -26.6624   21.3970 H   0  0  0  0  0  0
  -18.0348  -26.0004   22.8935 H   0  0  0  0  0  0
  -19.7945  -30.7229   24.2243 H   0  0  0  0  0  0
  -17.5032  -31.6252   24.5143 H   0  0  0  0  0  0
  -15.5365  -30.2969   23.7663 H   0  0  0  0  0  0
  -15.8651  -28.0824   22.7021 H   0  0  0  0  0  0
  -24.6109  -30.6725   25.7862 H   0  0  0  0  0  0
  -24.8645  -32.2761   26.4631 H   0  0  0  0  0  0
  -25.8104  -30.9120   27.0324 H   0  0  0  0  0  0
  -26.2853  -29.6702   24.1201 H   0  0  0  0  0  0
  -27.4042  -29.7216   25.4636 H   0  0  0  0  0  0
  -27.8736  -30.4198   23.9320 H   0  0  0  0  0  0
  -27.2840  -33.3671   26.1832 H   0  0  0  0  0  0
  -28.4045  -32.6530   25.0314 H   0  0  0  0  0  0
  -28.0612  -31.8399   26.5478 H   0  0  0  0  0  0
  -28.2578  -38.0104   24.7522 H   0  0  0  0  0  0
  -28.1064  -36.2626   24.6289 H   0  0  0  0  0  0
  -27.2298  -37.1479   25.8854 H   0  0  0  0  0  0
  -20.9334  -29.8794   21.6924 H   0  0  0  0  0  0
  -26.0166  -38.2841   24.1436 H   0  0  0  0  0  0
  -30.6211  -14.0114   23.1444 H   0  0  0  0  0  0
  -29.8077  -14.0892   25.4476 H   0  0  0  0  0  0
  -27.7075  -17.7458   24.6340 H   0  0  0  0  0  0
  -28.1974  -18.9321   22.6093 H   0  0  0  0  0  0
  -27.2639  -17.7698   21.7163 H   0  0  0  0  0  0
  -31.1655  -17.5706   21.1593 H   0  0  0  0  0  0
  -30.6150  -17.1668   19.5659 H   0  0  0  0  0  0
  -28.4776  -18.0858   19.9079 H   0  0  0  0  0  0
  -26.7878  -19.7176   20.3538 H   0  0  0  0  0  0
  -27.4653  -20.3389   18.8395 H   0  0  0  0  0  0
  -26.4839  -21.3614   19.8947 H   0  0  0  0  0  0
  -30.1278  -19.9743   19.6881 H   0  0  0  0  0  0
  -30.2363  -20.1153   21.4080 H   0  0  0  0  0  0
  -28.0865  -23.8896   21.5006 H   0  0  0  0  0  0
  -27.0301  -23.4972   20.1927 H   0  0  0  0  0  0
  -29.9382  -22.5564   20.5792 H   0  0  0  0  0  0
  -29.1310  -22.3226   19.0535 H   0  0  0  0  0  0
  -28.0213  -25.0517   18.6486 H   0  0  0  0  0  0
  -29.5259  -24.9900   19.4537 H   0  0  0  0  0  0
  -28.2114  -21.1086   21.5620 H   0  0  0  0  0  0
  1 25  1  0  0  0
  1 30  2  0  0  0
  1 85  1  0  0  0
  2  3  1  0  0  0
  2 25  1  0  0  0
  2 88  1  0  0  0
  2 89  1  0  0  0
  3  4  1  0  0  0
  3 90  1  0  0  0
  3 91  1  0  0  0
  4  5  1  0  0  0
  4 92  1  0  0  0
  4 93  1  0  0  0
  5  6  1  0  0  0
  5 26  1  0  0  0
  5 94  1  0  0  0
  6 25  1  0  0  0
  6 95  1  0  0  0
  6 96  1  0  0  0
  7  8  2  0  0  0
  7 26  1  0  0  0
  7 29  1  0  0  0
  8  9  1  0  0  0
  8 22  1  0  0  0
  9 10  1  0  0  0
  9 27  2  0  0  0
 10 11  2  0  0  0
 10 15  1  0  0  0
 11 12  1  0  0  0
 11 97  1  0  0  0
 12 13  2  0  0  0
 12 98  1  0  0  0
 13 14  1  0  0  0
 13 31  1  0  0  0
 14 15  2  0  0  0
 14 99  1  0  0  0
 15100  1  0  0  0
 16 17  2  0  0  0
 16 21  1  0  0  0
 16 31  1  0  0  0
 17 18  1  0  0  0
 17101  1  0  0  0
 18 19  2  0  0  0
 18102  1  0  0  0
 19 20  1  0  0  0
 19 24  1  0  0  0
 20 21  2  0  0  0
 20103  1  0  0  0
 21 23  1  0  0  0
 22 28  1  0  0  0
 22 32  2  0  0  0
 26 27  1  0  0  0
 28104  1  0  0  0
 28105  1  0  0  0
 29106  1  0  0  0
 29107  1  0  0  0
 33 34  1  0  0  0
 33 66  1  0  0  0
 33 70  2  0  0  0
 34 36  1  0  0  0
 34 59  1  0  0  0
 34108  1  0  0  0
 35 44  2  0  0  0
 35 45  1  0  0  0
 35 68  1  0  0  0
 36 56  1  0  0  0
 36109  1  0  0  0
 37 39  1  0  0  0
 37 47  1  0  0  0
 37 66  1  0  0  0
 37110  1  0  0  0
 38 43  2  0  0  0
 38 46  1  0  0  0
 38 47  1  0  0  0
 39 64  1  0  0  0
 39 67  2  0  0  0
 40 52  1  0  0  0
 40 53  2  0  0  0
 40 58  1  0  0  0
 41111  1  0  0  0
 41112  1  0  0  0
 41113  1  0  0  0
 41 48  1  0  0  0
 42 43  1  0  0  0
 42 66  1  0  0  0
 42114  1  0  0  0
 42115  1  0  0  0
 43 44  1  0  0  0
 44116  1  0  0  0
 45 46  2  0  0  0
 45117  1  0  0  0
 46118  1  0  0  0
 47119  1  0  0  0
 47120  1  0  0  0
 48 56  1  0  0  0
 48 65  1  0  0  0
 48121  1  0  0  0
 49 50  1  0  0  0
 49 53  1  0  0  0
 49 64  1  0  0  0
 49122  1  0  0  0
 50 51  1  0  0  0
 50123  1  0  0  0
 50124  1  0  0  0
 51 52  1  0  0  0
 51125  1  0  0  0
 51126  1  0  0  0
 52127  1  0  0  0
 52128  1  0  0  0
 53 54  1  0  0  0
 54 55  2  0  0  0
 54129  1  0  0  0
 55 57  1  0  0  0
 55130  1  0  0  0
 56 69  2  0  0  0
 57 58  2  0  0  0
 57131  1  0  0  0
 58132  1  0  0  0
 59 60  1  0  0  0
 59 61  1  0  0  0
 59 62  1  0  0  0
 60133  1  0  0  0
 60134  1  0  0  0
 60135  1  0  0  0
 61136  1  0  0  0
 61137  1  0  0  0
 61138  1  0  0  0
 62139  1  0  0  0
 62140  1  0  0  0
 62141  1  0  0  0
 63 65  1  0  0  0
 63142  1  0  0  0
 63143  1  0  0  0
 63144  1  0  0  0
 64145  1  0  0  0
 65146  1  0  0  0
 68 84  1  0  0  0
 71 72  2  0  0  0
 71 75  1  0  0  0
 71147  1  0  0  0
 72 76  1  0  0  0
 72148  1  0  0  0
 73 74  1  0  0  0
 73 76  2  0  0  0
 73149  1  0  0  0
 74 75  2  0  0  0
 74 77  1  0  0  0
 75 85  1  0  0  0
 76 87  1  0  0  0
 77 79  1  0  0  0
 77150  1  0  0  0
 77151  1  0  0  0
 78 79  1  0  0  0
 78 85  1  0  0  0
 78152  1  0  0  0
 78153  1  0  0  0
 79 81  1  0  0  0
 79154  1  0  0  0
 80155  1  0  0  0
 80156  1  0  0  0
 80157  1  0  0  0
 80 86  1  0  0  0
 81 86  1  0  0  0
 81158  1  0  0  0
 81159  1  0  0  0
 82 83  1  0  0  0
 82 84  1  0  0  0
 82160  1  0  0  0
 82161  1  0  0  0
 83 86  1  0  0  0
 83162  1  0  0  0
 83163  1  0  0  0
 84164  1  0  0  0
 84165  1  0  0  0
 86166  1  0  0  0
M  CHG  1  86   1
M  ISO  4   1 100  68 101  84 101  85 100
M  END
> <chiral flag>
0

> <version>
0

> <s_m_source_file>
/data/baiqing/PycharmProjects/Reinvent-master-3.2/result/LINK_invent/BTK/process_docking_weight1_custom_product_contain_oxygen_bond_distance_aromatic_linkinvent_7_9_3/rearranged_h_0014.sdf

> <i_m_source_file_index>
35

> <r_mmod_Potential_Energy-OPLS-2005>
198.086776733398

> <r_mmod_Stretch_Energy-OPLS-2005>
123.579811096191

> <r_mmod_Bend_Energy-OPLS-2005>
195.287857055664

> <r_mmod_Torsional_Energy-OPLS-2005>
275.757568359375

> <r_mmod_Improper_Torsional_Energy-OPLS-2005>
4.31147384643555

> <r_mmod_Van_der_Waal_Energy-OPLS-2005>
149.143936157227

> <r_mmod_Electrostatic_Energy-OPLS-2005>
-164.49951171875

> <r_mmod_Solvation_Energy-OPLS-2005>
-448.210021972656

> <b_mmod_Minimization_Converged-OPLS-2005>
0

> <r_mmod_RMS_Derivative-OPLS-2005>
4.55502367019653

$$$$
35
                    3D
 Structure written by MMmdl.
155163  0  0  1  0            999 V2000
  -30.6007  -14.6594   20.5107 C   0  0  0  0  0  0
  -30.4512  -12.4055   19.4539 C   0  0  0  0  0  0
  -29.5146  -12.5064   18.2272 C   0  0  0  0  0  0
  -28.0344  -12.3508   18.6348 C   0  0  0  0  0  0
  -27.6579  -13.2149   19.8665 C   0  0  2  0  0  0
  -28.7039  -13.0480   20.9922 C   0  0  0  0  0  0
  -25.2575  -13.8169   20.5692 C   0  0  0  0  0  0
  -24.1836  -13.0439   20.9205 C   0  0  0  0  0  0
  -24.6398  -11.6904   20.8739 C   0  0  0  0  0  0
  -23.9065  -10.4289   21.0411 C   0  0  0  0  0  0
  -24.3612   -9.4206   21.9197 C   0  0  0  0  0  0
  -23.6286   -8.2243   22.0757 C   0  0  0  0  0  0
  -22.4274   -8.0280   21.3542 C   0  0  0  0  0  0
  -21.9918   -9.0251   20.4640 C   0  0  0  0  0  0
  -22.7241  -10.2133   20.3052 C   0  0  0  0  0  0
  -21.6854   -6.0740   22.5284 C   0  0  0  0  0  0
  -21.4003   -6.5640   23.8216 C   0  0  0  0  0  0
  -21.3658   -5.6793   24.9173 C   0  0  0  0  0  0
  -21.6051   -4.3059   24.7226 C   0  0  0  0  0  0
  -21.8818   -3.8153   23.4346 C   0  0  0  0  0  0
  -21.9186   -4.6968   22.3402 C   0  0  0  0  0  0
  -22.7852  -13.5233   21.1869 C   0  0  0  0  0  0
  -22.1659   -4.2155   21.0980 F   0  0  0  0  0  0
  -21.5635   -3.4541   25.7743 F   0  0  0  0  0  0
  -30.0206  -13.4161   20.4397 N   0  0  0  0  0  0
  -26.3006  -12.9340   20.3324 N   0  0  0  0  0  0
  -25.9322  -11.6500   20.5745 N   0  0  0  0  0  0
  -22.0478  -12.8207   22.0402 N   0  0  0  0  0  0
  -25.4317  -15.1891   20.4118 N   0  0  0  0  0  0
  -31.7390  -14.8677   20.0782 O   0  0  0  0  0  0
  -21.6630   -6.8882   21.4241 O   0  0  0  0  0  0
  -22.3546  -14.5554   20.6743 O   0  0  0  0  0  0
  -24.6260  -31.8594   23.1983 C   0  0  0  0  0  0
  -25.9106  -32.4773   23.8329 C   0  0  1  0  0  0
  -27.2375  -27.3212   20.1213 C   0  0  0  0  0  0
  -25.5933  -33.8571   24.2260 N   0  0  0  0  0  0
  -23.4200  -30.4771   21.5432 C   0  0  2  0  0  0
  -24.8691  -28.9228   20.1159 C   0  0  0  0  0  0
  -22.7491  -29.4591   22.4953 C   0  0  0  0  0  0
  -18.0281  -28.1376   22.8464 C   0  0  0  0  0  0
  -24.1495  -36.7286   23.2642 C   0  0  0  0  0  0
  -25.9575  -30.7916   21.3646 C   0  0  0  0  0  0
  -26.0370  -29.4137   20.7147 C   0  0  0  0  0  0
  -27.2251  -28.6255   20.7017 C   0  0  0  0  0  0
  -26.0457  -26.8669   19.5175 C   0  0  0  0  0  0
  -24.8743  -27.6535   19.5117 C   0  0  0  0  0  0
  -23.6348  -29.8037   20.1606 C   0  0  0  0  0  0
  -25.4120  -36.3071   24.0336 C   0  0  1  0  0  0
  -20.5883  -28.3674   23.1298 C   0  0  2  0  0  0
  -20.6772  -26.9403   22.5412 C   0  0  0  0  0  0
  -19.5756  -26.6389   21.5197 C   0  0  0  0  0  0
  -18.1923  -26.7920   22.1602 C   0  0  0  0  0  0
  -19.1540  -28.8845   23.2861 C   0  0  0  0  0  0
  -18.9463  -30.1445   23.8876 C   0  0  0  0  0  0
  -17.6464  -30.6576   24.0562 C   0  0  0  0  0  0
  -25.9070  -34.9444   23.5107 C   0  0  0  0  0  0
  -16.5352  -29.9078   23.6333 C   0  0  0  0  0  0
  -16.7269  -28.6504   23.0334 C   0  0  0  0  0  0
  -26.4486  -31.6576   25.0701 C   0  0  0  0  0  0
  -25.3709  -31.3697   26.1423 C   0  0  0  0  0  0
  -27.0320  -30.3020   24.6087 C   0  0  0  0  0  0
  -27.6068  -32.4294   25.7456 C   0  0  0  0  0  0
  -27.5575  -37.1785   24.8464 C   0  0  0  0  0  0
  -21.4199  -29.3018   22.3696 N   0  0  0  0  0  0
  -26.4284  -37.3776   23.9415 N   0  0  0  0  0  0
  -24.6860  -31.0600   22.0935 N   0  0  0  0  0  0
  -23.4201  -28.8138   23.3038 O   0  0  0  0  0  0
  -28.3806  -26.5124   20.0894 O   0  0  0  0  0  0
  -26.5632  -34.8916   22.4665 O   0  0  0  0  0  0
  -23.5432  -32.1414   23.7317 O   0  0  0  0  0  0
  -28.5154  -17.6675   21.4869 C   0  0  0  0  0  0
  -30.4958  -18.0347   20.1930 C   0  0  0  0  0  0
  -28.2108  -19.0502   21.4250 C   0  0  0  0  0  0
  -30.1882  -19.4452   20.1456 C   0  0  0  0  0  0
  -29.6544  -17.1020   20.8710 C   0  0  0  0  0  0
  -29.0253  -20.0137   20.7608 C   0  0  0  0  0  0
  -27.6177  -21.7905   21.7330 C   0  0  0  0  0  0
  -28.6791  -23.8911   19.6836 C   0  0  0  0  0  0
  -29.4382  -22.5726   20.2241 C   0  0  0  0  0  0
  -28.3274  -25.1320   20.6261 C   0  0  0  0  0  0
  -29.7814  -15.6443   20.9974 N   0  0  0  0  0  0
  -28.6348  -21.4194   20.7467 N   0  0  0  0  0  0
  -31.4897  -12.5457   19.1515 H   0  0  0  0  0  0
  -30.4031  -11.4081   19.8931 H   0  0  0  0  0  0
  -29.7759  -11.7426   17.4926 H   0  0  0  0  0  0
  -29.6619  -13.4677   17.7325 H   0  0  0  0  0  0
  -27.8648  -11.2978   18.8600 H   0  0  0  0  0  0
  -27.3846  -12.5867   17.7919 H   0  0  0  0  0  0
  -27.6802  -14.2543   19.5371 H   0  0  0  0  0  0
  -28.7193  -12.0135   21.3379 H   0  0  0  0  0  0
  -28.4392  -13.6410   21.8683 H   0  0  0  0  0  0
  -25.2749   -9.5688   22.4779 H   0  0  0  0  0  0
  -23.9996   -7.4630   22.7477 H   0  0  0  0  0  0
  -21.0860   -8.8765   19.8933 H   0  0  0  0  0  0
  -22.3710  -10.9668   19.6160 H   0  0  0  0  0  0
  -21.1988   -7.6149   23.9721 H   0  0  0  0  0  0
  -21.1485   -6.0524   25.9083 H   0  0  0  0  0  0
  -22.0598   -2.7612   23.2845 H   0  0  0  0  0  0
  -22.4057  -11.9841   22.4768 H   0  0  0  0  0  0
  -21.1089  -13.1227   22.2587 H   0  0  0  0  0  0
  -24.6701  -15.8491   20.5206 H   0  0  0  0  0  0
  -26.2824  -15.6195   20.0716 H   0  0  0  0  0  0
  -26.7189  -32.5465   23.1096 H   0  0  0  0  0  0
  -25.0030  -33.9692   25.0368 H   0  0  0  0  0  0
  -22.7135  -31.2963   21.3973 H   0  0  0  0  0  0
  -23.3754  -35.9622   23.3292 H   0  0  0  0  0  0
  -24.3575  -36.8924   22.2057 H   0  0  0  0  0  0
  -23.7249  -37.6484   23.6675 H   0  0  0  0  0  0
  -26.0721  -31.5492   20.5889 H   0  0  0  0  0  0
  -26.8443  -30.8558   21.9826 H   0  0  0  0  0  0
  -28.1276  -29.0009   21.1656 H   0  0  0  0  0  0
  -26.0212  -25.8947   19.0455 H   0  0  0  0  0  0
  -23.9775  -27.2697   19.0449 H   0  0  0  0  0  0
  -23.7497  -30.5775   19.4005 H   0  0  0  0  0  0
  -22.7558  -29.2282   19.8629 H   0  0  0  0  0  0
  -25.1278  -36.1927   25.0831 H   0  0  0  0  0  0
  -20.9942  -28.3244   24.1435 H   0  0  0  0  0  0
  -20.5703  -26.2270   23.3590 H   0  0  0  0  0  0
  -21.6643  -26.7460   22.1189 H   0  0  0  0  0  0
  -19.6947  -25.6312   21.1198 H   0  0  0  0  0  0
  -19.6718  -27.3235   20.6746 H   0  0  0  0  0  0
  -17.4208  -26.6678   21.3983 H   0  0  0  0  0  0
  -18.0313  -26.0058   22.9004 H   0  0  0  0  0  0
  -19.7957  -30.7237   24.2257 H   0  0  0  0  0  0
  -17.5037  -31.6266   24.5156 H   0  0  0  0  0  0
  -15.5357  -30.2963   23.7690 H   0  0  0  0  0  0
  -15.8662  -28.0823   22.7040 H   0  0  0  0  0  0
  -24.5937  -30.6985   25.7729 H   0  0  0  0  0  0
  -24.8831  -32.2861   26.4777 H   0  0  0  0  0  0
  -25.8047  -30.8930   27.0231 H   0  0  0  0  0  0
  -26.2861  -29.6777   24.1157 H   0  0  0  0  0  0
  -27.4111  -29.7260   25.4531 H   0  0  0  0  0  0
  -27.8693  -30.4322   23.9221 H   0  0  0  0  0  0
  -27.2712  -33.3647   26.1945 H   0  0  0  0  0  0
  -28.3917  -32.6759   25.0287 H   0  0  0  0  0  0
  -28.0679  -31.8456   26.5433 H   0  0  0  0  0  0
  -28.2568  -38.0096   24.7499 H   0  0  0  0  0  0
  -28.1085  -36.2621   24.6293 H   0  0  0  0  0  0
  -27.2279  -37.1427   25.8859 H   0  0  0  0  0  0
  -20.9396  -29.8721   21.6873 H   0  0  0  0  0  0
  -26.0169  -38.2850   24.1444 H   0  0  0  0  0  0
  -27.8315  -17.0273   22.0263 H   0  0  0  0  0  0
  -31.3877  -17.6819   19.6942 H   0  0  0  0  0  0
  -27.2975  -19.3390   21.9206 H   0  0  0  0  0  0
  -30.8709  -20.0909   19.6137 H   0  0  0  0  0  0
  -27.8441  -21.3717   22.7149 H   0  0  0  0  0  0
  -26.6336  -21.4367   21.4220 H   0  0  0  0  0  0
  -27.5414  -22.8668   21.8730 H   0  0  0  0  0  0
  -27.7878  -23.6032   19.1247 H   0  0  0  0  0  0
  -29.3478  -24.3025   18.9275 H   0  0  0  0  0  0
  -30.1784  -22.8608   20.9723 H   0  0  0  0  0  0
  -30.0211  -22.1897   19.3862 H   0  0  0  0  0  0
  -29.0468  -25.1259   21.4447 H   0  0  0  0  0  0
  -27.3622  -24.9570   21.1003 H   0  0  0  0  0  0
  -28.9737  -15.2234   21.4302 H   0  0  0  0  0  0
  1 25  1  0  0  0
  1 30  2  0  0  0
  1 81  1  0  0  0
  2  3  1  0  0  0
  2 25  1  0  0  0
  2 83  1  0  0  0
  2 84  1  0  0  0
  3  4  1  0  0  0
  3 85  1  0  0  0
  3 86  1  0  0  0
  4  5  1  0  0  0
  4 87  1  0  0  0
  4 88  1  0  0  0
  5  6  1  0  0  0
  5 26  1  0  0  0
  5 89  1  0  0  0
  6 25  1  0  0  0
  6 90  1  0  0  0
  6 91  1  0  0  0
  7  8  2  0  0  0
  7 26  1  0  0  0
  7 29  1  0  0  0
  8  9  1  0  0  0
  8 22  1  0  0  0
  9 10  1  0  0  0
  9 27  2  0  0  0
 10 11  2  0  0  0
 10 15  1  0  0  0
 11 12  1  0  0  0
 11 92  1  0  0  0
 12 13  2  0  0  0
 12 93  1  0  0  0
 13 14  1  0  0  0
 13 31  1  0  0  0
 14 15  2  0  0  0
 14 94  1  0  0  0
 15 95  1  0  0  0
 16 17  2  0  0  0
 16 21  1  0  0  0
 16 31  1  0  0  0
 17 18  1  0  0  0
 17 96  1  0  0  0
 18 19  2  0  0  0
 18 97  1  0  0  0
 19 20  1  0  0  0
 19 24  1  0  0  0
 20 21  2  0  0  0
 20 98  1  0  0  0
 21 23  1  0  0  0
 22 28  1  0  0  0
 22 32  2  0  0  0
 26 27  1  0  0  0
 28 99  1  0  0  0
 28100  1  0  0  0
 29101  1  0  0  0
 29102  1  0  0  0
 33 34  1  0  0  0
 33 66  1  0  0  0
 33 70  2  0  0  0
 34 36  1  0  0  0
 34 59  1  0  0  0
 34103  1  0  0  0
 35 44  2  0  0  0
 35 45  1  0  0  0
 35 68  1  0  0  0
 36 56  1  0  0  0
 36104  1  0  0  0
 37 39  1  0  0  0
 37 47  1  0  0  0
 37 66  1  0  0  0
 37105  1  0  0  0
 38 43  2  0  0  0
 38 46  1  0  0  0
 38 47  1  0  0  0
 39 64  1  0  0  0
 39 67  2  0  0  0
 40 52  1  0  0  0
 40 53  2  0  0  0
 40 58  1  0  0  0
 41106  1  0  0  0
 41107  1  0  0  0
 41108  1  0  0  0
 41 48  1  0  0  0
 42 43  1  0  0  0
 42 66  1  0  0  0
 42109  1  0  0  0
 42110  1  0  0  0
 43 44  1  0  0  0
 44111  1  0  0  0
 45 46  2  0  0  0
 45112  1  0  0  0
 46113  1  0  0  0
 47114  1  0  0  0
 47115  1  0  0  0
 48 56  1  0  0  0
 48 65  1  0  0  0
 48116  1  0  0  0
 49 50  1  0  0  0
 49 53  1  0  0  0
 49 64  1  0  0  0
 49117  1  0  0  0
 50 51  1  0  0  0
 50118  1  0  0  0
 50119  1  0  0  0
 51 52  1  0  0  0
 51120  1  0  0  0
 51121  1  0  0  0
 52122  1  0  0  0
 52123  1  0  0  0
 53 54  1  0  0  0
 54 55  2  0  0  0
 54124  1  0  0  0
 55 57  1  0  0  0
 55125  1  0  0  0
 56 69  2  0  0  0
 57 58  2  0  0  0
 57126  1  0  0  0
 58127  1  0  0  0
 59 60  1  0  0  0
 59 61  1  0  0  0
 59 62  1  0  0  0
 60128  1  0  0  0
 60129  1  0  0  0
 60130  1  0  0  0
 61131  1  0  0  0
 61132  1  0  0  0
 61133  1  0  0  0
 62134  1  0  0  0
 62135  1  0  0  0
 62136  1  0  0  0
 63 65  1  0  0  0
 63137  1  0  0  0
 63138  1  0  0  0
 63139  1  0  0  0
 64140  1  0  0  0
 65141  1  0  0  0
 68 80  1  0  0  0
 71 73  2  0  0  0
 71 75  1  0  0  0
 71142  1  0  0  0
 72 74  1  0  0  0
 72 75  2  0  0  0
 72143  1  0  0  0
 73 76  1  0  0  0
 73144  1  0  0  0
 74 76  2  0  0  0
 74145  1  0  0  0
 75 81  1  0  0  0
 76 82  1  0  0  0
 77 82  1  0  0  0
 77146  1  0  0  0
 77147  1  0  0  0
 77148  1  0  0  0
 78 79  1  0  0  0
 78 80  1  0  0  0
 78149  1  0  0  0
 78150  1  0  0  0
 79 82  1  0  0  0
 79151  1  0  0  0
 79152  1  0  0  0
 80153  1  0  0  0
 80154  1  0  0  0
 81155  1  0  0  0
M  ISO  4   1 100  68 101  80 101  81 100
M  END
> <chiral flag>
0

> <version>
0

> <s_m_source_file>
/data/baiqing/PycharmProjects/Reinvent-master-3.2/result/LINK_invent/BTK/process_docking_weight1_custom_product_contain_oxygen_bond_distance_aromatic_linkinvent_7_9_3/rearranged_h_0014.sdf

> <i_m_source_file_index>
36

> <r_mmod_Potential_Energy-OPLS-2005>
96.0075302124023

> <r_mmod_Stretch_Energy-OPLS-2005>
90.3139038085938

> <r_mmod_Bend_Energy-OPLS-2005>
187.635864257812

> <r_mmod_Torsional_Energy-OPLS-2005>
230.668258666992

> <r_mmod_Improper_Torsional_Energy-OPLS-2005>
4.55378293991089

> <r_mmod_Van_der_Waal_Energy-OPLS-2005>
145.405334472656

> <r_mmod_Electrostatic_Energy-OPLS-2005>
-383.672637939453

> <r_mmod_Solvation_Energy-OPLS-2005>
-227.081100463867

> <b_mmod_Minimization_Converged-OPLS-2005>
0

> <r_mmod_RMS_Derivative-OPLS-2005>
2.64921760559082

$$$$
36
                    3D
 Structure written by MMmdl.
159167  0  0  1  0            999 V2000
  -30.6520  -14.5428   20.6300 C   0  0  0  0  0  0
  -30.4349  -12.3810   19.4538 C   0  0  0  0  0  0
  -29.5197  -12.5747   18.2232 C   0  0  0  0  0  0
  -28.0334  -12.4112   18.6155 C   0  0  0  0  0  0
  -27.6598  -13.2183   19.8903 C   0  0  2  0  0  0
  -28.6921  -13.0090   21.0200 C   0  0  0  0  0  0
  -25.2503  -13.8167   20.5643 C   0  0  0  0  0  0
  -24.1814  -13.0477   20.9111 C   0  0  0  0  0  0
  -24.6370  -11.6933   20.8687 C   0  0  0  0  0  0
  -23.9076  -10.4336   21.0389 C   0  0  0  0  0  0
  -24.3614   -9.4232   21.9180 C   0  0  0  0  0  0
  -23.6279   -8.2271   22.0755 C   0  0  0  0  0  0
  -22.4300   -8.0259   21.3523 C   0  0  0  0  0  0
  -21.9911   -9.0260   20.4676 C   0  0  0  0  0  0
  -22.7237  -10.2142   20.3080 C   0  0  0  0  0  0
  -21.6849   -6.0733   22.5296 C   0  0  0  0  0  0
  -21.4010   -6.5622   23.8236 C   0  0  0  0  0  0
  -21.3676   -5.6767   24.9196 C   0  0  0  0  0  0
  -21.6055   -4.3034   24.7237 C   0  0  0  0  0  0
  -21.8823   -3.8130   23.4360 C   0  0  0  0  0  0
  -21.9186   -4.6954   22.3412 C   0  0  0  0  0  0
  -22.7852  -13.5273   21.1863 C   0  0  0  0  0  0
  -22.1650   -4.2117   21.0990 F   0  0  0  0  0  0
  -21.5646   -3.4542   25.7759 F   0  0  0  0  0  0
  -30.0232  -13.3417   20.4893 N   0  0  0  0  0  0
  -26.3026  -12.9413   20.3424 N   0  0  0  0  0  0
  -25.9298  -11.6580   20.5740 N   0  0  0  0  0  0
  -22.0494  -12.8265   22.0369 N   0  0  0  0  0  0
  -25.4099  -15.1948   20.4017 N   0  0  0  0  0  0
  -31.7265  -14.7959   20.0744 O   0  0  0  0  0  0
  -21.6642   -6.8891   21.4266 O   0  0  0  0  0  0
  -22.3503  -14.5601   20.6668 O   0  0  0  0  0  0
  -24.6209  -31.8681   23.2167 C   0  0  0  0  0  0
  -25.9091  -32.4863   23.8487 C   0  0  1  0  0  0
  -27.1500  -27.3193   20.1766 C   0  0  0  0  0  0
  -25.5995  -33.8675   24.2471 N   0  0  0  0  0  0
  -23.4026  -30.5077   21.5549 C   0  0  2  0  0  0
  -24.8420  -28.9708   20.1179 C   0  0  0  0  0  0
  -22.7336  -29.4785   22.5044 C   0  0  0  0  0  0
  -18.0051  -28.1504   22.8377 C   0  0  0  0  0  0
  -24.1484  -36.7357   23.2638 C   0  0  0  0  0  0
  -25.9492  -30.8117   21.3745 C   0  0  0  0  0  0
  -26.0085  -29.4328   20.7382 C   0  0  0  0  0  0
  -27.1662  -28.6114   20.7740 C   0  0  0  0  0  0
  -25.9640  -26.9132   19.5104 C   0  0  0  0  0  0
  -24.8221  -27.7251   19.4864 C   0  0  0  0  0  0
  -23.6129  -29.8454   20.1647 C   0  0  0  0  0  0
  -25.4098  -36.3189   24.0353 C   0  0  1  0  0  0
  -20.5670  -28.4010   23.1385 C   0  0  2  0  0  0
  -20.6773  -26.9800   22.5553 C   0  0  0  0  0  0
  -19.5808  -26.6500   21.5505 C   0  0  0  0  0  0
  -18.2084  -26.7940   22.1932 C   0  0  0  0  0  0
  -19.1213  -28.9062   23.2879 C   0  0  0  0  0  0
  -18.9063  -30.1598   23.8912 C   0  0  0  0  0  0
  -17.6023  -30.6477   24.0641 C   0  0  0  0  0  0
  -25.9016  -34.9524   23.5198 C   0  0  0  0  0  0
  -16.4956  -29.9067   23.6052 C   0  0  0  0  0  0
  -16.6999  -28.6565   22.9883 C   0  0  0  0  0  0
  -26.4486  -31.6602   25.0769 C   0  0  0  0  0  0
  -25.3742  -31.3625   26.1519 C   0  0  0  0  0  0
  -27.0269  -30.3067   24.6019 C   0  0  0  0  0  0
  -27.6077  -32.4270   25.7538 C   0  0  0  0  0  0
  -27.5598  -37.1857   24.8469 C   0  0  0  0  0  0
  -21.4005  -29.3502   22.3993 N   0  0  0  0  0  0
  -26.4316  -37.3865   23.9399 N   0  0  0  0  0  0
  -24.6814  -31.0737   22.1100 N   0  0  0  0  0  0
  -23.4101  -28.8023   23.2828 O   0  0  0  0  0  0
  -28.2613  -26.4883   20.2702 O   0  0  0  0  0  0
  -26.5537  -34.8939   22.4717 O   0  0  0  0  0  0
  -23.5389  -32.1499   23.7573 O   0  0  0  0  0  0
  -28.4915  -18.8121   21.9961 C   0  0  0  0  0  0
  -29.1500  -17.5787   22.2099 C   0  0  0  0  0  0
  -28.2412  -18.2359   19.6613 C   0  0  0  0  0  0
  -28.0344  -19.1653   20.7069 C   0  0  0  0  0  0
  -29.3901  -16.6618   21.1550 C   0  0  0  0  0  0
  -28.8927  -17.0024   19.8739 C   0  0  0  0  0  0
  -26.1403  -21.1719   22.3975 C   0  0  0  0  0  0
  -27.3830  -20.5037   20.3464 C   0  0  0  0  0  0
  -27.4084  -24.2022   21.2123 C   0  0  0  0  0  0
  -26.7820  -22.8627   20.7103 C   0  0  0  0  0  0
  -28.0775  -25.0548   20.0648 C   0  0  0  0  0  0
  -30.0806  -15.4415   21.4612 N   0  0  0  0  0  0
  -27.1594  -21.5676   21.3851 N   0  3  1  0  0  0
  -29.0173  -16.1499   18.8373 F   0  0  0  0  0  0
  -31.4809  -12.5174   19.1701 H   0  0  0  0  0  0
  -30.3606  -11.3600   19.8344 H   0  0  0  0  0  0
  -29.7881  -11.8663   17.4306 H   0  0  0  0  0  0
  -29.6771  -13.5721   17.8053 H   0  0  0  0  0  0
  -27.8451  -11.3498   18.7683 H   0  0  0  0  0  0
  -27.3967  -12.7183   17.7788 H   0  0  0  0  0  0
  -27.6892  -14.2723   19.6157 H   0  0  0  0  0  0
  -28.6869  -11.9822   21.3625 H   0  0  0  0  0  0
  -28.4207  -13.6125   21.8836 H   0  0  0  0  0  0
  -25.2822   -9.5681   22.4699 H   0  0  0  0  0  0
  -24.0011   -7.4676   22.7467 H   0  0  0  0  0  0
  -21.0854   -8.8813   19.8952 H   0  0  0  0  0  0
  -22.3757  -10.9671   19.6134 H   0  0  0  0  0  0
  -21.1977   -7.6131   23.9724 H   0  0  0  0  0  0
  -21.1506   -6.0508   25.9096 H   0  0  0  0  0  0
  -22.0569   -2.7589   23.2887 H   0  0  0  0  0  0
  -22.4114  -11.9937   22.4812 H   0  0  0  0  0  0
  -21.1100  -13.1275   22.2647 H   0  0  0  0  0  0
  -24.6210  -15.8273   20.4917 H   0  0  0  0  0  0
  -26.2622  -15.6632   20.1113 H   0  0  0  0  0  0
  -26.7104  -32.5572   23.1227 H   0  0  0  0  0  0
  -25.0227  -33.9856   25.0693 H   0  0  0  0  0  0
  -22.7125  -31.3491   21.4092 H   0  0  0  0  0  0
  -23.3786  -35.9665   23.3305 H   0  0  0  0  0  0
  -24.3584  -36.8963   22.2058 H   0  0  0  0  0  0
  -23.7189  -37.6535   23.6615 H   0  0  0  0  0  0
  -26.0329  -31.5513   20.5765 H   0  0  0  0  0  0
  -26.8667  -30.9193   21.9379 H   0  0  0  0  0  0
  -28.0537  -28.9295   21.3023 H   0  0  0  0  0  0
  -25.8439  -25.9570   19.0204 H   0  0  0  0  0  0
  -23.9113  -27.3825   19.0139 H   0  0  0  0  0  0
  -23.7386  -30.6233   19.4079 H   0  0  0  0  0  0
  -22.7409  -29.2543   19.8596 H   0  0  0  0  0  0
  -25.1272  -36.2095   25.0844 H   0  0  0  0  0  0
  -20.9536  -28.3777   24.1608 H   0  0  0  0  0  0
  -20.5976  -26.2636   23.3695 H   0  0  0  0  0  0
  -21.6694  -26.8026   22.1278 H   0  0  0  0  0  0
  -19.7060  -25.6264   21.1690 H   0  0  0  0  0  0
  -19.6599  -27.3352   20.6981 H   0  0  0  0  0  0
  -17.4316  -26.5953   21.4570 H   0  0  0  0  0  0
  -18.0618  -26.0265   22.9447 H   0  0  0  0  0  0
  -19.7380  -30.7655   24.2115 H   0  0  0  0  0  0
  -17.4464  -31.5976   24.5586 H   0  0  0  0  0  0
  -15.4924  -30.2981   23.7465 H   0  0  0  0  0  0
  -15.8452  -28.1062   22.6201 H   0  0  0  0  0  0
  -24.5981  -30.6912   25.7827 H   0  0  0  0  0  0
  -24.8857  -32.2730   26.5009 H   0  0  0  0  0  0
  -25.8161  -30.8758   27.0268 H   0  0  0  0  0  0
  -26.2778  -29.6916   24.1008 H   0  0  0  0  0  0
  -27.4029  -29.7170   25.4416 H   0  0  0  0  0  0
  -27.8643  -30.4448   23.9166 H   0  0  0  0  0  0
  -27.2753  -33.3616   26.2120 H   0  0  0  0  0  0
  -28.3921  -32.6789   25.0364 H   0  0  0  0  0  0
  -28.0724  -31.8356   26.5472 H   0  0  0  0  0  0
  -28.2637  -38.0146   24.7542 H   0  0  0  0  0  0
  -28.1073  -36.2673   24.6274 H   0  0  0  0  0  0
  -27.2300  -37.1515   25.8876 H   0  0  0  0  0  0
  -20.9082  -29.9585   21.7585 H   0  0  0  0  0  0
  -26.0224  -38.2948   24.1418 H   0  0  0  0  0  0
  -28.3715  -19.4756   22.8330 H   0  0  0  0  0  0
  -29.4834  -17.3557   23.2017 H   0  0  0  0  0  0
  -27.9181  -18.4798   18.6608 H   0  0  0  0  0  0
  -26.3640  -20.2117   22.8576 H   0  0  0  0  0  0
  -25.1512  -21.0748   21.9459 H   0  0  0  0  0  0
  -26.0863  -21.9123   23.1908 H   0  0  0  0  0  0
  -26.4432  -20.3080   19.8328 H   0  0  0  0  0  0
  -28.0662  -20.9029   19.6059 H   0  0  0  0  0  0
  -28.1407  -24.0193   21.9786 H   0  0  0  0  0  0
  -26.6103  -24.7945   21.6771 H   0  0  0  0  0  0
  -27.0739  -22.8029   19.6663 H   0  0  0  0  0  0
  -25.6912  -22.9493   20.7067 H   0  0  0  0  0  0
  -27.5233  -24.9197   19.1493 H   0  0  0  0  0  0
  -29.0663  -24.6277   19.8664 H   0  0  0  0  0  0
  -30.2637  -15.2766   22.4499 H   0  0  0  0  0  0
  -28.0525  -21.6784   21.8484 H   0  0  0  0  0  0
  1 25  1  0  0  0
  1 30  2  0  0  0
  1 82  1  0  0  0
  2  3  1  0  0  0
  2 25  1  0  0  0
  2 85  1  0  0  0
  2 86  1  0  0  0
  3  4  1  0  0  0
  3 87  1  0  0  0
  3 88  1  0  0  0
  4  5  1  0  0  0
  4 89  1  0  0  0
  4 90  1  0  0  0
  5  6  1  0  0  0
  5 26  1  0  0  0
  5 91  1  0  0  0
  6 25  1  0  0  0
  6 92  1  0  0  0
  6 93  1  0  0  0
  7  8  2  0  0  0
  7 26  1  0  0  0
  7 29  1  0  0  0
  8  9  1  0  0  0
  8 22  1  0  0  0
  9 10  1  0  0  0
  9 27  2  0  0  0
 10 11  2  0  0  0
 10 15  1  0  0  0
 11 12  1  0  0  0
 11 94  1  0  0  0
 12 13  2  0  0  0
 12 95  1  0  0  0
 13 14  1  0  0  0
 13 31  1  0  0  0
 14 15  2  0  0  0
 14 96  1  0  0  0
 15 97  1  0  0  0
 16 17  2  0  0  0
 16 21  1  0  0  0
 16 31  1  0  0  0
 17 18  1  0  0  0
 17 98  1  0  0  0
 18 19  2  0  0  0
 18 99  1  0  0  0
 19 20  1  0  0  0
 19 24  1  0  0  0
 20 21  2  0  0  0
 20100  1  0  0  0
 21 23  1  0  0  0
 22 28  1  0  0  0
 22 32  2  0  0  0
 26 27  1  0  0  0
 28101  1  0  0  0
 28102  1  0  0  0
 29103  1  0  0  0
 29104  1  0  0  0
 33 34  1  0  0  0
 33 66  1  0  0  0
 33 70  2  0  0  0
 34 36  1  0  0  0
 34 59  1  0  0  0
 34105  1  0  0  0
 35 44  2  0  0  0
 35 45  1  0  0  0
 35 68  1  0  0  0
 36 56  1  0  0  0
 36106  1  0  0  0
 37 39  1  0  0  0
 37 47  1  0  0  0
 37 66  1  0  0  0
 37107  1  0  0  0
 38 43  2  0  0  0
 38 46  1  0  0  0
 38 47  1  0  0  0
 39 64  1  0  0  0
 39 67  2  0  0  0
 40 52  1  0  0  0
 40 53  2  0  0  0
 40 58  1  0  0  0
 41108  1  0  0  0
 41109  1  0  0  0
 41110  1  0  0  0
 41 48  1  0  0  0
 42 43  1  0  0  0
 42 66  1  0  0  0
 42111  1  0  0  0
 42112  1  0  0  0
 43 44  1  0  0  0
 44113  1  0  0  0
 45 46  2  0  0  0
 45114  1  0  0  0
 46115  1  0  0  0
 47116  1  0  0  0
 47117  1  0  0  0
 48 56  1  0  0  0
 48 65  1  0  0  0
 48118  1  0  0  0
 49 50  1  0  0  0
 49 53  1  0  0  0
 49 64  1  0  0  0
 49119  1  0  0  0
 50 51  1  0  0  0
 50120  1  0  0  0
 50121  1  0  0  0
 51 52  1  0  0  0
 51122  1  0  0  0
 51123  1  0  0  0
 52124  1  0  0  0
 52125  1  0  0  0
 53 54  1  0  0  0
 54 55  2  0  0  0
 54126  1  0  0  0
 55 57  1  0  0  0
 55127  1  0  0  0
 56 69  2  0  0  0
 57 58  2  0  0  0
 57128  1  0  0  0
 58129  1  0  0  0
 59 60  1  0  0  0
 59 61  1  0  0  0
 59 62  1  0  0  0
 60130  1  0  0  0
 60131  1  0  0  0
 60132  1  0  0  0
 61133  1  0  0  0
 61134  1  0  0  0
 61135  1  0  0  0
 62136  1  0  0  0
 62137  1  0  0  0
 62138  1  0  0  0
 63 65  1  0  0  0
 63139  1  0  0  0
 63140  1  0  0  0
 63141  1  0  0  0
 64142  1  0  0  0
 65143  1  0  0  0
 68 81  1  0  0  0
 71 72  2  0  0  0
 71 74  1  0  0  0
 71144  1  0  0  0
 72 75  1  0  0  0
 72145  1  0  0  0
 73 74  2  0  0  0
 73 76  1  0  0  0
 73146  1  0  0  0
 74 78  1  0  0  0
 75 76  2  0  0  0
 75 82  1  0  0  0
 76 84  1  0  0  0
 77147  1  0  0  0
 77148  1  0  0  0
 77149  1  0  0  0
 77 83  1  0  0  0
 78 83  1  0  0  0
 78150  1  0  0  0
 78151  1  0  0  0
 79 80  1  0  0  0
 79 81  1  0  0  0
 79152  1  0  0  0
 79153  1  0  0  0
 80 83  1  0  0  0
 80154  1  0  0  0
 80155  1  0  0  0
 81156  1  0  0  0
 81157  1  0  0  0
 82158  1  0  0  0
 83159  1  0  0  0
M  CHG  1  83   1
M  ISO  4   1 100  68 101  81 101  82 100
M  END
> <chiral flag>
0

> <version>
0

> <s_m_source_file>
/data/baiqing/PycharmProjects/Reinvent-master-3.2/result/LINK_invent/BTK/process_docking_weight1_custom_product_contain_oxygen_bond_distance_aromatic_linkinvent_7_9_3/rearranged_h_0014.sdf

> <i_m_source_file_index>
37

> <r_mmod_Potential_Energy-OPLS-2005>
-84.5593566894531

> <r_mmod_Stretch_Energy-OPLS-2005>
53.925968170166

> <r_mmod_Bend_Energy-OPLS-2005>
135.061645507812

> <r_mmod_Torsional_Energy-OPLS-2005>
277.843109130859

> <r_mmod_Improper_Torsional_Energy-OPLS-2005>
2.47277736663818

> <r_mmod_Van_der_Waal_Energy-OPLS-2005>
158.503005981445

> <r_mmod_Electrostatic_Energy-OPLS-2005>
-284.603881835938

> <r_mmod_Solvation_Energy-OPLS-2005>
-472.899078369141

> <b_mmod_Minimization_Converged-OPLS-2005>
0

> <r_mmod_RMS_Derivative-OPLS-2005>
18.0441875457764

$$$$
37
                    3D
 Structure written by MMmdl.
169177  0  0  1  0            999 V2000
  -30.7594  -14.4780   20.6113 C   0  0  0  0  0  0
  -30.4130  -12.3318   19.4234 C   0  0  0  0  0  0
  -29.4869  -12.5179   18.2057 C   0  0  0  0  0  0
  -28.0131  -12.3552   18.6181 C   0  0  0  0  0  0
  -27.6559  -13.2001   19.8662 C   0  0  2  0  0  0
  -28.7039  -13.0268   20.9946 C   0  0  0  0  0  0
  -25.2591  -13.8122   20.5692 C   0  0  0  0  0  0
  -24.1839  -13.0407   20.9190 C   0  0  0  0  0  0
  -24.6380  -11.6872   20.8741 C   0  0  0  0  0  0
  -23.9045  -10.4261   21.0413 C   0  0  0  0  0  0
  -24.3599   -9.4180   21.9190 C   0  0  0  0  0  0
  -23.6278   -8.2213   22.0745 C   0  0  0  0  0  0
  -22.4258   -8.0252   21.3538 C   0  0  0  0  0  0
  -21.9888   -9.0228   20.4645 C   0  0  0  0  0  0
  -22.7214  -10.2110   20.3060 C   0  0  0  0  0  0
  -21.6838   -6.0727   22.5281 C   0  0  0  0  0  0
  -21.3993   -6.5629   23.8214 C   0  0  0  0  0  0
  -21.3650   -5.6784   24.9172 C   0  0  0  0  0  0
  -21.6041   -4.3052   24.7216 C   0  0  0  0  0  0
  -21.8824   -3.8142   23.4344 C   0  0  0  0  0  0
  -21.9191   -4.6960   22.3405 C   0  0  0  0  0  0
  -22.7864  -13.5217   21.1866 C   0  0  0  0  0  0
  -22.1665   -4.2152   21.0976 F   0  0  0  0  0  0
  -21.5634   -3.4539   25.7729 F   0  0  0  0  0  0
  -30.0354  -13.3304   20.4432 N   0  0  0  0  0  0
  -26.3002  -12.9279   20.3348 N   0  0  0  0  0  0
  -25.9312  -11.6448   20.5778 N   0  0  0  0  0  0
  -22.0504  -12.8212   22.0425 N   0  0  0  0  0  0
  -25.4348  -15.1828   20.4082 N   0  0  0  0  0  0
  -31.8447  -14.6446   20.0444 O   0  0  0  0  0  0
  -21.6622   -6.8853   21.4231 O   0  0  0  0  0  0
  -22.3559  -14.5539   20.6732 O   0  0  0  0  0  0
  -24.6177  -31.8653   23.2119 C   0  0  0  0  0  0
  -25.9068  -32.4804   23.8397 C   0  0  1  0  0  0
  -27.2126  -27.3932   20.1138 C   0  0  0  0  0  0
  -25.5917  -33.8602   24.2327 N   0  0  0  0  0  0
  -23.4055  -30.4940   21.5510 C   0  0  2  0  0  0
  -24.8495  -28.9638   20.1091 C   0  0  0  0  0  0
  -22.7418  -29.4661   22.4967 C   0  0  0  0  0  0
  -18.0276  -28.1393   22.8458 C   0  0  0  0  0  0
  -24.1475  -36.7273   23.2649 C   0  0  0  0  0  0
  -25.9408  -30.8174   21.3758 C   0  0  0  0  0  0
  -26.0130  -29.4540   20.7155 C   0  0  0  0  0  0
  -27.2000  -28.6774   20.7135 C   0  0  0  0  0  0
  -26.0375  -26.9465   19.4664 C   0  0  0  0  0  0
  -24.8599  -27.7125   19.4766 C   0  0  0  0  0  0
  -23.6146  -29.8357   20.1621 C   0  0  0  0  0  0
  -25.4105  -36.3097   24.0352 C   0  0  1  0  0  0
  -20.5866  -28.3675   23.1302 C   0  0  2  0  0  0
  -20.6760  -26.9386   22.5469 C   0  0  0  0  0  0
  -19.5782  -26.6373   21.5217 C   0  0  0  0  0  0
  -18.1914  -26.7955   22.1535 C   0  0  0  0  0  0
  -19.1525  -28.8843   23.2888 C   0  0  0  0  0  0
  -18.9457  -30.1438   23.8921 C   0  0  0  0  0  0
  -17.6466  -30.6590   24.0583 C   0  0  0  0  0  0
  -25.9031  -34.9460   23.5131 C   0  0  0  0  0  0
  -16.5352  -29.9096   23.6346 C   0  0  0  0  0  0
  -16.7263  -28.6518   23.0343 C   0  0  0  0  0  0
  -26.4486  -31.6594   25.0731 C   0  0  0  0  0  0
  -25.3752  -31.3737   26.1491 C   0  0  0  0  0  0
  -27.0265  -30.2997   24.6144 C   0  0  0  0  0  0
  -27.6093  -32.4306   25.7446 C   0  0  0  0  0  0
  -27.5588  -37.1776   24.8462 C   0  0  0  0  0  0
  -21.4145  -29.3033   22.3695 N   0  0  0  0  0  0
  -26.4285  -37.3784   23.9422 N   0  0  0  0  0  0
  -24.6726  -31.0737   22.1039 N   0  0  0  0  0  0
  -23.4180  -28.8201   23.3022 O   0  0  0  0  0  0
  -28.3408  -26.5890   20.1591 O   0  0  0  0  0  0
  -26.5582  -34.8915   22.4687 O   0  0  0  0  0  0
  -23.5369  -32.1426   23.7496 O   0  0  0  0  0  0
  -29.6307  -18.0170   19.5028 C   0  0  0  0  0  0
  -29.4535  -18.7969   21.7909 C   0  0  0  0  0  0
  -29.7692  -19.3536   19.0657 C   0  0  0  0  0  0
  -29.5958  -20.1383   21.3536 C   0  0  0  0  0  0
  -29.4575  -17.7216   20.8705 C   0  0  0  0  0  0
  -29.7579  -20.4420   19.9801 C   0  0  0  0  0  0
  -30.9212  -22.0725   18.6351 C   0  0  0  0  0  0
  -30.9135  -22.6735   16.1629 C   0  0  0  0  0  0
  -31.9220  -24.2658   17.8421 C   0  0  0  0  0  0
  -31.3362  -15.9520   22.4516 C   0  0  0  0  0  0
  -29.1795  -16.2750   21.3251 C   0  0  0  0  0  0
  -29.2871  -24.2494   20.2784 C   0  0  0  0  0  0
  -28.8446  -22.7970   19.8616 C   0  0  0  0  0  0
  -28.1050  -25.2127   20.5641 C   0  0  0  0  0  0
  -30.8180  -23.2167   17.6003 C   0  0  0  0  0  0
  -29.9049  -21.8055   19.5072 N   0  0  0  0  0  0
  -30.3414  -15.3836   21.5359 N   0  0  0  0  0  0
  -31.9675  -21.4128   18.6334 O   0  0  0  0  0  0
  -31.4575  -12.4106   19.1171 H   0  0  0  0  0  0
  -30.3069  -11.3247   19.8293 H   0  0  0  0  0  0
  -29.7380  -11.7987   17.4252 H   0  0  0  0  0  0
  -29.6415  -13.5070   17.7710 H   0  0  0  0  0  0
  -27.8311  -11.2979   18.8166 H   0  0  0  0  0  0
  -27.3597  -12.6241   17.7864 H   0  0  0  0  0  0
  -27.6755  -14.2311   19.5240 H   0  0  0  0  0  0
  -28.6906  -12.0007   21.3654 H   0  0  0  0  0  0
  -28.4543  -13.6486   21.8549 H   0  0  0  0  0  0
  -25.2745   -9.5652   22.4766 H   0  0  0  0  0  0
  -23.9990   -7.4591   22.7453 H   0  0  0  0  0  0
  -21.0819   -8.8731   19.8951 H   0  0  0  0  0  0
  -22.3668  -10.9647   19.6168 H   0  0  0  0  0  0
  -21.1970   -7.6135   23.9713 H   0  0  0  0  0  0
  -21.1467   -6.0513   25.9070 H   0  0  0  0  0  0
  -22.0616   -2.7608   23.2842 H   0  0  0  0  0  0
  -22.4124  -11.9857   22.4795 H   0  0  0  0  0  0
  -21.1114  -13.1220   22.2636 H   0  0  0  0  0  0
  -24.6711  -15.8406   20.5195 H   0  0  0  0  0  0
  -26.2787  -15.6140   20.0555 H   0  0  0  0  0  0
  -26.7130  -32.5495   23.1140 H   0  0  0  0  0  0
  -25.0130  -33.9771   25.0517 H   0  0  0  0  0  0
  -22.6966  -31.3124   21.4145 H   0  0  0  0  0  0
  -23.3767  -35.9571   23.3303 H   0  0  0  0  0  0
  -24.3572  -36.8904   22.2064 H   0  0  0  0  0  0
  -23.7181  -37.6450   23.6673 H   0  0  0  0  0  0
  -26.0688  -31.5864   20.6124 H   0  0  0  0  0  0
  -26.8225  -30.8568   22.0035 H   0  0  0  0  0  0
  -28.0930  -29.0431   21.1993 H   0  0  0  0  0  0
  -26.0075  -26.0052   18.9405 H   0  0  0  0  0  0
  -23.9700  -27.3394   18.9888 H   0  0  0  0  0  0
  -23.7292  -30.6169   19.4106 H   0  0  0  0  0  0
  -22.7358  -29.2637   19.8585 H   0  0  0  0  0  0
  -25.1294  -36.1951   25.0839 H   0  0  0  0  0  0
  -20.9945  -28.3281   24.1431 H   0  0  0  0  0  0
  -20.5581  -26.2300   23.3689 H   0  0  0  0  0  0
  -21.6658  -26.7384   22.1316 H   0  0  0  0  0  0
  -19.6952  -25.6273   21.1259 H   0  0  0  0  0  0
  -19.6801  -27.3195   20.6764 H   0  0  0  0  0  0
  -17.4242  -26.6804   21.3856 H   0  0  0  0  0  0
  -18.0213  -26.0052   22.8858 H   0  0  0  0  0  0
  -19.7949  -30.7243   24.2301 H   0  0  0  0  0  0
  -17.5027  -31.6275   24.5187 H   0  0  0  0  0  0
  -15.5355  -30.3013   23.7683 H   0  0  0  0  0  0
  -15.8652  -28.0865   22.7046 H   0  0  0  0  0  0
  -24.6164  -30.6736   25.7973 H   0  0  0  0  0  0
  -24.8628  -32.2844   26.4610 H   0  0  0  0  0  0
  -25.8163  -30.9318   27.0438 H   0  0  0  0  0  0
  -26.2774  -29.6771   24.1232 H   0  0  0  0  0  0
  -27.4023  -29.7238   25.4612 H   0  0  0  0  0  0
  -27.8644  -30.4245   23.9280 H   0  0  0  0  0  0
  -27.2747  -33.3611   26.2042 H   0  0  0  0  0  0
  -28.3872  -32.6865   25.0235 H   0  0  0  0  0  0
  -28.0801  -31.8421   26.5330 H   0  0  0  0  0  0
  -28.2668  -38.0016   24.7458 H   0  0  0  0  0  0
  -28.1028  -36.2561   24.6328 H   0  0  0  0  0  0
  -27.2320  -37.1483   25.8873 H   0  0  0  0  0  0
  -20.9312  -29.8714   21.6880 H   0  0  0  0  0  0
  -26.0188  -38.2862   24.1456 H   0  0  0  0  0  0
  -29.6300  -17.2188   18.7721 H   0  0  0  0  0  0
  -29.3200  -18.5955   22.8454 H   0  0  0  0  0  0
  -29.8792  -19.5349   18.0047 H   0  0  0  0  0  0
  -29.5862  -20.9336   22.0857 H   0  0  0  0  0  0
  -30.1465  -21.9230   15.9681 H   0  0  0  0  0  0
  -31.8832  -22.2150   15.9697 H   0  0  0  0  0  0
  -30.7784  -23.4763   15.4368 H   0  0  0  0  0  0
  -32.0069  -24.5380   18.8949 H   0  0  0  0  0  0
  -31.7258  -25.1798   17.2819 H   0  0  0  0  0  0
  -32.8978  -23.8887   17.5345 H   0  0  0  0  0  0
  -30.8573  -16.4005   23.3223 H   0  0  0  0  0  0
  -31.9275  -16.7246   21.9566 H   0  0  0  0  0  0
  -32.0220  -15.1864   22.8193 H   0  0  0  0  0  0
  -28.5077  -15.8496   20.5868 H   0  0  0  0  0  0
  -28.6002  -16.3003   22.2487 H   0  0  0  0  0  0
  -29.8638  -24.7312   19.5016 H   0  0  0  0  0  0
  -29.9462  -24.2063   21.1460 H   0  0  0  0  0  0
  -28.1593  -22.8562   19.0139 H   0  0  0  0  0  0
  -28.2402  -22.3906   20.6717 H   0  0  0  0  0  0
  -27.8865  -25.1971   21.6329 H   0  0  0  0  0  0
  -27.2265  -24.7848   20.0869 H   0  0  0  0  0  0
  -29.8419  -23.6932   17.6583 H   0  0  0  0  0  0
  1 25  1  0  0  0
  1 30  2  0  0  0
  1 87  1  0  0  0
  2  3  1  0  0  0
  2 25  1  0  0  0
  2 89  1  0  0  0
  2 90  1  0  0  0
  3  4  1  0  0  0
  3 91  1  0  0  0
  3 92  1  0  0  0
  4  5  1  0  0  0
  4 93  1  0  0  0
  4 94  1  0  0  0
  5  6  1  0  0  0
  5 26  1  0  0  0
  5 95  1  0  0  0
  6 25  1  0  0  0
  6 96  1  0  0  0
  6 97  1  0  0  0
  7  8  2  0  0  0
  7 26  1  0  0  0
  7 29  1  0  0  0
  8  9  1  0  0  0
  8 22  1  0  0  0
  9 10  1  0  0  0
  9 27  2  0  0  0
 10 11  2  0  0  0
 10 15  1  0  0  0
 11 12  1  0  0  0
 11 98  1  0  0  0
 12 13  2  0  0  0
 12 99  1  0  0  0
 13 14  1  0  0  0
 13 31  1  0  0  0
 14 15  2  0  0  0
 14100  1  0  0  0
 15101  1  0  0  0
 16 17  2  0  0  0
 16 21  1  0  0  0
 16 31  1  0  0  0
 17 18  1  0  0  0
 17102  1  0  0  0
 18 19  2  0  0  0
 18103  1  0  0  0
 19 20  1  0  0  0
 19 24  1  0  0  0
 20 21  2  0  0  0
 20104  1  0  0  0
 21 23  1  0  0  0
 22 28  1  0  0  0
 22 32  2  0  0  0
 26 27  1  0  0  0
 28105  1  0  0  0
 28106  1  0  0  0
 29107  1  0  0  0
 29108  1  0  0  0
 33 34  1  0  0  0
 33 66  1  0  0  0
 33 70  2  0  0  0
 34 36  1  0  0  0
 34 59  1  0  0  0
 34109  1  0  0  0
 35 44  2  0  0  0
 35 45  1  0  0  0
 35 68  1  0  0  0
 36 56  1  0  0  0
 36110  1  0  0  0
 37 39  1  0  0  0
 37 47  1  0  0  0
 37 66  1  0  0  0
 37111  1  0  0  0
 38 43  2  0  0  0
 38 46  1  0  0  0
 38 47  1  0  0  0
 39 64  1  0  0  0
 39 67  2  0  0  0
 40 52  1  0  0  0
 40 53  2  0  0  0
 40 58  1  0  0  0
 41112  1  0  0  0
 41113  1  0  0  0
 41114  1  0  0  0
 41 48  1  0  0  0
 42 43  1  0  0  0
 42 66  1  0  0  0
 42115  1  0  0  0
 42116  1  0  0  0
 43 44  1  0  0  0
 44117  1  0  0  0
 45 46  2  0  0  0
 45118  1  0  0  0
 46119  1  0  0  0
 47120  1  0  0  0
 47121  1  0  0  0
 48 56  1  0  0  0
 48 65  1  0  0  0
 48122  1  0  0  0
 49 50  1  0  0  0
 49 53  1  0  0  0
 49 64  1  0  0  0
 49123  1  0  0  0
 50 51  1  0  0  0
 50124  1  0  0  0
 50125  1  0  0  0
 51 52  1  0  0  0
 51126  1  0  0  0
 51127  1  0  0  0
 52128  1  0  0  0
 52129  1  0  0  0
 53 54  1  0  0  0
 54 55  2  0  0  0
 54130  1  0  0  0
 55 57  1  0  0  0
 55131  1  0  0  0
 56 69  2  0  0  0
 57 58  2  0  0  0
 57132  1  0  0  0
 58133  1  0  0  0
 59 60  1  0  0  0
 59 61  1  0  0  0
 59 62  1  0  0  0
 60134  1  0  0  0
 60135  1  0  0  0
 60136  1  0  0  0
 61137  1  0  0  0
 61138  1  0  0  0
 61139  1  0  0  0
 62140  1  0  0  0
 62141  1  0  0  0
 62142  1  0  0  0
 63 65  1  0  0  0
 63143  1  0  0  0
 63144  1  0  0  0
 63145  1  0  0  0
 64146  1  0  0  0
 65147  1  0  0  0
 68 84  1  0  0  0
 71 73  2  0  0  0
 71 75  1  0  0  0
 71148  1  0  0  0
 72 74  1  0  0  0
 72 75  2  0  0  0
 72149  1  0  0  0
 73 76  1  0  0  0
 73150  1  0  0  0
 74 76  2  0  0  0
 74151  1  0  0  0
 75 81  1  0  0  0
 76 86  1  0  0  0
 77 85  1  0  0  0
 77 86  1  0  0  0
 77 88  2  0  0  0
 78152  1  0  0  0
 78153  1  0  0  0
 78154  1  0  0  0
 78 85  1  0  0  0
 79 85  1  0  0  0
 79155  1  0  0  0
 79156  1  0  0  0
 79157  1  0  0  0
 80 87  1  0  0  0
 80158  1  0  0  0
 80159  1  0  0  0
 80160  1  0  0  0
 81 87  1  0  0  0
 81161  1  0  0  0
 81162  1  0  0  0
 82 83  1  0  0  0
 82 84  1  0  0  0
 82163  1  0  0  0
 82164  1  0  0  0
 83 86  1  0  0  0
 83165  1  0  0  0
 83166  1  0  0  0
 84167  1  0  0  0
 84168  1  0  0  0
 85169  1  0  0  0
M  ISO  4   1 100  68 101  84 101  87 100
M  END
> <chiral flag>
0

> <version>
0

> <s_m_source_file>
/data/baiqing/PycharmProjects/Reinvent-master-3.2/result/LINK_invent/BTK/process_docking_weight1_custom_product_contain_oxygen_bond_distance_aromatic_linkinvent_7_9_3/rearranged_h_0014.sdf

> <i_m_source_file_index>
38

> <r_mmod_Potential_Energy-OPLS-2005>
232.138626098633

> <r_mmod_Stretch_Energy-OPLS-2005>
54.0396766662598

> <r_mmod_Bend_Energy-OPLS-2005>
114.04615020752

> <r_mmod_Torsional_Energy-OPLS-2005>
349.696472167969

> <r_mmod_Improper_Torsional_Energy-OPLS-2005>
5.36546087265015

> <r_mmod_Van_der_Waal_Energy-OPLS-2005>
167.068664550781

> <r_mmod_Electrostatic_Energy-OPLS-2005>
-265.847961425781

> <r_mmod_Solvation_Energy-OPLS-2005>
-211.955047607422

> <b_mmod_Minimization_Converged-OPLS-2005>
0

> <r_mmod_RMS_Derivative-OPLS-2005>
2.2882091999054

$$$$
38
                    3D
 Structure written by MMmdl.
159167  0  0  1  0            999 V2000
  -30.7077  -14.4834   20.4779 C   0  0  0  0  0  0
  -30.4136  -12.2960   19.4251 C   0  0  0  0  0  0
  -29.5014  -12.4779   18.1969 C   0  0  0  0  0  0
  -28.0208  -12.3441   18.6043 C   0  0  0  0  0  0
  -27.6503  -13.2142   19.8378 C   0  0  2  0  0  0
  -28.6876  -13.0586   20.9697 C   0  0  0  0  0  0
  -25.2625  -13.8216   20.5703 C   0  0  0  0  0  0
  -24.1871  -13.0467   20.9106 C   0  0  0  0  0  0
  -24.6441  -11.6942   20.8629 C   0  0  0  0  0  0
  -23.9100  -10.4338   21.0346 C   0  0  0  0  0  0
  -24.3645   -9.4286   21.9147 C   0  0  0  0  0  0
  -23.6352   -8.2315   22.0751 C   0  0  0  0  0  0
  -22.4326   -8.0337   21.3561 C   0  0  0  0  0  0
  -21.9944   -9.0301   20.4653 C   0  0  0  0  0  0
  -22.7256  -10.2181   20.3041 C   0  0  0  0  0  0
  -21.6877   -6.0790   22.5304 C   0  0  0  0  0  0
  -21.3995   -6.5671   23.8242 C   0  0  0  0  0  0
  -21.3634   -5.6807   24.9184 C   0  0  0  0  0  0
  -21.6045   -4.3079   24.7224 C   0  0  0  0  0  0
  -21.8835   -3.8184   23.4347 C   0  0  0  0  0  0
  -21.9222   -4.7014   22.3405 C   0  0  0  0  0  0
  -22.7915  -13.5283   21.1830 C   0  0  0  0  0  0
  -22.1698   -4.2236   21.0981 F   0  0  0  0  0  0
  -21.5637   -3.4514   25.7702 F   0  0  0  0  0  0
  -30.0160  -13.3174   20.4013 N   0  0  0  0  0  0
  -26.2995  -12.9374   20.3164 N   0  0  0  0  0  0
  -25.9324  -11.6524   20.5557 N   0  0  0  0  0  0
  -22.0602  -12.8236   22.0388 N   0  0  0  0  0  0
  -25.4347  -15.1968   20.4449 N   0  0  0  0  0  0
  -31.8950  -14.5776   20.1638 O   0  0  0  0  0  0
  -21.6697   -6.8923   21.4277 O   0  0  0  0  0  0
  -22.3570  -14.5618   20.6757 O   0  0  0  0  0  0
  -24.6203  -31.8709   23.2106 C   0  0  0  0  0  0
  -25.9094  -32.4862   23.8418 C   0  0  1  0  0  0
  -27.2201  -27.4492   20.0832 C   0  0  0  0  0  0
  -25.6018  -33.8678   24.2363 N   0  0  0  0  0  0
  -23.4067  -30.4968   21.5519 C   0  0  2  0  0  0
  -24.8450  -28.9627   20.1188 C   0  0  0  0  0  0
  -22.7452  -29.4660   22.4965 C   0  0  0  0  0  0
  -18.0273  -28.1384   22.8476 C   0  0  0  0  0  0
  -24.1461  -36.7334   23.2602 C   0  0  0  0  0  0
  -25.9330  -30.8390   21.3580 C   0  0  0  0  0  0
  -26.0062  -29.4707   20.7152 C   0  0  0  0  0  0
  -27.2001  -28.7212   20.6940 C   0  0  0  0  0  0
  -26.0489  -26.9547   19.4729 C   0  0  0  0  0  0
  -24.8570  -27.6994   19.5034 C   0  0  0  0  0  0
  -23.6159  -29.8385   20.1638 C   0  0  0  0  0  0
  -25.4093  -36.3130   24.0285 C   0  0  1  0  0  0
  -20.5880  -28.3671   23.1296 C   0  0  2  0  0  0
  -20.6785  -26.9402   22.5396 C   0  0  0  0  0  0
  -19.5766  -26.6369   21.5202 C   0  0  0  0  0  0
  -18.1921  -26.7933   22.1582 C   0  0  0  0  0  0
  -19.1532  -28.8836   23.2887 C   0  0  0  0  0  0
  -18.9441  -30.1452   23.8868 C   0  0  0  0  0  0
  -17.6451  -30.6572   24.0550 C   0  0  0  0  0  0
  -25.9031  -34.9488   23.5084 C   0  0  0  0  0  0
  -16.5351  -29.9066   23.6332 C   0  0  0  0  0  0
  -16.7262  -28.6503   23.0318 C   0  0  0  0  0  0
  -26.4474  -31.6705   25.0788 C   0  0  0  0  0  0
  -25.3671  -31.3902   26.1493 C   0  0  0  0  0  0
  -27.0304  -30.3159   24.6192 C   0  0  0  0  0  0
  -27.6049  -32.4451   25.7596 C   0  0  0  0  0  0
  -27.5569  -37.1816   24.8458 C   0  0  0  0  0  0
  -21.4165  -29.3060   22.3723 N   0  0  0  0  0  0
  -26.4275  -37.3813   23.9394 N   0  0  0  0  0  0
  -24.6717  -31.0834   22.0997 N   0  0  0  0  0  0
  -23.4238  -28.8163   23.2962 O   0  0  0  0  0  0
  -28.3855  -26.7287   20.0321 O   0  0  0  0  0  0
  -26.5485  -34.8918   22.4587 O   0  0  0  0  0  0
  -23.5388  -32.1476   23.7494 O   0  0  0  0  0  0
  -30.0045  -19.1180   19.3331 C   0  0  0  0  0  0
  -28.3863  -18.2619   20.9398 C   0  0  0  0  0  0
  -29.2526  -20.2954   19.1880 C   0  0  0  0  0  0
  -27.6427  -19.4584   20.8120 C   0  0  0  0  0  0
  -29.5975  -18.1055   20.2271 C   0  0  0  0  0  0
  -28.0982  -20.5014   19.9710 C   0  0  0  0  0  0
  -28.5321  -22.8172   21.9221 C   0  0  0  0  0  0
  -30.5490  -16.9337   20.4630 C   0  0  0  0  0  0
  -27.3884  -21.8546   19.9409 C   0  0  0  0  0  0
  -27.7433  -24.3074   20.0577 C   0  0  0  0  0  0
  -28.4038  -25.5130   20.7792 C   0  0  0  0  0  0
  -29.9720  -15.5966   20.6579 N   0  0  0  0  0  0
  -28.2436  -22.9587   20.4695 N   0  3  1  0  0  0
  -31.4620  -12.3742   19.1298 H   0  0  0  0  0  0
  -30.2961  -11.2991   19.8551 H   0  0  0  0  0  0
  -29.7513  -11.7446   17.4315 H   0  0  0  0  0  0
  -29.6710  -13.4534   17.7422 H   0  0  0  0  0  0
  -27.8359  -11.2905   18.8143 H   0  0  0  0  0  0
  -27.3808  -12.5937   17.7585 H   0  0  0  0  0  0
  -27.6727  -14.2498   19.4929 H   0  0  0  0  0  0
  -28.6571  -12.0560   21.3982 H   0  0  0  0  0  0
  -28.4590  -13.7388   21.7913 H   0  0  0  0  0  0
  -25.2803   -9.5845   22.4664 H   0  0  0  0  0  0
  -24.0120   -7.4747   22.7473 H   0  0  0  0  0  0
  -21.0875   -8.8812   19.8951 H   0  0  0  0  0  0
  -22.3708  -10.9712   19.6134 H   0  0  0  0  0  0
  -21.1936   -7.6163   23.9756 H   0  0  0  0  0  0
  -21.1419   -6.0519   25.9096 H   0  0  0  0  0  0
  -22.0622   -2.7656   23.2807 H   0  0  0  0  0  0
  -22.4283  -11.9816   22.4569 H   0  0  0  0  0  0
  -21.1234  -13.1231   22.2678 H   0  0  0  0  0  0
  -24.6646  -15.8347   20.6182 H   0  0  0  0  0  0
  -26.3018  -15.6713   20.2361 H   0  0  0  0  0  0
  -26.7180  -32.5513   23.1198 H   0  0  0  0  0  0
  -25.0595  -33.9932   25.0796 H   0  0  0  0  0  0
  -22.6933  -31.3104   21.4107 H   0  0  0  0  0  0
  -23.3724  -35.9678   23.3312 H   0  0  0  0  0  0
  -24.3574  -36.8933   22.2022 H   0  0  0  0  0  0
  -23.7172  -37.6536   23.6595 H   0  0  0  0  0  0
  -26.0276  -31.5926   20.5761 H   0  0  0  0  0  0
  -26.8331  -30.9091   21.9596 H   0  0  0  0  0  0
  -28.1092  -29.1125   21.1332 H   0  0  0  0  0  0
  -26.0487  -26.0175   18.9350 H   0  0  0  0  0  0
  -23.9679  -27.3072   19.0284 H   0  0  0  0  0  0
  -23.7449  -30.6158   19.4104 H   0  0  0  0  0  0
  -22.7347  -29.2775   19.8552 H   0  0  0  0  0  0
  -25.1246  -36.2050   25.0771 H   0  0  0  0  0  0
  -20.9963  -28.3207   24.1424 H   0  0  0  0  0  0
  -20.5682  -26.2252   23.3575 H   0  0  0  0  0  0
  -21.6639  -26.7430   22.1178 H   0  0  0  0  0  0
  -19.6904  -25.6254   21.1276 H   0  0  0  0  0  0
  -19.6726  -27.3129   20.6698 H   0  0  0  0  0  0
  -17.4213  -26.6715   21.3960 H   0  0  0  0  0  0
  -18.0263  -26.0067   22.8961 H   0  0  0  0  0  0
  -19.7922  -30.7296   24.2209 H   0  0  0  0  0  0
  -17.4986  -31.6230   24.5153 H   0  0  0  0  0  0
  -15.5336  -30.2936   23.7652 H   0  0  0  0  0  0
  -15.8684  -28.0818   22.6997 H   0  0  0  0  0  0
  -24.5955  -30.7065   25.7943 H   0  0  0  0  0  0
  -24.8650  -32.3063   26.4655 H   0  0  0  0  0  0
  -25.7978  -30.9414   27.0444 H   0  0  0  0  0  0
  -26.2897  -29.7001   24.1077 H   0  0  0  0  0  0
  -27.3921  -29.7347   25.4668 H   0  0  0  0  0  0
  -27.8780  -30.4555   23.9466 H   0  0  0  0  0  0
  -27.2749  -33.3896   26.1974 H   0  0  0  0  0  0
  -28.4022  -32.6813   25.0525 H   0  0  0  0  0  0
  -28.0484  -31.8651   26.5704 H   0  0  0  0  0  0
  -28.2581  -38.0115   24.7526 H   0  0  0  0  0  0
  -28.1026  -36.2641   24.6254 H   0  0  0  0  0  0
  -27.2261  -37.1462   25.8844 H   0  0  0  0  0  0
  -20.9289  -29.8934   21.7104 H   0  0  0  0  0  0
  -26.0171  -38.2892   24.1435 H   0  0  0  0  0  0
  -30.9258  -19.0150   18.7744 H   0  0  0  0  0  0
  -28.0496  -17.5014   21.6270 H   0  0  0  0  0  0
  -29.6032  -21.0584   18.5078 H   0  0  0  0  0  0
  -26.7426  -19.5941   21.4002 H   0  0  0  0  0  0
  -28.8614  -21.8118   22.1870 H   0  0  0  0  0  0
  -27.6560  -23.0530   22.5239 H   0  0  0  0  0  0
  -29.3419  -23.4752   22.2345 H   0  0  0  0  0  0
  -31.1601  -17.1674   21.3363 H   0  0  0  0  0  0
  -31.2375  -16.9090   19.6151 H   0  0  0  0  0  0
  -26.4623  -21.8109   20.5186 H   0  0  0  0  0  0
  -27.0966  -22.0559   18.9072 H   0  0  0  0  0  0
  -27.8936  -24.4134   18.9814 H   0  0  0  0  0  0
  -26.6664  -24.3443   20.2210 H   0  0  0  0  0  0
  -29.4600  -25.3177   20.9555 H   0  0  0  0  0  0
  -27.9512  -25.6632   21.7615 H   0  0  0  0  0  0
  -28.9862  -15.5139   20.8334 H   0  0  0  0  0  0
  -29.1368  -22.8548   20.0110 H   0  0  0  0  0  0
  1 25  1  0  0  0
  1 30  2  0  0  0
  1 82  1  0  0  0
  2  3  1  0  0  0
  2 25  1  0  0  0
  2 84  1  0  0  0
  2 85  1  0  0  0
  3  4  1  0  0  0
  3 86  1  0  0  0
  3 87  1  0  0  0
  4  5  1  0  0  0
  4 88  1  0  0  0
  4 89  1  0  0  0
  5  6  1  0  0  0
  5 26  1  0  0  0
  5 90  1  0  0  0
  6 25  1  0  0  0
  6 91  1  0  0  0
  6 92  1  0  0  0
  7  8  2  0  0  0
  7 26  1  0  0  0
  7 29  1  0  0  0
  8  9  1  0  0  0
  8 22  1  0  0  0
  9 10  1  0  0  0
  9 27  2  0  0  0
 10 11  2  0  0  0
 10 15  1  0  0  0
 11 12  1  0  0  0
 11 93  1  0  0  0
 12 13  2  0  0  0
 12 94  1  0  0  0
 13 14  1  0  0  0
 13 31  1  0  0  0
 14 15  2  0  0  0
 14 95  1  0  0  0
 15 96  1  0  0  0
 16 17  2  0  0  0
 16 21  1  0  0  0
 16 31  1  0  0  0
 17 18  1  0  0  0
 17 97  1  0  0  0
 18 19  2  0  0  0
 18 98  1  0  0  0
 19 20  1  0  0  0
 19 24  1  0  0  0
 20 21  2  0  0  0
 20 99  1  0  0  0
 21 23  1  0  0  0
 22 28  1  0  0  0
 22 32  2  0  0  0
 26 27  1  0  0  0
 28100  1  0  0  0
 28101  1  0  0  0
 29102  1  0  0  0
 29103  1  0  0  0
 33 34  1  0  0  0
 33 66  1  0  0  0
 33 70  2  0  0  0
 34 36  1  0  0  0
 34 59  1  0  0  0
 34104  1  0  0  0
 35 44  2  0  0  0
 35 45  1  0  0  0
 35 68  1  0  0  0
 36 56  1  0  0  0
 36105  1  0  0  0
 37 39  1  0  0  0
 37 47  1  0  0  0
 37 66  1  0  0  0
 37106  1  0  0  0
 38 43  2  0  0  0
 38 46  1  0  0  0
 38 47  1  0  0  0
 39 64  1  0  0  0
 39 67  2  0  0  0
 40 52  1  0  0  0
 40 53  2  0  0  0
 40 58  1  0  0  0
 41107  1  0  0  0
 41108  1  0  0  0
 41109  1  0  0  0
 41 48  1  0  0  0
 42 43  1  0  0  0
 42 66  1  0  0  0
 42110  1  0  0  0
 42111  1  0  0  0
 43 44  1  0  0  0
 44112  1  0  0  0
 45 46  2  0  0  0
 45113  1  0  0  0
 46114  1  0  0  0
 47115  1  0  0  0
 47116  1  0  0  0
 48 56  1  0  0  0
 48 65  1  0  0  0
 48117  1  0  0  0
 49 50  1  0  0  0
 49 53  1  0  0  0
 49 64  1  0  0  0
 49118  1  0  0  0
 50 51  1  0  0  0
 50119  1  0  0  0
 50120  1  0  0  0
 51 52  1  0  0  0
 51121  1  0  0  0
 51122  1  0  0  0
 52123  1  0  0  0
 52124  1  0  0  0
 53 54  1  0  0  0
 54 55  2  0  0  0
 54125  1  0  0  0
 55 57  1  0  0  0
 55126  1  0  0  0
 56 69  2  0  0  0
 57 58  2  0  0  0
 57127  1  0  0  0
 58128  1  0  0  0
 59 60  1  0  0  0
 59 61  1  0  0  0
 59 62  1  0  0  0
 60129  1  0  0  0
 60130  1  0  0  0
 60131  1  0  0  0
 61132  1  0  0  0
 61133  1  0  0  0
 61134  1  0  0  0
 62135  1  0  0  0
 62136  1  0  0  0
 62137  1  0  0  0
 63 65  1  0  0  0
 63138  1  0  0  0
 63139  1  0  0  0
 63140  1  0  0  0
 64141  1  0  0  0
 65142  1  0  0  0
 68 81  1  0  0  0
 71 73  2  0  0  0
 71 75  1  0  0  0
 71143  1  0  0  0
 72 74  1  0  0  0
 72 75  2  0  0  0
 72144  1  0  0  0
 73 76  1  0  0  0
 73145  1  0  0  0
 74 76  2  0  0  0
 74146  1  0  0  0
 75 78  1  0  0  0
 76 79  1  0  0  0
 77147  1  0  0  0
 77148  1  0  0  0
 77149  1  0  0  0
 77 83  1  0  0  0
 78 82  1  0  0  0
 78150  1  0  0  0
 78151  1  0  0  0
 79 83  1  0  0  0
 79152  1  0  0  0
 79153  1  0  0  0
 80 81  1  0  0  0
 80 83  1  0  0  0
 80154  1  0  0  0
 80155  1  0  0  0
 81156  1  0  0  0
 81157  1  0  0  0
 82158  1  0  0  0
 83159  1  0  0  0
M  CHG  1  83   1
M  ISO  4   1 100  68 101  81 101  82 100
M  END
> <chiral flag>
0

> <version>
0

> <s_m_source_file>
/data/baiqing/PycharmProjects/Reinvent-master-3.2/result/LINK_invent/BTK/process_docking_weight1_custom_product_contain_oxygen_bond_distance_aromatic_linkinvent_7_9_3/rearranged_h_0014.sdf

> <i_m_source_file_index>
39

> <r_mmod_Potential_Energy-OPLS-2005>
-181.768569946289

> <r_mmod_Stretch_Energy-OPLS-2005>
34.3283462524414

> <r_mmod_Bend_Energy-OPLS-2005>
96.5250396728516

> <r_mmod_Torsional_Energy-OPLS-2005>
227.790405273438

> <r_mmod_Improper_Torsional_Energy-OPLS-2005>
6.37635946273804

> <r_mmod_Van_der_Waal_Energy-OPLS-2005>
155.317413330078

> <r_mmod_Electrostatic_Energy-OPLS-2005>
-292.562255859375

> <r_mmod_Solvation_Energy-OPLS-2005>
-430.284912109375

> <b_mmod_Minimization_Converged-OPLS-2005>
0

> <r_mmod_RMS_Derivative-OPLS-2005>
5.57199382781982

$$$$
39
                    3D
 Structure written by MMmdl.
154162  0  0  1  0            999 V2000
  -30.6599  -14.6486   20.5828 C   0  0  0  0  0  0
  -30.4308  -12.4218   19.4622 C   0  0  0  0  0  0
  -29.5077  -12.5261   18.2288 C   0  0  0  0  0  0
  -28.0317  -12.3493   18.6336 C   0  0  0  0  0  0
  -27.6488  -13.2212   19.8571 C   0  0  2  0  0  0
  -28.6835  -13.0792   20.9895 C   0  0  0  0  0  0
  -25.2544  -13.8185   20.5675 C   0  0  0  0  0  0
  -24.1817  -13.0440   20.9174 C   0  0  0  0  0  0
  -24.6391  -11.6912   20.8719 C   0  0  0  0  0  0
  -23.9064  -10.4295   21.0399 C   0  0  0  0  0  0
  -24.3617   -9.4211   21.9177 C   0  0  0  0  0  0
  -23.6292   -8.2247   22.0752 C   0  0  0  0  0  0
  -22.4273   -8.0283   21.3545 C   0  0  0  0  0  0
  -21.9907   -9.0255   20.4647 C   0  0  0  0  0  0
  -22.7235  -10.2134   20.3052 C   0  0  0  0  0  0
  -21.6854   -6.0738   22.5280 C   0  0  0  0  0  0
  -21.4016   -6.5643   23.8213 C   0  0  0  0  0  0
  -21.3657   -5.6794   24.9175 C   0  0  0  0  0  0
  -21.6042   -4.3056   24.7226 C   0  0  0  0  0  0
  -21.8817   -3.8148   23.4347 C   0  0  0  0  0  0
  -21.9194   -4.6966   22.3404 C   0  0  0  0  0  0
  -22.7843  -13.5231   21.1854 C   0  0  0  0  0  0
  -22.1660   -4.2151   21.0981 F   0  0  0  0  0  0
  -21.5624   -3.4540   25.7738 F   0  0  0  0  0  0
  -30.0042  -13.4425   20.4476 N   0  0  0  0  0  0
  -26.2957  -12.9369   20.3260 N   0  0  0  0  0  0
  -25.9314  -11.6518   20.5710 N   0  0  0  0  0  0
  -22.0498  -12.8220   22.0418 N   0  0  0  0  0  0
  -25.4282  -15.1910   20.4146 N   0  0  0  0  0  0
  -31.7612  -14.8176   20.0489 O   0  0  0  0  0  0
  -21.6639   -6.8879   21.4241 O   0  0  0  0  0  0
  -22.3525  -14.5540   20.6710 O   0  0  0  0  0  0
  -24.6266  -31.8587   23.2009 C   0  0  0  0  0  0
  -25.9109  -32.4772   23.8346 C   0  0  1  0  0  0
  -27.2231  -27.3123   20.1278 C   0  0  0  0  0  0
  -25.5922  -33.8573   24.2276 N   0  0  0  0  0  0
  -23.4209  -30.4808   21.5436 C   0  0  2  0  0  0
  -24.8684  -28.9308   20.1135 C   0  0  0  0  0  0
  -22.7480  -29.4617   22.4937 C   0  0  0  0  0  0
  -18.0298  -28.1376   22.8485 C   0  0  0  0  0  0
  -24.1490  -36.7292   23.2639 C   0  0  0  0  0  0
  -25.9616  -30.7889   21.3709 C   0  0  0  0  0  0
  -26.0373  -29.4139   20.7168 C   0  0  0  0  0  0
  -27.2209  -28.6172   20.7101 C   0  0  0  0  0  0
  -26.0364  -26.8814   19.4987 C   0  0  0  0  0  0
  -24.8696  -27.6701   19.4945 C   0  0  0  0  0  0
  -23.6366  -29.8120   20.1602 C   0  0  0  0  0  0
  -25.4113  -36.3080   24.0329 C   0  0  1  0  0  0
  -20.5896  -28.3686   23.1289 C   0  0  2  0  0  0
  -20.6795  -26.9411   22.5405 C   0  0  0  0  0  0
  -19.5776  -26.6395   21.5199 C   0  0  0  0  0  0
  -18.1953  -26.7923   22.1614 C   0  0  0  0  0  0
  -19.1546  -28.8846   23.2884 C   0  0  0  0  0  0
  -18.9464  -30.1446   23.8907 C   0  0  0  0  0  0
  -17.6462  -30.6574   24.0567 C   0  0  0  0  0  0
  -25.9049  -34.9449   23.5103 C   0  0  0  0  0  0
  -16.5357  -29.9069   23.6326 C   0  0  0  0  0  0
  -16.7284  -28.6488   23.0348 C   0  0  0  0  0  0
  -26.4497  -31.6579   25.0717 C   0  0  0  0  0  0
  -25.3733  -31.3713   26.1444 C   0  0  0  0  0  0
  -27.0341  -30.3005   24.6165 C   0  0  0  0  0  0
  -27.6055  -32.4312   25.7492 C   0  0  0  0  0  0
  -27.5577  -37.1803   24.8466 C   0  0  0  0  0  0
  -21.4191  -29.3052   22.3690 N   0  0  0  0  0  0
  -26.4292  -37.3774   23.9408 N   0  0  0  0  0  0
  -24.6885  -31.0596   22.0957 N   0  0  0  0  0  0
  -23.4206  -28.8151   23.3011 O   0  0  0  0  0  0
  -28.3350  -26.4585   20.1395 O   0  0  0  0  0  0
  -26.5621  -34.8918   22.4671 O   0  0  0  0  0  0
  -23.5427  -32.1383   23.7338 O   0  0  0  0  0  0
  -29.3297  -18.0700   21.7810 C   0  0  0  0  0  0
  -29.1452  -19.4465   21.4405 C   0  0  0  0  0  0
  -30.1488  -17.5974   19.5842 C   0  0  0  0  0  0
  -29.8542  -17.0866   20.8791 C   0  0  0  0  0  0
  -29.4737  -19.9495   20.1570 C   0  0  0  0  0  0
  -29.9715  -18.9759   19.2418 C   0  0  0  0  0  0
  -30.0015  -15.4271   22.7546 C   0  0  0  0  0  0
  -28.8556  -23.8437   19.8991 C   0  0  0  0  0  0
  -28.1444  -25.0696   20.6364 C   0  0  0  0  0  0
  -28.7725  -22.3772   20.5477 C   0  0  0  0  0  0
  -30.0602  -15.6719   21.3028 N   0  0  0  0  0  0
  -29.3578  -21.2992   19.7382 O   0  0  0  0  0  0
  -30.2946  -19.3743   17.9874 F   0  0  0  0  0  0
  -31.4730  -12.5427   19.1625 H   0  0  0  0  0  0
  -30.3677  -11.4259   19.9034 H   0  0  0  0  0  0
  -29.7847  -11.7767   17.4863 H   0  0  0  0  0  0
  -29.6429  -13.4971   17.7498 H   0  0  0  0  0  0
  -27.8774  -11.2957   18.8691 H   0  0  0  0  0  0
  -27.3772  -12.5714   17.7901 H   0  0  0  0  0  0
  -27.6688  -14.2585   19.5208 H   0  0  0  0  0  0
  -28.7020  -12.0566   21.3686 H   0  0  0  0  0  0
  -28.3770  -13.6951   21.8311 H   0  0  0  0  0  0
  -25.2765   -9.5689   22.4746 H   0  0  0  0  0  0
  -24.0003   -7.4643   22.7474 H   0  0  0  0  0  0
  -21.0834   -8.8773   19.8959 H   0  0  0  0  0  0
  -22.3691  -10.9669   19.6159 H   0  0  0  0  0  0
  -21.2010   -7.6151   23.9718 H   0  0  0  0  0  0
  -21.1480   -6.0525   25.9078 H   0  0  0  0  0  0
  -22.0599   -2.7611   23.2847 H   0  0  0  0  0  0
  -22.4122  -11.9874   22.4787 H   0  0  0  0  0  0
  -21.1124  -13.1252   22.2651 H   0  0  0  0  0  0
  -24.6697  -15.8516   20.5439 H   0  0  0  0  0  0
  -26.2938  -15.6318   20.1298 H   0  0  0  0  0  0
  -26.7177  -32.5449   23.1096 H   0  0  0  0  0  0
  -25.0079  -33.9718   25.0427 H   0  0  0  0  0  0
  -22.7151  -31.3012   21.3986 H   0  0  0  0  0  0
  -23.3749  -35.9628   23.3304 H   0  0  0  0  0  0
  -24.3582  -36.8910   22.2053 H   0  0  0  0  0  0
  -23.7247  -37.6498   23.6658 H   0  0  0  0  0  0
  -26.0901  -31.5500   20.6001 H   0  0  0  0  0  0
  -26.8428  -30.8418   21.9986 H   0  0  0  0  0  0
  -28.1203  -28.9846   21.1842 H   0  0  0  0  0  0
  -26.0053  -25.9163   19.0134 H   0  0  0  0  0  0
  -23.9744  -27.2960   19.0166 H   0  0  0  0  0  0
  -23.7566  -30.5867   19.4022 H   0  0  0  0  0  0
  -22.7565  -29.2417   19.8583 H   0  0  0  0  0  0
  -25.1291  -36.1933   25.0822 H   0  0  0  0  0  0
  -20.9987  -28.3261   24.1411 H   0  0  0  0  0  0
  -20.5696  -26.2293   23.3602 H   0  0  0  0  0  0
  -21.6668  -26.7452   22.1201 H   0  0  0  0  0  0
  -19.6947  -25.6318   21.1205 H   0  0  0  0  0  0
  -19.6715  -27.3227   20.6744 H   0  0  0  0  0  0
  -17.4228  -26.6671   21.4009 H   0  0  0  0  0  0
  -18.0357  -26.0054   22.9001 H   0  0  0  0  0  0
  -19.7935  -30.7259   24.2294 H   0  0  0  0  0  0
  -17.5008  -31.6252   24.5170 H   0  0  0  0  0  0
  -15.5354  -30.2965   23.7643 H   0  0  0  0  0  0
  -15.8690  -28.0801   22.7061 H   0  0  0  0  0  0
  -24.5909  -30.7058   25.7777 H   0  0  0  0  0  0
  -24.8920  -32.2878   26.4869 H   0  0  0  0  0  0
  -25.8061  -30.8896   27.0221 H   0  0  0  0  0  0
  -26.2915  -29.6760   24.1187 H   0  0  0  0  0  0
  -27.4045  -29.7257   25.4664 H   0  0  0  0  0  0
  -27.8780  -30.4300   23.9384 H   0  0  0  0  0  0
  -27.2662  -33.3608   26.2075 H   0  0  0  0  0  0
  -28.3866  -32.6879   25.0323 H   0  0  0  0  0  0
  -28.0724  -31.8434   26.5406 H   0  0  0  0  0  0
  -28.2598  -38.0096   24.7502 H   0  0  0  0  0  0
  -28.1069  -36.2627   24.6301 H   0  0  0  0  0  0
  -27.2297  -37.1463   25.8870 H   0  0  0  0  0  0
  -20.9363  -29.8794   21.6920 H   0  0  0  0  0  0
  -26.0173  -38.2851   24.1400 H   0  0  0  0  0  0
  -29.0539  -17.7933   22.7876 H   0  0  0  0  0  0
  -28.7540  -20.1154   22.1930 H   0  0  0  0  0  0
  -30.5396  -16.9382   18.8233 H   0  0  0  0  0  0
  -28.9843  -15.5525   23.1276 H   0  0  0  0  0  0
  -30.6504  -16.1250   23.2852 H   0  0  0  0  0  0
  -30.3270  -14.4263   23.0477 H   0  0  0  0  0  0
  -29.9097  -24.0914   19.7739 H   0  0  0  0  0  0
  -28.4499  -23.7876   18.8888 H   0  0  0  0  0  0
  -28.5045  -25.0801   21.6655 H   0  0  0  0  0  0
  -27.0847  -24.8310   20.7272 H   0  0  0  0  0  0
  -27.7266  -22.1290   20.7320 H   0  0  0  0  0  0
  -29.2623  -22.3936   21.5216 H   0  0  0  0  0  0
  1 25  1  0  0  0
  1 30  2  0  0  0
  1 81  1  0  0  0
  2  3  1  0  0  0
  2 25  1  0  0  0
  2 84  1  0  0  0
  2 85  1  0  0  0
  3  4  1  0  0  0
  3 86  1  0  0  0
  3 87  1  0  0  0
  4  5  1  0  0  0
  4 88  1  0  0  0
  4 89  1  0  0  0
  5  6  1  0  0  0
  5 26  1  0  0  0
  5 90  1  0  0  0
  6 25  1  0  0  0
  6 91  1  0  0  0
  6 92  1  0  0  0
  7  8  2  0  0  0
  7 26  1  0  0  0
  7 29  1  0  0  0
  8  9  1  0  0  0
  8 22  1  0  0  0
  9 10  1  0  0  0
  9 27  2  0  0  0
 10 11  2  0  0  0
 10 15  1  0  0  0
 11 12  1  0  0  0
 11 93  1  0  0  0
 12 13  2  0  0  0
 12 94  1  0  0  0
 13 14  1  0  0  0
 13 31  1  0  0  0
 14 15  2  0  0  0
 14 95  1  0  0  0
 15 96  1  0  0  0
 16 17  2  0  0  0
 16 21  1  0  0  0
 16 31  1  0  0  0
 17 18  1  0  0  0
 17 97  1  0  0  0
 18 19  2  0  0  0
 18 98  1  0  0  0
 19 20  1  0  0  0
 19 24  1  0  0  0
 20 21  2  0  0  0
 20 99  1  0  0  0
 21 23  1  0  0  0
 22 28  1  0  0  0
 22 32  2  0  0  0
 26 27  1  0  0  0
 28100  1  0  0  0
 28101  1  0  0  0
 29102  1  0  0  0
 29103  1  0  0  0
 33 34  1  0  0  0
 33 66  1  0  0  0
 33 70  2  0  0  0
 34 36  1  0  0  0
 34 59  1  0  0  0
 34104  1  0  0  0
 35 44  2  0  0  0
 35 45  1  0  0  0
 35 68  1  0  0  0
 36 56  1  0  0  0
 36105  1  0  0  0
 37 39  1  0  0  0
 37 47  1  0  0  0
 37 66  1  0  0  0
 37106  1  0  0  0
 38 43  2  0  0  0
 38 46  1  0  0  0
 38 47  1  0  0  0
 39 64  1  0  0  0
 39 67  2  0  0  0
 40 52  1  0  0  0
 40 53  2  0  0  0
 40 58  1  0  0  0
 41107  1  0  0  0
 41108  1  0  0  0
 41109  1  0  0  0
 41 48  1  0  0  0
 42 43  1  0  0  0
 42 66  1  0  0  0
 42110  1  0  0  0
 42111  1  0  0  0
 43 44  1  0  0  0
 44112  1  0  0  0
 45 46  2  0  0  0
 45113  1  0  0  0
 46114  1  0  0  0
 47115  1  0  0  0
 47116  1  0  0  0
 48 56  1  0  0  0
 48 65  1  0  0  0
 48117  1  0  0  0
 49 50  1  0  0  0
 49 53  1  0  0  0
 49 64  1  0  0  0
 49118  1  0  0  0
 50 51  1  0  0  0
 50119  1  0  0  0
 50120  1  0  0  0
 51 52  1  0  0  0
 51121  1  0  0  0
 51122  1  0  0  0
 52123  1  0  0  0
 52124  1  0  0  0
 53 54  1  0  0  0
 54 55  2  0  0  0
 54125  1  0  0  0
 55 57  1  0  0  0
 55126  1  0  0  0
 56 69  2  0  0  0
 57 58  2  0  0  0
 57127  1  0  0  0
 58128  1  0  0  0
 59 60  1  0  0  0
 59 61  1  0  0  0
 59 62  1  0  0  0
 60129  1  0  0  0
 60130  1  0  0  0
 60131  1  0  0  0
 61132  1  0  0  0
 61133  1  0  0  0
 61134  1  0  0  0
 62135  1  0  0  0
 62136  1  0  0  0
 62137  1  0  0  0
 63 65  1  0  0  0
 63138  1  0  0  0
 63139  1  0  0  0
 63140  1  0  0  0
 64141  1  0  0  0
 65142  1  0  0  0
 68 79  1  0  0  0
 71 72  2  0  0  0
 71 74  1  0  0  0
 71143  1  0  0  0
 72 75  1  0  0  0
 72144  1  0  0  0
 73 74  2  0  0  0
 73 76  1  0  0  0
 73145  1  0  0  0
 74 81  1  0  0  0
 75 76  2  0  0  0
 75 82  1  0  0  0
 76 83  1  0  0  0
 77 81  1  0  0  0
 77146  1  0  0  0
 77147  1  0  0  0
 77148  1  0  0  0
 78 79  1  0  0  0
 78 80  1  0  0  0
 78149  1  0  0  0
 78150  1  0  0  0
 79151  1  0  0  0
 79152  1  0  0  0
 80 82  1  0  0  0
 80153  1  0  0  0
 80154  1  0  0  0
M  ISO  4   1 100  68 101  79 101  81 100
M  END
> <chiral flag>
0

> <version>
0

> <s_m_source_file>
/data/baiqing/PycharmProjects/Reinvent-master-3.2/result/LINK_invent/BTK/process_docking_weight1_custom_product_contain_oxygen_bond_distance_aromatic_linkinvent_7_9_3/rearranged_h_0014.sdf

> <i_m_source_file_index>
40

> <r_mmod_Potential_Energy-OPLS-2005>
257.405517578125

> <r_mmod_Stretch_Energy-OPLS-2005>
95.6894149780273

> <r_mmod_Bend_Energy-OPLS-2005>
154.103591918945

> <r_mmod_Torsional_Energy-OPLS-2005>
282.838745117188

> <r_mmod_Improper_Torsional_Energy-OPLS-2005>
2.56682324409485

> <r_mmod_Van_der_Waal_Energy-OPLS-2005>
149.994567871094

> <r_mmod_Electrostatic_Energy-OPLS-2005>
-282.324340820312

> <r_mmod_Solvation_Energy-OPLS-2005>
-194.920669555664

> <b_mmod_Minimization_Converged-OPLS-2005>
0

> <r_mmod_RMS_Derivative-OPLS-2005>
0.661779165267944

$$$$
40
                    3D
 Structure written by MMmdl.
161169  0  0  1  0            999 V2000
  -30.8063  -14.4409   20.6560 C   0  0  0  0  0  0
  -30.3939  -12.3157   19.4563 C   0  0  0  0  0  0
  -29.4933  -12.5400   18.2247 C   0  0  0  0  0  0
  -28.0154  -12.3705   18.6153 C   0  0  0  0  0  0
  -27.6528  -13.2080   19.8680 C   0  0  2  0  0  0
  -28.6824  -12.9983   20.9982 C   0  0  0  0  0  0
  -25.2537  -13.8155   20.5658 C   0  0  0  0  0  0
  -24.1800  -13.0431   20.9135 C   0  0  0  0  0  0
  -24.6351  -11.6898   20.8676 C   0  0  0  0  0  0
  -23.9036  -10.4290   21.0364 C   0  0  0  0  0  0
  -24.3592   -9.4234   21.9160 C   0  0  0  0  0  0
  -23.6271   -8.2277   22.0762 C   0  0  0  0  0  0
  -22.4257   -8.0298   21.3546 C   0  0  0  0  0  0
  -21.9875   -9.0265   20.4650 C   0  0  0  0  0  0
  -22.7198  -10.2139   20.3039 C   0  0  0  0  0  0
  -21.6846   -6.0739   22.5280 C   0  0  0  0  0  0
  -21.4028   -6.5644   23.8216 C   0  0  0  0  0  0
  -21.3672   -5.6792   24.9171 C   0  0  0  0  0  0
  -21.6052   -4.3057   24.7216 C   0  0  0  0  0  0
  -21.8813   -3.8150   23.4334 C   0  0  0  0  0  0
  -21.9194   -4.6970   22.3396 C   0  0  0  0  0  0
  -22.7838  -13.5260   21.1830 C   0  0  0  0  0  0
  -22.1656   -4.2157   21.0972 F   0  0  0  0  0  0
  -21.5629   -3.4545   25.7730 F   0  0  0  0  0  0
  -30.0290  -13.3198   20.4819 N   0  0  0  0  0  0
  -26.2947  -12.9320   20.3270 N   0  0  0  0  0  0
  -25.9268  -11.6474   20.5675 N   0  0  0  0  0  0
  -22.0473  -12.8271   22.0393 N   0  0  0  0  0  0
  -25.4241  -15.1880   20.4165 N   0  0  0  0  0  0
  -31.8838  -14.5311   20.0528 O   0  0  0  0  0  0
  -21.6637   -6.8881   21.4240 O   0  0  0  0  0  0
  -22.3546  -14.5583   20.6694 O   0  0  0  0  0  0
  -24.6126  -31.8701   23.2104 C   0  0  0  0  0  0
  -25.9051  -32.4813   23.8400 C   0  0  1  0  0  0
  -27.2510  -27.4492   20.0950 C   0  0  0  0  0  0
  -25.5966  -33.8616   24.2346 N   0  0  0  0  0  0
  -23.3981  -30.4900   21.5485 C   0  0  2  0  0  0
  -24.8493  -28.9559   20.1187 C   0  0  0  0  0  0
  -22.7391  -29.4638   22.4989 C   0  0  0  0  0  0
  -18.0254  -28.1399   22.8496 C   0  0  0  0  0  0
  -24.1485  -36.7215   23.2643 C   0  0  0  0  0  0
  -25.9275  -30.8410   21.3604 C   0  0  0  0  0  0
  -26.0074  -29.4754   20.7070 C   0  0  0  0  0  0
  -27.2061  -28.7321   20.6879 C   0  0  0  0  0  0
  -26.0669  -26.9324   19.5180 C   0  0  0  0  0  0
  -24.8731  -27.6830   19.5241 C   0  0  0  0  0  0
  -23.6091  -29.8191   20.1631 C   0  0  0  0  0  0
  -25.4132  -36.3090   24.0339 C   0  0  1  0  0  0
  -20.5842  -28.3640   23.1346 C   0  0  2  0  0  0
  -20.6739  -26.9386   22.5414 C   0  0  0  0  0  0
  -19.5737  -26.6398   21.5204 C   0  0  0  0  0  0
  -18.1915  -26.7954   22.1614 C   0  0  0  0  0  0
  -19.1503  -28.8839   23.2909 C   0  0  0  0  0  0
  -18.9453  -30.1460   23.8895 C   0  0  0  0  0  0
  -17.6464  -30.6609   24.0580 C   0  0  0  0  0  0
  -25.9088  -34.9466   23.5126 C   0  0  0  0  0  0
  -16.5342  -29.9141   23.6332 C   0  0  0  0  0  0
  -16.7239  -28.6550   23.0345 C   0  0  0  0  0  0
  -26.4499  -31.6559   25.0715 C   0  0  0  0  0  0
  -25.3781  -31.3609   26.1463 C   0  0  0  0  0  0
  -27.0306  -30.3018   24.6058 C   0  0  0  0  0  0
  -27.6088  -32.4228   25.7512 C   0  0  0  0  0  0
  -27.5579  -37.1772   24.8505 C   0  0  0  0  0  0
  -21.4117  -29.2995   22.3747 N   0  0  0  0  0  0
  -26.4307  -37.3791   23.9435 N   0  0  0  0  0  0
  -24.6629  -31.0854   22.0965 N   0  0  0  0  0  0
  -23.4166  -28.8173   23.3023 O   0  0  0  0  0  0
  -28.4706  -26.7992   20.0946 O   0  0  0  0  0  0
  -26.5622  -34.8928   22.4668 O   0  0  0  0  0  0
  -23.5319  -32.1398   23.7535 O   0  0  0  0  0  0
  -30.3551  -18.7805   22.6159 C   0  0  0  0  0  0
  -29.9595  -18.8911   20.2265 C   0  0  0  0  0  0
  -29.8311  -20.0814   22.7618 C   0  0  0  0  0  0
  -29.4581  -20.2037   20.3721 C   0  0  0  0  0  0
  -30.4165  -18.1624   21.3494 C   0  0  0  0  0  0
  -29.3796  -20.8229   21.6444 C   0  0  0  0  0  0
  -27.8668  -22.2685   22.8739 C   0  0  0  0  0  0
  -29.6876  -15.4497   22.6520 C   0  0  0  0  0  0
  -31.1228  -16.8134   21.1668 C   0  0  0  0  0  0
  -28.6103  -24.5288   21.0262 C   0  0  0  0  0  0
  -28.8306  -23.0368   20.6670 C   0  0  0  0  0  0
  -28.5950  -25.4140   19.7657 C   0  0  0  0  0  0
  -28.8804  -22.1354   21.8249 N   0  0  0  0  0  0
  -30.3634  -15.5365   21.3509 N   0  0  0  0  0  0
  -31.4424  -12.3557   19.1590 H   0  0  0  0  0  0
  -30.2572  -11.3061   19.8494 H   0  0  0  0  0  0
  -29.7605  -11.8459   17.4269 H   0  0  0  0  0  0
  -29.6513  -13.5433   17.8228 H   0  0  0  0  0  0
  -27.8399  -11.3109   18.8084 H   0  0  0  0  0  0
  -27.3697  -12.6390   17.7778 H   0  0  0  0  0  0
  -27.6930  -14.2565   19.5726 H   0  0  0  0  0  0
  -28.6581  -11.9598   21.3338 H   0  0  0  0  0  0
  -28.3640  -13.5543   21.8690 H   0  0  0  0  0  0
  -25.2735   -9.5730   22.4723 H   0  0  0  0  0  0
  -23.9989   -7.4674   22.7481 H   0  0  0  0  0  0
  -21.0814   -8.8765   19.8956 H   0  0  0  0  0  0
  -22.3637  -10.9672   19.6147 H   0  0  0  0  0  0
  -21.2030   -7.6150   23.9720 H   0  0  0  0  0  0
  -21.1500   -6.0519   25.9072 H   0  0  0  0  0  0
  -22.0579   -2.7617   23.2825 H   0  0  0  0  0  0
  -22.4045  -11.9916   22.4769 H   0  0  0  0  0  0
  -21.1107  -13.1343   22.2595 H   0  0  0  0  0  0
  -24.6580  -15.8404   20.5457 H   0  0  0  0  0  0
  -26.2936  -15.6425   20.1644 H   0  0  0  0  0  0
  -26.7126  -32.5500   23.1163 H   0  0  0  0  0  0
  -25.0205  -33.9799   25.0558 H   0  0  0  0  0  0
  -22.6835  -31.3017   21.4047 H   0  0  0  0  0  0
  -23.3809  -35.9486   23.3377 H   0  0  0  0  0  0
  -24.3574  -36.8749   22.2045 H   0  0  0  0  0  0
  -23.7186  -37.6419   23.6595 H   0  0  0  0  0  0
  -26.0608  -31.6109   20.5985 H   0  0  0  0  0  0
  -26.8091  -30.8833   21.9857 H   0  0  0  0  0  0
  -28.1011  -29.1419   21.1325 H   0  0  0  0  0  0
  -26.0271  -25.9608   19.0518 H   0  0  0  0  0  0
  -23.9777  -27.2737   19.0767 H   0  0  0  0  0  0
  -23.7156  -30.5876   19.3975 H   0  0  0  0  0  0
  -22.7354  -29.2365   19.8651 H   0  0  0  0  0  0
  -25.1324  -36.1941   25.0833 H   0  0  0  0  0  0
  -20.9929  -28.3199   24.1469 H   0  0  0  0  0  0
  -20.5683  -26.2223   23.3574 H   0  0  0  0  0  0
  -21.6618  -26.7467   22.1208 H   0  0  0  0  0  0
  -19.6907  -25.6327   21.1213 H   0  0  0  0  0  0
  -19.6721  -27.3236   20.6760 H   0  0  0  0  0  0
  -17.4182  -26.6664   21.4016 H   0  0  0  0  0  0
  -18.0325  -26.0094   22.9013 H   0  0  0  0  0  0
  -19.7923  -30.7272   24.2255 H   0  0  0  0  0  0
  -17.5030  -31.6302   24.5183 H   0  0  0  0  0  0
  -15.5356  -30.3077   23.7672 H   0  0  0  0  0  0
  -15.8599  -28.0912   22.7064 H   0  0  0  0  0  0
  -24.5991  -30.6939   25.7787 H   0  0  0  0  0  0
  -24.8931  -32.2713   26.4962 H   0  0  0  0  0  0
  -25.8175  -30.8730   27.0170 H   0  0  0  0  0  0
  -26.2792  -29.6810   24.1166 H   0  0  0  0  0  0
  -27.4159  -29.7247   25.4476 H   0  0  0  0  0  0
  -27.8631  -30.4378   23.9156 H   0  0  0  0  0  0
  -27.2763  -33.3526   26.2145 H   0  0  0  0  0  0
  -28.3935  -32.6789   25.0379 H   0  0  0  0  0  0
  -28.0734  -31.8285   26.5410 H   0  0  0  0  0  0
  -28.2662  -38.0017   24.7568 H   0  0  0  0  0  0
  -28.1012  -36.2560   24.6325 H   0  0  0  0  0  0
  -27.2279  -37.1422   25.8907 H   0  0  0  0  0  0
  -20.9265  -29.8620   21.6898 H   0  0  0  0  0  0
  -26.0186  -38.2857   24.1474 H   0  0  0  0  0  0
  -30.7436  -18.2769   23.4888 H   0  0  0  0  0  0
  -30.0321  -18.4728   19.2321 H   0  0  0  0  0  0
  -29.8052  -20.5196   23.7487 H   0  0  0  0  0  0
  -29.1396  -20.7236   19.4822 H   0  0  0  0  0  0
  -27.4389  -21.3103   23.1725 H   0  0  0  0  0  0
  -27.0316  -22.8851   22.5437 H   0  0  0  0  0  0
  -28.2963  -22.7425   23.7559 H   0  0  0  0  0  0
  -29.8628  -14.4913   23.1442 H   0  0  0  0  0  0
  -28.6157  -15.6159   22.5369 H   0  0  0  0  0  0
  -30.0415  -16.1980   23.3540 H   0  0  0  0  0  0
  -31.9780  -16.7963   21.8453 H   0  0  0  0  0  0
  -31.5529  -16.8680   20.1636 H   0  0  0  0  0  0
  -29.4025  -24.8670   21.6973 H   0  0  0  0  0  0
  -27.6734  -24.6751   21.5629 H   0  0  0  0  0  0
  -29.7715  -22.9527   20.1178 H   0  0  0  0  0  0
  -28.0473  -22.7043   19.9844 H   0  0  0  0  0  0
  -27.8687  -25.0565   19.0387 H   0  0  0  0  0  0
  -29.5583  -25.3080   19.2670 H   0  0  0  0  0  0
  1 25  1  0  0  0
  1 30  2  0  0  0
  1 84  1  0  0  0
  2  3  1  0  0  0
  2 25  1  0  0  0
  2 85  1  0  0  0
  2 86  1  0  0  0
  3  4  1  0  0  0
  3 87  1  0  0  0
  3 88  1  0  0  0
  4  5  1  0  0  0
  4 89  1  0  0  0
  4 90  1  0  0  0
  5  6  1  0  0  0
  5 26  1  0  0  0
  5 91  1  0  0  0
  6 25  1  0  0  0
  6 92  1  0  0  0
  6 93  1  0  0  0
  7  8  2  0  0  0
  7 26  1  0  0  0
  7 29  1  0  0  0
  8  9  1  0  0  0
  8 22  1  0  0  0
  9 10  1  0  0  0
  9 27  2  0  0  0
 10 11  2  0  0  0
 10 15  1  0  0  0
 11 12  1  0  0  0
 11 94  1  0  0  0
 12 13  2  0  0  0
 12 95  1  0  0  0
 13 14  1  0  0  0
 13 31  1  0  0  0
 14 15  2  0  0  0
 14 96  1  0  0  0
 15 97  1  0  0  0
 16 17  2  0  0  0
 16 21  1  0  0  0
 16 31  1  0  0  0
 17 18  1  0  0  0
 17 98  1  0  0  0
 18 19  2  0  0  0
 18 99  1  0  0  0
 19 20  1  0  0  0
 19 24  1  0  0  0
 20 21  2  0  0  0
 20100  1  0  0  0
 21 23  1  0  0  0
 22 28  1  0  0  0
 22 32  2  0  0  0
 26 27  1  0  0  0
 28101  1  0  0  0
 28102  1  0  0  0
 29103  1  0  0  0
 29104  1  0  0  0
 33 34  1  0  0  0
 33 66  1  0  0  0
 33 70  2  0  0  0
 34 36  1  0  0  0
 34 59  1  0  0  0
 34105  1  0  0  0
 35 44  2  0  0  0
 35 45  1  0  0  0
 35 68  1  0  0  0
 36 56  1  0  0  0
 36106  1  0  0  0
 37 39  1  0  0  0
 37 47  1  0  0  0
 37 66  1  0  0  0
 37107  1  0  0  0
 38 43  2  0  0  0
 38 46  1  0  0  0
 38 47  1  0  0  0
 39 64  1  0  0  0
 39 67  2  0  0  0
 40 52  1  0  0  0
 40 53  2  0  0  0
 40 58  1  0  0  0
 41108  1  0  0  0
 41109  1  0  0  0
 41110  1  0  0  0
 41 48  1  0  0  0
 42 43  1  0  0  0
 42 66  1  0  0  0
 42111  1  0  0  0
 42112  1  0  0  0
 43 44  1  0  0  0
 44113  1  0  0  0
 45 46  2  0  0  0
 45114  1  0  0  0
 46115  1  0  0  0
 47116  1  0  0  0
 47117  1  0  0  0
 48 56  1  0  0  0
 48 65  1  0  0  0
 48118  1  0  0  0
 49 50  1  0  0  0
 49 53  1  0  0  0
 49 64  1  0  0  0
 49119  1  0  0  0
 50 51  1  0  0  0
 50120  1  0  0  0
 50121  1  0  0  0
 51 52  1  0  0  0
 51122  1  0  0  0
 51123  1  0  0  0
 52124  1  0  0  0
 52125  1  0  0  0
 53 54  1  0  0  0
 54 55  2  0  0  0
 54126  1  0  0  0
 55 57  1  0  0  0
 55127  1  0  0  0
 56 69  2  0  0  0
 57 58  2  0  0  0
 57128  1  0  0  0
 58129  1  0  0  0
 59 60  1  0  0  0
 59 61  1  0  0  0
 59 62  1  0  0  0
 60130  1  0  0  0
 60131  1  0  0  0
 60132  1  0  0  0
 61133  1  0  0  0
 61134  1  0  0  0
 61135  1  0  0  0
 62136  1  0  0  0
 62137  1  0  0  0
 62138  1  0  0  0
 63 65  1  0  0  0
 63139  1  0  0  0
 63140  1  0  0  0
 63141  1  0  0  0
 64142  1  0  0  0
 65143  1  0  0  0
 68 82  1  0  0  0
 71 73  2  0  0  0
 71 75  1  0  0  0
 71144  1  0  0  0
 72 74  1  0  0  0
 72 75  2  0  0  0
 72145  1  0  0  0
 73 76  1  0  0  0
 73146  1  0  0  0
 74 76  2  0  0  0
 74147  1  0  0  0
 75 79  1  0  0  0
 76 83  1  0  0  0
 77 83  1  0  0  0
 77148  1  0  0  0
 77149  1  0  0  0
 77150  1  0  0  0
 78 84  1  0  0  0
 78151  1  0  0  0
 78152  1  0  0  0
 78153  1  0  0  0
 79 84  1  0  0  0
 79154  1  0  0  0
 79155  1  0  0  0
 80 81  1  0  0  0
 80 82  1  0  0  0
 80156  1  0  0  0
 80157  1  0  0  0
 81 83  1  0  0  0
 81158  1  0  0  0
 81159  1  0  0  0
 82160  1  0  0  0
 82161  1  0  0  0
M  ISO  4   1 100  68 101  82 101  84 100
M  END
> <chiral flag>
0

> <version>
0

> <s_m_source_file>
/data/baiqing/PycharmProjects/Reinvent-master-3.2/result/LINK_invent/BTK/process_docking_weight1_custom_product_contain_oxygen_bond_distance_aromatic_linkinvent_7_9_3/rearranged_h_0014.sdf

> <i_m_source_file_index>
41

> <r_mmod_Potential_Energy-OPLS-2005>
100.385414123535

> <r_mmod_Stretch_Energy-OPLS-2005>
46.212100982666

> <r_mmod_Bend_Energy-OPLS-2005>
142.126251220703

> <r_mmod_Torsional_Energy-OPLS-2005>
238.704498291016

> <r_mmod_Improper_Torsional_Energy-OPLS-2005>
7.92415904998779

> <r_mmod_Van_der_Waal_Energy-OPLS-2005>
180.791030883789

> <r_mmod_Electrostatic_Energy-OPLS-2005>
-317.921661376953

> <r_mmod_Solvation_Energy-OPLS-2005>
-212.284820556641

> <b_mmod_Minimization_Converged-OPLS-2005>
0

> <r_mmod_RMS_Derivative-OPLS-2005>
4.60344171524048

$$$$
41
                    3D
 Structure written by MMmdl.
162170  0  0  1  0            999 V2000
  -30.7555  -14.4121   20.6627 C   0  0  0  0  0  0
  -30.4123  -12.3016   19.4194 C   0  0  0  0  0  0
  -29.4979  -12.5202   18.1988 C   0  0  0  0  0  0
  -28.0141  -12.3899   18.5926 C   0  0  0  0  0  0
  -27.6578  -13.2126   19.8574 C   0  0  2  0  0  0
  -28.6828  -12.9791   20.9821 C   0  0  0  0  0  0
  -25.2584  -13.8192   20.5631 C   0  0  0  0  0  0
  -24.1853  -13.0453   20.9136 C   0  0  0  0  0  0
  -24.6409  -11.6924   20.8706 C   0  0  0  0  0  0
  -23.9065  -10.4301   21.0397 C   0  0  0  0  0  0
  -24.3623   -9.4219   21.9179 C   0  0  0  0  0  0
  -23.6309   -8.2251   22.0748 C   0  0  0  0  0  0
  -22.4285   -8.0286   21.3538 C   0  0  0  0  0  0
  -21.9907   -9.0260   20.4646 C   0  0  0  0  0  0
  -22.7226  -10.2142   20.3055 C   0  0  0  0  0  0
  -21.6865   -6.0741   22.5281 C   0  0  0  0  0  0
  -21.4011   -6.5637   23.8217 C   0  0  0  0  0  0
  -21.3664   -5.6793   24.9177 C   0  0  0  0  0  0
  -21.6049   -4.3053   24.7229 C   0  0  0  0  0  0
  -21.8821   -3.8148   23.4344 C   0  0  0  0  0  0
  -21.9190   -4.6971   22.3406 C   0  0  0  0  0  0
  -22.7867  -13.5231   21.1865 C   0  0  0  0  0  0
  -22.1665   -4.2146   21.0985 F   0  0  0  0  0  0
  -21.5632   -3.4540   25.7740 F   0  0  0  0  0  0
  -30.0300  -13.2732   20.4583 N   0  0  0  0  0  0
  -26.2991  -12.9368   20.3207 N   0  0  0  0  0  0
  -25.9316  -11.6520   20.5639 N   0  0  0  0  0  0
  -22.0514  -12.8236   22.0418 N   0  0  0  0  0  0
  -25.4331  -15.1915   20.4100 N   0  0  0  0  0  0
  -31.8126  -14.6350   20.0607 O   0  0  0  0  0  0
  -21.6648   -6.8883   21.4243 O   0  0  0  0  0  0
  -22.3540  -14.5564   20.6722 O   0  0  0  0  0  0
  -24.6184  -31.8634   23.2065 C   0  0  0  0  0  0
  -25.9061  -32.4807   23.8382 C   0  0  1  0  0  0
  -27.2396  -27.4263   20.0864 C   0  0  0  0  0  0
  -25.5893  -33.8607   24.2304 N   0  0  0  0  0  0
  -23.4062  -30.4879   21.5488 C   0  0  2  0  0  0
  -24.8516  -28.9425   20.1240 C   0  0  0  0  0  0
  -22.7413  -29.4655   22.4998 C   0  0  0  0  0  0
  -18.0274  -28.1393   22.8486 C   0  0  0  0  0  0
  -24.1476  -36.7317   23.2644 C   0  0  0  0  0  0
  -25.9329  -30.8323   21.3523 C   0  0  0  0  0  0
  -26.0161  -29.4615   20.7056 C   0  0  0  0  0  0
  -27.2183  -28.7137   20.6742 C   0  0  0  0  0  0
  -26.0522  -26.9105   19.5272 C   0  0  0  0  0  0
  -24.8642  -27.6658   19.5359 C   0  0  0  0  0  0
  -23.6146  -29.8130   20.1649 C   0  0  0  0  0  0
  -25.4092  -36.3113   24.0347 C   0  0  1  0  0  0
  -20.5865  -28.3676   23.1306 C   0  0  2  0  0  0
  -20.6774  -26.9411   22.5417 C   0  0  0  0  0  0
  -19.5747  -26.6385   21.5221 C   0  0  0  0  0  0
  -18.1914  -26.7938   22.1625 C   0  0  0  0  0  0
  -19.1525  -28.8851   23.2899 C   0  0  0  0  0  0
  -18.9465  -30.1461   23.8901 C   0  0  0  0  0  0
  -17.6467  -30.6603   24.0564 C   0  0  0  0  0  0
  -25.9021  -34.9480   23.5118 C   0  0  0  0  0  0
  -16.5350  -29.9106   23.6335 C   0  0  0  0  0  0
  -16.7265  -28.6528   23.0346 C   0  0  0  0  0  0
  -26.4472  -31.6608   25.0726 C   0  0  0  0  0  0
  -25.3718  -31.3709   26.1469 C   0  0  0  0  0  0
  -27.0318  -30.3080   24.6059 C   0  0  0  0  0  0
  -27.6067  -32.4318   25.7458 C   0  0  0  0  0  0
  -27.5581  -37.1797   24.8463 C   0  0  0  0  0  0
  -21.4146  -29.3027   22.3719 N   0  0  0  0  0  0
  -26.4280  -37.3806   23.9426 N   0  0  0  0  0  0
  -24.6723  -31.0759   22.0950 N   0  0  0  0  0  0
  -23.4169  -28.8204   23.3056 O   0  0  0  0  0  0
  -28.4073  -26.6932   20.0385 O   0  0  0  0  0  0
  -26.5610  -34.8940   22.4690 O   0  0  0  0  0  0
  -23.5378  -32.1376   23.7473 O   0  0  0  0  0  0
  -30.0142  -18.4724   19.3727 C   0  0  0  0  0  0
  -29.9631  -17.1192   19.7825 C   0  0  0  0  0  0
  -30.3749  -19.1469   21.6663 C   0  0  0  0  0  0
  -30.2437  -19.5032   20.3101 C   0  0  0  0  0  0
  -30.1819  -16.7399   21.1375 C   0  0  0  0  0  0
  -30.3576  -17.7985   22.0770 C   0  0  0  0  0  0
  -30.2589  -14.9546   22.9440 C   0  0  0  0  0  0
  -28.4251  -21.3186   18.5263 C   0  0  0  0  0  0
  -30.4564  -20.9680   19.8872 C   0  0  0  0  0  0
  -28.2191  -24.1495   19.8533 C   0  0  0  0  0  0
  -29.4875  -23.2569   19.6869 C   0  0  0  0  0  0
  -28.3891  -25.4322   20.7273 C   0  0  0  0  0  0
  -30.2465  -15.3346   21.5189 N   0  0  0  0  0  0
  -29.2175  -21.7791   19.6944 N   0  3  1  0  0  0
  -30.5519  -17.5641   23.3946 F   0  0  0  0  0  0
  -31.4604  -12.3861   19.1235 H   0  0  0  0  0  0
  -30.3006  -11.2847   19.7977 H   0  0  0  0  0  0
  -29.7434  -11.8051   17.4099 H   0  0  0  0  0  0
  -29.6856  -13.5110   17.7803 H   0  0  0  0  0  0
  -27.8065  -11.3325   18.7632 H   0  0  0  0  0  0
  -27.3818  -12.6959   17.7591 H   0  0  0  0  0  0
  -27.7085  -14.2670   19.5812 H   0  0  0  0  0  0
  -28.6403  -11.9453   21.3293 H   0  0  0  0  0  0
  -28.3938  -13.5849   21.8372 H   0  0  0  0  0  0
  -25.2771   -9.5705   22.4743 H   0  0  0  0  0  0
  -24.0024   -7.4640   22.7461 H   0  0  0  0  0  0
  -21.0831   -8.8777   19.8961 H   0  0  0  0  0  0
  -22.3679  -10.9684   19.6170 H   0  0  0  0  0  0
  -21.2005   -7.6140   23.9717 H   0  0  0  0  0  0
  -21.1490   -6.0522   25.9082 H   0  0  0  0  0  0
  -22.0599   -2.7605   23.2850 H   0  0  0  0  0  0
  -22.4119  -11.9895   22.4821 H   0  0  0  0  0  0
  -21.1126  -13.1283   22.2622 H   0  0  0  0  0  0
  -24.6787  -15.8535   20.5426 H   0  0  0  0  0  0
  -26.2991  -15.6295   20.1253 H   0  0  0  0  0  0
  -26.7110  -32.5533   23.1142 H   0  0  0  0  0  0
  -25.0052  -33.9752   25.0458 H   0  0  0  0  0  0
  -22.6955  -31.3051   21.4041 H   0  0  0  0  0  0
  -23.3753  -35.9640   23.3313 H   0  0  0  0  0  0
  -24.3554  -36.8931   22.2053 H   0  0  0  0  0  0
  -23.7208  -37.6519   23.6644 H   0  0  0  0  0  0
  -26.0244  -31.5872   20.5702 H   0  0  0  0  0  0
  -26.8274  -30.9023   21.9587 H   0  0  0  0  0  0
  -28.1276  -29.1141   21.1009 H   0  0  0  0  0  0
  -26.0432  -25.9283   19.0765 H   0  0  0  0  0  0
  -23.9649  -27.2530   19.1000 H   0  0  0  0  0  0
  -23.7229  -30.5811   19.3970 H   0  0  0  0  0  0
  -22.7364  -29.2329   19.8782 H   0  0  0  0  0  0
  -25.1263  -36.1981   25.0844 H   0  0  0  0  0  0
  -20.9944  -28.3248   24.1444 H   0  0  0  0  0  0
  -20.5660  -26.2287   23.3612 H   0  0  0  0  0  0
  -21.6644  -26.7449   22.1216 H   0  0  0  0  0  0
  -19.6904  -25.6289   21.1262 H   0  0  0  0  0  0
  -19.6707  -27.3193   20.6744 H   0  0  0  0  0  0
  -17.4189  -26.6683   21.4033 H   0  0  0  0  0  0
  -18.0334  -26.0082   22.9018 H   0  0  0  0  0  0
  -19.7931  -30.7288   24.2262 H   0  0  0  0  0  0
  -17.5018  -31.6283   24.5177 H   0  0  0  0  0  0
  -15.5350  -30.3018   23.7676 H   0  0  0  0  0  0
  -15.8658  -28.0870   22.7053 H   0  0  0  0  0  0
  -24.5903  -30.7038   25.7798 H   0  0  0  0  0  0
  -24.8893  -32.2866   26.4909 H   0  0  0  0  0  0
  -25.8079  -30.8885   27.0223 H   0  0  0  0  0  0
  -26.2858  -29.6823   24.1139 H   0  0  0  0  0  0
  -27.4164  -29.7340   25.4496 H   0  0  0  0  0  0
  -27.8644  -30.4477   23.9156 H   0  0  0  0  0  0
  -27.2728  -33.3626   26.2051 H   0  0  0  0  0  0
  -28.3859  -32.6845   25.0253 H   0  0  0  0  0  0
  -28.0725  -31.8403   26.5350 H   0  0  0  0  0  0
  -28.2599  -38.0101   24.7560 H   0  0  0  0  0  0
  -28.1078  -36.2645   24.6224 H   0  0  0  0  0  0
  -27.2308  -37.1378   25.8868 H   0  0  0  0  0  0
  -20.9324  -29.8742   21.6930 H   0  0  0  0  0  0
  -26.0184  -38.2882   24.1477 H   0  0  0  0  0  0
  -29.9027  -18.7050   18.3220 H   0  0  0  0  0  0
  -29.7901  -16.3704   19.0222 H   0  0  0  0  0  0
  -30.5453  -19.9110   22.4120 H   0  0  0  0  0  0
  -29.4129  -15.3977   23.4717 H   0  0  0  0  0  0
  -31.1844  -15.2739   23.4198 H   0  0  0  0  0  0
  -30.1994  -13.8794   23.1149 H   0  0  0  0  0  0
  -28.0762  -20.2966   18.6808 H   0  0  0  0  0  0
  -29.0179  -21.3370   17.6102 H   0  0  0  0  0  0
  -27.5356  -21.9267   18.3683 H   0  0  0  0  0  0
  -31.0700  -21.0133   18.9865 H   0  0  0  0  0  0
  -31.0623  -21.4303   20.6678 H   0  0  0  0  0  0
  -27.4411  -23.5514   20.3254 H   0  0  0  0  0  0
  -27.8205  -24.4032   18.8688 H   0  0  0  0  0  0
  -30.1861  -23.4790   20.4961 H   0  0  0  0  0  0
  -30.0114  -23.5350   18.7684 H   0  0  0  0  0  0
  -27.5987  -25.4434   21.4820 H   0  0  0  0  0  0
  -29.3149  -25.3699   21.3009 H   0  0  0  0  0  0
  -28.6572  -21.5992   20.5121 H   0  0  0  0  0  0
  1 25  1  0  0  0
  1 30  2  0  0  0
  1 83  1  0  0  0
  2  3  1  0  0  0
  2 25  1  0  0  0
  2 86  1  0  0  0
  2 87  1  0  0  0
  3  4  1  0  0  0
  3 88  1  0  0  0
  3 89  1  0  0  0
  4  5  1  0  0  0
  4 90  1  0  0  0
  4 91  1  0  0  0
  5  6  1  0  0  0
  5 26  1  0  0  0
  5 92  1  0  0  0
  6 25  1  0  0  0
  6 93  1  0  0  0
  6 94  1  0  0  0
  7  8  2  0  0  0
  7 26  1  0  0  0
  7 29  1  0  0  0
  8  9  1  0  0  0
  8 22  1  0  0  0
  9 10  1  0  0  0
  9 27  2  0  0  0
 10 11  2  0  0  0
 10 15  1  0  0  0
 11 12  1  0  0  0
 11 95  1  0  0  0
 12 13  2  0  0  0
 12 96  1  0  0  0
 13 14  1  0  0  0
 13 31  1  0  0  0
 14 15  2  0  0  0
 14 97  1  0  0  0
 15 98  1  0  0  0
 16 17  2  0  0  0
 16 21  1  0  0  0
 16 31  1  0  0  0
 17 18  1  0  0  0
 17 99  1  0  0  0
 18 19  2  0  0  0
 18100  1  0  0  0
 19 20  1  0  0  0
 19 24  1  0  0  0
 20 21  2  0  0  0
 20101  1  0  0  0
 21 23  1  0  0  0
 22 28  1  0  0  0
 22 32  2  0  0  0
 26 27  1  0  0  0
 28102  1  0  0  0
 28103  1  0  0  0
 29104  1  0  0  0
 29105  1  0  0  0
 33 34  1  0  0  0
 33 66  1  0  0  0
 33 70  2  0  0  0
 34 36  1  0  0  0
 34 59  1  0  0  0
 34106  1  0  0  0
 35 44  2  0  0  0
 35 45  1  0  0  0
 35 68  1  0  0  0
 36 56  1  0  0  0
 36107  1  0  0  0
 37 39  1  0  0  0
 37 47  1  0  0  0
 37 66  1  0  0  0
 37108  1  0  0  0
 38 43  2  0  0  0
 38 46  1  0  0  0
 38 47  1  0  0  0
 39 64  1  0  0  0
 39 67  2  0  0  0
 40 52  1  0  0  0
 40 53  2  0  0  0
 40 58  1  0  0  0
 41109  1  0  0  0
 41110  1  0  0  0
 41111  1  0  0  0
 41 48  1  0  0  0
 42 43  1  0  0  0
 42 66  1  0  0  0
 42112  1  0  0  0
 42113  1  0  0  0
 43 44  1  0  0  0
 44114  1  0  0  0
 45 46  2  0  0  0
 45115  1  0  0  0
 46116  1  0  0  0
 47117  1  0  0  0
 47118  1  0  0  0
 48 56  1  0  0  0
 48 65  1  0  0  0
 48119  1  0  0  0
 49 50  1  0  0  0
 49 53  1  0  0  0
 49 64  1  0  0  0
 49120  1  0  0  0
 50 51  1  0  0  0
 50121  1  0  0  0
 50122  1  0  0  0
 51 52  1  0  0  0
 51123  1  0  0  0
 51124  1  0  0  0
 52125  1  0  0  0
 52126  1  0  0  0
 53 54  1  0  0  0
 54 55  2  0  0  0
 54127  1  0  0  0
 55 57  1  0  0  0
 55128  1  0  0  0
 56 69  2  0  0  0
 57 58  2  0  0  0
 57129  1  0  0  0
 58130  1  0  0  0
 59 60  1  0  0  0
 59 61  1  0  0  0
 59 62  1  0  0  0
 60131  1  0  0  0
 60132  1  0  0  0
 60133  1  0  0  0
 61134  1  0  0  0
 61135  1  0  0  0
 61136  1  0  0  0
 62137  1  0  0  0
 62138  1  0  0  0
 62139  1  0  0  0
 63 65  1  0  0  0
 63140  1  0  0  0
 63141  1  0  0  0
 63142  1  0  0  0
 64143  1  0  0  0
 65144  1  0  0  0
 68 82  1  0  0  0
 71 72  2  0  0  0
 71 74  1  0  0  0
 71145  1  0  0  0
 72 75  1  0  0  0
 72146  1  0  0  0
 73 74  2  0  0  0
 73 76  1  0  0  0
 73147  1  0  0  0
 74 79  1  0  0  0
 75 76  2  0  0  0
 75 83  1  0  0  0
 76 85  1  0  0  0
 77 83  1  0  0  0
 77148  1  0  0  0
 77149  1  0  0  0
 77150  1  0  0  0
 78151  1  0  0  0
 78152  1  0  0  0
 78153  1  0  0  0
 78 84  1  0  0  0
 79 84  1  0  0  0
 79154  1  0  0  0
 79155  1  0  0  0
 80 81  1  0  0  0
 80 82  1  0  0  0
 80156  1  0  0  0
 80157  1  0  0  0
 81 84  1  0  0  0
 81158  1  0  0  0
 81159  1  0  0  0
 82160  1  0  0  0
 82161  1  0  0  0
 84162  1  0  0  0
M  CHG  1  84   1
M  ISO  4   1 100  68 101  82 101  83 100
M  END
> <chiral flag>
0

> <version>
0

> <s_m_source_file>
/data/baiqing/PycharmProjects/Reinvent-master-3.2/result/LINK_invent/BTK/process_docking_weight1_custom_product_contain_oxygen_bond_distance_aromatic_linkinvent_7_9_3/rearranged_h_0014.sdf

> <i_m_source_file_index>
42

> <r_mmod_Potential_Energy-OPLS-2005>
-5.08770847320557

> <r_mmod_Stretch_Energy-OPLS-2005>
47.7403793334961

> <r_mmod_Bend_Energy-OPLS-2005>
107.14151763916

> <r_mmod_Torsional_Energy-OPLS-2005>
307.034240722656

> <r_mmod_Improper_Torsional_Energy-OPLS-2005>
3.27989721298218

> <r_mmod_Van_der_Waal_Energy-OPLS-2005>
167.20915222168

> <r_mmod_Electrostatic_Energy-OPLS-2005>
-203.203659057617

> <r_mmod_Solvation_Energy-OPLS-2005>
-444.204864501953

> <b_mmod_Minimization_Converged-OPLS-2005>
0

> <r_mmod_RMS_Derivative-OPLS-2005>
3.97116446495056

$$$$
42
                    3D
 Structure written by MMmdl.
164173  0  0  1  0            999 V2000
  -30.7296  -14.5053   20.6199 C   0  0  0  0  0  0
  -30.4224  -12.3481   19.4296 C   0  0  0  0  0  0
  -29.4955  -12.5214   18.2103 C   0  0  0  0  0  0
  -28.0168  -12.3740   18.6174 C   0  0  0  0  0  0
  -27.6589  -13.2168   19.8698 C   0  0  2  0  0  0
  -28.6981  -13.0190   20.9925 C   0  0  0  0  0  0
  -25.2590  -13.8188   20.5698 C   0  0  0  0  0  0
  -24.1849  -13.0446   20.9178 C   0  0  0  0  0  0
  -24.6414  -11.6917   20.8740 C   0  0  0  0  0  0
  -23.9084  -10.4295   21.0405 C   0  0  0  0  0  0
  -24.3644   -9.4207   21.9178 C   0  0  0  0  0  0
  -23.6321   -8.2240   22.0743 C   0  0  0  0  0  0
  -22.4298   -8.0281   21.3533 C   0  0  0  0  0  0
  -21.9935   -9.0254   20.4633 C   0  0  0  0  0  0
  -22.7260  -10.2134   20.3049 C   0  0  0  0  0  0
  -21.6850   -6.0742   22.5278 C   0  0  0  0  0  0
  -21.4009   -6.5646   23.8214 C   0  0  0  0  0  0
  -21.3665   -5.6798   24.9180 C   0  0  0  0  0  0
  -21.6052   -4.3059   24.7223 C   0  0  0  0  0  0
  -21.8820   -3.8146   23.4343 C   0  0  0  0  0  0
  -21.9193   -4.6969   22.3402 C   0  0  0  0  0  0
  -22.7872  -13.5233   21.1848 C   0  0  0  0  0  0
  -22.1660   -4.2162   21.0980 F   0  0  0  0  0  0
  -21.5637   -3.4540   25.7730 F   0  0  0  0  0  0
  -30.0294  -13.3402   20.4491 N   0  0  0  0  0  0
  -26.3023  -12.9368   20.3349 N   0  0  0  0  0  0
  -25.9339  -11.6519   20.5771 N   0  0  0  0  0  0
  -22.0514  -12.8217   22.0403 N   0  0  0  0  0  0
  -25.4323  -15.1913   20.4150 N   0  0  0  0  0  0
  -31.8176  -14.6890   20.0638 O   0  0  0  0  0  0
  -21.6652   -6.8883   21.4237 O   0  0  0  0  0  0
  -22.3551  -14.5536   20.6698 O   0  0  0  0  0  0
  -24.6195  -31.8651   23.2048 C   0  0  0  0  0  0
  -25.9068  -32.4805   23.8360 C   0  0  1  0  0  0
  -27.2334  -27.3919   20.1047 C   0  0  0  0  0  0
  -25.5908  -33.8601   24.2296 N   0  0  0  0  0  0
  -23.4092  -30.4882   21.5471 C   0  0  2  0  0  0
  -24.8539  -28.9423   20.1155 C   0  0  0  0  0  0
  -22.7432  -29.4665   22.4968 C   0  0  0  0  0  0
  -18.0284  -28.1399   22.8495 C   0  0  0  0  0  0
  -24.1487  -36.7308   23.2636 C   0  0  0  0  0  0
  -25.9418  -30.8181   21.3617 C   0  0  0  0  0  0
  -26.0175  -29.4489   20.7081 C   0  0  0  0  0  0
  -27.2109  -28.6852   20.6888 C   0  0  0  0  0  0
  -26.0504  -26.9084   19.5040 C   0  0  0  0  0  0
  -24.8678  -27.6745   19.5086 C   0  0  0  0  0  0
  -23.6179  -29.8149   20.1641 C   0  0  0  0  0  0
  -25.4111  -36.3100   24.0332 C   0  0  1  0  0  0
  -20.5875  -28.3699   23.1303 C   0  0  2  0  0  0
  -20.6780  -26.9431   22.5416 C   0  0  0  0  0  0
  -19.5746  -26.6398   21.5227 C   0  0  0  0  0  0
  -18.1925  -26.7940   22.1636 C   0  0  0  0  0  0
  -19.1533  -28.8864   23.2893 C   0  0  0  0  0  0
  -18.9457  -30.1469   23.8905 C   0  0  0  0  0  0
  -17.6457  -30.6598   24.0571 C   0  0  0  0  0  0
  -25.9043  -34.9469   23.5115 C   0  0  0  0  0  0
  -16.5351  -29.9101   23.6324 C   0  0  0  0  0  0
  -16.7272  -28.6520   23.0343 C   0  0  0  0  0  0
  -26.4472  -31.6601   25.0714 C   0  0  0  0  0  0
  -25.3727  -31.3733   26.1464 C   0  0  0  0  0  0
  -27.0303  -30.3032   24.6126 C   0  0  0  0  0  0
  -27.6028  -32.4354   25.7476 C   0  0  0  0  0  0
  -27.5584  -37.1805   24.8465 C   0  0  0  0  0  0
  -21.4156  -29.3056   22.3704 N   0  0  0  0  0  0
  -26.4294  -37.3790   23.9412 N   0  0  0  0  0  0
  -24.6757  -31.0719   22.0962 N   0  0  0  0  0  0
  -23.4186  -28.8216   23.3033 O   0  0  0  0  0  0
  -28.3995  -26.6406   20.1224 O   0  0  0  0  0  0
  -26.5607  -34.8926   22.4679 O   0  0  0  0  0  0
  -23.5381  -32.1423   23.7426 O   0  0  0  0  0  0
  -29.3253  -19.2088   21.5585 C   0  0  0  0  0  0
  -29.4502  -17.8359   21.8899 C   0  0  0  0  0  0
  -30.3269  -17.3699   19.6933 C   0  0  0  0  0  0
  -29.7260  -19.6967   20.2944 C   0  0  0  0  0  0
  -29.9817  -16.8757   20.9829 C   0  0  0  0  0  0
  -30.2211  -18.7470   19.3658 C   0  0  0  0  0  0
  -28.7186  -23.1449   18.6315 C   0  0  0  0  0  0
  -28.6139  -24.4679   18.9439 C   0  0  0  0  0  0
  -28.8503  -22.6410   17.2039 C   0  0  0  0  0  0
  -28.2425  -21.2370   17.1676 C   0  0  0  0  0  0
  -27.6828  -21.0253   18.5767 C   0  0  0  0  0  0
  -30.1871  -15.2145   22.8482 C   0  0  0  0  0  0
  -29.7402  -21.2228   19.9780 C   0  0  0  0  0  0
  -28.3133  -25.1939   20.2541 C   0  0  0  0  0  0
  -30.1763  -15.4843   21.3997 N   0  0  0  0  0  0
  -28.4914  -21.8920   19.4627 N   0  3  1  0  0  0
  -30.6342  -19.1603   18.1453 F   0  0  0  0  0  0
  -31.4644  -12.4504   19.1214 H   0  0  0  0  0  0
  -30.3360  -11.3388   19.8354 H   0  0  0  0  0  0
  -29.7451  -11.7919   17.4384 H   0  0  0  0  0  0
  -29.6576  -13.5030   17.7628 H   0  0  0  0  0  0
  -27.8261  -11.3180   18.8121 H   0  0  0  0  0  0
  -27.3699  -12.6475   17.7834 H   0  0  0  0  0  0
  -27.6992  -14.2664   19.5737 H   0  0  0  0  0  0
  -28.6839  -11.9890   21.3523 H   0  0  0  0  0  0
  -28.4244  -13.6243   21.8528 H   0  0  0  0  0  0
  -25.2781   -9.5698   22.4764 H   0  0  0  0  0  0
  -24.0028   -7.4637   22.7465 H   0  0  0  0  0  0
  -21.0860   -8.8776   19.8948 H   0  0  0  0  0  0
  -22.3706  -10.9686   19.6175 H   0  0  0  0  0  0
  -21.1994   -7.6151   23.9726 H   0  0  0  0  0  0
  -21.1496   -6.0523   25.9090 H   0  0  0  0  0  0
  -22.0599   -2.7609   23.2840 H   0  0  0  0  0  0
  -22.4125  -11.9877   22.4800 H   0  0  0  0  0  0
  -21.1124  -13.1236   22.2595 H   0  0  0  0  0  0
  -24.6756  -15.8535   20.5463 H   0  0  0  0  0  0
  -26.3021  -15.6302   20.1410 H   0  0  0  0  0  0
  -26.7136  -32.5494   23.1117 H   0  0  0  0  0  0
  -25.0072  -33.9747   25.0452 H   0  0  0  0  0  0
  -22.7014  -31.3071   21.4040 H   0  0  0  0  0  0
  -23.3753  -35.9636   23.3305 H   0  0  0  0  0  0
  -24.3571  -36.8922   22.2048 H   0  0  0  0  0  0
  -23.7236  -37.6512   23.6650 H   0  0  0  0  0  0
  -26.0611  -31.5819   20.5919 H   0  0  0  0  0  0
  -26.8283  -30.8709   21.9822 H   0  0  0  0  0  0
  -28.1116  -29.0762   21.1412 H   0  0  0  0  0  0
  -26.0319  -25.9396   19.0259 H   0  0  0  0  0  0
  -23.9737  -27.2785   19.0464 H   0  0  0  0  0  0
  -23.7266  -30.5886   19.4026 H   0  0  0  0  0  0
  -22.7408  -29.2362   19.8694 H   0  0  0  0  0  0
  -25.1286  -36.1951   25.0824 H   0  0  0  0  0  0
  -20.9973  -28.3274   24.1421 H   0  0  0  0  0  0
  -20.5712  -26.2316   23.3618 H   0  0  0  0  0  0
  -21.6646  -26.7484   22.1188 H   0  0  0  0  0  0
  -19.6910  -25.6310   21.1253 H   0  0  0  0  0  0
  -19.6667  -27.3218   20.6765 H   0  0  0  0  0  0
  -17.4200  -26.6708   21.4031 H   0  0  0  0  0  0
  -18.0306  -26.0075   22.9026 H   0  0  0  0  0  0
  -19.7930  -30.7292   24.2271 H   0  0  0  0  0  0
  -17.5007  -31.6269   24.5199 H   0  0  0  0  0  0
  -15.5351  -30.3010   23.7640 H   0  0  0  0  0  0
  -15.8673  -28.0847   22.7044 H   0  0  0  0  0  0
  -24.5879  -30.7104   25.7804 H   0  0  0  0  0  0
  -24.8950  -32.2910   26.4912 H   0  0  0  0  0  0
  -25.8070  -30.8895   27.0224 H   0  0  0  0  0  0
  -26.2859  -29.6801   24.1161 H   0  0  0  0  0  0
  -27.4033  -29.7257   25.4593 H   0  0  0  0  0  0
  -27.8707  -30.4329   23.9304 H   0  0  0  0  0  0
  -27.2612  -33.3642   26.2060 H   0  0  0  0  0  0
  -28.3821  -32.6960   25.0302 H   0  0  0  0  0  0
  -28.0721  -31.8499   26.5392 H   0  0  0  0  0  0
  -28.2606  -38.0098   24.7521 H   0  0  0  0  0  0
  -28.1077  -36.2637   24.6282 H   0  0  0  0  0  0
  -27.2304  -37.1444   25.8867 H   0  0  0  0  0  0
  -20.9341  -29.8753   21.6887 H   0  0  0  0  0  0
  -26.0184  -38.2869   24.1408 H   0  0  0  0  0  0
  -28.9573  -19.8938   22.3101 H   0  0  0  0  0  0
  -29.1477  -17.5465   22.8856 H   0  0  0  0  0  0
  -30.7271  -16.7122   18.9360 H   0  0  0  0  0  0
  -28.7376  -25.1557   18.1193 H   0  0  0  0  0  0
  -29.9007  -22.6237   16.9103 H   0  0  0  0  0  0
  -28.3262  -23.3096   16.5177 H   0  0  0  0  0  0
  -29.0182  -20.5063   16.9414 H   0  0  0  0  0  0
  -27.4705  -21.1326   16.4040 H   0  0  0  0  0  0
  -27.6289  -19.9758   18.8640 H   0  0  0  0  0  0
  -26.6576  -21.3967   18.6065 H   0  0  0  0  0  0
  -29.1870  -15.3221   23.2707 H   0  0  0  0  0  0
  -30.8515  -15.9126   23.3600 H   0  0  0  0  0  0
  -30.5318  -14.2090   23.1006 H   0  0  0  0  0  0
  -30.5370  -21.3935   19.2538 H   0  0  0  0  0  0
  -30.0574  -21.7570   20.8741 H   0  0  0  0  0  0
  -29.0616  -24.8869   20.9850 H   0  0  0  0  0  0
  -27.3515  -24.8688   20.6540 H   0  0  0  0  0  0
  -27.9200  -22.0968   20.2679 H   0  0  0  0  0  0
  1 25  1  0  0  0
  1 30  2  0  0  0
  1 85  1  0  0  0
  2  3  1  0  0  0
  2 25  1  0  0  0
  2 88  1  0  0  0
  2 89  1  0  0  0
  3  4  1  0  0  0
  3 90  1  0  0  0
  3 91  1  0  0  0
  4  5  1  0  0  0
  4 92  1  0  0  0
  4 93  1  0  0  0
  5  6  1  0  0  0
  5 26  1  0  0  0
  5 94  1  0  0  0
  6 25  1  0  0  0
  6 95  1  0  0  0
  6 96  1  0  0  0
  7  8  2  0  0  0
  7 26  1  0  0  0
  7 29  1  0  0  0
  8  9  1  0  0  0
  8 22  1  0  0  0
  9 10  1  0  0  0
  9 27  2  0  0  0
 10 11  2  0  0  0
 10 15  1  0  0  0
 11 12  1  0  0  0
 11 97  1  0  0  0
 12 13  2  0  0  0
 12 98  1  0  0  0
 13 14  1  0  0  0
 13 31  1  0  0  0
 14 15  2  0  0  0
 14 99  1  0  0  0
 15100  1  0  0  0
 16 17  2  0  0  0
 16 21  1  0  0  0
 16 31  1  0  0  0
 17 18  1  0  0  0
 17101  1  0  0  0
 18 19  2  0  0  0
 18102  1  0  0  0
 19 20  1  0  0  0
 19 24  1  0  0  0
 20 21  2  0  0  0
 20103  1  0  0  0
 21 23  1  0  0  0
 22 28  1  0  0  0
 22 32  2  0  0  0
 26 27  1  0  0  0
 28104  1  0  0  0
 28105  1  0  0  0
 29106  1  0  0  0
 29107  1  0  0  0
 33 34  1  0  0  0
 33 66  1  0  0  0
 33 70  2  0  0  0
 34 36  1  0  0  0
 34 59  1  0  0  0
 34108  1  0  0  0
 35 44  2  0  0  0
 35 45  1  0  0  0
 35 68  1  0  0  0
 36 56  1  0  0  0
 36109  1  0  0  0
 37 39  1  0  0  0
 37 47  1  0  0  0
 37 66  1  0  0  0
 37110  1  0  0  0
 38 43  2  0  0  0
 38 46  1  0  0  0
 38 47  1  0  0  0
 39 64  1  0  0  0
 39 67  2  0  0  0
 40 52  1  0  0  0
 40 53  2  0  0  0
 40 58  1  0  0  0
 41111  1  0  0  0
 41112  1  0  0  0
 41113  1  0  0  0
 41 48  1  0  0  0
 42 43  1  0  0  0
 42 66  1  0  0  0
 42114  1  0  0  0
 42115  1  0  0  0
 43 44  1  0  0  0
 44116  1  0  0  0
 45 46  2  0  0  0
 45117  1  0  0  0
 46118  1  0  0  0
 47119  1  0  0  0
 47120  1  0  0  0
 48 56  1  0  0  0
 48 65  1  0  0  0
 48121  1  0  0  0
 49 50  1  0  0  0
 49 53  1  0  0  0
 49 64  1  0  0  0
 49122  1  0  0  0
 50 51  1  0  0  0
 50123  1  0  0  0
 50124  1  0  0  0
 51 52  1  0  0  0
 51125  1  0  0  0
 51126  1  0  0  0
 52127  1  0  0  0
 52128  1  0  0  0
 53 54  1  0  0  0
 54 55  2  0  0  0
 54129  1  0  0  0
 55 57  1  0  0  0
 55130  1  0  0  0
 56 69  2  0  0  0
 57 58  2  0  0  0
 57131  1  0  0  0
 58132  1  0  0  0
 59 60  1  0  0  0
 59 61  1  0  0  0
 59 62  1  0  0  0
 60133  1  0  0  0
 60134  1  0  0  0
 60135  1  0  0  0
 61136  1  0  0  0
 61137  1  0  0  0
 61138  1  0  0  0
 62139  1  0  0  0
 62140  1  0  0  0
 62141  1  0  0  0
 63 65  1  0  0  0
 63142  1  0  0  0
 63143  1  0  0  0
 63144  1  0  0  0
 64145  1  0  0  0
 65146  1  0  0  0
 68 84  1  0  0  0
 71 72  2  0  0  0
 71 74  1  0  0  0
 71147  1  0  0  0
 72 75  1  0  0  0
 72148  1  0  0  0
 73 75  2  0  0  0
 73 76  1  0  0  0
 73149  1  0  0  0
 74 76  2  0  0  0
 74 83  1  0  0  0
 75 85  1  0  0  0
 76 87  1  0  0  0
 77 78  2  0  0  0
 77 79  1  0  0  0
 77 86  1  0  0  0
 78 84  1  0  0  0
 78150  1  0  0  0
 79 80  1  0  0  0
 79151  1  0  0  0
 79152  1  0  0  0
 80 81  1  0  0  0
 80153  1  0  0  0
 80154  1  0  0  0
 81 86  1  0  0  0
 81155  1  0  0  0
 81156  1  0  0  0
 82 85  1  0  0  0
 82157  1  0  0  0
 82158  1  0  0  0
 82159  1  0  0  0
 83160  1  0  0  0
 83161  1  0  0  0
 83 86  1  0  0  0
 84162  1  0  0  0
 84163  1  0  0  0
 86164  1  0  0  0
M  CHG  1  86   1
M  ISO  4   1 100  68 101  84 101  85 100
M  END
> <chiral flag>
0

> <version>
0

> <s_m_source_file>
/data/baiqing/PycharmProjects/Reinvent-master-3.2/result/LINK_invent/BTK/process_docking_weight1_custom_product_contain_oxygen_bond_distance_aromatic_linkinvent_7_9_3/rearranged_h_0014.sdf

> <i_m_source_file_index>
43

> <r_mmod_Potential_Energy-OPLS-2005>
74.0995254516602

> <r_mmod_Stretch_Energy-OPLS-2005>
58.4838333129883

> <r_mmod_Bend_Energy-OPLS-2005>
160.572616577148

> <r_mmod_Torsional_Energy-OPLS-2005>
311.67578125

> <r_mmod_Improper_Torsional_Energy-OPLS-2005>
3.29033136367798

> <r_mmod_Van_der_Waal_Energy-OPLS-2005>
155.180862426758

> <r_mmod_Electrostatic_Energy-OPLS-2005>
-204.014251708984

> <r_mmod_Solvation_Energy-OPLS-2005>
-428.653717041016

> <b_mmod_Minimization_Converged-OPLS-2005>
0

> <r_mmod_RMS_Derivative-OPLS-2005>
1.70757222175598

$$$$
43
                    3D
 Structure written by MMmdl.
159168  0  0  1  0            999 V2000
  -30.4539  -14.9302   20.4051 C   0  0  0  0  0  0
  -30.4416  -12.5664   19.4942 C   0  0  0  0  0  0
  -29.5278  -12.5342   18.2458 C   0  0  0  0  0  0
  -28.0551  -12.3141   18.6520 C   0  0  0  0  0  0
  -27.6282  -13.2254   19.8350 C   0  0  2  0  0  0
  -28.6653  -13.2005   20.9758 C   0  0  0  0  0  0
  -25.2483  -13.8144   20.5671 C   0  0  0  0  0  0
  -24.1788  -13.0425   20.9198 C   0  0  0  0  0  0
  -24.6349  -11.6872   20.8705 C   0  0  0  0  0  0
  -23.9012  -10.4272   21.0381 C   0  0  0  0  0  0
  -24.3574   -9.4194   21.9164 C   0  0  0  0  0  0
  -23.6266   -8.2228   22.0748 C   0  0  0  0  0  0
  -22.4257   -8.0255   21.3534 C   0  0  0  0  0  0
  -21.9869   -9.0210   20.4633 C   0  0  0  0  0  0
  -22.7182  -10.2095   20.3034 C   0  0  0  0  0  0
  -21.6858   -6.0702   22.5270 C   0  0  0  0  0  0
  -21.4010   -6.5614   23.8197 C   0  0  0  0  0  0
  -21.3670   -5.6769   24.9167 C   0  0  0  0  0  0
  -21.6059   -4.3035   24.7215 C   0  0  0  0  0  0
  -21.8826   -3.8120   23.4343 C   0  0  0  0  0  0
  -21.9193   -4.6931   22.3391 C   0  0  0  0  0  0
  -22.7822  -13.5224   21.1886 C   0  0  0  0  0  0
  -22.1668   -4.2115   21.0966 F   0  0  0  0  0  0
  -21.5634   -3.4530   25.7735 F   0  0  0  0  0  0
  -29.9383  -13.6390   20.3926 N   0  0  0  0  0  0
  -26.2847  -12.9316   20.3149 N   0  0  0  0  0  0
  -25.9259  -11.6473   20.5648 N   0  0  0  0  0  0
  -22.0466  -12.8205   22.0426 N   0  0  0  0  0  0
  -25.4207  -15.1872   20.4036 N   0  0  0  0  0  0
  -31.6514  -15.0767   20.1221 O   0  0  0  0  0  0
  -21.6649   -6.8839   21.4232 O   0  0  0  0  0  0
  -22.3505  -14.5548   20.6753 O   0  0  0  0  0  0
  -24.6432  -31.8445   23.1816 C   0  0  0  0  0  0
  -25.9206  -32.4690   23.8250 C   0  0  1  0  0  0
  -27.2356  -27.1495   20.1374 C   0  0  0  0  0  0
  -25.5954  -33.8499   24.2181 N   0  0  0  0  0  0
  -23.4477  -30.4596   21.5266 C   0  0  2  0  0  0
  -24.9000  -28.8821   20.1150 C   0  0  0  0  0  0
  -22.7581  -29.4544   22.4835 C   0  0  0  0  0  0
  -18.0319  -28.1405   22.8465 C   0  0  0  0  0  0
  -24.1488  -36.7246   23.2648 C   0  0  0  0  0  0
  -26.0042  -30.7191   21.3834 C   0  0  0  0  0  0
  -26.0758  -29.3307   20.7267 C   0  0  0  0  0  0
  -27.2406  -28.4803   20.7213 C   0  0  0  0  0  0
  -26.0315  -26.7989   19.4878 C   0  0  0  0  0  0
  -24.8898  -27.6281   19.4851 C   0  0  0  0  0  0
  -23.6744  -29.7779   20.1492 C   0  0  0  0  0  0
  -25.4121  -36.3038   24.0318 C   0  0  1  0  0  0
  -20.5928  -28.3733   23.1202 C   0  0  2  0  0  0
  -20.6788  -26.9428   22.5389 C   0  0  0  0  0  0
  -19.5768  -26.6378   21.5198 C   0  0  0  0  0  0
  -18.1950  -26.7935   22.1610 C   0  0  0  0  0  0
  -19.1578  -28.8888   23.2829 C   0  0  0  0  0  0
  -18.9488  -30.1474   23.8876 C   0  0  0  0  0  0
  -17.6490  -30.6599   24.0549 C   0  0  0  0  0  0
  -25.9069  -34.9412   23.5053 C   0  0  0  0  0  0
  -16.5377  -29.9095   23.6342 C   0  0  0  0  0  0
  -16.7304  -28.6507   23.0369 C   0  0  0  0  0  0
  -26.4534  -31.6575   25.0714 C   0  0  0  0  0  0
  -25.3682  -31.3780   26.1378 C   0  0  0  0  0  0
  -27.0408  -30.2971   24.6321 C   0  0  0  0  0  0
  -27.6078  -32.4342   25.7493 C   0  0  0  0  0  0
  -27.5575  -37.1776   24.8471 C   0  0  0  0  0  0
  -21.4278  -29.3051   22.3586 N   0  0  0  0  0  0
  -26.4288  -37.3747   23.9409 N   0  0  0  0  0  0
  -24.7175  -31.0290   22.0853 N   0  0  0  0  0  0
  -23.4222  -28.8114   23.3005 O   0  0  0  0  0  0
  -28.3222  -26.2065   20.2108 O   0  0  0  0  0  0
  -26.5663  -34.8908   22.4640 O   0  0  0  0  0  0
  -23.5547  -32.1345   23.7012 O   0  0  0  0  0  0
  -28.3970  -19.8138   20.9998 C   0  0  0  0  0  0
  -28.4715  -18.3550   21.0323 C   0  0  0  0  0  0
  -30.4582  -18.3846   19.7784 C   0  0  0  0  0  0
  -29.3791  -20.6599   20.3768 C   0  0  0  0  0  0
  -29.5282  -17.5470   20.4673 C   0  0  0  0  0  0
  -30.3843  -19.8368   19.7316 C   0  0  0  0  0  0
  -29.9225  -21.9334   23.0699 C   0  0  0  0  0  0
  -28.0374  -23.4054   22.1542 C   0  0  0  0  0  0
  -30.6045  -22.0509   21.6799 C   0  0  0  0  0  0
  -28.8552  -23.4947   20.8636 C   0  0  2  0  0  0
  -28.9609  -23.1031   23.3468 C   0  0  0  0  0  0
  -28.2886  -24.6896   19.8396 C   0  0  0  0  0  0
  -29.6151  -22.1310   20.5714 N   0  0  0  0  0  0
  -29.5452  -16.0126   20.5617 N   0  0  0  0  0  0
  -31.3933  -20.4738   19.0886 F   0  0  0  0  0  0
  -29.6839  -24.1884   23.6261 F   0  0  0  0  0  0
  -28.2056  -22.8265   24.4089 F   0  0  0  0  0  0
  -31.4803  -12.7339   19.2039 H   0  0  0  0  0  0
  -30.4211  -11.6018   20.0036 H   0  0  0  0  0  0
  -29.8529  -11.7494   17.5615 H   0  0  0  0  0  0
  -29.6197  -13.4751   17.6988 H   0  0  0  0  0  0
  -27.9445  -11.2662   18.9361 H   0  0  0  0  0  0
  -27.3988  -12.4669   17.7928 H   0  0  0  0  0  0
  -27.6033  -14.2355   19.4271 H   0  0  0  0  0  0
  -28.7543  -12.1978   21.3966 H   0  0  0  0  0  0
  -28.3608  -13.8490   21.7981 H   0  0  0  0  0  0
  -25.2722   -9.5703   22.4725 H   0  0  0  0  0  0
  -23.9988   -7.4635   22.7475 H   0  0  0  0  0  0
  -21.0801   -8.8697   19.8941 H   0  0  0  0  0  0
  -22.3618  -10.9616   19.6137 H   0  0  0  0  0  0
  -21.2001   -7.6122   23.9689 H   0  0  0  0  0  0
  -21.1506   -6.0505   25.9067 H   0  0  0  0  0  0
  -22.0601   -2.7580   23.2854 H   0  0  0  0  0  0
  -22.4078  -11.9846   22.4784 H   0  0  0  0  0  0
  -21.1087  -13.1237   22.2646 H   0  0  0  0  0  0
  -24.6448  -15.8330   20.4959 H   0  0  0  0  0  0
  -26.2325  -15.6090   19.9739 H   0  0  0  0  0  0
  -26.7273  -32.5287   23.0975 H   0  0  0  0  0  0
  -25.0092  -33.9613   25.0324 H   0  0  0  0  0  0
  -22.7534  -31.2855   21.3601 H   0  0  0  0  0  0
  -23.3760  -35.9564   23.3311 H   0  0  0  0  0  0
  -24.3566  -36.8882   22.2064 H   0  0  0  0  0  0
  -23.7226  -37.6436   23.6682 H   0  0  0  0  0  0
  -26.1640  -31.4750   20.6123 H   0  0  0  0  0  0
  -26.8752  -30.7664   22.0258 H   0  0  0  0  0  0
  -28.1429  -28.8263   21.2077 H   0  0  0  0  0  0
  -25.9358  -25.8492   18.9865 H   0  0  0  0  0  0
  -23.9930  -27.2725   18.9989 H   0  0  0  0  0  0
  -23.8098  -30.5459   19.3860 H   0  0  0  0  0  0
  -22.7953  -29.2073   19.8416 H   0  0  0  0  0  0
  -25.1301  -36.1869   25.0809 H   0  0  0  0  0  0
  -21.0016  -28.3314   24.1329 H   0  0  0  0  0  0
  -20.5637  -26.2365   23.3624 H   0  0  0  0  0  0
  -21.6654  -26.7402   22.1214 H   0  0  0  0  0  0
  -19.6916  -25.6274   21.1272 H   0  0  0  0  0  0
  -19.6696  -27.3159   20.6696 H   0  0  0  0  0  0
  -17.4212  -26.6696   21.4020 H   0  0  0  0  0  0
  -18.0331  -26.0088   22.9012 H   0  0  0  0  0  0
  -19.7967  -30.7278   24.2248 H   0  0  0  0  0  0
  -17.5051  -31.6276   24.5154 H   0  0  0  0  0  0
  -15.5378  -30.2990   23.7666 H   0  0  0  0  0  0
  -15.8704  -28.0798   22.7125 H   0  0  0  0  0  0
  -24.5885  -30.7109   25.7683 H   0  0  0  0  0  0
  -24.8817  -32.2958   26.4701 H   0  0  0  0  0  0
  -25.7915  -30.9025   27.0231 H   0  0  0  0  0  0
  -26.3041  -29.6676   24.1315 H   0  0  0  0  0  0
  -27.4027  -29.7303   25.4913 H   0  0  0  0  0  0
  -27.8946  -30.4235   23.9653 H   0  0  0  0  0  0
  -27.2720  -33.3706   26.1958 H   0  0  0  0  0  0
  -28.3938  -32.6788   25.0336 H   0  0  0  0  0  0
  -28.0679  -31.8518   26.5485 H   0  0  0  0  0  0
  -28.2589  -38.0082   24.7510 H   0  0  0  0  0  0
  -28.1078  -36.2601   24.6302 H   0  0  0  0  0  0
  -27.2286  -37.1437   25.8879 H   0  0  0  0  0  0
  -20.9513  -29.8790   21.6778 H   0  0  0  0  0  0
  -26.0160  -38.2821   24.1401 H   0  0  0  0  0  0
  -27.5898  -20.2811   21.5458 H   0  0  0  0  0  0
  -27.6807  -17.8426   21.5648 H   0  0  0  0  0  0
  -31.2821  -17.9042   19.2735 H   0  0  0  0  0  0
  -30.6833  -21.8949   23.8507 H   0  0  0  0  0  0
  -29.3797  -20.9922   23.1569 H   0  0  0  0  0  0
  -27.2537  -22.6569   22.0587 H   0  0  0  0  0  0
  -27.5411  -24.3593   22.3331 H   0  0  0  0  0  0
  -31.3158  -21.2277   21.5733 H   0  0  0  0  0  0
  -31.2532  -22.9277   21.6697 H   0  0  0  0  0  0
  -29.6968  -24.1167   21.1701 H   0  0  0  0  0  0
  -27.2937  -24.3851   19.5266 H   0  0  0  0  0  0
  -28.8876  -24.6336   18.9304 H   0  0  0  0  0  0
  -28.6285  -15.6409   20.7663 H   0  0  0  0  0  0
  1 25  1  0  0  0
  1 30  2  0  0  0
  1 84  1  0  0  0
  2  3  1  0  0  0
  2 25  1  0  0  0
  2 88  1  0  0  0
  2 89  1  0  0  0
  3  4  1  0  0  0
  3 90  1  0  0  0
  3 91  1  0  0  0
  4  5  1  0  0  0
  4 92  1  0  0  0
  4 93  1  0  0  0
  5  6  1  0  0  0
  5 26  1  0  0  0
  5 94  1  0  0  0
  6 25  1  0  0  0
  6 95  1  0  0  0
  6 96  1  0  0  0
  7  8  2  0  0  0
  7 26  1  0  0  0
  7 29  1  0  0  0
  8  9  1  0  0  0
  8 22  1  0  0  0
  9 10  1  0  0  0
  9 27  2  0  0  0
 10 11  2  0  0  0
 10 15  1  0  0  0
 11 12  1  0  0  0
 11 97  1  0  0  0
 12 13  2  0  0  0
 12 98  1  0  0  0
 13 14  1  0  0  0
 13 31  1  0  0  0
 14 15  2  0  0  0
 14 99  1  0  0  0
 15100  1  0  0  0
 16 17  2  0  0  0
 16 21  1  0  0  0
 16 31  1  0  0  0
 17 18  1  0  0  0
 17101  1  0  0  0
 18 19  2  0  0  0
 18102  1  0  0  0
 19 20  1  0  0  0
 19 24  1  0  0  0
 20 21  2  0  0  0
 20103  1  0  0  0
 21 23  1  0  0  0
 22 28  1  0  0  0
 22 32  2  0  0  0
 26 27  1  0  0  0
 28104  1  0  0  0
 28105  1  0  0  0
 29106  1  0  0  0
 29107  1  0  0  0
 33 34  1  0  0  0
 33 66  1  0  0  0
 33 70  2  0  0  0
 34 36  1  0  0  0
 34 59  1  0  0  0
 34108  1  0  0  0
 35 44  2  0  0  0
 35 45  1  0  0  0
 35 68  1  0  0  0
 36 56  1  0  0  0
 36109  1  0  0  0
 37 39  1  0  0  0
 37 47  1  0  0  0
 37 66  1  0  0  0
 37110  1  0  0  0
 38 43  2  0  0  0
 38 46  1  0  0  0
 38 47  1  0  0  0
 39 64  1  0  0  0
 39 67  2  0  0  0
 40 52  1  0  0  0
 40 53  2  0  0  0
 40 58  1  0  0  0
 41111  1  0  0  0
 41112  1  0  0  0
 41113  1  0  0  0
 41 48  1  0  0  0
 42 43  1  0  0  0
 42 66  1  0  0  0
 42114  1  0  0  0
 42115  1  0  0  0
 43 44  1  0  0  0
 44116  1  0  0  0
 45 46  2  0  0  0
 45117  1  0  0  0
 46118  1  0  0  0
 47119  1  0  0  0
 47120  1  0  0  0
 48 56  1  0  0  0
 48 65  1  0  0  0
 48121  1  0  0  0
 49 50  1  0  0  0
 49 53  1  0  0  0
 49 64  1  0  0  0
 49122  1  0  0  0
 50 51  1  0  0  0
 50123  1  0  0  0
 50124  1  0  0  0
 51 52  1  0  0  0
 51125  1  0  0  0
 51126  1  0  0  0
 52127  1  0  0  0
 52128  1  0  0  0
 53 54  1  0  0  0
 54 55  2  0  0  0
 54129  1  0  0  0
 55 57  1  0  0  0
 55130  1  0  0  0
 56 69  2  0  0  0
 57 58  2  0  0  0
 57131  1  0  0  0
 58132  1  0  0  0
 59 60  1  0  0  0
 59 61  1  0  0  0
 59 62  1  0  0  0
 60133  1  0  0  0
 60134  1  0  0  0
 60135  1  0  0  0
 61136  1  0  0  0
 61137  1  0  0  0
 61138  1  0  0  0
 62139  1  0  0  0
 62140  1  0  0  0
 62141  1  0  0  0
 63 65  1  0  0  0
 63142  1  0  0  0
 63143  1  0  0  0
 63144  1  0  0  0
 64145  1  0  0  0
 65146  1  0  0  0
 68 82  1  0  0  0
 71 72  2  0  0  0
 71 74  1  0  0  0
 71147  1  0  0  0
 72 75  1  0  0  0
 72148  1  0  0  0
 73 75  2  0  0  0
 73 76  1  0  0  0
 73149  1  0  0  0
 74 76  2  0  0  0
 74 83  1  0  0  0
 75 84  1  0  0  0
 76 85  1  0  0  0
 77 79  1  0  0  0
 77 81  1  0  0  0
 77150  1  0  0  0
 77151  1  0  0  0
 78 80  1  0  0  0
 78 81  1  0  0  0
 78152  1  0  0  0
 78153  1  0  0  0
 79 83  1  0  0  0
 79154  1  0  0  0
 79155  1  0  0  0
 80 82  1  0  0  0
 80 83  1  0  0  0
 80156  1  0  0  0
 81 86  1  0  0  0
 81 87  1  0  0  0
 82157  1  0  0  0
 82158  1  0  0  0
 84159  1  0  0  0
M  ISO  4   1 100  68 101  82 101  84 100
M  END
> <chiral flag>
0

> <version>
0

> <s_m_source_file>
/data/baiqing/PycharmProjects/Reinvent-master-3.2/result/LINK_invent/BTK/process_docking_weight1_custom_product_contain_oxygen_bond_distance_aromatic_linkinvent_7_9_3/rearranged_h_0014.sdf

> <i_m_source_file_index>
44

> <r_mmod_Potential_Energy-OPLS-2005>
701.636840820312

> <r_mmod_Stretch_Energy-OPLS-2005>
241.42512512207

> <r_mmod_Bend_Energy-OPLS-2005>
364.972930908203

> <r_mmod_Torsional_Energy-OPLS-2005>
274.337768554688

> <r_mmod_Improper_Torsional_Energy-OPLS-2005>
12.881814956665

> <r_mmod_Van_der_Waal_Energy-OPLS-2005>
150.167953491211

> <r_mmod_Electrostatic_Energy-OPLS-2005>
-304.074432373047

> <r_mmod_Solvation_Energy-OPLS-2005>
-220.401031494141

> <b_mmod_Minimization_Converged-OPLS-2005>
0

> <r_mmod_RMS_Derivative-OPLS-2005>
4.46007871627808

$$$$
44
                    3D
 Structure written by MMmdl.
166175  0  0  1  0            999 V2000
  -30.7249  -14.4758   20.6125 C   0  0  0  0  0  0
  -30.4194  -12.3299   19.4179 C   0  0  0  0  0  0
  -29.4871  -12.5074   18.2031 C   0  0  0  0  0  0
  -28.0137  -12.3452   18.6222 C   0  0  0  0  0  0
  -27.6539  -13.1971   19.8663 C   0  0  2  0  0  0
  -28.6970  -13.0012   20.9891 C   0  0  0  0  0  0
  -25.2554  -13.8124   20.5661 C   0  0  0  0  0  0
  -24.1814  -13.0424   20.9184 C   0  0  0  0  0  0
  -24.6356  -11.6885   20.8742 C   0  0  0  0  0  0
  -23.9030  -10.4282   21.0410 C   0  0  0  0  0  0
  -24.3598   -9.4203   21.9182 C   0  0  0  0  0  0
  -23.6285   -8.2233   22.0746 C   0  0  0  0  0  0
  -22.4261   -8.0273   21.3545 C   0  0  0  0  0  0
  -21.9893   -9.0244   20.4643 C   0  0  0  0  0  0
  -22.7208  -10.2127   20.3054 C   0  0  0  0  0  0
  -21.6852   -6.0733   22.5275 C   0  0  0  0  0  0
  -21.4011   -6.5633   23.8213 C   0  0  0  0  0  0
  -21.3657   -5.6786   24.9174 C   0  0  0  0  0  0
  -21.6043   -4.3049   24.7226 C   0  0  0  0  0  0
  -21.8821   -3.8144   23.4348 C   0  0  0  0  0  0
  -21.9194   -4.6961   22.3402 C   0  0  0  0  0  0
  -22.7844  -13.5228   21.1871 C   0  0  0  0  0  0
  -22.1665   -4.2147   21.0982 F   0  0  0  0  0  0
  -21.5634   -3.4536   25.7742 F   0  0  0  0  0  0
  -30.0253  -13.3165   20.4382 N   0  0  0  0  0  0
  -26.2973  -12.9276   20.3324 N   0  0  0  0  0  0
  -25.9274  -11.6448   20.5754 N   0  0  0  0  0  0
  -22.0495  -12.8214   22.0425 N   0  0  0  0  0  0
  -25.4262  -15.1845   20.4027 N   0  0  0  0  0  0
  -31.8379  -14.6499   20.1042 O   0  0  0  0  0  0
  -21.6627   -6.8874   21.4238 O   0  0  0  0  0  0
  -22.3524  -14.5540   20.6721 O   0  0  0  0  0  0
  -24.6162  -31.8687   23.2097 C   0  0  0  0  0  0
  -25.9043  -32.4824   23.8403 C   0  0  1  0  0  0
  -27.2171  -27.4085   20.0986 C   0  0  0  0  0  0
  -25.5895  -33.8620   24.2327 N   0  0  0  0  0  0
  -23.4044  -30.4987   21.5488 C   0  0  2  0  0  0
  -24.8456  -28.9668   20.1097 C   0  0  0  0  0  0
  -22.7411  -29.4691   22.4942 C   0  0  0  0  0  0
  -18.0286  -28.1342   22.8454 C   0  0  0  0  0  0
  -24.1487  -36.7325   23.2640 C   0  0  0  0  0  0
  -25.9366  -30.8270   21.3663 C   0  0  0  0  0  0
  -26.0074  -29.4607   20.7137 C   0  0  0  0  0  0
  -27.1939  -28.6881   20.7087 C   0  0  0  0  0  0
  -26.0394  -26.9568   19.4558 C   0  0  0  0  0  0
  -24.8575  -27.7160   19.4779 C   0  0  0  0  0  0
  -23.6125  -29.8388   20.1609 C   0  0  0  0  0  0
  -25.4105  -36.3109   24.0345 C   0  0  1  0  0  0
  -20.5875  -28.3715   23.1324 C   0  0  2  0  0  0
  -20.6827  -26.9452   22.5414 C   0  0  0  0  0  0
  -19.5820  -26.6416   21.5189 C   0  0  0  0  0  0
  -18.1995  -26.7880   22.1616 C   0  0  0  0  0  0
  -19.1514  -28.8842   23.2879 C   0  0  0  0  0  0
  -18.9392  -30.1451   23.8883 C   0  0  0  0  0  0
  -17.6367  -30.6522   24.0579 C   0  0  0  0  0  0
  -25.9033  -34.9478   23.5135 C   0  0  0  0  0  0
  -16.5293  -29.8987   23.6314 C   0  0  0  0  0  0
  -16.7264  -28.6433   23.0295 C   0  0  0  0  0  0
  -26.4474  -31.6586   25.0717 C   0  0  0  0  0  0
  -25.3760  -31.3684   26.1483 C   0  0  0  0  0  0
  -27.0295  -30.3024   24.6083 C   0  0  0  0  0  0
  -27.6050  -32.4306   25.7473 C   0  0  0  0  0  0
  -27.5578  -37.1818   24.8471 C   0  0  0  0  0  0
  -21.4130  -29.3104   22.3739 N   0  0  0  0  0  0
  -26.4283  -37.3799   23.9419 N   0  0  0  0  0  0
  -24.6712  -31.0801   22.0992 N   0  0  0  0  0  0
  -23.4188  -28.8200   23.2956 O   0  0  0  0  0  0
  -28.3777  -26.6518   20.1508 O   0  0  0  0  0  0
  -26.5600  -34.8924   22.4699 O   0  0  0  0  0  0
  -23.5350  -32.1428   23.7496 O   0  0  0  0  0  0
  -29.6158  -20.0375   20.2771 C   0  0  0  0  0  0
  -29.6277  -18.6299   20.1329 C   0  0  0  0  0  0
  -28.6717  -19.7958   22.4980 C   0  0  0  0  0  0
  -29.1243  -20.6413   21.4574 C   0  0  0  0  0  0
  -29.1411  -17.7902   21.1617 C   0  0  0  0  0  0
  -28.6629  -18.3920   22.3491 C   0  0  0  0  0  0
  -26.1395  -23.4803   22.5650 C   0  0  0  0  0  0
  -26.5923  -24.7531   21.8730 C   0  0  0  0  0  0
  -26.6405  -22.4084   21.6048 C   0  0  0  0  0  0
  -27.9632  -24.3930   21.2659 C   0  0  2  0  0  0
  -31.0489  -16.0204   22.4503 C   0  0  0  0  0  0
  -29.0573  -16.2654   20.9596 C   0  0  0  0  0  0
  -29.1261  -22.1729   21.6365 C   0  0  0  0  0  0
  -28.3238  -25.2108   19.9788 C   0  0  0  0  0  0
  -30.1862  -15.4202   21.4270 N   0  0  0  0  0  0
  -27.9406  -22.8948   21.0713 N   0  3  1  0  0  0
  -28.1759  -17.6228   23.3517 F   0  0  0  0  0  0
  -31.4608  -12.4342   19.1087 H   0  0  0  0  0  0
  -30.3353  -11.3203   19.8232 H   0  0  0  0  0  0
  -29.7374  -11.7830   17.4268 H   0  0  0  0  0  0
  -29.6368  -13.4933   17.7608 H   0  0  0  0  0  0
  -27.8469  -11.2893   18.8389 H   0  0  0  0  0  0
  -27.3536  -12.5900   17.7892 H   0  0  0  0  0  0
  -27.6860  -14.2342   19.5415 H   0  0  0  0  0  0
  -28.6820  -11.9676   21.3357 H   0  0  0  0  0  0
  -28.4464  -13.6015   21.8635 H   0  0  0  0  0  0
  -25.2753   -9.5674   22.4749 H   0  0  0  0  0  0
  -24.0007   -7.4613   22.7441 H   0  0  0  0  0  0
  -21.0840   -8.8752   19.8943 H   0  0  0  0  0  0
  -22.3671  -10.9668   19.6161 H   0  0  0  0  0  0
  -21.1997   -7.6141   23.9713 H   0  0  0  0  0  0
  -21.1480   -6.0518   25.9077 H   0  0  0  0  0  0
  -22.0604   -2.7608   23.2843 H   0  0  0  0  0  0
  -22.4127  -11.9882   22.4810 H   0  0  0  0  0  0
  -21.1113  -13.1230   22.2654 H   0  0  0  0  0  0
  -24.6532  -15.8343   20.4944 H   0  0  0  0  0  0
  -26.2687  -15.6221   20.0563 H   0  0  0  0  0  0
  -26.7114  -32.5536   23.1167 H   0  0  0  0  0  0
  -25.0021  -33.9799   25.0456 H   0  0  0  0  0  0
  -22.6966  -31.3193   21.4130 H   0  0  0  0  0  0
  -23.3729  -35.9681   23.3309 H   0  0  0  0  0  0
  -24.3573  -36.8931   22.2053 H   0  0  0  0  0  0
  -23.7266  -37.6543   23.6649 H   0  0  0  0  0  0
  -26.0517  -31.5907   20.5949 H   0  0  0  0  0  0
  -26.8245  -30.8789   21.9853 H   0  0  0  0  0  0
  -28.0884  -29.0637   21.1882 H   0  0  0  0  0  0
  -25.9864  -26.0139   18.9361 H   0  0  0  0  0  0
  -23.9663  -27.3351   18.9982 H   0  0  0  0  0  0
  -23.7281  -30.6171   19.4061 H   0  0  0  0  0  0
  -22.7340  -29.2653   19.8570 H   0  0  0  0  0  0
  -25.1280  -36.1971   25.0837 H   0  0  0  0  0  0
  -20.9932  -28.3321   24.1469 H   0  0  0  0  0  0
  -20.5700  -26.2350   23.3607 H   0  0  0  0  0  0
  -21.6713  -26.7498   22.1215 H   0  0  0  0  0  0
  -19.6948  -25.6328   21.1195 H   0  0  0  0  0  0
  -19.6728  -27.3249   20.6738 H   0  0  0  0  0  0
  -17.4275  -26.6513   21.4024 H   0  0  0  0  0  0
  -18.0479  -26.0020   22.9043 H   0  0  0  0  0  0
  -19.7837  -30.7323   24.2237 H   0  0  0  0  0  0
  -17.4847  -31.6157   24.5243 H   0  0  0  0  0  0
  -15.5265  -30.2819   23.7657 H   0  0  0  0  0  0
  -15.8687  -28.0738   22.6969 H   0  0  0  0  0  0
  -24.5938  -30.7020   25.7830 H   0  0  0  0  0  0
  -24.8955  -32.2835   26.4945 H   0  0  0  0  0  0
  -25.8141  -30.8853   27.0227 H   0  0  0  0  0  0
  -26.2829  -29.6763   24.1189 H   0  0  0  0  0  0
  -27.4113  -29.7264   25.4519 H   0  0  0  0  0  0
  -27.8639  -30.4316   23.9192 H   0  0  0  0  0  0
  -27.2668  -33.3591   26.2085 H   0  0  0  0  0  0
  -28.3838  -32.6892   25.0286 H   0  0  0  0  0  0
  -28.0741  -31.8411   26.5360 H   0  0  0  0  0  0
  -28.2608  -38.0099   24.7493 H   0  0  0  0  0  0
  -28.1055  -36.2634   24.6313 H   0  0  0  0  0  0
  -27.2308  -37.1503   25.8876 H   0  0  0  0  0  0
  -20.9265  -29.8865   21.7005 H   0  0  0  0  0  0
  -26.0159  -38.2870   24.1422 H   0  0  0  0  0  0
  -29.9922  -20.6517   19.4704 H   0  0  0  0  0  0
  -29.9927  -18.1955   19.2121 H   0  0  0  0  0  0
  -28.3074  -20.2196   23.4227 H   0  0  0  0  0  0
  -25.0611  -23.4405   22.7170 H   0  0  0  0  0  0
  -26.6214  -23.3760   23.5377 H   0  0  0  0  0  0
  -26.6395  -25.6095   22.5473 H   0  0  0  0  0  0
  -25.8620  -24.9745   21.0961 H   0  0  0  0  0  0
  -25.9443  -22.3208   20.7687 H   0  0  0  0  0  0
  -26.6644  -21.4314   22.0817 H   0  0  0  0  0  0
  -28.7163  -24.6273   22.0204 H   0  0  0  0  0  0
  -31.6375  -16.8395   22.0342 H   0  0  0  0  0  0
  -31.7447  -15.2897   22.8668 H   0  0  0  0  0  0
  -30.4597  -16.4001   23.2847 H   0  0  0  0  0  0
  -28.8944  -16.1032   19.8920 H   0  0  0  0  0  0
  -28.1503  -15.9141   21.4527 H   0  0  0  0  0  0
  -30.0337  -22.5717   21.1820 H   0  0  0  0  0  0
  -29.2033  -22.3950   22.7030 H   0  0  0  0  0  0
  -27.7057  -24.9136   19.1346 H   0  0  0  0  0  0
  -29.3293  -24.9171   19.6765 H   0  0  0  0  0  0
  -27.9344  -22.6899   20.0822 H   0  0  0  0  0  0
  1 25  1  0  0  0
  1 30  2  0  0  0
  1 85  1  0  0  0
  2  3  1  0  0  0
  2 25  1  0  0  0
  2 88  1  0  0  0
  2 89  1  0  0  0
  3  4  1  0  0  0
  3 90  1  0  0  0
  3 91  1  0  0  0
  4  5  1  0  0  0
  4 92  1  0  0  0
  4 93  1  0  0  0
  5  6  1  0  0  0
  5 26  1  0  0  0
  5 94  1  0  0  0
  6 25  1  0  0  0
  6 95  1  0  0  0
  6 96  1  0  0  0
  7  8  2  0  0  0
  7 26  1  0  0  0
  7 29  1  0  0  0
  8  9  1  0  0  0
  8 22  1  0  0  0
  9 10  1  0  0  0
  9 27  2  0  0  0
 10 11  2  0  0  0
 10 15  1  0  0  0
 11 12  1  0  0  0
 11 97  1  0  0  0
 12 13  2  0  0  0
 12 98  1  0  0  0
 13 14  1  0  0  0
 13 31  1  0  0  0
 14 15  2  0  0  0
 14 99  1  0  0  0
 15100  1  0  0  0
 16 17  2  0  0  0
 16 21  1  0  0  0
 16 31  1  0  0  0
 17 18  1  0  0  0
 17101  1  0  0  0
 18 19  2  0  0  0
 18102  1  0  0  0
 19 20  1  0  0  0
 19 24  1  0  0  0
 20 21  2  0  0  0
 20103  1  0  0  0
 21 23  1  0  0  0
 22 28  1  0  0  0
 22 32  2  0  0  0
 26 27  1  0  0  0
 28104  1  0  0  0
 28105  1  0  0  0
 29106  1  0  0  0
 29107  1  0  0  0
 33 34  1  0  0  0
 33 66  1  0  0  0
 33 70  2  0  0  0
 34 36  1  0  0  0
 34 59  1  0  0  0
 34108  1  0  0  0
 35 44  2  0  0  0
 35 45  1  0  0  0
 35 68  1  0  0  0
 36 56  1  0  0  0
 36109  1  0  0  0
 37 39  1  0  0  0
 37 47  1  0  0  0
 37 66  1  0  0  0
 37110  1  0  0  0
 38 43  2  0  0  0
 38 46  1  0  0  0
 38 47  1  0  0  0
 39 64  1  0  0  0
 39 67  2  0  0  0
 40 52  1  0  0  0
 40 53  2  0  0  0
 40 58  1  0  0  0
 41111  1  0  0  0
 41112  1  0  0  0
 41113  1  0  0  0
 41 48  1  0  0  0
 42 43  1  0  0  0
 42 66  1  0  0  0
 42114  1  0  0  0
 42115  1  0  0  0
 43 44  1  0  0  0
 44116  1  0  0  0
 45 46  2  0  0  0
 45117  1  0  0  0
 46118  1  0  0  0
 47119  1  0  0  0
 47120  1  0  0  0
 48 56  1  0  0  0
 48 65  1  0  0  0
 48121  1  0  0  0
 49 50  1  0  0  0
 49 53  1  0  0  0
 49 64  1  0  0  0
 49122  1  0  0  0
 50 51  1  0  0  0
 50123  1  0  0  0
 50124  1  0  0  0
 51 52  1  0  0  0
 51125  1  0  0  0
 51126  1  0  0  0
 52127  1  0  0  0
 52128  1  0  0  0
 53 54  1  0  0  0
 54 55  2  0  0  0
 54129  1  0  0  0
 55 57  1  0  0  0
 55130  1  0  0  0
 56 69  2  0  0  0
 57 58  2  0  0  0
 57131  1  0  0  0
 58132  1  0  0  0
 59 60  1  0  0  0
 59 61  1  0  0  0
 59 62  1  0  0  0
 60133  1  0  0  0
 60134  1  0  0  0
 60135  1  0  0  0
 61136  1  0  0  0
 61137  1  0  0  0
 61138  1  0  0  0
 62139  1  0  0  0
 62140  1  0  0  0
 62141  1  0  0  0
 63 65  1  0  0  0
 63142  1  0  0  0
 63143  1  0  0  0
 63144  1  0  0  0
 64145  1  0  0  0
 65146  1  0  0  0
 68 84  1  0  0  0
 71 72  2  0  0  0
 71 74  1  0  0  0
 71147  1  0  0  0
 72 75  1  0  0  0
 72148  1  0  0  0
 73 74  2  0  0  0
 73 76  1  0  0  0
 73149  1  0  0  0
 74 83  1  0  0  0
 75 76  2  0  0  0
 75 82  1  0  0  0
 76 87  1  0  0  0
 77 78  1  0  0  0
 77 79  1  0  0  0
 77150  1  0  0  0
 77151  1  0  0  0
 78 80  1  0  0  0
 78152  1  0  0  0
 78153  1  0  0  0
 79 86  1  0  0  0
 79154  1  0  0  0
 79155  1  0  0  0
 80 84  1  0  0  0
 80 86  1  0  0  0
 80156  1  0  0  0
 81 85  1  0  0  0
 81157  1  0  0  0
 81158  1  0  0  0
 81159  1  0  0  0
 82 85  1  0  0  0
 82160  1  0  0  0
 82161  1  0  0  0
 83162  1  0  0  0
 83163  1  0  0  0
 83 86  1  0  0  0
 84164  1  0  0  0
 84165  1  0  0  0
 86166  1  0  0  0
M  CHG  1  86   1
M  ISO  4   1 100  68 101  84 101  85 100
M  END
> <chiral flag>
0

> <version>
0

> <s_m_source_file>
/data/baiqing/PycharmProjects/Reinvent-master-3.2/result/LINK_invent/BTK/process_docking_weight1_custom_product_contain_oxygen_bond_distance_aromatic_linkinvent_7_9_3/rearranged_h_0014.sdf

> <i_m_source_file_index>
45

> <r_mmod_Potential_Energy-OPLS-2005>
84.7449722290039

> <r_mmod_Stretch_Energy-OPLS-2005>
47.73388671875

> <r_mmod_Bend_Energy-OPLS-2005>
135.802032470703

> <r_mmod_Torsional_Energy-OPLS-2005>
316.240631103516

> <r_mmod_Improper_Torsional_Energy-OPLS-2005>
4.03636264801025

> <r_mmod_Van_der_Waal_Energy-OPLS-2005>
149.387222290039

> <r_mmod_Electrostatic_Energy-OPLS-2005>
-167.505905151367

> <r_mmod_Solvation_Energy-OPLS-2005>
-417.537292480469

> <b_mmod_Minimization_Converged-OPLS-2005>
0

> <r_mmod_RMS_Derivative-OPLS-2005>
2.46329379081726

$$$$
45
                    3D
 Structure written by MMmdl.
159168  0  0  1  0            999 V2000
  -30.5899  -14.7503   20.3548 C   0  0  0  0  0  0
  -30.4388  -12.4238   19.4704 C   0  0  0  0  0  0
  -29.5037  -12.3826   18.2407 C   0  0  0  0  0  0
  -28.0237  -12.2775   18.6639 C   0  0  0  0  0  0
  -27.6305  -13.2030   19.8492 C   0  0  2  0  0  0
  -28.6926  -13.1821   20.9681 C   0  0  0  0  0  0
  -25.2486  -13.8065   20.5772 C   0  0  0  0  0  0
  -24.1743  -13.0349   20.9279 C   0  0  0  0  0  0
  -24.6313  -11.6836   20.8827 C   0  0  0  0  0  0
  -23.8990  -10.4230   21.0455 C   0  0  0  0  0  0
  -24.3554   -9.4158   21.9233 C   0  0  0  0  0  0
  -23.6229   -8.2197   22.0781 C   0  0  0  0  0  0
  -22.4235   -8.0231   21.3543 C   0  0  0  0  0  0
  -21.9860   -9.0214   20.4665 C   0  0  0  0  0  0
  -22.7179  -10.2089   20.3081 C   0  0  0  0  0  0
  -21.6822   -6.0696   22.5278 C   0  0  0  0  0  0
  -21.4008   -6.5624   23.8204 C   0  0  0  0  0  0
  -21.3635   -5.6794   24.9179 C   0  0  0  0  0  0
  -21.6026   -4.3058   24.7249 C   0  0  0  0  0  0
  -21.8807   -3.8126   23.4386 C   0  0  0  0  0  0
  -21.9185   -4.6929   22.3425 C   0  0  0  0  0  0
  -22.7790  -13.5193   21.1897 C   0  0  0  0  0  0
  -22.1660   -4.2106   21.1009 F   0  0  0  0  0  0
  -21.5622   -3.4550   25.7776 F   0  0  0  0  0  0
  -29.9793  -13.5174   20.3503 N   0  0  0  0  0  0
  -26.2890  -12.9215   20.3398 N   0  0  0  0  0  0
  -25.9247  -11.6396   20.5878 N   0  0  0  0  0  0
  -22.0413  -12.8176   22.0434 N   0  0  0  0  0  0
  -25.4183  -15.1754   20.4134 N   0  0  0  0  0  0
  -31.8171  -14.8218   20.2506 O   0  0  0  0  0  0
  -21.6602   -6.8835   21.4228 O   0  0  0  0  0  0
  -22.3521  -14.5531   20.6782 O   0  0  0  0  0  0
  -24.6245  -31.8587   23.1981 C   0  0  0  0  0  0
  -25.9085  -32.4783   23.8348 C   0  0  1  0  0  0
  -27.2430  -27.3385   20.1265 C   0  0  0  0  0  0
  -25.5888  -33.8576   24.2301 N   0  0  0  0  0  0
  -23.4171  -30.4699   21.5435 C   0  0  2  0  0  0
  -24.8673  -28.9179   20.1143 C   0  0  0  0  0  0
  -22.7462  -29.4564   22.5013 C   0  0  0  0  0  0
  -18.0279  -28.1349   22.8493 C   0  0  0  0  0  0
  -24.1459  -36.7288   23.2629 C   0  0  0  0  0  0
  -25.9513  -30.7968   21.3621 C   0  0  0  0  0  0
  -26.0294  -29.4223   20.7100 C   0  0  0  0  0  0
  -27.2160  -28.6399   20.7057 C   0  0  0  0  0  0
  -26.0604  -26.8679   19.5166 C   0  0  0  0  0  0
  -24.8810  -27.6471   19.5085 C   0  0  0  0  0  0
  -23.6275  -29.7840   20.1666 C   0  0  0  0  0  0
  -25.4080  -36.3083   24.0331 C   0  0  1  0  0  0
  -20.5865  -28.3614   23.1319 C   0  0  2  0  0  0
  -20.6749  -26.9352   22.5403 C   0  0  0  0  0  0
  -19.5737  -26.6341   21.5197 C   0  0  0  0  0  0
  -18.1904  -26.7902   22.1595 C   0  0  0  0  0  0
  -19.1532  -28.8814   23.2880 C   0  0  0  0  0  0
  -18.9456  -30.1423   23.8870 C   0  0  0  0  0  0
  -17.6458  -30.6558   24.0543 C   0  0  0  0  0  0
  -25.9001  -34.9459   23.5109 C   0  0  0  0  0  0
  -16.5345  -29.9039   23.6349 C   0  0  0  0  0  0
  -16.7267  -28.6453   23.0383 C   0  0  0  0  0  0
  -26.4476  -31.6624   25.0762 C   0  0  0  0  0  0
  -25.3712  -31.3752   26.1523 C   0  0  0  0  0  0
  -27.0343  -30.3061   24.6196 C   0  0  0  0  0  0
  -27.6014  -32.4407   25.7528 C   0  0  0  0  0  0
  -27.5580  -37.1765   24.8463 C   0  0  0  0  0  0
  -21.4176  -29.2976   22.3760 N   0  0  0  0  0  0
  -26.4286  -37.3771   23.9431 N   0  0  0  0  0  0
  -24.6816  -31.0602   22.0918 N   0  0  0  0  0  0
  -23.4207  -28.8096   23.3075 O   0  0  0  0  0  0
  -28.4122  -26.5774   20.2134 O   0  0  0  0  0  0
  -26.5557  -34.8926   22.4670 O   0  0  0  0  0  0
  -23.5415  -32.1401   23.7307 O   0  0  0  0  0  0
  -27.9578  -19.0249   20.6421 C   0  0  0  0  0  0
  -28.2777  -17.6428   20.5224 C   0  0  0  0  0  0
  -30.2791  -19.5791   20.4836 C   0  0  0  0  0  0
  -28.9377  -20.0559   20.5899 C   0  0  0  0  0  0
  -29.6051  -17.1665   20.3692 C   0  0  0  0  0  0
  -30.6086  -18.1820   20.3828 C   0  0  0  0  0  0
  -27.0428  -23.3555   20.6544 C   0  0  0  0  0  0
  -27.2275  -21.8879   21.0946 C   0  0  0  0  0  0
  -29.3041  -22.6611   20.2065 C   0  0  0  0  0  0
  -28.4557  -23.9449   20.5802 C   0  0  1  0  0  0
  -29.6548  -15.7825   18.3936 C   0  0  0  0  0  0
  -28.5842  -25.2320   19.6509 C   0  0  0  0  0  0
  -28.5511  -21.4548   20.6373 N   0  0  0  0  0  0
  -29.8111  -15.7965   19.8631 N   0  0  0  0  0  0
  -31.9077  -17.8341   20.2223 F   0  0  0  0  0  0
  -31.4725  -12.5647   19.1516 H   0  0  0  0  0  0
  -30.4075  -11.4726   20.0058 H   0  0  0  0  0  0
  -29.7568  -11.5150   17.6316 H   0  0  0  0  0  0
  -29.6574  -13.2407   17.5918 H   0  0  0  0  0  0
  -27.8645  -11.2377   18.9524 H   0  0  0  0  0  0
  -27.3697  -12.4491   17.8088 H   0  0  0  0  0  0
  -27.5854  -14.2128   19.4590 H   0  0  0  0  0  0
  -28.7425  -12.2028   21.4452 H   0  0  0  0  0  0
  -28.4448  -13.9052   21.7474 H   0  0  0  0  0  0
  -25.2692   -9.5630   22.4829 H   0  0  0  0  0  0
  -23.9909   -7.4582   22.7513 H   0  0  0  0  0  0
  -21.0792   -8.8740   19.8984 H   0  0  0  0  0  0
  -22.3640  -10.9642   19.6207 H   0  0  0  0  0  0
  -21.2011   -7.6138   23.9690 H   0  0  0  0  0  0
  -21.1463   -6.0552   25.9066 H   0  0  0  0  0  0
  -22.0603   -2.7588   23.2921 H   0  0  0  0  0  0
  -22.3982  -11.9787   22.4772 H   0  0  0  0  0  0
  -21.1060  -13.1255   22.2701 H   0  0  0  0  0  0
  -24.6583  -15.8360   20.5254 H   0  0  0  0  0  0
  -26.2626  -15.5924   20.0450 H   0  0  0  0  0  0
  -26.7148  -32.5510   23.1103 H   0  0  0  0  0  0
  -25.0185  -33.9694   25.0556 H   0  0  0  0  0  0
  -22.7076  -31.2856   21.3901 H   0  0  0  0  0  0
  -23.3747  -35.9605   23.3307 H   0  0  0  0  0  0
  -24.3530  -36.8903   22.2039 H   0  0  0  0  0  0
  -23.7206  -37.6474   23.6666 H   0  0  0  0  0  0
  -26.0778  -31.5525   20.5872 H   0  0  0  0  0  0
  -26.8335  -30.8531   21.9879 H   0  0  0  0  0  0
  -28.1114  -29.0221   21.1738 H   0  0  0  0  0  0
  -26.0179  -25.8837   19.0730 H   0  0  0  0  0  0
  -23.9866  -27.2462   19.0515 H   0  0  0  0  0  0
  -23.7215  -30.5442   19.3912 H   0  0  0  0  0  0
  -22.7586  -29.1824   19.8935 H   0  0  0  0  0  0
  -25.1250  -36.1909   25.0822 H   0  0  0  0  0  0
  -20.9948  -28.3151   24.1456 H   0  0  0  0  0  0
  -20.5607  -26.2211   23.3574 H   0  0  0  0  0  0
  -21.6622  -26.7366   22.1234 H   0  0  0  0  0  0
  -19.6882  -25.6242   21.1246 H   0  0  0  0  0  0
  -19.6711  -27.3146   20.6734 H   0  0  0  0  0  0
  -17.4190  -26.6695   21.3973 H   0  0  0  0  0  0
  -18.0266  -26.0029   22.8966 H   0  0  0  0  0  0
  -19.7940  -30.7231   24.2253 H   0  0  0  0  0  0
  -17.5016  -31.6265   24.5095 H   0  0  0  0  0  0
  -15.5342  -30.2911   23.7701 H   0  0  0  0  0  0
  -15.8664  -28.0728   22.7175 H   0  0  0  0  0  0
  -24.5877  -30.7079   25.7910 H   0  0  0  0  0  0
  -24.8903  -32.2903   26.4990 H   0  0  0  0  0  0
  -25.8045  -30.8951   27.0301 H   0  0  0  0  0  0
  -26.2949  -29.6785   24.1199 H   0  0  0  0  0  0
  -27.4037  -29.7337   25.4702 H   0  0  0  0  0  0
  -27.8792  -30.4400   23.9432 H   0  0  0  0  0  0
  -27.2633  -33.3746   26.2063 H   0  0  0  0  0  0
  -28.3849  -32.6932   25.0360 H   0  0  0  0  0  0
  -28.0667  -31.8576   26.5490 H   0  0  0  0  0  0
  -28.2573  -38.0079   24.7577 H   0  0  0  0  0  0
  -28.1082  -36.2619   24.6223 H   0  0  0  0  0  0
  -27.2288  -37.1353   25.8850 H   0  0  0  0  0  0
  -20.9347  -29.8740   21.6999 H   0  0  0  0  0  0
  -26.0156  -38.2832   24.1477 H   0  0  0  0  0  0
  -26.9107  -19.2770   20.7204 H   0  0  0  0  0  0
  -27.4627  -16.9425   20.4733 H   0  0  0  0  0  0
  -31.0914  -20.2895   20.4573 H   0  0  0  0  0  0
  -26.3822  -23.9211   21.3188 H   0  0  0  0  0  0
  -26.5764  -23.3727   19.6674 H   0  0  0  0  0  0
  -26.4118  -21.2983   20.6784 H   0  0  0  0  0  0
  -27.1857  -21.7995   22.1824 H   0  0  0  0  0  0
  -30.2795  -22.7051   20.6913 H   0  0  0  0  0  0
  -29.4801  -22.6291   19.1320 H   0  0  0  0  0  0
  -28.7501  -24.2252   21.5919 H   0  0  0  0  0  0
  -28.7415  -15.2803   18.0845 H   0  0  0  0  0  0
  -30.4881  -15.2953   17.8813 H   0  0  0  0  0  0
  -29.5929  -16.7893   17.9756 H   0  0  0  0  0  0
  -28.0191  -25.0989   18.7309 H   0  0  0  0  0  0
  -29.6217  -25.2553   19.3108 H   0  0  0  0  0  0
  1 25  1  0  0  0
  1 30  2  0  0  0
  1 84  1  0  0  0
  2  3  1  0  0  0
  2 25  1  0  0  0
  2 86  1  0  0  0
  2 87  1  0  0  0
  3  4  1  0  0  0
  3 88  1  0  0  0
  3 89  1  0  0  0
  4  5  1  0  0  0
  4 90  1  0  0  0
  4 91  1  0  0  0
  5  6  1  0  0  0
  5 26  1  0  0  0
  5 92  1  0  0  0
  6 25  1  0  0  0
  6 93  1  0  0  0
  6 94  1  0  0  0
  7  8  2  0  0  0
  7 26  1  0  0  0
  7 29  1  0  0  0
  8  9  1  0  0  0
  8 22  1  0  0  0
  9 10  1  0  0  0
  9 27  2  0  0  0
 10 11  2  0  0  0
 10 15  1  0  0  0
 11 12  1  0  0  0
 11 95  1  0  0  0
 12 13  2  0  0  0
 12 96  1  0  0  0
 13 14  1  0  0  0
 13 31  1  0  0  0
 14 15  2  0  0  0
 14 97  1  0  0  0
 15 98  1  0  0  0
 16 17  2  0  0  0
 16 21  1  0  0  0
 16 31  1  0  0  0
 17 18  1  0  0  0
 17 99  1  0  0  0
 18 19  2  0  0  0
 18100  1  0  0  0
 19 20  1  0  0  0
 19 24  1  0  0  0
 20 21  2  0  0  0
 20101  1  0  0  0
 21 23  1  0  0  0
 22 28  1  0  0  0
 22 32  2  0  0  0
 26 27  1  0  0  0
 28102  1  0  0  0
 28103  1  0  0  0
 29104  1  0  0  0
 29105  1  0  0  0
 33 34  1  0  0  0
 33 66  1  0  0  0
 33 70  2  0  0  0
 34 36  1  0  0  0
 34 59  1  0  0  0
 34106  1  0  0  0
 35 44  2  0  0  0
 35 45  1  0  0  0
 35 68  1  0  0  0
 36 56  1  0  0  0
 36107  1  0  0  0
 37 39  1  0  0  0
 37 47  1  0  0  0
 37 66  1  0  0  0
 37108  1  0  0  0
 38 43  2  0  0  0
 38 46  1  0  0  0
 38 47  1  0  0  0
 39 64  1  0  0  0
 39 67  2  0  0  0
 40 52  1  0  0  0
 40 53  2  0  0  0
 40 58  1  0  0  0
 41109  1  0  0  0
 41110  1  0  0  0
 41111  1  0  0  0
 41 48  1  0  0  0
 42 43  1  0  0  0
 42 66  1  0  0  0
 42112  1  0  0  0
 42113  1  0  0  0
 43 44  1  0  0  0
 44114  1  0  0  0
 45 46  2  0  0  0
 45115  1  0  0  0
 46116  1  0  0  0
 47117  1  0  0  0
 47118  1  0  0  0
 48 56  1  0  0  0
 48 65  1  0  0  0
 48119  1  0  0  0
 49 50  1  0  0  0
 49 53  1  0  0  0
 49 64  1  0  0  0
 49120  1  0  0  0
 50 51  1  0  0  0
 50121  1  0  0  0
 50122  1  0  0  0
 51 52  1  0  0  0
 51123  1  0  0  0
 51124  1  0  0  0
 52125  1  0  0  0
 52126  1  0  0  0
 53 54  1  0  0  0
 54 55  2  0  0  0
 54127  1  0  0  0
 55 57  1  0  0  0
 55128  1  0  0  0
 56 69  2  0  0  0
 57 58  2  0  0  0
 57129  1  0  0  0
 58130  1  0  0  0
 59 60  1  0  0  0
 59 61  1  0  0  0
 59 62  1  0  0  0
 60131  1  0  0  0
 60132  1  0  0  0
 60133  1  0  0  0
 61134  1  0  0  0
 61135  1  0  0  0
 61136  1  0  0  0
 62137  1  0  0  0
 62138  1  0  0  0
 62139  1  0  0  0
 63 65  1  0  0  0
 63140  1  0  0  0
 63141  1  0  0  0
 63142  1  0  0  0
 64143  1  0  0  0
 65144  1  0  0  0
 68 82  1  0  0  0
 71 72  2  0  0  0
 71 74  1  0  0  0
 71145  1  0  0  0
 72 75  1  0  0  0
 72146  1  0  0  0
 73 74  2  0  0  0
 73 76  1  0  0  0
 73147  1  0  0  0
 74 83  1  0  0  0
 75 76  2  0  0  0
 75 84  1  0  0  0
 76 85  1  0  0  0
 77 78  1  0  0  0
 77 80  1  0  0  0
 77148  1  0  0  0
 77149  1  0  0  0
 78 83  1  0  0  0
 78150  1  0  0  0
 78151  1  0  0  0
 79 80  1  0  0  0
 79 83  1  0  0  0
 79152  1  0  0  0
 79153  1  0  0  0
 80 82  1  0  0  0
 80154  1  0  0  0
 81 84  1  0  0  0
 81155  1  0  0  0
 81156  1  0  0  0
 81157  1  0  0  0
 82158  1  0  0  0
 82159  1  0  0  0
M  ISO  4   1 100  68 101  82 101  84 100
M  END
> <chiral flag>
0

> <version>
0

> <s_m_source_file>
/data/baiqing/PycharmProjects/Reinvent-master-3.2/result/LINK_invent/BTK/process_docking_weight1_custom_product_contain_oxygen_bond_distance_aromatic_linkinvent_7_9_3/rearranged_h_0014.sdf

> <i_m_source_file_index>
46

> <r_mmod_Potential_Energy-OPLS-2005>
397.358306884766

> <r_mmod_Stretch_Energy-OPLS-2005>
83.6145858764648

> <r_mmod_Bend_Energy-OPLS-2005>
210.406036376953

> <r_mmod_Torsional_Energy-OPLS-2005>
386.013031005859

> <r_mmod_Improper_Torsional_Energy-OPLS-2005>
27.2587985992432

> <r_mmod_Van_der_Waal_Energy-OPLS-2005>
136.790618896484

> <r_mmod_Electrostatic_Energy-OPLS-2005>
-309.662841796875

> <r_mmod_Solvation_Energy-OPLS-2005>
-216.934997558594

> <b_mmod_Minimization_Converged-OPLS-2005>
0

> <r_mmod_RMS_Derivative-OPLS-2005>
4.46805763244629

$$$$
46
                    3D
 Structure written by MMmdl.
161169  0  0  1  0            999 V2000
  -30.5456  -14.9577   20.3574 C   0  0  0  0  0  0
  -30.4489  -12.5755   19.4802 C   0  0  0  0  0  0
  -29.5092  -12.3710   18.2635 C   0  0  0  0  0  0
  -28.0353  -12.2544   18.6898 C   0  0  0  0  0  0
  -27.6233  -13.2354   19.8190 C   0  0  2  0  0  0
  -28.6766  -13.3050   20.9421 C   0  0  0  0  0  0
  -25.2478  -13.8222   20.5731 C   0  0  0  0  0  0
  -24.1768  -13.0461   20.9245 C   0  0  0  0  0  0
  -24.6363  -11.6944   20.8802 C   0  0  0  0  0  0
  -23.9050  -10.4307   21.0438 C   0  0  0  0  0  0
  -24.3604   -9.4218   21.9208 C   0  0  0  0  0  0
  -23.6283   -8.2250   22.0768 C   0  0  0  0  0  0
  -22.4269   -8.0286   21.3553 C   0  0  0  0  0  0
  -21.9904   -9.0264   20.4661 C   0  0  0  0  0  0
  -22.7227  -10.2146   20.3078 C   0  0  0  0  0  0
  -21.6850   -6.0732   22.5276 C   0  0  0  0  0  0
  -21.4016   -6.5639   23.8210 C   0  0  0  0  0  0
  -21.3657   -5.6791   24.9174 C   0  0  0  0  0  0
  -21.6043   -4.3055   24.7227 C   0  0  0  0  0  0
  -21.8818   -3.8146   23.4348 C   0  0  0  0  0  0
  -21.9193   -4.6960   22.3404 C   0  0  0  0  0  0
  -22.7788  -13.5237   21.1891 C   0  0  0  0  0  0
  -22.1658   -4.2147   21.0979 F   0  0  0  0  0  0
  -21.5630   -3.4539   25.7740 F   0  0  0  0  0  0
  -29.9374  -13.7038   20.3067 N   0  0  0  0  0  0
  -26.2874  -12.9425   20.3257 N   0  0  0  0  0  0
  -25.9290  -11.6583   20.5829 N   0  0  0  0  0  0
  -22.0429  -12.8217   22.0438 N   0  0  0  0  0  0
  -25.4214  -15.1941   20.4162 N   0  0  0  0  0  0
  -31.7798  -14.9736   20.2880 O   0  0  0  0  0  0
  -21.6644   -6.8877   21.4236 O   0  0  0  0  0  0
  -22.3473  -14.5535   20.6730 O   0  0  0  0  0  0
  -24.6419  -31.8441   23.1929 C   0  0  0  0  0  0
  -25.9194  -32.4686   23.8321 C   0  0  1  0  0  0
  -27.2085  -27.1497   20.1715 C   0  0  0  0  0  0
  -25.5950  -33.8493   24.2235 N   0  0  0  0  0  0
  -23.4458  -30.4675   21.5344 C   0  0  2  0  0  0
  -24.8949  -28.8959   20.1142 C   0  0  0  0  0  0
  -22.7567  -29.4554   22.4842 C   0  0  0  0  0  0
  -18.0310  -28.1396   22.8476 C   0  0  0  0  0  0
  -24.1480  -36.7248   23.2645 C   0  0  0  0  0  0
  -25.9998  -30.7269   21.3874 C   0  0  0  0  0  0
  -26.0705  -29.3367   20.7362 C   0  0  0  0  0  0
  -27.2319  -28.4796   20.7471 C   0  0  0  0  0  0
  -26.0157  -26.8102   19.4986 C   0  0  0  0  0  0
  -24.8804  -27.6456   19.4777 C   0  0  0  0  0  0
  -23.6732  -29.8001   20.1525 C   0  0  0  0  0  0
  -25.4106  -36.3019   24.0327 C   0  0  1  0  0  0
  -20.5928  -28.3717   23.1225 C   0  0  2  0  0  0
  -20.6794  -26.9421   22.5391 C   0  0  0  0  0  0
  -19.5761  -26.6385   21.5203 C   0  0  0  0  0  0
  -18.1946  -26.7939   22.1620 C   0  0  0  0  0  0
  -19.1572  -28.8875   23.2840 C   0  0  0  0  0  0
  -18.9487  -30.1473   23.8865 C   0  0  0  0  0  0
  -17.6481  -30.6589   24.0559 C   0  0  0  0  0  0
  -25.9057  -34.9388   23.5080 C   0  0  0  0  0  0
  -16.5367  -29.9081   23.6341 C   0  0  0  0  0  0
  -16.7293  -28.6503   23.0358 C   0  0  0  0  0  0
  -26.4549  -31.6540   25.0739 C   0  0  0  0  0  0
  -25.3769  -31.3678   26.1458 C   0  0  0  0  0  0
  -27.0434  -30.2954   24.6276 C   0  0  0  0  0  0
  -27.6099  -32.4299   25.7503 C   0  0  0  0  0  0
  -27.5567  -37.1768   24.8472 C   0  0  0  0  0  0
  -21.4262  -29.3042   22.3593 N   0  0  0  0  0  0
  -26.4271  -37.3733   23.9425 N   0  0  0  0  0  0
  -24.7155  -31.0343   22.0933 N   0  0  0  0  0  0
  -23.4220  -28.8094   23.2976 O   0  0  0  0  0  0
  -28.2600  -26.1724   20.2163 O   0  0  0  0  0  0
  -26.5631  -34.8880   22.4650 O   0  0  0  0  0  0
  -23.5540  -32.1275   23.7169 O   0  0  0  0  0  0
  -28.1716  -19.6616   19.8839 C   0  0  0  0  0  0
  -28.4221  -18.2452   19.7383 C   0  0  0  0  0  0
  -30.1110  -19.8362   21.2061 C   0  0  0  0  0  0
  -29.0052  -20.5572   20.6183 C   0  0  0  0  0  0
  -29.5471  -17.5252   20.2802 C   0  0  0  0  0  0
  -30.3822  -18.4089   21.0448 C   0  0  0  0  0  0
  -30.5195  -16.8679   16.0844 C   0  0  0  0  0  0
  -28.2698  -22.0607   22.3533 C   0  0  0  0  0  0
  -30.5929  -17.0416   17.6057 C   0  0  0  0  0  0
  -29.7362  -15.9930   18.3566 C   0  0  0  0  0  0
  -28.8884  -23.3230   20.2513 C   0  0  0  0  0  0
  -27.9619  -24.6910   20.5715 C   0  0  0  0  0  0
  -29.8208  -16.0782   19.8378 N   0  0  0  0  0  0
  -28.5974  -21.9530   20.9328 N   0  0  0  0  0  0
  -31.4954  -17.8982   21.6240 F   0  0  0  0  0  0
  -31.4657  -12.7600   19.1286 H   0  0  0  0  0  0
  -30.5015  -11.6676   20.0831 H   0  0  0  0  0  0
  -29.7978  -11.4543   17.7481 H   0  0  0  0  0  0
  -29.6150  -13.1412   17.5079 H   0  0  0  0  0  0
  -27.8952  -11.2290   19.0352 H   0  0  0  0  0  0
  -27.3780  -12.3658   17.8267 H   0  0  0  0  0  0
  -27.5749  -14.2193   19.3535 H   0  0  0  0  0  0
  -28.7773  -12.3475   21.4557 H   0  0  0  0  0  0
  -28.3841  -14.0415   21.6927 H   0  0  0  0  0  0
  -25.2746   -9.5691   22.4789 H   0  0  0  0  0  0
  -23.9999   -7.4632   22.7471 H   0  0  0  0  0  0
  -21.0850   -8.8777   19.8951 H   0  0  0  0  0  0
  -22.3689  -10.9690   19.6194 H   0  0  0  0  0  0
  -21.2004   -7.6148   23.9713 H   0  0  0  0  0  0
  -21.1478   -6.0526   25.9076 H   0  0  0  0  0  0
  -22.0596   -2.7609   23.2851 H   0  0  0  0  0  0
  -22.4033  -11.9865   22.4812 H   0  0  0  0  0  0
  -21.1056  -13.1256   22.2666 H   0  0  0  0  0  0
  -24.6637  -15.8555   20.5461 H   0  0  0  0  0  0
  -26.2867  -15.6319   20.1284 H   0  0  0  0  0  0
  -26.7258  -32.5314   23.1056 H   0  0  0  0  0  0
  -25.0145  -33.9619   25.0415 H   0  0  0  0  0  0
  -22.7467  -31.2927   21.3824 H   0  0  0  0  0  0
  -23.3744  -35.9578   23.3281 H   0  0  0  0  0  0
  -24.3574  -36.8902   22.2065 H   0  0  0  0  0  0
  -23.7231  -37.6434   23.6694 H   0  0  0  0  0  0
  -26.1525  -31.4802   20.6128 H   0  0  0  0  0  0
  -26.8718  -30.7814   22.0282 H   0  0  0  0  0  0
  -28.1294  -28.8082   21.2525 H   0  0  0  0  0  0
  -25.9420  -25.8625   18.9861 H   0  0  0  0  0  0
  -23.9890  -27.3068   18.9681 H   0  0  0  0  0  0
  -23.8155  -30.5752   19.3982 H   0  0  0  0  0  0
  -22.7867  -29.2464   19.8390 H   0  0  0  0  0  0
  -25.1284  -36.1843   25.0818 H   0  0  0  0  0  0
  -21.0034  -28.3317   24.1338 H   0  0  0  0  0  0
  -20.5691  -26.2334   23.3605 H   0  0  0  0  0  0
  -21.6661  -26.7424   22.1187 H   0  0  0  0  0  0
  -19.6924  -25.6291   21.1250 H   0  0  0  0  0  0
  -19.6705  -27.3185   20.6723 H   0  0  0  0  0  0
  -17.4210  -26.6682   21.4019 H   0  0  0  0  0  0
  -18.0338  -26.0083   22.9017 H   0  0  0  0  0  0
  -19.7963  -30.7301   24.2214 H   0  0  0  0  0  0
  -17.5030  -31.6266   24.5169 H   0  0  0  0  0  0
  -15.5365  -30.2960   23.7691 H   0  0  0  0  0  0
  -15.8697  -28.0805   22.7085 H   0  0  0  0  0  0
  -24.5980  -30.6976   25.7803 H   0  0  0  0  0  0
  -24.8922  -32.2826   26.4867 H   0  0  0  0  0  0
  -25.8111  -30.8893   27.0248 H   0  0  0  0  0  0
  -26.3043  -29.6637   24.1338 H   0  0  0  0  0  0
  -27.4146  -29.7278   25.4819 H   0  0  0  0  0  0
  -27.8905  -30.4222   23.9534 H   0  0  0  0  0  0
  -27.2745  -33.3656   26.1984 H   0  0  0  0  0  0
  -28.3966  -32.6750   25.0355 H   0  0  0  0  0  0
  -28.0695  -31.8466   26.5487 H   0  0  0  0  0  0
  -28.2562  -38.0084   24.7541 H   0  0  0  0  0  0
  -28.1089  -36.2618   24.6275 H   0  0  0  0  0  0
  -27.2293  -37.1385   25.8875 H   0  0  0  0  0  0
  -20.9448  -29.8762   21.6796 H   0  0  0  0  0  0
  -26.0132  -38.2792   24.1463 H   0  0  0  0  0  0
  -27.2745  -20.0598   19.4303 H   0  0  0  0  0  0
  -27.7077  -17.6975   19.1422 H   0  0  0  0  0  0
  -30.7950  -20.3938   21.8288 H   0  0  0  0  0  0
  -31.1517  -17.5998   15.5803 H   0  0  0  0  0  0
  -29.5012  -17.0063   15.7188 H   0  0  0  0  0  0
  -30.8530  -15.8754   15.7794 H   0  0  0  0  0  0
  -28.2471  -21.0922   22.8571 H   0  0  0  0  0  0
  -27.2813  -22.5054   22.4769 H   0  0  0  0  0  0
  -28.9893  -22.6925   22.8779 H   0  0  0  0  0  0
  -30.2903  -18.0628   17.8349 H   0  0  0  0  0  0
  -31.6333  -16.9568   17.9237 H   0  0  0  0  0  0
  -30.1007  -15.0441   17.9844 H   0  0  0  0  0  0
  -28.6942  -16.0407   18.0422 H   0  0  0  0  0  0
  -29.9227  -23.5684   20.4952 H   0  0  0  0  0  0
  -28.8825  -23.1607   19.1736 H   0  0  0  0  0  0
  -27.8598  -24.7299   21.6559 H   0  0  0  0  0  0
  -26.9610  -24.4423   20.2265 H   0  0  0  0  0  0
  1 25  1  0  0  0
  1 30  2  0  0  0
  1 83  1  0  0  0
  2  3  1  0  0  0
  2 25  1  0  0  0
  2 86  1  0  0  0
  2 87  1  0  0  0
  3  4  1  0  0  0
  3 88  1  0  0  0
  3 89  1  0  0  0
  4  5  1  0  0  0
  4 90  1  0  0  0
  4 91  1  0  0  0
  5  6  1  0  0  0
  5 26  1  0  0  0
  5 92  1  0  0  0
  6 25  1  0  0  0
  6 93  1  0  0  0
  6 94  1  0  0  0
  7  8  2  0  0  0
  7 26  1  0  0  0
  7 29  1  0  0  0
  8  9  1  0  0  0
  8 22  1  0  0  0
  9 10  1  0  0  0
  9 27  2  0  0  0
 10 11  2  0  0  0
 10 15  1  0  0  0
 11 12  1  0  0  0
 11 95  1  0  0  0
 12 13  2  0  0  0
 12 96  1  0  0  0
 13 14  1  0  0  0
 13 31  1  0  0  0
 14 15  2  0  0  0
 14 97  1  0  0  0
 15 98  1  0  0  0
 16 17  2  0  0  0
 16 21  1  0  0  0
 16 31  1  0  0  0
 17 18  1  0  0  0
 17 99  1  0  0  0
 18 19  2  0  0  0
 18100  1  0  0  0
 19 20  1  0  0  0
 19 24  1  0  0  0
 20 21  2  0  0  0
 20101  1  0  0  0
 21 23  1  0  0  0
 22 28  1  0  0  0
 22 32  2  0  0  0
 26 27  1  0  0  0
 28102  1  0  0  0
 28103  1  0  0  0
 29104  1  0  0  0
 29105  1  0  0  0
 33 34  1  0  0  0
 33 66  1  0  0  0
 33 70  2  0  0  0
 34 36  1  0  0  0
 34 59  1  0  0  0
 34106  1  0  0  0
 35 44  2  0  0  0
 35 45  1  0  0  0
 35 68  1  0  0  0
 36 56  1  0  0  0
 36107  1  0  0  0
 37 39  1  0  0  0
 37 47  1  0  0  0
 37 66  1  0  0  0
 37108  1  0  0  0
 38 43  2  0  0  0
 38 46  1  0  0  0
 38 47  1  0  0  0
 39 64  1  0  0  0
 39 67  2  0  0  0
 40 52  1  0  0  0
 40 53  2  0  0  0
 40 58  1  0  0  0
 41109  1  0  0  0
 41110  1  0  0  0
 41111  1  0  0  0
 41 48  1  0  0  0
 42 43  1  0  0  0
 42 66  1  0  0  0
 42112  1  0  0  0
 42113  1  0  0  0
 43 44  1  0  0  0
 44114  1  0  0  0
 45 46  2  0  0  0
 45115  1  0  0  0
 46116  1  0  0  0
 47117  1  0  0  0
 47118  1  0  0  0
 48 56  1  0  0  0
 48 65  1  0  0  0
 48119  1  0  0  0
 49 50  1  0  0  0
 49 53  1  0  0  0
 49 64  1  0  0  0
 49120  1  0  0  0
 50 51  1  0  0  0
 50121  1  0  0  0
 50122  1  0  0  0
 51 52  1  0  0  0
 51123  1  0  0  0
 51124  1  0  0  0
 52125  1  0  0  0
 52126  1  0  0  0
 53 54  1  0  0  0
 54 55  2  0  0  0
 54127  1  0  0  0
 55 57  1  0  0  0
 55128  1  0  0  0
 56 69  2  0  0  0
 57 58  2  0  0  0
 57129  1  0  0  0
 58130  1  0  0  0
 59 60  1  0  0  0
 59 61  1  0  0  0
 59 62  1  0  0  0
 60131  1  0  0  0
 60132  1  0  0  0
 60133  1  0  0  0
 61134  1  0  0  0
 61135  1  0  0  0
 61136  1  0  0  0
 62137  1  0  0  0
 62138  1  0  0  0
 62139  1  0  0  0
 63 65  1  0  0  0
 63140  1  0  0  0
 63141  1  0  0  0
 63142  1  0  0  0
 64143  1  0  0  0
 65144  1  0  0  0
 68 82  1  0  0  0
 71 72  2  0  0  0
 71 74  1  0  0  0
 71145  1  0  0  0
 72 75  1  0  0  0
 72146  1  0  0  0
 73 74  2  0  0  0
 73 76  1  0  0  0
 73147  1  0  0  0
 74 84  1  0  0  0
 75 76  2  0  0  0
 75 83  1  0  0  0
 76 85  1  0  0  0
 77 79  1  0  0  0
 77148  1  0  0  0
 77149  1  0  0  0
 77150  1  0  0  0
 78 84  1  0  0  0
 78151  1  0  0  0
 78152  1  0  0  0
 78153  1  0  0  0
 79 80  1  0  0  0
 79154  1  0  0  0
 79155  1  0  0  0
 80 83  1  0  0  0
 80156  1  0  0  0
 80157  1  0  0  0
 81 82  1  0  0  0
 81 84  1  0  0  0
 81158  1  0  0  0
 81159  1  0  0  0
 82160  1  0  0  0
 82161  1  0  0  0
M  ISO  4   1 100  68 101  82 101  83 100
M  END
> <chiral flag>
0

> <version>
0

> <s_m_source_file>
/data/baiqing/PycharmProjects/Reinvent-master-3.2/result/LINK_invent/BTK/process_docking_weight1_custom_product_contain_oxygen_bond_distance_aromatic_linkinvent_7_9_3/rearranged_h_0014.sdf

> <i_m_source_file_index>
47

> <r_mmod_Potential_Energy-OPLS-2005>
719.043151855469

> <r_mmod_Stretch_Energy-OPLS-2005>
220.687744140625

> <r_mmod_Bend_Energy-OPLS-2005>
267.707489013672

> <r_mmod_Torsional_Energy-OPLS-2005>
355.588256835938

> <r_mmod_Improper_Torsional_Energy-OPLS-2005>
30.1393146514893

> <r_mmod_Van_der_Waal_Energy-OPLS-2005>
142.667190551758

> <r_mmod_Electrostatic_Energy-OPLS-2005>
-294.21044921875

> <r_mmod_Solvation_Energy-OPLS-2005>
-205.7685546875

> <b_mmod_Minimization_Converged-OPLS-2005>
0

> <r_mmod_RMS_Derivative-OPLS-2005>
1.81018364429474

$$$$
47
                    3D
 Structure written by MMmdl.
160169  0  0  1  0            999 V2000
  -30.6970  -14.5026   20.5711 C   0  0  0  0  0  0
  -30.4288  -12.3197   19.4357 C   0  0  0  0  0  0
  -29.4987  -12.4800   18.2141 C   0  0  0  0  0  0
  -28.0219  -12.3118   18.6246 C   0  0  0  0  0  0
  -27.6490  -13.1795   19.8518 C   0  0  2  0  0  0
  -28.6933  -13.0174   20.9823 C   0  0  0  0  0  0
  -25.2538  -13.8063   20.5628 C   0  0  0  0  0  0
  -24.1797  -13.0381   20.9196 C   0  0  0  0  0  0
  -24.6344  -11.6847   20.8757 C   0  0  0  0  0  0
  -23.9012  -10.4256   21.0428 C   0  0  0  0  0  0
  -24.3579   -9.4178   21.9193 C   0  0  0  0  0  0
  -23.6262   -8.2206   22.0751 C   0  0  0  0  0  0
  -22.4247   -8.0254   21.3541 C   0  0  0  0  0  0
  -21.9876   -9.0221   20.4641 C   0  0  0  0  0  0
  -22.7196  -10.2104   20.3059 C   0  0  0  0  0  0
  -21.6836   -6.0713   22.5273 C   0  0  0  0  0  0
  -21.3998   -6.5626   23.8206 C   0  0  0  0  0  0
  -21.3661   -5.6783   24.9176 C   0  0  0  0  0  0
  -21.6049   -4.3041   24.7222 C   0  0  0  0  0  0
  -21.8824   -3.8131   23.4344 C   0  0  0  0  0  0
  -21.9191   -4.6948   22.3399 C   0  0  0  0  0  0
  -22.7831  -13.5206   21.1865 C   0  0  0  0  0  0
  -22.1659   -4.2138   21.0975 F   0  0  0  0  0  0
  -21.5638   -3.4529   25.7734 F   0  0  0  0  0  0
  -30.0284  -13.3195   20.4409 N   0  0  0  0  0  0
  -26.2938  -12.9185   20.3242 N   0  0  0  0  0  0
  -25.9250  -11.6383   20.5741 N   0  0  0  0  0  0
  -22.0455  -12.8218   22.0430 N   0  0  0  0  0  0
  -25.4173  -15.1777   20.4000 N   0  0  0  0  0  0
  -31.8244  -14.6526   20.0921 O   0  0  0  0  0  0
  -21.6617   -6.8847   21.4231 O   0  0  0  0  0  0
  -22.3532  -14.5525   20.6725 O   0  0  0  0  0  0
  -24.6179  -31.8652   23.2083 C   0  0  0  0  0  0
  -25.9061  -32.4810   23.8372 C   0  0  1  0  0  0
  -27.2331  -27.4058   20.0732 C   0  0  0  0  0  0
  -25.5911  -33.8606   24.2306 N   0  0  0  0  0  0
  -23.4065  -30.4910   21.5500 C   0  0  2  0  0  0
  -24.8497  -28.9565   20.1130 C   0  0  0  0  0  0
  -22.7436  -29.4632   22.4961 C   0  0  0  0  0  0
  -18.0288  -28.1383   22.8501 C   0  0  0  0  0  0
  -24.1494  -36.7285   23.2636 C   0  0  0  0  0  0
  -25.9392  -30.8199   21.3654 C   0  0  0  0  0  0
  -26.0120  -29.4525   20.7110 C   0  0  0  0  0  0
  -27.2013  -28.6824   20.6926 C   0  0  0  0  0  0
  -26.0386  -26.9315   19.4784 C   0  0  0  0  0  0
  -24.8578  -27.6944   19.4997 C   0  0  0  0  0  0
  -23.6168  -29.8284   20.1636 C   0  0  0  0  0  0
  -25.4114  -36.3084   24.0341 C   0  0  1  0  0  0
  -20.5880  -28.3652   23.1317 C   0  0  2  0  0  0
  -20.6776  -26.9381   22.5415 C   0  0  0  0  0  0
  -19.5750  -26.6381   21.5218 C   0  0  0  0  0  0
  -18.1926  -26.7935   22.1623 C   0  0  0  0  0  0
  -19.1544  -28.8839   23.2910 C   0  0  0  0  0  0
  -18.9463  -30.1454   23.8907 C   0  0  0  0  0  0
  -17.6468  -30.6577   24.0580 C   0  0  0  0  0  0
  -25.9035  -34.9461   23.5118 C   0  0  0  0  0  0
  -16.5360  -29.9087   23.6335 C   0  0  0  0  0  0
  -16.7277  -28.6513   23.0334 C   0  0  0  0  0  0
  -26.4488  -31.6599   25.0703 C   0  0  0  0  0  0
  -25.3770  -31.3720   26.1467 C   0  0  0  0  0  0
  -27.0301  -30.3045   24.6049 C   0  0  0  0  0  0
  -27.6071  -32.4320   25.7467 C   0  0  0  0  0  0
  -27.5601  -37.1781   24.8466 C   0  0  0  0  0  0
  -21.4158  -29.3026   22.3723 N   0  0  0  0  0  0
  -26.4286  -37.3790   23.9449 N   0  0  0  0  0  0
  -24.6735  -31.0731   22.0989 N   0  0  0  0  0  0
  -23.4210  -28.8141   23.2976 O   0  0  0  0  0  0
  -28.4249  -26.6917   20.0947 O   0  0  0  0  0  0
  -26.5589  -34.8927   22.4666 O   0  0  0  0  0  0
  -23.5357  -32.1410   23.7457 O   0  0  0  0  0  0
  -28.2050  -18.7710   19.7220 C   0  0  0  0  0  0
  -28.5385  -20.1404   19.8507 C   0  0  0  0  0  0
  -30.5258  -19.5488   21.1334 C   0  0  0  0  0  0
  -29.0465  -17.8130   20.3096 C   0  0  0  0  0  0
  -30.1815  -18.1876   20.9988 C   0  0  0  0  0  0
  -29.7082  -20.5684   20.5467 C   0  0  0  0  0  0
  -28.8724  -16.3206   20.3035 C   0  0  0  0  0  0
  -30.9214  -16.9757   21.5335 C   0  0  0  0  0  0
  -30.0014  -15.7446   21.2102 C   0  0  2  0  0  0
  -31.3155  -22.2572   21.3344 C   0  0  0  0  0  0
  -29.1783  -24.3453   20.4264 C   0  0  0  0  0  0
  -29.5191  -22.9826   19.7487 C   0  0  0  0  0  0
  -28.5681  -25.3967   19.4634 C   0  0  0  0  0  0
  -30.0449  -21.9525   20.6733 N   0  0  0  0  0  0
  -31.4713  -12.4228   19.1292 H   0  0  0  0  0  0
  -30.3451  -11.3152   19.8540 H   0  0  0  0  0  0
  -29.7578  -11.7445   17.4515 H   0  0  0  0  0  0
  -29.6489  -13.4609   17.7594 H   0  0  0  0  0  0
  -27.8610  -11.2581   18.8555 H   0  0  0  0  0  0
  -27.3667  -12.5411   17.7836 H   0  0  0  0  0  0
  -27.6565  -14.1988   19.4869 H   0  0  0  0  0  0
  -28.6802  -11.9930   21.3573 H   0  0  0  0  0  0
  -28.4309  -13.6386   21.8371 H   0  0  0  0  0  0
  -25.2723   -9.5655   22.4772 H   0  0  0  0  0  0
  -23.9979   -7.4590   22.7465 H   0  0  0  0  0  0
  -21.0808   -8.8738   19.8938 H   0  0  0  0  0  0
  -22.3662  -10.9646   19.6168 H   0  0  0  0  0  0
  -21.1977   -7.6135   23.9711 H   0  0  0  0  0  0
  -21.1481   -6.0506   25.9079 H   0  0  0  0  0  0
  -22.0606   -2.7592   23.2842 H   0  0  0  0  0  0
  -22.4040  -11.9870   22.4820 H   0  0  0  0  0  0
  -21.1083  -13.1275   22.2636 H   0  0  0  0  0  0
  -24.6498  -15.8274   20.5323 H   0  0  0  0  0  0
  -26.2588  -15.6237   20.0626 H   0  0  0  0  0  0
  -26.7115  -32.5526   23.1114 H   0  0  0  0  0  0
  -25.0149  -33.9768   25.0511 H   0  0  0  0  0  0
  -22.6964  -31.3076   21.4112 H   0  0  0  0  0  0
  -23.3789  -35.9585   23.3257 H   0  0  0  0  0  0
  -24.3593  -36.8911   22.2054 H   0  0  0  0  0  0
  -23.7204  -37.6463   23.6670 H   0  0  0  0  0  0
  -26.0542  -31.5817   20.5938 H   0  0  0  0  0  0
  -26.8271  -30.8733   21.9834 H   0  0  0  0  0  0
  -28.0999  -29.0632   21.1570 H   0  0  0  0  0  0
  -25.9596  -25.9775   18.9865 H   0  0  0  0  0  0
  -23.9616  -27.3031   19.0367 H   0  0  0  0  0  0
  -23.7332  -30.6069   19.4085 H   0  0  0  0  0  0
  -22.7410  -29.2519   19.8620 H   0  0  0  0  0  0
  -25.1278  -36.1921   25.0829 H   0  0  0  0  0  0
  -20.9987  -28.3205   24.1432 H   0  0  0  0  0  0
  -20.5662  -26.2246   23.3589 H   0  0  0  0  0  0
  -21.6639  -26.7402   22.1203 H   0  0  0  0  0  0
  -19.6900  -25.6299   21.1213 H   0  0  0  0  0  0
  -19.6717  -27.3222   20.6777 H   0  0  0  0  0  0
  -17.4203  -26.6707   21.4020 H   0  0  0  0  0  0
  -18.0315  -26.0069   22.9006 H   0  0  0  0  0  0
  -19.7943  -30.7281   24.2249 H   0  0  0  0  0  0
  -17.5026  -31.6258   24.5177 H   0  0  0  0  0  0
  -15.5359  -30.2993   23.7665 H   0  0  0  0  0  0
  -15.8678  -28.0853   22.7016 H   0  0  0  0  0  0
  -24.5963  -30.7020   25.7846 H   0  0  0  0  0  0
  -24.8949  -32.2879   26.4901 H   0  0  0  0  0  0
  -25.8134  -30.8938   27.0238 H   0  0  0  0  0  0
  -26.2803  -29.6813   24.1156 H   0  0  0  0  0  0
  -27.4156  -29.7267   25.4453 H   0  0  0  0  0  0
  -27.8609  -30.4387   23.9118 H   0  0  0  0  0  0
  -27.2716  -33.3667   26.1980 H   0  0  0  0  0  0
  -28.3925  -32.6775   25.0311 H   0  0  0  0  0  0
  -28.0685  -31.8469   26.5433 H   0  0  0  0  0  0
  -28.2545  -38.0153   24.7591 H   0  0  0  0  0  0
  -28.1139  -36.2674   24.6150 H   0  0  0  0  0  0
  -27.2321  -37.1235   25.8861 H   0  0  0  0  0  0
  -20.9293  -29.8790   21.7000 H   0  0  0  0  0  0
  -26.0151  -38.2832   24.1546 H   0  0  0  0  0  0
  -27.3160  -18.4686   19.1851 H   0  0  0  0  0  0
  -27.8483  -20.8385   19.4056 H   0  0  0  0  0  0
  -31.4206  -19.7752   21.6927 H   0  0  0  0  0  0
  -28.9377  -15.9665   19.2739 H   0  0  0  0  0  0
  -27.8949  -16.0751   20.7112 H   0  0  0  0  0  0
  -31.0675  -17.0802   22.6089 H   0  0  0  0  0  0
  -31.9053  -16.9257   21.0674 H   0  0  0  0  0  0
  -29.5631  -15.4463   22.1627 H   0  0  0  0  0  0
  -31.2677  -21.9977   22.3934 H   0  0  0  0  0  0
  -31.5842  -23.3114   21.2681 H   0  0  0  0  0  0
  -32.1389  -21.7030   20.8811 H   0  0  0  0  0  0
  -30.0755  -24.7801   20.8634 H   0  0  0  0  0  0
  -28.4856  -24.1791   21.2514 H   0  0  0  0  0  0
  -30.2800  -23.1527   18.9852 H   0  0  0  0  0  0
  -28.6418  -22.6526   19.2000 H   0  0  0  0  0  0
  -27.6629  -24.9666   19.0520 H   0  0  0  0  0  0
  -29.2345  -25.5313   18.6102 H   0  0  0  0  0  0
  1 25  1  0  0  0
  1 30  2  0  0  0
  1 79  1  0  0  0
  2  3  1  0  0  0
  2 25  1  0  0  0
  2 85  1  0  0  0
  2 86  1  0  0  0
  3  4  1  0  0  0
  3 87  1  0  0  0
  3 88  1  0  0  0
  4  5  1  0  0  0
  4 89  1  0  0  0
  4 90  1  0  0  0
  5  6  1  0  0  0
  5 26  1  0  0  0
  5 91  1  0  0  0
  6 25  1  0  0  0
  6 92  1  0  0  0
  6 93  1  0  0  0
  7  8  2  0  0  0
  7 26  1  0  0  0
  7 29  1  0  0  0
  8  9  1  0  0  0
  8 22  1  0  0  0
  9 10  1  0  0  0
  9 27  2  0  0  0
 10 11  2  0  0  0
 10 15  1  0  0  0
 11 12  1  0  0  0
 11 94  1  0  0  0
 12 13  2  0  0  0
 12 95  1  0  0  0
 13 14  1  0  0  0
 13 31  1  0  0  0
 14 15  2  0  0  0
 14 96  1  0  0  0
 15 97  1  0  0  0
 16 17  2  0  0  0
 16 21  1  0  0  0
 16 31  1  0  0  0
 17 18  1  0  0  0
 17 98  1  0  0  0
 18 19  2  0  0  0
 18 99  1  0  0  0
 19 20  1  0  0  0
 19 24  1  0  0  0
 20 21  2  0  0  0
 20100  1  0  0  0
 21 23  1  0  0  0
 22 28  1  0  0  0
 22 32  2  0  0  0
 26 27  1  0  0  0
 28101  1  0  0  0
 28102  1  0  0  0
 29103  1  0  0  0
 29104  1  0  0  0
 33 34  1  0  0  0
 33 66  1  0  0  0
 33 70  2  0  0  0
 34 36  1  0  0  0
 34 59  1  0  0  0
 34105  1  0  0  0
 35 44  2  0  0  0
 35 45  1  0  0  0
 35 68  1  0  0  0
 36 56  1  0  0  0
 36106  1  0  0  0
 37 39  1  0  0  0
 37 47  1  0  0  0
 37 66  1  0  0  0
 37107  1  0  0  0
 38 43  2  0  0  0
 38 46  1  0  0  0
 38 47  1  0  0  0
 39 64  1  0  0  0
 39 67  2  0  0  0
 40 52  1  0  0  0
 40 53  2  0  0  0
 40 58  1  0  0  0
 41108  1  0  0  0
 41109  1  0  0  0
 41110  1  0  0  0
 41 48  1  0  0  0
 42 43  1  0  0  0
 42 66  1  0  0  0
 42111  1  0  0  0
 42112  1  0  0  0
 43 44  1  0  0  0
 44113  1  0  0  0
 45 46  2  0  0  0
 45114  1  0  0  0
 46115  1  0  0  0
 47116  1  0  0  0
 47117  1  0  0  0
 48 56  1  0  0  0
 48 65  1  0  0  0
 48118  1  0  0  0
 49 50  1  0  0  0
 49 53  1  0  0  0
 49 64  1  0  0  0
 49119  1  0  0  0
 50 51  1  0  0  0
 50120  1  0  0  0
 50121  1  0  0  0
 51 52  1  0  0  0
 51122  1  0  0  0
 51123  1  0  0  0
 52124  1  0  0  0
 52125  1  0  0  0
 53 54  1  0  0  0
 54 55  2  0  0  0
 54126  1  0  0  0
 55 57  1  0  0  0
 55127  1  0  0  0
 56 69  2  0  0  0
 57 58  2  0  0  0
 57128  1  0  0  0
 58129  1  0  0  0
 59 60  1  0  0  0
 59 61  1  0  0  0
 59 62  1  0  0  0
 60130  1  0  0  0
 60131  1  0  0  0
 60132  1  0  0  0
 61133  1  0  0  0
 61134  1  0  0  0
 61135  1  0  0  0
 62136  1  0  0  0
 62137  1  0  0  0
 62138  1  0  0  0
 63 65  1  0  0  0
 63139  1  0  0  0
 63140  1  0  0  0
 63141  1  0  0  0
 64142  1  0  0  0
 65143  1  0  0  0
 68 83  1  0  0  0
 71 72  2  0  0  0
 71 74  1  0  0  0
 71144  1  0  0  0
 72 76  1  0  0  0
 72145  1  0  0  0
 73 75  1  0  0  0
 73 76  2  0  0  0
 73146  1  0  0  0
 74 75  2  0  0  0
 74 77  1  0  0  0
 75 78  1  0  0  0
 76 84  1  0  0  0
 77 79  1  0  0  0
 77147  1  0  0  0
 77148  1  0  0  0
 78 79  1  0  0  0
 78149  1  0  0  0
 78150  1  0  0  0
 79151  1  0  0  0
 80 84  1  0  0  0
 80152  1  0  0  0
 80153  1  0  0  0
 80154  1  0  0  0
 81 82  1  0  0  0
 81 83  1  0  0  0
 81155  1  0  0  0
 81156  1  0  0  0
 82 84  1  0  0  0
 82157  1  0  0  0
 82158  1  0  0  0
 83159  1  0  0  0
 83160  1  0  0  0
M  ISO  4   1 100  68 101  79 100  83 101
M  END
> <chiral flag>
0

> <version>
0

> <s_m_source_file>
/data/baiqing/PycharmProjects/Reinvent-master-3.2/result/LINK_invent/BTK/process_docking_weight1_custom_product_contain_oxygen_bond_distance_aromatic_linkinvent_7_9_3/rearranged_h_0014.sdf

> <i_m_source_file_index>
48

> <r_mmod_Potential_Energy-OPLS-2005>
27.0050716400146

> <r_mmod_Stretch_Energy-OPLS-2005>
50.0027770996094

> <r_mmod_Bend_Energy-OPLS-2005>
157.921829223633

> <r_mmod_Torsional_Energy-OPLS-2005>
169.801300048828

> <r_mmod_Improper_Torsional_Energy-OPLS-2005>
4.29790306091309

> <r_mmod_Van_der_Waal_Energy-OPLS-2005>
166.521408081055

> <r_mmod_Electrostatic_Energy-OPLS-2005>
-323.488403320312

> <r_mmod_Solvation_Energy-OPLS-2005>
-215.944351196289

> <b_mmod_Minimization_Converged-OPLS-2005>
0

> <r_mmod_RMS_Derivative-OPLS-2005>
2.23753070831299

$$$$
48
                    3D
 Structure written by MMmdl.
151159  0  0  1  0            999 V2000
  -30.6207  -14.6404   20.5017 C   0  0  0  0  0  0
  -30.4366  -12.3919   19.4535 C   0  0  0  0  0  0
  -29.5098  -12.5192   18.2233 C   0  0  0  0  0  0
  -28.0301  -12.3614   18.6287 C   0  0  0  0  0  0
  -27.6546  -13.2197   19.8662 C   0  0  2  0  0  0
  -28.6989  -13.0661   20.9954 C   0  0  0  0  0  0
  -25.2562  -13.8176   20.5677 C   0  0  0  0  0  0
  -24.1832  -13.0437   20.9184 C   0  0  0  0  0  0
  -24.6408  -11.6909   20.8734 C   0  0  0  0  0  0
  -23.9071  -10.4294   21.0403 C   0  0  0  0  0  0
  -24.3624   -9.4210   21.9184 C   0  0  0  0  0  0
  -23.6305   -8.2243   22.0754 C   0  0  0  0  0  0
  -22.4286   -8.0284   21.3541 C   0  0  0  0  0  0
  -21.9914   -9.0260   20.4646 C   0  0  0  0  0  0
  -22.7240  -10.2138   20.3055 C   0  0  0  0  0  0
  -21.6857   -6.0737   22.5278 C   0  0  0  0  0  0
  -21.4014   -6.5640   23.8212 C   0  0  0  0  0  0
  -21.3660   -5.6793   24.9175 C   0  0  0  0  0  0
  -21.6046   -4.3057   24.7221 C   0  0  0  0  0  0
  -21.8818   -3.8145   23.4342 C   0  0  0  0  0  0
  -21.9192   -4.6963   22.3399 C   0  0  0  0  0  0
  -22.7853  -13.5234   21.1843 C   0  0  0  0  0  0
  -22.1661   -4.2148   21.0977 F   0  0  0  0  0  0
  -21.5634   -3.4541   25.7733 F   0  0  0  0  0  0
  -30.0151  -13.4116   20.4353 N   0  0  0  0  0  0
  -26.2997  -12.9363   20.3319 N   0  0  0  0  0  0
  -25.9335  -11.6512   20.5749 N   0  0  0  0  0  0
  -22.0486  -12.8240   22.0403 N   0  0  0  0  0  0
  -25.4262  -15.1899   20.4079 N   0  0  0  0  0  0
  -31.7816  -14.8007   20.1137 O   0  0  0  0  0  0
  -21.6645   -6.8881   21.4242 O   0  0  0  0  0  0
  -22.3545  -14.5541   20.6689 O   0  0  0  0  0  0
  -24.6261  -31.8609   23.2045 C   0  0  0  0  0  0
  -25.9106  -32.4786   23.8370 C   0  0  1  0  0  0
  -27.2208  -27.3184   20.1168 C   0  0  0  0  0  0
  -25.5922  -33.8588   24.2296 N   0  0  0  0  0  0
  -23.4191  -30.4865   21.5481 C   0  0  2  0  0  0
  -24.8644  -28.9431   20.1147 C   0  0  0  0  0  0
  -22.7475  -29.4631   22.4947 C   0  0  0  0  0  0
  -18.0285  -28.1384   22.8493 C   0  0  0  0  0  0
  -24.1484  -36.7305   23.2639 C   0  0  0  0  0  0
  -25.9610  -30.7917   21.3754 C   0  0  0  0  0  0
  -26.0348  -29.4188   20.7191 C   0  0  0  0  0  0
  -27.2166  -28.6186   20.7108 C   0  0  0  0  0  0
  -26.0277  -26.9035   19.4793 C   0  0  0  0  0  0
  -24.8629  -27.6902   19.4870 C   0  0  0  0  0  0
  -23.6338  -29.8253   20.1625 C   0  0  0  0  0  0
  -25.4108  -36.3093   24.0334 C   0  0  1  0  0  0
  -20.5887  -28.3687   23.1297 C   0  0  2  0  0  0
  -20.6778  -26.9412   22.5417 C   0  0  0  0  0  0
  -19.5748  -26.6383   21.5224 C   0  0  0  0  0  0
  -18.1930  -26.7927   22.1635 C   0  0  0  0  0  0
  -19.1538  -28.8852   23.2889 C   0  0  0  0  0  0
  -18.9458  -30.1459   23.8898 C   0  0  0  0  0  0
  -17.6457  -30.6586   24.0566 C   0  0  0  0  0  0
  -25.9048  -34.9459   23.5116 C   0  0  0  0  0  0
  -16.5350  -29.9089   23.6324 C   0  0  0  0  0  0
  -16.7273  -28.6507   23.0345 C   0  0  0  0  0  0
  -26.4484  -31.6584   25.0734 C   0  0  0  0  0  0
  -25.3716  -31.3731   26.1462 C   0  0  0  0  0  0
  -27.0320  -30.3006   24.6178 C   0  0  0  0  0  0
  -27.6040  -32.4319   25.7509 C   0  0  0  0  0  0
  -27.5581  -37.1809   24.8464 C   0  0  0  0  0  0
  -21.4188  -29.3042   22.3692 N   0  0  0  0  0  0
  -26.4287  -37.3788   23.9414 N   0  0  0  0  0  0
  -24.6878  -31.0628   22.0996 N   0  0  0  0  0  0
  -23.4204  -28.8162   23.3016 O   0  0  0  0  0  0
  -28.3380  -26.4663   20.1474 O   0  0  0  0  0  0
  -26.5621  -34.8920   22.4686 O   0  0  0  0  0  0
  -23.5426  -32.1409   23.7376 O   0  0  0  0  0  0
  -30.9863  -17.8445   20.1353 C   0  0  0  0  0  0
  -30.9685  -19.2641   19.9932 C   0  0  0  0  0  0
  -28.7959  -17.9532   21.1125 C   0  0  0  0  0  0
  -29.8921  -17.1406   20.7028 C   0  0  0  0  0  0
  -29.8751  -20.0780   20.4000 C   0  0  0  0  0  0
  -28.7766  -19.3749   20.9706 C   0  0  0  0  0  0
  -29.2657  -23.9632   20.2182 C   0  0  0  0  0  0
  -28.0896  -25.0186   20.3689 C   0  0  0  0  0  0
  -28.9132  -22.4303   20.4994 C   0  0  0  0  0  0
  -29.8096  -15.6840   20.8721 N   0  0  0  0  0  0
  -29.9850  -21.4758   20.2123 O   0  0  0  0  0  0
  -27.6825  -20.0505   21.3985 F   0  0  0  0  0  0
  -31.4800  -12.5130   19.1578 H   0  0  0  0  0  0
  -30.3636  -11.3933   19.8877 H   0  0  0  0  0  0
  -29.7745  -11.7737   17.4721 H   0  0  0  0  0  0
  -29.6578  -13.4925   17.7514 H   0  0  0  0  0  0
  -27.8564  -11.3069   18.8449 H   0  0  0  0  0  0
  -27.3814  -12.6100   17.7878 H   0  0  0  0  0  0
  -27.6751  -14.2577   19.5349 H   0  0  0  0  0  0
  -28.7070  -12.0412   21.3704 H   0  0  0  0  0  0
  -28.4466  -13.6905   21.8533 H   0  0  0  0  0  0
  -25.2762   -9.5698   22.4766 H   0  0  0  0  0  0
  -24.0009   -7.4636   22.7478 H   0  0  0  0  0  0
  -21.0837   -8.8783   19.8964 H   0  0  0  0  0  0
  -22.3691  -10.9683   19.6175 H   0  0  0  0  0  0
  -21.2008   -7.6150   23.9716 H   0  0  0  0  0  0
  -21.1488   -6.0523   25.9081 H   0  0  0  0  0  0
  -22.0595   -2.7607   23.2840 H   0  0  0  0  0  0
  -22.4089  -11.9910   22.4815 H   0  0  0  0  0  0
  -21.1103  -13.1286   22.2588 H   0  0  0  0  0  0
  -24.6535  -15.8392   20.5078 H   0  0  0  0  0  0
  -26.2659  -15.6258   20.0488 H   0  0  0  0  0  0
  -26.7176  -32.5454   23.1120 H   0  0  0  0  0  0
  -25.0041  -33.9736   25.0421 H   0  0  0  0  0  0
  -22.7122  -31.3072   21.4089 H   0  0  0  0  0  0
  -23.3742  -35.9641   23.3296 H   0  0  0  0  0  0
  -24.3581  -36.8930   22.2055 H   0  0  0  0  0  0
  -23.7231  -37.6505   23.6659 H   0  0  0  0  0  0
  -26.0901  -31.5536   20.6055 H   0  0  0  0  0  0
  -26.8432  -30.8433   22.0018 H   0  0  0  0  0  0
  -28.1141  -28.9809   21.1926 H   0  0  0  0  0  0
  -25.9631  -25.9651   18.9527 H   0  0  0  0  0  0
  -23.9688  -27.3238   19.0015 H   0  0  0  0  0  0
  -23.7580  -30.6052   19.4102 H   0  0  0  0  0  0
  -22.7510  -29.2610   19.8558 H   0  0  0  0  0  0
  -25.1278  -36.1954   25.0826 H   0  0  0  0  0  0
  -20.9986  -28.3259   24.1416 H   0  0  0  0  0  0
  -20.5700  -26.2292   23.3614 H   0  0  0  0  0  0
  -21.6645  -26.7453   22.1199 H   0  0  0  0  0  0
  -19.6912  -25.6297   21.1248 H   0  0  0  0  0  0
  -19.6681  -27.3198   20.6759 H   0  0  0  0  0  0
  -17.4202  -26.6681   21.4034 H   0  0  0  0  0  0
  -18.0319  -26.0066   22.9030 H   0  0  0  0  0  0
  -19.7934  -30.7281   24.2258 H   0  0  0  0  0  0
  -17.5009  -31.6264   24.5173 H   0  0  0  0  0  0
  -15.5352  -30.2993   23.7638 H   0  0  0  0  0  0
  -15.8675  -28.0836   22.7043 H   0  0  0  0  0  0
  -24.5875  -30.7096   25.7793 H   0  0  0  0  0  0
  -24.8922  -32.2904   26.4894 H   0  0  0  0  0  0
  -25.8038  -30.8898   27.0234 H   0  0  0  0  0  0
  -26.2896  -29.6772   24.1177 H   0  0  0  0  0  0
  -27.3990  -29.7243   25.4681 H   0  0  0  0  0  0
  -27.8778  -30.4287   23.9419 H   0  0  0  0  0  0
  -27.2638  -33.3610   26.2096 H   0  0  0  0  0  0
  -28.3847  -32.6897   25.0339 H   0  0  0  0  0  0
  -28.0707  -31.8436   26.5420 H   0  0  0  0  0  0
  -28.2592  -38.0112   24.7515 H   0  0  0  0  0  0
  -28.1081  -36.2644   24.6274 H   0  0  0  0  0  0
  -27.2308  -37.1443   25.8869 H   0  0  0  0  0  0
  -20.9359  -29.8783   21.6922 H   0  0  0  0  0  0
  -26.0170  -38.2865   24.1414 H   0  0  0  0  0  0
  -31.8602  -17.3082   19.7940 H   0  0  0  0  0  0
  -31.8306  -19.7434   19.5523 H   0  0  0  0  0  0
  -27.9270  -17.4854   21.5514 H   0  0  0  0  0  0
  -30.0869  -24.2585   20.8705 H   0  0  0  0  0  0
  -29.6558  -24.0408   19.2037 H   0  0  0  0  0  0
  -27.6780  -24.9194   21.3744 H   0  0  0  0  0  0
  -27.3178  -24.6505   19.6997 H   0  0  0  0  0  0
  -28.0446  -22.1532   19.9005 H   0  0  0  0  0  0
  -28.6236  -22.3281   21.5461 H   0  0  0  0  0  0
  -28.9203  -15.3590   21.2197 H   0  0  0  0  0  0
  1 25  1  0  0  0
  1 30  2  0  0  0
  1 80  1  0  0  0
  2  3  1  0  0  0
  2 25  1  0  0  0
  2 83  1  0  0  0
  2 84  1  0  0  0
  3  4  1  0  0  0
  3 85  1  0  0  0
  3 86  1  0  0  0
  4  5  1  0  0  0
  4 87  1  0  0  0
  4 88  1  0  0  0
  5  6  1  0  0  0
  5 26  1  0  0  0
  5 89  1  0  0  0
  6 25  1  0  0  0
  6 90  1  0  0  0
  6 91  1  0  0  0
  7  8  2  0  0  0
  7 26  1  0  0  0
  7 29  1  0  0  0
  8  9  1  0  0  0
  8 22  1  0  0  0
  9 10  1  0  0  0
  9 27  2  0  0  0
 10 11  2  0  0  0
 10 15  1  0  0  0
 11 12  1  0  0  0
 11 92  1  0  0  0
 12 13  2  0  0  0
 12 93  1  0  0  0
 13 14  1  0  0  0
 13 31  1  0  0  0
 14 15  2  0  0  0
 14 94  1  0  0  0
 15 95  1  0  0  0
 16 17  2  0  0  0
 16 21  1  0  0  0
 16 31  1  0  0  0
 17 18  1  0  0  0
 17 96  1  0  0  0
 18 19  2  0  0  0
 18 97  1  0  0  0
 19 20  1  0  0  0
 19 24  1  0  0  0
 20 21  2  0  0  0
 20 98  1  0  0  0
 21 23  1  0  0  0
 22 28  1  0  0  0
 22 32  2  0  0  0
 26 27  1  0  0  0
 28 99  1  0  0  0
 28100  1  0  0  0
 29101  1  0  0  0
 29102  1  0  0  0
 33 34  1  0  0  0
 33 66  1  0  0  0
 33 70  2  0  0  0
 34 36  1  0  0  0
 34 59  1  0  0  0
 34103  1  0  0  0
 35 44  2  0  0  0
 35 45  1  0  0  0
 35 68  1  0  0  0
 36 56  1  0  0  0
 36104  1  0  0  0
 37 39  1  0  0  0
 37 47  1  0  0  0
 37 66  1  0  0  0
 37105  1  0  0  0
 38 43  2  0  0  0
 38 46  1  0  0  0
 38 47  1  0  0  0
 39 64  1  0  0  0
 39 67  2  0  0  0
 40 52  1  0  0  0
 40 53  2  0  0  0
 40 58  1  0  0  0
 41106  1  0  0  0
 41107  1  0  0  0
 41108  1  0  0  0
 41 48  1  0  0  0
 42 43  1  0  0  0
 42 66  1  0  0  0
 42109  1  0  0  0
 42110  1  0  0  0
 43 44  1  0  0  0
 44111  1  0  0  0
 45 46  2  0  0  0
 45112  1  0  0  0
 46113  1  0  0  0
 47114  1  0  0  0
 47115  1  0  0  0
 48 56  1  0  0  0
 48 65  1  0  0  0
 48116  1  0  0  0
 49 50  1  0  0  0
 49 53  1  0  0  0
 49 64  1  0  0  0
 49117  1  0  0  0
 50 51  1  0  0  0
 50118  1  0  0  0
 50119  1  0  0  0
 51 52  1  0  0  0
 51120  1  0  0  0
 51121  1  0  0  0
 52122  1  0  0  0
 52123  1  0  0  0
 53 54  1  0  0  0
 54 55  2  0  0  0
 54124  1  0  0  0
 55 57  1  0  0  0
 55125  1  0  0  0
 56 69  2  0  0  0
 57 58  2  0  0  0
 57126  1  0  0  0
 58127  1  0  0  0
 59 60  1  0  0  0
 59 61  1  0  0  0
 59 62  1  0  0  0
 60128  1  0  0  0
 60129  1  0  0  0
 60130  1  0  0  0
 61131  1  0  0  0
 61132  1  0  0  0
 61133  1  0  0  0
 62134  1  0  0  0
 62135  1  0  0  0
 62136  1  0  0  0
 63 65  1  0  0  0
 63137  1  0  0  0
 63138  1  0  0  0
 63139  1  0  0  0
 64140  1  0  0  0
 65141  1  0  0  0
 68 78  1  0  0  0
 71 72  2  0  0  0
 71 74  1  0  0  0
 71142  1  0  0  0
 72 75  1  0  0  0
 72143  1  0  0  0
 73 74  2  0  0  0
 73 76  1  0  0  0
 73144  1  0  0  0
 74 80  1  0  0  0
 75 76  2  0  0  0
 75 81  1  0  0  0
 76 82  1  0  0  0
 77 78  1  0  0  0
 77 79  1  0  0  0
 77145  1  0  0  0
 77146  1  0  0  0
 78147  1  0  0  0
 78148  1  0  0  0
 79 81  1  0  0  0
 79149  1  0  0  0
 79150  1  0  0  0
 80151  1  0  0  0
M  ISO  4   1 100  68 101  78 101  80 100
M  END
> <chiral flag>
0

> <version>
0

> <s_m_source_file>
/data/baiqing/PycharmProjects/Reinvent-master-3.2/result/LINK_invent/BTK/process_docking_weight1_custom_product_contain_oxygen_bond_distance_aromatic_linkinvent_7_9_3/rearranged_h_0014.sdf

> <i_m_source_file_index>
49

> <r_mmod_Potential_Energy-OPLS-2005>
74.7860946655273

> <r_mmod_Stretch_Energy-OPLS-2005>
79.5826568603516

> <r_mmod_Bend_Energy-OPLS-2005>
147.580917358398

> <r_mmod_Torsional_Energy-OPLS-2005>
214.559097290039

> <r_mmod_Improper_Torsional_Energy-OPLS-2005>
3.90157985687256

> <r_mmod_Van_der_Waal_Energy-OPLS-2005>
146.884353637695

> <r_mmod_Electrostatic_Energy-OPLS-2005>
-358.382598876953

> <r_mmod_Solvation_Energy-OPLS-2005>
-207.118133544922

> <b_mmod_Minimization_Converged-OPLS-2005>
0

> <r_mmod_RMS_Derivative-OPLS-2005>
1.06894218921661

$$$$
49
                    3D
 Structure written by MMmdl.
160170  0  0  1  0            999 V2000
  -30.6767  -14.7092   20.5332 C   0  0  0  0  0  0
  -30.4149  -12.4515   19.4756 C   0  0  0  0  0  0
  -29.5035  -12.5396   18.2332 C   0  0  0  0  0  0
  -28.0292  -12.3597   18.6392 C   0  0  0  0  0  0
  -27.6403  -13.2402   19.8552 C   0  0  2  0  0  0
  -28.6796  -13.1430   20.9888 C   0  0  0  0  0  0
  -25.2475  -13.8219   20.5698 C   0  0  0  0  0  0
  -24.1776  -13.0444   20.9191 C   0  0  0  0  0  0
  -24.6391  -11.6929   20.8734 C   0  0  0  0  0  0
  -23.9085  -10.4293   21.0400 C   0  0  0  0  0  0
  -24.3641   -9.4206   21.9178 C   0  0  0  0  0  0
  -23.6300   -8.2250   22.0761 C   0  0  0  0  0  0
  -22.4282   -8.0289   21.3554 C   0  0  0  0  0  0
  -21.9916   -9.0256   20.4648 C   0  0  0  0  0  0
  -22.7257  -10.2130   20.3043 C   0  0  0  0  0  0
  -21.6849   -6.0733   22.5290 C   0  0  0  0  0  0
  -21.4012   -6.5638   23.8227 C   0  0  0  0  0  0
  -21.3657   -5.6798   24.9181 C   0  0  0  0  0  0
  -21.6041   -4.3054   24.7223 C   0  0  0  0  0  0
  -21.8815   -3.8143   23.4350 C   0  0  0  0  0  0
  -21.9189   -4.6966   22.3406 C   0  0  0  0  0  0
  -22.7795  -13.5209   21.1857 C   0  0  0  0  0  0
  -22.1656   -4.2155   21.0983 F   0  0  0  0  0  0
  -21.5624   -3.4536   25.7729 F   0  0  0  0  0  0
  -29.9877  -13.5121   20.4261 N   0  0  0  0  0  0
  -26.2915  -12.9450   20.3284 N   0  0  0  0  0  0
  -25.9323  -11.6582   20.5735 N   0  0  0  0  0  0
  -22.0449  -12.8192   22.0419 N   0  0  0  0  0  0
  -25.4143  -15.1949   20.4156 N   0  0  0  0  0  0
  -31.8207  -14.7559   20.0678 O   0  0  0  0  0  0
  -21.6644   -6.8886   21.4258 O   0  0  0  0  0  0
  -22.3474  -14.5514   20.6719 O   0  0  0  0  0  0
  -24.6335  -31.8550   23.1976 C   0  0  0  0  0  0
  -25.9166  -32.4746   23.8304 C   0  0  1  0  0  0
  -27.2095  -27.2578   20.1079 C   0  0  0  0  0  0
  -25.5989  -33.8556   24.2227 N   0  0  0  0  0  0
  -23.4276  -30.4794   21.5432 C   0  0  2  0  0  0
  -24.8675  -28.9270   20.1115 C   0  0  0  0  0  0
  -22.7509  -29.4615   22.4929 C   0  0  0  0  0  0
  -18.0294  -28.1389   22.8506 C   0  0  0  0  0  0
  -24.1497  -36.7260   23.2633 C   0  0  0  0  0  0
  -25.9753  -30.7670   21.3744 C   0  0  0  0  0  0
  -26.0434  -29.3892   20.7148 C   0  0  0  0  0  0
  -27.2158  -28.5670   20.7030 C   0  0  0  0  0  0
  -25.9983  -26.8586   19.4973 C   0  0  0  0  0  0
  -24.8489  -27.6689   19.4956 C   0  0  0  0  0  0
  -23.6421  -29.8160   20.1582 C   0  0  0  0  0  0
  -25.4115  -36.3051   24.0325 C   0  0  1  0  0  0
  -20.5899  -28.3696   23.1297 C   0  0  2  0  0  0
  -20.6788  -26.9416   22.5431 C   0  0  0  0  0  0
  -19.5757  -26.6382   21.5247 C   0  0  0  0  0  0
  -18.1929  -26.7941   22.1631 C   0  0  0  0  0  0
  -19.1551  -28.8863   23.2893 C   0  0  0  0  0  0
  -18.9471  -30.1465   23.8896 C   0  0  0  0  0  0
  -17.6469  -30.6588   24.0573 C   0  0  0  0  0  0
  -25.9078  -34.9448   23.5064 C   0  0  0  0  0  0
  -16.5365  -29.9084   23.6346 C   0  0  0  0  0  0
  -16.7283  -28.6502   23.0363 C   0  0  0  0  0  0
  -26.4513  -31.6579   25.0710 C   0  0  0  0  0  0
  -25.3741  -31.3768   26.1445 C   0  0  0  0  0  0
  -27.0323  -30.2986   24.6188 C   0  0  0  0  0  0
  -27.6055  -32.4319   25.7481 C   0  0  0  0  0  0
  -27.5589  -37.1748   24.8436 C   0  0  0  0  0  0
  -21.4219  -29.3047   22.3688 N   0  0  0  0  0  0
  -26.4248  -37.3788   23.9472 N   0  0  0  0  0  0
  -24.6986  -31.0519   22.0943 N   0  0  0  0  0  0
  -23.4225  -28.8145   23.3013 O   0  0  0  0  0  0
  -28.3204  -26.3815   20.1382 O   0  0  0  0  0  0
  -26.5620  -34.8941   22.4614 O   0  0  0  0  0  0
  -23.5479  -32.1372   23.7276 O   0  0  0  0  0  0
  -28.7900  -19.1639   20.9998 C   0  0  0  0  0  0
  -28.3556  -20.5285   20.8322 C   0  0  0  0  0  0
  -30.1888  -20.9629   19.4203 C   0  0  0  0  0  0
  -29.9694  -18.6543   20.3833 C   0  0  0  0  0  0
  -29.0337  -21.5130   20.0432 C   0  0  0  0  0  0
  -30.6418  -19.6160   19.5737 C   0  0  0  0  0  0
  -30.4287  -17.0533   23.0769 C   0  0  0  0  0  0
  -31.4469  -17.5008   22.0388 C   0  0  0  0  0  0
  -29.6323  -15.9392   22.3795 C   0  0  0  0  0  0
  -29.4654  -24.0467   19.4866 C   0  0  0  0  0  0
  -27.7371  -23.7729   20.6053 C   0  0  0  0  0  0
  -30.7055  -17.2697   20.7194 C   0  0  1  0  0  0
  -28.1993  -24.9563   19.6680 C   0  0  0  0  0  0
  -28.5804  -22.8988   19.7649 N   0  0  0  0  0  0
  -30.0603  -15.8949   20.9670 N   0  0  0  0  0  0
  -31.7875  -19.2623   18.9439 F   0  0  0  0  0  0
  -31.4597  -12.5431   19.1747 H   0  0  0  0  0  0
  -30.3360  -11.4665   19.9391 H   0  0  0  0  0  0
  -29.7864  -11.7883   17.4949 H   0  0  0  0  0  0
  -29.6356  -13.5097   17.7503 H   0  0  0  0  0  0
  -27.8783  -11.3070   18.8812 H   0  0  0  0  0  0
  -27.3748  -12.5762   17.7941 H   0  0  0  0  0  0
  -27.6436  -14.2718   19.5019 H   0  0  0  0  0  0
  -28.7117  -12.1314   21.3955 H   0  0  0  0  0  0
  -28.3768  -13.7783   21.8152 H   0  0  0  0  0  0
  -25.2780   -9.5671   22.4749 H   0  0  0  0  0  0
  -23.9998   -7.4635   22.7481 H   0  0  0  0  0  0
  -21.0843   -8.8769   19.8953 H   0  0  0  0  0  0
  -22.3714  -10.9663   19.6141 H   0  0  0  0  0  0
  -21.2013   -7.6144   23.9726 H   0  0  0  0  0  0
  -21.1477   -6.0521   25.9090 H   0  0  0  0  0  0
  -22.0591   -2.7605   23.2843 H   0  0  0  0  0  0
  -22.4067  -11.9852   22.4798 H   0  0  0  0  0  0
  -21.1061  -13.1204   22.2622 H   0  0  0  0  0  0
  -24.6497  -15.8493   20.5408 H   0  0  0  0  0  0
  -26.2703  -15.6412   20.1107 H   0  0  0  0  0  0
  -26.7244  -32.5372   23.1049 H   0  0  0  0  0  0
  -25.0244  -33.9687   25.0441 H   0  0  0  0  0  0
  -22.7258  -31.3032   21.3980 H   0  0  0  0  0  0
  -23.3788  -35.9552   23.3215 H   0  0  0  0  0  0
  -24.3637  -36.8955   22.2066 H   0  0  0  0  0  0
  -23.7207  -37.6423   23.6705 H   0  0  0  0  0  0
  -26.1160  -31.5293   20.6066 H   0  0  0  0  0  0
  -26.8541  -30.8130   22.0064 H   0  0  0  0  0  0
  -28.1173  -28.9201   21.1834 H   0  0  0  0  0  0
  -25.8838  -25.8949   19.0281 H   0  0  0  0  0  0
  -23.9450  -27.3048   19.0282 H   0  0  0  0  0  0
  -23.7714  -30.5947   19.4054 H   0  0  0  0  0  0
  -22.7600  -29.2527   19.8463 H   0  0  0  0  0  0
  -25.1282  -36.1845   25.0803 H   0  0  0  0  0  0
  -20.9979  -28.3255   24.1426 H   0  0  0  0  0  0
  -20.5727  -26.2298   23.3631 H   0  0  0  0  0  0
  -21.6648  -26.7455   22.1202 H   0  0  0  0  0  0
  -19.6926  -25.6298   21.1266 H   0  0  0  0  0  0
  -19.6696  -27.3213   20.6798 H   0  0  0  0  0  0
  -17.4220  -26.6752   21.4000 H   0  0  0  0  0  0
  -18.0271  -26.0056   22.8982 H   0  0  0  0  0  0
  -19.7946  -30.7302   24.2233 H   0  0  0  0  0  0
  -17.5023  -31.6269   24.5173 H   0  0  0  0  0  0
  -15.5361  -30.2983   23.7677 H   0  0  0  0  0  0
  -15.8682  -28.0827   22.7058 H   0  0  0  0  0  0
  -24.6006  -30.6966   25.7877 H   0  0  0  0  0  0
  -24.8814  -32.2931   26.4698 H   0  0  0  0  0  0
  -25.8097  -30.9165   27.0320 H   0  0  0  0  0  0
  -26.2875  -29.6778   24.1202 H   0  0  0  0  0  0
  -27.3992  -29.7216   25.4682 H   0  0  0  0  0  0
  -27.8780  -30.4243   23.9429 H   0  0  0  0  0  0
  -27.2667  -33.3674   26.1935 H   0  0  0  0  0  0
  -28.3934  -32.6771   25.0354 H   0  0  0  0  0  0
  -28.0648  -31.8523   26.5495 H   0  0  0  0  0  0
  -28.2470  -38.0178   24.7663 H   0  0  0  0  0  0
  -28.1195  -36.2716   24.5966 H   0  0  0  0  0  0
  -27.2359  -37.1045   25.8840 H   0  0  0  0  0  0
  -20.9401  -29.8767   21.6896 H   0  0  0  0  0  0
  -26.0087  -38.2817   24.1595 H   0  0  0  0  0  0
  -28.2248  -18.5199   21.6565 H   0  0  0  0  0  0
  -27.4516  -20.8262   21.3443 H   0  0  0  0  0  0
  -30.7768  -21.6016   18.7759 H   0  0  0  0  0  0
  -29.7704  -17.8824   23.3378 H   0  0  0  0  0  0
  -30.9085  -16.7224   23.9982 H   0  0  0  0  0  0
  -32.3245  -16.8527   22.0906 H   0  0  0  0  0  0
  -31.7977  -18.5253   22.1811 H   0  0  0  0  0  0
  -28.5595  -16.1231   22.4419 H   0  0  0  0  0  0
  -29.8292  -15.0033   22.9067 H   0  0  0  0  0  0
  -30.2320  -24.1889   20.2496 H   0  0  0  0  0  0
  -29.8804  -24.0559   18.4767 H   0  0  0  0  0  0
  -26.6706  -23.5479   20.5624 H   0  0  0  0  0  0
  -28.0991  -23.8596   21.6315 H   0  0  0  0  0  0
  -31.4484  -17.1534   19.9297 H   0  0  0  0  0  0
  -27.6777  -24.9310   18.7100 H   0  0  0  0  0  0
  1 25  1  0  0  0
  1 30  2  0  0  0
  1 85  1  0  0  0
  2  3  1  0  0  0
  2 25  1  0  0  0
  2 87  1  0  0  0
  2 88  1  0  0  0
  3  4  1  0  0  0
  3 89  1  0  0  0
  3 90  1  0  0  0
  4  5  1  0  0  0
  4 91  1  0  0  0
  4 92  1  0  0  0
  5  6  1  0  0  0
  5 26  1  0  0  0
  5 93  1  0  0  0
  6 25  1  0  0  0
  6 94  1  0  0  0
  6 95  1  0  0  0
  7  8  2  0  0  0
  7 26  1  0  0  0
  7 29  1  0  0  0
  8  9  1  0  0  0
  8 22  1  0  0  0
  9 10  1  0  0  0
  9 27  2  0  0  0
 10 11  2  0  0  0
 10 15  1  0  0  0
 11 12  1  0  0  0
 11 96  1  0  0  0
 12 13  2  0  0  0
 12 97  1  0  0  0
 13 14  1  0  0  0
 13 31  1  0  0  0
 14 15  2  0  0  0
 14 98  1  0  0  0
 15 99  1  0  0  0
 16 17  2  0  0  0
 16 21  1  0  0  0
 16 31  1  0  0  0
 17 18  1  0  0  0
 17100  1  0  0  0
 18 19  2  0  0  0
 18101  1  0  0  0
 19 20  1  0  0  0
 19 24  1  0  0  0
 20 21  2  0  0  0
 20102  1  0  0  0
 21 23  1  0  0  0
 22 28  1  0  0  0
 22 32  2  0  0  0
 26 27  1  0  0  0
 28103  1  0  0  0
 28104  1  0  0  0
 29105  1  0  0  0
 29106  1  0  0  0
 33 34  1  0  0  0
 33 66  1  0  0  0
 33 70  2  0  0  0
 34 36  1  0  0  0
 34 59  1  0  0  0
 34107  1  0  0  0
 35 44  2  0  0  0
 35 45  1  0  0  0
 35 68  1  0  0  0
 36 56  1  0  0  0
 36108  1  0  0  0
 37 39  1  0  0  0
 37 47  1  0  0  0
 37 66  1  0  0  0
 37109  1  0  0  0
 38 43  2  0  0  0
 38 46  1  0  0  0
 38 47  1  0  0  0
 39 64  1  0  0  0
 39 67  2  0  0  0
 40 52  1  0  0  0
 40 53  2  0  0  0
 40 58  1  0  0  0
 41110  1  0  0  0
 41111  1  0  0  0
 41112  1  0  0  0
 41 48  1  0  0  0
 42 43  1  0  0  0
 42 66  1  0  0  0
 42113  1  0  0  0
 42114  1  0  0  0
 43 44  1  0  0  0
 44115  1  0  0  0
 45 46  2  0  0  0
 45116  1  0  0  0
 46117  1  0  0  0
 47118  1  0  0  0
 47119  1  0  0  0
 48 56  1  0  0  0
 48 65  1  0  0  0
 48120  1  0  0  0
 49 50  1  0  0  0
 49 53  1  0  0  0
 49 64  1  0  0  0
 49121  1  0  0  0
 50 51  1  0  0  0
 50122  1  0  0  0
 50123  1  0  0  0
 51 52  1  0  0  0
 51124  1  0  0  0
 51125  1  0  0  0
 52126  1  0  0  0
 52127  1  0  0  0
 53 54  1  0  0  0
 54 55  2  0  0  0
 54128  1  0  0  0
 55 57  1  0  0  0
 55129  1  0  0  0
 56 69  2  0  0  0
 57 58  2  0  0  0
 57130  1  0  0  0
 58131  1  0  0  0
 59 60  1  0  0  0
 59 61  1  0  0  0
 59 62  1  0  0  0
 60132  1  0  0  0
 60133  1  0  0  0
 60134  1  0  0  0
 61135  1  0  0  0
 61136  1  0  0  0
 61137  1  0  0  0
 62138  1  0  0  0
 62139  1  0  0  0
 62140  1  0  0  0
 63 65  1  0  0  0
 63141  1  0  0  0
 63142  1  0  0  0
 63143  1  0  0  0
 64144  1  0  0  0
 65145  1  0  0  0
 68 83  1  0  0  0
 71 72  2  0  0  0
 71 74  1  0  0  0
 71146  1  0  0  0
 72 75  1  0  0  0
 72147  1  0  0  0
 73 75  2  0  0  0
 73 76  1  0  0  0
 73148  1  0  0  0
 74 76  2  0  0  0
 74 82  1  0  0  0
 75 84  1  0  0  0
 76 86  1  0  0  0
 77 78  1  0  0  0
 77 79  1  0  0  0
 77149  1  0  0  0
 77150  1  0  0  0
 78 82  1  0  0  0
 78151  1  0  0  0
 78152  1  0  0  0
 79 85  1  0  0  0
 79153  1  0  0  0
 79154  1  0  0  0
 80 83  1  0  0  0
 80 84  1  0  0  0
 80155  1  0  0  0
 80156  1  0  0  0
 81 83  1  0  0  0
 81 84  1  0  0  0
 81157  1  0  0  0
 81158  1  0  0  0
 82 85  1  0  0  0
 82159  1  0  0  0
 83160  1  0  0  0
M  ISO  4   1 100  68 101  83 101  85 100
M  END
> <chiral flag>
0

> <version>
0

> <s_m_source_file>
/data/baiqing/PycharmProjects/Reinvent-master-3.2/result/LINK_invent/BTK/process_docking_weight1_custom_product_contain_oxygen_bond_distance_aromatic_linkinvent_7_9_3/rearranged_h_0014.sdf

> <i_m_source_file_index>
50

> <r_mmod_Potential_Energy-OPLS-2005>
501.636535644531

> <r_mmod_Stretch_Energy-OPLS-2005>
118.839721679688

> <r_mmod_Bend_Energy-OPLS-2005>
288.404357910156

> <r_mmod_Torsional_Energy-OPLS-2005>
328.519256591797

> <r_mmod_Improper_Torsional_Energy-OPLS-2005>
16.7359066009521

> <r_mmod_Van_der_Waal_Energy-OPLS-2005>
152.286102294922

> <r_mmod_Electrostatic_Energy-OPLS-2005>
-264.083587646484

> <r_mmod_Solvation_Energy-OPLS-2005>
-211.783584594727

> <b_mmod_Minimization_Converged-OPLS-2005>
0

> <r_mmod_RMS_Derivative-OPLS-2005>
2.41157126426697

$$$$
50
                    3D
 Structure written by MMmdl.
169178  0  0  1  0            999 V2000
  -30.7448  -14.4569   20.6024 C   0  0  0  0  0  0
  -30.4094  -12.3106   19.4268 C   0  0  0  0  0  0
  -29.4974  -12.5274   18.2029 C   0  0  0  0  0  0
  -28.0163  -12.3776   18.6047 C   0  0  0  0  0  0
  -27.6579  -13.2087   19.8645 C   0  0  2  0  0  0
  -28.6887  -12.9725   20.9824 C   0  0  0  0  0  0
  -25.2598  -13.8161   20.5673 C   0  0  0  0  0  0
  -24.1850  -13.0440   20.9131 C   0  0  0  0  0  0
  -24.6393  -11.6892   20.8690 C   0  0  0  0  0  0
  -23.9062  -10.4276   21.0368 C   0  0  0  0  0  0
  -24.3605   -9.4204   21.9165 C   0  0  0  0  0  0
  -23.6271   -8.2247   22.0759 C   0  0  0  0  0  0
  -22.4261   -8.0283   21.3539 C   0  0  0  0  0  0
  -21.9890   -9.0256   20.4646 C   0  0  0  0  0  0
  -22.7228  -10.2120   20.3035 C   0  0  0  0  0  0
  -21.6841   -6.0743   22.5277 C   0  0  0  0  0  0
  -21.4009   -6.5642   23.8213 C   0  0  0  0  0  0
  -21.3658   -5.6792   24.9173 C   0  0  0  0  0  0
  -21.6032   -4.3054   24.7209 C   0  0  0  0  0  0
  -21.8815   -3.8153   23.4329 C   0  0  0  0  0  0
  -21.9184   -4.6971   22.3390 C   0  0  0  0  0  0
  -22.7881  -13.5230   21.1814 C   0  0  0  0  0  0
  -22.1652   -4.2165   21.0962 F   0  0  0  0  0  0
  -21.5625   -3.4536   25.7715 F   0  0  0  0  0  0
  -30.0230  -13.3034   20.4494 N   0  0  0  0  0  0
  -26.3008  -12.9326   20.3276 N   0  0  0  0  0  0
  -25.9308  -11.6478   20.5663 N   0  0  0  0  0  0
  -22.0537  -12.8217   22.0367 N   0  0  0  0  0  0
  -25.4385  -15.1888   20.4181 N   0  0  0  0  0  0
  -31.8764  -14.5582   20.1154 O   0  0  0  0  0  0
  -21.6625   -6.8885   21.4238 O   0  0  0  0  0  0
  -22.3571  -14.5554   20.6687 O   0  0  0  0  0  0
  -24.6159  -31.8663   23.2104 C   0  0  0  0  0  0
  -25.9055  -32.4807   23.8402 C   0  0  1  0  0  0
  -27.2361  -27.4357   20.1083 C   0  0  0  0  0  0
  -25.5916  -33.8606   24.2327 N   0  0  0  0  0  0
  -23.4057  -30.4868   21.5507 C   0  0  2  0  0  0
  -24.8561  -28.9581   20.1138 C   0  0  0  0  0  0
  -22.7418  -29.4643   22.5005 C   0  0  0  0  0  0
  -18.0257  -28.1399   22.8473 C   0  0  0  0  0  0
  -24.1493  -36.7308   23.2633 C   0  0  0  0  0  0
  -25.9347  -30.8344   21.3676 C   0  0  0  0  0  0
  -26.0149  -29.4707   20.7111 C   0  0  0  0  0  0
  -27.2116  -28.7170   20.7029 C   0  0  0  0  0  0
  -26.0655  -26.9463   19.4863 C   0  0  0  0  0  0
  -24.8759  -27.6970   19.4946 C   0  0  0  0  0  0
  -23.6141  -29.8165   20.1665 C   0  0  0  0  0  0
  -25.4118  -36.3094   24.0330 C   0  0  1  0  0  0
  -20.5848  -28.3674   23.1320 C   0  0  2  0  0  0
  -20.6757  -26.9410   22.5425 C   0  0  0  0  0  0
  -19.5739  -26.6390   21.5218 C   0  0  0  0  0  0
  -18.1904  -26.7947   22.1614 C   0  0  0  0  0  0
  -19.1507  -28.8855   23.2885 C   0  0  0  0  0  0
  -18.9440  -30.1462   23.8893 C   0  0  0  0  0  0
  -17.6448  -30.6601   24.0561 C   0  0  0  0  0  0
  -25.9034  -34.9456   23.5117 C   0  0  0  0  0  0
  -16.5334  -29.9099   23.6353 C   0  0  0  0  0  0
  -16.7250  -28.6525   23.0356 C   0  0  0  0  0  0
  -26.4489  -31.6593   25.0734 C   0  0  0  0  0  0
  -25.3750  -31.3697   26.1472 C   0  0  0  0  0  0
  -27.0323  -30.3020   24.6145 C   0  0  0  0  0  0
  -27.6059  -32.4308   25.7504 C   0  0  0  0  0  0
  -27.5592  -37.1787   24.8452 C   0  0  0  0  0  0
  -21.4145  -29.3030   22.3724 N   0  0  0  0  0  0
  -26.4301  -37.3776   23.9393 N   0  0  0  0  0  0
  -24.6688  -31.0767   22.1003 N   0  0  0  0  0  0
  -23.4176  -28.8187   23.3063 O   0  0  0  0  0  0
  -28.3795  -26.6678   20.1503 O   0  0  0  0  0  0
  -26.5586  -34.8899   22.4672 O   0  0  0  0  0  0
  -23.5344  -32.1424   23.7476 O   0  0  0  0  0  0
  -29.6177  -18.5778   18.5765 C   0  0  0  0  0  0
  -31.3735  -19.2115   20.3397 C   0  0  0  0  0  0
  -29.1764  -17.3940   19.4712 C   0  0  0  0  0  0
  -30.8557  -18.0452   21.2037 C   0  0  0  0  0  0
  -29.8239  -24.2405   19.1629 C   0  0  0  0  0  0
  -30.5319  -22.8813   19.1496 C   0  0  0  0  0  0
  -29.1253  -22.9956   21.0794 C   0  0  0  0  0  0
  -30.3347  -19.7424   19.3203 C   0  0  2  0  0  0
  -29.4017  -24.4433   20.6132 C   0  0  2  0  0  0
  -30.3597  -16.8856   20.3127 C   0  0  1  0  0  0
  -29.5345  -15.6926   22.3658 C   0  0  0  0  0  0
  -29.3563  -20.7899   19.9243 C   0  0  0  0  0  0
  -28.1921  -25.3886   20.7848 C   0  0  0  0  0  0
  -30.0866  -15.5849   21.0033 N   0  0  0  0  0  0
  -29.9980  -22.0900   20.2872 N   0  3  1  0  0  0
  -31.4594  -12.3750   19.1353 H   0  0  0  0  0  0
  -30.2784  -11.2998   19.8158 H   0  0  0  0  0  0
  -29.7503  -11.8216   17.4102 H   0  0  0  0  0  0
  -29.6654  -13.5247   17.7921 H   0  0  0  0  0  0
  -27.8322  -11.3200   18.7976 H   0  0  0  0  0  0
  -27.3675  -12.6504   17.7714 H   0  0  0  0  0  0
  -27.7062  -14.2600   19.5799 H   0  0  0  0  0  0
  -28.6678  -11.9262   21.2914 H   0  0  0  0  0  0
  -28.3980  -13.5201   21.8710 H   0  0  0  0  0  0
  -25.2742   -9.5689   22.4744 H   0  0  0  0  0  0
  -23.9974   -7.4639   22.7495 H   0  0  0  0  0  0
  -21.0823   -8.8771   19.8948 H   0  0  0  0  0  0
  -22.3692  -10.9650   19.6145 H   0  0  0  0  0  0
  -21.2015   -7.6153   23.9715 H   0  0  0  0  0  0
  -21.1482   -6.0524   25.9072 H   0  0  0  0  0  0
  -22.0590   -2.7619   23.2816 H   0  0  0  0  0  0
  -22.4149  -11.9824   22.4664 H   0  0  0  0  0  0
  -21.1188  -13.1281   22.2639 H   0  0  0  0  0  0
  -24.6871  -15.8555   20.5580 H   0  0  0  0  0  0
  -26.3113  -15.6209   20.1430 H   0  0  0  0  0  0
  -26.7130  -32.5526   23.1171 H   0  0  0  0  0  0
  -25.0073  -33.9778   25.0471 H   0  0  0  0  0  0
  -22.6934  -31.3004   21.4065 H   0  0  0  0  0  0
  -23.3763  -35.9633   23.3275 H   0  0  0  0  0  0
  -24.3573  -36.8948   22.2047 H   0  0  0  0  0  0
  -23.7240  -37.6499   23.6672 H   0  0  0  0  0  0
  -26.0533  -31.6091   20.6079 H   0  0  0  0  0  0
  -26.8176  -30.8791   21.9938 H   0  0  0  0  0  0
  -28.1072  -29.0979   21.1731 H   0  0  0  0  0  0
  -26.0657  -25.9826   18.9949 H   0  0  0  0  0  0
  -23.9869  -27.3006   19.0225 H   0  0  0  0  0  0
  -23.7068  -30.5835   19.3966 H   0  0  0  0  0  0
  -22.7447  -29.2197   19.8857 H   0  0  0  0  0  0
  -25.1303  -36.1955   25.0828 H   0  0  0  0  0  0
  -20.9919  -28.3258   24.1452 H   0  0  0  0  0  0
  -20.5682  -26.2282   23.3611 H   0  0  0  0  0  0
  -21.6628  -26.7473   22.1207 H   0  0  0  0  0  0
  -19.6901  -25.6299   21.1255 H   0  0  0  0  0  0
  -19.6697  -27.3193   20.6739 H   0  0  0  0  0  0
  -17.4188  -26.6688   21.4004 H   0  0  0  0  0  0
  -18.0283  -26.0096   22.9008 H   0  0  0  0  0  0
  -19.7913  -30.7267   24.2280 H   0  0  0  0  0  0
  -17.5005  -31.6290   24.5153 H   0  0  0  0  0  0
  -15.5337  -30.3000   23.7707 H   0  0  0  0  0  0
  -15.8638  -28.0851   22.7094 H   0  0  0  0  0  0
  -24.5947  -30.7020   25.7806 H   0  0  0  0  0  0
  -24.8921  -32.2846   26.4912 H   0  0  0  0  0  0
  -25.8108  -30.8880   27.0230 H   0  0  0  0  0  0
  -26.2885  -29.6766   24.1195 H   0  0  0  0  0  0
  -27.4054  -29.7279   25.4638 H   0  0  0  0  0  0
  -27.8736  -30.4300   23.9328 H   0  0  0  0  0  0
  -27.2680  -33.3578   26.2145 H   0  0  0  0  0  0
  -28.3857  -32.6907   25.0336 H   0  0  0  0  0  0
  -28.0752  -31.8396   26.5377 H   0  0  0  0  0  0
  -28.2589  -38.0104   24.7554 H   0  0  0  0  0  0
  -28.1114  -36.2640   24.6241 H   0  0  0  0  0  0
  -27.2293  -37.1398   25.8844 H   0  0  0  0  0  0
  -20.9336  -29.8707   21.6886 H   0  0  0  0  0  0
  -26.0201  -38.2850   24.1412 H   0  0  0  0  0  0
  -28.7644  -18.9598   18.0140 H   0  0  0  0  0  0
  -30.3012  -18.1898   17.8187 H   0  0  0  0  0  0
  -32.2560  -18.8698   19.7976 H   0  0  0  0  0  0
  -31.7286  -20.0149   20.9859 H   0  0  0  0  0  0
  -28.7952  -16.5944   18.8343 H   0  0  0  0  0  0
  -28.3511  -17.6940   20.1177 H   0  0  0  0  0  0
  -30.0528  -18.4016   21.8508 H   0  0  0  0  0  0
  -31.6621  -17.7048   21.8539 H   0  0  0  0  0  0
  -28.9406  -24.1978   18.5247 H   0  0  0  0  0  0
  -30.4586  -25.0490   18.7973 H   0  0  0  0  0  0
  -31.6040  -23.0091   19.3058 H   0  0  0  0  0  0
  -30.4033  -22.3987   18.1804 H   0  0  0  0  0  0
  -28.0813  -22.7408   20.8925 H   0  0  0  0  0  0
  -29.2983  -22.8649   22.1488 H   0  0  0  0  0  0
  -30.9019  -20.2573   18.5439 H   0  0  0  0  0  0
  -30.2513  -24.8419   21.1704 H   0  0  0  0  0  0
  -31.1648  -16.7292   19.5930 H   0  0  0  0  0  0
  -30.0112  -16.4635   22.9672 H   0  0  0  0  0  0
  -29.6730  -14.7858   22.9553 H   0  0  0  0  0  0
  -28.4665  -15.9132   22.3204 H   0  0  0  0  0  0
  -28.8845  -20.3603   20.8092 H   0  0  0  0  0  0
  -28.5502  -20.9978   19.2193 H   0  0  0  0  0  0
  -28.0079  -25.5451   21.8491 H   0  0  0  0  0  0
  -27.3074  -24.8788   20.4050 H   0  0  0  0  0  0
  -30.7898  -21.8676   20.8727 H   0  0  0  0  0  0
  1 25  1  0  0  0
  1 30  2  0  0  0
  1 84  1  0  0  0
  2  3  1  0  0  0
  2 25  1  0  0  0
  2 86  1  0  0  0
  2 87  1  0  0  0
  3  4  1  0  0  0
  3 88  1  0  0  0
  3 89  1  0  0  0
  4  5  1  0  0  0
  4 90  1  0  0  0
  4 91  1  0  0  0
  5  6  1  0  0  0
  5 26  1  0  0  0
  5 92  1  0  0  0
  6 25  1  0  0  0
  6 93  1  0  0  0
  6 94  1  0  0  0
  7  8  2  0  0  0
  7 26  1  0  0  0
  7 29  1  0  0  0
  8  9  1  0  0  0
  8 22  1  0  0  0
  9 10  1  0  0  0
  9 27  2  0  0  0
 10 11  2  0  0  0
 10 15  1  0  0  0
 11 12  1  0  0  0
 11 95  1  0  0  0
 12 13  2  0  0  0
 12 96  1  0  0  0
 13 14  1  0  0  0
 13 31  1  0  0  0
 14 15  2  0  0  0
 14 97  1  0  0  0
 15 98  1  0  0  0
 16 17  2  0  0  0
 16 21  1  0  0  0
 16 31  1  0  0  0
 17 18  1  0  0  0
 17 99  1  0  0  0
 18 19  2  0  0  0
 18100  1  0  0  0
 19 20  1  0  0  0
 19 24  1  0  0  0
 20 21  2  0  0  0
 20101  1  0  0  0
 21 23  1  0  0  0
 22 28  1  0  0  0
 22 32  2  0  0  0
 26 27  1  0  0  0
 28102  1  0  0  0
 28103  1  0  0  0
 29104  1  0  0  0
 29105  1  0  0  0
 33 34  1  0  0  0
 33 66  1  0  0  0
 33 70  2  0  0  0
 34 36  1  0  0  0
 34 59  1  0  0  0
 34106  1  0  0  0
 35 44  2  0  0  0
 35 45  1  0  0  0
 35 68  1  0  0  0
 36 56  1  0  0  0
 36107  1  0  0  0
 37 39  1  0  0  0
 37 47  1  0  0  0
 37 66  1  0  0  0
 37108  1  0  0  0
 38 43  2  0  0  0
 38 46  1  0  0  0
 38 47  1  0  0  0
 39 64  1  0  0  0
 39 67  2  0  0  0
 40 52  1  0  0  0
 40 53  2  0  0  0
 40 58  1  0  0  0
 41109  1  0  0  0
 41110  1  0  0  0
 41111  1  0  0  0
 41 48  1  0  0  0
 42 43  1  0  0  0
 42 66  1  0  0  0
 42112  1  0  0  0
 42113  1  0  0  0
 43 44  1  0  0  0
 44114  1  0  0  0
 45 46  2  0  0  0
 45115  1  0  0  0
 46116  1  0  0  0
 47117  1  0  0  0
 47118  1  0  0  0
 48 56  1  0  0  0
 48 65  1  0  0  0
 48119  1  0  0  0
 49 50  1  0  0  0
 49 53  1  0  0  0
 49 64  1  0  0  0
 49120  1  0  0  0
 50 51  1  0  0  0
 50121  1  0  0  0
 50122  1  0  0  0
 51 52  1  0  0  0
 51123  1  0  0  0
 51124  1  0  0  0
 52125  1  0  0  0
 52126  1  0  0  0
 53 54  1  0  0  0
 54 55  2  0  0  0
 54127  1  0  0  0
 55 57  1  0  0  0
 55128  1  0  0  0
 56 69  2  0  0  0
 57 58  2  0  0  0
 57129  1  0  0  0
 58130  1  0  0  0
 59 60  1  0  0  0
 59 61  1  0  0  0
 59 62  1  0  0  0
 60131  1  0  0  0
 60132  1  0  0  0
 60133  1  0  0  0
 61134  1  0  0  0
 61135  1  0  0  0
 61136  1  0  0  0
 62137  1  0  0  0
 62138  1  0  0  0
 62139  1  0  0  0
 63 65  1  0  0  0
 63140  1  0  0  0
 63141  1  0  0  0
 63142  1  0  0  0
 64143  1  0  0  0
 65144  1  0  0  0
 68 83  1  0  0  0
 71 73  1  0  0  0
 71 78  1  0  0  0
 71145  1  0  0  0
 71146  1  0  0  0
 72 74  1  0  0  0
 72 78  1  0  0  0
 72147  1  0  0  0
 72148  1  0  0  0
 73 80  1  0  0  0
 73149  1  0  0  0
 73150  1  0  0  0
 74 80  1  0  0  0
 74151  1  0  0  0
 74152  1  0  0  0
 75 76  1  0  0  0
 75 79  1  0  0  0
 75153  1  0  0  0
 75154  1  0  0  0
 76 85  1  0  0  0
 76155  1  0  0  0
 76156  1  0  0  0
 77 79  1  0  0  0
 77 85  1  0  0  0
 77157  1  0  0  0
 77158  1  0  0  0
 78 82  1  0  0  0
 78159  1  0  0  0
 79 83  1  0  0  0
 79160  1  0  0  0
 80 84  1  0  0  0
 80161  1  0  0  0
 81 84  1  0  0  0
 81162  1  0  0  0
 81163  1  0  0  0
 81164  1  0  0  0
 82165  1  0  0  0
 82166  1  0  0  0
 82 85  1  0  0  0
 83167  1  0  0  0
 83168  1  0  0  0
 85169  1  0  0  0
M  CHG  1  85   1
M  ISO  4   1 100  68 101  83 101  84 100
M  END
> <chiral flag>
0

> <version>
0

> <s_m_source_file>
/data/baiqing/PycharmProjects/Reinvent-master-3.2/result/LINK_invent/BTK/process_docking_weight1_custom_product_contain_oxygen_bond_distance_aromatic_linkinvent_7_9_3/rearranged_h_0014.sdf

> <i_m_source_file_index>
51

> <r_mmod_Potential_Energy-OPLS-2005>
165.384033203125

> <r_mmod_Stretch_Energy-OPLS-2005>
43.3755950927734

> <r_mmod_Bend_Energy-OPLS-2005>
131.473937988281

> <r_mmod_Torsional_Energy-OPLS-2005>
403.148162841797

> <r_mmod_Improper_Torsional_Energy-OPLS-2005>
9.28914833068848

> <r_mmod_Van_der_Waal_Energy-OPLS-2005>
147.959762573242

> <r_mmod_Electrostatic_Energy-OPLS-2005>
-164.721923828125

> <r_mmod_Solvation_Energy-OPLS-2005>
-420.100616455078

> <b_mmod_Minimization_Converged-OPLS-2005>
0

> <r_mmod_RMS_Derivative-OPLS-2005>
2.74716711044312

$$$$
51
                    3D
 Structure written by MMmdl.
159167  0  0  1  0            999 V2000
  -30.6630  -14.4738   20.5996 C   0  0  0  0  0  0
  -30.4355  -12.3140   19.4136 C   0  0  0  0  0  0
  -29.4986  -12.5085   18.2018 C   0  0  0  0  0  0
  -28.0175  -12.3685   18.6113 C   0  0  0  0  0  0
  -27.6649  -13.1945   19.8765 C   0  0  2  0  0  0
  -28.7032  -12.9387   20.9915 C   0  0  0  0  0  0
  -25.2618  -13.8126   20.5646 C   0  0  0  0  0  0
  -24.1855  -13.0433   20.9168 C   0  0  0  0  0  0
  -24.6384  -11.6890   20.8729 C   0  0  0  0  0  0
  -23.9041  -10.4287   21.0401 C   0  0  0  0  0  0
  -24.3601   -9.4212   21.9185 C   0  0  0  0  0  0
  -23.6284   -8.2243   22.0757 C   0  0  0  0  0  0
  -22.4268   -8.0276   21.3539 C   0  0  0  0  0  0
  -21.9897   -9.0247   20.4645 C   0  0  0  0  0  0
  -22.7214  -10.2130   20.3053 C   0  0  0  0  0  0
  -21.6854   -6.0733   22.5279 C   0  0  0  0  0  0
  -21.4013   -6.5640   23.8212 C   0  0  0  0  0  0
  -21.3659   -5.6793   24.9174 C   0  0  0  0  0  0
  -21.6039   -4.3054   24.7228 C   0  0  0  0  0  0
  -21.8822   -3.8146   23.4350 C   0  0  0  0  0  0
  -21.9193   -4.6960   22.3401 C   0  0  0  0  0  0
  -22.7881  -13.5245   21.1833 C   0  0  0  0  0  0
  -22.1663   -4.2143   21.0978 F   0  0  0  0  0  0
  -21.5629   -3.4536   25.7744 F   0  0  0  0  0  0
  -30.0345  -13.2749   20.4521 N   0  0  0  0  0  0
  -26.3035  -12.9269   20.3338 N   0  0  0  0  0  0
  -25.9303  -11.6444   20.5737 N   0  0  0  0  0  0
  -22.0512  -12.8244   22.0389 N   0  0  0  0  0  0
  -25.4383  -15.1844   20.4027 N   0  0  0  0  0  0
  -31.7797  -14.7061   20.1238 O   0  0  0  0  0  0
  -21.6637   -6.8872   21.4237 O   0  0  0  0  0  0
  -22.3577  -14.5557   20.6685 O   0  0  0  0  0  0
  -24.6132  -31.8671   23.2078 C   0  0  0  0  0  0
  -25.9020  -32.4823   23.8375 C   0  0  1  0  0  0
  -27.2381  -27.4349   20.0977 C   0  0  0  0  0  0
  -25.5865  -33.8618   24.2302 N   0  0  0  0  0  0
  -23.4013  -30.4891   21.5498 C   0  0  2  0  0  0
  -24.8486  -28.9521   20.1190 C   0  0  0  0  0  0
  -22.7403  -29.4641   22.4993 C   0  0  0  0  0  0
  -18.0266  -28.1369   22.8495 C   0  0  0  0  0  0
  -24.1484  -36.7323   23.2636 C   0  0  0  0  0  0
  -25.9290  -30.8363   21.3582 C   0  0  0  0  0  0
  -26.0092  -29.4698   20.7069 C   0  0  0  0  0  0
  -27.2079  -28.7202   20.6877 C   0  0  0  0  0  0
  -26.0573  -26.9271   19.5111 C   0  0  0  0  0  0
  -24.8667  -27.6794   19.5202 C   0  0  0  0  0  0
  -23.6106  -29.8187   20.1662 C   0  0  0  0  0  0
  -25.4105  -36.3115   24.0332 C   0  0  1  0  0  0
  -20.5856  -28.3648   23.1325 C   0  0  2  0  0  0
  -20.6763  -26.9385   22.5426 C   0  0  0  0  0  0
  -19.5741  -26.6377   21.5217 C   0  0  0  0  0  0
  -18.1917  -26.7916   22.1625 C   0  0  0  0  0  0
  -19.1518  -28.8827   23.2907 C   0  0  0  0  0  0
  -18.9451  -30.1435   23.8915 C   0  0  0  0  0  0
  -17.6459  -30.6587   24.0556 C   0  0  0  0  0  0
  -25.9030  -34.9477   23.5122 C   0  0  0  0  0  0
  -16.5347  -29.9091   23.6316 C   0  0  0  0  0  0
  -16.7259  -28.6502   23.0345 C   0  0  0  0  0  0
  -26.4455  -31.6601   25.0697 C   0  0  0  0  0  0
  -25.3717  -31.3712   26.1444 C   0  0  0  0  0  0
  -27.0255  -30.3039   24.6041 C   0  0  0  0  0  0
  -27.6023  -32.4317   25.7475 C   0  0  0  0  0  0
  -27.5584  -37.1816   24.8457 C   0  0  0  0  0  0
  -21.4131  -29.3018   22.3739 N   0  0  0  0  0  0
  -26.4296  -37.3797   23.9406 N   0  0  0  0  0  0
  -24.6664  -31.0772   22.0982 N   0  0  0  0  0  0
  -23.4180  -28.8184   23.3033 O   0  0  0  0  0  0
  -28.4201  -26.7232   20.0836 O   0  0  0  0  0  0
  -26.5614  -34.8941   22.4700 O   0  0  0  0  0  0
  -23.5331  -32.1418   23.7487 O   0  0  0  0  0  0
  -28.8695  -18.9699   21.6864 C   0  0  0  0  0  0
  -31.2790  -18.9331   21.3798 C   0  0  0  0  0  0
  -28.8336  -17.5690   21.5127 C   0  0  0  0  0  0
  -31.2438  -17.5312   21.2002 C   0  0  0  0  0  0
  -30.0966  -19.6655   21.6428 C   0  0  0  0  0  0
  -30.0172  -16.8298   21.2797 C   0  0  0  0  0  0
  -30.6160  -21.9426   19.7027 C   0  0  0  0  0  0
  -30.1658  -21.1563   22.0104 C   0  0  0  0  0  0
  -29.7812  -24.7728   20.5643 C   0  0  0  0  0  0
  -29.9523  -23.5426   21.5097 C   0  0  0  0  0  0
  -28.3491  -25.3122   20.3457 C   0  0  0  0  0  0
  -29.8989  -15.4079   21.2059 N   0  0  0  0  0  0
  -29.8359  -22.1554   20.9470 N   0  3  1  0  0  0
  -31.4766  -12.4421   19.1116 H   0  0  0  0  0  0
  -30.3597  -11.2955   19.7965 H   0  0  0  0  0  0
  -29.7377  -11.7843   17.4223 H   0  0  0  0  0  0
  -29.6657  -13.4937   17.7635 H   0  0  0  0  0  0
  -27.8228  -11.3109   18.7943 H   0  0  0  0  0  0
  -27.3701  -12.6558   17.7818 H   0  0  0  0  0  0
  -27.7182  -14.2456   19.5951 H   0  0  0  0  0  0
  -28.6873  -11.8882   21.2871 H   0  0  0  0  0  0
  -28.4519  -13.4895   21.8986 H   0  0  0  0  0  0
  -25.2748   -9.5692   22.4756 H   0  0  0  0  0  0
  -23.9997   -7.4636   22.7480 H   0  0  0  0  0  0
  -21.0831   -8.8756   19.8952 H   0  0  0  0  0  0
  -22.3671  -10.9666   19.6162 H   0  0  0  0  0  0
  -21.2008   -7.6151   23.9710 H   0  0  0  0  0  0
  -21.1476   -6.0526   25.9075 H   0  0  0  0  0  0
  -22.0602   -2.7607   23.2852 H   0  0  0  0  0  0
  -22.4119  -11.9901   22.4771 H   0  0  0  0  0  0
  -21.1131  -13.1279   22.2578 H   0  0  0  0  0  0
  -24.6705  -15.8409   20.4939 H   0  0  0  0  0  0
  -26.2806  -15.6100   20.0376 H   0  0  0  0  0  0
  -26.7091  -32.5549   23.1139 H   0  0  0  0  0  0
  -24.9971  -33.9772   25.0418 H   0  0  0  0  0  0
  -22.6892  -31.3051   21.4092 H   0  0  0  0  0  0
  -23.3746  -35.9655   23.3299 H   0  0  0  0  0  0
  -24.3582  -36.8938   22.2050 H   0  0  0  0  0  0
  -23.7239  -37.6527   23.6659 H   0  0  0  0  0  0
  -26.0314  -31.6029   20.5891 H   0  0  0  0  0  0
  -26.8194  -30.8950   21.9722 H   0  0  0  0  0  0
  -28.1076  -29.1192   21.1375 H   0  0  0  0  0  0
  -26.0476  -25.9590   19.0316 H   0  0  0  0  0  0
  -23.9725  -27.2730   19.0671 H   0  0  0  0  0  0
  -23.7184  -30.5912   19.4035 H   0  0  0  0  0  0
  -22.7348  -29.2371   19.8740 H   0  0  0  0  0  0
  -25.1285  -36.1980   25.0824 H   0  0  0  0  0  0
  -20.9948  -28.3235   24.1439 H   0  0  0  0  0  0
  -20.5671  -26.2259   23.3617 H   0  0  0  0  0  0
  -21.6639  -26.7437   22.1211 H   0  0  0  0  0  0
  -19.6902  -25.6290   21.1235 H   0  0  0  0  0  0
  -19.6687  -27.3203   20.6759 H   0  0  0  0  0  0
  -17.4186  -26.6659   21.4025 H   0  0  0  0  0  0
  -18.0305  -26.0060   22.9024 H   0  0  0  0  0  0
  -19.7939  -30.7223   24.2315 H   0  0  0  0  0  0
  -17.5025  -31.6276   24.5143 H   0  0  0  0  0  0
  -15.5350  -30.3004   23.7633 H   0  0  0  0  0  0
  -15.8654  -28.0834   22.7050 H   0  0  0  0  0  0
  -24.5897  -30.7044   25.7784 H   0  0  0  0  0  0
  -24.8906  -32.2875   26.4878 H   0  0  0  0  0  0
  -25.8070  -30.8899   27.0208 H   0  0  0  0  0  0
  -26.2768  -29.6845   24.1084 H   0  0  0  0  0  0
  -27.4000  -29.7229   25.4476 H   0  0  0  0  0  0
  -27.8622  -30.4335   23.9173 H   0  0  0  0  0  0
  -27.2612  -33.3600   26.2072 H   0  0  0  0  0  0
  -28.3835  -32.6904   25.0313 H   0  0  0  0  0  0
  -28.0679  -31.8421   26.5383 H   0  0  0  0  0  0
  -28.2598  -38.0124   24.7528 H   0  0  0  0  0  0
  -28.1094  -36.2659   24.6259 H   0  0  0  0  0  0
  -27.2306  -37.1421   25.8862 H   0  0  0  0  0  0
  -20.9288  -29.8751   21.6970 H   0  0  0  0  0  0
  -26.0192  -38.2871   24.1437 H   0  0  0  0  0  0
  -27.9512  -19.4993   21.9020 H   0  0  0  0  0  0
  -32.2353  -19.4382   21.3593 H   0  0  0  0  0  0
  -27.8798  -17.0642   21.5855 H   0  0  0  0  0  0
  -32.1759  -17.0057   21.0456 H   0  0  0  0  0  0
  -30.5278  -20.9177   19.3427 H   0  0  0  0  0  0
  -31.6749  -22.1535   19.8552 H   0  0  0  0  0  0
  -30.2494  -22.5730   18.8943 H   0  0  0  0  0  0
  -31.1698  -21.3595   22.3869 H   0  0  0  0  0  0
  -29.5000  -21.3154   22.8607 H   0  0  0  0  0  0
  -30.3000  -24.6564   19.6150 H   0  0  0  0  0  0
  -30.3245  -25.5806   21.0566 H   0  0  0  0  0  0
  -29.2749  -23.6457   22.3586 H   0  0  0  0  0  0
  -30.9524  -23.6238   21.9385 H   0  0  0  0  0  0
  -27.7410  -25.1472   21.2376 H   0  0  0  0  0  0
  -27.8804  -24.7767   19.5196 H   0  0  0  0  0  0
  -29.0125  -15.0397   21.5148 H   0  0  0  0  0  0
  -28.8678  -22.0032   20.7073 H   0  0  0  0  0  0
  1 25  1  0  0  0
  1 30  2  0  0  0
  1 82  1  0  0  0
  2  3  1  0  0  0
  2 25  1  0  0  0
  2 84  1  0  0  0
  2 85  1  0  0  0
  3  4  1  0  0  0
  3 86  1  0  0  0
  3 87  1  0  0  0
  4  5  1  0  0  0
  4 88  1  0  0  0
  4 89  1  0  0  0
  5  6  1  0  0  0
  5 26  1  0  0  0
  5 90  1  0  0  0
  6 25  1  0  0  0
  6 91  1  0  0  0
  6 92  1  0  0  0
  7  8  2  0  0  0
  7 26  1  0  0  0
  7 29  1  0  0  0
  8  9  1  0  0  0
  8 22  1  0  0  0
  9 10  1  0  0  0
  9 27  2  0  0  0
 10 11  2  0  0  0
 10 15  1  0  0  0
 11 12  1  0  0  0
 11 93  1  0  0  0
 12 13  2  0  0  0
 12 94  1  0  0  0
 13 14  1  0  0  0
 13 31  1  0  0  0
 14 15  2  0  0  0
 14 95  1  0  0  0
 15 96  1  0  0  0
 16 17  2  0  0  0
 16 21  1  0  0  0
 16 31  1  0  0  0
 17 18  1  0  0  0
 17 97  1  0  0  0
 18 19  2  0  0  0
 18 98  1  0  0  0
 19 20  1  0  0  0
 19 24  1  0  0  0
 20 21  2  0  0  0
 20 99  1  0  0  0
 21 23  1  0  0  0
 22 28  1  0  0  0
 22 32  2  0  0  0
 26 27  1  0  0  0
 28100  1  0  0  0
 28101  1  0  0  0
 29102  1  0  0  0
 29103  1  0  0  0
 33 34  1  0  0  0
 33 66  1  0  0  0
 33 70  2  0  0  0
 34 36  1  0  0  0
 34 59  1  0  0  0
 34104  1  0  0  0
 35 44  2  0  0  0
 35 45  1  0  0  0
 35 68  1  0  0  0
 36 56  1  0  0  0
 36105  1  0  0  0
 37 39  1  0  0  0
 37 47  1  0  0  0
 37 66  1  0  0  0
 37106  1  0  0  0
 38 43  2  0  0  0
 38 46  1  0  0  0
 38 47  1  0  0  0
 39 64  1  0  0  0
 39 67  2  0  0  0
 40 52  1  0  0  0
 40 53  2  0  0  0
 40 58  1  0  0  0
 41107  1  0  0  0
 41108  1  0  0  0
 41109  1  0  0  0
 41 48  1  0  0  0
 42 43  1  0  0  0
 42 66  1  0  0  0
 42110  1  0  0  0
 42111  1  0  0  0
 43 44  1  0  0  0
 44112  1  0  0  0
 45 46  2  0  0  0
 45113  1  0  0  0
 46114  1  0  0  0
 47115  1  0  0  0
 47116  1  0  0  0
 48 56  1  0  0  0
 48 65  1  0  0  0
 48117  1  0  0  0
 49 50  1  0  0  0
 49 53  1  0  0  0
 49 64  1  0  0  0
 49118  1  0  0  0
 50 51  1  0  0  0
 50119  1  0  0  0
 50120  1  0  0  0
 51 52  1  0  0  0
 51121  1  0  0  0
 51122  1  0  0  0
 52123  1  0  0  0
 52124  1  0  0  0
 53 54  1  0  0  0
 54 55  2  0  0  0
 54125  1  0  0  0
 55 57  1  0  0  0
 55126  1  0  0  0
 56 69  2  0  0  0
 57 58  2  0  0  0
 57127  1  0  0  0
 58128  1  0  0  0
 59 60  1  0  0  0
 59 61  1  0  0  0
 59 62  1  0  0  0
 60129  1  0  0  0
 60130  1  0  0  0
 60131  1  0  0  0
 61132  1  0  0  0
 61133  1  0  0  0
 61134  1  0  0  0
 62135  1  0  0  0
 62136  1  0  0  0
 62137  1  0  0  0
 63 65  1  0  0  0
 63138  1  0  0  0
 63139  1  0  0  0
 63140  1  0  0  0
 64141  1  0  0  0
 65142  1  0  0  0
 68 81  1  0  0  0
 71 73  2  0  0  0
 71 75  1  0  0  0
 71143  1  0  0  0
 72 74  1  0  0  0
 72 75  2  0  0  0
 72144  1  0  0  0
 73 76  1  0  0  0
 73145  1  0  0  0
 74 76  2  0  0  0
 74146  1  0  0  0
 75 78  1  0  0  0
 76 82  1  0  0  0
 77147  1  0  0  0
 77148  1  0  0  0
 77149  1  0  0  0
 77 83  1  0  0  0
 78 83  1  0  0  0
 78150  1  0  0  0
 78151  1  0  0  0
 79 80  1  0  0  0
 79 81  1  0  0  0
 79152  1  0  0  0
 79153  1  0  0  0
 80 83  1  0  0  0
 80154  1  0  0  0
 80155  1  0  0  0
 81156  1  0  0  0
 81157  1  0  0  0
 82158  1  0  0  0
 83159  1  0  0  0
M  CHG  1  83   1
M  ISO  4   1 100  68 101  81 101  82 100
M  END
> <chiral flag>
0

> <version>
0

> <s_m_source_file>
/data/baiqing/PycharmProjects/Reinvent-master-3.2/result/LINK_invent/BTK/process_docking_weight1_custom_product_contain_oxygen_bond_distance_aromatic_linkinvent_7_9_3/rearranged_h_0014.sdf

> <i_m_source_file_index>
52

> <r_mmod_Potential_Energy-OPLS-2005>
-169.5888671875

> <r_mmod_Stretch_Energy-OPLS-2005>
39.6837730407715

> <r_mmod_Bend_Energy-OPLS-2005>
116.625686645508

> <r_mmod_Torsional_Energy-OPLS-2005>
224.905197143555

> <r_mmod_Improper_Torsional_Energy-OPLS-2005>
4.02819395065308

> <r_mmod_Van_der_Waal_Energy-OPLS-2005>
155.463958740234

> <r_mmod_Electrostatic_Energy-OPLS-2005>
-270.951782226562

> <r_mmod_Solvation_Energy-OPLS-2005>
-451.460754394531

> <b_mmod_Minimization_Converged-OPLS-2005>
0

> <r_mmod_RMS_Derivative-OPLS-2005>
1.51259875297546

$$$$
52
                    3D
 Structure written by MMmdl.
171180  0  0  1  0            999 V2000
  -30.7518  -14.4301   20.6616 C   0  0  0  0  0  0
  -30.4165  -12.3141   19.4172 C   0  0  0  0  0  0
  -29.4886  -12.5196   18.2043 C   0  0  0  0  0  0
  -28.0158  -12.3456   18.6181 C   0  0  0  0  0  0
  -27.6601  -13.1898   19.8661 C   0  0  2  0  0  0
  -28.6986  -12.9893   20.9936 C   0  0  0  0  0  0
  -25.2660  -13.8140   20.5696 C   0  0  0  0  0  0
  -24.1864  -13.0445   20.9139 C   0  0  0  0  0  0
  -24.6379  -11.6901   20.8715 C   0  0  0  0  0  0
  -23.9041  -10.4296   21.0408 C   0  0  0  0  0  0
  -24.3606   -9.4221   21.9194 C   0  0  0  0  0  0
  -23.6291   -8.2255   22.0758 C   0  0  0  0  0  0
  -22.4276   -8.0288   21.3540 C   0  0  0  0  0  0
  -21.9908   -9.0256   20.4638 C   0  0  0  0  0  0
  -22.7217  -10.2148   20.3056 C   0  0  0  0  0  0
  -21.6848   -6.0754   22.5278 C   0  0  0  0  0  0
  -21.4009   -6.5654   23.8211 C   0  0  0  0  0  0
  -21.3664   -5.6805   24.9173 C   0  0  0  0  0  0
  -21.6042   -4.3064   24.7221 C   0  0  0  0  0  0
  -21.8828   -3.8163   23.4334 C   0  0  0  0  0  0
  -21.9191   -4.6981   22.3391 C   0  0  0  0  0  0
  -22.7902  -13.5268   21.1817 C   0  0  0  0  0  0
  -22.1665   -4.2171   21.0972 F   0  0  0  0  0  0
  -21.5629   -3.4542   25.7736 F   0  0  0  0  0  0
  -30.0365  -13.2868   20.4561 N   0  0  0  0  0  0
  -26.3024  -12.9246   20.3326 N   0  0  0  0  0  0
  -25.9289  -11.6429   20.5735 N   0  0  0  0  0  0
  -22.0539  -12.8244   22.0357 N   0  0  0  0  0  0
  -25.4532  -15.1849   20.4218 N   0  0  0  0  0  0
  -31.7978  -14.6450   20.0369 O   0  0  0  0  0  0
  -21.6640   -6.8894   21.4248 O   0  0  0  0  0  0
  -22.3585  -14.5581   20.6683 O   0  0  0  0  0  0
  -24.6143  -31.8698   23.2114 C   0  0  0  0  0  0
  -25.9044  -32.4839   23.8401 C   0  0  1  0  0  0
  -27.2529  -27.4609   20.0857 C   0  0  0  0  0  0
  -25.5910  -33.8633   24.2335 N   0  0  0  0  0  0
  -23.4034  -30.4893   21.5527 C   0  0  2  0  0  0
  -24.8553  -28.9581   20.1222 C   0  0  0  0  0  0
  -22.7419  -29.4652   22.5019 C   0  0  0  0  0  0
  -18.0274  -28.1397   22.8494 C   0  0  0  0  0  0
  -24.1490  -36.7305   23.2632 C   0  0  0  0  0  0
  -25.9300  -30.8424   21.3625 C   0  0  0  0  0  0
  -26.0146  -29.4751   20.7176 C   0  0  0  0  0  0
  -27.2189  -28.7338   20.7057 C   0  0  0  0  0  0
  -26.0777  -26.9576   19.4946 C   0  0  0  0  0  0
  -24.8789  -27.6934   19.5115 C   0  0  0  0  0  0
  -23.6136  -29.8184   20.1694 C   0  0  0  0  0  0
  -25.4109  -36.3108   24.0342 C   0  0  1  0  0  0
  -20.5863  -28.3675   23.1334 C   0  0  2  0  0  0
  -20.6752  -26.9404   22.5443 C   0  0  0  0  0  0
  -19.5741  -26.6396   21.5223 C   0  0  0  0  0  0
  -18.1912  -26.7953   22.1604 C   0  0  0  0  0  0
  -19.1521  -28.8861   23.2909 C   0  0  0  0  0  0
  -18.9448  -30.1470   23.8897 C   0  0  0  0  0  0
  -17.6448  -30.6594   24.0582 C   0  0  0  0  0  0
  -25.9050  -34.9482   23.5131 C   0  0  0  0  0  0
  -16.5344  -29.9090   23.6339 C   0  0  0  0  0  0
  -16.7264  -28.6517   23.0335 C   0  0  0  0  0  0
  -26.4471  -31.6596   25.0707 C   0  0  0  0  0  0
  -25.3739  -31.3692   26.1450 C   0  0  0  0  0  0
  -27.0286  -30.3038   24.6055 C   0  0  0  0  0  0
  -27.6058  -32.4292   25.7476 C   0  0  0  0  0  0
  -27.5608  -37.1771   24.8439 C   0  0  0  0  0  0
  -21.4148  -29.3033   22.3743 N   0  0  0  0  0  0
  -26.4279  -37.3811   23.9447 N   0  0  0  0  0  0
  -24.6670  -31.0805   22.1015 N   0  0  0  0  0  0
  -23.4182  -28.8202   23.3079 O   0  0  0  0  0  0
  -28.3584  -26.6472   19.9885 O   0  0  0  0  0  0
  -26.5599  -34.8935   22.4682 O   0  0  0  0  0  0
  -23.5333  -32.1437   23.7512 O   0  0  0  0  0  0
  -32.4279  -21.6588   20.0608 C   0  0  0  0  0  0
  -31.6358  -20.5250   19.7856 C   0  0  0  0  0  0
  -30.9262  -22.2648   21.8799 C   0  0  0  0  0  0
  -32.0871  -22.5288   21.1211 C   0  0  0  0  0  0
  -30.4972  -20.2413   20.5697 C   0  0  0  0  0  0
  -30.1382  -21.1275   21.6100 C   0  0  0  0  0  0
  -29.5257  -16.5786   20.9471 C   0  0  0  0  0  0
  -31.4744  -16.3062   22.3072 C   0  0  0  0  0  0
  -31.4822  -17.6617   21.5838 C   0  0  0  0  0  0
  -30.3071  -15.4959   21.7023 C   0  0  2  0  0  0
  -34.1705  -25.4657   20.2592 C   0  0  0  0  0  0
  -29.6790  -18.9806   20.3004 C   0  0  0  0  0  0
  -33.0071  -23.6868   21.4895 C   0  0  0  0  0  0
  -30.4854  -25.7387   20.4638 C   0  0  0  0  0  0
  -31.8859  -25.8991   21.0832 C   0  0  0  0  0  0
  -29.5593  -26.9554   20.6777 C   0  0  0  0  0  0
  -30.1883  -17.7456   20.9192 N   0  0  0  0  0  0
  -32.8556  -24.8702   20.6007 N   0  3  1  0  0  0
  -28.3986  -16.3995   20.4749 O   0  0  0  0  0  0
  -29.0450  -20.8807   22.3692 F   0  0  0  0  0  0
  -31.4597  -12.4064   19.1118 H   0  0  0  0  0  0
  -30.3174  -11.3005   19.8081 H   0  0  0  0  0  0
  -29.7418  -11.8186   17.4082 H   0  0  0  0  0  0
  -29.6360  -13.5200   17.7949 H   0  0  0  0  0  0
  -27.8429  -11.2881   18.8221 H   0  0  0  0  0  0
  -27.3571  -12.6060   17.7887 H   0  0  0  0  0  0
  -27.6970  -14.2257   19.5413 H   0  0  0  0  0  0
  -28.6751  -11.9587   21.3514 H   0  0  0  0  0  0
  -28.4214  -13.5959   21.8512 H   0  0  0  0  0  0
  -25.2751   -9.5711   22.4758 H   0  0  0  0  0  0
  -24.0009   -7.4659   22.7482 H   0  0  0  0  0  0
  -21.0845   -8.8763   19.8936 H   0  0  0  0  0  0
  -22.3672  -10.9689   19.6169 H   0  0  0  0  0  0
  -21.2011   -7.6167   23.9721 H   0  0  0  0  0  0
  -21.1471   -6.0535   25.9080 H   0  0  0  0  0  0
  -22.0606   -2.7627   23.2829 H   0  0  0  0  0  0
  -22.4160  -11.9890   22.4720 H   0  0  0  0  0  0
  -21.1154  -13.1264   22.2562 H   0  0  0  0  0  0
  -24.7196  -15.8657   20.5840 H   0  0  0  0  0  0
  -26.3623  -15.6107   20.2507 H   0  0  0  0  0  0
  -26.7131  -32.5592   23.1192 H   0  0  0  0  0  0
  -25.0098  -33.9801   25.0501 H   0  0  0  0  0  0
  -22.6902  -31.3032   21.4096 H   0  0  0  0  0  0
  -23.3794  -35.9586   23.3193 H   0  0  0  0  0  0
  -24.3607  -36.9022   22.2063 H   0  0  0  0  0  0
  -23.7172  -37.6450   23.6712 H   0  0  0  0  0  0
  -26.0283  -31.6044   20.5872 H   0  0  0  0  0  0
  -26.8239  -30.9095   21.9722 H   0  0  0  0  0  0
  -28.1088  -29.1479   21.1583 H   0  0  0  0  0  0
  -26.0964  -25.9892   19.0143 H   0  0  0  0  0  0
  -23.9897  -27.2847   19.0501 H   0  0  0  0  0  0
  -23.7184  -30.5902   19.4064 H   0  0  0  0  0  0
  -22.7422  -29.2303   19.8756 H   0  0  0  0  0  0
  -25.1268  -36.1959   25.0832 H   0  0  0  0  0  0
  -20.9941  -28.3248   24.1463 H   0  0  0  0  0  0
  -20.5655  -26.2282   23.3629 H   0  0  0  0  0  0
  -21.6625  -26.7431   22.1257 H   0  0  0  0  0  0
  -19.6897  -25.6309   21.1245 H   0  0  0  0  0  0
  -19.6700  -27.3213   20.6766 H   0  0  0  0  0  0
  -17.4202  -26.6763   21.3977 H   0  0  0  0  0  0
  -18.0248  -26.0080   22.8975 H   0  0  0  0  0  0
  -19.7913  -30.7300   24.2256 H   0  0  0  0  0  0
  -17.4991  -31.6261   24.5213 H   0  0  0  0  0  0
  -15.5344  -30.2988   23.7655 H   0  0  0  0  0  0
  -15.8672  -28.0852   22.7013 H   0  0  0  0  0  0
  -24.5950  -30.6992   25.7790 H   0  0  0  0  0  0
  -24.8881  -32.2844   26.4845 H   0  0  0  0  0  0
  -25.8111  -30.8915   27.0228 H   0  0  0  0  0  0
  -26.2803  -29.6812   24.1139 H   0  0  0  0  0  0
  -27.4086  -29.7267   25.4497 H   0  0  0  0  0  0
  -27.8628  -30.4353   23.9158 H   0  0  0  0  0  0
  -27.2697  -33.3605   26.2050 H   0  0  0  0  0  0
  -28.3874  -32.6821   25.0298 H   0  0  0  0  0  0
  -28.0705  -31.8395   26.5390 H   0  0  0  0  0  0
  -28.2526  -38.0164   24.7652 H   0  0  0  0  0  0
  -28.1205  -36.2714   24.6056 H   0  0  0  0  0  0
  -27.2365  -37.1176   25.8841 H   0  0  0  0  0  0
  -20.9326  -29.8757   21.6954 H   0  0  0  0  0  0
  -26.0164  -38.2862   24.1563 H   0  0  0  0  0  0
  -33.3156  -21.8374   19.4684 H   0  0  0  0  0  0
  -31.9192  -19.8599   18.9820 H   0  0  0  0  0  0
  -30.6497  -22.9165   22.6968 H   0  0  0  0  0  0
  -31.3012  -16.4568   23.3734 H   0  0  0  0  0  0
  -32.4411  -15.8077   22.2194 H   0  0  0  0  0  0
  -32.2737  -17.6984   20.8342 H   0  0  0  0  0  0
  -31.6391  -18.4819   22.2857 H   0  0  0  0  0  0
  -29.7169  -15.0773   22.5128 H   0  0  0  0  0  0
  -34.8209  -24.7316   19.7822 H   0  0  0  0  0  0
  -34.6789  -25.8433   21.1475 H   0  0  0  0  0  0
  -34.0583  -26.2934   19.5584 H   0  0  0  0  0  0
  -29.6183  -18.8283   19.2218 H   0  0  0  0  0  0
  -28.6537  -19.1452   20.6357 H   0  0  0  0  0  0
  -34.0238  -23.2970   21.4199 H   0  0  0  0  0  0
  -32.8876  -23.9589   22.5383 H   0  0  0  0  0  0
  -30.0054  -24.8482   20.8699 H   0  0  0  0  0  0
  -30.5822  -25.5693   19.3910 H   0  0  0  0  0  0
  -31.8258  -25.9068   22.1726 H   0  0  0  0  0  0
  -32.2505  -26.8929   20.8136 H   0  0  0  0  0  0
  -30.0073  -27.8587   20.2595 H   0  0  0  0  0  0
  -29.3719  -27.1201   21.7401 H   0  0  0  0  0  0
  -32.5005  -24.5175   19.7250 H   0  0  0  0  0  0
  1 25  1  0  0  0
  1 30  2  0  0  0
  1 80  1  0  0  0
  2  3  1  0  0  0
  2 25  1  0  0  0
  2 91  1  0  0  0
  2 92  1  0  0  0
  3  4  1  0  0  0
  3 93  1  0  0  0
  3 94  1  0  0  0
  4  5  1  0  0  0
  4 95  1  0  0  0
  4 96  1  0  0  0
  5  6  1  0  0  0
  5 26  1  0  0  0
  5 97  1  0  0  0
  6 25  1  0  0  0
  6 98  1  0  0  0
  6 99  1  0  0  0
  7  8  2  0  0  0
  7 26  1  0  0  0
  7 29  1  0  0  0
  8  9  1  0  0  0
  8 22  1  0  0  0
  9 10  1  0  0  0
  9 27  2  0  0  0
 10 11  2  0  0  0
 10 15  1  0  0  0
 11 12  1  0  0  0
 11100  1  0  0  0
 12 13  2  0  0  0
 12101  1  0  0  0
 13 14  1  0  0  0
 13 31  1  0  0  0
 14 15  2  0  0  0
 14102  1  0  0  0
 15103  1  0  0  0
 16 17  2  0  0  0
 16 21  1  0  0  0
 16 31  1  0  0  0
 17 18  1  0  0  0
 17104  1  0  0  0
 18 19  2  0  0  0
 18105  1  0  0  0
 19 20  1  0  0  0
 19 24  1  0  0  0
 20 21  2  0  0  0
 20106  1  0  0  0
 21 23  1  0  0  0
 22 28  1  0  0  0
 22 32  2  0  0  0
 26 27  1  0  0  0
 28107  1  0  0  0
 28108  1  0  0  0
 29109  1  0  0  0
 29110  1  0  0  0
 33 34  1  0  0  0
 33 66  1  0  0  0
 33 70  2  0  0  0
 34 36  1  0  0  0
 34 59  1  0  0  0
 34111  1  0  0  0
 35 44  2  0  0  0
 35 45  1  0  0  0
 35 68  1  0  0  0
 36 56  1  0  0  0
 36112  1  0  0  0
 37 39  1  0  0  0
 37 47  1  0  0  0
 37 66  1  0  0  0
 37113  1  0  0  0
 38 43  2  0  0  0
 38 46  1  0  0  0
 38 47  1  0  0  0
 39 64  1  0  0  0
 39 67  2  0  0  0
 40 52  1  0  0  0
 40 53  2  0  0  0
 40 58  1  0  0  0
 41114  1  0  0  0
 41115  1  0  0  0
 41116  1  0  0  0
 41 48  1  0  0  0
 42 43  1  0  0  0
 42 66  1  0  0  0
 42117  1  0  0  0
 42118  1  0  0  0
 43 44  1  0  0  0
 44119  1  0  0  0
 45 46  2  0  0  0
 45120  1  0  0  0
 46121  1  0  0  0
 47122  1  0  0  0
 47123  1  0  0  0
 48 56  1  0  0  0
 48 65  1  0  0  0
 48124  1  0  0  0
 49 50  1  0  0  0
 49 53  1  0  0  0
 49 64  1  0  0  0
 49125  1  0  0  0
 50 51  1  0  0  0
 50126  1  0  0  0
 50127  1  0  0  0
 51 52  1  0  0  0
 51128  1  0  0  0
 51129  1  0  0  0
 52130  1  0  0  0
 52131  1  0  0  0
 53 54  1  0  0  0
 54 55  2  0  0  0
 54132  1  0  0  0
 55 57  1  0  0  0
 55133  1  0  0  0
 56 69  2  0  0  0
 57 58  2  0  0  0
 57134  1  0  0  0
 58135  1  0  0  0
 59 60  1  0  0  0
 59 61  1  0  0  0
 59 62  1  0  0  0
 60136  1  0  0  0
 60137  1  0  0  0
 60138  1  0  0  0
 61139  1  0  0  0
 61140  1  0  0  0
 61141  1  0  0  0
 62142  1  0  0  0
 62143  1  0  0  0
 62144  1  0  0  0
 63 65  1  0  0  0
 63145  1  0  0  0
 63146  1  0  0  0
 63147  1  0  0  0
 64148  1  0  0  0
 65149  1  0  0  0
 68 86  1  0  0  0
 71 72  2  0  0  0
 71 74  1  0  0  0
 71150  1  0  0  0
 72 75  1  0  0  0
 72151  1  0  0  0
 73 74  2  0  0  0
 73 76  1  0  0  0
 73152  1  0  0  0
 74 83  1  0  0  0
 75 76  2  0  0  0
 75 82  1  0  0  0
 76 90  1  0  0  0
 77 80  1  0  0  0
 77 87  1  0  0  0
 77 89  2  0  0  0
 78 79  1  0  0  0
 78 80  1  0  0  0
 78153  1  0  0  0
 78154  1  0  0  0
 79 87  1  0  0  0
 79155  1  0  0  0
 79156  1  0  0  0
 80157  1  0  0  0
 81158  1  0  0  0
 81159  1  0  0  0
 81160  1  0  0  0
 81 88  1  0  0  0
 82 87  1  0  0  0
 82161  1  0  0  0
 82162  1  0  0  0
 83 88  1  0  0  0
 83163  1  0  0  0
 83164  1  0  0  0
 84 85  1  0  0  0
 84 86  1  0  0  0
 84165  1  0  0  0
 84166  1  0  0  0
 85 88  1  0  0  0
 85167  1  0  0  0
 85168  1  0  0  0
 86169  1  0  0  0
 86170  1  0  0  0
 88171  1  0  0  0
M  CHG  1  88   1
M  ISO  4   1 100  68 101  80 100  86 101
M  END
> <chiral flag>
0

> <version>
0

> <s_m_source_file>
/data/baiqing/PycharmProjects/Reinvent-master-3.2/result/LINK_invent/BTK/process_docking_weight1_custom_product_contain_oxygen_bond_distance_aromatic_linkinvent_7_9_3/rearranged_h_0014.sdf

> <i_m_source_file_index>
53

> <r_mmod_Potential_Energy-OPLS-2005>
-161.355041503906

> <r_mmod_Stretch_Energy-OPLS-2005>
36.5920600891113

> <r_mmod_Bend_Energy-OPLS-2005>
130.883316040039

> <r_mmod_Torsional_Energy-OPLS-2005>
202.94889831543

> <r_mmod_Improper_Torsional_Energy-OPLS-2005>
2.0130763053894

> <r_mmod_Van_der_Waal_Energy-OPLS-2005>
144.609405517578

> <r_mmod_Electrostatic_Energy-OPLS-2005>
-241.911392211914

> <r_mmod_Solvation_Energy-OPLS-2005>
-445.970703125

> <b_mmod_Minimization_Converged-OPLS-2005>
0

> <r_mmod_RMS_Derivative-OPLS-2005>
2.32669186592102

$$$$
53
                    3D
 Structure written by MMmdl.
155163  0  0  1  0            999 V2000
  -30.5115  -14.9037   20.4400 C   0  0  0  0  0  0
  -30.4544  -12.5564   19.4902 C   0  0  0  0  0  0
  -29.5271  -12.5326   18.2510 C   0  0  0  0  0  0
  -28.0558  -12.3245   18.6627 C   0  0  0  0  0  0
  -27.6389  -13.2356   19.8463 C   0  0  2  0  0  0
  -28.6825  -13.2074   20.9842 C   0  0  0  0  0  0
  -25.2502  -13.8187   20.5688 C   0  0  0  0  0  0
  -24.1805  -13.0433   20.9225 C   0  0  0  0  0  0
  -24.6400  -11.6912   20.8748 C   0  0  0  0  0  0
  -23.9073  -10.4291   21.0407 C   0  0  0  0  0  0
  -24.3621   -9.4206   21.9185 C   0  0  0  0  0  0
  -23.6293   -8.2243   22.0754 C   0  0  0  0  0  0
  -22.4276   -8.0282   21.3544 C   0  0  0  0  0  0
  -21.9913   -9.0256   20.4648 C   0  0  0  0  0  0
  -22.7243  -10.2134   20.3058 C   0  0  0  0  0  0
  -21.6853   -6.0734   22.5279 C   0  0  0  0  0  0
  -21.4014   -6.5638   23.8212 C   0  0  0  0  0  0
  -21.3660   -5.6791   24.9174 C   0  0  0  0  0  0
  -21.6045   -4.3053   24.7224 C   0  0  0  0  0  0
  -21.8819   -3.8145   23.4345 C   0  0  0  0  0  0
  -21.9192   -4.6961   22.3401 C   0  0  0  0  0  0
  -22.7826  -13.5217   21.1880 C   0  0  0  0  0  0
  -22.1662   -4.2147   21.0977 F   0  0  0  0  0  0
  -21.5629   -3.4538   25.7736 F   0  0  0  0  0  0
  -29.9682  -13.6240   20.4041 N   0  0  0  0  0  0
  -26.2924  -12.9396   20.3241 N   0  0  0  0  0  0
  -25.9329  -11.6539   20.5724 N   0  0  0  0  0  0
  -22.0464  -12.8210   22.0432 N   0  0  0  0  0  0
  -25.4167  -15.1910   20.4067 N   0  0  0  0  0  0
  -31.7000  -15.0477   20.1304 O   0  0  0  0  0  0
  -21.6639   -6.8880   21.4243 O   0  0  0  0  0  0
  -22.3513  -14.5518   20.6715 O   0  0  0  0  0  0
  -24.6412  -31.8462   23.1905 C   0  0  0  0  0  0
  -25.9194  -32.4709   23.8285 C   0  0  1  0  0  0
  -27.2200  -27.1584   20.1514 C   0  0  0  0  0  0
  -25.5951  -33.8514   24.2203 N   0  0  0  0  0  0
  -23.4440  -30.4659   21.5359 C   0  0  2  0  0  0
  -24.8937  -28.8946   20.1145 C   0  0  0  0  0  0
  -22.7559  -29.4555   22.4876 C   0  0  0  0  0  0
  -18.0303  -28.1397   22.8474 C   0  0  0  0  0  0
  -24.1491  -36.7262   23.2641 C   0  0  0  0  0  0
  -25.9982  -30.7262   21.3871 C   0  0  0  0  0  0
  -26.0703  -29.3382   20.7316 C   0  0  0  0  0  0
  -27.2358  -28.4867   20.7327 C   0  0  0  0  0  0
  -26.0207  -26.8151   19.4895 C   0  0  0  0  0  0
  -24.8802  -27.6448   19.4784 C   0  0  0  0  0  0
  -23.6699  -29.7950   20.1555 C   0  0  0  0  0  0
  -25.4122  -36.3040   24.0318 C   0  0  1  0  0  0
  -20.5914  -28.3717   23.1242 C   0  0  2  0  0  0
  -20.6788  -26.9424   22.5407 C   0  0  0  0  0  0
  -19.5766  -26.6384   21.5211 C   0  0  0  0  0  0
  -18.1944  -26.7939   22.1615 C   0  0  0  0  0  0
  -19.1559  -28.8876   23.2851 C   0  0  0  0  0  0
  -18.9476  -30.1472   23.8879 C   0  0  0  0  0  0
  -17.6472  -30.6590   24.0566 C   0  0  0  0  0  0
  -25.9070  -34.9415   23.5068 C   0  0  0  0  0  0
  -16.5363  -29.9085   23.6338 C   0  0  0  0  0  0
  -16.7287  -28.6506   23.0354 C   0  0  0  0  0  0
  -26.4523  -31.6569   25.0718 C   0  0  0  0  0  0
  -25.3712  -31.3750   26.1417 C   0  0  0  0  0  0
  -27.0388  -30.2968   24.6285 C   0  0  0  0  0  0
  -27.6057  -32.4331   25.7502 C   0  0  0  0  0  0
  -27.5576  -37.1789   24.8465 C   0  0  0  0  0  0
  -21.4255  -29.3045   22.3623 N   0  0  0  0  0  0
  -26.4288  -37.3751   23.9406 N   0  0  0  0  0  0
  -24.7141  -31.0336   22.0930 N   0  0  0  0  0  0
  -23.4212  -28.8104   23.3020 O   0  0  0  0  0  0
  -28.2858  -26.1932   20.1808 O   0  0  0  0  0  0
  -26.5654  -34.8908   22.4644 O   0  0  0  0  0  0
  -23.5536  -32.1330   23.7136 O   0  0  0  0  0  0
  -30.5498  -18.5112   20.3962 C   0  0  0  0  0  0
  -30.2839  -19.9529   20.4115 C   0  0  0  0  0  0
  -28.2497  -18.1130   20.7044 C   0  0  0  0  0  0
  -27.9753  -19.5333   20.7111 C   0  0  0  0  0  0
  -29.5362  -17.5034   20.5677 C   0  0  0  0  0  0
  -28.9841  -20.5532   20.5926 C   0  0  0  0  0  0
  -26.5196  -19.9417   20.8868 C   0  0  0  0  0  0
  -28.3875  -22.1380   22.2940 C   0  0  0  0  0  0
  -28.9775  -23.3489   20.1876 C   0  0  0  0  0  0
  -28.0060  -24.6961   20.4734 C   0  0  0  0  0  0
  -29.6211  -15.9789   20.6550 N   0  0  0  0  0  0
  -28.6621  -21.9843   20.8649 N   0  0  0  0  0  0
  -31.4867  -12.7300   19.1819 H   0  0  0  0  0  0
  -30.4514  -11.5895   19.9956 H   0  0  0  0  0  0
  -29.8385  -11.7477   17.5605 H   0  0  0  0  0  0
  -29.6233  -13.4733   17.7066 H   0  0  0  0  0  0
  -27.9382  -11.2778   18.9452 H   0  0  0  0  0  0
  -27.3964  -12.4849   17.8088 H   0  0  0  0  0  0
  -27.6176  -14.2485   19.4439 H   0  0  0  0  0  0
  -28.7568  -12.2102   21.4207 H   0  0  0  0  0  0
  -28.3862  -13.8721   21.7971 H   0  0  0  0  0  0
  -25.2766   -9.5680   22.4759 H   0  0  0  0  0  0
  -24.0000   -7.4632   22.7473 H   0  0  0  0  0  0
  -21.0843   -8.8774   19.8954 H   0  0  0  0  0  0
  -22.3701  -10.9672   19.6167 H   0  0  0  0  0  0
  -21.2008   -7.6146   23.9713 H   0  0  0  0  0  0
  -21.1484   -6.0522   25.9076 H   0  0  0  0  0  0
  -22.0597   -2.7608   23.2844 H   0  0  0  0  0  0
  -22.4079  -11.9878   22.4832 H   0  0  0  0  0  0
  -21.1079  -13.1234   22.2628 H   0  0  0  0  0  0
  -24.6341  -15.8300   20.4945 H   0  0  0  0  0  0
  -26.2274  -15.6165   19.9788 H   0  0  0  0  0  0
  -26.7260  -32.5325   23.1016 H   0  0  0  0  0  0
  -25.0084  -33.9631   25.0342 H   0  0  0  0  0  0
  -22.7450  -31.2908   21.3827 H   0  0  0  0  0  0
  -23.3758  -35.9589   23.3293 H   0  0  0  0  0  0
  -24.3575  -36.8902   22.2056 H   0  0  0  0  0  0
  -23.7242  -37.6455   23.6681 H   0  0  0  0  0  0
  -26.1499  -31.4800   20.6135 H   0  0  0  0  0  0
  -26.8703  -30.7778   22.0275 H   0  0  0  0  0  0
  -28.1342  -28.8234   21.2307 H   0  0  0  0  0  0
  -25.9405  -25.8720   18.9704 H   0  0  0  0  0  0
  -23.9853  -27.3040   18.9760 H   0  0  0  0  0  0
  -23.8069  -30.5692   19.3997 H   0  0  0  0  0  0
  -22.7852  -29.2363   19.8445 H   0  0  0  0  0  0
  -25.1310  -36.1872   25.0811 H   0  0  0  0  0  0
  -21.0002  -28.3306   24.1367 H   0  0  0  0  0  0
  -20.5683  -26.2329   23.3623 H   0  0  0  0  0  0
  -21.6655  -26.7442   22.1205 H   0  0  0  0  0  0
  -19.6930  -25.6292   21.1246 H   0  0  0  0  0  0
  -19.6708  -27.3186   20.6736 H   0  0  0  0  0  0
  -17.4220  -26.6692   21.4013 H   0  0  0  0  0  0
  -18.0341  -26.0083   22.9014 H   0  0  0  0  0  0
  -19.7951  -30.7293   24.2237 H   0  0  0  0  0  0
  -17.5028  -31.6270   24.5174 H   0  0  0  0  0  0
  -15.5363  -30.2982   23.7674 H   0  0  0  0  0  0
  -15.8689  -28.0821   22.7073 H   0  0  0  0  0  0
  -24.5898  -30.7091   25.7737 H   0  0  0  0  0  0
  -24.8894  -32.2929   26.4792 H   0  0  0  0  0  0
  -25.8000  -30.8957   27.0226 H   0  0  0  0  0  0
  -26.3001  -29.6694   24.1285 H   0  0  0  0  0  0
  -27.4001  -29.7264   25.4851 H   0  0  0  0  0  0
  -27.8908  -30.4212   23.9598 H   0  0  0  0  0  0
  -27.2652  -33.3646   26.2034 H   0  0  0  0  0  0
  -28.3891  -32.6868   25.0349 H   0  0  0  0  0  0
  -28.0699  -31.8487   26.5456 H   0  0  0  0  0  0
  -28.2591  -38.0089   24.7511 H   0  0  0  0  0  0
  -28.1076  -36.2619   24.6296 H   0  0  0  0  0  0
  -27.2292  -37.1440   25.8868 H   0  0  0  0  0  0
  -20.9464  -29.8763   21.6806 H   0  0  0  0  0  0
  -26.0157  -38.2820   24.1409 H   0  0  0  0  0  0
  -31.5749  -18.1883   20.2824 H   0  0  0  0  0  0
  -31.1343  -20.6148   20.3350 H   0  0  0  0  0  0
  -27.4050  -17.4525   20.8354 H   0  0  0  0  0  0
  -25.8428  -19.1585   20.5445 H   0  0  0  0  0  0
  -26.2891  -20.8411   20.3149 H   0  0  0  0  0  0
  -26.3041  -20.1373   21.9369 H   0  0  0  0  0  0
  -28.5695  -21.2270   22.8676 H   0  0  0  0  0  0
  -27.3461  -22.4225   22.4506 H   0  0  0  0  0  0
  -29.0147  -22.9169   22.7301 H   0  0  0  0  0  0
  -29.9947  -23.6110   20.4809 H   0  0  0  0  0  0
  -29.0261  -23.1836   19.1107 H   0  0  0  0  0  0
  -27.8156  -24.7059   21.5461 H   0  0  0  0  0  0
  -27.0423  -24.4310   20.0456 H   0  0  0  0  0  0
  -28.7232  -15.5810   20.8819 H   0  0  0  0  0  0
  1 25  1  0  0  0
  1 30  2  0  0  0
  1 81  1  0  0  0
  2  3  1  0  0  0
  2 25  1  0  0  0
  2 83  1  0  0  0
  2 84  1  0  0  0
  3  4  1  0  0  0
  3 85  1  0  0  0
  3 86  1  0  0  0
  4  5  1  0  0  0
  4 87  1  0  0  0
  4 88  1  0  0  0
  5  6  1  0  0  0
  5 26  1  0  0  0
  5 89  1  0  0  0
  6 25  1  0  0  0
  6 90  1  0  0  0
  6 91  1  0  0  0
  7  8  2  0  0  0
  7 26  1  0  0  0
  7 29  1  0  0  0
  8  9  1  0  0  0
  8 22  1  0  0  0
  9 10  1  0  0  0
  9 27  2  0  0  0
 10 11  2  0  0  0
 10 15  1  0  0  0
 11 12  1  0  0  0
 11 92  1  0  0  0
 12 13  2  0  0  0
 12 93  1  0  0  0
 13 14  1  0  0  0
 13 31  1  0  0  0
 14 15  2  0  0  0
 14 94  1  0  0  0
 15 95  1  0  0  0
 16 17  2  0  0  0
 16 21  1  0  0  0
 16 31  1  0  0  0
 17 18  1  0  0  0
 17 96  1  0  0  0
 18 19  2  0  0  0
 18 97  1  0  0  0
 19 20  1  0  0  0
 19 24  1  0  0  0
 20 21  2  0  0  0
 20 98  1  0  0  0
 21 23  1  0  0  0
 22 28  1  0  0  0
 22 32  2  0  0  0
 26 27  1  0  0  0
 28 99  1  0  0  0
 28100  1  0  0  0
 29101  1  0  0  0
 29102  1  0  0  0
 33 34  1  0  0  0
 33 66  1  0  0  0
 33 70  2  0  0  0
 34 36  1  0  0  0
 34 59  1  0  0  0
 34103  1  0  0  0
 35 44  2  0  0  0
 35 45  1  0  0  0
 35 68  1  0  0  0
 36 56  1  0  0  0
 36104  1  0  0  0
 37 39  1  0  0  0
 37 47  1  0  0  0
 37 66  1  0  0  0
 37105  1  0  0  0
 38 43  2  0  0  0
 38 46  1  0  0  0
 38 47  1  0  0  0
 39 64  1  0  0  0
 39 67  2  0  0  0
 40 52  1  0  0  0
 40 53  2  0  0  0
 40 58  1  0  0  0
 41106  1  0  0  0
 41107  1  0  0  0
 41108  1  0  0  0
 41 48  1  0  0  0
 42 43  1  0  0  0
 42 66  1  0  0  0
 42109  1  0  0  0
 42110  1  0  0  0
 43 44  1  0  0  0
 44111  1  0  0  0
 45 46  2  0  0  0
 45112  1  0  0  0
 46113  1  0  0  0
 47114  1  0  0  0
 47115  1  0  0  0
 48 56  1  0  0  0
 48 65  1  0  0  0
 48116  1  0  0  0
 49 50  1  0  0  0
 49 53  1  0  0  0
 49 64  1  0  0  0
 49117  1  0  0  0
 50 51  1  0  0  0
 50118  1  0  0  0
 50119  1  0  0  0
 51 52  1  0  0  0
 51120  1  0  0  0
 51121  1  0  0  0
 52122  1  0  0  0
 52123  1  0  0  0
 53 54  1  0  0  0
 54 55  2  0  0  0
 54124  1  0  0  0
 55 57  1  0  0  0
 55125  1  0  0  0
 56 69  2  0  0  0
 57 58  2  0  0  0
 57126  1  0  0  0
 58127  1  0  0  0
 59 60  1  0  0  0
 59 61  1  0  0  0
 59 62  1  0  0  0
 60128  1  0  0  0
 60129  1  0  0  0
 60130  1  0  0  0
 61131  1  0  0  0
 61132  1  0  0  0
 61133  1  0  0  0
 62134  1  0  0  0
 62135  1  0  0  0
 62136  1  0  0  0
 63 65  1  0  0  0
 63137  1  0  0  0
 63138  1  0  0  0
 63139  1  0  0  0
 64140  1  0  0  0
 65141  1  0  0  0
 68 80  1  0  0  0
 71 72  2  0  0  0
 71 75  1  0  0  0
 71142  1  0  0  0
 72 76  1  0  0  0
 72143  1  0  0  0
 73 74  1  0  0  0
 73 75  2  0  0  0
 73144  1  0  0  0
 74 76  2  0  0  0
 74 77  1  0  0  0
 75 81  1  0  0  0
 76 82  1  0  0  0
 77145  1  0  0  0
 77146  1  0  0  0
 77147  1  0  0  0
 78 82  1  0  0  0
 78148  1  0  0  0
 78149  1  0  0  0
 78150  1  0  0  0
 79 80  1  0  0  0
 79 82  1  0  0  0
 79151  1  0  0  0
 79152  1  0  0  0
 80153  1  0  0  0
 80154  1  0  0  0
 81155  1  0  0  0
M  ISO  4   1 100  68 101  80 101  81 100
M  END
> <chiral flag>
0

> <version>
0

> <s_m_source_file>
/data/baiqing/PycharmProjects/Reinvent-master-3.2/result/LINK_invent/BTK/process_docking_weight1_custom_product_contain_oxygen_bond_distance_aromatic_linkinvent_7_9_3/rearranged_h_0014.sdf

> <i_m_source_file_index>
54

> <r_mmod_Potential_Energy-OPLS-2005>
439.221496582031

> <r_mmod_Stretch_Energy-OPLS-2005>
210.651062011719

> <r_mmod_Bend_Energy-OPLS-2005>
276.668182373047

> <r_mmod_Torsional_Energy-OPLS-2005>
245.005493164062

> <r_mmod_Improper_Torsional_Energy-OPLS-2005>
7.2226448059082

> <r_mmod_Van_der_Waal_Energy-OPLS-2005>
136.267471313477

> <r_mmod_Electrostatic_Energy-OPLS-2005>
-385.012603759766

> <r_mmod_Solvation_Energy-OPLS-2005>
-218.010757446289

> <b_mmod_Minimization_Converged-OPLS-2005>
0

> <r_mmod_RMS_Derivative-OPLS-2005>
0.500055015087128

$$$$
54
                    3D
 Structure written by MMmdl.
166175  0  0  1  0            999 V2000
  -30.6599  -14.6861   20.4309 C   0  0  0  0  0  0
  -30.4357  -12.4167   19.4484 C   0  0  0  0  0  0
  -29.5013  -12.4550   18.2190 C   0  0  0  0  0  0
  -28.0254  -12.3269   18.6424 C   0  0  0  0  0  0
  -27.6430  -13.2303   19.8447 C   0  0  2  0  0  0
  -28.7011  -13.1647   20.9658 C   0  0  0  0  0  0
  -25.2500  -13.8140   20.5700 C   0  0  0  0  0  0
  -24.1802  -13.0378   20.9212 C   0  0  0  0  0  0
  -24.6422  -11.6885   20.8750 C   0  0  0  0  0  0
  -23.9079  -10.4276   21.0428 C   0  0  0  0  0  0
  -24.3608   -9.4171   21.9200 C   0  0  0  0  0  0
  -23.6277   -8.2199   22.0744 C   0  0  0  0  0  0
  -22.4260   -8.0252   21.3530 C   0  0  0  0  0  0
  -21.9926   -9.0228   20.4621 C   0  0  0  0  0  0
  -22.7250  -10.2122   20.3071 C   0  0  0  0  0  0
  -21.6843   -6.0751   22.5298 C   0  0  0  0  0  0
  -21.4008   -6.5653   23.8235 C   0  0  0  0  0  0
  -21.3649   -5.6792   24.9178 C   0  0  0  0  0  0
  -21.6029   -4.3062   24.7226 C   0  0  0  0  0  0
  -21.8818   -3.8164   23.4348 C   0  0  0  0  0  0
  -21.9202   -4.6983   22.3411 C   0  0  0  0  0  0
  -22.7839  -13.5168   21.1861 C   0  0  0  0  0  0
  -22.1684   -4.2177   21.0992 F   0  0  0  0  0  0
  -21.5591   -3.4547   25.7743 F   0  0  0  0  0  0
  -29.9958  -13.4881   20.3610 N   0  0  0  0  0  0
  -26.2970  -12.9374   20.3322 N   0  0  0  0  0  0
  -25.9356  -11.6502   20.5757 N   0  0  0  0  0  0
  -22.0519  -12.8125   22.0428 N   0  0  0  0  0  0
  -25.4132  -15.1851   20.4137 N   0  0  0  0  0  0
  -31.8921  -14.6990   20.3722 O   0  0  0  0  0  0
  -21.6588   -6.8881   21.4262 O   0  0  0  0  0  0
  -22.3524  -14.5474   20.6706 O   0  0  0  0  0  0
  -24.6252  -31.8573   23.1958 C   0  0  0  0  0  0
  -25.9072  -32.4752   23.8329 C   0  0  1  0  0  0
  -27.2234  -27.2920   20.1485 C   0  0  0  0  0  0
  -25.5894  -33.8561   24.2242 N   0  0  0  0  0  0
  -23.4211  -30.4768   21.5381 C   0  0  2  0  0  0
  -24.8691  -28.9174   20.1171 C   0  0  0  0  0  0
  -22.7451  -29.4615   22.4892 C   0  0  0  0  0  0
  -18.0285  -28.1369   22.8482 C   0  0  0  0  0  0
  -24.1489  -36.7304   23.2646 C   0  0  0  0  0  0
  -25.9616  -30.7805   21.3690 C   0  0  0  0  0  0
  -26.0362  -29.4025   20.7219 C   0  0  0  0  0  0
  -27.2183  -28.6040   20.7166 C   0  0  0  0  0  0
  -26.0362  -26.8506   19.5314 C   0  0  0  0  0  0
  -24.8743  -27.6492   19.5106 C   0  0  0  0  0  0
  -23.6371  -29.8012   20.1578 C   0  0  0  0  0  0
  -25.4117  -36.3076   24.0327 C   0  0  1  0  0  0
  -20.5883  -28.3700   23.1257 C   0  0  2  0  0  0
  -20.6769  -26.9421   22.5397 C   0  0  0  0  0  0
  -19.5744  -26.6373   21.5192 C   0  0  0  0  0  0
  -18.1926  -26.7914   22.1609 C   0  0  0  0  0  0
  -19.1528  -28.8840   23.2879 C   0  0  0  0  0  0
  -18.9460  -30.1441   23.8906 C   0  0  0  0  0  0
  -17.6456  -30.6577   24.0556 C   0  0  0  0  0  0
  -25.9050  -34.9435   23.5082 C   0  0  0  0  0  0
  -16.5352  -29.9077   23.6333 C   0  0  0  0  0  0
  -16.7270  -28.6491   23.0364 C   0  0  0  0  0  0
  -26.4470  -31.6577   25.0712 C   0  0  0  0  0  0
  -25.3727  -31.3716   26.1456 C   0  0  0  0  0  0
  -27.0334  -30.3001   24.6198 C   0  0  0  0  0  0
  -27.6015  -32.4340   25.7476 C   0  0  0  0  0  0
  -27.5578  -37.1790   24.8455 C   0  0  0  0  0  0
  -21.4155  -29.3057   22.3640 N   0  0  0  0  0  0
  -26.4279  -37.3788   23.9422 N   0  0  0  0  0  0
  -24.6880  -31.0571   22.0912 N   0  0  0  0  0  0
  -23.4150  -28.8178   23.2991 O   0  0  0  0  0  0
  -28.3589  -26.4729   20.1134 O   0  0  0  0  0  0
  -26.5639  -34.8881   22.4664 O   0  0  0  0  0  0
  -23.5409  -32.1394   23.7265 O   0  0  0  0  0  0
  -27.8897  -18.8467   20.4885 C   0  0  0  0  0  0
  -28.2688  -17.4859   20.3078 C   0  0  0  0  0  0
  -30.1404  -19.3906   21.1076 C   0  0  0  0  0  0
  -28.8209  -19.8580   20.8440 C   0  0  0  0  0  0
  -29.6013  -17.0332   20.4629 C   0  0  0  0  0  0
  -30.5289  -18.0209   20.9076 C   0  0  0  0  0  0
  -29.0005  -22.7030   17.8198 C   0  0  0  0  0  0
  -28.5192  -24.0379   18.3694 C   0  0  0  0  0  0
  -29.7305  -22.0834   19.0051 C   0  0  0  0  0  0
  -28.1839  -23.7680   19.8502 C   0  0  2  0  0  0
  -29.2937  -16.3406   17.4787 C   0  0  0  0  0  0
  -28.3425  -21.3692   20.9945 C   0  0  0  0  0  0
  -28.3599  -25.1092   20.7184 C   0  0  0  0  0  0
  -30.4335  -15.9809   18.4471 C   0  0  0  0  0  0
  -29.9971  -15.7553   19.8498 N   0  0  0  0  0  0
  -29.0123  -22.5160   20.2336 N   0  3  1  0  0  0
  -31.8270  -17.6817   21.0911 F   0  0  0  0  0  0
  -31.4728  -12.5496   19.1349 H   0  0  0  0  0  0
  -30.3916  -11.4465   19.9467 H   0  0  0  0  0  0
  -29.7603  -11.6564   17.5241 H   0  0  0  0  0  0
  -29.6361  -13.3795   17.6634 H   0  0  0  0  0  0
  -27.8576  -11.2831   18.9065 H   0  0  0  0  0  0
  -27.3723  -12.5379   17.7960 H   0  0  0  0  0  0
  -27.6313  -14.2494   19.4573 H   0  0  0  0  0  0
  -28.7324  -12.1680   21.4080 H   0  0  0  0  0  0
  -28.4622  -13.8635   21.7679 H   0  0  0  0  0  0
  -25.2771   -9.5618   22.4765 H   0  0  0  0  0  0
  -24.0010   -7.4566   22.7419 H   0  0  0  0  0  0
  -21.0889   -8.8721   19.8900 H   0  0  0  0  0  0
  -22.3719  -10.9640   19.6151 H   0  0  0  0  0  0
  -21.2021   -7.6169   23.9749 H   0  0  0  0  0  0
  -21.1455   -6.0516   25.9070 H   0  0  0  0  0  0
  -22.0627   -2.7642   23.2825 H   0  0  0  0  0  0
  -22.4179  -11.9765   22.4776 H   0  0  0  0  0  0
  -21.1117  -13.1092   22.2647 H   0  0  0  0  0  0
  -24.6494  -15.8434   20.5206 H   0  0  0  0  0  0
  -26.2647  -15.6173   20.0884 H   0  0  0  0  0  0
  -26.7135  -32.5433   23.1071 H   0  0  0  0  0  0
  -25.0049  -33.9750   25.0380 H   0  0  0  0  0  0
  -22.7195  -31.2998   21.3869 H   0  0  0  0  0  0
  -23.3737  -35.9653   23.3320 H   0  0  0  0  0  0
  -24.3584  -36.8938   22.2064 H   0  0  0  0  0  0
  -23.7222  -37.6493   23.6681 H   0  0  0  0  0  0
  -26.0951  -31.5353   20.5950 H   0  0  0  0  0  0
  -26.8408  -30.8353   21.9994 H   0  0  0  0  0  0
  -28.1230  -28.9824   21.1720 H   0  0  0  0  0  0
  -26.0071  -25.8779   19.0619 H   0  0  0  0  0  0
  -23.9815  -27.2782   19.0283 H   0  0  0  0  0  0
  -23.7515  -30.5691   19.3928 H   0  0  0  0  0  0
  -22.7589  -29.2249   19.8621 H   0  0  0  0  0  0
  -25.1285  -36.1945   25.0823 H   0  0  0  0  0  0
  -21.0004  -28.3282   24.1365 H   0  0  0  0  0  0
  -20.5644  -26.2326   23.3620 H   0  0  0  0  0  0
  -21.6651  -26.7436   22.1212 H   0  0  0  0  0  0
  -19.6940  -25.6283   21.1244 H   0  0  0  0  0  0
  -19.6663  -27.3169   20.6717 H   0  0  0  0  0  0
  -17.4205  -26.6651   21.4018 H   0  0  0  0  0  0
  -18.0352  -26.0022   22.8984 H   0  0  0  0  0  0
  -19.7935  -30.7262   24.2248 H   0  0  0  0  0  0
  -17.5016  -31.6255   24.5175 H   0  0  0  0  0  0
  -15.5355  -30.2983   23.7645 H   0  0  0  0  0  0
  -15.8678  -28.0815   22.7071 H   0  0  0  0  0  0
  -24.5862  -30.7121   25.7780 H   0  0  0  0  0  0
  -24.8975  -32.2895   26.4927 H   0  0  0  0  0  0
  -25.8068  -30.8842   27.0196 H   0  0  0  0  0  0
  -26.2935  -29.6709   24.1252 H   0  0  0  0  0  0
  -27.4058  -29.7294   25.4713 H   0  0  0  0  0  0
  -27.8788  -30.4288   23.9438 H   0  0  0  0  0  0
  -27.2598  -33.3612   26.2096 H   0  0  0  0  0  0
  -28.3787  -32.6968   25.0285 H   0  0  0  0  0  0
  -28.0743  -31.8470   26.5356 H   0  0  0  0  0  0
  -28.2571  -38.0098   24.7515 H   0  0  0  0  0  0
  -28.1077  -36.2629   24.6262 H   0  0  0  0  0  0
  -27.2318  -37.1445   25.8855 H   0  0  0  0  0  0
  -20.9321  -29.8804   21.6894 H   0  0  0  0  0  0
  -26.0156  -38.2872   24.1408 H   0  0  0  0  0  0
  -26.8560  -19.1134   20.3169 H   0  0  0  0  0  0
  -27.5266  -16.8000   19.9385 H   0  0  0  0  0  0
  -30.8948  -20.0957   21.4278 H   0  0  0  0  0  0
  -29.6434  -22.8067   16.9456 H   0  0  0  0  0  0
  -28.1528  -22.0783   17.5372 H   0  0  0  0  0  0
  -27.6710  -24.4302   17.8059 H   0  0  0  0  0  0
  -29.3259  -24.7653   18.2866 H   0  0  0  0  0  0
  -30.7428  -22.4914   19.0554 H   0  0  0  0  0  0
  -29.8388  -21.0092   18.8663 H   0  0  0  0  0  0
  -27.1288  -23.4900   19.8845 H   0  0  0  0  0  0
  -28.8249  -17.2949   17.7199 H   0  0  0  0  0  0
  -28.5205  -15.5725   17.4693 H   0  0  0  0  0  0
  -29.6805  -16.4386   16.4644 H   0  0  0  0  0  0
  -28.3659  -21.6144   22.0576 H   0  0  0  0  0  0
  -27.2840  -21.3818   20.7333 H   0  0  0  0  0  0
  -29.3404  -25.0440   21.1871 H   0  0  0  0  0  0
  -27.6605  -25.0820   21.5543 H   0  0  0  0  0  0
  -31.1782  -16.7779   18.4398 H   0  0  0  0  0  0
  -30.9597  -15.1227   18.0219 H   0  0  0  0  0  0
  -29.7539  -22.8211   20.8466 H   0  0  0  0  0  0
  1 25  1  0  0  0
  1 30  2  0  0  0
  1 85  1  0  0  0
  2  3  1  0  0  0
  2 25  1  0  0  0
  2 88  1  0  0  0
  2 89  1  0  0  0
  3  4  1  0  0  0
  3 90  1  0  0  0
  3 91  1  0  0  0
  4  5  1  0  0  0
  4 92  1  0  0  0
  4 93  1  0  0  0
  5  6  1  0  0  0
  5 26  1  0  0  0
  5 94  1  0  0  0
  6 25  1  0  0  0
  6 95  1  0  0  0
  6 96  1  0  0  0
  7  8  2  0  0  0
  7 26  1  0  0  0
  7 29  1  0  0  0
  8  9  1  0  0  0
  8 22  1  0  0  0
  9 10  1  0  0  0
  9 27  2  0  0  0
 10 11  2  0  0  0
 10 15  1  0  0  0
 11 12  1  0  0  0
 11 97  1  0  0  0
 12 13  2  0  0  0
 12 98  1  0  0  0
 13 14  1  0  0  0
 13 31  1  0  0  0
 14 15  2  0  0  0
 14 99  1  0  0  0
 15100  1  0  0  0
 16 17  2  0  0  0
 16 21  1  0  0  0
 16 31  1  0  0  0
 17 18  1  0  0  0
 17101  1  0  0  0
 18 19  2  0  0  0
 18102  1  0  0  0
 19 20  1  0  0  0
 19 24  1  0  0  0
 20 21  2  0  0  0
 20103  1  0  0  0
 21 23  1  0  0  0
 22 28  1  0  0  0
 22 32  2  0  0  0
 26 27  1  0  0  0
 28104  1  0  0  0
 28105  1  0  0  0
 29106  1  0  0  0
 29107  1  0  0  0
 33 34  1  0  0  0
 33 66  1  0  0  0
 33 70  2  0  0  0
 34 36  1  0  0  0
 34 59  1  0  0  0
 34108  1  0  0  0
 35 44  2  0  0  0
 35 45  1  0  0  0
 35 68  1  0  0  0
 36 56  1  0  0  0
 36109  1  0  0  0
 37 39  1  0  0  0
 37 47  1  0  0  0
 37 66  1  0  0  0
 37110  1  0  0  0
 38 43  2  0  0  0
 38 46  1  0  0  0
 38 47  1  0  0  0
 39 64  1  0  0  0
 39 67  2  0  0  0
 40 52  1  0  0  0
 40 53  2  0  0  0
 40 58  1  0  0  0
 41111  1  0  0  0
 41112  1  0  0  0
 41113  1  0  0  0
 41 48  1  0  0  0
 42 43  1  0  0  0
 42 66  1  0  0  0
 42114  1  0  0  0
 42115  1  0  0  0
 43 44  1  0  0  0
 44116  1  0  0  0
 45 46  2  0  0  0
 45117  1  0  0  0
 46118  1  0  0  0
 47119  1  0  0  0
 47120  1  0  0  0
 48 56  1  0  0  0
 48 65  1  0  0  0
 48121  1  0  0  0
 49 50  1  0  0  0
 49 53  1  0  0  0
 49 64  1  0  0  0
 49122  1  0  0  0
 50 51  1  0  0  0
 50123  1  0  0  0
 50124  1  0  0  0
 51 52  1  0  0  0
 51125  1  0  0  0
 51126  1  0  0  0
 52127  1  0  0  0
 52128  1  0  0  0
 53 54  1  0  0  0
 54 55  2  0  0  0
 54129  1  0  0  0
 55 57  1  0  0  0
 55130  1  0  0  0
 56 69  2  0  0  0
 57 58  2  0  0  0
 57131  1  0  0  0
 58132  1  0  0  0
 59 60  1  0  0  0
 59 61  1  0  0  0
 59 62  1  0  0  0
 60133  1  0  0  0
 60134  1  0  0  0
 60135  1  0  0  0
 61136  1  0  0  0
 61137  1  0  0  0
 61138  1  0  0  0
 62139  1  0  0  0
 62140  1  0  0  0
 62141  1  0  0  0
 63 65  1  0  0  0
 63142  1  0  0  0
 63143  1  0  0  0
 63144  1  0  0  0
 64145  1  0  0  0
 65146  1  0  0  0
 68 83  1  0  0  0
 71 72  2  0  0  0
 71 74  1  0  0  0
 71147  1  0  0  0
 72 75  1  0  0  0
 72148  1  0  0  0
 73 74  2  0  0  0
 73 76  1  0  0  0
 73149  1  0  0  0
 74 82  1  0  0  0
 75 76  2  0  0  0
 75 85  1  0  0  0
 76 87  1  0  0  0
 77 78  1  0  0  0
 77 79  1  0  0  0
 77150  1  0  0  0
 77151  1  0  0  0
 78 80  1  0  0  0
 78152  1  0  0  0
 78153  1  0  0  0
 79 86  1  0  0  0
 79154  1  0  0  0
 79155  1  0  0  0
 80 83  1  0  0  0
 80 86  1  0  0  0
 80156  1  0  0  0
 81 84  1  0  0  0
 81157  1  0  0  0
 81158  1  0  0  0
 81159  1  0  0  0
 82160  1  0  0  0
 82161  1  0  0  0
 82 86  1  0  0  0
 83162  1  0  0  0
 83163  1  0  0  0
 84 85  1  0  0  0
 84164  1  0  0  0
 84165  1  0  0  0
 86166  1  0  0  0
M  CHG  1  86   1
M  ISO  4   1 100  68 101  83 101  85 100
M  END
> <chiral flag>
0

> <version>
0

> <s_m_source_file>
/data/baiqing/PycharmProjects/Reinvent-master-3.2/result/LINK_invent/BTK/process_docking_weight1_custom_product_contain_oxygen_bond_distance_aromatic_linkinvent_7_9_3/rearranged_h_0014.sdf

> <i_m_source_file_index>
55

> <r_mmod_Potential_Energy-OPLS-2005>
373.98193359375

> <r_mmod_Stretch_Energy-OPLS-2005>
98.8876647949219

> <r_mmod_Bend_Energy-OPLS-2005>
197.052719116211

> <r_mmod_Torsional_Energy-OPLS-2005>
418.711578369141

> <r_mmod_Improper_Torsional_Energy-OPLS-2005>
34.0098190307617

> <r_mmod_Van_der_Waal_Energy-OPLS-2005>
128.853729248047

> <r_mmod_Electrostatic_Energy-OPLS-2005>
-147.187622070312

> <r_mmod_Solvation_Energy-OPLS-2005>
-429.813171386719

> <b_mmod_Minimization_Converged-OPLS-2005>
0

> <r_mmod_RMS_Derivative-OPLS-2005>
4.4015965461731

$$$$
55
                    3D
 Structure written by MMmdl.
160169  0  0  1  0            999 V2000
  -30.6144  -14.6312   20.4661 C   0  0  0  0  0  0
  -30.4404  -12.3799   19.4388 C   0  0  0  0  0  0
  -29.5119  -12.5103   18.2120 C   0  0  0  0  0  0
  -28.0322  -12.3474   18.6206 C   0  0  0  0  0  0
  -27.6509  -13.2119   19.8524 C   0  0  2  0  0  0
  -28.6978  -13.0679   20.9787 C   0  0  0  0  0  0
  -25.2543  -13.8150   20.5593 C   0  0  0  0  0  0
  -24.1807  -13.0408   20.9156 C   0  0  0  0  0  0
  -24.6390  -11.6890   20.8739 C   0  0  0  0  0  0
  -23.9051  -10.4280   21.0413 C   0  0  0  0  0  0
  -24.3614   -9.4210   21.9182 C   0  0  0  0  0  0
  -23.6291   -8.2253   22.0755 C   0  0  0  0  0  0
  -22.4279   -8.0285   21.3548 C   0  0  0  0  0  0
  -21.9899   -9.0247   20.4652 C   0  0  0  0  0  0
  -22.7230  -10.2126   20.3061 C   0  0  0  0  0  0
  -21.6846   -6.0741   22.5286 C   0  0  0  0  0  0
  -21.4015   -6.5638   23.8225 C   0  0  0  0  0  0
  -21.3659   -5.6783   24.9175 C   0  0  0  0  0  0
  -21.6043   -4.3051   24.7218 C   0  0  0  0  0  0
  -21.8820   -3.8150   23.4343 C   0  0  0  0  0  0
  -21.9195   -4.6968   22.3407 C   0  0  0  0  0  0
  -22.7852  -13.5244   21.1798 C   0  0  0  0  0  0
  -22.1660   -4.2162   21.0982 F   0  0  0  0  0  0
  -21.5613   -3.4534   25.7727 F   0  0  0  0  0  0
  -30.0158  -13.4000   20.4133 N   0  0  0  0  0  0
  -26.2961  -12.9307   20.3237 N   0  0  0  0  0  0
  -25.9309  -11.6470   20.5725 N   0  0  0  0  0  0
  -22.0470  -12.8284   22.0384 N   0  0  0  0  0  0
  -25.4218  -15.1862   20.3924 N   0  0  0  0  0  0
  -31.7978  -14.7958   20.1608 O   0  0  0  0  0  0
  -21.6643   -6.8897   21.4253 O   0  0  0  0  0  0
  -22.3569  -14.5540   20.6634 O   0  0  0  0  0  0
  -24.6242  -31.8608   23.2062 C   0  0  0  0  0  0
  -25.9094  -32.4801   23.8368 C   0  0  1  0  0  0
  -27.2269  -27.3253   20.1224 C   0  0  0  0  0  0
  -25.5933  -33.8599   24.2298 N   0  0  0  0  0  0
  -23.4171  -30.4920   21.5411 C   0  0  2  0  0  0
  -24.8689  -28.9481   20.1092 C   0  0  0  0  0  0
  -22.7467  -29.4644   22.4846 C   0  0  0  0  0  0
  -18.0316  -28.1351   22.8504 C   0  0  0  0  0  0
  -24.1474  -36.7306   23.2642 C   0  0  0  0  0  0
  -25.9608  -30.7929   21.3772 C   0  0  0  0  0  0
  -26.0369  -29.4228   20.7194 C   0  0  0  0  0  0
  -27.2178  -28.6236   20.7180 C   0  0  0  0  0  0
  -26.0354  -26.9021   19.4848 C   0  0  0  0  0  0
  -24.8727  -27.6926   19.4840 C   0  0  0  0  0  0
  -23.6366  -29.8302   20.1553 C   0  0  0  0  0  0
  -25.4110  -36.3116   24.0341 C   0  0  1  0  0  0
  -20.5925  -28.3659   23.1251 C   0  0  2  0  0  0
  -20.6772  -26.9351   22.5399 C   0  0  0  0  0  0
  -19.5753  -26.6350   21.5183 C   0  0  0  0  0  0
  -18.1938  -26.7910   22.1596 C   0  0  0  0  0  0
  -19.1569  -28.8819   23.2888 C   0  0  0  0  0  0
  -18.9484  -30.1426   23.8890 C   0  0  0  0  0  0
  -17.6476  -30.6558   24.0541 C   0  0  0  0  0  0
  -25.9048  -34.9482   23.5122 C   0  0  0  0  0  0
  -16.5371  -29.9047   23.6323 C   0  0  0  0  0  0
  -16.7298  -28.6461   23.0367 C   0  0  0  0  0  0
  -26.4480  -31.6639   25.0757 C   0  0  0  0  0  0
  -25.3688  -31.3811   26.1478 C   0  0  0  0  0  0
  -27.0326  -30.3069   24.6224 C   0  0  0  0  0  0
  -27.6047  -32.4381   25.7531 C   0  0  0  0  0  0
  -27.5573  -37.1816   24.8476 C   0  0  0  0  0  0
  -21.4179  -29.3026   22.3608 N   0  0  0  0  0  0
  -26.4289  -37.3802   23.9427 N   0  0  0  0  0  0
  -24.6858  -31.0659   22.0988 N   0  0  0  0  0  0
  -23.4222  -28.8136   23.2857 O   0  0  0  0  0  0
  -28.3433  -26.4758   20.1829 O   0  0  0  0  0  0
  -26.5594  -34.8934   22.4668 O   0  0  0  0  0  0
  -23.5414  -32.1378   23.7405 O   0  0  0  0  0  0
  -30.8619  -19.3447   20.8698 C   0  0  0  0  0  0
  -28.8335  -19.2135   19.5845 C   0  0  0  0  0  0
  -30.8801  -17.9228   21.0058 C   0  0  0  0  0  0
  -28.8395  -17.7976   19.7339 C   0  0  0  0  0  0
  -29.8399  -20.0307   20.1535 C   0  0  0  0  0  0
  -29.8613  -17.1105   20.4412 C   0  0  0  0  0  0
  -28.1701  -23.2825   22.6928 C   0  0  0  0  0  0
  -29.2777  -24.1945   22.1614 C   0  0  0  0  0  0
  -28.3520  -22.0350   21.8260 C   0  0  0  0  0  0
  -29.1851  -23.9906   20.6392 C   0  0  2  0  0  0
  -29.9022  -21.5896   19.9158 C   0  0  0  0  0  0
  -28.1074  -25.0179   20.0554 C   0  0  0  0  0  0
  -29.7441  -15.6703   20.6400 N   0  0  0  0  0  0
  -28.8347  -22.5031   20.4973 N   0  3  1  0  0  0
  -31.4831  -12.5060   19.1379 H   0  0  0  0  0  0
  -30.3697  -11.3798   19.8683 H   0  0  0  0  0  0
  -29.7819  -11.7784   17.4502 H   0  0  0  0  0  0
  -29.6543  -13.4924   17.7583 H   0  0  0  0  0  0
  -27.8622  -11.2914   18.8371 H   0  0  0  0  0  0
  -27.3852  -12.5931   17.7785 H   0  0  0  0  0  0
  -27.6665  -14.2462   19.5062 H   0  0  0  0  0  0
  -28.7021  -12.0474   21.3651 H   0  0  0  0  0  0
  -28.4483  -13.7107   21.8264 H   0  0  0  0  0  0
  -25.2761   -9.5684   22.4739 H   0  0  0  0  0  0
  -23.9998   -7.4649   22.7476 H   0  0  0  0  0  0
  -21.0825   -8.8768   19.8968 H   0  0  0  0  0  0
  -22.3693  -10.9648   19.6173 H   0  0  0  0  0  0
  -21.2030   -7.6146   23.9738 H   0  0  0  0  0  0
  -21.1462   -6.0505   25.9080 H   0  0  0  0  0  0
  -22.0608   -2.7612   23.2832 H   0  0  0  0  0  0
  -22.4036  -11.9972   22.4854 H   0  0  0  0  0  0
  -21.1078  -13.1350   22.2507 H   0  0  0  0  0  0
  -24.6355  -15.8248   20.4562 H   0  0  0  0  0  0
  -26.2519  -15.6250   20.0174 H   0  0  0  0  0  0
  -26.7151  -32.5466   23.1098 H   0  0  0  0  0  0
  -25.0170  -33.9752   25.0512 H   0  0  0  0  0  0
  -22.7121  -31.3164   21.3990 H   0  0  0  0  0  0
  -23.3756  -35.9614   23.3335 H   0  0  0  0  0  0
  -24.3553  -36.8895   22.2046 H   0  0  0  0  0  0
  -23.7167  -37.6499   23.6633 H   0  0  0  0  0  0
  -26.0933  -31.5498   20.6028 H   0  0  0  0  0  0
  -26.8431  -30.8433   22.0036 H   0  0  0  0  0  0
  -28.1068  -28.9770   21.2223 H   0  0  0  0  0  0
  -25.9662  -25.9418   18.9957 H   0  0  0  0  0  0
  -23.9798  -27.3219   19.0036 H   0  0  0  0  0  0
  -23.7558  -30.6125   19.4021 H   0  0  0  0  0  0
  -22.7552  -29.2687   19.8426 H   0  0  0  0  0  0
  -25.1246  -36.1994   25.0824 H   0  0  0  0  0  0
  -21.0081  -28.3242   24.1345 H   0  0  0  0  0  0
  -20.5610  -26.2226   23.3584 H   0  0  0  0  0  0
  -21.6633  -26.7313   22.1184 H   0  0  0  0  0  0
  -19.6874  -25.6262   21.1193 H   0  0  0  0  0  0
  -19.6732  -27.3158   20.6726 H   0  0  0  0  0  0
  -17.4186  -26.6723   21.4007 H   0  0  0  0  0  0
  -18.0331  -26.0027   22.8964 H   0  0  0  0  0  0
  -19.7962  -30.7255   24.2240 H   0  0  0  0  0  0
  -17.5032  -31.6247   24.5111 H   0  0  0  0  0  0
  -15.5373  -30.2915   23.7668 H   0  0  0  0  0  0
  -15.8713  -28.0760   22.7096 H   0  0  0  0  0  0
  -24.5917  -30.7078   25.7851 H   0  0  0  0  0  0
  -24.8810  -32.2970   26.4827 H   0  0  0  0  0  0
  -25.7997  -30.9095   27.0308 H   0  0  0  0  0  0
  -26.2904  -29.6868   24.1191 H   0  0  0  0  0  0
  -27.3940  -29.7306   25.4755 H   0  0  0  0  0  0
  -27.8794  -30.4394   23.9489 H   0  0  0  0  0  0
  -27.2694  -33.3745   26.2007 H   0  0  0  0  0  0
  -28.3913  -32.6844   25.0386 H   0  0  0  0  0  0
  -28.0605  -31.8542   26.5540 H   0  0  0  0  0  0
  -28.2590  -38.0117   24.7526 H   0  0  0  0  0  0
  -28.1053  -36.2640   24.6279 H   0  0  0  0  0  0
  -27.2287  -37.1429   25.8879 H   0  0  0  0  0  0
  -20.9291  -29.8808   21.6900 H   0  0  0  0  0  0
  -26.0196  -38.2871   24.1476 H   0  0  0  0  0  0
  -31.6640  -19.9172   21.3186 H   0  0  0  0  0  0
  -28.0408  -19.6661   19.0072 H   0  0  0  0  0  0
  -31.6734  -17.4614   21.5772 H   0  0  0  0  0  0
  -28.0374  -17.2380   19.2689 H   0  0  0  0  0  0
  -27.1821  -23.7149   22.5234 H   0  0  0  0  0  0
  -28.2428  -23.0748   23.7620 H   0  0  0  0  0  0
  -30.2440  -23.8416   22.5292 H   0  0  0  0  0  0
  -29.1796  -25.2391   22.4670 H   0  0  0  0  0  0
  -27.4439  -21.4372   21.7308 H   0  0  0  0  0  0
  -29.1046  -21.4107   22.3109 H   0  0  0  0  0  0
  -30.1434  -24.1995   20.1620 H   0  0  0  0  0  0
  -29.9379  -21.7559   18.8382 H   0  0  0  0  0  0
  -30.8701  -21.9329   20.2839 H   0  0  0  0  0  0
  -27.1758  -24.8066   20.5801 H   0  0  0  0  0  0
  -27.9198  -24.7856   19.0065 H   0  0  0  0  0  0
  -28.7976  -15.3340   20.7387 H   0  0  0  0  0  0
  -28.0546  -22.4368   19.8585 H   0  0  0  0  0  0
  1 25  1  0  0  0
  1 30  2  0  0  0
  1 83  1  0  0  0
  2  3  1  0  0  0
  2 25  1  0  0  0
  2 85  1  0  0  0
  2 86  1  0  0  0
  3  4  1  0  0  0
  3 87  1  0  0  0
  3 88  1  0  0  0
  4  5  1  0  0  0
  4 89  1  0  0  0
  4 90  1  0  0  0
  5  6  1  0  0  0
  5 26  1  0  0  0
  5 91  1  0  0  0
  6 25  1  0  0  0
  6 92  1  0  0  0
  6 93  1  0  0  0
  7  8  2  0  0  0
  7 26  1  0  0  0
  7 29  1  0  0  0
  8  9  1  0  0  0
  8 22  1  0  0  0
  9 10  1  0  0  0
  9 27  2  0  0  0
 10 11  2  0  0  0
 10 15  1  0  0  0
 11 12  1  0  0  0
 11 94  1  0  0  0
 12 13  2  0  0  0
 12 95  1  0  0  0
 13 14  1  0  0  0
 13 31  1  0  0  0
 14 15  2  0  0  0
 14 96  1  0  0  0
 15 97  1  0  0  0
 16 17  2  0  0  0
 16 21  1  0  0  0
 16 31  1  0  0  0
 17 18  1  0  0  0
 17 98  1  0  0  0
 18 19  2  0  0  0
 18 99  1  0  0  0
 19 20  1  0  0  0
 19 24  1  0  0  0
 20 21  2  0  0  0
 20100  1  0  0  0
 21 23  1  0  0  0
 22 28  1  0  0  0
 22 32  2  0  0  0
 26 27  1  0  0  0
 28101  1  0  0  0
 28102  1  0  0  0
 29103  1  0  0  0
 29104  1  0  0  0
 33 34  1  0  0  0
 33 66  1  0  0  0
 33 70  2  0  0  0
 34 36  1  0  0  0
 34 59  1  0  0  0
 34105  1  0  0  0
 35 44  2  0  0  0
 35 45  1  0  0  0
 35 68  1  0  0  0
 36 56  1  0  0  0
 36106  1  0  0  0
 37 39  1  0  0  0
 37 47  1  0  0  0
 37 66  1  0  0  0
 37107  1  0  0  0
 38 43  2  0  0  0
 38 46  1  0  0  0
 38 47  1  0  0  0
 39 64  1  0  0  0
 39 67  2  0  0  0
 40 52  1  0  0  0
 40 53  2  0  0  0
 40 58  1  0  0  0
 41108  1  0  0  0
 41109  1  0  0  0
 41110  1  0  0  0
 41 48  1  0  0  0
 42 43  1  0  0  0
 42 66  1  0  0  0
 42111  1  0  0  0
 42112  1  0  0  0
 43 44  1  0  0  0
 44113  1  0  0  0
 45 46  2  0  0  0
 45114  1  0  0  0
 46115  1  0  0  0
 47116  1  0  0  0
 47117  1  0  0  0
 48 56  1  0  0  0
 48 65  1  0  0  0
 48118  1  0  0  0
 49 50  1  0  0  0
 49 53  1  0  0  0
 49 64  1  0  0  0
 49119  1  0  0  0
 50 51  1  0  0  0
 50120  1  0  0  0
 50121  1  0  0  0
 51 52  1  0  0  0
 51122  1  0  0  0
 51123  1  0  0  0
 52124  1  0  0  0
 52125  1  0  0  0
 53 54  1  0  0  0
 54 55  2  0  0  0
 54126  1  0  0  0
 55 57  1  0  0  0
 55127  1  0  0  0
 56 69  2  0  0  0
 57 58  2  0  0  0
 57128  1  0  0  0
 58129  1  0  0  0
 59 60  1  0  0  0
 59 61  1  0  0  0
 59 62  1  0  0  0
 60130  1  0  0  0
 60131  1  0  0  0
 60132  1  0  0  0
 61133  1  0  0  0
 61134  1  0  0  0
 61135  1  0  0  0
 62136  1  0  0  0
 62137  1  0  0  0
 62138  1  0  0  0
 63 65  1  0  0  0
 63139  1  0  0  0
 63140  1  0  0  0
 63141  1  0  0  0
 64142  1  0  0  0
 65143  1  0  0  0
 68 82  1  0  0  0
 71 73  2  0  0  0
 71 75  1  0  0  0
 71144  1  0  0  0
 72 74  1  0  0  0
 72 75  2  0  0  0
 72145  1  0  0  0
 73 76  1  0  0  0
 73146  1  0  0  0
 74 76  2  0  0  0
 74147  1  0  0  0
 75 81  1  0  0  0
 76 83  1  0  0  0
 77 78  1  0  0  0
 77 79  1  0  0  0
 77148  1  0  0  0
 77149  1  0  0  0
 78 80  1  0  0  0
 78150  1  0  0  0
 78151  1  0  0  0
 79 84  1  0  0  0
 79152  1  0  0  0
 79153  1  0  0  0
 80 82  1  0  0  0
 80 84  1  0  0  0
 80154  1  0  0  0
 81155  1  0  0  0
 81156  1  0  0  0
 81 84  1  0  0  0
 82157  1  0  0  0
 82158  1  0  0  0
 83159  1  0  0  0
 84160  1  0  0  0
M  CHG  1  84   1
M  ISO  4   1 100  68 101  82 101  83 100
M  END
> <chiral flag>
0

> <version>
0

> <s_m_source_file>
/data/baiqing/PycharmProjects/Reinvent-master-3.2/result/LINK_invent/BTK/process_docking_weight1_custom_product_contain_oxygen_bond_distance_aromatic_linkinvent_7_9_3/rearranged_h_0014.sdf

> <i_m_source_file_index>
56

> <r_mmod_Potential_Energy-OPLS-2005>
66.4427642822266

> <r_mmod_Stretch_Energy-OPLS-2005>
78.9299468994141

> <r_mmod_Bend_Energy-OPLS-2005>
160.241439819336

> <r_mmod_Torsional_Energy-OPLS-2005>
283.82421875

> <r_mmod_Improper_Torsional_Energy-OPLS-2005>
7.15376615524292

> <r_mmod_Van_der_Waal_Energy-OPLS-2005>
142.017501831055

> <r_mmod_Electrostatic_Energy-OPLS-2005>
-217.845062255859

> <r_mmod_Solvation_Energy-OPLS-2005>
-436.901641845703

> <b_mmod_Minimization_Converged-OPLS-2005>
0

> <r_mmod_RMS_Derivative-OPLS-2005>
5.1082649230957

$$$$
57
                    3D
 Structure written by MMmdl.
156165  0  0  1  0            999 V2000
  -30.6056  -14.6383   20.5173 C   0  0  0  0  0  0
  -30.4434  -12.3957   19.4508 C   0  0  0  0  0  0
  -29.5113  -12.5212   18.2236 C   0  0  0  0  0  0
  -28.0331  -12.3551   18.6318 C   0  0  0  0  0  0
  -27.6563  -13.2128   19.8689 C   0  0  2  0  0  0
  -28.6990  -13.0488   20.9988 C   0  0  0  0  0  0
  -25.2580  -13.8144   20.5671 C   0  0  0  0  0  0
  -24.1829  -13.0432   20.9171 C   0  0  0  0  0  0
  -24.6376  -11.6895   20.8716 C   0  0  0  0  0  0
  -23.9036  -10.4286   21.0392 C   0  0  0  0  0  0
  -24.3593   -9.4204   21.9173 C   0  0  0  0  0  0
  -23.6281   -8.2230   22.0743 C   0  0  0  0  0  0
  -22.4273   -8.0256   21.3523 C   0  0  0  0  0  0
  -21.9892   -9.0232   20.4635 C   0  0  0  0  0  0
  -22.7204  -10.2123   20.3047 C   0  0  0  0  0  0
  -21.6850   -6.0718   22.5274 C   0  0  0  0  0  0
  -21.4013   -6.5630   23.8202 C   0  0  0  0  0  0
  -21.3668   -5.6782   24.9168 C   0  0  0  0  0  0
  -21.6047   -4.3038   24.7223 C   0  0  0  0  0  0
  -21.8821   -3.8128   23.4342 C   0  0  0  0  0  0
  -21.9196   -4.6948   22.3403 C   0  0  0  0  0  0
  -22.7857  -13.5242   21.1859 C   0  0  0  0  0  0
  -22.1656   -4.2130   21.0981 F   0  0  0  0  0  0
  -21.5650   -3.4522   25.7737 F   0  0  0  0  0  0
  -30.0159  -13.4023   20.4431 N   0  0  0  0  0  0
  -26.3001  -12.9313   20.3324 N   0  0  0  0  0  0
  -25.9305  -11.6474   20.5723 N   0  0  0  0  0  0
  -22.0485  -12.8239   22.0404 N   0  0  0  0  0  0
  -25.4318  -15.1867   20.4104 N   0  0  0  0  0  0
  -31.7587  -14.8242   20.1163 O   0  0  0  0  0  0
  -21.6635   -6.8856   21.4233 O   0  0  0  0  0  0
  -22.3550  -14.5553   20.6717 O   0  0  0  0  0  0
  -24.6256  -31.8613   23.2047 C   0  0  0  0  0  0
  -25.9121  -32.4772   23.8365 C   0  0  1  0  0  0
  -27.2252  -27.3247   20.1263 C   0  0  0  0  0  0
  -25.5953  -33.8572   24.2309 N   0  0  0  0  0  0
  -23.4171  -30.4868   21.5459 C   0  0  2  0  0  0
  -24.8677  -28.9378   20.1129 C   0  0  0  0  0  0
  -22.7455  -29.4661   22.4945 C   0  0  0  0  0  0
  -18.0270  -28.1378   22.8495 C   0  0  0  0  0  0
  -24.1492  -36.7289   23.2626 C   0  0  0  0  0  0
  -25.9580  -30.7928   21.3749 C   0  0  0  0  0  0
  -26.0346  -29.4194   20.7194 C   0  0  0  0  0  0
  -27.2194  -28.6251   20.7161 C   0  0  0  0  0  0
  -26.0417  -26.8961   19.4873 C   0  0  0  0  0  0
  -24.8722  -27.6803   19.4860 C   0  0  0  0  0  0
  -23.6339  -29.8171   20.1624 C   0  0  0  0  0  0
  -25.4113  -36.3074   24.0333 C   0  0  1  0  0  0
  -20.5872  -28.3707   23.1274 C   0  0  2  0  0  0
  -20.6774  -26.9438   22.5396 C   0  0  0  0  0  0
  -19.5756  -26.6392   21.5199 C   0  0  0  0  0  0
  -18.1933  -26.7926   22.1612 C   0  0  0  0  0  0
  -19.1523  -28.8855   23.2881 C   0  0  0  0  0  0
  -18.9452  -30.1448   23.8902 C   0  0  0  0  0  0
  -17.6458  -30.6593   24.0552 C   0  0  0  0  0  0
  -25.9062  -34.9445   23.5121 C   0  0  0  0  0  0
  -16.5346  -29.9096   23.6313 C   0  0  0  0  0  0
  -16.7258  -28.6496   23.0371 C   0  0  0  0  0  0
  -26.4514  -31.6561   25.0720 C   0  0  0  0  0  0
  -25.3750  -31.3678   26.1450 C   0  0  0  0  0  0
  -27.0346  -30.2976   24.6179 C   0  0  0  0  0  0
  -27.6106  -32.4274   25.7466 C   0  0  0  0  0  0
  -27.5591  -37.1792   24.8459 C   0  0  0  0  0  0
  -21.4178  -29.3064   22.3670 N   0  0  0  0  0  0
  -26.4289  -37.3780   23.9418 N   0  0  0  0  0  0
  -24.6852  -31.0642   22.0986 N   0  0  0  0  0  0
  -23.4184  -28.8203   23.3030 O   0  0  0  0  0  0
  -28.3341  -26.4684   20.1524 O   0  0  0  0  0  0
  -26.5621  -34.8916   22.4680 O   0  0  0  0  0  0
  -23.5432  -32.1424   23.7395 O   0  0  0  0  0  0
  -30.8316  -19.3042   20.1900 C   0  0  0  0  0  0
  -28.5582  -19.2786   20.9576 C   0  0  0  0  0  0
  -30.9098  -17.8830   20.3152 C   0  0  0  0  0  0
  -28.6360  -17.8583   21.0894 C   0  0  0  0  0  0
  -29.6552  -20.0511   20.4977 C   0  0  0  0  0  0
  -29.8052  -17.1143   20.7652 C   0  0  0  0  0  0
  -30.3862  -23.7638   20.3300 C   0  0  0  0  0  0
  -30.7796  -22.2920   20.0620 C   0  0  0  0  0  0
  -28.4359  -22.3966   20.5203 C   0  0  0  0  0  0
  -28.8763  -23.8441   20.0529 C   0  0  1  0  0  0
  -28.1169  -25.0998   20.6805 C   0  0  0  0  0  0
  -29.5975  -21.4859   20.3539 N   0  0  0  0  0  0
  -29.7786  -15.6576   20.9220 N   0  0  0  0  0  0
  -31.4838  -12.5313   19.1515 H   0  0  0  0  0  0
  -30.3846  -11.3938   19.8773 H   0  0  0  0  0  0
  -29.7769  -11.7795   17.4692 H   0  0  0  0  0  0
  -29.6541  -13.4969   17.7543 H   0  0  0  0  0  0
  -27.8644  -11.3006   18.8515 H   0  0  0  0  0  0
  -27.3807  -12.5985   17.7910 H   0  0  0  0  0  0
  -27.6800  -14.2525   19.5431 H   0  0  0  0  0  0
  -28.7103  -12.0213   21.3670 H   0  0  0  0  0  0
  -28.4394  -13.6651   21.8618 H   0  0  0  0  0  0
  -25.2732   -9.5699   22.4752 H   0  0  0  0  0  0
  -23.9992   -7.4627   22.7471 H   0  0  0  0  0  0
  -21.0809   -8.8751   19.8951 H   0  0  0  0  0  0
  -22.3639  -10.9662   19.6166 H   0  0  0  0  0  0
  -21.1988   -7.6138   23.9690 H   0  0  0  0  0  0
  -21.1504   -6.0516   25.9070 H   0  0  0  0  0  0
  -22.0597   -2.7590   23.2836 H   0  0  0  0  0  0
  -22.4087  -11.9902   22.4801 H   0  0  0  0  0  0
  -21.1118  -13.1289   22.2630 H   0  0  0  0  0  0
  -24.6642  -15.8421   20.5077 H   0  0  0  0  0  0
  -26.2772  -15.6164   20.0565 H   0  0  0  0  0  0
  -26.7183  -32.5466   23.1107 H   0  0  0  0  0  0
  -25.0112  -33.9700   25.0465 H   0  0  0  0  0  0
  -22.7083  -31.3062   21.4016 H   0  0  0  0  0  0
  -23.3769  -35.9605   23.3256 H   0  0  0  0  0  0
  -24.3587  -36.8941   22.2044 H   0  0  0  0  0  0
  -23.7236  -37.6482   23.6670 H   0  0  0  0  0  0
  -26.0872  -31.5543   20.6048 H   0  0  0  0  0  0
  -26.8387  -30.8438   22.0042 H   0  0  0  0  0  0
  -28.1132  -28.9897   21.2023 H   0  0  0  0  0  0
  -26.0151  -25.9353   18.9934 H   0  0  0  0  0  0
  -23.9787  -27.3094   19.0026 H   0  0  0  0  0  0
  -23.7474  -30.5915   19.4031 H   0  0  0  0  0  0
  -22.7549  -29.2422   19.8646 H   0  0  0  0  0  0
  -25.1288  -36.1905   25.0826 H   0  0  0  0  0  0
  -20.9959  -28.3280   24.1399 H   0  0  0  0  0  0
  -20.5666  -26.2332   23.3601 H   0  0  0  0  0  0
  -21.6650  -26.7482   22.1192 H   0  0  0  0  0  0
  -19.6931  -25.6291   21.1255 H   0  0  0  0  0  0
  -19.6704  -27.3185   20.6712 H   0  0  0  0  0  0
  -17.4218  -26.6655   21.4000 H   0  0  0  0  0  0
  -18.0371  -26.0051   22.8999 H   0  0  0  0  0  0
  -19.7924  -30.7257   24.2298 H   0  0  0  0  0  0
  -17.5016  -31.6274   24.5157 H   0  0  0  0  0  0
  -15.5344  -30.3011   23.7644 H   0  0  0  0  0  0
  -15.8650  -28.0807   22.7123 H   0  0  0  0  0  0
  -24.5942  -30.7011   25.7762 H   0  0  0  0  0  0
  -24.8914  -32.2826   26.4884 H   0  0  0  0  0  0
  -25.8078  -30.8842   27.0215 H   0  0  0  0  0  0
  -26.2904  -29.6713   24.1244 H   0  0  0  0  0  0
  -27.4064  -29.7249   25.4685 H   0  0  0  0  0  0
  -27.8775  -30.4217   23.9377 H   0  0  0  0  0  0
  -27.2756  -33.3584   26.2044 H   0  0  0  0  0  0
  -28.3907  -32.6805   25.0272 H   0  0  0  0  0  0
  -28.0787  -31.8384   26.5363 H   0  0  0  0  0  0
  -28.2577  -38.0127   24.7578 H   0  0  0  0  0  0
  -28.1124  -36.2667   24.6183 H   0  0  0  0  0  0
  -27.2332  -37.1315   25.8868 H   0  0  0  0  0  0
  -20.9370  -29.8728   21.6821 H   0  0  0  0  0  0
  -26.0168  -38.2855   24.1439 H   0  0  0  0  0  0
  -31.7167  -19.8158   19.8423 H   0  0  0  0  0  0
  -27.6341  -19.7710   21.2259 H   0  0  0  0  0  0
  -31.8406  -17.3967   20.0619 H   0  0  0  0  0  0
  -27.7606  -17.3364   21.4509 H   0  0  0  0  0  0
  -30.9643  -24.4656   19.7272 H   0  0  0  0  0  0
  -30.5809  -24.0024   21.3770 H   0  0  0  0  0  0
  -31.6343  -21.9960   20.6736 H   0  0  0  0  0  0
  -31.0527  -22.1528   19.0141 H   0  0  0  0  0  0
  -27.5775  -22.0446   19.9459 H   0  0  0  0  0  0
  -28.1384  -22.4116   21.5699 H   0  0  0  0  0  0
  -28.7378  -23.8846   18.9715 H   0  0  0  0  0  0
  -28.3724  -25.1406   21.7407 H   0  0  0  0  0  0
  -27.0547  -24.8523   20.6770 H   0  0  0  0  0  0
  -28.9026  -15.2991   21.2678 H   0  0  0  0  0  0
  1 25  1  0  0  0
  1 30  2  0  0  0
  1 83  1  0  0  0
  2  3  1  0  0  0
  2 25  1  0  0  0
  2 84  1  0  0  0
  2 85  1  0  0  0
  3  4  1  0  0  0
  3 86  1  0  0  0
  3 87  1  0  0  0
  4  5  1  0  0  0
  4 88  1  0  0  0
  4 89  1  0  0  0
  5  6  1  0  0  0
  5 26  1  0  0  0
  5 90  1  0  0  0
  6 25  1  0  0  0
  6 91  1  0  0  0
  6 92  1  0  0  0
  7  8  2  0  0  0
  7 26  1  0  0  0
  7 29  1  0  0  0
  8  9  1  0  0  0
  8 22  1  0  0  0
  9 10  1  0  0  0
  9 27  2  0  0  0
 10 11  2  0  0  0
 10 15  1  0  0  0
 11 12  1  0  0  0
 11 93  1  0  0  0
 12 13  2  0  0  0
 12 94  1  0  0  0
 13 14  1  0  0  0
 13 31  1  0  0  0
 14 15  2  0  0  0
 14 95  1  0  0  0
 15 96  1  0  0  0
 16 17  2  0  0  0
 16 21  1  0  0  0
 16 31  1  0  0  0
 17 18  1  0  0  0
 17 97  1  0  0  0
 18 19  2  0  0  0
 18 98  1  0  0  0
 19 20  1  0  0  0
 19 24  1  0  0  0
 20 21  2  0  0  0
 20 99  1  0  0  0
 21 23  1  0  0  0
 22 28  1  0  0  0
 22 32  2  0  0  0
 26 27  1  0  0  0
 28100  1  0  0  0
 28101  1  0  0  0
 29102  1  0  0  0
 29103  1  0  0  0
 33 34  1  0  0  0
 33 66  1  0  0  0
 33 70  2  0  0  0
 34 36  1  0  0  0
 34 59  1  0  0  0
 34104  1  0  0  0
 35 44  2  0  0  0
 35 45  1  0  0  0
 35 68  1  0  0  0
 36 56  1  0  0  0
 36105  1  0  0  0
 37 39  1  0  0  0
 37 47  1  0  0  0
 37 66  1  0  0  0
 37106  1  0  0  0
 38 43  2  0  0  0
 38 46  1  0  0  0
 38 47  1  0  0  0
 39 64  1  0  0  0
 39 67  2  0  0  0
 40 52  1  0  0  0
 40 53  2  0  0  0
 40 58  1  0  0  0
 41107  1  0  0  0
 41108  1  0  0  0
 41109  1  0  0  0
 41 48  1  0  0  0
 42 43  1  0  0  0
 42 66  1  0  0  0
 42110  1  0  0  0
 42111  1  0  0  0
 43 44  1  0  0  0
 44112  1  0  0  0
 45 46  2  0  0  0
 45113  1  0  0  0
 46114  1  0  0  0
 47115  1  0  0  0
 47116  1  0  0  0
 48 56  1  0  0  0
 48 65  1  0  0  0
 48117  1  0  0  0
 49 50  1  0  0  0
 49 53  1  0  0  0
 49 64  1  0  0  0
 49118  1  0  0  0
 50 51  1  0  0  0
 50119  1  0  0  0
 50120  1  0  0  0
 51 52  1  0  0  0
 51121  1  0  0  0
 51122  1  0  0  0
 52123  1  0  0  0
 52124  1  0  0  0
 53 54  1  0  0  0
 54 55  2  0  0  0
 54125  1  0  0  0
 55 57  1  0  0  0
 55126  1  0  0  0
 56 69  2  0  0  0
 57 58  2  0  0  0
 57127  1  0  0  0
 58128  1  0  0  0
 59 60  1  0  0  0
 59 61  1  0  0  0
 59 62  1  0  0  0
 60129  1  0  0  0
 60130  1  0  0  0
 60131  1  0  0  0
 61132  1  0  0  0
 61133  1  0  0  0
 61134  1  0  0  0
 62135  1  0  0  0
 62136  1  0  0  0
 62137  1  0  0  0
 63 65  1  0  0  0
 63138  1  0  0  0
 63139  1  0  0  0
 63140  1  0  0  0
 64141  1  0  0  0
 65142  1  0  0  0
 68 81  1  0  0  0
 71 73  2  0  0  0
 71 75  1  0  0  0
 71143  1  0  0  0
 72 74  1  0  0  0
 72 75  2  0  0  0
 72144  1  0  0  0
 73 76  1  0  0  0
 73145  1  0  0  0
 74 76  2  0  0  0
 74146  1  0  0  0
 75 82  1  0  0  0
 76 83  1  0  0  0
 77 78  1  0  0  0
 77 80  1  0  0  0
 77147  1  0  0  0
 77148  1  0  0  0
 78 82  1  0  0  0
 78149  1  0  0  0
 78150  1  0  0  0
 79 80  1  0  0  0
 79 82  1  0  0  0
 79151  1  0  0  0
 79152  1  0  0  0
 80 81  1  0  0  0
 80153  1  0  0  0
 81154  1  0  0  0
 81155  1  0  0  0
 83156  1  0  0  0
M  ISO  4   1 100  68 101  81 101  83 100
M  END
> <chiral flag>
0

> <version>
0

> <s_m_source_file>
/data/baiqing/PycharmProjects/Reinvent-master-3.2/result/LINK_invent/BTK/process_docking_weight1_custom_product_contain_oxygen_bond_distance_aromatic_linkinvent_7_9_3/rearranged_h_0014.sdf

> <i_m_source_file_index>
57

> <r_mmod_Potential_Energy-OPLS-2005>
110.317306518555

> <r_mmod_Stretch_Energy-OPLS-2005>
76.4861373901367

> <r_mmod_Bend_Energy-OPLS-2005>
182.149383544922

> <r_mmod_Torsional_Energy-OPLS-2005>
272.810119628906

> <r_mmod_Improper_Torsional_Energy-OPLS-2005>
3.87873816490173

> <r_mmod_Van_der_Waal_Energy-OPLS-2005>
140.137268066406

> <r_mmod_Electrostatic_Energy-OPLS-2005>
-384.825012207031

> <r_mmod_Solvation_Energy-OPLS-2005>
-227.490417480469

> <b_mmod_Minimization_Converged-OPLS-2005>
0

> <r_mmod_RMS_Derivative-OPLS-2005>
2.38283944129944

$$$$
58
                    3D
 Structure written by MMmdl.
162170  0  0  1  0            999 V2000
  -30.6872  -14.4993   20.4757 C   0  0  0  0  0  0
  -30.4204  -12.3010   19.4246 C   0  0  0  0  0  0
  -29.4941  -12.4828   18.2028 C   0  0  0  0  0  0
  -28.0115  -12.3511   18.6146 C   0  0  0  0  0  0
  -27.6538  -13.2133   19.8571 C   0  0  2  0  0  0
  -28.7022  -13.0196   20.9775 C   0  0  0  0  0  0
  -25.2533  -13.8143   20.5704 C   0  0  0  0  0  0
  -24.1804  -13.0415   20.9230 C   0  0  0  0  0  0
  -24.6374  -11.6899   20.8757 C   0  0  0  0  0  0
  -23.9048  -10.4262   21.0412 C   0  0  0  0  0  0
  -24.3594   -9.4181   21.9183 C   0  0  0  0  0  0
  -23.6261   -8.2224   22.0733 C   0  0  0  0  0  0
  -22.4246   -8.0257   21.3536 C   0  0  0  0  0  0
  -21.9901   -9.0245   20.4648 C   0  0  0  0  0  0
  -22.7232  -10.2119   20.3064 C   0  0  0  0  0  0
  -21.6813   -6.0714   22.5300 C   0  0  0  0  0  0
  -21.3991   -6.5615   23.8242 C   0  0  0  0  0  0
  -21.3677   -5.6773   24.9208 C   0  0  0  0  0  0
  -21.6048   -4.3037   24.7255 C   0  0  0  0  0  0
  -21.8814   -3.8129   23.4375 C   0  0  0  0  0  0
  -21.9186   -4.6944   22.3430 C   0  0  0  0  0  0
  -22.7819  -13.5191   21.1877 C   0  0  0  0  0  0
  -22.1647   -4.2120   21.1008 F   0  0  0  0  0  0
  -21.5656   -3.4534   25.7775 F   0  0  0  0  0  0
  -30.0243  -13.3145   20.4085 N   0  0  0  0  0  0
  -26.2972  -12.9335   20.3324 N   0  0  0  0  0  0
  -25.9299  -11.6494   20.5753 N   0  0  0  0  0  0
  -22.0440  -12.8211   22.0445 N   0  0  0  0  0  0
  -25.4225  -15.1858   20.4114 N   0  0  0  0  0  0
  -31.8632  -14.6307   20.1365 O   0  0  0  0  0  0
  -21.6610   -6.8853   21.4243 O   0  0  0  0  0  0
  -22.3513  -14.5499   20.6694 O   0  0  0  0  0  0
  -24.6117  -31.8687   23.2163 C   0  0  0  0  0  0
  -25.9038  -32.4843   23.8432 C   0  0  1  0  0  0
  -27.2290  -27.4520   20.0901 C   0  0  0  0  0  0
  -25.5930  -33.8653   24.2377 N   0  0  0  0  0  0
  -23.4019  -30.4918   21.5550 C   0  0  2  0  0  0
  -24.8496  -28.9621   20.1158 C   0  0  0  0  0  0
  -22.7395  -29.4645   22.5006 C   0  0  0  0  0  0
  -18.0256  -28.1425   22.8385 C   0  0  0  0  0  0
  -24.1486  -36.7310   23.2639 C   0  0  0  0  0  0
  -25.9316  -30.8349   21.3737 C   0  0  0  0  0  0
  -26.0093  -29.4722   20.7180 C   0  0  0  0  0  0
  -27.2059  -28.7224   20.7067 C   0  0  0  0  0  0
  -26.0644  -26.9634   19.4695 C   0  0  0  0  0  0
  -24.8709  -27.7081   19.4847 C   0  0  0  0  0  0
  -23.6116  -29.8280   20.1682 C   0  0  0  0  0  0
  -25.4103  -36.3120   24.0341 C   0  0  1  0  0  0
  -20.5883  -28.3628   23.1399 C   0  0  2  0  0  0
  -20.6739  -26.9389   22.5394 C   0  0  0  0  0  0
  -19.5846  -26.6695   21.5002 C   0  0  0  0  0  0
  -18.1905  -26.8178   22.1190 C   0  0  0  0  0  0
  -19.1506  -28.8787   23.2953 C   0  0  0  0  0  0
  -18.9431  -30.1290   23.9091 C   0  0  0  0  0  0
  -17.6478  -30.6472   24.0770 C   0  0  0  0  0  0
  -25.9033  -34.9491   23.5143 C   0  0  0  0  0  0
  -16.5339  -29.9079   23.6383 C   0  0  0  0  0  0
  -16.7221  -28.6559   23.0233 C   0  0  0  0  0  0
  -26.4457  -31.6624   25.0757 C   0  0  0  0  0  0
  -25.3706  -31.3759   26.1515 C   0  0  0  0  0  0
  -27.0327  -30.3062   24.6162 C   0  0  0  0  0  0
  -27.6045  -32.4344   25.7496 C   0  0  0  0  0  0
  -27.5586  -37.1806   24.8463 C   0  0  0  0  0  0
  -21.4107  -29.3082   22.3830 N   0  0  0  0  0  0
  -26.4293  -37.3787   23.9423 N   0  0  0  0  0  0
  -24.6660  -31.0779   22.1070 N   0  0  0  0  0  0
  -23.4178  -28.8119   23.3001 O   0  0  0  0  0  0
  -28.3628  -26.6794   20.0876 O   0  0  0  0  0  0
  -26.5560  -34.8921   22.4688 O   0  0  0  0  0  0
  -23.5306  -32.1507   23.7532 O   0  0  0  0  0  0
  -27.9522  -18.0493   20.4013 C   0  0  0  0  0  0
  -29.7439  -18.8957   21.8040 C   0  0  0  0  0  0
  -27.4355  -19.3566   20.2670 C   0  0  0  0  0  0
  -29.2382  -20.2047   21.6636 C   0  0  0  0  0  0
  -29.0696  -17.7965   21.2303 C   0  0  0  0  0  0
  -28.0367  -20.4368   20.9572 C   0  0  0  0  0  0
  -25.8390  -23.2790   19.8312 C   0  0  0  0  0  0
  -29.4961  -16.3646   21.5737 C   0  0  0  0  0  0
  -27.3068  -21.7712   21.1164 C   0  0  0  0  0  0
  -29.0205  -24.3194   20.4986 C   0  0  0  0  0  0
  -28.3073  -23.4172   19.4446 C   0  0  0  0  0  0
  -28.3044  -25.5896   21.0169 C   0  0  0  0  0  0
  -29.9043  -15.5887   20.4114 N   0  0  0  0  0  0
  -27.1444  -22.5781   19.8767 N   0  3  1  0  0  0
  -31.4722  -12.3740   19.1361 H   0  0  0  0  0  0
  -30.3005  -11.3050   19.8558 H   0  0  0  0  0  0
  -29.7351  -11.7390   17.4399 H   0  0  0  0  0  0
  -29.6635  -13.4619   17.7476 H   0  0  0  0  0  0
  -27.8291  -11.2989   18.8368 H   0  0  0  0  0  0
  -27.3601  -12.6071   17.7766 H   0  0  0  0  0  0
  -27.6839  -14.2560   19.5363 H   0  0  0  0  0  0
  -28.6807  -11.9890   21.3394 H   0  0  0  0  0  0
  -28.4814  -13.6412   21.8450 H   0  0  0  0  0  0
  -25.2720   -9.5639   22.4785 H   0  0  0  0  0  0
  -23.9968   -7.4575   22.7436 H   0  0  0  0  0  0
  -21.0825   -8.8766   19.8924 H   0  0  0  0  0  0
  -22.3680  -10.9664   19.6186 H   0  0  0  0  0  0
  -21.1951   -7.6117   23.9740 H   0  0  0  0  0  0
  -21.1506   -6.0506   25.9119 H   0  0  0  0  0  0
  -22.0569   -2.7576   23.2907 H   0  0  0  0  0  0
  -22.4000  -11.9907   22.4900 H   0  0  0  0  0  0
  -21.1048  -13.1262   22.2601 H   0  0  0  0  0  0
  -24.6552  -15.8424   20.5203 H   0  0  0  0  0  0
  -26.2866  -15.6169   20.1114 H   0  0  0  0  0  0
  -26.7118  -32.5528   23.1206 H   0  0  0  0  0  0
  -25.0132  -33.9823   25.0560 H   0  0  0  0  0  0
  -22.6952  -31.3126   21.4144 H   0  0  0  0  0  0
  -23.3747  -35.9643   23.3277 H   0  0  0  0  0  0
  -24.3589  -36.8932   22.2059 H   0  0  0  0  0  0
  -23.7241  -37.6511   23.6646 H   0  0  0  0  0  0
  -26.0555  -31.6059   20.6119 H   0  0  0  0  0  0
  -26.8175  -30.8784   21.9964 H   0  0  0  0  0  0
  -28.1033  -29.1048   21.1735 H   0  0  0  0  0  0
  -26.0872  -26.0127   18.9612 H   0  0  0  0  0  0
  -23.9883  -27.3205   18.9927 H   0  0  0  0  0  0
  -23.7249  -30.6052   19.4100 H   0  0  0  0  0  0
  -22.7357  -29.2469   19.8680 H   0  0  0  0  0  0
  -25.1280  -36.1983   25.0823 H   0  0  0  0  0  0
  -20.9919  -28.3175   24.1502 H   0  0  0  0  0  0
  -20.5272  -26.2272   23.3524 H   0  0  0  0  0  0
  -21.6653  -26.7250   22.1369 H   0  0  0  0  0  0
  -19.7061  -25.6794   21.0601 H   0  0  0  0  0  0
  -19.6963  -27.3844   20.6858 H   0  0  0  0  0  0
  -17.4256  -26.7401   21.3431 H   0  0  0  0  0  0
  -18.0099  -26.0025   22.8178 H   0  0  0  0  0  0
  -19.7915  -30.6955   24.2703 H   0  0  0  0  0  0
  -17.5108  -31.6082   24.5585 H   0  0  0  0  0  0
  -15.5378  -30.2988   23.7791 H   0  0  0  0  0  0
  -15.8659  -28.0954   22.6832 H   0  0  0  0  0  0
  -24.5831  -30.7169   25.7833 H   0  0  0  0  0  0
  -24.8958  -32.2955   26.4948 H   0  0  0  0  0  0
  -25.8031  -30.8904   27.0280 H   0  0  0  0  0  0
  -26.2927  -29.6794   24.1172 H   0  0  0  0  0  0
  -27.4076  -29.7305   25.4630 H   0  0  0  0  0  0
  -27.8746  -30.4372   23.9361 H   0  0  0  0  0  0
  -27.2666  -33.3620   26.2118 H   0  0  0  0  0  0
  -28.3810  -32.6952   25.0298 H   0  0  0  0  0  0
  -28.0775  -31.8465   26.5374 H   0  0  0  0  0  0
  -28.2594  -38.0100   24.7527 H   0  0  0  0  0  0
  -28.1084  -36.2650   24.6265 H   0  0  0  0  0  0
  -27.2309  -37.1435   25.8856 H   0  0  0  0  0  0
  -20.9183  -29.8984   21.7305 H   0  0  0  0  0  0
  -26.0181  -38.2865   24.1403 H   0  0  0  0  0  0
  -27.4429  -17.2314   19.9150 H   0  0  0  0  0  0
  -30.6176  -18.7379   22.4235 H   0  0  0  0  0  0
  -26.5243  -19.4993   19.6973 H   0  0  0  0  0  0
  -29.7300  -21.0166   22.1805 H   0  0  0  0  0  0
  -25.7124  -23.9667   20.6681 H   0  0  0  0  0  0
  -25.0204  -22.5565   19.8666 H   0  0  0  0  0  0
  -25.7156  -23.8271   18.8993 H   0  0  0  0  0  0
  -30.3025  -16.3969   22.3087 H   0  0  0  0  0  0
  -28.6636  -15.8643   22.0624 H   0  0  0  0  0  0
  -27.7286  -22.3521   21.9384 H   0  0  0  0  0  0
  -26.3180  -21.4891   21.4818 H   0  0  0  0  0  0
  -29.9560  -24.6575   20.0524 H   0  0  0  0  0  0
  -29.3270  -23.7123   21.3488 H   0  0  0  0  0  0
  -29.0475  -22.7111   19.0633 H   0  0  0  0  0  0
  -28.0226  -24.0183   18.5814 H   0  0  0  0  0  0
  -28.8152  -25.9331   21.9229 H   0  0  0  0  0  0
  -27.2970  -25.3538   21.3566 H   0  0  0  0  0  0
  -30.2721  -16.2212   19.7201 H   0  0  0  0  0  0
  -27.0551  -21.9004   19.1342 H   0  0  0  0  0  0
  1 25  1  0  0  0
  1 30  2  0  0  0
  1 83  1  0  0  0
  2  3  1  0  0  0
  2 25  1  0  0  0
  2 85  1  0  0  0
  2 86  1  0  0  0
  3  4  1  0  0  0
  3 87  1  0  0  0
  3 88  1  0  0  0
  4  5  1  0  0  0
  4 89  1  0  0  0
  4 90  1  0  0  0
  5  6  1  0  0  0
  5 26  1  0  0  0
  5 91  1  0  0  0
  6 25  1  0  0  0
  6 92  1  0  0  0
  6 93  1  0  0  0
  7  8  2  0  0  0
  7 26  1  0  0  0
  7 29  1  0  0  0
  8  9  1  0  0  0
  8 22  1  0  0  0
  9 10  1  0  0  0
  9 27  2  0  0  0
 10 11  2  0  0  0
 10 15  1  0  0  0
 11 12  1  0  0  0
 11 94  1  0  0  0
 12 13  2  0  0  0
 12 95  1  0  0  0
 13 14  1  0  0  0
 13 31  1  0  0  0
 14 15  2  0  0  0
 14 96  1  0  0  0
 15 97  1  0  0  0
 16 17  2  0  0  0
 16 21  1  0  0  0
 16 31  1  0  0  0
 17 18  1  0  0  0
 17 98  1  0  0  0
 18 19  2  0  0  0
 18 99  1  0  0  0
 19 20  1  0  0  0
 19 24  1  0  0  0
 20 21  2  0  0  0
 20100  1  0  0  0
 21 23  1  0  0  0
 22 28  1  0  0  0
 22 32  2  0  0  0
 26 27  1  0  0  0
 28101  1  0  0  0
 28102  1  0  0  0
 29103  1  0  0  0
 29104  1  0  0  0
 33 34  1  0  0  0
 33 66  1  0  0  0
 33 70  2  0  0  0
 34 36  1  0  0  0
 34 59  1  0  0  0
 34105  1  0  0  0
 35 44  2  0  0  0
 35 45  1  0  0  0
 35 68  1  0  0  0
 36 56  1  0  0  0
 36106  1  0  0  0
 37 39  1  0  0  0
 37 47  1  0  0  0
 37 66  1  0  0  0
 37107  1  0  0  0
 38 43  2  0  0  0
 38 46  1  0  0  0
 38 47  1  0  0  0
 39 64  1  0  0  0
 39 67  2  0  0  0
 40 52  1  0  0  0
 40 53  2  0  0  0
 40 58  1  0  0  0
 41108  1  0  0  0
 41109  1  0  0  0
 41110  1  0  0  0
 41 48  1  0  0  0
 42 43  1  0  0  0
 42 66  1  0  0  0
 42111  1  0  0  0
 42112  1  0  0  0
 43 44  1  0  0  0
 44113  1  0  0  0
 45 46  2  0  0  0
 45114  1  0  0  0
 46115  1  0  0  0
 47116  1  0  0  0
 47117  1  0  0  0
 48 56  1  0  0  0
 48 65  1  0  0  0
 48118  1  0  0  0
 49 50  1  0  0  0
 49 53  1  0  0  0
 49 64  1  0  0  0
 49119  1  0  0  0
 50 51  1  0  0  0
 50120  1  0  0  0
 50121  1  0  0  0
 51 52  1  0  0  0
 51122  1  0  0  0
 51123  1  0  0  0
 52124  1  0  0  0
 52125  1  0  0  0
 53 54  1  0  0  0
 54 55  2  0  0  0
 54126  1  0  0  0
 55 57  1  0  0  0
 55127  1  0  0  0
 56 69  2  0  0  0
 57 58  2  0  0  0
 57128  1  0  0  0
 58129  1  0  0  0
 59 60  1  0  0  0
 59 61  1  0  0  0
 59 62  1  0  0  0
 60130  1  0  0  0
 60131  1  0  0  0
 60132  1  0  0  0
 61133  1  0  0  0
 61134  1  0  0  0
 61135  1  0  0  0
 62136  1  0  0  0
 62137  1  0  0  0
 62138  1  0  0  0
 63 65  1  0  0  0
 63139  1  0  0  0
 63140  1  0  0  0
 63141  1  0  0  0
 64142  1  0  0  0
 65143  1  0  0  0
 68 82  1  0  0  0
 71 73  2  0  0  0
 71 75  1  0  0  0
 71144  1  0  0  0
 72 74  1  0  0  0
 72 75  2  0  0  0
 72145  1  0  0  0
 73 76  1  0  0  0
 73146  1  0  0  0
 74 76  2  0  0  0
 74147  1  0  0  0
 75 78  1  0  0  0
 76 79  1  0  0  0
 77148  1  0  0  0
 77149  1  0  0  0
 77150  1  0  0  0
 77 84  1  0  0  0
 78 83  1  0  0  0
 78151  1  0  0  0
 78152  1  0  0  0
 79 84  1  0  0  0
 79153  1  0  0  0
 79154  1  0  0  0
 80 81  1  0  0  0
 80 82  1  0  0  0
 80155  1  0  0  0
 80156  1  0  0  0
 81 84  1  0  0  0
 81157  1  0  0  0
 81158  1  0  0  0
 82159  1  0  0  0
 82160  1  0  0  0
 83161  1  0  0  0
 84162  1  0  0  0
M  CHG  1  84   1
M  ISO  4   1 100  68 101  82 101  83 100
M  END
> <chiral flag>
0

> <version>
0

> <s_m_source_file>
/data/baiqing/PycharmProjects/Reinvent-master-3.2/result/LINK_invent/BTK/process_docking_weight1_custom_product_contain_oxygen_bond_distance_aromatic_linkinvent_7_9_3/rearranged_h_0014.sdf

> <i_m_source_file_index>
58

> <r_mmod_Potential_Energy-OPLS-2005>
-115.71272277832

> <r_mmod_Stretch_Energy-OPLS-2005>
36.2917404174805

> <r_mmod_Bend_Energy-OPLS-2005>
120.056266784668

> <r_mmod_Torsional_Energy-OPLS-2005>
315.558746337891

> <r_mmod_Improper_Torsional_Energy-OPLS-2005>
22.6926441192627

> <r_mmod_Van_der_Waal_Energy-OPLS-2005>
134.949371337891

> <r_mmod_Electrostatic_Energy-OPLS-2005>
-322.938262939453

> <r_mmod_Solvation_Energy-OPLS-2005>
-441.650390625

> <b_mmod_Minimization_Converged-OPLS-2005>
0

> <r_mmod_RMS_Derivative-OPLS-2005>
6.82499933242798

$$$$
59
                    3D
 Structure written by MMmdl.
161169  0  0  1  0            999 V2000
  -30.8063  -14.4409   20.6560 C   0  0  0  0  0  0
  -30.3939  -12.3157   19.4563 C   0  0  0  0  0  0
  -29.4933  -12.5400   18.2247 C   0  0  0  0  0  0
  -28.0154  -12.3705   18.6153 C   0  0  0  0  0  0
  -27.6528  -13.2080   19.8680 C   0  0  2  0  0  0
  -28.6824  -12.9983   20.9982 C   0  0  0  0  0  0
  -25.2537  -13.8155   20.5658 C   0  0  0  0  0  0
  -24.1800  -13.0431   20.9135 C   0  0  0  0  0  0
  -24.6351  -11.6898   20.8676 C   0  0  0  0  0  0
  -23.9036  -10.4290   21.0364 C   0  0  0  0  0  0
  -24.3592   -9.4234   21.9160 C   0  0  0  0  0  0
  -23.6271   -8.2277   22.0762 C   0  0  0  0  0  0
  -22.4257   -8.0298   21.3546 C   0  0  0  0  0  0
  -21.9875   -9.0265   20.4650 C   0  0  0  0  0  0
  -22.7198  -10.2139   20.3039 C   0  0  0  0  0  0
  -21.6846   -6.0739   22.5280 C   0  0  0  0  0  0
  -21.4028   -6.5644   23.8216 C   0  0  0  0  0  0
  -21.3672   -5.6792   24.9171 C   0  0  0  0  0  0
  -21.6052   -4.3057   24.7216 C   0  0  0  0  0  0
  -21.8813   -3.8150   23.4334 C   0  0  0  0  0  0
  -21.9194   -4.6970   22.3396 C   0  0  0  0  0  0
  -22.7838  -13.5260   21.1830 C   0  0  0  0  0  0
  -22.1656   -4.2157   21.0972 F   0  0  0  0  0  0
  -21.5629   -3.4545   25.7730 F   0  0  0  0  0  0
  -30.0290  -13.3198   20.4819 N   0  0  0  0  0  0
  -26.2947  -12.9320   20.3270 N   0  0  0  0  0  0
  -25.9268  -11.6474   20.5675 N   0  0  0  0  0  0
  -22.0473  -12.8271   22.0393 N   0  0  0  0  0  0
  -25.4241  -15.1880   20.4165 N   0  0  0  0  0  0
  -31.8838  -14.5311   20.0528 O   0  0  0  0  0  0
  -21.6637   -6.8881   21.4240 O   0  0  0  0  0  0
  -22.3546  -14.5583   20.6694 O   0  0  0  0  0  0
  -24.6126  -31.8701   23.2104 C   0  0  0  0  0  0
  -25.9051  -32.4813   23.8400 C   0  0  1  0  0  0
  -27.2510  -27.4492   20.0950 C   0  0  0  0  0  0
  -25.5966  -33.8616   24.2346 N   0  0  0  0  0  0
  -23.3981  -30.4900   21.5485 C   0  0  2  0  0  0
  -24.8493  -28.9559   20.1187 C   0  0  0  0  0  0
  -22.7391  -29.4638   22.4989 C   0  0  0  0  0  0
  -18.0254  -28.1399   22.8496 C   0  0  0  0  0  0
  -24.1485  -36.7215   23.2643 C   0  0  0  0  0  0
  -25.9275  -30.8410   21.3604 C   0  0  0  0  0  0
  -26.0074  -29.4754   20.7070 C   0  0  0  0  0  0
  -27.2061  -28.7321   20.6879 C   0  0  0  0  0  0
  -26.0669  -26.9324   19.5180 C   0  0  0  0  0  0
  -24.8731  -27.6830   19.5241 C   0  0  0  0  0  0
  -23.6091  -29.8191   20.1631 C   0  0  0  0  0  0
  -25.4132  -36.3090   24.0339 C   0  0  1  0  0  0
  -20.5842  -28.3640   23.1346 C   0  0  2  0  0  0
  -20.6739  -26.9386   22.5414 C   0  0  0  0  0  0
  -19.5737  -26.6398   21.5204 C   0  0  0  0  0  0
  -18.1915  -26.7954   22.1614 C   0  0  0  0  0  0
  -19.1503  -28.8839   23.2909 C   0  0  0  0  0  0
  -18.9453  -30.1460   23.8895 C   0  0  0  0  0  0
  -17.6464  -30.6609   24.0580 C   0  0  0  0  0  0
  -25.9088  -34.9466   23.5126 C   0  0  0  0  0  0
  -16.5342  -29.9141   23.6332 C   0  0  0  0  0  0
  -16.7239  -28.6550   23.0345 C   0  0  0  0  0  0
  -26.4499  -31.6559   25.0715 C   0  0  0  0  0  0
  -25.3781  -31.3609   26.1463 C   0  0  0  0  0  0
  -27.0306  -30.3018   24.6058 C   0  0  0  0  0  0
  -27.6088  -32.4228   25.7512 C   0  0  0  0  0  0
  -27.5579  -37.1772   24.8505 C   0  0  0  0  0  0
  -21.4117  -29.2995   22.3747 N   0  0  0  0  0  0
  -26.4307  -37.3791   23.9435 N   0  0  0  0  0  0
  -24.6629  -31.0854   22.0965 N   0  0  0  0  0  0
  -23.4166  -28.8173   23.3023 O   0  0  0  0  0  0
  -28.4706  -26.7992   20.0946 O   0  0  0  0  0  0
  -26.5622  -34.8928   22.4668 O   0  0  0  0  0  0
  -23.5319  -32.1398   23.7535 O   0  0  0  0  0  0
  -30.3551  -18.7805   22.6159 C   0  0  0  0  0  0
  -29.9595  -18.8911   20.2265 C   0  0  0  0  0  0
  -29.8311  -20.0814   22.7618 C   0  0  0  0  0  0
  -29.4581  -20.2037   20.3721 C   0  0  0  0  0  0
  -30.4165  -18.1624   21.3494 C   0  0  0  0  0  0
  -29.3796  -20.8229   21.6444 C   0  0  0  0  0  0
  -27.8668  -22.2685   22.8739 C   0  0  0  0  0  0
  -29.6876  -15.4497   22.6520 C   0  0  0  0  0  0
  -31.1228  -16.8134   21.1668 C   0  0  0  0  0  0
  -28.6103  -24.5288   21.0262 C   0  0  0  0  0  0
  -28.8306  -23.0368   20.6670 C   0  0  0  0  0  0
  -28.5950  -25.4140   19.7657 C   0  0  0  0  0  0
  -28.8804  -22.1354   21.8249 N   0  0  0  0  0  0
  -30.3634  -15.5365   21.3509 N   0  0  0  0  0  0
  -31.4424  -12.3557   19.1590 H   0  0  0  0  0  0
  -30.2572  -11.3061   19.8494 H   0  0  0  0  0  0
  -29.7605  -11.8459   17.4269 H   0  0  0  0  0  0
  -29.6513  -13.5433   17.8228 H   0  0  0  0  0  0
  -27.8399  -11.3109   18.8084 H   0  0  0  0  0  0
  -27.3697  -12.6390   17.7778 H   0  0  0  0  0  0
  -27.6930  -14.2565   19.5726 H   0  0  0  0  0  0
  -28.6581  -11.9598   21.3338 H   0  0  0  0  0  0
  -28.3640  -13.5543   21.8690 H   0  0  0  0  0  0
  -25.2735   -9.5730   22.4723 H   0  0  0  0  0  0
  -23.9989   -7.4674   22.7481 H   0  0  0  0  0  0
  -21.0814   -8.8765   19.8956 H   0  0  0  0  0  0
  -22.3637  -10.9672   19.6147 H   0  0  0  0  0  0
  -21.2030   -7.6150   23.9720 H   0  0  0  0  0  0
  -21.1500   -6.0519   25.9072 H   0  0  0  0  0  0
  -22.0579   -2.7617   23.2825 H   0  0  0  0  0  0
  -22.4045  -11.9916   22.4769 H   0  0  0  0  0  0
  -21.1107  -13.1343   22.2595 H   0  0  0  0  0  0
  -24.6580  -15.8404   20.5457 H   0  0  0  0  0  0
  -26.2936  -15.6425   20.1644 H   0  0  0  0  0  0
  -26.7126  -32.5500   23.1163 H   0  0  0  0  0  0
  -25.0205  -33.9799   25.0558 H   0  0  0  0  0  0
  -22.6835  -31.3017   21.4047 H   0  0  0  0  0  0
  -23.3809  -35.9486   23.3377 H   0  0  0  0  0  0
  -24.3574  -36.8749   22.2045 H   0  0  0  0  0  0
  -23.7186  -37.6419   23.6595 H   0  0  0  0  0  0
  -26.0608  -31.6109   20.5985 H   0  0  0  0  0  0
  -26.8091  -30.8833   21.9857 H   0  0  0  0  0  0
  -28.1011  -29.1419   21.1325 H   0  0  0  0  0  0
  -26.0271  -25.9608   19.0518 H   0  0  0  0  0  0
  -23.9777  -27.2737   19.0767 H   0  0  0  0  0  0
  -23.7156  -30.5876   19.3975 H   0  0  0  0  0  0
  -22.7354  -29.2365   19.8651 H   0  0  0  0  0  0
  -25.1324  -36.1941   25.0833 H   0  0  0  0  0  0
  -20.9929  -28.3199   24.1469 H   0  0  0  0  0  0
  -20.5683  -26.2223   23.3574 H   0  0  0  0  0  0
  -21.6618  -26.7467   22.1208 H   0  0  0  0  0  0
  -19.6907  -25.6327   21.1213 H   0  0  0  0  0  0
  -19.6721  -27.3236   20.6760 H   0  0  0  0  0  0
  -17.4182  -26.6664   21.4016 H   0  0  0  0  0  0
  -18.0325  -26.0094   22.9013 H   0  0  0  0  0  0
  -19.7923  -30.7272   24.2255 H   0  0  0  0  0  0
  -17.5030  -31.6302   24.5183 H   0  0  0  0  0  0
  -15.5356  -30.3077   23.7672 H   0  0  0  0  0  0
  -15.8599  -28.0912   22.7064 H   0  0  0  0  0  0
  -24.5991  -30.6939   25.7787 H   0  0  0  0  0  0
  -24.8931  -32.2713   26.4962 H   0  0  0  0  0  0
  -25.8175  -30.8730   27.0170 H   0  0  0  0  0  0
  -26.2792  -29.6810   24.1166 H   0  0  0  0  0  0
  -27.4159  -29.7247   25.4476 H   0  0  0  0  0  0
  -27.8631  -30.4378   23.9156 H   0  0  0  0  0  0
  -27.2763  -33.3526   26.2145 H   0  0  0  0  0  0
  -28.3935  -32.6789   25.0379 H   0  0  0  0  0  0
  -28.0734  -31.8285   26.5410 H   0  0  0  0  0  0
  -28.2662  -38.0017   24.7568 H   0  0  0  0  0  0
  -28.1012  -36.2560   24.6325 H   0  0  0  0  0  0
  -27.2279  -37.1422   25.8907 H   0  0  0  0  0  0
  -20.9265  -29.8620   21.6898 H   0  0  0  0  0  0
  -26.0186  -38.2857   24.1474 H   0  0  0  0  0  0
  -30.7436  -18.2769   23.4888 H   0  0  0  0  0  0
  -30.0321  -18.4728   19.2321 H   0  0  0  0  0  0
  -29.8052  -20.5196   23.7487 H   0  0  0  0  0  0
  -29.1396  -20.7236   19.4822 H   0  0  0  0  0  0
  -27.4389  -21.3103   23.1725 H   0  0  0  0  0  0
  -27.0316  -22.8851   22.5437 H   0  0  0  0  0  0
  -28.2963  -22.7425   23.7559 H   0  0  0  0  0  0
  -29.8628  -14.4913   23.1442 H   0  0  0  0  0  0
  -28.6157  -15.6159   22.5369 H   0  0  0  0  0  0
  -30.0415  -16.1980   23.3540 H   0  0  0  0  0  0
  -31.9780  -16.7963   21.8453 H   0  0  0  0  0  0
  -31.5529  -16.8680   20.1636 H   0  0  0  0  0  0
  -29.4025  -24.8670   21.6973 H   0  0  0  0  0  0
  -27.6734  -24.6751   21.5629 H   0  0  0  0  0  0
  -29.7715  -22.9527   20.1178 H   0  0  0  0  0  0
  -28.0473  -22.7043   19.9844 H   0  0  0  0  0  0
  -27.8687  -25.0565   19.0387 H   0  0  0  0  0  0
  -29.5583  -25.3080   19.2670 H   0  0  0  0  0  0
  1 25  1  0  0  0
  1 30  2  0  0  0
  1 84  1  0  0  0
  2  3  1  0  0  0
  2 25  1  0  0  0
  2 85  1  0  0  0
  2 86  1  0  0  0
  3  4  1  0  0  0
  3 87  1  0  0  0
  3 88  1  0  0  0
  4  5  1  0  0  0
  4 89  1  0  0  0
  4 90  1  0  0  0
  5  6  1  0  0  0
  5 26  1  0  0  0
  5 91  1  0  0  0
  6 25  1  0  0  0
  6 92  1  0  0  0
  6 93  1  0  0  0
  7  8  2  0  0  0
  7 26  1  0  0  0
  7 29  1  0  0  0
  8  9  1  0  0  0
  8 22  1  0  0  0
  9 10  1  0  0  0
  9 27  2  0  0  0
 10 11  2  0  0  0
 10 15  1  0  0  0
 11 12  1  0  0  0
 11 94  1  0  0  0
 12 13  2  0  0  0
 12 95  1  0  0  0
 13 14  1  0  0  0
 13 31  1  0  0  0
 14 15  2  0  0  0
 14 96  1  0  0  0
 15 97  1  0  0  0
 16 17  2  0  0  0
 16 21  1  0  0  0
 16 31  1  0  0  0
 17 18  1  0  0  0
 17 98  1  0  0  0
 18 19  2  0  0  0
 18 99  1  0  0  0
 19 20  1  0  0  0
 19 24  1  0  0  0
 20 21  2  0  0  0
 20100  1  0  0  0
 21 23  1  0  0  0
 22 28  1  0  0  0
 22 32  2  0  0  0
 26 27  1  0  0  0
 28101  1  0  0  0
 28102  1  0  0  0
 29103  1  0  0  0
 29104  1  0  0  0
 33 34  1  0  0  0
 33 66  1  0  0  0
 33 70  2  0  0  0
 34 36  1  0  0  0
 34 59  1  0  0  0
 34105  1  0  0  0
 35 44  2  0  0  0
 35 45  1  0  0  0
 35 68  1  0  0  0
 36 56  1  0  0  0
 36106  1  0  0  0
 37 39  1  0  0  0
 37 47  1  0  0  0
 37 66  1  0  0  0
 37107  1  0  0  0
 38 43  2  0  0  0
 38 46  1  0  0  0
 38 47  1  0  0  0
 39 64  1  0  0  0
 39 67  2  0  0  0
 40 52  1  0  0  0
 40 53  2  0  0  0
 40 58  1  0  0  0
 41108  1  0  0  0
 41109  1  0  0  0
 41110  1  0  0  0
 41 48  1  0  0  0
 42 43  1  0  0  0
 42 66  1  0  0  0
 42111  1  0  0  0
 42112  1  0  0  0
 43 44  1  0  0  0
 44113  1  0  0  0
 45 46  2  0  0  0
 45114  1  0  0  0
 46115  1  0  0  0
 47116  1  0  0  0
 47117  1  0  0  0
 48 56  1  0  0  0
 48 65  1  0  0  0
 48118  1  0  0  0
 49 50  1  0  0  0
 49 53  1  0  0  0
 49 64  1  0  0  0
 49119  1  0  0  0
 50 51  1  0  0  0
 50120  1  0  0  0
 50121  1  0  0  0
 51 52  1  0  0  0
 51122  1  0  0  0
 51123  1  0  0  0
 52124  1  0  0  0
 52125  1  0  0  0
 53 54  1  0  0  0
 54 55  2  0  0  0
 54126  1  0  0  0
 55 57  1  0  0  0
 55127  1  0  0  0
 56 69  2  0  0  0
 57 58  2  0  0  0
 57128  1  0  0  0
 58129  1  0  0  0
 59 60  1  0  0  0
 59 61  1  0  0  0
 59 62  1  0  0  0
 60130  1  0  0  0
 60131  1  0  0  0
 60132  1  0  0  0
 61133  1  0  0  0
 61134  1  0  0  0
 61135  1  0  0  0
 62136  1  0  0  0
 62137  1  0  0  0
 62138  1  0  0  0
 63 65  1  0  0  0
 63139  1  0  0  0
 63140  1  0  0  0
 63141  1  0  0  0
 64142  1  0  0  0
 65143  1  0  0  0
 68 82  1  0  0  0
 71 73  2  0  0  0
 71 75  1  0  0  0
 71144  1  0  0  0
 72 74  1  0  0  0
 72 75  2  0  0  0
 72145  1  0  0  0
 73 76  1  0  0  0
 73146  1  0  0  0
 74 76  2  0  0  0
 74147  1  0  0  0
 75 79  1  0  0  0
 76 83  1  0  0  0
 77 83  1  0  0  0
 77148  1  0  0  0
 77149  1  0  0  0
 77150  1  0  0  0
 78 84  1  0  0  0
 78151  1  0  0  0
 78152  1  0  0  0
 78153  1  0  0  0
 79 84  1  0  0  0
 79154  1  0  0  0
 79155  1  0  0  0
 80 81  1  0  0  0
 80 82  1  0  0  0
 80156  1  0  0  0
 80157  1  0  0  0
 81 83  1  0  0  0
 81158  1  0  0  0
 81159  1  0  0  0
 82160  1  0  0  0
 82161  1  0  0  0
M  ISO  4   1 100  68 101  82 101  84 100
M  END
> <chiral flag>
0

> <version>
0

> <s_m_source_file>
/data/baiqing/PycharmProjects/Reinvent-master-3.2/result/LINK_invent/BTK/process_docking_weight1_custom_product_contain_oxygen_bond_distance_aromatic_linkinvent_7_9_3/rearranged_h_0014.sdf

> <i_m_source_file_index>
59

> <r_mmod_Potential_Energy-OPLS-2005>
100.385414123535

> <r_mmod_Stretch_Energy-OPLS-2005>
46.212100982666

> <r_mmod_Bend_Energy-OPLS-2005>
142.126251220703

> <r_mmod_Torsional_Energy-OPLS-2005>
238.704498291016

> <r_mmod_Improper_Torsional_Energy-OPLS-2005>
7.92415904998779

> <r_mmod_Van_der_Waal_Energy-OPLS-2005>
180.791030883789

> <r_mmod_Electrostatic_Energy-OPLS-2005>
-317.921661376953

> <r_mmod_Solvation_Energy-OPLS-2005>
-212.284820556641

> <b_mmod_Minimization_Converged-OPLS-2005>
0

> <r_mmod_RMS_Derivative-OPLS-2005>
4.60344171524048

$$$$
60
                    3D
 Structure written by MMmdl.
159169  0  0  1  0            999 V2000
  -30.6076  -14.8045   20.4364 C   0  0  0  0  0  0
  -30.4277  -12.4940   19.4742 C   0  0  0  0  0  0
  -29.5077  -12.5058   18.2349 C   0  0  0  0  0  0
  -28.0368  -12.3201   18.6546 C   0  0  0  0  0  0
  -27.6321  -13.2369   19.8400 C   0  0  2  0  0  0
  -28.6790  -13.2230   20.9731 C   0  0  0  0  0  0
  -25.2486  -13.8203   20.5715 C   0  0  0  0  0  0
  -24.1785  -13.0440   20.9219 C   0  0  0  0  0  0
  -24.6383  -11.6919   20.8751 C   0  0  0  0  0  0
  -23.9063  -10.4293   21.0405 C   0  0  0  0  0  0
  -24.3616   -9.4209   21.9182 C   0  0  0  0  0  0
  -23.6294   -8.2244   22.0751 C   0  0  0  0  0  0
  -22.4277   -8.0278   21.3540 C   0  0  0  0  0  0
  -21.9911   -9.0252   20.4644 C   0  0  0  0  0  0
  -22.7236  -10.2133   20.3054 C   0  0  0  0  0  0
  -21.6857   -6.0733   22.5279 C   0  0  0  0  0  0
  -21.4016   -6.5638   23.8212 C   0  0  0  0  0  0
  -21.3664   -5.6791   24.9173 C   0  0  0  0  0  0
  -21.6046   -4.3053   24.7224 C   0  0  0  0  0  0
  -21.8821   -3.8143   23.4346 C   0  0  0  0  0  0
  -21.9194   -4.6961   22.3402 C   0  0  0  0  0  0
  -22.7808  -13.5220   21.1877 C   0  0  0  0  0  0
  -22.1660   -4.2146   21.0979 F   0  0  0  0  0  0
  -21.5630   -3.4539   25.7737 F   0  0  0  0  0  0
  -29.9656  -13.5822   20.3694 N   0  0  0  0  0  0
  -26.2897  -12.9410   20.3262 N   0  0  0  0  0  0
  -25.9312  -11.6550   20.5750 N   0  0  0  0  0  0
  -22.0452  -12.8210   22.0430 N   0  0  0  0  0  0
  -25.4192  -15.1930   20.4160 N   0  0  0  0  0  0
  -31.8182  -14.8394   20.1933 O   0  0  0  0  0  0
  -21.6640   -6.8875   21.4240 O   0  0  0  0  0  0
  -22.3497  -14.5525   20.6720 O   0  0  0  0  0  0
  -24.6343  -31.8519   23.1946 C   0  0  0  0  0  0
  -25.9150  -32.4737   23.8308 C   0  0  1  0  0  0
  -27.2166  -27.2260   20.1421 C   0  0  0  0  0  0
  -25.5932  -33.8540   24.2229 N   0  0  0  0  0  0
  -23.4331  -30.4728   21.5391 C   0  0  2  0  0  0
  -24.8802  -28.9094   20.1144 C   0  0  0  0  0  0
  -22.7517  -29.4588   22.4903 C   0  0  0  0  0  0
  -18.0297  -28.1393   22.8482 C   0  0  0  0  0  0
  -24.1491  -36.7279   23.2641 C   0  0  0  0  0  0
  -25.9812  -30.7545   21.3783 C   0  0  0  0  0  0
  -26.0542  -29.3721   20.7235 C   0  0  0  0  0  0
  -27.2282  -28.5455   20.7198 C   0  0  0  0  0  0
  -26.0218  -26.8382   19.5018 C   0  0  0  0  0  0
  -24.8706  -27.6517   19.4911 C   0  0  0  0  0  0
  -23.6536  -29.8020   20.1576 C   0  0  0  0  0  0
  -25.4120  -36.3060   24.0321 C   0  0  1  0  0  0
  -20.5901  -28.3709   23.1262 C   0  0  2  0  0  0
  -20.6786  -26.9424   22.5409 C   0  0  0  0  0  0
  -19.5759  -26.6386   21.5216 C   0  0  0  0  0  0
  -18.1940  -26.7935   22.1627 C   0  0  0  0  0  0
  -19.1550  -28.8870   23.2867 C   0  0  0  0  0  0
  -18.9468  -30.1468   23.8887 C   0  0  0  0  0  0
  -17.6466  -30.6592   24.0564 C   0  0  0  0  0  0
  -25.9060  -34.9431   23.5081 C   0  0  0  0  0  0
  -16.5358  -29.9088   23.6333 C   0  0  0  0  0  0
  -16.7281  -28.6507   23.0351 C   0  0  0  0  0  0
  -26.4503  -31.6576   25.0715 C   0  0  0  0  0  0
  -25.3716  -31.3738   26.1432 C   0  0  0  0  0  0
  -27.0349  -30.2984   24.6226 C   0  0  0  0  0  0
  -27.6042  -32.4333   25.7496 C   0  0  0  0  0  0
  -27.5578  -37.1798   24.8466 C   0  0  0  0  0  0
  -21.4221  -29.3048   22.3645 N   0  0  0  0  0  0
  -26.4292  -37.3762   23.9405 N   0  0  0  0  0  0
  -24.7022  -31.0454   22.0935 N   0  0  0  0  0  0
  -23.4199  -28.8137   23.3025 O   0  0  0  0  0  0
  -28.3022  -26.3120   20.1501 O   0  0  0  0  0  0
  -26.5641  -34.8913   22.4656 O   0  0  0  0  0  0
  -23.5485  -32.1356   23.7219 O   0  0  0  0  0  0
  -29.0155  -19.2024   18.4355 C   0  0  0  0  0  0
  -28.8954  -20.5372   18.9379 C   0  0  0  0  0  0
  -29.4120  -19.7232   21.1606 C   0  0  0  0  0  0
  -29.5448  -18.3747   20.6393 C   0  0  0  0  0  0
  -29.3456  -18.1375   19.3076 C   0  0  0  0  0  0
  -29.0903  -20.8740   20.3116 C   0  0  0  0  0  0
  -29.9238  -17.0368   21.2884 C   0  0  0  0  0  0
  -29.5539  -16.6362   19.0538 C   0  0  0  0  0  0
  -30.9774  -23.5163   21.1604 C   0  0  0  0  0  0
  -30.3580  -23.9229   19.8184 C   0  0  0  0  0  0
  -29.9404  -22.5993   21.8267 C   0  0  0  0  0  0
  -28.8802  -23.5637   19.9697 C   0  0  2  0  0  0
  -28.0886  -24.8717   20.5933 C   0  0  0  0  0  0
  -28.9655  -22.2648   20.7874 N   0  0  0  0  0  0
  -29.8591  -15.9904   20.3769 N   0  0  0  0  0  0
  -30.2469  -16.9528   22.4780 O   0  0  0  0  0  0
  -31.4670  -12.6187   19.1668 H   0  0  0  0  0  0
  -30.3797  -11.5310   19.9851 H   0  0  0  0  0  0
  -29.8013  -11.7188   17.5390 H   0  0  0  0  0  0
  -29.6219  -13.4488   17.6976 H   0  0  0  0  0  0
  -27.9090  -11.2750   18.9387 H   0  0  0  0  0  0
  -27.3753  -12.4851   17.8035 H   0  0  0  0  0  0
  -27.6071  -14.2478   19.4358 H   0  0  0  0  0  0
  -28.7320  -12.2426   21.4488 H   0  0  0  0  0  0
  -28.4081  -13.9365   21.7533 H   0  0  0  0  0  0
  -25.2759   -9.5692   22.4760 H   0  0  0  0  0  0
  -24.0007   -7.4636   22.7470 H   0  0  0  0  0  0
  -21.0843   -8.8767   19.8951 H   0  0  0  0  0  0
  -22.3688  -10.9671   19.6165 H   0  0  0  0  0  0
  -21.2008   -7.6146   23.9716 H   0  0  0  0  0  0
  -21.1485   -6.0518   25.9078 H   0  0  0  0  0  0
  -22.0597   -2.7606   23.2844 H   0  0  0  0  0  0
  -22.4070  -11.9876   22.4828 H   0  0  0  0  0  0
  -21.1067  -13.1232   22.2627 H   0  0  0  0  0  0
  -24.6542  -15.8483   20.5359 H   0  0  0  0  0  0
  -26.2733  -15.6351   20.1023 H   0  0  0  0  0  0
  -26.7215  -32.5376   23.1046 H   0  0  0  0  0  0
  -25.0068  -33.9670   25.0367 H   0  0  0  0  0  0
  -22.7315  -31.2960   21.3890 H   0  0  0  0  0  0
  -23.3752  -35.9614   23.3302 H   0  0  0  0  0  0
  -24.3579  -36.8908   22.2056 H   0  0  0  0  0  0
  -23.7248  -37.6479   23.6672 H   0  0  0  0  0  0
  -26.1223  -31.5114   20.6053 H   0  0  0  0  0  0
  -26.8576  -30.8063   22.0125 H   0  0  0  0  0  0
  -28.1294  -28.8977   21.2018 H   0  0  0  0  0  0
  -25.9673  -25.8773   19.0104 H   0  0  0  0  0  0
  -23.9735  -27.2930   19.0051 H   0  0  0  0  0  0
  -23.7827  -30.5758   19.4000 H   0  0  0  0  0  0
  -22.7708  -29.2378   19.8518 H   0  0  0  0  0  0
  -25.1305  -36.1902   25.0814 H   0  0  0  0  0  0
  -20.9994  -28.3295   24.1383 H   0  0  0  0  0  0
  -20.5694  -26.2321   23.3618 H   0  0  0  0  0  0
  -21.6652  -26.7452   22.1197 H   0  0  0  0  0  0
  -19.6922  -25.6294   21.1254 H   0  0  0  0  0  0
  -19.6695  -27.3190   20.6741 H   0  0  0  0  0  0
  -17.4210  -26.6681   21.4028 H   0  0  0  0  0  0
  -18.0339  -26.0081   22.9027 H   0  0  0  0  0  0
  -19.7944  -30.7290   24.2250 H   0  0  0  0  0  0
  -17.5019  -31.6270   24.5170 H   0  0  0  0  0  0
  -15.5357  -30.2985   23.7663 H   0  0  0  0  0  0
  -15.8684  -28.0825   22.7066 H   0  0  0  0  0  0
  -24.5898  -30.7077   25.7764 H   0  0  0  0  0  0
  -24.8899  -32.2909   26.4831 H   0  0  0  0  0  0
  -25.8028  -30.8938   27.0225 H   0  0  0  0  0  0
  -26.2935  -29.6732   24.1237 H   0  0  0  0  0  0
  -27.3998  -29.7254   25.4759 H   0  0  0  0  0  0
  -27.8829  -30.4244   23.9490 H   0  0  0  0  0  0
  -27.2631  -33.3642   26.2039 H   0  0  0  0  0  0
  -28.3867  -32.6883   25.0337 H   0  0  0  0  0  0
  -28.0691  -31.8485   26.5444 H   0  0  0  0  0  0
  -28.2595  -38.0095   24.7503 H   0  0  0  0  0  0
  -28.1073  -36.2623   24.6302 H   0  0  0  0  0  0
  -27.2294  -37.1459   25.8869 H   0  0  0  0  0  0
  -20.9418  -29.8755   21.6829 H   0  0  0  0  0  0
  -26.0167  -38.2835   24.1400 H   0  0  0  0  0  0
  -28.8584  -19.0100   17.3831 H   0  0  0  0  0  0
  -28.6489  -21.3138   18.2292 H   0  0  0  0  0  0
  -29.5597  -19.8530   22.2221 H   0  0  0  0  0  0
  -30.3745  -16.4928   18.3479 H   0  0  0  0  0  0
  -28.6551  -16.2032   18.6141 H   0  0  0  0  0  0
  -31.1751  -24.3853   21.7894 H   0  0  0  0  0  0
  -31.9263  -23.0005   21.0054 H   0  0  0  0  0  0
  -30.7972  -23.3276   19.0165 H   0  0  0  0  0  0
  -30.5263  -24.9718   19.5713 H   0  0  0  0  0  0
  -29.4310  -23.1244   22.6363 H   0  0  0  0  0  0
  -30.4459  -21.7510   22.2846 H   0  0  0  0  0  0
  -28.4592  -23.3647   18.9838 H   0  0  0  0  0  0
  -28.3204  -24.9062   21.6574 H   0  0  0  0  0  0
  -27.0257  -24.6348   20.5725 H   0  0  0  0  0  0
  1 25  1  0  0  0
  1 30  2  0  0  0
  1 85  1  0  0  0
  2  3  1  0  0  0
  2 25  1  0  0  0
  2 87  1  0  0  0
  2 88  1  0  0  0
  3  4  1  0  0  0
  3 89  1  0  0  0
  3 90  1  0  0  0
  4  5  1  0  0  0
  4 91  1  0  0  0
  4 92  1  0  0  0
  5  6  1  0  0  0
  5 26  1  0  0  0
  5 93  1  0  0  0
  6 25  1  0  0  0
  6 94  1  0  0  0
  6 95  1  0  0  0
  7  8  2  0  0  0
  7 26  1  0  0  0
  7 29  1  0  0  0
  8  9  1  0  0  0
  8 22  1  0  0  0
  9 10  1  0  0  0
  9 27  2  0  0  0
 10 11  2  0  0  0
 10 15  1  0  0  0
 11 12  1  0  0  0
 11 96  1  0  0  0
 12 13  2  0  0  0
 12 97  1  0  0  0
 13 14  1  0  0  0
 13 31  1  0  0  0
 14 15  2  0  0  0
 14 98  1  0  0  0
 15 99  1  0  0  0
 16 17  2  0  0  0
 16 21  1  0  0  0
 16 31  1  0  0  0
 17 18  1  0  0  0
 17100  1  0  0  0
 18 19  2  0  0  0
 18101  1  0  0  0
 19 20  1  0  0  0
 19 24  1  0  0  0
 20 21  2  0  0  0
 20102  1  0  0  0
 21 23  1  0  0  0
 22 28  1  0  0  0
 22 32  2  0  0  0
 26 27  1  0  0  0
 28103  1  0  0  0
 28104  1  0  0  0
 29105  1  0  0  0
 29106  1  0  0  0
 33 34  1  0  0  0
 33 66  1  0  0  0
 33 70  2  0  0  0
 34 36  1  0  0  0
 34 59  1  0  0  0
 34107  1  0  0  0
 35 44  2  0  0  0
 35 45  1  0  0  0
 35 68  1  0  0  0
 36 56  1  0  0  0
 36108  1  0  0  0
 37 39  1  0  0  0
 37 47  1  0  0  0
 37 66  1  0  0  0
 37109  1  0  0  0
 38 43  2  0  0  0
 38 46  1  0  0  0
 38 47  1  0  0  0
 39 64  1  0  0  0
 39 67  2  0  0  0
 40 52  1  0  0  0
 40 53  2  0  0  0
 40 58  1  0  0  0
 41110  1  0  0  0
 41111  1  0  0  0
 41112  1  0  0  0
 41 48  1  0  0  0
 42 43  1  0  0  0
 42 66  1  0  0  0
 42113  1  0  0  0
 42114  1  0  0  0
 43 44  1  0  0  0
 44115  1  0  0  0
 45 46  2  0  0  0
 45116  1  0  0  0
 46117  1  0  0  0
 47118  1  0  0  0
 47119  1  0  0  0
 48 56  1  0  0  0
 48 65  1  0  0  0
 48120  1  0  0  0
 49 50  1  0  0  0
 49 53  1  0  0  0
 49 64  1  0  0  0
 49121  1  0  0  0
 50 51  1  0  0  0
 50122  1  0  0  0
 50123  1  0  0  0
 51 52  1  0  0  0
 51124  1  0  0  0
 51125  1  0  0  0
 52126  1  0  0  0
 52127  1  0  0  0
 53 54  1  0  0  0
 54 55  2  0  0  0
 54128  1  0  0  0
 55 57  1  0  0  0
 55129  1  0  0  0
 56 69  2  0  0  0
 57 58  2  0  0  0
 57130  1  0  0  0
 58131  1  0  0  0
 59 60  1  0  0  0
 59 61  1  0  0  0
 59 62  1  0  0  0
 60132  1  0  0  0
 60133  1  0  0  0
 60134  1  0  0  0
 61135  1  0  0  0
 61136  1  0  0  0
 61137  1  0  0  0
 62138  1  0  0  0
 62139  1  0  0  0
 62140  1  0  0  0
 63 65  1  0  0  0
 63141  1  0  0  0
 63142  1  0  0  0
 63143  1  0  0  0
 64144  1  0  0  0
 65145  1  0  0  0
 68 83  1  0  0  0
 71 72  2  0  0  0
 71 75  1  0  0  0
 71146  1  0  0  0
 72 76  1  0  0  0
 72147  1  0  0  0
 73 74  1  0  0  0
 73 76  2  0  0  0
 73148  1  0  0  0
 74 75  2  0  0  0
 74 77  1  0  0  0
 75 78  1  0  0  0
 76 84  1  0  0  0
 77 85  1  0  0  0
 77 86  2  0  0  0
 78 85  1  0  0  0
 78149  1  0  0  0
 78150  1  0  0  0
 79 80  1  0  0  0
 79 81  1  0  0  0
 79151  1  0  0  0
 79152  1  0  0  0
 80 82  1  0  0  0
 80153  1  0  0  0
 80154  1  0  0  0
 81 84  1  0  0  0
 81155  1  0  0  0
 81156  1  0  0  0
 82 83  1  0  0  0
 82 84  1  0  0  0
 82157  1  0  0  0
 83158  1  0  0  0
 83159  1  0  0  0
M  ISO  4   1 100  68 101  83 101  85 100
M  END
> <chiral flag>
0

> <version>
0

> <s_m_source_file>
/data/baiqing/PycharmProjects/Reinvent-master-3.2/result/LINK_invent/BTK/process_docking_weight1_custom_product_contain_oxygen_bond_distance_aromatic_linkinvent_7_9_3/rearranged_h_0014.sdf

> <i_m_source_file_index>
60

> <r_mmod_Potential_Energy-OPLS-2005>
477.968170166016

> <r_mmod_Stretch_Energy-OPLS-2005>
150.327575683594

> <r_mmod_Bend_Energy-OPLS-2005>
280.430908203125

> <r_mmod_Torsional_Energy-OPLS-2005>
381.299682617188

> <r_mmod_Improper_Torsional_Energy-OPLS-2005>
18.6613864898682

> <r_mmod_Van_der_Waal_Energy-OPLS-2005>
127.897720336914

> <r_mmod_Electrostatic_Energy-OPLS-2005>
-377.343353271484

> <r_mmod_Solvation_Energy-OPLS-2005>
-214.931518554688

> <b_mmod_Minimization_Converged-OPLS-2005>
0

> <r_mmod_RMS_Derivative-OPLS-2005>
0.503376841545105

$$$$
61
                    3D
 Structure written by MMmdl.
155163  0  0  1  0            999 V2000
  -30.6141  -14.6533   20.5046 C   0  0  0  0  0  0
  -30.4243  -12.4051   19.4551 C   0  0  0  0  0  0
  -29.5033  -12.5522   18.2240 C   0  0  0  0  0  0
  -28.0273  -12.3582   18.6232 C   0  0  0  0  0  0
  -27.6425  -13.2197   19.8567 C   0  0  2  0  0  0
  -28.6824  -13.0911   20.9928 C   0  0  0  0  0  0
  -25.2538  -13.8162   20.5708 C   0  0  0  0  0  0
  -24.1797  -13.0451   20.9194 C   0  0  0  0  0  0
  -24.6364  -11.6900   20.8723 C   0  0  0  0  0  0
  -23.9030  -10.4296   21.0381 C   0  0  0  0  0  0
  -24.3595   -9.4220   21.9168 C   0  0  0  0  0  0
  -23.6309   -8.2247   22.0720 C   0  0  0  0  0  0
  -22.4295   -8.0269   21.3521 C   0  0  0  0  0  0
  -21.9927   -9.0220   20.4614 C   0  0  0  0  0  0
  -22.7208  -10.2116   20.3029 C   0  0  0  0  0  0
  -21.6873   -6.0728   22.5266 C   0  0  0  0  0  0
  -21.4036   -6.5639   23.8205 C   0  0  0  0  0  0
  -21.3678   -5.6803   24.9181 C   0  0  0  0  0  0
  -21.6048   -4.3065   24.7247 C   0  0  0  0  0  0
  -21.8822   -3.8137   23.4375 C   0  0  0  0  0  0
  -21.9229   -4.6951   22.3415 C   0  0  0  0  0  0
  -22.7824  -13.5207   21.1899 C   0  0  0  0  0  0
  -22.1676   -4.2130   21.0994 F   0  0  0  0  0  0
  -21.5640   -3.4551   25.7760 F   0  0  0  0  0  0
  -30.0051  -13.4257   20.4351 N   0  0  0  0  0  0
  -26.2915  -12.9339   20.3282 N   0  0  0  0  0  0
  -25.9287  -11.6479   20.5689 N   0  0  0  0  0  0
  -22.0505  -12.8153   22.0429 N   0  0  0  0  0  0
  -25.4373  -15.1883   20.4108 N   0  0  0  0  0  0
  -31.7812  -14.8119   20.1361 O   0  0  0  0  0  0
  -21.6665   -6.8848   21.4218 O   0  0  0  0  0  0
  -22.3503  -14.5537   20.6795 O   0  0  0  0  0  0
  -24.6199  -31.8645   23.2017 C   0  0  0  0  0  0
  -25.9023  -32.4841   23.8379 C   0  0  1  0  0  0
  -27.2432  -27.3444   20.1332 C   0  0  0  0  0  0
  -25.5819  -33.8635   24.2296 N   0  0  0  0  0  0
  -23.4152  -30.4798   21.5527 C   0  0  2  0  0  0
  -24.8701  -28.9392   20.1153 C   0  0  0  0  0  0
  -22.7448  -29.4625   22.5046 C   0  0  0  0  0  0
  -18.0273  -28.1369   22.8523 C   0  0  0  0  0  0
  -24.1482  -36.7300   23.2650 C   0  0  0  0  0  0
  -25.9513  -30.8084   21.3698 C   0  0  0  0  0  0
  -26.0343  -29.4351   20.7133 C   0  0  0  0  0  0
  -27.2255  -28.6500   20.7111 C   0  0  0  0  0  0
  -26.0538  -26.8979   19.5112 C   0  0  0  0  0  0
  -24.8810  -27.6759   19.5067 C   0  0  0  0  0  0
  -23.6245  -29.8014   20.1713 C   0  0  0  0  0  0
  -25.4123  -36.3136   24.0346 C   0  0  1  0  0  0
  -20.5879  -28.3646   23.1348 C   0  0  2  0  0  0
  -20.6765  -26.9376   22.5457 C   0  0  0  0  0  0
  -19.5724  -26.6386   21.5258 C   0  0  0  0  0  0
  -18.1908  -26.7924   22.1657 C   0  0  0  0  0  0
  -19.1526  -28.8836   23.2921 C   0  0  0  0  0  0
  -18.9447  -30.1465   23.8891 C   0  0  0  0  0  0
  -17.6446  -30.6585   24.0563 C   0  0  0  0  0  0
  -25.9043  -34.9489   23.5149 C   0  0  0  0  0  0
  -16.5337  -29.9072   23.6347 C   0  0  0  0  0  0
  -16.7268  -28.6495   23.0357 C   0  0  0  0  0  0
  -26.4383  -31.6619   25.0725 C   0  0  0  0  0  0
  -25.3598  -31.3712   26.1428 C   0  0  0  0  0  0
  -27.0218  -30.3073   24.6134 C   0  0  0  0  0  0
  -27.5989  -32.4322   25.7473 C   0  0  0  0  0  0
  -27.5604  -37.1803   24.8467 C   0  0  0  0  0  0
  -21.4179  -29.2992   22.3748 N   0  0  0  0  0  0
  -26.4300  -37.3829   23.9418 N   0  0  0  0  0  0
  -24.6809  -31.0650   22.0983 N   0  0  0  0  0  0
  -23.4169  -28.8220   23.3153 O   0  0  0  0  0  0
  -28.3735  -26.5136   20.2020 O   0  0  0  0  0  0
  -26.5672  -34.8955   22.4756 O   0  0  0  0  0  0
  -23.5373  -32.1425   23.7360 O   0  0  0  0  0  0
  -28.7069  -17.9452   20.6341 C   0  0  0  0  0  0
  -28.7279  -19.3656   20.4939 C   0  0  0  0  0  0
  -31.1115  -17.8837   20.6166 C   0  0  0  0  0  0
  -29.8948  -17.1565   20.6812 C   0  0  0  0  0  0
  -29.9433  -20.0904   20.3880 C   0  0  0  0  0  0
  -31.1358  -19.3028   20.4687 C   0  0  0  0  0  0
  -30.6273  -21.7775   18.8312 C   0  0  0  0  0  0
  -29.3214  -24.0359   20.4808 C   0  0  0  0  0  0
  -28.9219  -22.4856   20.4889 C   0  0  0  0  0  0
  -28.1462  -25.0540   20.1731 C   0  0  0  0  0  0
  -29.7887  -15.6998   20.8330 N   0  0  0  0  0  0
  -29.9984  -21.5119   20.1287 N   0  0  0  0  0  0
  -32.3458  -19.9117   20.3923 F   0  0  0  0  0  0
  -31.4661  -12.5197   19.1585 H   0  0  0  0  0  0
  -30.3329  -11.4099   19.8881 H   0  0  0  0  0  0
  -29.7796  -11.8474   17.4351 H   0  0  0  0  0  0
  -29.6315  -13.5476   17.7941 H   0  0  0  0  0  0
  -27.8739  -11.2993   18.8373 H   0  0  0  0  0  0
  -27.3769  -12.5970   17.7804 H   0  0  0  0  0  0
  -27.6524  -14.2535   19.5159 H   0  0  0  0  0  0
  -28.6891  -12.0771   21.3952 H   0  0  0  0  0  0
  -28.4054  -13.7426   21.8254 H   0  0  0  0  0  0
  -25.2722   -9.5751   22.4731 H   0  0  0  0  0  0
  -24.0057   -7.4653   22.7421 H   0  0  0  0  0  0
  -21.0872   -8.8682   19.8904 H   0  0  0  0  0  0
  -22.3617  -10.9650   19.6129 H   0  0  0  0  0  0
  -21.1989   -7.6153   23.9681 H   0  0  0  0  0  0
  -21.1514   -6.0552   25.9070 H   0  0  0  0  0  0
  -22.0593   -2.7599   23.2884 H   0  0  0  0  0  0
  -22.4195  -11.9796   22.4748 H   0  0  0  0  0  0
  -21.1105  -13.1052   22.2635 H   0  0  0  0  0  0
  -24.6808  -15.8586   20.4721 H   0  0  0  0  0  0
  -26.2977  -15.5995   20.0724 H   0  0  0  0  0  0
  -26.7110  -32.5540   23.1167 H   0  0  0  0  0  0
  -24.9771  -33.9780   25.0306 H   0  0  0  0  0  0
  -22.7096  -31.3004   21.4085 H   0  0  0  0  0  0
  -23.3782  -35.9584   23.3293 H   0  0  0  0  0  0
  -24.3561  -36.8935   22.2059 H   0  0  0  0  0  0
  -23.7164  -37.6476   23.6677 H   0  0  0  0  0  0
  -26.0725  -31.5744   20.6029 H   0  0  0  0  0  0
  -26.8306  -30.8647   21.9969 H   0  0  0  0  0  0
  -28.1173  -29.0280   21.1920 H   0  0  0  0  0  0
  -25.9969  -25.9289   19.0387 H   0  0  0  0  0  0
  -23.9836  -27.2867   19.0452 H   0  0  0  0  0  0
  -23.7053  -30.5668   19.3990 H   0  0  0  0  0  0
  -22.7554  -29.2015   19.8976 H   0  0  0  0  0  0
  -25.1314  -36.2017   25.0842 H   0  0  0  0  0  0
  -20.9951  -28.3191   24.1470 H   0  0  0  0  0  0
  -20.5694  -26.2235   23.3628 H   0  0  0  0  0  0
  -21.6621  -26.7435   22.1222 H   0  0  0  0  0  0
  -19.6869  -25.6306   21.1243 H   0  0  0  0  0  0
  -19.6663  -27.3244   20.6813 H   0  0  0  0  0  0
  -17.4195  -26.6715   21.4037 H   0  0  0  0  0  0
  -18.0267  -26.0058   22.9033 H   0  0  0  0  0  0
  -19.7919  -30.7315   24.2215 H   0  0  0  0  0  0
  -17.4981  -31.6259   24.5151 H   0  0  0  0  0  0
  -15.5331  -30.2947   23.7676 H   0  0  0  0  0  0
  -15.8675  -28.0812   22.7042 H   0  0  0  0  0  0
  -24.5794  -30.7069   25.7686 H   0  0  0  0  0  0
  -24.8725  -32.2835   26.4883 H   0  0  0  0  0  0
  -25.7859  -30.8835   27.0193 H   0  0  0  0  0  0
  -26.2773  -29.6878   24.1115 H   0  0  0  0  0  0
  -27.3879  -29.7301   25.4626 H   0  0  0  0  0  0
  -27.8658  -30.4409   23.9368 H   0  0  0  0  0  0
  -27.2650  -33.3625   26.2086 H   0  0  0  0  0  0
  -28.3735  -32.6861   25.0223 H   0  0  0  0  0  0
  -28.0699  -31.8392   26.5323 H   0  0  0  0  0  0
  -28.2631  -38.0104   24.7601 H   0  0  0  0  0  0
  -28.1095  -36.2649   24.6211 H   0  0  0  0  0  0
  -27.2314  -37.1355   25.8864 H   0  0  0  0  0  0
  -20.9362  -29.8600   21.6851 H   0  0  0  0  0  0
  -26.0210  -38.2916   24.1414 H   0  0  0  0  0  0
  -27.7365  -17.4653   20.6830 H   0  0  0  0  0  0
  -27.7836  -19.8880   20.4303 H   0  0  0  0  0  0
  -32.0567  -17.3663   20.6755 H   0  0  0  0  0  0
  -31.5669  -22.3207   18.9593 H   0  0  0  0  0  0
  -29.9708  -22.3899   18.2088 H   0  0  0  0  0  0
  -30.8348  -20.8726   18.2571 H   0  0  0  0  0  0
  -30.1073  -24.2196   19.7482 H   0  0  0  0  0  0
  -29.7856  -24.2779   21.4409 H   0  0  0  0  0  0
  -28.1002  -22.3461   19.7854 H   0  0  0  0  0  0
  -28.5117  -22.2241   21.4688 H   0  0  0  0  0  0
  -27.3195  -24.8268   20.8513 H   0  0  0  0  0  0
  -27.8007  -24.7981   19.1718 H   0  0  0  0  0  0
  -28.8666  -15.3751   21.0809 H   0  0  0  0  0  0
  1 25  1  0  0  0
  1 30  2  0  0  0
  1 81  1  0  0  0
  2  3  1  0  0  0
  2 25  1  0  0  0
  2 84  1  0  0  0
  2 85  1  0  0  0
  3  4  1  0  0  0
  3 86  1  0  0  0
  3 87  1  0  0  0
  4  5  1  0  0  0
  4 88  1  0  0  0
  4 89  1  0  0  0
  5  6  1  0  0  0
  5 26  1  0  0  0
  5 90  1  0  0  0
  6 25  1  0  0  0
  6 91  1  0  0  0
  6 92  1  0  0  0
  7  8  2  0  0  0
  7 26  1  0  0  0
  7 29  1  0  0  0
  8  9  1  0  0  0
  8 22  1  0  0  0
  9 10  1  0  0  0
  9 27  2  0  0  0
 10 11  2  0  0  0
 10 15  1  0  0  0
 11 12  1  0  0  0
 11 93  1  0  0  0
 12 13  2  0  0  0
 12 94  1  0  0  0
 13 14  1  0  0  0
 13 31  1  0  0  0
 14 15  2  0  0  0
 14 95  1  0  0  0
 15 96  1  0  0  0
 16 17  2  0  0  0
 16 21  1  0  0  0
 16 31  1  0  0  0
 17 18  1  0  0  0
 17 97  1  0  0  0
 18 19  2  0  0  0
 18 98  1  0  0  0
 19 20  1  0  0  0
 19 24  1  0  0  0
 20 21  2  0  0  0
 20 99  1  0  0  0
 21 23  1  0  0  0
 22 28  1  0  0  0
 22 32  2  0  0  0
 26 27  1  0  0  0
 28100  1  0  0  0
 28101  1  0  0  0
 29102  1  0  0  0
 29103  1  0  0  0
 33 34  1  0  0  0
 33 66  1  0  0  0
 33 70  2  0  0  0
 34 36  1  0  0  0
 34 59  1  0  0  0
 34104  1  0  0  0
 35 44  2  0  0  0
 35 45  1  0  0  0
 35 68  1  0  0  0
 36 56  1  0  0  0
 36105  1  0  0  0
 37 39  1  0  0  0
 37 47  1  0  0  0
 37 66  1  0  0  0
 37106  1  0  0  0
 38 43  2  0  0  0
 38 46  1  0  0  0
 38 47  1  0  0  0
 39 64  1  0  0  0
 39 67  2  0  0  0
 40 52  1  0  0  0
 40 53  2  0  0  0
 40 58  1  0  0  0
 41107  1  0  0  0
 41108  1  0  0  0
 41109  1  0  0  0
 41 48  1  0  0  0
 42 43  1  0  0  0
 42 66  1  0  0  0
 42110  1  0  0  0
 42111  1  0  0  0
 43 44  1  0  0  0
 44112  1  0  0  0
 45 46  2  0  0  0
 45113  1  0  0  0
 46114  1  0  0  0
 47115  1  0  0  0
 47116  1  0  0  0
 48 56  1  0  0  0
 48 65  1  0  0  0
 48117  1  0  0  0
 49 50  1  0  0  0
 49 53  1  0  0  0
 49 64  1  0  0  0
 49118  1  0  0  0
 50 51  1  0  0  0
 50119  1  0  0  0
 50120  1  0  0  0
 51 52  1  0  0  0
 51121  1  0  0  0
 51122  1  0  0  0
 52123  1  0  0  0
 52124  1  0  0  0
 53 54  1  0  0  0
 54 55  2  0  0  0
 54125  1  0  0  0
 55 57  1  0  0  0
 55126  1  0  0  0
 56 69  2  0  0  0
 57 58  2  0  0  0
 57127  1  0  0  0
 58128  1  0  0  0
 59 60  1  0  0  0
 59 61  1  0  0  0
 59 62  1  0  0  0
 60129  1  0  0  0
 60130  1  0  0  0
 60131  1  0  0  0
 61132  1  0  0  0
 61133  1  0  0  0
 61134  1  0  0  0
 62135  1  0  0  0
 62136  1  0  0  0
 62137  1  0  0  0
 63 65  1  0  0  0
 63138  1  0  0  0
 63139  1  0  0  0
 63140  1  0  0  0
 64141  1  0  0  0
 65142  1  0  0  0
 68 80  1  0  0  0
 71 72  2  0  0  0
 71 74  1  0  0  0
 71143  1  0  0  0
 72 75  1  0  0  0
 72144  1  0  0  0
 73 74  2  0  0  0
 73 76  1  0  0  0
 73145  1  0  0  0
 74 81  1  0  0  0
 75 76  2  0  0  0
 75 82  1  0  0  0
 76 83  1  0  0  0
 77 82  1  0  0  0
 77146  1  0  0  0
 77147  1  0  0  0
 77148  1  0  0  0
 78 79  1  0  0  0
 78 80  1  0  0  0
 78149  1  0  0  0
 78150  1  0  0  0
 79 82  1  0  0  0
 79151  1  0  0  0
 79152  1  0  0  0
 80153  1  0  0  0
 80154  1  0  0  0
 81155  1  0  0  0
M  ISO  4   1 100  68 101  80 101  81 100
M  END
> <chiral flag>
0

> <version>
0

> <s_m_source_file>
/data/baiqing/PycharmProjects/Reinvent-master-3.2/result/LINK_invent/BTK/process_docking_weight1_custom_product_contain_oxygen_bond_distance_aromatic_linkinvent_7_9_3/rearranged_h_0014.sdf

> <i_m_source_file_index>
61

> <r_mmod_Potential_Energy-OPLS-2005>
110.158790588379

> <r_mmod_Stretch_Energy-OPLS-2005>
79.1269607543945

> <r_mmod_Bend_Energy-OPLS-2005>
138.864608764648

> <r_mmod_Torsional_Energy-OPLS-2005>
226.121536254883

> <r_mmod_Improper_Torsional_Energy-OPLS-2005>
8.08203792572021

> <r_mmod_Van_der_Waal_Energy-OPLS-2005>
151.491958618164

> <r_mmod_Electrostatic_Energy-OPLS-2005>
-315.649169921875

> <r_mmod_Solvation_Energy-OPLS-2005>
-225.186111450195

> <b_mmod_Minimization_Converged-OPLS-2005>
0

> <r_mmod_RMS_Derivative-OPLS-2005>
6.46886205673218

$$$$
62
                    3D
 Structure written by MMmdl.
163172  0  0  1  0            999 V2000
  -30.6828  -14.4602   20.6132 C   0  0  0  0  0  0
  -30.4363  -12.3135   19.4074 C   0  0  0  0  0  0
  -29.4972  -12.5182   18.1993 C   0  0  0  0  0  0
  -28.0172  -12.3757   18.6107 C   0  0  0  0  0  0
  -27.6667  -13.1984   19.8791 C   0  0  2  0  0  0
  -28.7070  -12.9357   20.9906 C   0  0  0  0  0  0
  -25.2616  -13.8141   20.5672 C   0  0  0  0  0  0
  -24.1852  -13.0434   20.9171 C   0  0  0  0  0  0
  -24.6387  -11.6896   20.8722 C   0  0  0  0  0  0
  -23.9047  -10.4291   21.0398 C   0  0  0  0  0  0
  -24.3605   -9.4210   21.9179 C   0  0  0  0  0  0
  -23.6285   -8.2243   22.0751 C   0  0  0  0  0  0
  -22.4267   -8.0279   21.3539 C   0  0  0  0  0  0
  -21.9900   -9.0249   20.4640 C   0  0  0  0  0  0
  -22.7222  -10.2129   20.3046 C   0  0  0  0  0  0
  -21.6852   -6.0734   22.5281 C   0  0  0  0  0  0
  -21.4009   -6.5638   23.8214 C   0  0  0  0  0  0
  -21.3657   -5.6790   24.9175 C   0  0  0  0  0  0
  -21.6047   -4.3054   24.7226 C   0  0  0  0  0  0
  -21.8819   -3.8145   23.4347 C   0  0  0  0  0  0
  -21.9192   -4.6961   22.3403 C   0  0  0  0  0  0
  -22.7878  -13.5242   21.1844 C   0  0  0  0  0  0
  -22.1663   -4.2152   21.0979 F   0  0  0  0  0  0
  -21.5630   -3.4535   25.7734 F   0  0  0  0  0  0
  -30.0411  -13.2695   20.4527 N   0  0  0  0  0  0
  -26.3047  -12.9293   20.3364 N   0  0  0  0  0  0
  -25.9311  -11.6462   20.5746 N   0  0  0  0  0  0
  -22.0501  -12.8233   22.0387 N   0  0  0  0  0  0
  -25.4362  -15.1859   20.4087 N   0  0  0  0  0  0
  -31.7836  -14.7013   20.1058 O   0  0  0  0  0  0
  -21.6635   -6.8874   21.4239 O   0  0  0  0  0  0
  -22.3571  -14.5555   20.6701 O   0  0  0  0  0  0
  -24.6149  -31.8680   23.2115 C   0  0  0  0  0  0
  -25.9038  -32.4827   23.8405 C   0  0  1  0  0  0
  -27.2304  -27.4330   20.0987 C   0  0  0  0  0  0
  -25.5894  -33.8624   24.2339 N   0  0  0  0  0  0
  -23.4037  -30.4929   21.5519 C   0  0  2  0  0  0
  -24.8499  -28.9628   20.1134 C   0  0  0  0  0  0
  -22.7414  -29.4656   22.4986 C   0  0  0  0  0  0
  -18.0271  -28.1376   22.8501 C   0  0  0  0  0  0
  -24.1485  -36.7303   23.2642 C   0  0  0  0  0  0
  -25.9330  -30.8354   21.3626 C   0  0  0  0  0  0
  -26.0116  -29.4700   20.7097 C   0  0  0  0  0  0
  -27.2078  -28.7144   20.6972 C   0  0  0  0  0  0
  -26.0546  -26.9497   19.4831 C   0  0  0  0  0  0
  -24.8669  -27.7021   19.4941 C   0  0  0  0  0  0
  -23.6122  -29.8288   20.1653 C   0  0  0  0  0  0
  -25.4108  -36.3114   24.0346 C   0  0  1  0  0  0
  -20.5865  -28.3656   23.1323 C   0  0  2  0  0  0
  -20.6758  -26.9393   22.5413 C   0  0  0  0  0  0
  -19.5742  -26.6388   21.5204 C   0  0  0  0  0  0
  -18.1921  -26.7926   22.1620 C   0  0  0  0  0  0
  -19.1522  -28.8829   23.2909 C   0  0  0  0  0  0
  -18.9453  -30.1439   23.8909 C   0  0  0  0  0  0
  -17.6456  -30.6580   24.0576 C   0  0  0  0  0  0
  -25.9030  -34.9478   23.5133 C   0  0  0  0  0  0
  -16.5344  -29.9091   23.6331 C   0  0  0  0  0  0
  -16.7259  -28.6509   23.0345 C   0  0  0  0  0  0
  -26.4472  -31.6597   25.0717 C   0  0  0  0  0  0
  -25.3745  -31.3694   26.1467 C   0  0  0  0  0  0
  -27.0297  -30.3054   24.6053 C   0  0  0  0  0  0
  -27.6048  -32.4307   25.7477 C   0  0  0  0  0  0
  -27.5581  -37.1810   24.8472 C   0  0  0  0  0  0
  -21.4138  -29.3030   22.3726 N   0  0  0  0  0  0
  -26.4294  -37.3794   23.9416 N   0  0  0  0  0  0
  -24.6691  -31.0789   22.1010 N   0  0  0  0  0  0
  -23.4190  -28.8179   23.3012 O   0  0  0  0  0  0
  -28.3760  -26.6628   20.1185 O   0  0  0  0  0  0
  -26.5582  -34.8929   22.4693 O   0  0  0  0  0  0
  -23.5340  -32.1410   23.7520 O   0  0  0  0  0  0
  -28.9839  -18.8555   22.1864 C   0  0  0  0  0  0
  -31.2880  -18.9293   21.4304 C   0  0  0  0  0  0
  -28.9487  -17.4690   21.9330 C   0  0  0  0  0  0
  -31.2520  -17.5375   21.1708 C   0  0  0  0  0  0
  -30.1629  -19.6023   21.9695 C   0  0  0  0  0  0
  -30.0827  -16.7858   21.4428 C   0  0  0  0  0  0
  -32.1019  -22.5852   22.8474 C   0  0  0  0  0  0
  -31.4007  -21.3438   23.3975 C   0  0  0  0  0  0
  -31.7079  -22.5834   21.3726 C   0  0  0  0  0  0
  -30.2230  -21.0723   22.4325 C   0  0  1  0  0  0
  -29.4391  -24.4537   20.6271 C   0  0  0  0  0  0
  -29.2626  -23.1567   21.4729 C   0  0  0  0  0  0
  -28.1859  -25.3545   20.6900 C   0  0  0  0  0  0
  -29.9639  -15.3688   21.3029 N   0  0  0  0  0  0
  -30.3117  -22.0896   21.3386 N   0  3  1  0  0  0
  -31.4774  -12.4384   19.1033 H   0  0  0  0  0  0
  -30.3583  -11.2926   19.7851 H   0  0  0  0  0  0
  -29.7368  -11.8013   17.4130 H   0  0  0  0  0  0
  -29.6622  -13.5077   17.7693 H   0  0  0  0  0  0
  -27.8242  -11.3178   18.7928 H   0  0  0  0  0  0
  -27.3673  -12.6643   17.7842 H   0  0  0  0  0  0
  -27.7231  -14.2526   19.6066 H   0  0  0  0  0  0
  -28.6855  -11.8832   21.2794 H   0  0  0  0  0  0
  -28.4550  -13.4798   21.9019 H   0  0  0  0  0  0
  -25.2751   -9.5691   22.4752 H   0  0  0  0  0  0
  -24.0000   -7.4633   22.7467 H   0  0  0  0  0  0
  -21.0837   -8.8754   19.8944 H   0  0  0  0  0  0
  -22.3679  -10.9662   19.6152 H   0  0  0  0  0  0
  -21.1995   -7.6146   23.9718 H   0  0  0  0  0  0
  -21.1484   -6.0519   25.9080 H   0  0  0  0  0  0
  -22.0599   -2.7609   23.2841 H   0  0  0  0  0  0
  -22.4101  -11.9885   22.4773 H   0  0  0  0  0  0
  -21.1114  -13.1259   22.2574 H   0  0  0  0  0  0
  -24.6694  -15.8420   20.5103 H   0  0  0  0  0  0
  -26.2875  -15.6201   20.0750 H   0  0  0  0  0  0
  -26.7105  -32.5528   23.1165 H   0  0  0  0  0  0
  -25.0078  -33.9786   25.0509 H   0  0  0  0  0  0
  -22.6928  -31.3105   21.4146 H   0  0  0  0  0  0
  -23.3739  -35.9638   23.3304 H   0  0  0  0  0  0
  -24.3592  -36.8900   22.2055 H   0  0  0  0  0  0
  -23.7235  -37.6516   23.6641 H   0  0  0  0  0  0
  -26.0410  -31.6008   20.5932 H   0  0  0  0  0  0
  -26.8230  -30.8916   21.9763 H   0  0  0  0  0  0
  -28.1042  -29.1014   21.1619 H   0  0  0  0  0  0
  -26.0439  -25.9919   18.9839 H   0  0  0  0  0  0
  -23.9783  -27.3089   19.0204 H   0  0  0  0  0  0
  -23.7209  -30.6053   19.4078 H   0  0  0  0  0  0
  -22.7359  -29.2499   19.8685 H   0  0  0  0  0  0
  -25.1284  -36.1981   25.0838 H   0  0  0  0  0  0
  -20.9961  -28.3207   24.1444 H   0  0  0  0  0  0
  -20.5663  -26.2257   23.3594 H   0  0  0  0  0  0
  -21.6629  -26.7441   22.1198 H   0  0  0  0  0  0
  -19.6909  -25.6309   21.1207 H   0  0  0  0  0  0
  -19.6684  -27.3222   20.6754 H   0  0  0  0  0  0
  -17.4194  -26.6675   21.4017 H   0  0  0  0  0  0
  -18.0320  -26.0066   22.9012 H   0  0  0  0  0  0
  -19.7928  -30.7258   24.2270 H   0  0  0  0  0  0
  -17.5014  -31.6262   24.5177 H   0  0  0  0  0  0
  -15.5347  -30.3004   23.7650 H   0  0  0  0  0  0
  -15.8654  -28.0846   22.7040 H   0  0  0  0  0  0
  -24.5921  -30.7042   25.7805 H   0  0  0  0  0  0
  -24.8931  -32.2841   26.4931 H   0  0  0  0  0  0
  -25.8104  -30.8857   27.0217 H   0  0  0  0  0  0
  -26.2832  -29.6822   24.1119 H   0  0  0  0  0  0
  -27.4114  -29.7285   25.4485 H   0  0  0  0  0  0
  -27.8641  -30.4402   23.9168 H   0  0  0  0  0  0
  -27.2677  -33.3607   26.2073 H   0  0  0  0  0  0
  -28.3847  -32.6862   25.0289 H   0  0  0  0  0  0
  -28.0721  -31.8412   26.5376 H   0  0  0  0  0  0
  -28.2598  -38.0109   24.7510 H   0  0  0  0  0  0
  -28.1073  -36.2634   24.6294 H   0  0  0  0  0  0
  -27.2298  -37.1451   25.8878 H   0  0  0  0  0  0
  -20.9283  -29.8787   21.6981 H   0  0  0  0  0  0
  -26.0175  -38.2871   24.1413 H   0  0  0  0  0  0
  -28.1033  -19.3290   22.5990 H   0  0  0  0  0  0
  -32.2112  -19.4640   21.2577 H   0  0  0  0  0  0
  -28.0373  -16.9274   22.1476 H   0  0  0  0  0  0
  -32.1462  -17.0600   20.7980 H   0  0  0  0  0  0
  -33.1823  -22.5635   22.9942 H   0  0  0  0  0  0
  -31.7163  -23.4826   23.3335 H   0  0  0  0  0  0
  -31.0590  -21.4905   24.4228 H   0  0  0  0  0  0
  -32.1032  -20.5111   23.4212 H   0  0  0  0  0  0
  -32.3301  -21.8664   20.8364 H   0  0  0  0  0  0
  -31.8770  -23.5416   20.8857 H   0  0  0  0  0  0
  -29.3042  -21.2472   22.9961 H   0  0  0  0  0  0
  -29.6590  -24.2077   19.5880 H   0  0  0  0  0  0
  -30.2812  -25.0320   21.0057 H   0  0  0  0  0  0
  -28.3022  -22.6997   21.2291 H   0  0  0  0  0  0
  -29.1917  -23.4590   22.5196 H   0  0  0  0  0  0
  -27.8882  -25.4857   21.7322 H   0  0  0  0  0  0
  -27.3747  -24.8147   20.2040 H   0  0  0  0  0  0
  -29.1056  -14.9805   21.6620 H   0  0  0  0  0  0
  -30.1585  -21.6248   20.4558 H   0  0  0  0  0  0
  1 25  1  0  0  0
  1 30  2  0  0  0
  1 84  1  0  0  0
  2  3  1  0  0  0
  2 25  1  0  0  0
  2 86  1  0  0  0
  2 87  1  0  0  0
  3  4  1  0  0  0
  3 88  1  0  0  0
  3 89  1  0  0  0
  4  5  1  0  0  0
  4 90  1  0  0  0
  4 91  1  0  0  0
  5  6  1  0  0  0
  5 26  1  0  0  0
  5 92  1  0  0  0
  6 25  1  0  0  0
  6 93  1  0  0  0
  6 94  1  0  0  0
  7  8  2  0  0  0
  7 26  1  0  0  0
  7 29  1  0  0  0
  8  9  1  0  0  0
  8 22  1  0  0  0
  9 10  1  0  0  0
  9 27  2  0  0  0
 10 11  2  0  0  0
 10 15  1  0  0  0
 11 12  1  0  0  0
 11 95  1  0  0  0
 12 13  2  0  0  0
 12 96  1  0  0  0
 13 14  1  0  0  0
 13 31  1  0  0  0
 14 15  2  0  0  0
 14 97  1  0  0  0
 15 98  1  0  0  0
 16 17  2  0  0  0
 16 21  1  0  0  0
 16 31  1  0  0  0
 17 18  1  0  0  0
 17 99  1  0  0  0
 18 19  2  0  0  0
 18100  1  0  0  0
 19 20  1  0  0  0
 19 24  1  0  0  0
 20 21  2  0  0  0
 20101  1  0  0  0
 21 23  1  0  0  0
 22 28  1  0  0  0
 22 32  2  0  0  0
 26 27  1  0  0  0
 28102  1  0  0  0
 28103  1  0  0  0
 29104  1  0  0  0
 29105  1  0  0  0
 33 34  1  0  0  0
 33 66  1  0  0  0
 33 70  2  0  0  0
 34 36  1  0  0  0
 34 59  1  0  0  0
 34106  1  0  0  0
 35 44  2  0  0  0
 35 45  1  0  0  0
 35 68  1  0  0  0
 36 56  1  0  0  0
 36107  1  0  0  0
 37 39  1  0  0  0
 37 47  1  0  0  0
 37 66  1  0  0  0
 37108  1  0  0  0
 38 43  2  0  0  0
 38 46  1  0  0  0
 38 47  1  0  0  0
 39 64  1  0  0  0
 39 67  2  0  0  0
 40 52  1  0  0  0
 40 53  2  0  0  0
 40 58  1  0  0  0
 41109  1  0  0  0
 41110  1  0  0  0
 41111  1  0  0  0
 41 48  1  0  0  0
 42 43  1  0  0  0
 42 66  1  0  0  0
 42112  1  0  0  0
 42113  1  0  0  0
 43 44  1  0  0  0
 44114  1  0  0  0
 45 46  2  0  0  0
 45115  1  0  0  0
 46116  1  0  0  0
 47117  1  0  0  0
 47118  1  0  0  0
 48 56  1  0  0  0
 48 65  1  0  0  0
 48119  1  0  0  0
 49 50  1  0  0  0
 49 53  1  0  0  0
 49 64  1  0  0  0
 49120  1  0  0  0
 50 51  1  0  0  0
 50121  1  0  0  0
 50122  1  0  0  0
 51 52  1  0  0  0
 51123  1  0  0  0
 51124  1  0  0  0
 52125  1  0  0  0
 52126  1  0  0  0
 53 54  1  0  0  0
 54 55  2  0  0  0
 54127  1  0  0  0
 55 57  1  0  0  0
 55128  1  0  0  0
 56 69  2  0  0  0
 57 58  2  0  0  0
 57129  1  0  0  0
 58130  1  0  0  0
 59 60  1  0  0  0
 59 61  1  0  0  0
 59 62  1  0  0  0
 60131  1  0  0  0
 60132  1  0  0  0
 60133  1  0  0  0
 61134  1  0  0  0
 61135  1  0  0  0
 61136  1  0  0  0
 62137  1  0  0  0
 62138  1  0  0  0
 62139  1  0  0  0
 63 65  1  0  0  0
 63140  1  0  0  0
 63141  1  0  0  0
 63142  1  0  0  0
 64143  1  0  0  0
 65144  1  0  0  0
 68 83  1  0  0  0
 71 73  2  0  0  0
 71 75  1  0  0  0
 71145  1  0  0  0
 72 74  1  0  0  0
 72 75  2  0  0  0
 72146  1  0  0  0
 73 76  1  0  0  0
 73147  1  0  0  0
 74 76  2  0  0  0
 74148  1  0  0  0
 75 80  1  0  0  0
 76 84  1  0  0  0
 77 78  1  0  0  0
 77 79  1  0  0  0
 77149  1  0  0  0
 77150  1  0  0  0
 78 80  1  0  0  0
 78151  1  0  0  0
 78152  1  0  0  0
 79 85  1  0  0  0
 79153  1  0  0  0
 79154  1  0  0  0
 80 85  1  0  0  0
 80155  1  0  0  0
 81 82  1  0  0  0
 81 83  1  0  0  0
 81156  1  0  0  0
 81157  1  0  0  0
 82158  1  0  0  0
 82159  1  0  0  0
 82 85  1  0  0  0
 83160  1  0  0  0
 83161  1  0  0  0
 84162  1  0  0  0
 85163  1  0  0  0
M  CHG  1  85   1
M  ISO  4   1 100  68 101  83 101  84 100
M  END
> <chiral flag>
0

> <version>
0

> <s_m_source_file>
/data/baiqing/PycharmProjects/Reinvent-master-3.2/result/LINK_invent/BTK/process_docking_weight1_custom_product_contain_oxygen_bond_distance_aromatic_linkinvent_7_9_3/rearranged_h_0014.sdf

> <i_m_source_file_index>
62

> <r_mmod_Potential_Energy-OPLS-2005>
-75.1154022216797

> <r_mmod_Stretch_Energy-OPLS-2005>
40.7715835571289

> <r_mmod_Bend_Energy-OPLS-2005>
130.485198974609

> <r_mmod_Torsional_Energy-OPLS-2005>
289.722747802734

> <r_mmod_Improper_Torsional_Energy-OPLS-2005>
3.15175294876099

> <r_mmod_Van_der_Waal_Energy-OPLS-2005>
157.156982421875

> <r_mmod_Electrostatic_Energy-OPLS-2005>
-267.728271484375

> <r_mmod_Solvation_Energy-OPLS-2005>
-440.789276123047

> <b_mmod_Minimization_Converged-OPLS-2005>
0

> <r_mmod_RMS_Derivative-OPLS-2005>
1.26633334159851

$$$$
63
                    3D
 Structure written by MMmdl.
167175  0  0  1  0            999 V2000
  -30.7248  -14.4715   20.6014 C   0  0  0  0  0  0
  -30.4157  -12.3163   19.4242 C   0  0  0  0  0  0
  -29.4883  -12.5074   18.2084 C   0  0  0  0  0  0
  -28.0131  -12.3497   18.6253 C   0  0  0  0  0  0
  -27.6560  -13.1940   19.8752 C   0  0  2  0  0  0
  -28.6997  -12.9989   20.9977 C   0  0  0  0  0  0
  -25.2577  -13.8114   20.5691 C   0  0  0  0  0  0
  -24.1824  -13.0405   20.9183 C   0  0  0  0  0  0
  -24.6370  -11.6874   20.8741 C   0  0  0  0  0  0
  -23.9034  -10.4273   21.0418 C   0  0  0  0  0  0
  -24.3586   -9.4194   21.9195 C   0  0  0  0  0  0
  -23.6276   -8.2221   22.0758 C   0  0  0  0  0  0
  -22.4262   -8.0258   21.3540 C   0  0  0  0  0  0
  -21.9893   -9.0233   20.4638 C   0  0  0  0  0  0
  -22.7212  -10.2117   20.3062 C   0  0  0  0  0  0
  -21.6851   -6.0721   22.5281 C   0  0  0  0  0  0
  -21.4006   -6.5625   23.8212 C   0  0  0  0  0  0
  -21.3657   -5.6784   24.9174 C   0  0  0  0  0  0
  -21.6052   -4.3052   24.7230 C   0  0  0  0  0  0
  -21.8820   -3.8138   23.4351 C   0  0  0  0  0  0
  -21.9187   -4.6949   22.3403 C   0  0  0  0  0  0
  -22.7857  -13.5225   21.1871 C   0  0  0  0  0  0
  -22.1661   -4.2139   21.0981 F   0  0  0  0  0  0
  -21.5632   -3.4536   25.7744 F   0  0  0  0  0  0
  -30.0299  -13.3068   20.4434 N   0  0  0  0  0  0
  -26.2998  -12.9250   20.3396 N   0  0  0  0  0  0
  -25.9292  -11.6432   20.5794 N   0  0  0  0  0  0
  -22.0506  -12.8198   22.0415 N   0  0  0  0  0  0
  -25.4313  -15.1822   20.4074 N   0  0  0  0  0  0
  -31.8305  -14.6527   20.0816 O   0  0  0  0  0  0
  -21.6627   -6.8856   21.4239 O   0  0  0  0  0  0
  -22.3555  -14.5560   20.6750 O   0  0  0  0  0  0
  -24.6158  -31.8674   23.2068 C   0  0  0  0  0  0
  -25.9054  -32.4821   23.8368 C   0  0  1  0  0  0
  -27.2431  -27.4310   20.0890 C   0  0  0  0  0  0
  -25.5897  -33.8618   24.2316 N   0  0  0  0  0  0
  -23.4016  -30.4909   21.5472 C   0  0  2  0  0  0
  -24.8476  -28.9516   20.1150 C   0  0  0  0  0  0
  -22.7399  -29.4666   22.4973 C   0  0  0  0  0  0
  -18.0266  -28.1392   22.8483 C   0  0  0  0  0  0
  -24.1480  -36.7299   23.2636 C   0  0  0  0  0  0
  -25.9293  -30.8332   21.3559 C   0  0  0  0  0  0
  -26.0062  -29.4649   20.7083 C   0  0  0  0  0  0
  -27.2013  -28.7106   20.6930 C   0  0  0  0  0  0
  -26.0584  -26.9279   19.5024 C   0  0  0  0  0  0
  -24.8689  -27.6825   19.5112 C   0  0  0  0  0  0
  -23.6090  -29.8189   20.1624 C   0  0  0  0  0  0
  -25.4102  -36.3095   24.0331 C   0  0  1  0  0  0
  -20.5858  -28.3679   23.1304 C   0  0  2  0  0  0
  -20.6762  -26.9415   22.5411 C   0  0  0  0  0  0
  -19.5745  -26.6397   21.5195 C   0  0  0  0  0  0
  -18.1915  -26.7942   22.1603 C   0  0  0  0  0  0
  -19.1518  -28.8844   23.2901 C   0  0  0  0  0  0
  -18.9463  -30.1446   23.8925 C   0  0  0  0  0  0
  -17.6474  -30.6600   24.0570 C   0  0  0  0  0  0
  -25.9037  -34.9469   23.5118 C   0  0  0  0  0  0
  -16.5362  -29.9104   23.6328 C   0  0  0  0  0  0
  -16.7262  -28.6523   23.0338 C   0  0  0  0  0  0
  -26.4472  -31.6601   25.0705 C   0  0  0  0  0  0
  -25.3739  -31.3686   26.1451 C   0  0  0  0  0  0
  -27.0338  -30.3063   24.6064 C   0  0  0  0  0  0
  -27.6047  -32.4325   25.7478 C   0  0  0  0  0  0
  -27.5573  -37.1778   24.8456 C   0  0  0  0  0  0
  -21.4125  -29.3055   22.3720 N   0  0  0  0  0  0
  -26.4270  -37.3795   23.9431 N   0  0  0  0  0  0
  -24.6679  -31.0775   22.0961 N   0  0  0  0  0  0
  -23.4176  -28.8206   23.3016 O   0  0  0  0  0  0
  -28.4462  -26.7484   20.0978 O   0  0  0  0  0  0
  -26.5606  -34.8918   22.4678 O   0  0  0  0  0  0
  -23.5350  -32.1419   23.7473 O   0  0  0  0  0  0
  -30.3962  -18.4423   20.0009 C   0  0  0  0  0  0
  -30.4986  -19.8493   19.8952 C   0  0  0  0  0  0
  -28.4344  -20.1009   21.1326 C   0  0  0  0  0  0
  -29.3078  -17.8454   20.6749 C   0  0  0  0  0  0
  -29.5107  -20.7106   20.4451 C   0  0  0  0  0  0
  -28.3342  -18.6966   21.2500 C   0  0  0  0  0  0
  -30.6000  -14.7616   23.6908 C   0  0  0  0  0  0
  -32.0428  -16.5276   22.5693 C   0  0  0  0  0  0
  -30.9065  -22.6953   20.0340 C   0  0  0  0  0  0
  -29.1098  -16.3175   20.6885 C   0  0  0  0  0  0
  -28.2436  -24.2911   20.4762 C   0  0  0  0  0  0
  -28.4050  -22.8649   19.8728 C   0  0  0  0  0  0
  -28.5755  -25.4473   19.5007 C   0  0  0  0  0  0
  -30.6379  -15.8965   22.6478 C   0  0  0  0  0  0
  -29.5936  -22.1269   20.3392 N   0  0  0  0  0  0
  -30.1270  -15.4504   21.3326 N   0  0  0  0  0  0
  -27.2758  -18.1677   21.9090 F   0  0  0  0  0  0
  -31.4607  -12.4064   19.1250 H   0  0  0  0  0  0
  -30.3117  -11.3065   19.8258 H   0  0  0  0  0  0
  -29.7335  -11.7852   17.4286 H   0  0  0  0  0  0
  -29.6465  -13.4953   17.7719 H   0  0  0  0  0  0
  -27.8404  -11.2929   18.8332 H   0  0  0  0  0  0
  -27.3546  -12.6087   17.7951 H   0  0  0  0  0  0
  -27.6843  -14.2314   19.5559 H   0  0  0  0  0  0
  -28.6830  -11.9684   21.3567 H   0  0  0  0  0  0
  -28.4499  -13.6107   21.8644 H   0  0  0  0  0  0
  -25.2732   -9.5665   22.4768 H   0  0  0  0  0  0
  -23.9989   -7.4607   22.7475 H   0  0  0  0  0  0
  -21.0831   -8.8740   19.8935 H   0  0  0  0  0  0
  -22.3683  -10.9648   19.6162 H   0  0  0  0  0  0
  -21.2000   -7.6130   23.9703 H   0  0  0  0  0  0
  -21.1483   -6.0520   25.9074 H   0  0  0  0  0  0
  -22.0603   -2.7603   23.2861 H   0  0  0  0  0  0
  -22.4120  -11.9813   22.4728 H   0  0  0  0  0  0
  -21.1139  -13.1239   22.2681 H   0  0  0  0  0  0
  -24.6706  -15.8405   20.5286 H   0  0  0  0  0  0
  -26.2872  -15.6235   20.1012 H   0  0  0  0  0  0
  -26.7125  -32.5539   23.1132 H   0  0  0  0  0  0
  -25.0072  -33.9780   25.0473 H   0  0  0  0  0  0
  -22.6911  -31.3079   21.4054 H   0  0  0  0  0  0
  -23.3753  -35.9612   23.3272 H   0  0  0  0  0  0
  -24.3599  -36.8969   22.2060 H   0  0  0  0  0  0
  -23.7207  -37.6476   23.6692 H   0  0  0  0  0  0
  -26.0325  -31.5959   20.5819 H   0  0  0  0  0  0
  -26.8194  -30.8955   21.9694 H   0  0  0  0  0  0
  -28.0986  -29.1105   21.1435 H   0  0  0  0  0  0
  -26.0257  -25.9541   19.0375 H   0  0  0  0  0  0
  -23.9756  -27.2807   19.0533 H   0  0  0  0  0  0
  -23.7137  -30.5922   19.4008 H   0  0  0  0  0  0
  -22.7334  -29.2369   19.8694 H   0  0  0  0  0  0
  -25.1265  -36.1939   25.0822 H   0  0  0  0  0  0
  -20.9953  -28.3251   24.1419 H   0  0  0  0  0  0
  -20.5662  -26.2281   23.3601 H   0  0  0  0  0  0
  -21.6633  -26.7452   22.1213 H   0  0  0  0  0  0
  -19.6919  -25.6301   21.1238 H   0  0  0  0  0  0
  -19.6699  -27.3200   20.6730 H   0  0  0  0  0  0
  -17.4188  -26.6692   21.4003 H   0  0  0  0  0  0
  -18.0326  -26.0066   22.8989 H   0  0  0  0  0  0
  -19.7943  -30.7247   24.2304 H   0  0  0  0  0  0
  -17.5039  -31.6287   24.5162 H   0  0  0  0  0  0
  -15.5369  -30.3036   23.7633 H   0  0  0  0  0  0
  -15.8655  -28.0877   22.7016 H   0  0  0  0  0  0
  -24.5954  -30.6978   25.7787 H   0  0  0  0  0  0
  -24.8865  -32.2831   26.4854 H   0  0  0  0  0  0
  -25.8099  -30.8906   27.0231 H   0  0  0  0  0  0
  -26.2882  -29.6794   24.1162 H   0  0  0  0  0  0
  -27.4203  -29.7322   25.4494 H   0  0  0  0  0  0
  -27.8652  -30.4423   23.9144 H   0  0  0  0  0  0
  -27.2675  -33.3647   26.2015 H   0  0  0  0  0  0
  -28.3873  -32.6852   25.0313 H   0  0  0  0  0  0
  -28.0681  -31.8474   26.5429 H   0  0  0  0  0  0
  -28.2529  -38.0130   24.7603 H   0  0  0  0  0  0
  -28.1132  -36.2677   24.6159 H   0  0  0  0  0  0
  -27.2323  -37.1290   25.8862 H   0  0  0  0  0  0
  -20.9279  -29.8797   21.6964 H   0  0  0  0  0  0
  -26.0150  -38.2851   24.1502 H   0  0  0  0  0  0
  -31.1509  -17.8210   19.5400 H   0  0  0  0  0  0
  -31.3464  -20.2509   19.3580 H   0  0  0  0  0  0
  -27.6660  -20.7053   21.5912 H   0  0  0  0  0  0
  -30.9457  -15.1148   24.6637 H   0  0  0  0  0  0
  -31.2332  -13.9184   23.4121 H   0  0  0  0  0  0
  -29.5858  -14.3842   23.8321 H   0  0  0  0  0  0
  -32.3383  -16.9402   23.5348 H   0  0  0  0  0  0
  -32.0764  -17.3451   21.8512 H   0  0  0  0  0  0
  -32.8044  -15.8031   22.2793 H   0  0  0  0  0  0
  -31.6939  -22.2084   20.6119 H   0  0  0  0  0  0
  -30.9441  -23.7555   20.2832 H   0  0  0  0  0  0
  -31.1405  -22.5936   18.9728 H   0  0  0  0  0  0
  -28.9912  -16.0350   19.6407 H   0  0  0  0  0  0
  -28.1560  -16.0832   21.1599 H   0  0  0  0  0  0
  -28.8327  -24.3908   21.3894 H   0  0  0  0  0  0
  -27.2062  -24.4131   20.7905 H   0  0  0  0  0  0
  -28.4387  -22.9290   18.7839 H   0  0  0  0  0  0
  -27.4979  -22.2999   20.0894 H   0  0  0  0  0  0
  -28.0156  -25.3637   18.5706 H   0  0  0  0  0  0
  -29.6192  -25.3540   19.2005 H   0  0  0  0  0  0
  -29.9639  -16.6681   23.0225 H   0  0  0  0  0  0
  1 25  1  0  0  0
  1 30  2  0  0  0
  1 86  1  0  0  0
  2  3  1  0  0  0
  2 25  1  0  0  0
  2 88  1  0  0  0
  2 89  1  0  0  0
  3  4  1  0  0  0
  3 90  1  0  0  0
  3 91  1  0  0  0
  4  5  1  0  0  0
  4 92  1  0  0  0
  4 93  1  0  0  0
  5  6  1  0  0  0
  5 26  1  0  0  0
  5 94  1  0  0  0
  6 25  1  0  0  0
  6 95  1  0  0  0
  6 96  1  0  0  0
  7  8  2  0  0  0
  7 26  1  0  0  0
  7 29  1  0  0  0
  8  9  1  0  0  0
  8 22  1  0  0  0
  9 10  1  0  0  0
  9 27  2  0  0  0
 10 11  2  0  0  0
 10 15  1  0  0  0
 11 12  1  0  0  0
 11 97  1  0  0  0
 12 13  2  0  0  0
 12 98  1  0  0  0
 13 14  1  0  0  0
 13 31  1  0  0  0
 14 15  2  0  0  0
 14 99  1  0  0  0
 15100  1  0  0  0
 16 17  2  0  0  0
 16 21  1  0  0  0
 16 31  1  0  0  0
 17 18  1  0  0  0
 17101  1  0  0  0
 18 19  2  0  0  0
 18102  1  0  0  0
 19 20  1  0  0  0
 19 24  1  0  0  0
 20 21  2  0  0  0
 20103  1  0  0  0
 21 23  1  0  0  0
 22 28  1  0  0  0
 22 32  2  0  0  0
 26 27  1  0  0  0
 28104  1  0  0  0
 28105  1  0  0  0
 29106  1  0  0  0
 29107  1  0  0  0
 33 34  1  0  0  0
 33 66  1  0  0  0
 33 70  2  0  0  0
 34 36  1  0  0  0
 34 59  1  0  0  0
 34108  1  0  0  0
 35 44  2  0  0  0
 35 45  1  0  0  0
 35 68  1  0  0  0
 36 56  1  0  0  0
 36109  1  0  0  0
 37 39  1  0  0  0
 37 47  1  0  0  0
 37 66  1  0  0  0
 37110  1  0  0  0
 38 43  2  0  0  0
 38 46  1  0  0  0
 38 47  1  0  0  0
 39 64  1  0  0  0
 39 67  2  0  0  0
 40 52  1  0  0  0
 40 53  2  0  0  0
 40 58  1  0  0  0
 41111  1  0  0  0
 41112  1  0  0  0
 41113  1  0  0  0
 41 48  1  0  0  0
 42 43  1  0  0  0
 42 66  1  0  0  0
 42114  1  0  0  0
 42115  1  0  0  0
 43 44  1  0  0  0
 44116  1  0  0  0
 45 46  2  0  0  0
 45117  1  0  0  0
 46118  1  0  0  0
 47119  1  0  0  0
 47120  1  0  0  0
 48 56  1  0  0  0
 48 65  1  0  0  0
 48121  1  0  0  0
 49 50  1  0  0  0
 49 53  1  0  0  0
 49 64  1  0  0  0
 49122  1  0  0  0
 50 51  1  0  0  0
 50123  1  0  0  0
 50124  1  0  0  0
 51 52  1  0  0  0
 51125  1  0  0  0
 51126  1  0  0  0
 52127  1  0  0  0
 52128  1  0  0  0
 53 54  1  0  0  0
 54 55  2  0  0  0
 54129  1  0  0  0
 55 57  1  0  0  0
 55130  1  0  0  0
 56 69  2  0  0  0
 57 58  2  0  0  0
 57131  1  0  0  0
 58132  1  0  0  0
 59 60  1  0  0  0
 59 61  1  0  0  0
 59 62  1  0  0  0
 60133  1  0  0  0
 60134  1  0  0  0
 60135  1  0  0  0
 61136  1  0  0  0
 61137  1  0  0  0
 61138  1  0  0  0
 62139  1  0  0  0
 62140  1  0  0  0
 62141  1  0  0  0
 63 65  1  0  0  0
 63142  1  0  0  0
 63143  1  0  0  0
 63144  1  0  0  0
 64145  1  0  0  0
 65146  1  0  0  0
 68 83  1  0  0  0
 71 72  2  0  0  0
 71 74  1  0  0  0
 71147  1  0  0  0
 72 75  1  0  0  0
 72148  1  0  0  0
 73 75  2  0  0  0
 73 76  1  0  0  0
 73149  1  0  0  0
 74 76  2  0  0  0
 74 80  1  0  0  0
 75 85  1  0  0  0
 76 87  1  0  0  0
 77150  1  0  0  0
 77151  1  0  0  0
 77152  1  0  0  0
 77 84  1  0  0  0
 78 84  1  0  0  0
 78153  1  0  0  0
 78154  1  0  0  0
 78155  1  0  0  0
 79 85  1  0  0  0
 79156  1  0  0  0
 79157  1  0  0  0
 79158  1  0  0  0
 80 86  1  0  0  0
 80159  1  0  0  0
 80160  1  0  0  0
 81 82  1  0  0  0
 81 83  1  0  0  0
 81161  1  0  0  0
 81162  1  0  0  0
 82 85  1  0  0  0
 82163  1  0  0  0
 82164  1  0  0  0
 83165  1  0  0  0
 83166  1  0  0  0
 84 86  1  0  0  0
 84167  1  0  0  0
M  ISO  4   1 100  68 101  83 101  86 100
M  END
> <chiral flag>
0

> <version>
0

> <s_m_source_file>
/data/baiqing/PycharmProjects/Reinvent-master-3.2/result/LINK_invent/BTK/process_docking_weight1_custom_product_contain_oxygen_bond_distance_aromatic_linkinvent_7_9_3/rearranged_h_0014.sdf

> <i_m_source_file_index>
63

> <r_mmod_Potential_Energy-OPLS-2005>
182.722229003906

> <r_mmod_Stretch_Energy-OPLS-2005>
45.0469703674316

> <r_mmod_Bend_Energy-OPLS-2005>
118.933891296387

> <r_mmod_Torsional_Energy-OPLS-2005>
296.382659912109

> <r_mmod_Improper_Torsional_Energy-OPLS-2005>
4.57885646820068

> <r_mmod_Van_der_Waal_Energy-OPLS-2005>
152.278396606445

> <r_mmod_Electrostatic_Energy-OPLS-2005>
-252.07243347168

> <r_mmod_Solvation_Energy-OPLS-2005>
-194.966537475586

> <b_mmod_Minimization_Converged-OPLS-2005>
0

> <r_mmod_RMS_Derivative-OPLS-2005>
2.18187403678894

$$$$
64
                    3D
 Structure written by MMmdl.
159168  0  0  1  0            999 V2000
  -30.5415  -14.9736   20.3603 C   0  0  0  0  0  0
  -30.4477  -12.5859   19.4924 C   0  0  0  0  0  0
  -29.5255  -12.4409   18.2583 C   0  0  0  0  0  0
  -28.0484  -12.2878   18.6792 C   0  0  0  0  0  0
  -27.6233  -13.2336   19.8361 C   0  0  2  0  0  0
  -28.6798  -13.3023   20.9568 C   0  0  0  0  0  0
  -25.2478  -13.8166   20.5776 C   0  0  0  0  0  0
  -24.1766  -13.0415   20.9250 C   0  0  0  0  0  0
  -24.6367  -11.6894   20.8796 C   0  0  0  0  0  0
  -23.9051  -10.4270   21.0432 C   0  0  0  0  0  0
  -24.3609   -9.4182   21.9198 C   0  0  0  0  0  0
  -23.6288   -8.2214   22.0758 C   0  0  0  0  0  0
  -22.4268   -8.0259   21.3539 C   0  0  0  0  0  0
  -21.9898   -9.0239   20.4648 C   0  0  0  0  0  0
  -22.7232  -10.2118   20.3070 C   0  0  0  0  0  0
  -21.6838   -6.0732   22.5281 C   0  0  0  0  0  0
  -21.4011   -6.5644   23.8217 C   0  0  0  0  0  0
  -21.3660   -5.6798   24.9181 C   0  0  0  0  0  0
  -21.6036   -4.3058   24.7229 C   0  0  0  0  0  0
  -21.8824   -3.8151   23.4353 C   0  0  0  0  0  0
  -21.9194   -4.6964   22.3408 C   0  0  0  0  0  0
  -22.7792  -13.5202   21.1901 C   0  0  0  0  0  0
  -22.1661   -4.2150   21.0986 F   0  0  0  0  0  0
  -21.5634   -3.4542   25.7742 F   0  0  0  0  0  0
  -29.9388  -13.7124   20.3216 N   0  0  0  0  0  0
  -26.2876  -12.9352   20.3342 N   0  0  0  0  0  0
  -25.9298  -11.6503   20.5820 N   0  0  0  0  0  0
  -22.0459  -12.8169   22.0460 N   0  0  0  0  0  0
  -25.4200  -15.1901   20.4241 N   0  0  0  0  0  0
  -31.7746  -14.9981   20.2712 O   0  0  0  0  0  0
  -21.6627   -6.8861   21.4233 O   0  0  0  0  0  0
  -22.3473  -14.5512   20.6756 O   0  0  0  0  0  0
  -24.6406  -31.8460   23.1916 C   0  0  0  0  0  0
  -25.9182  -32.4711   23.8298 C   0  0  1  0  0  0
  -27.2151  -27.1400   20.1721 C   0  0  0  0  0  0
  -25.5936  -33.8519   24.2228 N   0  0  0  0  0  0
  -23.4443  -30.4637   21.5377 C   0  0  2  0  0  0
  -24.8954  -28.8928   20.1180 C   0  0  0  0  0  0
  -22.7555  -29.4537   22.4901 C   0  0  0  0  0  0
  -18.0305  -28.1373   22.8490 C   0  0  0  0  0  0
  -24.1484  -36.7258   23.2645 C   0  0  0  0  0  0
  -25.9991  -30.7220   21.3911 C   0  0  0  0  0  0
  -26.0709  -29.3313   20.7414 C   0  0  0  0  0  0
  -27.2326  -28.4718   20.7488 C   0  0  0  0  0  0
  -26.0230  -26.8139   19.4899 C   0  0  0  0  0  0
  -24.8855  -27.6473   19.4732 C   0  0  0  0  0  0
  -23.6711  -29.7940   20.1575 C   0  0  0  0  0  0
  -25.4118  -36.3054   24.0328 C   0  0  1  0  0  0
  -20.5914  -28.3693   23.1260 C   0  0  2  0  0  0
  -20.6799  -26.9400   22.5410 C   0  0  0  0  0  0
  -19.5762  -26.6354   21.5227 C   0  0  0  0  0  0
  -18.1952  -26.7901   22.1648 C   0  0  0  0  0  0
  -19.1556  -28.8850   23.2860 C   0  0  0  0  0  0
  -18.9469  -30.1453   23.8869 C   0  0  0  0  0  0
  -17.6462  -30.6569   24.0547 C   0  0  0  0  0  0
  -25.9068  -34.9416   23.5097 C   0  0  0  0  0  0
  -16.5355  -29.9057   23.6332 C   0  0  0  0  0  0
  -16.7290  -28.6478   23.0355 C   0  0  0  0  0  0
  -26.4508  -31.6564   25.0724 C   0  0  0  0  0  0
  -25.3694  -31.3731   26.1414 C   0  0  0  0  0  0
  -27.0379  -30.2968   24.6291 C   0  0  0  0  0  0
  -27.6045  -32.4319   25.7510 C   0  0  0  0  0  0
  -27.5580  -37.1789   24.8471 C   0  0  0  0  0  0
  -21.4248  -29.3034   22.3646 N   0  0  0  0  0  0
  -26.4293  -37.3759   23.9413 N   0  0  0  0  0  0
  -24.7141  -31.0319   22.0954 N   0  0  0  0  0  0
  -23.4204  -28.8082   23.3050 O   0  0  0  0  0  0
  -28.2849  -26.1745   20.1763 O   0  0  0  0  0  0
  -26.5650  -34.8901   22.4675 O   0  0  0  0  0  0
  -23.5530  -32.1337   23.7143 O   0  0  0  0  0  0
  -29.9506  -20.0991   19.6832 C   0  0  0  0  0  0
  -30.2836  -18.6874   19.5559 C   0  0  0  0  0  0
  -28.8418  -18.1583   21.3275 C   0  0  0  0  0  0
  -28.4997  -19.5726   21.4635 C   0  0  0  0  0  0
  -29.0033  -20.6404   20.6125 C   0  0  0  0  0  0
  -29.7314  -17.6121   20.3474 C   0  0  0  0  0  0
  -26.8871  -23.8708   20.2792 C   0  0  0  0  0  0
  -27.1245  -22.4052   20.7757 C   0  0  0  0  0  0
  -29.1827  -23.4336   20.3466 C   0  0  0  0  0  0
  -28.1432  -24.6857   20.6355 C   0  0  1  0  0  0
  -27.5450  -19.9038   22.5985 C   0  0  0  0  0  0
  -29.5575  -16.0456   18.4857 C   0  0  0  0  0  0
  -28.5503  -22.0698   20.6565 N   0  0  0  0  0  0
  -29.7933  -16.1264   19.9376 N   0  0  0  0  0  0
  -31.4760  -12.7533   19.1687 H   0  0  0  0  0  0
  -30.4616  -11.6614   20.0718 H   0  0  0  0  0  0
  -29.8282  -11.5706   17.6736 H   0  0  0  0  0  0
  -29.6491  -13.2867   17.5853 H   0  0  0  0  0  0
  -27.9249  -11.2529   19.0015 H   0  0  0  0  0  0
  -27.3888  -12.4140   17.8201 H   0  0  0  0  0  0
  -27.5495  -14.2263   19.4048 H   0  0  0  0  0  0
  -28.7828  -12.3409   21.4631 H   0  0  0  0  0  0
  -28.3853  -14.0293   21.7159 H   0  0  0  0  0  0
  -25.2757   -9.5665   22.4766 H   0  0  0  0  0  0
  -24.0005   -7.4606   22.7478 H   0  0  0  0  0  0
  -21.0826   -8.8767   19.8951 H   0  0  0  0  0  0
  -22.3698  -10.9666   19.6183 H   0  0  0  0  0  0
  -21.1996   -7.6152   23.9719 H   0  0  0  0  0  0
  -21.1477   -6.0530   25.9083 H   0  0  0  0  0  0
  -22.0601   -2.7611   23.2858 H   0  0  0  0  0  0
  -22.4092  -11.9799   22.4773 H   0  0  0  0  0  0
  -21.1092  -13.1181   22.2743 H   0  0  0  0  0  0
  -24.6561  -15.8478   20.5355 H   0  0  0  0  0  0
  -26.2820  -15.6298   20.1268 H   0  0  0  0  0  0
  -26.7240  -32.5325   23.1021 H   0  0  0  0  0  0
  -25.0045  -33.9647   25.0348 H   0  0  0  0  0  0
  -22.7446  -31.2880   21.3861 H   0  0  0  0  0  0
  -23.3763  -35.9576   23.3305 H   0  0  0  0  0  0
  -24.3573  -36.8889   22.2061 H   0  0  0  0  0  0
  -23.7213  -37.6445   23.6676 H   0  0  0  0  0  0
  -26.1512  -31.4736   20.6154 H   0  0  0  0  0  0
  -26.8707  -30.7770   22.0310 H   0  0  0  0  0  0
  -28.1322  -28.8122   21.2424 H   0  0  0  0  0  0
  -25.9516  -25.8843   18.9501 H   0  0  0  0  0  0
  -23.9969  -27.3160   18.9516 H   0  0  0  0  0  0
  -23.8049  -30.5689   19.4022 H   0  0  0  0  0  0
  -22.7865  -29.2348   19.8490 H   0  0  0  0  0  0
  -25.1302  -36.1902   25.0822 H   0  0  0  0  0  0
  -20.9991  -28.3262   24.1388 H   0  0  0  0  0  0
  -20.5699  -26.2298   23.3624 H   0  0  0  0  0  0
  -21.6657  -26.7412   22.1198 H   0  0  0  0  0  0
  -19.6912  -25.6257   21.1267 H   0  0  0  0  0  0
  -19.6685  -27.3154   20.6745 H   0  0  0  0  0  0
  -17.4204  -26.6624   21.4069 H   0  0  0  0  0  0
  -18.0369  -26.0054   22.9067 H   0  0  0  0  0  0
  -19.7936  -30.7282   24.2227 H   0  0  0  0  0  0
  -17.5005  -31.6246   24.5146 H   0  0  0  0  0  0
  -15.5353  -30.2941   23.7661 H   0  0  0  0  0  0
  -15.8696  -28.0777   22.7088 H   0  0  0  0  0  0
  -24.5892  -30.7057   25.7734 H   0  0  0  0  0  0
  -24.8841  -32.2898   26.4778 H   0  0  0  0  0  0
  -25.7969  -30.8949   27.0239 H   0  0  0  0  0  0
  -26.3005  -29.6695   24.1267 H   0  0  0  0  0  0
  -27.3974  -29.7254   25.4862 H   0  0  0  0  0  0
  -27.8918  -30.4226   23.9631 H   0  0  0  0  0  0
  -27.2653  -33.3647   26.2033 H   0  0  0  0  0  0
  -28.3881  -32.6837   25.0350 H   0  0  0  0  0  0
  -28.0681  -31.8469   26.5468 H   0  0  0  0  0  0
  -28.2602  -38.0082   24.7515 H   0  0  0  0  0  0
  -28.1071  -36.2612   24.6306 H   0  0  0  0  0  0
  -27.2295  -37.1443   25.8873 H   0  0  0  0  0  0
  -20.9453  -29.8734   21.6818 H   0  0  0  0  0  0
  -26.0170  -38.2841   24.1391 H   0  0  0  0  0  0
  -30.4061  -20.7778   18.9777 H   0  0  0  0  0  0
  -30.9512  -18.4302   18.7463 H   0  0  0  0  0  0
  -28.3372  -17.4513   21.9703 H   0  0  0  0  0  0
  -25.9809  -24.2902   20.7189 H   0  0  0  0  0  0
  -26.7544  -23.8560   19.1974 H   0  0  0  0  0  0
  -26.5007  -21.7003   20.2229 H   0  0  0  0  0  0
  -26.8316  -22.3492   21.8237 H   0  0  0  0  0  0
  -29.4723  -23.4395   19.2952 H   0  0  0  0  0  0
  -30.0984  -23.5611   20.9271 H   0  0  0  0  0  0
  -28.1203  -24.7894   21.7214 H   0  0  0  0  0  0
  -26.5337  -20.0539   22.2218 H   0  0  0  0  0  0
  -27.8705  -20.8007   23.1238 H   0  0  0  0  0  0
  -27.5085  -19.1003   23.3349 H   0  0  0  0  0  0
  -29.0008  -16.9021   18.1054 H   0  0  0  0  0  0
  -30.4992  -15.9950   17.9340 H   0  0  0  0  0  0
  -28.9583  -15.1931   18.1997 H   0  0  0  0  0  0
  1 25  1  0  0  0
  1 30  2  0  0  0
  1 84  1  0  0  0
  2  3  1  0  0  0
  2 25  1  0  0  0
  2 85  1  0  0  0
  2 86  1  0  0  0
  3  4  1  0  0  0
  3 87  1  0  0  0
  3 88  1  0  0  0
  4  5  1  0  0  0
  4 89  1  0  0  0
  4 90  1  0  0  0
  5  6  1  0  0  0
  5 26  1  0  0  0
  5 91  1  0  0  0
  6 25  1  0  0  0
  6 92  1  0  0  0
  6 93  1  0  0  0
  7  8  2  0  0  0
  7 26  1  0  0  0
  7 29  1  0  0  0
  8  9  1  0  0  0
  8 22  1  0  0  0
  9 10  1  0  0  0
  9 27  2  0  0  0
 10 11  2  0  0  0
 10 15  1  0  0  0
 11 12  1  0  0  0
 11 94  1  0  0  0
 12 13  2  0  0  0
 12 95  1  0  0  0
 13 14  1  0  0  0
 13 31  1  0  0  0
 14 15  2  0  0  0
 14 96  1  0  0  0
 15 97  1  0  0  0
 16 17  2  0  0  0
 16 21  1  0  0  0
 16 31  1  0  0  0
 17 18  1  0  0  0
 17 98  1  0  0  0
 18 19  2  0  0  0
 18 99  1  0  0  0
 19 20  1  0  0  0
 19 24  1  0  0  0
 20 21  2  0  0  0
 20100  1  0  0  0
 21 23  1  0  0  0
 22 28  1  0  0  0
 22 32  2  0  0  0
 26 27  1  0  0  0
 28101  1  0  0  0
 28102  1  0  0  0
 29103  1  0  0  0
 29104  1  0  0  0
 33 34  1  0  0  0
 33 66  1  0  0  0
 33 70  2  0  0  0
 34 36  1  0  0  0
 34 59  1  0  0  0
 34105  1  0  0  0
 35 44  2  0  0  0
 35 45  1  0  0  0
 35 68  1  0  0  0
 36 56  1  0  0  0
 36106  1  0  0  0
 37 39  1  0  0  0
 37 47  1  0  0  0
 37 66  1  0  0  0
 37107  1  0  0  0
 38 43  2  0  0  0
 38 46  1  0  0  0
 38 47  1  0  0  0
 39 64  1  0  0  0
 39 67  2  0  0  0
 40 52  1  0  0  0
 40 53  2  0  0  0
 40 58  1  0  0  0
 41108  1  0  0  0
 41109  1  0  0  0
 41110  1  0  0  0
 41 48  1  0  0  0
 42 43  1  0  0  0
 42 66  1  0  0  0
 42111  1  0  0  0
 42112  1  0  0  0
 43 44  1  0  0  0
 44113  1  0  0  0
 45 46  2  0  0  0
 45114  1  0  0  0
 46115  1  0  0  0
 47116  1  0  0  0
 47117  1  0  0  0
 48 56  1  0  0  0
 48 65  1  0  0  0
 48118  1  0  0  0
 49 50  1  0  0  0
 49 53  1  0  0  0
 49 64  1  0  0  0
 49119  1  0  0  0
 50 51  1  0  0  0
 50120  1  0  0  0
 50121  1  0  0  0
 51 52  1  0  0  0
 51122  1  0  0  0
 51123  1  0  0  0
 52124  1  0  0  0
 52125  1  0  0  0
 53 54  1  0  0  0
 54 55  2  0  0  0
 54126  1  0  0  0
 55 57  1  0  0  0
 55127  1  0  0  0
 56 69  2  0  0  0
 57 58  2  0  0  0
 57128  1  0  0  0
 58129  1  0  0  0
 59 60  1  0  0  0
 59 61  1  0  0  0
 59 62  1  0  0  0
 60130  1  0  0  0
 60131  1  0  0  0
 60132  1  0  0  0
 61133  1  0  0  0
 61134  1  0  0  0
 61135  1  0  0  0
 62136  1  0  0  0
 62137  1  0  0  0
 62138  1  0  0  0
 63 65  1  0  0  0
 63139  1  0  0  0
 63140  1  0  0  0
 63141  1  0  0  0
 64142  1  0  0  0
 65143  1  0  0  0
 68 80  1  0  0  0
 71 72  2  0  0  0
 71 75  1  0  0  0
 71144  1  0  0  0
 72 76  1  0  0  0
 72145  1  0  0  0
 73 74  1  0  0  0
 73 76  2  0  0  0
 73146  1  0  0  0
 74 75  2  0  0  0
 74 81  1  0  0  0
 75 83  1  0  0  0
 76 84  1  0  0  0
 77 78  1  0  0  0
 77 80  1  0  0  0
 77147  1  0  0  0
 77148  1  0  0  0
 78 83  1  0  0  0
 78149  1  0  0  0
 78150  1  0  0  0
 79 80  1  0  0  0
 79 83  1  0  0  0
 79151  1  0  0  0
 79152  1  0  0  0
 80153  1  0  0  0
 81154  1  0  0  0
 81155  1  0  0  0
 81156  1  0  0  0
 82 84  1  0  0  0
 82157  1  0  0  0
 82158  1  0  0  0
 82159  1  0  0  0
M  ISO  4   1 100  68 101  80 101  84 100
M  END
> <chiral flag>
0

> <version>
0

> <s_m_source_file>
/data/baiqing/PycharmProjects/Reinvent-master-3.2/result/LINK_invent/BTK/process_docking_weight1_custom_product_contain_oxygen_bond_distance_aromatic_linkinvent_7_9_3/rearranged_h_0014.sdf

> <i_m_source_file_index>
64

> <r_mmod_Potential_Energy-OPLS-2005>
781.934326171875

> <r_mmod_Stretch_Energy-OPLS-2005>
226.789367675781

> <r_mmod_Bend_Energy-OPLS-2005>
330.877288818359

> <r_mmod_Torsional_Energy-OPLS-2005>
391.118377685547

> <r_mmod_Improper_Torsional_Energy-OPLS-2005>
25.657398223877

> <r_mmod_Van_der_Waal_Energy-OPLS-2005>
141.344543457031

> <r_mmod_Electrostatic_Energy-OPLS-2005>
-328.026275634766

> <r_mmod_Solvation_Energy-OPLS-2005>
-207.902252197266

> <b_mmod_Minimization_Converged-OPLS-2005>
0

> <r_mmod_RMS_Derivative-OPLS-2005>
2.17498636245728

$$$$
65
                    3D
 Structure written by MMmdl.
162170  0  0  1  0            999 V2000
  -30.7184  -14.4201   20.6263 C   0  0  0  0  0  0
  -30.4218  -12.2997   19.3983 C   0  0  0  0  0  0
  -29.4870  -12.5142   18.1918 C   0  0  0  0  0  0
  -28.0106  -12.3599   18.6067 C   0  0  0  0  0  0
  -27.6580  -13.1870   19.8706 C   0  0  2  0  0  0
  -28.6996  -12.9518   20.9871 C   0  0  0  0  0  0
  -25.2601  -13.8104   20.5665 C   0  0  0  0  0  0
  -24.1835  -13.0412   20.9168 C   0  0  0  0  0  0
  -24.6355  -11.6879   20.8720 C   0  0  0  0  0  0
  -23.9018  -10.4283   21.0390 C   0  0  0  0  0  0
  -24.3592   -9.4208   21.9169 C   0  0  0  0  0  0
  -23.6288   -8.2235   22.0739 C   0  0  0  0  0  0
  -22.4271   -8.0258   21.3538 C   0  0  0  0  0  0
  -21.9886   -9.0220   20.4644 C   0  0  0  0  0  0
  -22.7190  -10.2112   20.3045 C   0  0  0  0  0  0
  -21.6856   -6.0721   22.5283 C   0  0  0  0  0  0
  -21.4013   -6.5627   23.8210 C   0  0  0  0  0  0
  -21.3658   -5.6783   24.9175 C   0  0  0  0  0  0
  -21.6045   -4.3045   24.7231 C   0  0  0  0  0  0
  -21.8826   -3.8132   23.4356 C   0  0  0  0  0  0
  -21.9198   -4.6949   22.3411 C   0  0  0  0  0  0
  -22.7870  -13.5239   21.1833 C   0  0  0  0  0  0
  -22.1665   -4.2132   21.0988 F   0  0  0  0  0  0
  -21.5634   -3.4537   25.7746 F   0  0  0  0  0  0
  -30.0338  -13.2591   20.4417 N   0  0  0  0  0  0
  -26.2999  -12.9226   20.3339 N   0  0  0  0  0  0
  -25.9267  -11.6408   20.5733 N   0  0  0  0  0  0
  -22.0503  -12.8255   22.0400 N   0  0  0  0  0  0
  -25.4348  -15.1826   20.4071 N   0  0  0  0  0  0
  -31.8128  -14.6476   20.1007 O   0  0  0  0  0  0
  -21.6644   -6.8854   21.4240 O   0  0  0  0  0  0
  -22.3574  -14.5550   20.6672 O   0  0  0  0  0  0
  -24.6130  -31.8688   23.2113 C   0  0  0  0  0  0
  -25.9035  -32.4822   23.8399 C   0  0  1  0  0  0
  -27.2388  -27.4519   20.0877 C   0  0  0  0  0  0
  -25.5895  -33.8622   24.2335 N   0  0  0  0  0  0
  -23.3994  -30.4926   21.5522 C   0  0  2  0  0  0
  -24.8441  -28.9606   20.1133 C   0  0  0  0  0  0
  -22.7395  -29.4664   22.5009 C   0  0  0  0  0  0
  -18.0268  -28.1378   22.8499 C   0  0  0  0  0  0
  -24.1483  -36.7316   23.2630 C   0  0  0  0  0  0
  -25.9253  -30.8390   21.3603 C   0  0  0  0  0  0
  -26.0028  -29.4754   20.7082 C   0  0  0  0  0  0
  -27.2006  -28.7288   20.6910 C   0  0  0  0  0  0
  -26.0615  -26.9503   19.4846 C   0  0  0  0  0  0
  -24.8689  -27.6971   19.4990 C   0  0  0  0  0  0
  -23.6053  -29.8244   20.1662 C   0  0  0  0  0  0
  -25.4100  -36.3116   24.0343 C   0  0  1  0  0  0
  -20.5857  -28.3664   23.1328 C   0  0  2  0  0  0
  -20.6761  -26.9406   22.5427 C   0  0  0  0  0  0
  -19.5745  -26.6389   21.5218 C   0  0  0  0  0  0
  -18.1919  -26.7926   22.1622 C   0  0  0  0  0  0
  -19.1516  -28.8838   23.2913 C   0  0  0  0  0  0
  -18.9444  -30.1442   23.8930 C   0  0  0  0  0  0
  -17.6446  -30.6584   24.0569 C   0  0  0  0  0  0
  -25.9030  -34.9479   23.5140 C   0  0  0  0  0  0
  -16.5337  -29.9090   23.6320 C   0  0  0  0  0  0
  -16.7256  -28.6503   23.0351 C   0  0  0  0  0  0
  -26.4474  -31.6597   25.0717 C   0  0  0  0  0  0
  -25.3754  -31.3705   26.1476 C   0  0  0  0  0  0
  -27.0282  -30.3041   24.6070 C   0  0  0  0  0  0
  -27.6069  -32.4306   25.7459 C   0  0  0  0  0  0
  -27.5596  -37.1788   24.8446 C   0  0  0  0  0  0
  -21.4126  -29.3031   22.3739 N   0  0  0  0  0  0
  -26.4279  -37.3809   23.9433 N   0  0  0  0  0  0
  -24.6643  -31.0809   22.1000 N   0  0  0  0  0  0
  -23.4174  -28.8208   23.3049 O   0  0  0  0  0  0
  -28.4300  -26.7540   20.1036 O   0  0  0  0  0  0
  -26.5596  -34.8935   22.4702 O   0  0  0  0  0  0
  -23.5334  -32.1436   23.7526 O   0  0  0  0  0  0
  -31.3699  -17.9292   20.5195 C   0  0  0  0  0  0
  -31.9689  -19.1254   20.0793 C   0  0  0  0  0  0
  -29.2111  -18.7334   19.7316 C   0  0  0  0  0  0
  -29.9845  -17.7181   20.3395 C   0  0  0  0  0  0
  -29.8084  -19.9311   19.2739 C   0  0  0  0  0  0
  -31.1956  -20.1175   19.4492 C   0  0  0  0  0  0
  -30.4870  -15.5848   22.7557 C   0  0  0  0  0  0
  -29.2861  -16.4131   20.7262 C   0  0  0  0  0  0
  -28.9738  -20.9747   18.5337 C   0  0  0  0  0  0
  -28.7353  -24.8359   18.6083 C   0  0  0  0  0  0
  -28.3586  -23.3665   18.3074 C   0  0  0  0  0  0
  -28.3891  -25.3247   20.0271 C   0  0  0  0  0  0
  -30.0872  -15.3548   21.3668 N   0  0  0  0  0  0
  -29.1778  -22.3568   19.0248 N   0  3  0  0  0  0
  -31.7846  -21.2571   19.0121 F   0  0  0  0  0  0
  -31.4622  -12.4144   19.0913 H   0  0  0  0  0  0
  -30.3340  -11.2796   19.7760 H   0  0  0  0  0  0
  -29.7291  -11.8067   17.3978 H   0  0  0  0  0  0
  -29.6506  -13.5080   17.7712 H   0  0  0  0  0  0
  -27.8254  -11.3003   18.7925 H   0  0  0  0  0  0
  -27.3572  -12.6397   17.7801 H   0  0  0  0  0  0
  -27.6944  -14.2313   19.5752 H   0  0  0  0  0  0
  -28.6770  -11.9113   21.3121 H   0  0  0  0  0  0
  -28.4520  -13.5366   21.8729 H   0  0  0  0  0  0
  -25.2735   -9.5710   22.4739 H   0  0  0  0  0  0
  -24.0016   -7.4629   22.7454 H   0  0  0  0  0  0
  -21.0814   -8.8711   19.8965 H   0  0  0  0  0  0
  -22.3613  -10.9639   19.6156 H   0  0  0  0  0  0
  -21.1994   -7.6133   23.9718 H   0  0  0  0  0  0
  -21.1474   -6.0508   25.9080 H   0  0  0  0  0  0
  -22.0610   -2.7597   23.2866 H   0  0  0  0  0  0
  -22.4101  -11.9926   22.4821 H   0  0  0  0  0  0
  -21.1109  -13.1273   22.2559 H   0  0  0  0  0  0
  -24.6732  -15.8419   20.5249 H   0  0  0  0  0  0
  -26.2910  -15.6199   20.0940 H   0  0  0  0  0  0
  -26.7107  -32.5545   23.1167 H   0  0  0  0  0  0
  -25.0070  -33.9787   25.0498 H   0  0  0  0  0  0
  -22.6879  -31.3096   21.4141 H   0  0  0  0  0  0
  -23.3766  -35.9626   23.3243 H   0  0  0  0  0  0
  -24.3608  -36.8979   22.2057 H   0  0  0  0  0  0
  -23.7195  -37.6491   23.6676 H   0  0  0  0  0  0
  -26.0341  -31.6051   20.5917 H   0  0  0  0  0  0
  -26.8145  -30.8938   21.9765 H   0  0  0  0  0  0
  -28.0954  -29.1252   21.1502 H   0  0  0  0  0  0
  -26.0504  -25.9914   18.9877 H   0  0  0  0  0  0
  -23.9804  -27.2974   19.0285 H   0  0  0  0  0  0
  -23.7088  -30.5984   19.4045 H   0  0  0  0  0  0
  -22.7296  -29.2407   19.8744 H   0  0  0  0  0  0
  -25.1267  -36.1974   25.0833 H   0  0  0  0  0  0
  -20.9946  -28.3227   24.1446 H   0  0  0  0  0  0
  -20.5657  -26.2275   23.3617 H   0  0  0  0  0  0
  -21.6634  -26.7454   22.1214 H   0  0  0  0  0  0
  -19.6903  -25.6303   21.1239 H   0  0  0  0  0  0
  -19.6683  -27.3211   20.6760 H   0  0  0  0  0  0
  -17.4195  -26.6695   21.4014 H   0  0  0  0  0  0
  -18.0305  -26.0057   22.9001 H   0  0  0  0  0  0
  -19.7921  -30.7250   24.2315 H   0  0  0  0  0  0
  -17.5001  -31.6270   24.5162 H   0  0  0  0  0  0
  -15.5339  -30.3004   23.7625 H   0  0  0  0  0  0
  -15.8653  -28.0824   22.7064 H   0  0  0  0  0  0
  -24.5934  -30.7032   25.7834 H   0  0  0  0  0  0
  -24.8930  -32.2852   26.4927 H   0  0  0  0  0  0
  -25.8117  -30.8888   27.0234 H   0  0  0  0  0  0
  -26.2798  -29.6800   24.1165 H   0  0  0  0  0  0
  -27.4101  -29.7280   25.4509 H   0  0  0  0  0  0
  -27.8620  -30.4361   23.9170 H   0  0  0  0  0  0
  -27.2717  -33.3613   26.2051 H   0  0  0  0  0  0
  -28.3860  -32.6845   25.0257 H   0  0  0  0  0  0
  -28.0752  -31.8409   26.5352 H   0  0  0  0  0  0
  -28.2553  -38.0147   24.7611 H   0  0  0  0  0  0
  -28.1157  -36.2695   24.6116 H   0  0  0  0  0  0
  -27.2352  -37.1237   25.8852 H   0  0  0  0  0  0
  -20.9287  -29.8758   21.6966 H   0  0  0  0  0  0
  -26.0168  -38.2873   24.1512 H   0  0  0  0  0  0
  -31.9963  -17.1766   20.9745 H   0  0  0  0  0  0
  -33.0302  -19.2753   20.2106 H   0  0  0  0  0  0
  -28.1524  -18.5724   19.5824 H   0  0  0  0  0  0
  -31.5499  -15.8207   22.8315 H   0  0  0  0  0  0
  -30.2987  -14.6927   23.3545 H   0  0  0  0  0  0
  -29.9262  -16.4050   23.2051 H   0  0  0  0  0  0
  -28.8568  -16.0250   19.8021 H   0  0  0  0  0  0
  -28.4346  -16.6438   21.3679 H   0  0  0  0  0  0
  -27.9156  -20.7195   18.6095 H   0  0  0  0  0  0
  -29.2301  -20.9217   17.4746 H   0  0  0  0  0  0
  -28.2009  -25.4607   17.8927 H   0  0  0  0  0  0
  -29.7931  -25.0070   18.4065 H   0  0  0  0  0  0
  -28.4769  -23.2051   17.2342 H   0  0  0  0  0  0
  -27.3017  -23.2008   18.5226 H   0  0  0  0  0  0
  -29.1339  -24.9398   20.7247 H   0  0  0  0  0  0
  -27.4383  -24.9186   20.3769 H   0  0  0  0  0  0
  -30.1603  -22.5580   18.9093 H   0  0  0  0  0  0
  -28.9613  -22.3773   20.0075 H   0  0  0  0  0  0
  1 25  1  0  0  0
  1 30  2  0  0  0
  1 83  1  0  0  0
  2  3  1  0  0  0
  2 25  1  0  0  0
  2 86  1  0  0  0
  2 87  1  0  0  0
  3  4  1  0  0  0
  3 88  1  0  0  0
  3 89  1  0  0  0
  4  5  1  0  0  0
  4 90  1  0  0  0
  4 91  1  0  0  0
  5  6  1  0  0  0
  5 26  1  0  0  0
  5 92  1  0  0  0
  6 25  1  0  0  0
  6 93  1  0  0  0
  6 94  1  0  0  0
  7  8  2  0  0  0
  7 26  1  0  0  0
  7 29  1  0  0  0
  8  9  1  0  0  0
  8 22  1  0  0  0
  9 10  1  0  0  0
  9 27  2  0  0  0
 10 11  2  0  0  0
 10 15  1  0  0  0
 11 12  1  0  0  0
 11 95  1  0  0  0
 12 13  2  0  0  0
 12 96  1  0  0  0
 13 14  1  0  0  0
 13 31  1  0  0  0
 14 15  2  0  0  0
 14 97  1  0  0  0
 15 98  1  0  0  0
 16 17  2  0  0  0
 16 21  1  0  0  0
 16 31  1  0  0  0
 17 18  1  0  0  0
 17 99  1  0  0  0
 18 19  2  0  0  0
 18100  1  0  0  0
 19 20  1  0  0  0
 19 24  1  0  0  0
 20 21  2  0  0  0
 20101  1  0  0  0
 21 23  1  0  0  0
 22 28  1  0  0  0
 22 32  2  0  0  0
 26 27  1  0  0  0
 28102  1  0  0  0
 28103  1  0  0  0
 29104  1  0  0  0
 29105  1  0  0  0
 33 34  1  0  0  0
 33 66  1  0  0  0
 33 70  2  0  0  0
 34 36  1  0  0  0
 34 59  1  0  0  0
 34106  1  0  0  0
 35 44  2  0  0  0
 35 45  1  0  0  0
 35 68  1  0  0  0
 36 56  1  0  0  0
 36107  1  0  0  0
 37 39  1  0  0  0
 37 47  1  0  0  0
 37 66  1  0  0  0
 37108  1  0  0  0
 38 43  2  0  0  0
 38 46  1  0  0  0
 38 47  1  0  0  0
 39 64  1  0  0  0
 39 67  2  0  0  0
 40 52  1  0  0  0
 40 53  2  0  0  0
 40 58  1  0  0  0
 41109  1  0  0  0
 41110  1  0  0  0
 41111  1  0  0  0
 41 48  1  0  0  0
 42 43  1  0  0  0
 42 66  1  0  0  0
 42112  1  0  0  0
 42113  1  0  0  0
 43 44  1  0  0  0
 44114  1  0  0  0
 45 46  2  0  0  0
 45115  1  0  0  0
 46116  1  0  0  0
 47117  1  0  0  0
 47118  1  0  0  0
 48 56  1  0  0  0
 48 65  1  0  0  0
 48119  1  0  0  0
 49 50  1  0  0  0
 49 53  1  0  0  0
 49 64  1  0  0  0
 49120  1  0  0  0
 50 51  1  0  0  0
 50121  1  0  0  0
 50122  1  0  0  0
 51 52  1  0  0  0
 51123  1  0  0  0
 51124  1  0  0  0
 52125  1  0  0  0
 52126  1  0  0  0
 53 54  1  0  0  0
 54 55  2  0  0  0
 54127  1  0  0  0
 55 57  1  0  0  0
 55128  1  0  0  0
 56 69  2  0  0  0
 57 58  2  0  0  0
 57129  1  0  0  0
 58130  1  0  0  0
 59 60  1  0  0  0
 59 61  1  0  0  0
 59 62  1  0  0  0
 60131  1  0  0  0
 60132  1  0  0  0
 60133  1  0  0  0
 61134  1  0  0  0
 61135  1  0  0  0
 61136  1  0  0  0
 62137  1  0  0  0
 62138  1  0  0  0
 62139  1  0  0  0
 63 65  1  0  0  0
 63140  1  0  0  0
 63141  1  0  0  0
 63142  1  0  0  0
 64143  1  0  0  0
 65144  1  0  0  0
 68 82  1  0  0  0
 71 72  2  0  0  0
 71 74  1  0  0  0
 71145  1  0  0  0
 72 76  1  0  0  0
 72146  1  0  0  0
 73 74  2  0  0  0
 73 75  1  0  0  0
 73147  1  0  0  0
 74 78  1  0  0  0
 75 76  2  0  0  0
 75 79  1  0  0  0
 76 85  1  0  0  0
 77 83  1  0  0  0
 77148  1  0  0  0
 77149  1  0  0  0
 77150  1  0  0  0
 78 83  1  0  0  0
 78151  1  0  0  0
 78152  1  0  0  0
 79 84  1  0  0  0
 79153  1  0  0  0
 79154  1  0  0  0
 80 81  1  0  0  0
 80 82  1  0  0  0
 80155  1  0  0  0
 80156  1  0  0  0
 81 84  1  0  0  0
 81157  1  0  0  0
 81158  1  0  0  0
 82159  1  0  0  0
 82160  1  0  0  0
 84161  1  0  0  0
 84162  1  0  0  0
M  CHG  1  84   1
M  ISO  4   1 100  68 101  82 101  83 100
M  END
> <chiral flag>
0

> <version>
0

> <s_m_source_file>
/data/baiqing/PycharmProjects/Reinvent-master-3.2/result/LINK_invent/BTK/process_docking_weight1_custom_product_contain_oxygen_bond_distance_aromatic_linkinvent_7_9_3/rearranged_h_0014.sdf

> <i_m_source_file_index>
65

> <r_mmod_Potential_Energy-OPLS-2005>
-140.688110351562

> <r_mmod_Stretch_Energy-OPLS-2005>
34.5864601135254

> <r_mmod_Bend_Energy-OPLS-2005>
96.2077255249023

> <r_mmod_Torsional_Energy-OPLS-2005>
276.584442138672

> <r_mmod_Improper_Torsional_Energy-OPLS-2005>
3.07886958122253

> <r_mmod_Van_der_Waal_Energy-OPLS-2005>
151.757843017578

> <r_mmod_Electrostatic_Energy-OPLS-2005>
-265.099273681641

> <r_mmod_Solvation_Energy-OPLS-2005>
-447.270568847656

> <b_mmod_Minimization_Converged-OPLS-2005>
0

> <r_mmod_RMS_Derivative-OPLS-2005>
1.7865549325943

$$$$
66
                    3D
 Structure written by MMmdl.
148157  0  0  1  0            999 V2000
  -30.2960  -15.6376   20.3448 C   0  0  0  0  0  0
  -30.4370  -13.0917   19.5174 C   0  0  0  0  0  0
  -29.5465  -12.6635   18.3124 C   0  0  0  0  0  0
  -28.1238  -12.2956   18.7622 C   0  0  0  0  0  0
  -27.6034  -13.2916   19.8210 C   0  0  2  0  0  0
  -28.6399  -13.5709   20.9365 C   0  0  0  0  0  0
  -25.2275  -13.8166   20.5742 C   0  0  0  0  0  0
  -24.1690  -13.0339   20.9287 C   0  0  0  0  0  0
  -24.6426  -11.6876   20.8795 C   0  0  0  0  0  0
  -23.9128  -10.4243   21.0412 C   0  0  0  0  0  0
  -24.3664   -9.4159   21.9190 C   0  0  0  0  0  0
  -23.6315   -8.2210   22.0759 C   0  0  0  0  0  0
  -22.4292   -8.0273   21.3548 C   0  0  0  0  0  0
  -21.9939   -9.0246   20.4643 C   0  0  0  0  0  0
  -22.7297  -10.2107   20.3050 C   0  0  0  0  0  0
  -21.6851   -6.0737   22.5280 C   0  0  0  0  0  0
  -21.4007   -6.5639   23.8211 C   0  0  0  0  0  0
  -21.3657   -5.6793   24.9174 C   0  0  0  0  0  0
  -21.6043   -4.3055   24.7220 C   0  0  0  0  0  0
  -21.8821   -3.8149   23.4339 C   0  0  0  0  0  0
  -21.9191   -4.6967   22.3398 C   0  0  0  0  0  0
  -22.7706  -13.5098   21.1915 C   0  0  0  0  0  0
  -22.1664   -4.2159   21.0975 F   0  0  0  0  0  0
  -21.5630   -3.4539   25.7728 F   0  0  0  0  0  0
  -29.7953  -14.2537   20.2879 N   0  0  0  0  0  0
  -26.2803  -12.9528   20.3280 N   0  0  0  0  0  0
  -25.9379  -11.6616   20.5755 N   0  0  0  0  0  0
  -22.0373  -12.8095   22.0483 N   0  0  0  0  0  0
  -25.3623  -15.1882   20.4055 N   0  0  0  0  0  0
  -31.5280  -15.5890   20.1493 O   0  0  0  0  0  0
  -21.6639   -6.8883   21.4243 O   0  0  0  0  0  0
  -22.3379  -14.5402   20.6753 O   0  0  0  0  0  0
  -24.6830  -31.8002   23.1524 C   0  0  0  0  0  0
  -25.9414  -32.4472   23.8062 C   0  0  1  0  0  0
  -27.2351  -26.7136   20.2119 C   0  0  0  0  0  0
  -25.5997  -33.8293   24.1960 N   0  0  0  0  0  0
  -23.5092  -30.4021   21.5062 C   0  0  2  0  0  0
  -24.9699  -28.7449   20.1180 C   0  0  0  0  0  0
  -22.7765  -29.4317   22.4718 C   0  0  0  0  0  0
  -18.0335  -28.1434   22.8459 C   0  0  0  0  0  0
  -24.1498  -36.7148   23.2646 C   0  0  0  0  0  0
  -26.0892  -30.5377   21.4148 C   0  0  0  0  0  0
  -26.1583  -29.1029   20.7655 C   0  0  0  0  0  0
  -27.2756  -28.1145   20.7818 C   0  0  0  0  0  0
  -26.0127  -26.5634   19.5077 C   0  0  0  0  0  0
  -24.9353  -27.5004   19.4658 C   0  0  0  0  0  0
  -23.7641  -29.6982   20.1416 C   0  0  0  0  0  0
  -25.4152  -36.2905   24.0278 C   0  0  1  0  0  0
  -20.5973  -28.3790   23.1154 C   0  0  2  0  0  0
  -20.6806  -26.9451   22.5410 C   0  0  0  0  0  0
  -19.5784  -26.6389   21.5218 C   0  0  0  0  0  0
  -18.1969  -26.7960   22.1628 C   0  0  0  0  0  0
  -19.1604  -28.8937   23.2786 C   0  0  0  0  0  0
  -18.9506  -30.1514   23.8841 C   0  0  0  0  0  0
  -17.6496  -30.6613   24.0556 C   0  0  0  0  0  0
  -25.9129  -34.9287   23.4960 C   0  0  0  0  0  0
  -16.5386  -29.9101   23.6345 C   0  0  0  0  0  0
  -16.7312  -28.6522   23.0368 C   0  0  0  0  0  0
  -26.4606  -31.6491   25.0669 C   0  0  0  0  0  0
  -25.3680  -31.3808   26.1296 C   0  0  0  0  0  0
  -27.0501  -30.2825   24.6531 C   0  0  0  0  0  0
  -27.6079  -32.4319   25.7484 C   0  0  0  0  0  0
  -27.5572  -37.1745   24.8471 C   0  0  0  0  0  0
  -21.4414  -29.3029   22.3466 N   0  0  0  0  0  0
  -26.4290  -37.3657   23.9399 N   0  0  0  0  0  0
  -24.7838  -30.9456   22.0774 N   0  0  0  0  0  0
  -23.4212  -28.7909   23.3056 O   0  0  0  0  0  0
  -28.1922  -25.4923   20.3001 O   0  0  0  0  0  0
  -26.5768  -34.8859   22.4576 O   0  0  0  0  0  0
  -23.5851  -32.1065   23.6491 O   0  0  0  0  0  0
  -29.8999  -21.3626   19.8744 C   0  0  0  0  0  0
  -30.2967  -19.8722   19.9053 C   0  0  0  0  0  0
  -27.8770  -20.8342   20.6681 C   0  0  0  0  0  0
  -28.2699  -19.3589   20.6802 C   0  0  0  0  0  0
  -28.6320  -22.0623   20.2664 C   0  0  0  0  0  0
  -29.4960  -18.6824   20.3173 C   0  0  0  0  0  0
  -27.3537  -18.2276   21.0843 C   0  0  0  0  0  0
  -28.0810  -16.8449   20.8235 C   0  0  0  0  0  0
  -27.9109  -23.7811   20.0649 C   0  0  0  0  0  0
  -29.4983  -16.9920   20.4375 N   0  0  0  0  0  0
  -31.4132  -13.3828   19.1277 H   0  0  0  0  0  0
  -30.6420  -12.2424   20.1711 H   0  0  0  0  0  0
  -30.0012  -11.8271   17.7798 H   0  0  0  0  0  0
  -29.4946  -13.4868   17.5990 H   0  0  0  0  0  0
  -28.1585  -11.2938   19.1933 H   0  0  0  0  0  0
  -27.4481  -12.2421   17.9071 H   0  0  0  0  0  0
  -27.4724  -14.2194   19.2664 H   0  0  0  0  0  0
  -28.9265  -12.6463   21.4398 H   0  0  0  0  0  0
  -28.2122  -14.1823   21.7238 H   0  0  0  0  0  0
  -25.2810   -9.5626   22.4771 H   0  0  0  0  0  0
  -24.0007   -7.4595   22.7486 H   0  0  0  0  0  0
  -21.0861   -8.8781   19.8954 H   0  0  0  0  0  0
  -22.3769  -10.9650   19.6160 H   0  0  0  0  0  0
  -21.1996   -7.6146   23.9713 H   0  0  0  0  0  0
  -21.1478   -6.0524   25.9076 H   0  0  0  0  0  0
  -22.0604   -2.7610   23.2835 H   0  0  0  0  0  0
  -22.4016  -11.9781   22.4892 H   0  0  0  0  0  0
  -21.0985  -13.1100   22.2700 H   0  0  0  0  0  0
  -24.5682  -15.8131   20.4872 H   0  0  0  0  0  0
  -26.1818  -15.6350   20.0216 H   0  0  0  0  0  0
  -26.7492  -32.4963   23.0768 H   0  0  0  0  0  0
  -25.0051  -33.9324   25.0056 H   0  0  0  0  0  0
  -22.8339  -31.2388   21.3168 H   0  0  0  0  0  0
  -23.3772  -35.9466   23.3286 H   0  0  0  0  0  0
  -24.3546  -36.8816   22.2059 H   0  0  0  0  0  0
  -23.7243  -37.6323   23.6723 H   0  0  0  0  0  0
  -26.2870  -31.2619   20.6237 H   0  0  0  0  0  0
  -26.9422  -30.6109   22.0765 H   0  0  0  0  0  0
  -28.1680  -28.3925   21.3258 H   0  0  0  0  0  0
  -25.8458  -25.6196   19.0088 H   0  0  0  0  0  0
  -24.0374  -27.2172   18.9352 H   0  0  0  0  0  0
  -23.9398  -30.4576   19.3789 H   0  0  0  0  0  0
  -22.8690  -29.1641   19.8176 H   0  0  0  0  0  0
  -25.1358  -36.1679   25.0766 H   0  0  0  0  0  0
  -21.0054  -28.3420   24.1282 H   0  0  0  0  0  0
  -20.5688  -26.2402   23.3663 H   0  0  0  0  0  0
  -21.6664  -26.7408   22.1218 H   0  0  0  0  0  0
  -19.6938  -25.6285   21.1284 H   0  0  0  0  0  0
  -19.6726  -27.3165   20.6722 H   0  0  0  0  0  0
  -17.4228  -26.6683   21.4042 H   0  0  0  0  0  0
  -18.0371  -26.0131   22.9059 H   0  0  0  0  0  0
  -19.7980  -30.7346   24.2199 H   0  0  0  0  0  0
  -17.5046  -31.6289   24.5171 H   0  0  0  0  0  0
  -15.5389  -30.2988   23.7706 H   0  0  0  0  0  0
  -15.8710  -28.0817   22.7132 H   0  0  0  0  0  0
  -24.5900  -30.7106   25.7613 H   0  0  0  0  0  0
  -24.8831  -32.3025   26.4522 H   0  0  0  0  0  0
  -25.7878  -30.9119   27.0202 H   0  0  0  0  0  0
  -26.3192  -29.6484   24.1505 H   0  0  0  0  0  0
  -27.3908  -29.7227   25.5251 H   0  0  0  0  0  0
  -27.9188  -30.3937   24.0037 H   0  0  0  0  0  0
  -27.2649  -33.3693   26.1875 H   0  0  0  0  0  0
  -28.4001  -32.6754   25.0389 H   0  0  0  0  0  0
  -28.0620  -31.8555   26.5557 H   0  0  0  0  0  0
  -28.2586  -38.0048   24.7496 H   0  0  0  0  0  0
  -28.1075  -36.2566   24.6338 H   0  0  0  0  0  0
  -27.2266  -37.1423   25.8870 H   0  0  0  0  0  0
  -20.9721  -29.8669   21.6515 H   0  0  0  0  0  0
  -26.0119  -38.2707   24.1408 H   0  0  0  0  0  0
  -30.6572  -22.0176   19.4676 H   0  0  0  0  0  0
  -31.2906  -19.6509   19.5426 H   0  0  0  0  0  0
  -26.8575  -21.0246   20.9726 H   0  0  0  0  0  0
  -26.4161  -18.2869   20.5311 H   0  0  0  0  0  0
  -27.1105  -18.3369   22.1421 H   0  0  0  0  0  0
  -27.6022  -16.3542   19.9815 H   0  0  0  0  0  0
  -27.9655  -16.2306   21.7120 H   0  0  0  0  0  0
  -26.9616  -23.6611   20.5879 H   0  0  0  0  0  0
  -27.6226  -23.7568   19.0146 H   0  0  0  0  0  0
  1 25  1  0  0  0
  1 30  2  0  0  0
  1 80  1  0  0  0
  2  3  1  0  0  0
  2 25  1  0  0  0
  2 81  1  0  0  0
  2 82  1  0  0  0
  3  4  1  0  0  0
  3 83  1  0  0  0
  3 84  1  0  0  0
  4  5  1  0  0  0
  4 85  1  0  0  0
  4 86  1  0  0  0
  5  6  1  0  0  0
  5 26  1  0  0  0
  5 87  1  0  0  0
  6 25  1  0  0  0
  6 88  1  0  0  0
  6 89  1  0  0  0
  7  8  2  0  0  0
  7 26  1  0  0  0
  7 29  1  0  0  0
  8  9  1  0  0  0
  8 22  1  0  0  0
  9 10  1  0  0  0
  9 27  2  0  0  0
 10 11  2  0  0  0
 10 15  1  0  0  0
 11 12  1  0  0  0
 11 90  1  0  0  0
 12 13  2  0  0  0
 12 91  1  0  0  0
 13 14  1  0  0  0
 13 31  1  0  0  0
 14 15  2  0  0  0
 14 92  1  0  0  0
 15 93  1  0  0  0
 16 17  2  0  0  0
 16 21  1  0  0  0
 16 31  1  0  0  0
 17 18  1  0  0  0
 17 94  1  0  0  0
 18 19  2  0  0  0
 18 95  1  0  0  0
 19 20  1  0  0  0
 19 24  1  0  0  0
 20 21  2  0  0  0
 20 96  1  0  0  0
 21 23  1  0  0  0
 22 28  1  0  0  0
 22 32  2  0  0  0
 26 27  1  0  0  0
 28 97  1  0  0  0
 28 98  1  0  0  0
 29 99  1  0  0  0
 29100  1  0  0  0
 33 34  1  0  0  0
 33 66  1  0  0  0
 33 70  2  0  0  0
 34 36  1  0  0  0
 34 59  1  0  0  0
 34101  1  0  0  0
 35 44  2  0  0  0
 35 45  1  0  0  0
 35 68  1  0  0  0
 36 56  1  0  0  0
 36102  1  0  0  0
 37 39  1  0  0  0
 37 47  1  0  0  0
 37 66  1  0  0  0
 37103  1  0  0  0
 38 43  2  0  0  0
 38 46  1  0  0  0
 38 47  1  0  0  0
 39 64  1  0  0  0
 39 67  2  0  0  0
 40 52  1  0  0  0
 40 53  2  0  0  0
 40 58  1  0  0  0
 41104  1  0  0  0
 41105  1  0  0  0
 41106  1  0  0  0
 41 48  1  0  0  0
 42 43  1  0  0  0
 42 66  1  0  0  0
 42107  1  0  0  0
 42108  1  0  0  0
 43 44  1  0  0  0
 44109  1  0  0  0
 45 46  2  0  0  0
 45110  1  0  0  0
 46111  1  0  0  0
 47112  1  0  0  0
 47113  1  0  0  0
 48 56  1  0  0  0
 48 65  1  0  0  0
 48114  1  0  0  0
 49 50  1  0  0  0
 49 53  1  0  0  0
 49 64  1  0  0  0
 49115  1  0  0  0
 50 51  1  0  0  0
 50116  1  0  0  0
 50117  1  0  0  0
 51 52  1  0  0  0
 51118  1  0  0  0
 51119  1  0  0  0
 52120  1  0  0  0
 52121  1  0  0  0
 53 54  1  0  0  0
 54 55  2  0  0  0
 54122  1  0  0  0
 55 57  1  0  0  0
 55123  1  0  0  0
 56 69  2  0  0  0
 57 58  2  0  0  0
 57124  1  0  0  0
 58125  1  0  0  0
 59 60  1  0  0  0
 59 61  1  0  0  0
 59 62  1  0  0  0
 60126  1  0  0  0
 60127  1  0  0  0
 60128  1  0  0  0
 61129  1  0  0  0
 61130  1  0  0  0
 61131  1  0  0  0
 62132  1  0  0  0
 62133  1  0  0  0
 62134  1  0  0  0
 63 65  1  0  0  0
 63135  1  0  0  0
 63136  1  0  0  0
 63137  1  0  0  0
 64138  1  0  0  0
 65139  1  0  0  0
 68 79  1  0  0  0
 71 72  2  0  0  0
 71 75  1  0  0  0
 71140  1  0  0  0
 72 76  1  0  0  0
 72141  1  0  0  0
 73 74  1  0  0  0
 73 75  2  0  0  0
 73142  1  0  0  0
 74 76  2  0  0  0
 74 77  1  0  0  0
 75 79  1  0  0  0
 76 80  1  0  0  0
 77 78  1  0  0  0
 77143  1  0  0  0
 77144  1  0  0  0
 78 80  1  0  0  0
 78145  1  0  0  0
 78146  1  0  0  0
 79147  1  0  0  0
 79148  1  0  0  0
M  ISO  4   1 100  68 101  79 101  80 100
M  END
> <chiral flag>
0

> <version>
0

> <s_m_source_file>
/data/baiqing/PycharmProjects/Reinvent-master-3.2/result/LINK_invent/BTK/process_docking_weight1_custom_product_contain_oxygen_bond_distance_aromatic_linkinvent_7_9_3/rearranged_h_0014.sdf

> <i_m_source_file_index>
66

> <r_mmod_Potential_Energy-OPLS-2005>
2497.12841796875

> <r_mmod_Stretch_Energy-OPLS-2005>
917.602172851562

> <r_mmod_Bend_Energy-OPLS-2005>
747.848022460938

> <r_mmod_Torsional_Energy-OPLS-2005>
282.660888671875

> <r_mmod_Improper_Torsional_Energy-OPLS-2005>
6.20990419387817

> <r_mmod_Van_der_Waal_Energy-OPLS-2005>
132.971282958984

> <r_mmod_Electrostatic_Energy-OPLS-2005>
-277.9287109375

> <r_mmod_Solvation_Energy-OPLS-2005>
-197.9375

> <b_mmod_Minimization_Converged-OPLS-2005>
0

> <r_mmod_RMS_Derivative-OPLS-2005>
1.55567729473114

$$$$
67
                    3D
 Structure written by MMmdl.
159168  0  0  1  0            999 V2000
  -30.6569  -14.6781   20.4982 C   0  0  0  0  0  0
  -30.4179  -12.4234   19.4621 C   0  0  0  0  0  0
  -29.4985  -12.5058   18.2265 C   0  0  0  0  0  0
  -28.0259  -12.3350   18.6432 C   0  0  0  0  0  0
  -27.6398  -13.2288   19.8518 C   0  0  2  0  0  0
  -28.6831  -13.1481   20.9865 C   0  0  0  0  0  0
  -25.2491  -13.8192   20.5689 C   0  0  0  0  0  0
  -24.1788  -13.0437   20.9213 C   0  0  0  0  0  0
  -24.6382  -11.6917   20.8757 C   0  0  0  0  0  0
  -23.9064  -10.4293   21.0413 C   0  0  0  0  0  0
  -24.3617   -9.4208   21.9188 C   0  0  0  0  0  0
  -23.6293   -8.2242   22.0755 C   0  0  0  0  0  0
  -22.4275   -8.0281   21.3544 C   0  0  0  0  0  0
  -21.9912   -9.0255   20.4646 C   0  0  0  0  0  0
  -22.7239  -10.2134   20.3059 C   0  0  0  0  0  0
  -21.6852   -6.0737   22.5279 C   0  0  0  0  0  0
  -21.4013   -6.5640   23.8213 C   0  0  0  0  0  0
  -21.3659   -5.6792   24.9174 C   0  0  0  0  0  0
  -21.6044   -4.3055   24.7225 C   0  0  0  0  0  0
  -21.8819   -3.8149   23.4345 C   0  0  0  0  0  0
  -21.9192   -4.6965   22.3402 C   0  0  0  0  0  0
  -22.7810  -13.5220   21.1870 C   0  0  0  0  0  0
  -22.1661   -4.2152   21.0979 F   0  0  0  0  0  0
  -21.5629   -3.4539   25.7737 F   0  0  0  0  0  0
  -29.9894  -13.4800   20.4064 N   0  0  0  0  0  0
  -26.2919  -12.9399   20.3289 N   0  0  0  0  0  0
  -25.9310  -11.6544   20.5764 N   0  0  0  0  0  0
  -22.0458  -12.8209   22.0426 N   0  0  0  0  0  0
  -25.4150  -15.1913   20.4077 N   0  0  0  0  0  0
  -31.8295  -14.7562   20.1166 O   0  0  0  0  0  0
  -21.6637   -6.8880   21.4241 O   0  0  0  0  0  0
  -22.3497  -14.5526   20.6716 O   0  0  0  0  0  0
  -24.6260  -31.8563   23.1975 C   0  0  0  0  0  0
  -25.9104  -32.4755   23.8313 C   0  0  1  0  0  0
  -27.2296  -27.3013   20.1212 C   0  0  0  0  0  0
  -25.5917  -33.8557   24.2246 N   0  0  0  0  0  0
  -23.4196  -30.4757   21.5404 C   0  0  2  0  0  0
  -24.8648  -28.9175   20.1111 C   0  0  0  0  0  0
  -22.7467  -29.4600   22.4934 C   0  0  0  0  0  0
  -18.0282  -28.1379   22.8485 C   0  0  0  0  0  0
  -24.1488  -36.7285   23.2641 C   0  0  0  0  0  0
  -25.9580  -30.7832   21.3654 C   0  0  0  0  0  0
  -26.0306  -29.4067   20.7103 C   0  0  0  0  0  0
  -27.2108  -28.6098   20.7004 C   0  0  0  0  0  0
  -26.0358  -26.8488   19.5226 C   0  0  0  0  0  0
  -24.8696  -27.6455   19.5102 C   0  0  0  0  0  0
  -23.6335  -29.8012   20.1577 C   0  0  0  0  0  0
  -25.4114  -36.3069   24.0326 C   0  0  1  0  0  0
  -20.5880  -28.3680   23.1290 C   0  0  2  0  0  0
  -20.6769  -26.9403   22.5416 C   0  0  0  0  0  0
  -19.5749  -26.6380   21.5212 C   0  0  0  0  0  0
  -18.1926  -26.7923   22.1620 C   0  0  0  0  0  0
  -19.1534  -28.8847   23.2882 C   0  0  0  0  0  0
  -18.9460  -30.1449   23.8897 C   0  0  0  0  0  0
  -17.6461  -30.6583   24.0561 C   0  0  0  0  0  0
  -25.9054  -34.9440   23.5092 C   0  0  0  0  0  0
  -16.5351  -29.9084   23.6329 C   0  0  0  0  0  0
  -16.7270  -28.6501   23.0351 C   0  0  0  0  0  0
  -26.4493  -31.6578   25.0694 C   0  0  0  0  0  0
  -25.3729  -31.3716   26.1424 C   0  0  0  0  0  0
  -27.0343  -30.3007   24.6149 C   0  0  0  0  0  0
  -27.6048  -32.4321   25.7468 C   0  0  0  0  0  0
  -27.5578  -37.1792   24.8463 C   0  0  0  0  0  0
  -21.4181  -29.3030   22.3684 N   0  0  0  0  0  0
  -26.4287  -37.3770   23.9411 N   0  0  0  0  0  0
  -24.6869  -31.0562   22.0920 N   0  0  0  0  0  0
  -23.4188  -28.8156   23.3030 O   0  0  0  0  0  0
  -28.3985  -26.5299   20.1893 O   0  0  0  0  0  0
  -26.5633  -34.8917   22.4665 O   0  0  0  0  0  0
  -23.5426  -32.1368   23.7307 O   0  0  0  0  0  0
  -28.5877  -19.1262   21.2066 C   0  0  0  0  0  0
  -28.4474  -20.5497   21.0537 C   0  0  0  0  0  0
  -29.4573  -20.3948   18.8949 C   0  0  0  0  0  0
  -29.1540  -18.2899   20.1981 C   0  0  0  0  0  0
  -28.8488  -21.2378   19.8724 C   0  0  0  0  0  0
  -29.6057  -18.9830   19.0449 C   0  0  0  0  0  0
  -28.4496  -24.7067   18.3085 C   0  0  0  0  0  0
  -28.8839  -23.2202   18.2892 C   0  0  0  0  0  0
  -28.2477  -23.7784   20.5306 C   0  0  0  0  0  0
  -28.6281  -25.1180   19.7702 C   0  0  2  0  0  0
  -30.7152  -16.5234   22.0758 C   0  0  0  0  0  0
  -29.0890  -16.6975   20.2207 C   0  0  0  0  0  0
  -28.6467  -22.6562   19.6239 N   0  0  0  0  0  0
  -30.0225  -15.8013   21.0075 N   0  0  0  0  0  0
  -30.1510  -18.2770   18.0251 F   0  0  0  0  0  0
  -31.4610  -12.5271   19.1590 H   0  0  0  0  0  0
  -30.3437  -11.4423   19.9340 H   0  0  0  0  0  0
  -29.7725  -11.7401   17.4992 H   0  0  0  0  0  0
  -29.6323  -13.4665   17.7267 H   0  0  0  0  0  0
  -27.8779  -11.2852   18.8992 H   0  0  0  0  0  0
  -27.3668  -12.5362   17.7978 H   0  0  0  0  0  0
  -27.6382  -14.2520   19.4784 H   0  0  0  0  0  0
  -28.7053  -12.1497   21.4255 H   0  0  0  0  0  0
  -28.4233  -13.8323   21.7958 H   0  0  0  0  0  0
  -25.2761   -9.5686   22.4763 H   0  0  0  0  0  0
  -24.0003   -7.4634   22.7474 H   0  0  0  0  0  0
  -21.0844   -8.8774   19.8949 H   0  0  0  0  0  0
  -22.3699  -10.9675   19.6169 H   0  0  0  0  0  0
  -21.2005   -7.6148   23.9718 H   0  0  0  0  0  0
  -21.1481   -6.0521   25.9077 H   0  0  0  0  0  0
  -22.0598   -2.7611   23.2844 H   0  0  0  0  0  0
  -22.4078  -11.9872   22.4813 H   0  0  0  0  0  0
  -21.1075  -13.1232   22.2631 H   0  0  0  0  0  0
  -24.6423  -15.8398   20.5130 H   0  0  0  0  0  0
  -26.2551  -15.6311   20.0581 H   0  0  0  0  0  0
  -26.7166  -32.5416   23.1053 H   0  0  0  0  0  0
  -25.0055  -33.9696   25.0385 H   0  0  0  0  0  0
  -22.7138  -31.2957   21.3932 H   0  0  0  0  0  0
  -23.3752  -35.9613   23.3293 H   0  0  0  0  0  0
  -24.3579  -36.8923   22.2057 H   0  0  0  0  0  0
  -23.7239  -37.6479   23.6678 H   0  0  0  0  0  0
  -26.0868  -31.5445   20.5948 H   0  0  0  0  0  0
  -26.8395  -30.8356   21.9932 H   0  0  0  0  0  0
  -28.1099  -28.9851   21.1689 H   0  0  0  0  0  0
  -25.9754  -25.8646   19.0889 H   0  0  0  0  0  0
  -23.9695  -27.2592   19.0522 H   0  0  0  0  0  0
  -23.7530  -30.5735   19.3969 H   0  0  0  0  0  0
  -22.7526  -29.2302   19.8587 H   0  0  0  0  0  0
  -25.1294  -36.1913   25.0817 H   0  0  0  0  0  0
  -20.9968  -28.3255   24.1412 H   0  0  0  0  0  0
  -20.5666  -26.2287   23.3614 H   0  0  0  0  0  0
  -21.6639  -26.7431   22.1214 H   0  0  0  0  0  0
  -19.6913  -25.6293   21.1239 H   0  0  0  0  0  0
  -19.6690  -27.3193   20.6743 H   0  0  0  0  0  0
  -17.4198  -26.6673   21.4020 H   0  0  0  0  0  0
  -18.0324  -26.0061   22.9013 H   0  0  0  0  0  0
  -19.7936  -30.7263   24.2270 H   0  0  0  0  0  0
  -17.5017  -31.6266   24.5160 H   0  0  0  0  0  0
  -15.5354  -30.2987   23.7654 H   0  0  0  0  0  0
  -15.8668  -28.0824   22.7065 H   0  0  0  0  0  0
  -24.5909  -30.7057   25.7758 H   0  0  0  0  0  0
  -24.8911  -32.2878   26.4845 H   0  0  0  0  0  0
  -25.8056  -30.8902   27.0203 H   0  0  0  0  0  0
  -26.2912  -29.6744   24.1196 H   0  0  0  0  0  0
  -27.4075  -29.7275   25.4646 H   0  0  0  0  0  0
  -27.8760  -30.4299   23.9342 H   0  0  0  0  0  0
  -27.2659  -33.3632   26.2021 H   0  0  0  0  0  0
  -28.3870  -32.6864   25.0304 H   0  0  0  0  0  0
  -28.0699  -31.8460   26.5405 H   0  0  0  0  0  0
  -28.2582  -38.0102   24.7526 H   0  0  0  0  0  0
  -28.1088  -36.2634   24.6268 H   0  0  0  0  0  0
  -27.2299  -37.1416   25.8866 H   0  0  0  0  0  0
  -20.9362  -29.8746   21.6886 H   0  0  0  0  0  0
  -26.0163  -38.2839   24.1427 H   0  0  0  0  0  0
  -28.1987  -18.6668   22.1040 H   0  0  0  0  0  0
  -27.9777  -21.1078   21.8513 H   0  0  0  0  0  0
  -29.8107  -20.8151   17.9663 H   0  0  0  0  0  0
  -27.4120  -24.7812   17.9921 H   0  0  0  0  0  0
  -29.0457  -25.3146   17.6271 H   0  0  0  0  0  0
  -29.9493  -23.1526   18.0611 H   0  0  0  0  0  0
  -28.3437  -22.6692   17.5173 H   0  0  0  0  0  0
  -27.1742  -23.7340   20.7187 H   0  0  0  0  0  0
  -28.7596  -23.7097   21.4915 H   0  0  0  0  0  0
  -29.7141  -25.1230   19.8816 H   0  0  0  0  0  0
  -30.0035  -17.0509   22.7107 H   0  0  0  0  0  0
  -31.4142  -17.2508   21.6606 H   0  0  0  0  0  0
  -31.2797  -15.8474   22.7209 H   0  0  0  0  0  0
  -29.1019  -16.3583   19.1834 H   0  0  0  0  0  0
  -28.0881  -16.4511   20.5731 H   0  0  0  0  0  0
  1 25  1  0  0  0
  1 30  2  0  0  0
  1 84  1  0  0  0
  2  3  1  0  0  0
  2 25  1  0  0  0
  2 86  1  0  0  0
  2 87  1  0  0  0
  3  4  1  0  0  0
  3 88  1  0  0  0
  3 89  1  0  0  0
  4  5  1  0  0  0
  4 90  1  0  0  0
  4 91  1  0  0  0
  5  6  1  0  0  0
  5 26  1  0  0  0
  5 92  1  0  0  0
  6 25  1  0  0  0
  6 93  1  0  0  0
  6 94  1  0  0  0
  7  8  2  0  0  0
  7 26  1  0  0  0
  7 29  1  0  0  0
  8  9  1  0  0  0
  8 22  1  0  0  0
  9 10  1  0  0  0
  9 27  2  0  0  0
 10 11  2  0  0  0
 10 15  1  0  0  0
 11 12  1  0  0  0
 11 95  1  0  0  0
 12 13  2  0  0  0
 12 96  1  0  0  0
 13 14  1  0  0  0
 13 31  1  0  0  0
 14 15  2  0  0  0
 14 97  1  0  0  0
 15 98  1  0  0  0
 16 17  2  0  0  0
 16 21  1  0  0  0
 16 31  1  0  0  0
 17 18  1  0  0  0
 17 99  1  0  0  0
 18 19  2  0  0  0
 18100  1  0  0  0
 19 20  1  0  0  0
 19 24  1  0  0  0
 20 21  2  0  0  0
 20101  1  0  0  0
 21 23  1  0  0  0
 22 28  1  0  0  0
 22 32  2  0  0  0
 26 27  1  0  0  0
 28102  1  0  0  0
 28103  1  0  0  0
 29104  1  0  0  0
 29105  1  0  0  0
 33 34  1  0  0  0
 33 66  1  0  0  0
 33 70  2  0  0  0
 34 36  1  0  0  0
 34 59  1  0  0  0
 34106  1  0  0  0
 35 44  2  0  0  0
 35 45  1  0  0  0
 35 68  1  0  0  0
 36 56  1  0  0  0
 36107  1  0  0  0
 37 39  1  0  0  0
 37 47  1  0  0  0
 37 66  1  0  0  0
 37108  1  0  0  0
 38 43  2  0  0  0
 38 46  1  0  0  0
 38 47  1  0  0  0
 39 64  1  0  0  0
 39 67  2  0  0  0
 40 52  1  0  0  0
 40 53  2  0  0  0
 40 58  1  0  0  0
 41109  1  0  0  0
 41110  1  0  0  0
 41111  1  0  0  0
 41 48  1  0  0  0
 42 43  1  0  0  0
 42 66  1  0  0  0
 42112  1  0  0  0
 42113  1  0  0  0
 43 44  1  0  0  0
 44114  1  0  0  0
 45 46  2  0  0  0
 45115  1  0  0  0
 46116  1  0  0  0
 47117  1  0  0  0
 47118  1  0  0  0
 48 56  1  0  0  0
 48 65  1  0  0  0
 48119  1  0  0  0
 49 50  1  0  0  0
 49 53  1  0  0  0
 49 64  1  0  0  0
 49120  1  0  0  0
 50 51  1  0  0  0
 50121  1  0  0  0
 50122  1  0  0  0
 51 52  1  0  0  0
 51123  1  0  0  0
 51124  1  0  0  0
 52125  1  0  0  0
 52126  1  0  0  0
 53 54  1  0  0  0
 54 55  2  0  0  0
 54127  1  0  0  0
 55 57  1  0  0  0
 55128  1  0  0  0
 56 69  2  0  0  0
 57 58  2  0  0  0
 57129  1  0  0  0
 58130  1  0  0  0
 59 60  1  0  0  0
 59 61  1  0  0  0
 59 62  1  0  0  0
 60131  1  0  0  0
 60132  1  0  0  0
 60133  1  0  0  0
 61134  1  0  0  0
 61135  1  0  0  0
 61136  1  0  0  0
 62137  1  0  0  0
 62138  1  0  0  0
 62139  1  0  0  0
 63 65  1  0  0  0
 63140  1  0  0  0
 63141  1  0  0  0
 63142  1  0  0  0
 64143  1  0  0  0
 65144  1  0  0  0
 68 80  1  0  0  0
 71 72  2  0  0  0
 71 74  1  0  0  0
 71145  1  0  0  0
 72 75  1  0  0  0
 72146  1  0  0  0
 73 75  2  0  0  0
 73 76  1  0  0  0
 73147  1  0  0  0
 74 76  2  0  0  0
 74 82  1  0  0  0
 75 83  1  0  0  0
 76 85  1  0  0  0
 77 78  1  0  0  0
 77 80  1  0  0  0
 77148  1  0  0  0
 77149  1  0  0  0
 78 83  1  0  0  0
 78150  1  0  0  0
 78151  1  0  0  0
 79 80  1  0  0  0
 79 83  1  0  0  0
 79152  1  0  0  0
 79153  1  0  0  0
 80154  1  0  0  0
 81 84  1  0  0  0
 81155  1  0  0  0
 81156  1  0  0  0
 81157  1  0  0  0
 82 84  1  0  0  0
 82158  1  0  0  0
 82159  1  0  0  0
M  ISO  4   1 100  68 101  80 101  84 100
M  END
> <chiral flag>
0

> <version>
0

> <s_m_source_file>
/data/baiqing/PycharmProjects/Reinvent-master-3.2/result/LINK_invent/BTK/process_docking_weight1_custom_product_contain_oxygen_bond_distance_aromatic_linkinvent_7_9_3/rearranged_h_0014.sdf

> <i_m_source_file_index>
67

> <r_mmod_Potential_Energy-OPLS-2005>
349.136810302734

> <r_mmod_Stretch_Energy-OPLS-2005>
93.2546920776367

> <r_mmod_Bend_Energy-OPLS-2005>
265.135345458984

> <r_mmod_Torsional_Energy-OPLS-2005>
305.751708984375

> <r_mmod_Improper_Torsional_Energy-OPLS-2005>
4.97612810134888

> <r_mmod_Van_der_Waal_Energy-OPLS-2005>
134.080780029297

> <r_mmod_Electrostatic_Energy-OPLS-2005>
-296.380828857422

> <r_mmod_Solvation_Energy-OPLS-2005>
-214.413299560547

> <b_mmod_Minimization_Converged-OPLS-2005>
0

> <r_mmod_RMS_Derivative-OPLS-2005>
0.283560037612915

$$$$
68
                    3D
 Structure written by MMmdl.
164173  0  0  1  0            999 V2000
  -30.7072  -14.3930   20.5797 C   0  0  0  0  0  0
  -30.4277  -12.2879   19.3305 C   0  0  0  0  0  0
  -29.4645  -12.5244   18.1490 C   0  0  0  0  0  0
  -27.9829  -12.4108   18.5807 C   0  0  0  0  0  0
  -27.6676  -13.1806   19.8902 C   0  0  2  0  0  0
  -28.7304  -12.7806   20.9366 C   0  0  0  0  0  0
  -25.2569  -13.8071   20.5598 C   0  0  0  0  0  0
  -24.1822  -13.0426   20.9091 C   0  0  0  0  0  0
  -24.6349  -11.6856   20.8726 C   0  0  0  0  0  0
  -23.9022  -10.4294   21.0394 C   0  0  0  0  0  0
  -24.3580   -9.4221   21.9179 C   0  0  0  0  0  0
  -23.6250   -8.2258   22.0774 C   0  0  0  0  0  0
  -22.4252   -8.0279   21.3545 C   0  0  0  0  0  0
  -21.9867   -9.0261   20.4667 C   0  0  0  0  0  0
  -22.7201  -10.2129   20.3058 C   0  0  0  0  0  0
  -21.6854   -6.0740   22.5281 C   0  0  0  0  0  0
  -21.4024   -6.5643   23.8213 C   0  0  0  0  0  0
  -21.3638   -5.6779   24.9168 C   0  0  0  0  0  0
  -21.6030   -4.3040   24.7205 C   0  0  0  0  0  0
  -21.8831   -3.8147   23.4324 C   0  0  0  0  0  0
  -21.9198   -4.6970   22.3393 C   0  0  0  0  0  0
  -22.7839  -13.5226   21.1788 C   0  0  0  0  0  0
  -22.1677   -4.2161   21.0961 F   0  0  0  0  0  0
  -21.5583   -3.4533   25.7709 F   0  0  0  0  0  0
  -30.0359  -13.2138   20.4077 N   0  0  0  0  0  0
  -26.3069  -12.9241   20.3516 N   0  0  0  0  0  0
  -25.9301  -11.6418   20.5833 N   0  0  0  0  0  0
  -22.0505  -12.8274   22.0349 N   0  0  0  0  0  0
  -25.4314  -15.1770   20.3941 N   0  0  0  0  0  0
  -31.8648  -14.5093   20.1594 O   0  0  0  0  0  0
  -21.6620   -6.8881   21.4248 O   0  0  0  0  0  0
  -22.3537  -14.5579   20.6676 O   0  0  0  0  0  0
  -24.6132  -31.8596   23.1997 C   0  0  0  0  0  0
  -25.9067  -32.4773   23.8248 C   0  0  1  0  0  0
  -27.2469  -27.4117   20.1383 C   0  0  0  0  0  0
  -25.5931  -33.8555   24.2239 N   0  0  0  0  0  0
  -23.4115  -30.4742   21.5332 C   0  0  2  0  0  0
  -24.8548  -28.9132   20.1349 C   0  0  0  0  0  0
  -22.7424  -29.4621   22.4926 C   0  0  0  0  0  0
  -18.0276  -28.1379   22.8217 C   0  0  0  0  0  0
  -24.1481  -36.7276   23.2640 C   0  0  0  0  0  0
  -25.9396  -30.8109   21.3682 C   0  0  0  0  0  0
  -26.0103  -29.4433   20.7211 C   0  0  0  0  0  0
  -27.2069  -28.6960   20.7212 C   0  0  0  0  0  0
  -26.0674  -26.8773   19.5758 C   0  0  0  0  0  0
  -24.8751  -27.6279   19.5625 C   0  0  0  0  0  0
  -23.6294  -29.7951   20.1519 C   0  0  0  0  0  0
  -25.4128  -36.3050   24.0302 C   0  0  1  0  0  0
  -20.5823  -28.3774   23.1318 C   0  0  2  0  0  0
  -20.6910  -26.9436   22.5640 C   0  0  0  0  0  0
  -19.6001  -26.6189   21.5337 C   0  0  0  0  0  0
  -18.1982  -26.7941   22.1290 C   0  0  0  0  0  0
  -19.1429  -28.8848   23.2835 C   0  0  0  0  0  0
  -18.9228  -30.1327   23.9062 C   0  0  0  0  0  0
  -17.6145  -30.6396   24.0556 C   0  0  0  0  0  0
  -25.9076  -34.9441   23.5103 C   0  0  0  0  0  0
  -16.5120  -29.8916   23.6012 C   0  0  0  0  0  0
  -16.7231  -28.6402   22.9980 C   0  0  0  0  0  0
  -26.4467  -31.6582   25.0635 C   0  0  0  0  0  0
  -25.3693  -31.3788   26.1389 C   0  0  0  0  0  0
  -27.0374  -30.2990   24.6193 C   0  0  0  0  0  0
  -27.6015  -32.4334   25.7429 C   0  0  0  0  0  0
  -27.5576  -37.1809   24.8472 C   0  0  0  0  0  0
  -21.4127  -29.3047   22.3595 N   0  0  0  0  0  0
  -26.4293  -37.3771   23.9405 N   0  0  0  0  0  0
  -24.6691  -31.0722   22.0884 N   0  0  0  0  0  0
  -23.4153  -28.8277   23.3136 O   0  0  0  0  0  0
  -28.4579  -26.7507   20.1296 O   0  0  0  0  0  0
  -26.5634  -34.8928   22.4673 O   0  0  0  0  0  0
  -23.5315  -32.1357   23.7364 O   0  0  0  0  0  0
  -27.6359  -17.5174   21.0722 C   0  0  0  0  0  0
  -26.9040  -18.7135   21.2356 C   0  0  0  0  0  0
  -28.0493  -17.4465   23.4720 C   0  0  0  0  0  0
  -28.2771  -16.9204   22.1838 C   0  0  0  0  0  0
  -26.7576  -19.2978   22.5116 C   0  0  0  0  0  0
  -27.2945  -18.6272   23.6387 C   0  0  0  0  0  0
  -27.1093  -22.9222   22.7265 C   0  0  0  0  0  0
  -26.7705  -22.3593   20.7637 C   0  0  0  0  0  0
  -27.0832  -23.7219   21.4151 C   0  0  2  0  0  0
  -30.4607  -16.7960   20.2514 C   0  0  0  0  0  0
  -25.9764  -20.5935   22.6618 C   0  0  0  0  0  0
  -29.1681  -15.6909   22.0596 C   0  0  0  0  0  0
  -28.3785  -24.5339   21.2497 C   0  0  0  0  0  0
  -28.5445  -25.3347   19.9392 C   0  0  0  0  0  0
  -26.6045  -21.8009   22.1147 N   0  0  0  0  0  0
  -29.9801  -15.5210   20.8326 N   0  0  0  0  0  0
  -27.3922  -23.1375   23.8822 O   0  0  0  0  0  0
  -27.0905  -19.1106   24.8869 F   0  0  0  0  0  0
  -31.4598  -12.4174   18.9981 H   0  0  0  0  0  0
  -30.3741  -11.2475   19.6555 H   0  0  0  0  0  0
  -29.6696  -11.8118   17.3492 H   0  0  0  0  0  0
  -29.6500  -13.5102   17.7214 H   0  0  0  0  0  0
  -27.7617  -11.3510   18.7084 H   0  0  0  0  0  0
  -27.3289  -12.7477   17.7773 H   0  0  0  0  0  0
  -27.7550  -14.2500   19.6917 H   0  0  0  0  0  0
  -28.7245  -11.6964   20.9950 H   0  0  0  0  0  0
  -28.5276  -13.0118   21.9742 H   0  0  0  0  0  0
  -25.2766   -9.5669   22.4734 H   0  0  0  0  0  0
  -23.9985   -7.4627   22.7481 H   0  0  0  0  0  0
  -21.0799   -8.8749   19.8944 H   0  0  0  0  0  0
  -22.3682  -10.9645   19.6128 H   0  0  0  0  0  0
  -21.2068   -7.6161   23.9705 H   0  0  0  0  0  0
  -21.1422   -6.0521   25.9046 H   0  0  0  0  0  0
  -22.0637   -2.7627   23.2817 H   0  0  0  0  0  0
  -22.4121  -11.9944   22.4723 H   0  0  0  0  0  0
  -21.1113  -13.1295   22.2576 H   0  0  0  0  0  0
  -24.6742  -15.8420   20.4956 H   0  0  0  0  0  0
  -26.3217  -15.6139   20.1961 H   0  0  0  0  0  0
  -26.7139  -32.5390   23.0956 H   0  0  0  0  0  0
  -24.9986  -33.9644   25.0324 H   0  0  0  0  0  0
  -22.7036  -31.2886   21.3740 H   0  0  0  0  0  0
  -23.3716  -35.9637   23.3326 H   0  0  0  0  0  0
  -24.3530  -36.8889   22.2051 H   0  0  0  0  0  0
  -23.7276  -37.6511   23.6644 H   0  0  0  0  0  0
  -26.1129  -31.5769   20.6126 H   0  0  0  0  0  0
  -26.8085  -30.8292   22.0155 H   0  0  0  0  0  0
  -28.1040  -29.0962   21.1771 H   0  0  0  0  0  0
  -26.0583  -25.8779   19.1605 H   0  0  0  0  0  0
  -23.9828  -27.2002   19.1272 H   0  0  0  0  0  0
  -23.7944  -30.5658   19.4002 H   0  0  0  0  0  0
  -22.7607  -29.2278   19.8097 H   0  0  0  0  0  0
  -25.1310  -36.1881   25.0781 H   0  0  0  0  0  0
  -20.9838  -28.3530   24.1476 H   0  0  0  0  0  0
  -20.5945  -26.2452   23.3978 H   0  0  0  0  0  0
  -21.6869  -26.7658   22.1522 H   0  0  0  0  0  0
  -19.7237  -25.5909   21.1743 H   0  0  0  0  0  0
  -19.7140  -27.2711   20.6669 H   0  0  0  0  0  0
  -17.4543  -26.6772   21.3427 H   0  0  0  0  0  0
  -17.9956  -26.0008   22.8561 H   0  0  0  0  0  0
  -19.7536  -30.7097   24.2826 H   0  0  0  0  0  0
  -17.4559  -31.5940   24.5420 H   0  0  0  0  0  0
  -15.5062  -30.2763   23.7105 H   0  0  0  0  0  0
  -15.8791  -28.0673   22.6357 H   0  0  0  0  0  0
  -24.5842  -30.7190   25.7725 H   0  0  0  0  0  0
  -24.8905  -32.2991   26.4725 H   0  0  0  0  0  0
  -25.7950  -30.9000   27.0219 H   0  0  0  0  0  0
  -26.3022  -29.6702   24.1197 H   0  0  0  0  0  0
  -27.4060  -29.7311   25.4757 H   0  0  0  0  0  0
  -27.8852  -30.4293   23.9477 H   0  0  0  0  0  0
  -27.2620  -33.3635   26.1988 H   0  0  0  0  0  0
  -28.3807  -32.6906   25.0250 H   0  0  0  0  0  0
  -28.0699  -31.8480   26.5354 H   0  0  0  0  0  0
  -28.2610  -38.0084   24.7485 H   0  0  0  0  0  0
  -28.1039  -36.2623   24.6324 H   0  0  0  0  0  0
  -27.2275  -37.1522   25.8866 H   0  0  0  0  0  0
  -20.9441  -29.8306   21.6304 H   0  0  0  0  0  0
  -26.0140  -38.2831   24.1415 H   0  0  0  0  0  0
  -27.7197  -17.0821   20.0848 H   0  0  0  0  0  0
  -26.4467  -19.1779   20.3744 H   0  0  0  0  0  0
  -28.4653  -16.9449   24.3331 H   0  0  0  0  0  0
  -27.5944  -21.8974   20.2100 H   0  0  0  0  0  0
  -25.8538  -22.3509   20.1755 H   0  0  0  0  0  0
  -26.2050  -24.3666   21.3489 H   0  0  0  0  0  0
  -29.8514  -17.0609   19.3891 H   0  0  0  0  0  0
  -31.4941  -16.7940   19.9081 H   0  0  0  0  0  0
  -30.4170  -17.6141   20.9678 H   0  0  0  0  0  0
  -25.7249  -20.7626   23.7100 H   0  0  0  0  0  0
  -25.0255  -20.4709   22.1380 H   0  0  0  0  0  0
  -28.4399  -14.9187   22.2117 H   0  0  0  0  0  0
  -29.8557  -15.6375   22.9049 H   0  0  0  0  0  0
  -29.2508  -23.8827   21.3714 H   0  0  0  0  0  0
  -28.4431  -25.2473   22.0758 H   0  0  0  0  0  0
  -27.9764  -24.9472   19.0966 H   0  0  0  0  0  0
  -29.5855  -25.2048   19.6436 H   0  0  0  0  0  0
  1 25  1  0  0  0
  1 30  2  0  0  0
  1 86  1  0  0  0
  2  3  1  0  0  0
  2 25  1  0  0  0
  2 89  1  0  0  0
  2 90  1  0  0  0
  3  4  1  0  0  0
  3 91  1  0  0  0
  3 92  1  0  0  0
  4  5  1  0  0  0
  4 93  1  0  0  0
  4 94  1  0  0  0
  5  6  1  0  0  0
  5 26  1  0  0  0
  5 95  1  0  0  0
  6 25  1  0  0  0
  6 96  1  0  0  0
  6 97  1  0  0  0
  7  8  2  0  0  0
  7 26  1  0  0  0
  7 29  1  0  0  0
  8  9  1  0  0  0
  8 22  1  0  0  0
  9 10  1  0  0  0
  9 27  2  0  0  0
 10 11  2  0  0  0
 10 15  1  0  0  0
 11 12  1  0  0  0
 11 98  1  0  0  0
 12 13  2  0  0  0
 12 99  1  0  0  0
 13 14  1  0  0  0
 13 31  1  0  0  0
 14 15  2  0  0  0
 14100  1  0  0  0
 15101  1  0  0  0
 16 17  2  0  0  0
 16 21  1  0  0  0
 16 31  1  0  0  0
 17 18  1  0  0  0
 17102  1  0  0  0
 18 19  2  0  0  0
 18103  1  0  0  0
 19 20  1  0  0  0
 19 24  1  0  0  0
 20 21  2  0  0  0
 20104  1  0  0  0
 21 23  1  0  0  0
 22 28  1  0  0  0
 22 32  2  0  0  0
 26 27  1  0  0  0
 28105  1  0  0  0
 28106  1  0  0  0
 29107  1  0  0  0
 29108  1  0  0  0
 33 34  1  0  0  0
 33 66  1  0  0  0
 33 70  2  0  0  0
 34 36  1  0  0  0
 34 59  1  0  0  0
 34109  1  0  0  0
 35 44  2  0  0  0
 35 45  1  0  0  0
 35 68  1  0  0  0
 36 56  1  0  0  0
 36110  1  0  0  0
 37 39  1  0  0  0
 37 47  1  0  0  0
 37 66  1  0  0  0
 37111  1  0  0  0
 38 43  2  0  0  0
 38 46  1  0  0  0
 38 47  1  0  0  0
 39 64  1  0  0  0
 39 67  2  0  0  0
 40 52  1  0  0  0
 40 53  2  0  0  0
 40 58  1  0  0  0
 41112  1  0  0  0
 41113  1  0  0  0
 41114  1  0  0  0
 41 48  1  0  0  0
 42 43  1  0  0  0
 42 66  1  0  0  0
 42115  1  0  0  0
 42116  1  0  0  0
 43 44  1  0  0  0
 44117  1  0  0  0
 45 46  2  0  0  0
 45118  1  0  0  0
 46119  1  0  0  0
 47120  1  0  0  0
 47121  1  0  0  0
 48 56  1  0  0  0
 48 65  1  0  0  0
 48122  1  0  0  0
 49 50  1  0  0  0
 49 53  1  0  0  0
 49 64  1  0  0  0
 49123  1  0  0  0
 50 51  1  0  0  0
 50124  1  0  0  0
 50125  1  0  0  0
 51 52  1  0  0  0
 51126  1  0  0  0
 51127  1  0  0  0
 52128  1  0  0  0
 52129  1  0  0  0
 53 54  1  0  0  0
 54 55  2  0  0  0
 54130  1  0  0  0
 55 57  1  0  0  0
 55131  1  0  0  0
 56 69  2  0  0  0
 57 58  2  0  0  0
 57132  1  0  0  0
 58133  1  0  0  0
 59 60  1  0  0  0
 59 61  1  0  0  0
 59 62  1  0  0  0
 60134  1  0  0  0
 60135  1  0  0  0
 60136  1  0  0  0
 61137  1  0  0  0
 61138  1  0  0  0
 61139  1  0  0  0
 62140  1  0  0  0
 62141  1  0  0  0
 62142  1  0  0  0
 63 65  1  0  0  0
 63143  1  0  0  0
 63144  1  0  0  0
 63145  1  0  0  0
 64146  1  0  0  0
 65147  1  0  0  0
 68 84  1  0  0  0
 71 72  2  0  0  0
 71 74  1  0  0  0
 71148  1  0  0  0
 72 75  1  0  0  0
 72149  1  0  0  0
 73 74  2  0  0  0
 73 76  1  0  0  0
 73150  1  0  0  0
 74 82  1  0  0  0
 75 76  2  0  0  0
 75 81  1  0  0  0
 76 88  1  0  0  0
 77 79  1  0  0  0
 77 85  1  0  0  0
 77 87  2  0  0  0
 78 79  1  0  0  0
 78 85  1  0  0  0
 78151  1  0  0  0
 78152  1  0  0  0
 79 83  1  0  0  0
 79153  1  0  0  0
 80 86  1  0  0  0
 80154  1  0  0  0
 80155  1  0  0  0
 80156  1  0  0  0
 81 85  1  0  0  0
 81157  1  0  0  0
 81158  1  0  0  0
 82 86  1  0  0  0
 82159  1  0  0  0
 82160  1  0  0  0
 83 84  1  0  0  0
 83161  1  0  0  0
 83162  1  0  0  0
 84163  1  0  0  0
 84164  1  0  0  0
M  ISO  4   1 100  68 101  84 101  86 100
M  END
> <chiral flag>
0

> <version>
0

> <s_m_source_file>
/data/baiqing/PycharmProjects/Reinvent-master-3.2/result/LINK_invent/BTK/process_docking_weight1_custom_product_contain_oxygen_bond_distance_aromatic_linkinvent_7_9_3/rearranged_h_0014.sdf

> <i_m_source_file_index>
68

> <r_mmod_Potential_Energy-OPLS-2005>
107.525482177734

> <r_mmod_Stretch_Energy-OPLS-2005>
42.2531623840332

> <r_mmod_Bend_Energy-OPLS-2005>
148.259338378906

> <r_mmod_Torsional_Energy-OPLS-2005>
285.888702392578

> <r_mmod_Improper_Torsional_Energy-OPLS-2005>
13.8984251022339

> <r_mmod_Van_der_Waal_Energy-OPLS-2005>
166.500411987305

> <r_mmod_Electrostatic_Energy-OPLS-2005>
-350.685455322266

> <r_mmod_Solvation_Energy-OPLS-2005>
-222.459213256836

> <b_mmod_Minimization_Converged-OPLS-2005>
0

> <r_mmod_RMS_Derivative-OPLS-2005>
12.6302709579468

$$$$
69
                    3D
 Structure written by MMmdl.
165173  0  0  1  0            999 V2000
  -30.7144  -14.4056   20.5791 C   0  0  0  0  0  0
  -30.4229  -12.2699   19.4040 C   0  0  0  0  0  0
  -29.4912  -12.4947   18.1952 C   0  0  0  0  0  0
  -28.0092  -12.3706   18.6058 C   0  0  0  0  0  0
  -27.6644  -13.1944   19.8767 C   0  0  2  0  0  0
  -28.7083  -12.9408   20.9902 C   0  0  0  0  0  0
  -25.2617  -13.8133   20.5690 C   0  0  0  0  0  0
  -24.1849  -13.0438   20.9179 C   0  0  0  0  0  0
  -24.6370  -11.6887   20.8736 C   0  0  0  0  0  0
  -23.9030  -10.4288   21.0433 C   0  0  0  0  0  0
  -24.3588   -9.4201   21.9202 C   0  0  0  0  0  0
  -23.6273   -8.2237   22.0766 C   0  0  0  0  0  0
  -22.4261   -8.0270   21.3549 C   0  0  0  0  0  0
  -21.9895   -9.0249   20.4663 C   0  0  0  0  0  0
  -22.7212  -10.2131   20.3078 C   0  0  0  0  0  0
  -21.6837   -6.0735   22.5285 C   0  0  0  0  0  0
  -21.4006   -6.5634   23.8220 C   0  0  0  0  0  0
  -21.3666   -5.6790   24.9188 C   0  0  0  0  0  0
  -21.6044   -4.3049   24.7235 C   0  0  0  0  0  0
  -21.8816   -3.8141   23.4352 C   0  0  0  0  0  0
  -21.9187   -4.6966   22.3415 C   0  0  0  0  0  0
  -22.7871  -13.5259   21.1845 C   0  0  0  0  0  0
  -22.1654   -4.2149   21.0995 F   0  0  0  0  0  0
  -21.5635   -3.4536   25.7746 F   0  0  0  0  0  0
  -30.0401  -13.2376   20.4382 N   0  0  0  0  0  0
  -26.3033  -12.9277   20.3375 N   0  0  0  0  0  0
  -25.9284  -11.6440   20.5756 N   0  0  0  0  0  0
  -22.0458  -12.8310   22.0402 N   0  0  0  0  0  0
  -25.4410  -15.1853   20.4133 N   0  0  0  0  0  0
  -31.8471  -14.6049   20.1390 O   0  0  0  0  0  0
  -21.6605   -6.8880   21.4247 O   0  0  0  0  0  0
  -22.3592  -14.5558   20.6656 O   0  0  0  0  0  0
  -24.6137  -31.8679   23.2100 C   0  0  0  0  0  0
  -25.9058  -32.4819   23.8368 C   0  0  1  0  0  0
  -27.2312  -27.4528   20.0795 C   0  0  0  0  0  0
  -25.5914  -33.8612   24.2316 N   0  0  0  0  0  0
  -23.3975  -30.4932   21.5538 C   0  0  2  0  0  0
  -24.8401  -28.9573   20.1222 C   0  0  0  0  0  0
  -22.7384  -29.4664   22.5028 C   0  0  0  0  0  0
  -18.0269  -28.1339   22.8513 C   0  0  0  0  0  0
  -24.1498  -36.7316   23.2635 C   0  0  0  0  0  0
  -25.9268  -30.8391   21.3602 C   0  0  0  0  0  0
  -26.0033  -29.4758   20.7044 C   0  0  0  0  0  0
  -27.2057  -28.7325   20.6782 C   0  0  0  0  0  0
  -26.0505  -26.9420   19.5010 C   0  0  0  0  0  0
  -24.8556  -27.6859   19.5225 C   0  0  0  0  0  0
  -23.6012  -29.8221   20.1704 C   0  0  0  0  0  0
  -25.4115  -36.3102   24.0336 C   0  0  1  0  0  0
  -20.5864  -28.3646   23.1353 C   0  0  2  0  0  0
  -20.6773  -26.9399   22.5396 C   0  0  0  0  0  0
  -19.5764  -26.6437   21.5178 C   0  0  0  0  0  0
  -18.1943  -26.7903   22.1591 C   0  0  0  0  0  0
  -19.1514  -28.8809   23.2916 C   0  0  0  0  0  0
  -18.9424  -30.1448   23.8863 C   0  0  0  0  0  0
  -17.6414  -30.6601   24.0454 C   0  0  0  0  0  0
  -25.9032  -34.9467   23.5110 C   0  0  0  0  0  0
  -16.5307  -29.9066   23.6261 C   0  0  0  0  0  0
  -16.7251  -28.6455   23.0346 C   0  0  0  0  0  0
  -26.4491  -31.6590   25.0697 C   0  0  0  0  0  0
  -25.3768  -31.3707   26.1452 C   0  0  0  0  0  0
  -27.0323  -30.3022   24.6099 C   0  0  0  0  0  0
  -27.6059  -32.4307   25.7477 C   0  0  0  0  0  0
  -27.5589  -37.1814   24.8469 C   0  0  0  0  0  0
  -21.4108  -29.3035   22.3777 N   0  0  0  0  0  0
  -26.4306  -37.3784   23.9398 N   0  0  0  0  0  0
  -24.6642  -31.0790   22.1004 N   0  0  0  0  0  0
  -23.4171  -28.8175   23.3041 O   0  0  0  0  0  0
  -28.3929  -26.7141   20.0608 O   0  0  0  0  0  0
  -26.5595  -34.8917   22.4673 O   0  0  0  0  0  0
  -23.5339  -32.1415   23.7518 O   0  0  0  0  0  0
  -28.3593  -17.9162   23.1373 C   0  0  0  0  0  0
  -27.5825  -19.0865   23.0134 C   0  0  0  0  0  0
  -29.0544  -18.1481   20.8177 C   0  0  0  0  0  0
  -29.0740  -17.4182   22.0293 C   0  0  0  0  0  0
  -27.5177  -19.7815   21.7846 C   0  0  0  0  0  0
  -28.2787  -19.3133   20.6916 C   0  0  0  0  0  0
  -24.7280  -23.0639   20.0953 C   0  0  0  0  0  0
  -29.8205  -16.0935   22.1389 C   0  0  0  0  0  0
  -26.5693  -20.9695   21.6514 C   0  0  0  0  0  0
  -28.1126  -24.2357   20.2123 C   0  0  0  0  0  0
  -25.8874  -22.1794   19.5976 C   0  0  0  0  0  0
  -27.5500  -23.1915   21.2056 C   0  0  0  0  0  0
  -28.3772  -25.5789   20.9316 C   0  0  0  0  0  0
  -29.9403  -15.4566   20.8352 N   0  0  0  0  0  0
  -26.9637  -21.9583   20.6077 N   0  3  1  0  0  0
  -28.2629  -19.9704   19.5065 F   0  0  0  0  0  0
  -31.4648  -12.3819   19.0978 H   0  0  0  0  0  0
  -30.3290  -11.2512   19.7847 H   0  0  0  0  0  0
  -29.7228  -11.7793   17.4039 H   0  0  0  0  0  0
  -29.6744  -13.4845   17.7743 H   0  0  0  0  0  0
  -27.8052  -11.3138   18.7768 H   0  0  0  0  0  0
  -27.3667  -12.6707   17.7766 H   0  0  0  0  0  0
  -27.7175  -14.2455   19.5929 H   0  0  0  0  0  0
  -28.6735  -11.8970   21.3091 H   0  0  0  0  0  0
  -28.4813  -13.5304   21.8770 H   0  0  0  0  0  0
  -25.2748   -9.5667   22.4756 H   0  0  0  0  0  0
  -23.9966   -7.4633   22.7499 H   0  0  0  0  0  0
  -21.0816   -8.8774   19.8991 H   0  0  0  0  0  0
  -22.3682  -10.9660   19.6170 H   0  0  0  0  0  0
  -21.1972   -7.6137   23.9729 H   0  0  0  0  0  0
  -21.1509   -6.0515   25.9095 H   0  0  0  0  0  0
  -22.0590   -2.7603   23.2848 H   0  0  0  0  0  0
  -22.4009  -11.9958   22.4814 H   0  0  0  0  0  0
  -21.1068  -13.1380   22.2547 H   0  0  0  0  0  0
  -24.6919  -15.8533   20.5519 H   0  0  0  0  0  0
  -26.3148  -15.6145   20.1336 H   0  0  0  0  0  0
  -26.7136  -32.5529   23.1128 H   0  0  0  0  0  0
  -25.0109  -33.9779   25.0496 H   0  0  0  0  0  0
  -22.6880  -31.3121   21.4155 H   0  0  0  0  0  0
  -23.3750  -35.9670   23.3319 H   0  0  0  0  0  0
  -24.3586  -36.8889   22.2045 H   0  0  0  0  0  0
  -23.7264  -37.6531   23.6632 H   0  0  0  0  0  0
  -26.0465  -31.6117   20.5985 H   0  0  0  0  0  0
  -26.8112  -30.8815   21.9841 H   0  0  0  0  0  0
  -28.1081  -29.1351   21.1175 H   0  0  0  0  0  0
  -26.0434  -25.9767   19.0189 H   0  0  0  0  0  0
  -23.9604  -27.2758   19.0752 H   0  0  0  0  0  0
  -23.7032  -30.5922   19.4042 H   0  0  0  0  0  0
  -22.7249  -29.2369   19.8827 H   0  0  0  0  0  0
  -25.1299  -36.1963   25.0836 H   0  0  0  0  0  0
  -20.9944  -28.3202   24.1472 H   0  0  0  0  0  0
  -20.5686  -26.2198   23.3522 H   0  0  0  0  0  0
  -21.6648  -26.7467   22.1187 H   0  0  0  0  0  0
  -19.6948  -25.6418   21.1045 H   0  0  0  0  0  0
  -19.6674  -27.3359   20.6802 H   0  0  0  0  0  0
  -17.4254  -26.6694   21.3949 H   0  0  0  0  0  0
  -18.0328  -25.9986   22.8917 H   0  0  0  0  0  0
  -19.7878  -30.7281   24.2227 H   0  0  0  0  0  0
  -17.4925  -31.6318   24.4978 H   0  0  0  0  0  0
  -15.5295  -30.2953   23.7581 H   0  0  0  0  0  0
  -15.8647  -28.0759   22.7085 H   0  0  0  0  0  0
  -24.5947  -30.7044   25.7809 H   0  0  0  0  0  0
  -24.8973  -32.2864   26.4905 H   0  0  0  0  0  0
  -25.8122  -30.8880   27.0204 H   0  0  0  0  0  0
  -26.2872  -29.6773   24.1162 H   0  0  0  0  0  0
  -27.4085  -29.7269   25.4566 H   0  0  0  0  0  0
  -27.8708  -30.4319   23.9256 H   0  0  0  0  0  0
  -27.2667  -33.3582   26.2101 H   0  0  0  0  0  0
  -28.3854  -32.6890   25.0307 H   0  0  0  0  0  0
  -28.0751  -31.8402   26.5351 H   0  0  0  0  0  0
  -28.2619  -38.0099   24.7496 H   0  0  0  0  0  0
  -28.1065  -36.2622   24.6327 H   0  0  0  0  0  0
  -27.2303  -37.1505   25.8872 H   0  0  0  0  0  0
  -20.9239  -29.8840   21.7103 H   0  0  0  0  0  0
  -26.0191  -38.2870   24.1366 H   0  0  0  0  0  0
  -28.3738  -17.3819   24.0796 H   0  0  0  0  0  0
  -27.0043  -19.4268   23.8609 H   0  0  0  0  0  0
  -29.6091  -17.8178   19.9520 H   0  0  0  0  0  0
  -23.8982  -23.0389   19.3891 H   0  0  0  0  0  0
  -25.0290  -24.1054   20.1975 H   0  0  0  0  0  0
  -24.3435  -22.7278   21.0575 H   0  0  0  0  0  0
  -29.2894  -15.4360   22.8280 H   0  0  0  0  0  0
  -30.8100  -16.2741   22.5638 H   0  0  0  0  0  0
  -26.4801  -21.4611   22.6212 H   0  0  0  0  0  0
  -25.5788  -20.5594   21.4497 H   0  0  0  0  0  0
  -29.0269  -23.8631   19.7479 H   0  0  0  0  0  0
  -27.4223  -24.3971   19.3930 H   0  0  0  0  0  0
  -26.3052  -22.6068   18.6856 H   0  0  0  0  0  0
  -25.4928  -21.2110   19.2851 H   0  0  0  0  0  0
  -26.7799  -23.6582   21.8205 H   0  0  0  0  0  0
  -28.3465  -22.8997   21.8908 H   0  0  0  0  0  0
  -29.3377  -25.5198   21.4431 H   0  0  0  0  0  0
  -27.6411  -25.7387   21.7234 H   0  0  0  0  0  0
  -30.1239  -16.1698   20.1485 H   0  0  0  0  0  0
  -27.6964  -21.4772   20.0954 H   0  0  0  0  0  0
  1 25  1  0  0  0
  1 30  2  0  0  0
  1 84  1  0  0  0
  2  3  1  0  0  0
  2 25  1  0  0  0
  2 87  1  0  0  0
  2 88  1  0  0  0
  3  4  1  0  0  0
  3 89  1  0  0  0
  3 90  1  0  0  0
  4  5  1  0  0  0
  4 91  1  0  0  0
  4 92  1  0  0  0
  5  6  1  0  0  0
  5 26  1  0  0  0
  5 93  1  0  0  0
  6 25  1  0  0  0
  6 94  1  0  0  0
  6 95  1  0  0  0
  7  8  2  0  0  0
  7 26  1  0  0  0
  7 29  1  0  0  0
  8  9  1  0  0  0
  8 22  1  0  0  0
  9 10  1  0  0  0
  9 27  2  0  0  0
 10 11  2  0  0  0
 10 15  1  0  0  0
 11 12  1  0  0  0
 11 96  1  0  0  0
 12 13  2  0  0  0
 12 97  1  0  0  0
 13 14  1  0  0  0
 13 31  1  0  0  0
 14 15  2  0  0  0
 14 98  1  0  0  0
 15 99  1  0  0  0
 16 17  2  0  0  0
 16 21  1  0  0  0
 16 31  1  0  0  0
 17 18  1  0  0  0
 17100  1  0  0  0
 18 19  2  0  0  0
 18101  1  0  0  0
 19 20  1  0  0  0
 19 24  1  0  0  0
 20 21  2  0  0  0
 20102  1  0  0  0
 21 23  1  0  0  0
 22 28  1  0  0  0
 22 32  2  0  0  0
 26 27  1  0  0  0
 28103  1  0  0  0
 28104  1  0  0  0
 29105  1  0  0  0
 29106  1  0  0  0
 33 34  1  0  0  0
 33 66  1  0  0  0
 33 70  2  0  0  0
 34 36  1  0  0  0
 34 59  1  0  0  0
 34107  1  0  0  0
 35 44  2  0  0  0
 35 45  1  0  0  0
 35 68  1  0  0  0
 36 56  1  0  0  0
 36108  1  0  0  0
 37 39  1  0  0  0
 37 47  1  0  0  0
 37 66  1  0  0  0
 37109  1  0  0  0
 38 43  2  0  0  0
 38 46  1  0  0  0
 38 47  1  0  0  0
 39 64  1  0  0  0
 39 67  2  0  0  0
 40 52  1  0  0  0
 40 53  2  0  0  0
 40 58  1  0  0  0
 41110  1  0  0  0
 41111  1  0  0  0
 41112  1  0  0  0
 41 48  1  0  0  0
 42 43  1  0  0  0
 42 66  1  0  0  0
 42113  1  0  0  0
 42114  1  0  0  0
 43 44  1  0  0  0
 44115  1  0  0  0
 45 46  2  0  0  0
 45116  1  0  0  0
 46117  1  0  0  0
 47118  1  0  0  0
 47119  1  0  0  0
 48 56  1  0  0  0
 48 65  1  0  0  0
 48120  1  0  0  0
 49 50  1  0  0  0
 49 53  1  0  0  0
 49 64  1  0  0  0
 49121  1  0  0  0
 50 51  1  0  0  0
 50122  1  0  0  0
 50123  1  0  0  0
 51 52  1  0  0  0
 51124  1  0  0  0
 51125  1  0  0  0
 52126  1  0  0  0
 52127  1  0  0  0
 53 54  1  0  0  0
 54 55  2  0  0  0
 54128  1  0  0  0
 55 57  1  0  0  0
 55129  1  0  0  0
 56 69  2  0  0  0
 57 58  2  0  0  0
 57130  1  0  0  0
 58131  1  0  0  0
 59 60  1  0  0  0
 59 61  1  0  0  0
 59 62  1  0  0  0
 60132  1  0  0  0
 60133  1  0  0  0
 60134  1  0  0  0
 61135  1  0  0  0
 61136  1  0  0  0
 61137  1  0  0  0
 62138  1  0  0  0
 62139  1  0  0  0
 62140  1  0  0  0
 63 65  1  0  0  0
 63141  1  0  0  0
 63142  1  0  0  0
 63143  1  0  0  0
 64144  1  0  0  0
 65145  1  0  0  0
 68 83  1  0  0  0
 71 72  2  0  0  0
 71 74  1  0  0  0
 71146  1  0  0  0
 72 75  1  0  0  0
 72147  1  0  0  0
 73 74  2  0  0  0
 73 76  1  0  0  0
 73148  1  0  0  0
 74 78  1  0  0  0
 75 76  2  0  0  0
 75 79  1  0  0  0
 76 86  1  0  0  0
 77 81  1  0  0  0
 77149  1  0  0  0
 77150  1  0  0  0
 77151  1  0  0  0
 78 84  1  0  0  0
 78152  1  0  0  0
 78153  1  0  0  0
 79154  1  0  0  0
 79155  1  0  0  0
 79 85  1  0  0  0
 80 82  1  0  0  0
 80 83  1  0  0  0
 80156  1  0  0  0
 80157  1  0  0  0
 81 85  1  0  0  0
 81158  1  0  0  0
 81159  1  0  0  0
 82 85  1  0  0  0
 82160  1  0  0  0
 82161  1  0  0  0
 83162  1  0  0  0
 83163  1  0  0  0
 84164  1  0  0  0
 85165  1  0  0  0
M  CHG  1  85   1
M  ISO  4   1 100  68 101  83 101  84 100
M  END
> <chiral flag>
0

> <version>
0

> <s_m_source_file>
/data/baiqing/PycharmProjects/Reinvent-master-3.2/result/LINK_invent/BTK/process_docking_weight1_custom_product_contain_oxygen_bond_distance_aromatic_linkinvent_7_9_3/rearranged_h_0014.sdf

> <i_m_source_file_index>
69

> <r_mmod_Potential_Energy-OPLS-2005>
-144.384811401367

> <r_mmod_Stretch_Energy-OPLS-2005>
34.5332908630371

> <r_mmod_Bend_Energy-OPLS-2005>
103.254699707031

> <r_mmod_Torsional_Energy-OPLS-2005>
304.7275390625

> <r_mmod_Improper_Torsional_Energy-OPLS-2005>
16.7412796020508

> <r_mmod_Van_der_Waal_Energy-OPLS-2005>
157.789779663086

> <r_mmod_Electrostatic_Energy-OPLS-2005>
-345.642791748047

> <r_mmod_Solvation_Energy-OPLS-2005>
-426.025390625

> <b_mmod_Minimization_Converged-OPLS-2005>
0

> <r_mmod_RMS_Derivative-OPLS-2005>
3.43508195877075

$$$$
70
                    3D
 Structure written by MMmdl.
143150  0  0  1  0            999 V2000
  -30.2286  -15.8082   20.2888 C   0  0  0  0  0  0
  -30.4181  -13.1871   19.5796 C   0  0  0  0  0  0
  -29.5657  -12.7161   18.3558 C   0  0  0  0  0  0
  -28.1455  -12.3200   18.7817 C   0  0  0  0  0  0
  -27.5900  -13.3302   19.8075 C   0  0  2  0  0  0
  -28.5895  -13.7087   20.9302 C   0  0  0  0  0  0
  -25.2216  -13.8257   20.5723 C   0  0  0  0  0  0
  -24.1674  -13.0378   20.9295 C   0  0  0  0  0  0
  -24.6436  -11.6918   20.8743 C   0  0  0  0  0  0
  -23.9152  -10.4264   21.0377 C   0  0  0  0  0  0
  -24.3684   -9.4181   21.9163 C   0  0  0  0  0  0
  -23.6330   -8.2235   22.0752 C   0  0  0  0  0  0
  -22.4305   -8.0282   21.3552 C   0  0  0  0  0  0
  -21.9957   -9.0254   20.4648 C   0  0  0  0  0  0
  -22.7312  -10.2112   20.3038 C   0  0  0  0  0  0
  -21.6857   -6.0745   22.5290 C   0  0  0  0  0  0
  -21.4021   -6.5649   23.8225 C   0  0  0  0  0  0
  -21.3661   -5.6797   24.9183 C   0  0  0  0  0  0
  -21.6040   -4.3061   24.7230 C   0  0  0  0  0  0
  -21.8811   -3.8154   23.4353 C   0  0  0  0  0  0
  -21.9191   -4.6976   22.3409 C   0  0  0  0  0  0
  -22.7685  -13.5097   21.1927 C   0  0  0  0  0  0
  -22.1654   -4.2161   21.0985 F   0  0  0  0  0  0
  -21.5625   -3.4541   25.7742 F   0  0  0  0  0  0
  -29.7679  -14.3873   20.3161 N   0  0  0  0  0  0
  -26.2734  -12.9677   20.3161 N   0  0  0  0  0  0
  -25.9392  -11.6727   20.5651 N   0  0  0  0  0  0
  -22.0370  -12.8086   22.0498 N   0  0  0  0  0  0
  -25.3567  -15.1988   20.4054 N   0  0  0  0  0  0
  -31.4484  -15.7223   20.0222 O   0  0  0  0  0  0
  -21.6652   -6.8893   21.4254 O   0  0  0  0  0  0
  -22.3348  -14.5392   20.6758 O   0  0  0  0  0  0
  -24.6932  -31.7871   23.1412 C   0  0  0  0  0  0
  -25.9457  -32.4405   23.8011 C   0  0  1  0  0  0
  -27.2384  -26.5905   20.2209 C   0  0  0  0  0  0
  -25.5995  -33.8239   24.1892 N   0  0  0  0  0  0
  -23.5256  -30.3821   21.4970 C   0  0  2  0  0  0
  -24.9871  -28.6996   20.1155 C   0  0  0  0  0  0
  -22.7814  -29.4236   22.4665 C   0  0  0  0  0  0
  -18.0348  -28.1420   22.8450 C   0  0  0  0  0  0
  -24.1499  -36.7134   23.2648 C   0  0  0  0  0  0
  -26.1098  -30.4826   21.4215 C   0  0  0  0  0  0
  -26.1756  -29.0345   20.7738 C   0  0  0  0  0  0
  -27.2757  -28.0093   20.7942 C   0  0  0  0  0  0
  -26.0194  -26.4967   19.4930 C   0  0  0  0  0  0
  -24.9552  -27.4586   19.4519 C   0  0  0  0  0  0
  -23.7867  -29.6678   20.1368 C   0  0  0  0  0  0
  -25.4149  -36.2862   24.0274 C   0  0  1  0  0  0
  -20.5988  -28.3787   23.1122 C   0  0  2  0  0  0
  -20.6802  -26.9432   22.5409 C   0  0  0  0  0  0
  -19.5784  -26.6358   21.5216 C   0  0  0  0  0  0
  -18.1967  -26.7947   22.1617 C   0  0  0  0  0  0
  -19.1614  -28.8931   23.2764 C   0  0  0  0  0  0
  -18.9518  -30.1510   23.8818 C   0  0  0  0  0  0
  -17.6504  -30.6601   24.0548 C   0  0  0  0  0  0
  -25.9138  -34.9254   23.4932 C   0  0  0  0  0  0
  -16.5395  -29.9082   23.6345 C   0  0  0  0  0  0
  -16.7325  -28.6503   23.0367 C   0  0  0  0  0  0
  -26.4610  -31.6479   25.0675 C   0  0  0  0  0  0
  -25.3651  -31.3834   26.1278 C   0  0  0  0  0  0
  -27.0543  -30.2801   24.6636 C   0  0  0  0  0  0
  -27.6051  -32.4356   25.7491 C   0  0  0  0  0  0
  -27.5575  -37.1709   24.8452 C   0  0  0  0  0  0
  -21.4449  -29.3016   22.3429 N   0  0  0  0  0  0
  -26.4265  -37.3637   23.9419 N   0  0  0  0  0  0
  -24.8010  -30.9198   22.0726 N   0  0  0  0  0  0
  -23.4202  -28.7849   23.3057 O   0  0  0  0  0  0
  -28.1897  -25.3255   20.3552 O   0  0  0  0  0  0
  -26.5797  -34.8855   22.4563 O   0  0  0  0  0  0
  -23.5925  -32.0991   23.6294 O   0  0  0  0  0  0
  -28.2336  -17.1260   21.2516 C   0  0  0  0  0  0
  -28.2504  -23.5405   19.9702 C   0  0  0  0  0  0
  -28.7502  -21.6935   20.6132 C   0  0  0  0  0  0
  -29.4792  -17.3406   20.5223 N   0  0  0  0  0  0
  -30.8443  -19.7019   19.4584 O   0  0  0  0  0  0
  -28.5248  -19.3342   18.6478 O   0  0  0  0  0  0
  -29.4303  -19.4712   19.8026 S   0  0  0  0  0  0
  -31.4098  -13.4511   19.2123 H   0  0  0  0  0  0
  -30.5944  -12.3540   20.2621 H   0  0  0  0  0  0
  -30.0507  -11.8845   17.8424 H   0  0  0  0  0  0
  -29.5081  -13.5302   17.6316 H   0  0  0  0  0  0
  -28.1891  -11.3258   19.2289 H   0  0  0  0  0  0
  -27.4882  -12.2392   17.9148 H   0  0  0  0  0  0
  -27.4360  -14.2376   19.2224 H   0  0  0  0  0  0
  -28.8690  -12.8372   21.5231 H   0  0  0  0  0  0
  -28.1129  -14.3923   21.6313 H   0  0  0  0  0  0
  -25.2826   -9.5652   22.4742 H   0  0  0  0  0  0
  -24.0028   -7.4627   22.7481 H   0  0  0  0  0  0
  -21.0883   -8.8780   19.8966 H   0  0  0  0  0  0
  -22.3764  -10.9649   19.6153 H   0  0  0  0  0  0
  -21.2012   -7.6156   23.9734 H   0  0  0  0  0  0
  -21.1494   -6.0528   25.9086 H   0  0  0  0  0  0
  -22.0586   -2.7620   23.2851 H   0  0  0  0  0  0
  -22.4056  -11.9801   22.4928 H   0  0  0  0  0  0
  -21.0968  -13.1053   22.2689 H   0  0  0  0  0  0
  -24.5484  -15.8071   20.4816 H   0  0  0  0  0  0
  -26.1412  -15.6399   19.9466 H   0  0  0  0  0  0
  -26.7549  -32.4858   23.0728 H   0  0  0  0  0  0
  -25.0041  -33.9268   24.9982 H   0  0  0  0  0  0
  -22.8562  -31.2211   21.2970 H   0  0  0  0  0  0
  -23.3792  -35.9428   23.3209 H   0  0  0  0  0  0
  -24.3575  -36.8903   22.2082 H   0  0  0  0  0  0
  -23.7220  -37.6266   23.6798 H   0  0  0  0  0  0
  -26.3201  -31.1984   20.6253 H   0  0  0  0  0  0
  -26.9580  -30.5601   22.0892 H   0  0  0  0  0  0
  -28.1634  -28.2733   21.3519 H   0  0  0  0  0  0
  -25.8362  -25.5638   18.9797 H   0  0  0  0  0  0
  -24.0607  -27.1912   18.9057 H   0  0  0  0  0  0
  -23.9690  -30.4246   19.3728 H   0  0  0  0  0  0
  -22.8889  -29.1398   19.8109 H   0  0  0  0  0  0
  -25.1353  -36.1606   25.0760 H   0  0  0  0  0  0
  -21.0074  -28.3418   24.1245 H   0  0  0  0  0  0
  -20.5634  -26.2417   23.3681 H   0  0  0  0  0  0
  -21.6663  -26.7342   22.1243 H   0  0  0  0  0  0
  -19.6936  -25.6245   21.1304 H   0  0  0  0  0  0
  -19.6734  -27.3119   20.6708 H   0  0  0  0  0  0
  -17.4233  -26.6687   21.4022 H   0  0  0  0  0  0
  -18.0356  -26.0113   22.9034 H   0  0  0  0  0  0
  -19.7994  -30.7346   24.2153 H   0  0  0  0  0  0
  -17.5055  -31.6274   24.5162 H   0  0  0  0  0  0
  -15.5391  -30.2958   23.7713 H   0  0  0  0  0  0
  -15.8727  -28.0793   22.7129 H   0  0  0  0  0  0
  -24.5841  -30.7188   25.7563 H   0  0  0  0  0  0
  -24.8846  -32.3077   26.4499 H   0  0  0  0  0  0
  -25.7798  -30.9109   27.0193 H   0  0  0  0  0  0
  -26.3275  -29.6401   24.1628 H   0  0  0  0  0  0
  -27.3928  -29.7268   25.5406 H   0  0  0  0  0  0
  -27.9272  -30.3893   24.0199 H   0  0  0  0  0  0
  -27.2589  -33.3737   26.1843 H   0  0  0  0  0  0
  -28.3974  -32.6790   25.0397 H   0  0  0  0  0  0
  -28.0604  -31.8641   26.5590 H   0  0  0  0  0  0
  -28.2504  -38.0089   24.7566 H   0  0  0  0  0  0
  -28.1163  -36.2615   24.6185 H   0  0  0  0  0  0
  -27.2311  -37.1223   25.8857 H   0  0  0  0  0  0
  -20.9767  -29.8671   21.6488 H   0  0  0  0  0  0
  -26.0080  -38.2669   24.1478 H   0  0  0  0  0  0
  -27.7313  -18.0755   21.4364 H   0  0  0  0  0  0
  -28.4254  -16.6561   22.2157 H   0  0  0  0  0  0
  -27.5652  -16.5039   20.6651 H   0  0  0  0  0  0
  -27.2455  -23.3828   19.5776 H   0  0  0  0  0  0
  -28.8581  -23.5979   19.0671 H   0  0  0  0  0  0
  -27.9066  -21.4303   21.2485 H   0  0  0  0  0  0
  -29.5391  -21.8919   21.3368 H   0  0  0  0  0  0
  1 25  1  0  0  0
  1 30  2  0  0  0
  1 74  1  0  0  0
  2  3  1  0  0  0
  2 25  1  0  0  0
  2 78  1  0  0  0
  2 79  1  0  0  0
  3  4  1  0  0  0
  3 80  1  0  0  0
  3 81  1  0  0  0
  4  5  1  0  0  0
  4 82  1  0  0  0
  4 83  1  0  0  0
  5  6  1  0  0  0
  5 26  1  0  0  0
  5 84  1  0  0  0
  6 25  1  0  0  0
  6 85  1  0  0  0
  6 86  1  0  0  0
  7  8  2  0  0  0
  7 26  1  0  0  0
  7 29  1  0  0  0
  8  9  1  0  0  0
  8 22  1  0  0  0
  9 10  1  0  0  0
  9 27  2  0  0  0
 10 11  2  0  0  0
 10 15  1  0  0  0
 11 12  1  0  0  0
 11 87  1  0  0  0
 12 13  2  0  0  0
 12 88  1  0  0  0
 13 14  1  0  0  0
 13 31  1  0  0  0
 14 15  2  0  0  0
 14 89  1  0  0  0
 15 90  1  0  0  0
 16 17  2  0  0  0
 16 21  1  0  0  0
 16 31  1  0  0  0
 17 18  1  0  0  0
 17 91  1  0  0  0
 18 19  2  0  0  0
 18 92  1  0  0  0
 19 20  1  0  0  0
 19 24  1  0  0  0
 20 21  2  0  0  0
 20 93  1  0  0  0
 21 23  1  0  0  0
 22 28  1  0  0  0
 22 32  2  0  0  0
 26 27  1  0  0  0
 28 94  1  0  0  0
 28 95  1  0  0  0
 29 96  1  0  0  0
 29 97  1  0  0  0
 33 34  1  0  0  0
 33 66  1  0  0  0
 33 70  2  0  0  0
 34 36  1  0  0  0
 34 59  1  0  0  0
 34 98  1  0  0  0
 35 44  2  0  0  0
 35 45  1  0  0  0
 35 68  1  0  0  0
 36 56  1  0  0  0
 36 99  1  0  0  0
 37 39  1  0  0  0
 37 47  1  0  0  0
 37 66  1  0  0  0
 37100  1  0  0  0
 38 43  2  0  0  0
 38 46  1  0  0  0
 38 47  1  0  0  0
 39 64  1  0  0  0
 39 67  2  0  0  0
 40 52  1  0  0  0
 40 53  2  0  0  0
 40 58  1  0  0  0
 41101  1  0  0  0
 41102  1  0  0  0
 41103  1  0  0  0
 41 48  1  0  0  0
 42 43  1  0  0  0
 42 66  1  0  0  0
 42104  1  0  0  0
 42105  1  0  0  0
 43 44  1  0  0  0
 44106  1  0  0  0
 45 46  2  0  0  0
 45107  1  0  0  0
 46108  1  0  0  0
 47109  1  0  0  0
 47110  1  0  0  0
 48 56  1  0  0  0
 48 65  1  0  0  0
 48111  1  0  0  0
 49 50  1  0  0  0
 49 53  1  0  0  0
 49 64  1  0  0  0
 49112  1  0  0  0
 50 51  1  0  0  0
 50113  1  0  0  0
 50114  1  0  0  0
 51 52  1  0  0  0
 51115  1  0  0  0
 51116  1  0  0  0
 52117  1  0  0  0
 52118  1  0  0  0
 53 54  1  0  0  0
 54 55  2  0  0  0
 54119  1  0  0  0
 55 57  1  0  0  0
 55120  1  0  0  0
 56 69  2  0  0  0
 57 58  2  0  0  0
 57121  1  0  0  0
 58122  1  0  0  0
 59 60  1  0  0  0
 59 61  1  0  0  0
 59 62  1  0  0  0
 60123  1  0  0  0
 60124  1  0  0  0
 60125  1  0  0  0
 61126  1  0  0  0
 61127  1  0  0  0
 61128  1  0  0  0
 62129  1  0  0  0
 62130  1  0  0  0
 62131  1  0  0  0
 63 65  1  0  0  0
 63132  1  0  0  0
 63133  1  0  0  0
 63134  1  0  0  0
 64135  1  0  0  0
 65136  1  0  0  0
 68 72  1  0  0  0
 71 74  1  0  0  0
 71137  1  0  0  0
 71138  1  0  0  0
 71139  1  0  0  0
 72 73  1  0  0  0
 72140  1  0  0  0
 72141  1  0  0  0
 73142  1  0  0  0
 73143  1  0  0  0
 73 77  1  0  0  0
 74 77  1  0  0  0
 75 77  2  0  0  0
 76 77  2  0  0  0
M  ISO  4   1 100  68 101  72 101  74 100
M  END
> <chiral flag>
0

> <version>
0

> <s_m_source_file>
/data/baiqing/PycharmProjects/Reinvent-master-3.2/result/LINK_invent/BTK/process_docking_weight1_custom_product_contain_oxygen_bond_distance_aromatic_linkinvent_7_9_3/rearranged_h_0014.sdf

> <i_m_source_file_index>
70

> <r_mmod_Potential_Energy-OPLS-2005>
3177.43017578125

> <r_mmod_Stretch_Energy-OPLS-2005>
1575.30029296875

> <r_mmod_Bend_Energy-OPLS-2005>
821.360229492188

> <r_mmod_Torsional_Energy-OPLS-2005>
199.851943969727

> <r_mmod_Improper_Torsional_Energy-OPLS-2005>
3.30170893669128

> <r_mmod_Van_der_Waal_Energy-OPLS-2005>
109.780540466309

> <r_mmod_Electrostatic_Energy-OPLS-2005>
-429.774871826172

> <r_mmod_Solvation_Energy-OPLS-2005>
-262.071685791016

> <b_mmod_Minimization_Converged-OPLS-2005>
0

> <r_mmod_RMS_Derivative-OPLS-2005>
1.36770820617676

$$$$
72
                    3D
 Structure written by MMmdl.
152160  0  0  1  0            999 V2000
  -30.5388  -14.8995   20.4296 C   0  0  0  0  0  0
  -30.4536  -12.5553   19.4850 C   0  0  0  0  0  0
  -29.5333  -12.5383   18.2450 C   0  0  0  0  0  0
  -28.0547  -12.3482   18.6469 C   0  0  0  0  0  0
  -27.6357  -13.2543   19.8381 C   0  0  2  0  0  0
  -28.6827  -13.2280   20.9713 C   0  0  0  0  0  0
  -25.2447  -13.8199   20.5707 C   0  0  0  0  0  0
  -24.1772  -13.0423   20.9251 C   0  0  0  0  0  0
  -24.6409  -11.6925   20.8758 C   0  0  0  0  0  0
  -23.9119  -10.4291   21.0423 C   0  0  0  0  0  0
  -24.3660   -9.4175   21.9187 C   0  0  0  0  0  0
  -23.6294   -8.2236   22.0761 C   0  0  0  0  0  0
  -22.4244   -8.0297   21.3594 C   0  0  0  0  0  0
  -21.9939   -9.0289   20.4672 C   0  0  0  0  0  0
  -22.7303  -10.2143   20.3066 C   0  0  0  0  0  0
  -21.6838   -6.0754   22.5286 C   0  0  0  0  0  0
  -21.4038   -6.5645   23.8228 C   0  0  0  0  0  0
  -21.3670   -5.6770   24.9170 C   0  0  0  0  0  0
  -21.6025   -4.3040   24.7214 C   0  0  0  0  0  0
  -21.8799   -3.8159   23.4333 C   0  0  0  0  0  0
  -21.9181   -4.6994   22.3398 C   0  0  0  0  0  0
  -22.7773  -13.5184   21.1840 C   0  0  0  0  0  0
  -22.1629   -4.2193   21.0983 F   0  0  0  0  0  0
  -21.5626   -3.4496   25.7730 F   0  0  0  0  0  0
  -29.9724  -13.6325   20.3874 N   0  0  0  0  0  0
  -26.2904  -12.9466   20.3204 N   0  0  0  0  0  0
  -25.9326  -11.6583   20.5636 N   0  0  0  0  0  0
  -22.0392  -12.8239   22.0403 N   0  0  0  0  0  0
  -25.3954  -15.1950   20.4154 N   0  0  0  0  0  0
  -31.7440  -15.0112   20.1652 O   0  0  0  0  0  0
  -21.6606   -6.8904   21.4247 O   0  0  0  0  0  0
  -22.3469  -14.5452   20.6610 O   0  0  0  0  0  0
  -24.6412  -31.8417   23.1817 C   0  0  0  0  0  0
  -25.9187  -32.4665   23.8239 C   0  0  1  0  0  0
  -27.2451  -27.1442   20.1852 C   0  0  0  0  0  0
  -25.5909  -33.8476   24.2132 N   0  0  0  0  0  0
  -23.4469  -30.4541   21.5290 C   0  0  2  0  0  0
  -24.9062  -28.8711   20.1167 C   0  0  0  0  0  0
  -22.7563  -29.4508   22.4840 C   0  0  0  0  0  0
  -18.0314  -28.1354   22.8467 C   0  0  0  0  0  0
  -24.1487  -36.7270   23.2644 C   0  0  0  0  0  0
  -26.0003  -30.7230   21.3766 C   0  0  0  0  0  0
  -26.0774  -29.3290   20.7336 C   0  0  0  0  0  0
  -27.2465  -28.4832   20.7439 C   0  0  0  0  0  0
  -26.0450  -26.7750   19.5398 C   0  0  0  0  0  0
  -24.9013  -27.6063   19.5033 C   0  0  0  0  0  0
  -23.6778  -29.7691   20.1533 C   0  0  0  0  0  0
  -25.4099  -36.3002   24.0313 C   0  0  1  0  0  0
  -20.5926  -28.3695   23.1219 C   0  0  2  0  0  0
  -20.6784  -26.9381   22.5410 C   0  0  0  0  0  0
  -19.5764  -26.6345   21.5195 C   0  0  0  0  0  0
  -18.1944  -26.7889   22.1601 C   0  0  0  0  0  0
  -19.1571  -28.8837   23.2834 C   0  0  0  0  0  0
  -18.9486  -30.1444   23.8852 C   0  0  0  0  0  0
  -17.6476  -30.6558   24.0537 C   0  0  0  0  0  0
  -25.9049  -34.9389   23.5026 C   0  0  0  0  0  0
  -16.5368  -29.9050   23.6325 C   0  0  0  0  0  0
  -16.7294  -28.6466   23.0346 C   0  0  0  0  0  0
  -26.4507  -31.6536   25.0692 C   0  0  0  0  0  0
  -25.3698  -31.3775   26.1400 C   0  0  0  0  0  0
  -27.0357  -30.2909   24.6276 C   0  0  0  0  0  0
  -27.5985  -32.4322   25.7521 C   0  0  0  0  0  0
  -27.5568  -37.1764   24.8440 C   0  0  0  0  0  0
  -21.4255  -29.3027   22.3604 N   0  0  0  0  0  0
  -26.4247  -37.3723   23.9419 N   0  0  0  0  0  0
  -24.7163  -31.0284   22.0843 N   0  0  0  0  0  0
  -23.4193  -28.8079   23.3011 O   0  0  0  0  0  0
  -28.3428  -26.2101   20.1830 O   0  0  0  0  0  0
  -26.5691  -34.8899   22.4630 O   0  0  0  0  0  0
  -23.5533  -32.1318   23.7027 O   0  0  0  0  0  0
  -30.8406  -18.4178   20.6683 C   0  0  0  0  0  0
  -28.5082  -18.2934   20.3621 C   0  0  0  0  0  0
  -30.7218  -19.8706   20.7365 C   0  0  0  0  0  0
  -28.3978  -19.7402   20.4181 C   0  0  0  0  0  0
  -29.7205  -17.5354   20.5085 C   0  0  0  0  0  0
  -29.4927  -20.6324   20.6380 C   0  0  0  0  0  0
  -30.2109  -22.4141   22.0940 C   0  0  0  0  0  0
  -28.9653  -23.3383   20.0886 C   0  0  0  0  0  0
  -28.2434  -24.7478   20.7072 C   0  0  0  0  0  0
  -29.6737  -16.0107   20.5343 N   0  0  0  0  0  0
  -29.3435  -22.0898   20.9558 N   0  0  0  0  0  0
  -31.4890  -12.7204   19.1809 H   0  0  0  0  0  0
  -30.4430  -11.5926   19.9958 H   0  0  0  0  0  0
  -29.8508  -11.7568   17.5519 H   0  0  0  0  0  0
  -29.6424  -13.4797   17.7044 H   0  0  0  0  0  0
  -27.9127  -11.2990   18.9055 H   0  0  0  0  0  0
  -27.4111  -12.5385   17.7893 H   0  0  0  0  0  0
  -27.6085  -14.2692   19.4400 H   0  0  0  0  0  0
  -28.7411  -12.2340   21.4174 H   0  0  0  0  0  0
  -28.4020  -13.9097   21.7775 H   0  0  0  0  0  0
  -25.2823   -9.5603   22.4746 H   0  0  0  0  0  0
  -24.0010   -7.4592   22.7465 H   0  0  0  0  0  0
  -21.0875   -8.8833   19.8975 H   0  0  0  0  0  0
  -22.3804  -10.9685   19.6167 H   0  0  0  0  0  0
  -21.2042   -7.6152   23.9765 H   0  0  0  0  0  0
  -21.1511   -6.0488   25.9082 H   0  0  0  0  0  0
  -22.0577   -2.7629   23.2785 H   0  0  0  0  0  0
  -22.3961  -12.0033   22.5039 H   0  0  0  0  0  0
  -21.0992  -13.1346   22.2465 H   0  0  0  0  0  0
  -24.6027  -15.8167   20.5403 H   0  0  0  0  0  0
  -26.2053  -15.6648   20.0380 H   0  0  0  0  0  0
  -26.7261  -32.5313   23.0990 H   0  0  0  0  0  0
  -24.9969  -33.9578   25.0223 H   0  0  0  0  0  0
  -22.7481  -31.2762   21.3652 H   0  0  0  0  0  0
  -23.3716  -35.9629   23.3246 H   0  0  0  0  0  0
  -24.3610  -36.8975   22.2077 H   0  0  0  0  0  0
  -23.7284  -37.6454   23.6747 H   0  0  0  0  0  0
  -26.1507  -31.4705   20.5958 H   0  0  0  0  0  0
  -26.8725  -30.7872   22.0149 H   0  0  0  0  0  0
  -28.1447  -28.8375   21.2282 H   0  0  0  0  0  0
  -25.9911  -25.8079   19.0611 H   0  0  0  0  0  0
  -24.0088  -27.2480   19.0103 H   0  0  0  0  0  0
  -23.8152  -30.5381   19.3924 H   0  0  0  0  0  0
  -22.7927  -29.2069   19.8462 H   0  0  0  0  0  0
  -25.1277  -36.1796   25.0801 H   0  0  0  0  0  0
  -21.0028  -28.3301   24.1327 H   0  0  0  0  0  0
  -20.5614  -26.2293   23.3633 H   0  0  0  0  0  0
  -21.6659  -26.7338   22.1243 H   0  0  0  0  0  0
  -19.6919  -25.6257   21.1221 H   0  0  0  0  0  0
  -19.6681  -27.3150   20.6722 H   0  0  0  0  0  0
  -17.4193  -26.6645   21.4019 H   0  0  0  0  0  0
  -18.0327  -26.0052   22.9015 H   0  0  0  0  0  0
  -19.7979  -30.7273   24.2168 H   0  0  0  0  0  0
  -17.5040  -31.6225   24.5172 H   0  0  0  0  0  0
  -15.5369  -30.2915   23.7672 H   0  0  0  0  0  0
  -15.8711  -28.0768   22.7044 H   0  0  0  0  0  0
  -24.5765  -30.7247   25.7761 H   0  0  0  0  0  0
  -24.9017  -32.3004   26.4839 H   0  0  0  0  0  0
  -25.7968  -30.8917   27.0186 H   0  0  0  0  0  0
  -26.2988  -29.6636   24.1243 H   0  0  0  0  0  0
  -27.3925  -29.7196   25.4866 H   0  0  0  0  0  0
  -27.8909  -30.4115   23.9615 H   0  0  0  0  0  0
  -27.2471  -33.3562   26.2133 H   0  0  0  0  0  0
  -28.3800  -32.7007   25.0404 H   0  0  0  0  0  0
  -28.0667  -31.8462   26.5448 H   0  0  0  0  0  0
  -28.2493  -38.0143   24.7505 H   0  0  0  0  0  0
  -28.1134  -36.2652   24.6174 H   0  0  0  0  0  0
  -27.2316  -37.1320   25.8851 H   0  0  0  0  0  0
  -20.9443  -29.8720   21.6790 H   0  0  0  0  0  0
  -26.0083  -38.2766   24.1448 H   0  0  0  0  0  0
  -31.8229  -17.9811   20.7817 H   0  0  0  0  0  0
  -27.5857  -17.7435   20.2380 H   0  0  0  0  0  0
  -31.6470  -20.3962   20.9157 H   0  0  0  0  0  0
  -27.4061  -20.1656   20.3685 H   0  0  0  0  0  0
  -31.2651  -22.4140   21.8096 H   0  0  0  0  0  0
  -30.0829  -21.6853   22.8974 H   0  0  0  0  0  0
  -29.9933  -23.3883   22.5272 H   0  0  0  0  0  0
  -29.9127  -23.6508   19.6485 H   0  0  0  0  0  0
  -28.3703  -22.9914   19.2413 H   0  0  0  0  0  0
  -28.6258  -24.8610   21.7208 H   0  0  0  0  0  0
  -27.1895  -24.5140   20.8642 H   0  0  0  0  0  0
  -28.7249  -15.6725   20.5901 H   0  0  0  0  0  0
  1 25  1  0  0  0
  1 30  2  0  0  0
  1 80  1  0  0  0
  2  3  1  0  0  0
  2 25  1  0  0  0
  2 82  1  0  0  0
  2 83  1  0  0  0
  3  4  1  0  0  0
  3 84  1  0  0  0
  3 85  1  0  0  0
  4  5  1  0  0  0
  4 86  1  0  0  0
  4 87  1  0  0  0
  5  6  1  0  0  0
  5 26  1  0  0  0
  5 88  1  0  0  0
  6 25  1  0  0  0
  6 89  1  0  0  0
  6 90  1  0  0  0
  7  8  2  0  0  0
  7 26  1  0  0  0
  7 29  1  0  0  0
  8  9  1  0  0  0
  8 22  1  0  0  0
  9 10  1  0  0  0
  9 27  2  0  0  0
 10 11  2  0  0  0
 10 15  1  0  0  0
 11 12  1  0  0  0
 11 91  1  0  0  0
 12 13  2  0  0  0
 12 92  1  0  0  0
 13 14  1  0  0  0
 13 31  1  0  0  0
 14 15  2  0  0  0
 14 93  1  0  0  0
 15 94  1  0  0  0
 16 17  2  0  0  0
 16 21  1  0  0  0
 16 31  1  0  0  0
 17 18  1  0  0  0
 17 95  1  0  0  0
 18 19  2  0  0  0
 18 96  1  0  0  0
 19 20  1  0  0  0
 19 24  1  0  0  0
 20 21  2  0  0  0
 20 97  1  0  0  0
 21 23  1  0  0  0
 22 28  1  0  0  0
 22 32  2  0  0  0
 26 27  1  0  0  0
 28 98  1  0  0  0
 28 99  1  0  0  0
 29100  1  0  0  0
 29101  1  0  0  0
 33 34  1  0  0  0
 33 66  1  0  0  0
 33 70  2  0  0  0
 34 36  1  0  0  0
 34 59  1  0  0  0
 34102  1  0  0  0
 35 44  2  0  0  0
 35 45  1  0  0  0
 35 68  1  0  0  0
 36 56  1  0  0  0
 36103  1  0  0  0
 37 39  1  0  0  0
 37 47  1  0  0  0
 37 66  1  0  0  0
 37104  1  0  0  0
 38 43  2  0  0  0
 38 46  1  0  0  0
 38 47  1  0  0  0
 39 64  1  0  0  0
 39 67  2  0  0  0
 40 52  1  0  0  0
 40 53  2  0  0  0
 40 58  1  0  0  0
 41105  1  0  0  0
 41106  1  0  0  0
 41107  1  0  0  0
 41 48  1  0  0  0
 42 43  1  0  0  0
 42 66  1  0  0  0
 42108  1  0  0  0
 42109  1  0  0  0
 43 44  1  0  0  0
 44110  1  0  0  0
 45 46  2  0  0  0
 45111  1  0  0  0
 46112  1  0  0  0
 47113  1  0  0  0
 47114  1  0  0  0
 48 56  1  0  0  0
 48 65  1  0  0  0
 48115  1  0  0  0
 49 50  1  0  0  0
 49 53  1  0  0  0
 49 64  1  0  0  0
 49116  1  0  0  0
 50 51  1  0  0  0
 50117  1  0  0  0
 50118  1  0  0  0
 51 52  1  0  0  0
 51119  1  0  0  0
 51120  1  0  0  0
 52121  1  0  0  0
 52122  1  0  0  0
 53 54  1  0  0  0
 54 55  2  0  0  0
 54123  1  0  0  0
 55 57  1  0  0  0
 55124  1  0  0  0
 56 69  2  0  0  0
 57 58  2  0  0  0
 57125  1  0  0  0
 58126  1  0  0  0
 59 60  1  0  0  0
 59 61  1  0  0  0
 59 62  1  0  0  0
 60127  1  0  0  0
 60128  1  0  0  0
 60129  1  0  0  0
 61130  1  0  0  0
 61131  1  0  0  0
 61132  1  0  0  0
 62133  1  0  0  0
 62134  1  0  0  0
 62135  1  0  0  0
 63 65  1  0  0  0
 63136  1  0  0  0
 63137  1  0  0  0
 63138  1  0  0  0
 64139  1  0  0  0
 65140  1  0  0  0
 68 79  1  0  0  0
 71 73  2  0  0  0
 71 75  1  0  0  0
 71141  1  0  0  0
 72 74  1  0  0  0
 72 75  2  0  0  0
 72142  1  0  0  0
 73 76  1  0  0  0
 73143  1  0  0  0
 74 76  2  0  0  0
 74144  1  0  0  0
 75 80  1  0  0  0
 76 81  1  0  0  0
 77 81  1  0  0  0
 77145  1  0  0  0
 77146  1  0  0  0
 77147  1  0  0  0
 78 79  1  0  0  0
 78 81  1  0  0  0
 78148  1  0  0  0
 78149  1  0  0  0
 79150  1  0  0  0
 79151  1  0  0  0
 80152  1  0  0  0
M  ISO  4   1 100  68 101  79 101  80 100
M  END
> <chiral flag>
0

> <version>
0

> <s_m_source_file>
/data/baiqing/PycharmProjects/Reinvent-master-3.2/result/LINK_invent/BTK/process_docking_weight1_custom_product_contain_oxygen_bond_distance_aromatic_linkinvent_7_9_3/rearranged_h_0014.sdf

> <i_m_source_file_index>
71

> <r_mmod_Potential_Energy-OPLS-2005>
459.378814697266

> <r_mmod_Stretch_Energy-OPLS-2005>
224.822845458984

> <r_mmod_Bend_Energy-OPLS-2005>
272.590911865234

> <r_mmod_Torsional_Energy-OPLS-2005>
252.424453735352

> <r_mmod_Improper_Torsional_Energy-OPLS-2005>
9.02254772186279

> <r_mmod_Van_der_Waal_Energy-OPLS-2005>
130.40478515625

> <r_mmod_Electrostatic_Energy-OPLS-2005>
-368.973266601562

> <r_mmod_Solvation_Energy-OPLS-2005>
-227.432510375977

> <b_mmod_Minimization_Converged-OPLS-2005>
0

> <r_mmod_RMS_Derivative-OPLS-2005>
5.62550830841064

$$$$
73
                    3D
 Structure written by MMmdl.
151159  0  0  1  0            999 V2000
  -30.5766  -14.9204   20.4949 C   0  0  0  0  0  0
  -30.4371  -12.5782   19.5082 C   0  0  0  0  0  0
  -29.5222  -12.5377   18.2616 C   0  0  0  0  0  0
  -28.0542  -12.3224   18.6705 C   0  0  0  0  0  0
  -27.6317  -13.2459   19.8391 C   0  0  2  0  0  0
  -28.6646  -13.2478   20.9818 C   0  0  0  0  0  0
  -25.2467  -13.8215   20.5698 C   0  0  0  0  0  0
  -24.1773  -13.0443   20.9195 C   0  0  0  0  0  0
  -24.6382  -11.6920   20.8728 C   0  0  0  0  0  0
  -23.9075  -10.4291   21.0391 C   0  0  0  0  0  0
  -24.3623   -9.4208   21.9171 C   0  0  0  0  0  0
  -23.6303   -8.2241   22.0744 C   0  0  0  0  0  0
  -22.4282   -8.0280   21.3539 C   0  0  0  0  0  0
  -21.9913   -9.0254   20.4647 C   0  0  0  0  0  0
  -22.7240  -10.2134   20.3055 C   0  0  0  0  0  0
  -21.6855   -6.0740   22.5283 C   0  0  0  0  0  0
  -21.4017   -6.5642   23.8219 C   0  0  0  0  0  0
  -21.3665   -5.6792   24.9180 C   0  0  0  0  0  0
  -21.6041   -4.3051   24.7228 C   0  0  0  0  0  0
  -21.8818   -3.8151   23.4349 C   0  0  0  0  0  0
  -21.9190   -4.6965   22.3408 C   0  0  0  0  0  0
  -22.7793  -13.5213   21.1867 C   0  0  0  0  0  0
  -22.1658   -4.2151   21.0985 F   0  0  0  0  0  0
  -21.5624   -3.4528   25.7737 F   0  0  0  0  0  0
  -29.9596  -13.6659   20.4165 N   0  0  0  0  0  0
  -26.2880  -12.9439   20.3209 N   0  0  0  0  0  0
  -25.9312  -11.6570   20.5704 N   0  0  0  0  0  0
  -22.0445  -12.8203   22.0423 N   0  0  0  0  0  0
  -25.4180  -15.1945   20.4185 N   0  0  0  0  0  0
  -31.7217  -15.0094   20.0362 O   0  0  0  0  0  0
  -21.6646   -6.8878   21.4241 O   0  0  0  0  0  0
  -22.3472  -14.5525   20.6732 O   0  0  0  0  0  0
  -24.6434  -31.8437   23.1887 C   0  0  0  0  0  0
  -25.9206  -32.4689   23.8272 C   0  0  1  0  0  0
  -27.2157  -27.1371   20.1479 C   0  0  0  0  0  0
  -25.5962  -33.8496   24.2187 N   0  0  0  0  0  0
  -23.4470  -30.4633   21.5344 C   0  0  2  0  0  0
  -24.8964  -28.8923   20.1086 C   0  0  0  0  0  0
  -22.7564  -29.4539   22.4859 C   0  0  0  0  0  0
  -18.0305  -28.1397   22.8473 C   0  0  0  0  0  0
  -24.1490  -36.7251   23.2642 C   0  0  0  0  0  0
  -26.0037  -30.7175   21.3883 C   0  0  0  0  0  0
  -26.0741  -29.3297   20.7277 C   0  0  0  0  0  0
  -27.2343  -28.4678   20.7310 C   0  0  0  0  0  0
  -26.0117  -26.8033   19.4872 C   0  0  0  0  0  0
  -24.8783  -27.6429   19.4725 C   0  0  0  0  0  0
  -23.6732  -29.7938   20.1532 C   0  0  0  0  0  0
  -25.4125  -36.3025   24.0311 C   0  0  1  0  0  0
  -20.5916  -28.3716   23.1240 C   0  0  2  0  0  0
  -20.6787  -26.9422   22.5405 C   0  0  0  0  0  0
  -19.5760  -26.6380   21.5212 C   0  0  0  0  0  0
  -18.1939  -26.7934   22.1621 C   0  0  0  0  0  0
  -19.1563  -28.8877   23.2846 C   0  0  0  0  0  0
  -18.9478  -30.1473   23.8865 C   0  0  0  0  0  0
  -17.6475  -30.6590   24.0557 C   0  0  0  0  0  0
  -25.9078  -34.9401   23.5056 C   0  0  0  0  0  0
  -16.5365  -29.9082   23.6342 C   0  0  0  0  0  0
  -16.7289  -28.6504   23.0353 C   0  0  0  0  0  0
  -26.4529  -31.6565   25.0721 C   0  0  0  0  0  0
  -25.3712  -31.3758   26.1416 C   0  0  0  0  0  0
  -27.0401  -30.2960   24.6312 C   0  0  0  0  0  0
  -27.6052  -32.4341   25.7511 C   0  0  0  0  0  0
  -27.5570  -37.1784   24.8465 C   0  0  0  0  0  0
  -21.4255  -29.3043   22.3611 N   0  0  0  0  0  0
  -26.4284  -37.3741   23.9408 N   0  0  0  0  0  0
  -24.7179  -31.0287   22.0925 N   0  0  0  0  0  0
  -23.4205  -28.8083   23.3008 O   0  0  0  0  0  0
  -28.2643  -26.1477   20.2254 O   0  0  0  0  0  0
  -26.5654  -34.8897   22.4630 O   0  0  0  0  0  0
  -23.5553  -32.1318   23.7104 O   0  0  0  0  0  0
  -28.5067  -17.9669   20.0454 C   0  0  0  0  0  0
  -28.1426  -19.3610   19.8712 C   0  0  0  0  0  0
  -30.1802  -20.0503   20.8085 C   0  0  0  0  0  0
  -29.7314  -17.5100   20.6283 C   0  0  0  0  0  0
  -28.9315  -20.4976   20.2580 C   0  0  0  0  0  0
  -30.5607  -18.6467   20.9862 C   0  0  0  0  0  0
  -29.9402  -15.9512   22.5497 C   0  0  0  0  0  0
  -27.9710  -24.6281   20.0321 C   0  0  0  0  0  0
  -28.9113  -23.2621   20.3689 C   0  0  0  0  0  0
  -29.9367  -16.0508   21.0826 N   0  0  0  0  0  0
  -28.3921  -21.8484   20.0524 O   0  0  0  0  0  0
  -32.1093  -18.3577   21.6964 Cl  0  0  0  0  0  0
  -31.4726  -12.7245   19.1981 H   0  0  0  0  0  0
  -30.4230  -11.6176   20.0259 H   0  0  0  0  0  0
  -29.8397  -11.7449   17.5823 H   0  0  0  0  0  0
  -29.6166  -13.4730   17.7081 H   0  0  0  0  0  0
  -27.9441  -11.2787   18.9682 H   0  0  0  0  0  0
  -27.3937  -12.4671   17.8145 H   0  0  0  0  0  0
  -27.6057  -14.2548   19.4267 H   0  0  0  0  0  0
  -28.7398  -12.2639   21.4452 H   0  0  0  0  0  0
  -28.3165  -13.9235   21.7606 H   0  0  0  0  0  0
  -25.2761   -9.5687   22.4748 H   0  0  0  0  0  0
  -24.0008   -7.4632   22.7472 H   0  0  0  0  0  0
  -21.0834   -8.8784   19.8967 H   0  0  0  0  0  0
  -22.3687  -10.9677   19.6177 H   0  0  0  0  0  0
  -21.2016   -7.6150   23.9721 H   0  0  0  0  0  0
  -21.1478   -6.0522   25.9080 H   0  0  0  0  0  0
  -22.0590   -2.7615   23.2850 H   0  0  0  0  0  0
  -22.4070  -11.9868   22.4814 H   0  0  0  0  0  0
  -21.1059  -13.1221   22.2629 H   0  0  0  0  0  0
  -24.6604  -15.8565   20.5462 H   0  0  0  0  0  0
  -26.2836  -15.6306   20.1313 H   0  0  0  0  0  0
  -26.7265  -32.5285   23.0993 H   0  0  0  0  0  0
  -25.0112  -33.9620   25.0335 H   0  0  0  0  0  0
  -22.7500  -31.2895   21.3794 H   0  0  0  0  0  0
  -23.3753  -35.9582   23.3296 H   0  0  0  0  0  0
  -24.3575  -36.8896   22.2059 H   0  0  0  0  0  0
  -23.7247  -37.6444   23.6689 H   0  0  0  0  0  0
  -26.1614  -31.4737   20.6179 H   0  0  0  0  0  0
  -26.8732  -30.7651   22.0322 H   0  0  0  0  0  0
  -28.1304  -28.7955   21.2391 H   0  0  0  0  0  0
  -25.9077  -25.8490   18.9934 H   0  0  0  0  0  0
  -23.9796  -27.3048   18.9747 H   0  0  0  0  0  0
  -23.8097  -30.5689   19.3983 H   0  0  0  0  0  0
  -22.7879  -29.2362   19.8415 H   0  0  0  0  0  0
  -25.1315  -36.1848   25.0801 H   0  0  0  0  0  0
  -21.0005  -28.3298   24.1363 H   0  0  0  0  0  0
  -20.5685  -26.2324   23.3620 H   0  0  0  0  0  0
  -21.6651  -26.7432   22.1198 H   0  0  0  0  0  0
  -19.6926  -25.6286   21.1257 H   0  0  0  0  0  0
  -19.6701  -27.3175   20.6731 H   0  0  0  0  0  0
  -17.4212  -26.6678   21.4022 H   0  0  0  0  0  0
  -18.0335  -26.0084   22.9028 H   0  0  0  0  0  0
  -19.7956  -30.7300   24.2210 H   0  0  0  0  0  0
  -17.5031  -31.6268   24.5166 H   0  0  0  0  0  0
  -15.5364  -30.2972   23.7693 H   0  0  0  0  0  0
  -15.8688  -28.0819   22.7080 H   0  0  0  0  0  0
  -24.5899  -30.7096   25.7737 H   0  0  0  0  0  0
  -24.8892  -32.2942   26.4776 H   0  0  0  0  0  0
  -25.7997  -30.8978   27.0233 H   0  0  0  0  0  0
  -26.3024  -29.6670   24.1319 H   0  0  0  0  0  0
  -27.4011  -29.7273   25.4891 H   0  0  0  0  0  0
  -27.8927  -30.4191   23.9632 H   0  0  0  0  0  0
  -27.2637  -33.3661   26.2023 H   0  0  0  0  0  0
  -28.3897  -32.6873   25.0369 H   0  0  0  0  0  0
  -28.0676  -31.8513   26.5485 H   0  0  0  0  0  0
  -28.2581  -38.0085   24.7508 H   0  0  0  0  0  0
  -28.1073  -36.2615   24.6299 H   0  0  0  0  0  0
  -27.2286  -37.1436   25.8867 H   0  0  0  0  0  0
  -20.9462  -29.8762   21.6798 H   0  0  0  0  0  0
  -26.0144  -38.2804   24.1418 H   0  0  0  0  0  0
  -27.7762  -17.2236   19.7642 H   0  0  0  0  0  0
  -27.1733  -19.5598   19.4360 H   0  0  0  0  0  0
  -30.8837  -20.8030   21.1318 H   0  0  0  0  0  0
  -29.1650  -16.5854   22.9812 H   0  0  0  0  0  0
  -30.8990  -16.2779   22.9522 H   0  0  0  0  0  0
  -29.7837  -14.9429   22.9326 H   0  0  0  0  0  0
  -27.0347  -24.4501   20.5620 H   0  0  0  0  0  0
  -27.7181  -24.5315   18.9764 H   0  0  0  0  0  0
  -29.1613  -23.2785   21.4292 H   0  0  0  0  0  0
  -29.8608  -23.3718   19.8446 H   0  0  0  0  0  0
  1 25  1  0  0  0
  1 30  2  0  0  0
  1 80  1  0  0  0
  2  3  1  0  0  0
  2 25  1  0  0  0
  2 83  1  0  0  0
  2 84  1  0  0  0
  3  4  1  0  0  0
  3 85  1  0  0  0
  3 86  1  0  0  0
  4  5  1  0  0  0
  4 87  1  0  0  0
  4 88  1  0  0  0
  5  6  1  0  0  0
  5 26  1  0  0  0
  5 89  1  0  0  0
  6 25  1  0  0  0
  6 90  1  0  0  0
  6 91  1  0  0  0
  7  8  2  0  0  0
  7 26  1  0  0  0
  7 29  1  0  0  0
  8  9  1  0  0  0
  8 22  1  0  0  0
  9 10  1  0  0  0
  9 27  2  0  0  0
 10 11  2  0  0  0
 10 15  1  0  0  0
 11 12  1  0  0  0
 11 92  1  0  0  0
 12 13  2  0  0  0
 12 93  1  0  0  0
 13 14  1  0  0  0
 13 31  1  0  0  0
 14 15  2  0  0  0
 14 94  1  0  0  0
 15 95  1  0  0  0
 16 17  2  0  0  0
 16 21  1  0  0  0
 16 31  1  0  0  0
 17 18  1  0  0  0
 17 96  1  0  0  0
 18 19  2  0  0  0
 18 97  1  0  0  0
 19 20  1  0  0  0
 19 24  1  0  0  0
 20 21  2  0  0  0
 20 98  1  0  0  0
 21 23  1  0  0  0
 22 28  1  0  0  0
 22 32  2  0  0  0
 26 27  1  0  0  0
 28 99  1  0  0  0
 28100  1  0  0  0
 29101  1  0  0  0
 29102  1  0  0  0
 33 34  1  0  0  0
 33 66  1  0  0  0
 33 70  2  0  0  0
 34 36  1  0  0  0
 34 59  1  0  0  0
 34103  1  0  0  0
 35 44  2  0  0  0
 35 45  1  0  0  0
 35 68  1  0  0  0
 36 56  1  0  0  0
 36104  1  0  0  0
 37 39  1  0  0  0
 37 47  1  0  0  0
 37 66  1  0  0  0
 37105  1  0  0  0
 38 43  2  0  0  0
 38 46  1  0  0  0
 38 47  1  0  0  0
 39 64  1  0  0  0
 39 67  2  0  0  0
 40 52  1  0  0  0
 40 53  2  0  0  0
 40 58  1  0  0  0
 41106  1  0  0  0
 41107  1  0  0  0
 41108  1  0  0  0
 41 48  1  0  0  0
 42 43  1  0  0  0
 42 66  1  0  0  0
 42109  1  0  0  0
 42110  1  0  0  0
 43 44  1  0  0  0
 44111  1  0  0  0
 45 46  2  0  0  0
 45112  1  0  0  0
 46113  1  0  0  0
 47114  1  0  0  0
 47115  1  0  0  0
 48 56  1  0  0  0
 48 65  1  0  0  0
 48116  1  0  0  0
 49 50  1  0  0  0
 49 53  1  0  0  0
 49 64  1  0  0  0
 49117  1  0  0  0
 50 51  1  0  0  0
 50118  1  0  0  0
 50119  1  0  0  0
 51 52  1  0  0  0
 51120  1  0  0  0
 51121  1  0  0  0
 52122  1  0  0  0
 52123  1  0  0  0
 53 54  1  0  0  0
 54 55  2  0  0  0
 54124  1  0  0  0
 55 57  1  0  0  0
 55125  1  0  0  0
 56 69  2  0  0  0
 57 58  2  0  0  0
 57126  1  0  0  0
 58127  1  0  0  0
 59 60  1  0  0  0
 59 61  1  0  0  0
 59 62  1  0  0  0
 60128  1  0  0  0
 60129  1  0  0  0
 60130  1  0  0  0
 61131  1  0  0  0
 61132  1  0  0  0
 61133  1  0  0  0
 62134  1  0  0  0
 62135  1  0  0  0
 62136  1  0  0  0
 63 65  1  0  0  0
 63137  1  0  0  0
 63138  1  0  0  0
 63139  1  0  0  0
 64140  1  0  0  0
 65141  1  0  0  0
 68 78  1  0  0  0
 71 72  2  0  0  0
 71 74  1  0  0  0
 71142  1  0  0  0
 72 75  1  0  0  0
 72143  1  0  0  0
 73 75  2  0  0  0
 73 76  1  0  0  0
 73144  1  0  0  0
 74 76  2  0  0  0
 74 80  1  0  0  0
 75 81  1  0  0  0
 76 82  1  0  0  0
 77 80  1  0  0  0
 77145  1  0  0  0
 77146  1  0  0  0
 77147  1  0  0  0
 78 79  1  0  0  0
 78148  1  0  0  0
 78149  1  0  0  0
 79 81  1  0  0  0
 79150  1  0  0  0
 79151  1  0  0  0
M  ISO  4   1 100  68 101  78 101  80 100
M  END
> <chiral flag>
0

> <version>
0

> <s_m_source_file>
/data/baiqing/PycharmProjects/Reinvent-master-3.2/result/LINK_invent/BTK/process_docking_weight1_custom_product_contain_oxygen_bond_distance_aromatic_linkinvent_7_9_3/rearranged_h_0014.sdf

> <i_m_source_file_index>
72

> <r_mmod_Potential_Energy-OPLS-2005>
647.054138183594

> <r_mmod_Stretch_Energy-OPLS-2005>
238.706802368164

> <r_mmod_Bend_Energy-OPLS-2005>
288.578704833984

> <r_mmod_Torsional_Energy-OPLS-2005>
307.835632324219

> <r_mmod_Improper_Torsional_Energy-OPLS-2005>
5.58198404312134

> <r_mmod_Van_der_Waal_Energy-OPLS-2005>
133.387420654297

> <r_mmod_Electrostatic_Energy-OPLS-2005>
-305.748931884766

> <r_mmod_Solvation_Energy-OPLS-2005>
-200.972717285156

> <b_mmod_Minimization_Converged-OPLS-2005>
0

> <r_mmod_RMS_Derivative-OPLS-2005>
1.06208896636963

$$$$
74
                    3D
 Structure written by MMmdl.
156165  0  0  1  0            999 V2000
  -30.4965  -14.9574   20.3919 C   0  0  0  0  0  0
  -30.4537  -12.5857   19.4878 C   0  0  0  0  0  0
  -29.5256  -12.5227   18.2514 C   0  0  0  0  0  0
  -28.0558  -12.3118   18.6671 C   0  0  0  0  0  0
  -27.6318  -13.2306   19.8427 C   0  0  2  0  0  0
  -28.6818  -13.2540   20.9747 C   0  0  0  0  0  0
  -25.2497  -13.8159   20.5772 C   0  0  0  0  0  0
  -24.1783  -13.0412   20.9300 C   0  0  0  0  0  0
  -24.6389  -11.6895   20.8790 C   0  0  0  0  0  0
  -23.9054  -10.4277   21.0435 C   0  0  0  0  0  0
  -24.3582   -9.4180   21.9209 C   0  0  0  0  0  0
  -23.6264   -8.2215   22.0765 C   0  0  0  0  0  0
  -22.4244   -8.0269   21.3566 C   0  0  0  0  0  0
  -21.9889   -9.0256   20.4674 C   0  0  0  0  0  0
  -22.7221  -10.2140   20.3087 C   0  0  0  0  0  0
  -21.6847   -6.0716   22.5276 C   0  0  0  0  0  0
  -21.4029   -6.5613   23.8211 C   0  0  0  0  0  0
  -21.3669   -5.6783   24.9175 C   0  0  0  0  0  0
  -21.6030   -4.3045   24.7226 C   0  0  0  0  0  0
  -21.8805   -3.8137   23.4347 C   0  0  0  0  0  0
  -21.9188   -4.6948   22.3410 C   0  0  0  0  0  0
  -22.7807  -13.5220   21.1934 C   0  0  0  0  0  0
  -22.1648   -4.2139   21.0988 F   0  0  0  0  0  0
  -21.5642   -3.4539   25.7741 F   0  0  0  0  0  0
  -29.9497  -13.6777   20.3633 N   0  0  0  0  0  0
  -26.2890  -12.9360   20.3271 N   0  0  0  0  0  0
  -25.9303  -11.6513   20.5742 N   0  0  0  0  0  0
  -22.0408  -12.8281   22.0497 N   0  0  0  0  0  0
  -25.4175  -15.1872   20.4216 N   0  0  0  0  0  0
  -31.7107  -15.0721   20.1883 O   0  0  0  0  0  0
  -21.6619   -6.8857   21.4242 O   0  0  0  0  0  0
  -22.3494  -14.5519   20.6752 O   0  0  0  0  0  0
  -24.6391  -31.8451   23.1861 C   0  0  0  0  0  0
  -25.9169  -32.4696   23.8262 C   0  0  1  0  0  0
  -27.2126  -27.1387   20.1887 C   0  0  0  0  0  0
  -25.5929  -33.8508   24.2180 N   0  0  0  0  0  0
  -23.4416  -30.4611   21.5319 C   0  0  2  0  0  0
  -24.8937  -28.8797   20.1189 C   0  0  0  0  0  0
  -22.7565  -29.4552   22.4872 C   0  0  0  0  0  0
  -18.0303  -28.1392   22.8479 C   0  0  0  0  0  0
  -24.1486  -36.7250   23.2639 C   0  0  0  0  0  0
  -25.9970  -30.7240   21.3793 C   0  0  0  0  0  0
  -26.0684  -29.3319   20.7332 C   0  0  0  0  0  0
  -27.2331  -28.4786   20.7442 C   0  0  0  0  0  0
  -26.0145  -26.7740   19.5441 C   0  0  0  0  0  0
  -24.8799  -27.6167   19.5058 C   0  0  0  0  0  0
  -23.6681  -29.7817   20.1540 C   0  0  0  0  0  0
  -25.4116  -36.3028   24.0319 C   0  0  1  0  0  0
  -20.5915  -28.3717   23.1250 C   0  0  2  0  0  0
  -20.6786  -26.9413   22.5420 C   0  0  0  0  0  0
  -19.5766  -26.6381   21.5215 C   0  0  0  0  0  0
  -18.1942  -26.7938   22.1618 C   0  0  0  0  0  0
  -19.1557  -28.8872   23.2860 C   0  0  0  0  0  0
  -18.9478  -30.1475   23.8879 C   0  0  0  0  0  0
  -17.6468  -30.6590   24.0559 C   0  0  0  0  0  0
  -25.9066  -34.9407   23.5056 C   0  0  0  0  0  0
  -16.5355  -29.9079   23.6344 C   0  0  0  0  0  0
  -16.7290  -28.6503   23.0357 C   0  0  0  0  0  0
  -26.4508  -31.6555   25.0702 C   0  0  0  0  0  0
  -25.3700  -31.3740   26.1408 C   0  0  0  0  0  0
  -27.0356  -30.2954   24.6254 C   0  0  0  0  0  0
  -27.6053  -32.4314   25.7482 C   0  0  0  0  0  0
  -27.5579  -37.1768   24.8457 C   0  0  0  0  0  0
  -21.4259  -29.3038   22.3622 N   0  0  0  0  0  0
  -26.4277  -37.3740   23.9404 N   0  0  0  0  0  0
  -24.7118  -31.0305   22.0886 N   0  0  0  0  0  0
  -23.4222  -28.8118   23.3024 O   0  0  0  0  0  0
  -28.2913  -26.1921   20.1970 O   0  0  0  0  0  0
  -26.5667  -34.8903   22.4645 O   0  0  0  0  0  0
  -23.5525  -32.1325   23.7114 O   0  0  0  0  0  0
  -30.0982  -19.9182   21.2895 C   0  0  0  0  0  0
  -30.3029  -18.4773   21.2087 C   0  0  0  0  0  0
  -28.5275  -19.8363   19.5646 C   0  0  0  0  0  0
  -28.7049  -18.3854   19.4667 C   0  0  0  0  0  0
  -29.1827  -20.7024   20.4952 C   0  0  0  0  0  0
  -29.5983  -17.6040   20.3154 C   0  0  0  0  0  0
  -29.3785  -24.4145   21.6230 C   0  0  0  0  0  0
  -29.4720  -22.8679   21.8503 C   0  0  0  0  0  0
  -28.2482  -23.2927   19.8820 C   0  0  0  0  0  0
  -28.1773  -24.7244   20.7066 C   0  0  2  0  0  0
  -27.9134  -17.7245   18.3340 C   0  0  0  0  0  0
  -28.9684  -22.1785   20.6612 N   0  0  0  0  0  0
  -29.6033  -16.0622   20.3784 N   0  0  0  0  0  0
  -28.5854  -17.9046   17.1958 F   0  0  0  0  0  0
  -27.7173  -16.4157   18.5023 F   0  0  0  0  0  0
  -26.7105  -18.2890   18.2058 F   0  0  0  0  0  0
  -31.4860  -12.7655   19.1777 H   0  0  0  0  0  0
  -30.4598  -11.6321   20.0192 H   0  0  0  0  0  0
  -29.8450  -11.7233   17.5798 H   0  0  0  0  0  0
  -29.6178  -13.4502   17.6799 H   0  0  0  0  0  0
  -27.9434  -11.2667   18.9609 H   0  0  0  0  0  0
  -27.3954  -12.4630   17.8109 H   0  0  0  0  0  0
  -27.5949  -14.2271   19.4165 H   0  0  0  0  0  0
  -28.7749  -12.2762   21.4504 H   0  0  0  0  0  0
  -28.3816  -13.9494   21.7612 H   0  0  0  0  0  0
  -25.2709   -9.5654   22.4804 H   0  0  0  0  0  0
  -23.9974   -7.4598   22.7468 H   0  0  0  0  0  0
  -21.0824   -8.8767   19.8989 H   0  0  0  0  0  0
  -22.3660  -10.9680   19.6203 H   0  0  0  0  0  0
  -21.2032   -7.6125   23.9709 H   0  0  0  0  0  0
  -21.1505   -6.0522   25.9082 H   0  0  0  0  0  0
  -22.0573   -2.7606   23.2852 H   0  0  0  0  0  0
  -22.3954  -11.9942   22.4979 H   0  0  0  0  0  0
  -21.1034  -13.1387   22.2590 H   0  0  0  0  0  0
  -24.6492  -15.8325   20.5605 H   0  0  0  0  0  0
  -26.2188  -15.6190   19.9809 H   0  0  0  0  0  0
  -26.7249  -32.5315   23.1009 H   0  0  0  0  0  0
  -25.0023  -33.9605   25.0303 H   0  0  0  0  0  0
  -22.7442  -31.2865   21.3749 H   0  0  0  0  0  0
  -23.3745  -35.9579   23.3293 H   0  0  0  0  0  0
  -24.3578  -36.8903   22.2058 H   0  0  0  0  0  0
  -23.7255  -37.6453   23.6691 H   0  0  0  0  0  0
  -26.1434  -31.4766   20.5999 H   0  0  0  0  0  0
  -26.8687  -30.7843   22.0179 H   0  0  0  0  0  0
  -28.1314  -28.8259   21.2331 H   0  0  0  0  0  0
  -25.9450  -25.7979   19.0855 H   0  0  0  0  0  0
  -23.9829  -27.2655   19.0140 H   0  0  0  0  0  0
  -23.7994  -30.5489   19.3902 H   0  0  0  0  0  0
  -22.7832  -29.2173   19.8518 H   0  0  0  0  0  0
  -25.1298  -36.1853   25.0814 H   0  0  0  0  0  0
  -21.0011  -28.3294   24.1370 H   0  0  0  0  0  0
  -20.5669  -26.2311   23.3633 H   0  0  0  0  0  0
  -21.6656  -26.7416   22.1222 H   0  0  0  0  0  0
  -19.6913  -25.6285   21.1261 H   0  0  0  0  0  0
  -19.6699  -27.3181   20.6738 H   0  0  0  0  0  0
  -17.4212  -26.6712   21.4011 H   0  0  0  0  0  0
  -18.0308  -26.0079   22.9013 H   0  0  0  0  0  0
  -19.7944  -30.7302   24.2232 H   0  0  0  0  0  0
  -17.5015  -31.6260   24.5154 H   0  0  0  0  0  0
  -15.5356  -30.2961   23.7666 H   0  0  0  0  0  0
  -15.8707  -28.0805   22.7078 H   0  0  0  0  0  0
  -24.5856  -30.7118   25.7724 H   0  0  0  0  0  0
  -24.8908  -32.2923   26.4821 H   0  0  0  0  0  0
  -25.7984  -30.8916   27.0204 H   0  0  0  0  0  0
  -26.2953  -29.6693   24.1256 H   0  0  0  0  0  0
  -27.3974  -29.7240   25.4811 H   0  0  0  0  0  0
  -27.8870  -30.4195   23.9552 H   0  0  0  0  0  0
  -27.2649  -33.3618   26.2043 H   0  0  0  0  0  0
  -28.3865  -32.6874   25.0309 H   0  0  0  0  0  0
  -28.0722  -31.8454   26.5408 H   0  0  0  0  0  0
  -28.2575  -38.0085   24.7507 H   0  0  0  0  0  0
  -28.1092  -36.2606   24.6256 H   0  0  0  0  0  0
  -27.2303  -37.1416   25.8865 H   0  0  0  0  0  0
  -20.9458  -29.8717   21.6788 H   0  0  0  0  0  0
  -26.0140  -38.2811   24.1412 H   0  0  0  0  0  0
  -30.6953  -20.4243   22.0326 H   0  0  0  0  0  0
  -31.0087  -18.0342   21.8963 H   0  0  0  0  0  0
  -27.8259  -20.2971   18.8855 H   0  0  0  0  0  0
  -30.2821  -24.7498   21.1161 H   0  0  0  0  0  0
  -29.3305  -24.9618   22.5648 H   0  0  0  0  0  0
  -28.8715  -22.5728   22.7104 H   0  0  0  0  0  0
  -30.5038  -22.5844   22.0671 H   0  0  0  0  0  0
  -28.7853  -23.4492   18.9473 H   0  0  0  0  0  0
  -27.2348  -22.9823   19.6217 H   0  0  0  0  0  0
  -27.2895  -24.6859   21.3415 H   0  0  0  0  0  0
  -28.6665  -15.6995   20.2803 H   0  0  0  0  0  0
  1 25  1  0  0  0
  1 30  2  0  0  0
  1 83  1  0  0  0
  2  3  1  0  0  0
  2 25  1  0  0  0
  2 87  1  0  0  0
  2 88  1  0  0  0
  3  4  1  0  0  0
  3 89  1  0  0  0
  3 90  1  0  0  0
  4  5  1  0  0  0
  4 91  1  0  0  0
  4 92  1  0  0  0
  5  6  1  0  0  0
  5 26  1  0  0  0
  5 93  1  0  0  0
  6 25  1  0  0  0
  6 94  1  0  0  0
  6 95  1  0  0  0
  7  8  2  0  0  0
  7 26  1  0  0  0
  7 29  1  0  0  0
  8  9  1  0  0  0
  8 22  1  0  0  0
  9 10  1  0  0  0
  9 27  2  0  0  0
 10 11  2  0  0  0
 10 15  1  0  0  0
 11 12  1  0  0  0
 11 96  1  0  0  0
 12 13  2  0  0  0
 12 97  1  0  0  0
 13 14  1  0  0  0
 13 31  1  0  0  0
 14 15  2  0  0  0
 14 98  1  0  0  0
 15 99  1  0  0  0
 16 17  2  0  0  0
 16 21  1  0  0  0
 16 31  1  0  0  0
 17 18  1  0  0  0
 17100  1  0  0  0
 18 19  2  0  0  0
 18101  1  0  0  0
 19 20  1  0  0  0
 19 24  1  0  0  0
 20 21  2  0  0  0
 20102  1  0  0  0
 21 23  1  0  0  0
 22 28  1  0  0  0
 22 32  2  0  0  0
 26 27  1  0  0  0
 28103  1  0  0  0
 28104  1  0  0  0
 29105  1  0  0  0
 29106  1  0  0  0
 33 34  1  0  0  0
 33 66  1  0  0  0
 33 70  2  0  0  0
 34 36  1  0  0  0
 34 59  1  0  0  0
 34107  1  0  0  0
 35 44  2  0  0  0
 35 45  1  0  0  0
 35 68  1  0  0  0
 36 56  1  0  0  0
 36108  1  0  0  0
 37 39  1  0  0  0
 37 47  1  0  0  0
 37 66  1  0  0  0
 37109  1  0  0  0
 38 43  2  0  0  0
 38 46  1  0  0  0
 38 47  1  0  0  0
 39 64  1  0  0  0
 39 67  2  0  0  0
 40 52  1  0  0  0
 40 53  2  0  0  0
 40 58  1  0  0  0
 41110  1  0  0  0
 41111  1  0  0  0
 41112  1  0  0  0
 41 48  1  0  0  0
 42 43  1  0  0  0
 42 66  1  0  0  0
 42113  1  0  0  0
 42114  1  0  0  0
 43 44  1  0  0  0
 44115  1  0  0  0
 45 46  2  0  0  0
 45116  1  0  0  0
 46117  1  0  0  0
 47118  1  0  0  0
 47119  1  0  0  0
 48 56  1  0  0  0
 48 65  1  0  0  0
 48120  1  0  0  0
 49 50  1  0  0  0
 49 53  1  0  0  0
 49 64  1  0  0  0
 49121  1  0  0  0
 50 51  1  0  0  0
 50122  1  0  0  0
 50123  1  0  0  0
 51 52  1  0  0  0
 51124  1  0  0  0
 51125  1  0  0  0
 52126  1  0  0  0
 52127  1  0  0  0
 53 54  1  0  0  0
 54 55  2  0  0  0
 54128  1  0  0  0
 55 57  1  0  0  0
 55129  1  0  0  0
 56 69  2  0  0  0
 57 58  2  0  0  0
 57130  1  0  0  0
 58131  1  0  0  0
 59 60  1  0  0  0
 59 61  1  0  0  0
 59 62  1  0  0  0
 60132  1  0  0  0
 60133  1  0  0  0
 60134  1  0  0  0
 61135  1  0  0  0
 61136  1  0  0  0
 61137  1  0  0  0
 62138  1  0  0  0
 62139  1  0  0  0
 62140  1  0  0  0
 63 65  1  0  0  0
 63141  1  0  0  0
 63142  1  0  0  0
 63143  1  0  0  0
 64144  1  0  0  0
 65145  1  0  0  0
 68 80  1  0  0  0
 71 72  2  0  0  0
 71 75  1  0  0  0
 71146  1  0  0  0
 72 76  1  0  0  0
 72147  1  0  0  0
 73 74  1  0  0  0
 73 75  2  0  0  0
 73148  1  0  0  0
 74 76  2  0  0  0
 74 81  1  0  0  0
 75 82  1  0  0  0
 76 83  1  0  0  0
 77 78  1  0  0  0
 77 80  1  0  0  0
 77149  1  0  0  0
 77150  1  0  0  0
 78 82  1  0  0  0
 78151  1  0  0  0
 78152  1  0  0  0
 79 80  1  0  0  0
 79 82  1  0  0  0
 79153  1  0  0  0
 79154  1  0  0  0
 80155  1  0  0  0
 81 84  1  0  0  0
 81 85  1  0  0  0
 81 86  1  0  0  0
 83156  1  0  0  0
M  ISO  4   1 100  68 101  80 101  83 100
M  END
> <chiral flag>
0

> <version>
0

> <s_m_source_file>
/data/baiqing/PycharmProjects/Reinvent-master-3.2/result/LINK_invent/BTK/process_docking_weight1_custom_product_contain_oxygen_bond_distance_aromatic_linkinvent_7_9_3/rearranged_h_0014.sdf

> <i_m_source_file_index>
73

> <r_mmod_Potential_Energy-OPLS-2005>
570.625122070312

> <r_mmod_Stretch_Energy-OPLS-2005>
217.517562866211

> <r_mmod_Bend_Energy-OPLS-2005>
315.685607910156

> <r_mmod_Torsional_Energy-OPLS-2005>
298.422576904297

> <r_mmod_Improper_Torsional_Energy-OPLS-2005>
8.08099555969238

> <r_mmod_Van_der_Waal_Energy-OPLS-2005>
127.817283630371

> <r_mmod_Electrostatic_Energy-OPLS-2005>
-369.133178710938

> <r_mmod_Solvation_Energy-OPLS-2005>
-222.197845458984

> <b_mmod_Minimization_Converged-OPLS-2005>
0

> <r_mmod_RMS_Derivative-OPLS-2005>
4.58136177062988

$$$$
75
                    3D
 Structure written by MMmdl.
153162  0  0  1  0            999 V2000
  -30.5124  -14.9454   20.4268 C   0  0  0  0  0  0
  -30.4539  -12.5881   19.4866 C   0  0  0  0  0  0
  -29.5243  -12.5303   18.2507 C   0  0  0  0  0  0
  -28.0576  -12.3138   18.6724 C   0  0  0  0  0  0
  -27.6349  -13.2403   19.8414 C   0  0  2  0  0  0
  -28.6810  -13.2483   20.9769 C   0  0  0  0  0  0
  -25.2483  -13.8193   20.5694 C   0  0  0  0  0  0
  -24.1794  -13.0428   20.9226 C   0  0  0  0  0  0
  -24.6407  -11.6915   20.8770 C   0  0  0  0  0  0
  -23.9079  -10.4290   21.0423 C   0  0  0  0  0  0
  -24.3632   -9.4206   21.9193 C   0  0  0  0  0  0
  -23.6306   -8.2238   22.0758 C   0  0  0  0  0  0
  -22.4282   -8.0286   21.3551 C   0  0  0  0  0  0
  -21.9922   -9.0257   20.4645 C   0  0  0  0  0  0
  -22.7255  -10.2134   20.3061 C   0  0  0  0  0  0
  -21.6847   -6.0745   22.5281 C   0  0  0  0  0  0
  -21.4007   -6.5649   23.8215 C   0  0  0  0  0  0
  -21.3661   -5.6797   24.9176 C   0  0  0  0  0  0
  -21.6042   -4.3057   24.7221 C   0  0  0  0  0  0
  -21.8821   -3.8153   23.4341 C   0  0  0  0  0  0
  -21.9191   -4.6974   22.3401 C   0  0  0  0  0  0
  -22.7817  -13.5207   21.1887 C   0  0  0  0  0  0
  -22.1661   -4.2164   21.0978 F   0  0  0  0  0  0
  -21.5632   -3.4537   25.7730 F   0  0  0  0  0  0
  -29.9566  -13.6690   20.3806 N   0  0  0  0  0  0
  -26.2915  -12.9414   20.3261 N   0  0  0  0  0  0
  -25.9339  -11.6553   20.5756 N   0  0  0  0  0  0
  -22.0460  -12.8197   22.0440 N   0  0  0  0  0  0
  -25.4122  -15.1925   20.4096 N   0  0  0  0  0  0
  -31.7195  -15.0584   20.1825 O   0  0  0  0  0  0
  -21.6643   -6.8888   21.4245 O   0  0  0  0  0  0
  -22.3510  -14.5521   20.6742 O   0  0  0  0  0  0
  -24.6434  -31.8431   23.1850 C   0  0  0  0  0  0
  -25.9196  -32.4701   23.8256 C   0  0  1  0  0  0
  -27.2326  -27.1409   20.1683 C   0  0  0  0  0  0
  -25.5950  -33.8504   24.2190 N   0  0  0  0  0  0
  -23.4492  -30.4591   21.5291 C   0  0  2  0  0  0
  -24.9021  -28.8758   20.1177 C   0  0  0  0  0  0
  -22.7566  -29.4548   22.4844 C   0  0  0  0  0  0
  -18.0300  -28.1413   22.8495 C   0  0  0  0  0  0
  -24.1474  -36.7244   23.2641 C   0  0  0  0  0  0
  -26.0030  -30.7202   21.3797 C   0  0  0  0  0  0
  -26.0780  -29.3278   20.7307 C   0  0  0  0  0  0
  -27.2469  -28.4787   20.7313 C   0  0  0  0  0  0
  -26.0302  -26.7785   19.5273 C   0  0  0  0  0  0
  -24.8896  -27.6139   19.5006 C   0  0  0  0  0  0
  -23.6786  -29.7790   20.1524 C   0  0  0  0  0  0
  -25.4108  -36.3033   24.0324 C   0  0  1  0  0  0
  -20.5921  -28.3735   23.1235 C   0  0  2  0  0  0
  -20.6786  -26.9434   22.5411 C   0  0  0  0  0  0
  -19.5758  -26.6388   21.5224 C   0  0  0  0  0  0
  -18.1935  -26.7954   22.1628 C   0  0  0  0  0  0
  -19.1566  -28.8888   23.2863 C   0  0  0  0  0  0
  -18.9484  -30.1487   23.8885 C   0  0  0  0  0  0
  -17.6484  -30.6613   24.0569 C   0  0  0  0  0  0
  -25.9064  -34.9412   23.5068 C   0  0  0  0  0  0
  -16.5371  -29.9113   23.6341 C   0  0  0  0  0  0
  -16.7286  -28.6526   23.0367 C   0  0  0  0  0  0
  -26.4521  -31.6570   25.0696 C   0  0  0  0  0  0
  -25.3715  -31.3787   26.1408 C   0  0  0  0  0  0
  -27.0366  -30.2966   24.6255 C   0  0  0  0  0  0
  -27.6058  -32.4325   25.7483 C   0  0  0  0  0  0
  -27.5577  -37.1756   24.8457 C   0  0  0  0  0  0
  -21.4256  -29.3063   22.3603 N   0  0  0  0  0  0
  -26.4260  -37.3759   23.9445 N   0  0  0  0  0  0
  -24.7185  -31.0293   22.0871 N   0  0  0  0  0  0
  -23.4199  -28.8088   23.2997 O   0  0  0  0  0  0
  -28.3151  -26.1911   20.1746 O   0  0  0  0  0  0
  -26.5646  -34.8915   22.4637 O   0  0  0  0  0  0
  -23.5551  -32.1289   23.7081 O   0  0  0  0  0  0
  -28.5106  -19.7951   19.7197 C   0  0  0  0  0  0
  -28.6779  -18.3466   19.6993 C   0  0  0  0  0  0
  -30.4501  -18.4981   21.2309 C   0  0  0  0  0  0
  -29.2680  -20.6976   20.5387 C   0  0  0  0  0  0
  -29.6550  -17.5964   20.4478 C   0  0  0  0  0  0
  -30.2619  -19.9460   21.2854 C   0  0  0  0  0  0
  -28.9879  -24.3619   21.8192 C   0  0  0  0  0  0
  -29.0254  -22.8086   21.9973 C   0  0  0  0  0  0
  -28.5814  -23.3177   19.7462 C   0  0  0  0  0  0
  -28.1522  -24.6911   20.5664 C   0  0  2  0  0  0
  -29.0343  -22.1768   20.6731 N   0  0  0  0  0  0
  -29.6315  -16.0573   20.5080 N   0  0  0  0  0  0
  -31.0940  -20.6281   22.1093 F   0  0  0  0  0  0
  -31.4829  -12.7700   19.1704 H   0  0  0  0  0  0
  -30.4665  -11.6314   20.0106 H   0  0  0  0  0  0
  -29.8423  -11.7344   17.5755 H   0  0  0  0  0  0
  -29.6075  -13.4611   17.6859 H   0  0  0  0  0  0
  -27.9546  -11.2712   18.9768 H   0  0  0  0  0  0
  -27.3911  -12.4470   17.8197 H   0  0  0  0  0  0
  -27.6014  -14.2450   19.4196 H   0  0  0  0  0  0
  -28.7706  -12.2644   21.4403 H   0  0  0  0  0  0
  -28.3823  -13.9356   21.7704 H   0  0  0  0  0  0
  -25.2775   -9.5678   22.4772 H   0  0  0  0  0  0
  -24.0012   -7.4625   22.7471 H   0  0  0  0  0  0
  -21.0855   -8.8778   19.8943 H   0  0  0  0  0  0
  -22.3721  -10.9679   19.6173 H   0  0  0  0  0  0
  -21.1994   -7.6157   23.9724 H   0  0  0  0  0  0
  -21.1480   -6.0524   25.9080 H   0  0  0  0  0  0
  -22.0597   -2.7613   23.2830 H   0  0  0  0  0  0
  -22.4073  -11.9850   22.4814 H   0  0  0  0  0  0
  -21.1081  -13.1233   22.2647 H   0  0  0  0  0  0
  -24.6319  -15.8331   20.5085 H   0  0  0  0  0  0
  -26.2414  -15.6380   20.0421 H   0  0  0  0  0  0
  -26.7265  -32.5314   23.0991 H   0  0  0  0  0  0
  -25.0110  -33.9617   25.0350 H   0  0  0  0  0  0
  -22.7542  -31.2858   21.3686 H   0  0  0  0  0  0
  -23.3763  -35.9545   23.3262 H   0  0  0  0  0  0
  -24.3576  -36.8899   22.2065 H   0  0  0  0  0  0
  -23.7175  -37.6411   23.6686 H   0  0  0  0  0  0
  -26.1505  -31.4682   20.6002 H   0  0  0  0  0  0
  -26.8767  -30.7819   22.0167 H   0  0  0  0  0  0
  -28.1493  -28.8286   21.2127 H   0  0  0  0  0  0
  -25.9643  -25.8093   19.0531 H   0  0  0  0  0  0
  -23.9902  -27.2617   19.0141 H   0  0  0  0  0  0
  -23.8201  -30.5481   19.3926 H   0  0  0  0  0  0
  -22.7949  -29.2195   19.8403 H   0  0  0  0  0  0
  -25.1281  -36.1845   25.0809 H   0  0  0  0  0  0
  -21.0026  -28.3317   24.1354 H   0  0  0  0  0  0
  -20.5683  -26.2346   23.3632 H   0  0  0  0  0  0
  -21.6646  -26.7432   22.1195 H   0  0  0  0  0  0
  -19.6909  -25.6293   21.1265 H   0  0  0  0  0  0
  -19.6694  -27.3196   20.6753 H   0  0  0  0  0  0
  -17.4206  -26.6715   21.4030 H   0  0  0  0  0  0
  -18.0323  -26.0112   22.9034 H   0  0  0  0  0  0
  -19.7963  -30.7314   24.2232 H   0  0  0  0  0  0
  -17.5044  -31.6293   24.5176 H   0  0  0  0  0  0
  -15.5372  -30.3022   23.7688 H   0  0  0  0  0  0
  -15.8679  -28.0850   22.7093 H   0  0  0  0  0  0
  -24.5884  -30.7140   25.7749 H   0  0  0  0  0  0
  -24.8930  -32.2992   26.4763 H   0  0  0  0  0  0
  -25.8012  -30.9008   27.0225 H   0  0  0  0  0  0
  -26.2968  -29.6712   24.1252 H   0  0  0  0  0  0
  -27.3990  -29.7238   25.4800 H   0  0  0  0  0  0
  -27.8871  -30.4214   23.9552 H   0  0  0  0  0  0
  -27.2670  -33.3680   26.1950 H   0  0  0  0  0  0
  -28.3942  -32.6784   25.0357 H   0  0  0  0  0  0
  -28.0639  -31.8508   26.5492 H   0  0  0  0  0  0
  -28.2523  -38.0123   24.7605 H   0  0  0  0  0  0
  -28.1134  -36.2659   24.6136 H   0  0  0  0  0  0
  -27.2325  -37.1222   25.8861 H   0  0  0  0  0  0
  -20.9456  -29.8794   21.6807 H   0  0  0  0  0  0
  -26.0115  -38.2801   24.1538 H   0  0  0  0  0  0
  -27.7218  -20.2134   19.1123 H   0  0  0  0  0  0
  -27.9881  -17.7896   19.0812 H   0  0  0  0  0  0
  -31.2131  -18.0768   21.8688 H   0  0  0  0  0  0
  -30.0074  -24.7186   21.6665 H   0  0  0  0  0  0
  -28.6096  -24.8656   22.7098 H   0  0  0  0  0  0
  -28.1298  -22.4798   22.5275 H   0  0  0  0  0  0
  -29.8805  -22.5229   22.6087 H   0  0  0  0  0  0
  -29.4176  -23.5506   19.0851 H   0  0  0  0  0  0
  -27.7661  -22.9887   19.1010 H   0  0  0  0  0  0
  -27.1078  -24.5597   20.8502 H   0  0  0  0  0  0
  -28.6880  -15.7050   20.5335 H   0  0  0  0  0  0
  1 25  1  0  0  0
  1 30  2  0  0  0
  1 82  1  0  0  0
  2  3  1  0  0  0
  2 25  1  0  0  0
  2 84  1  0  0  0
  2 85  1  0  0  0
  3  4  1  0  0  0
  3 86  1  0  0  0
  3 87  1  0  0  0
  4  5  1  0  0  0
  4 88  1  0  0  0
  4 89  1  0  0  0
  5  6  1  0  0  0
  5 26  1  0  0  0
  5 90  1  0  0  0
  6 25  1  0  0  0
  6 91  1  0  0  0
  6 92  1  0  0  0
  7  8  2  0  0  0
  7 26  1  0  0  0
  7 29  1  0  0  0
  8  9  1  0  0  0
  8 22  1  0  0  0
  9 10  1  0  0  0
  9 27  2  0  0  0
 10 11  2  0  0  0
 10 15  1  0  0  0
 11 12  1  0  0  0
 11 93  1  0  0  0
 12 13  2  0  0  0
 12 94  1  0  0  0
 13 14  1  0  0  0
 13 31  1  0  0  0
 14 15  2  0  0  0
 14 95  1  0  0  0
 15 96  1  0  0  0
 16 17  2  0  0  0
 16 21  1  0  0  0
 16 31  1  0  0  0
 17 18  1  0  0  0
 17 97  1  0  0  0
 18 19  2  0  0  0
 18 98  1  0  0  0
 19 20  1  0  0  0
 19 24  1  0  0  0
 20 21  2  0  0  0
 20 99  1  0  0  0
 21 23  1  0  0  0
 22 28  1  0  0  0
 22 32  2  0  0  0
 26 27  1  0  0  0
 28100  1  0  0  0
 28101  1  0  0  0
 29102  1  0  0  0
 29103  1  0  0  0
 33 34  1  0  0  0
 33 66  1  0  0  0
 33 70  2  0  0  0
 34 36  1  0  0  0
 34 59  1  0  0  0
 34104  1  0  0  0
 35 44  2  0  0  0
 35 45  1  0  0  0
 35 68  1  0  0  0
 36 56  1  0  0  0
 36105  1  0  0  0
 37 39  1  0  0  0
 37 47  1  0  0  0
 37 66  1  0  0  0
 37106  1  0  0  0
 38 43  2  0  0  0
 38 46  1  0  0  0
 38 47  1  0  0  0
 39 64  1  0  0  0
 39 67  2  0  0  0
 40 52  1  0  0  0
 40 53  2  0  0  0
 40 58  1  0  0  0
 41107  1  0  0  0
 41108  1  0  0  0
 41109  1  0  0  0
 41 48  1  0  0  0
 42 43  1  0  0  0
 42 66  1  0  0  0
 42110  1  0  0  0
 42111  1  0  0  0
 43 44  1  0  0  0
 44112  1  0  0  0
 45 46  2  0  0  0
 45113  1  0  0  0
 46114  1  0  0  0
 47115  1  0  0  0
 47116  1  0  0  0
 48 56  1  0  0  0
 48 65  1  0  0  0
 48117  1  0  0  0
 49 50  1  0  0  0
 49 53  1  0  0  0
 49 64  1  0  0  0
 49118  1  0  0  0
 50 51  1  0  0  0
 50119  1  0  0  0
 50120  1  0  0  0
 51 52  1  0  0  0
 51121  1  0  0  0
 51122  1  0  0  0
 52123  1  0  0  0
 52124  1  0  0  0
 53 54  1  0  0  0
 54 55  2  0  0  0
 54125  1  0  0  0
 55 57  1  0  0  0
 55126  1  0  0  0
 56 69  2  0  0  0
 57 58  2  0  0  0
 57127  1  0  0  0
 58128  1  0  0  0
 59 60  1  0  0  0
 59 61  1  0  0  0
 59 62  1  0  0  0
 60129  1  0  0  0
 60130  1  0  0  0
 60131  1  0  0  0
 61132  1  0  0  0
 61133  1  0  0  0
 61134  1  0  0  0
 62135  1  0  0  0
 62136  1  0  0  0
 62137  1  0  0  0
 63 65  1  0  0  0
 63138  1  0  0  0
 63139  1  0  0  0
 63140  1  0  0  0
 64141  1  0  0  0
 65142  1  0  0  0
 68 80  1  0  0  0
 71 72  2  0  0  0
 71 74  1  0  0  0
 71143  1  0  0  0
 72 75  1  0  0  0
 72144  1  0  0  0
 73 75  2  0  0  0
 73 76  1  0  0  0
 73145  1  0  0  0
 74 76  2  0  0  0
 74 81  1  0  0  0
 75 82  1  0  0  0
 76 83  1  0  0  0
 77 78  1  0  0  0
 77 80  1  0  0  0
 77146  1  0  0  0
 77147  1  0  0  0
 78 81  1  0  0  0
 78148  1  0  0  0
 78149  1  0  0  0
 79 80  1  0  0  0
 79 81  1  0  0  0
 79150  1  0  0  0
 79151  1  0  0  0
 80152  1  0  0  0
 82153  1  0  0  0
M  ISO  4   1 100  68 101  80 101  82 100
M  END
> <chiral flag>
0

> <version>
0

> <s_m_source_file>
/data/baiqing/PycharmProjects/Reinvent-master-3.2/result/LINK_invent/BTK/process_docking_weight1_custom_product_contain_oxygen_bond_distance_aromatic_linkinvent_7_9_3/rearranged_h_0014.sdf

> <i_m_source_file_index>
74

> <r_mmod_Potential_Energy-OPLS-2005>
592.114562988281

> <r_mmod_Stretch_Energy-OPLS-2005>
218.330841064453

> <r_mmod_Bend_Energy-OPLS-2005>
308.939666748047

> <r_mmod_Torsional_Energy-OPLS-2005>
300.988464355469

> <r_mmod_Improper_Torsional_Energy-OPLS-2005>
7.21998405456543

> <r_mmod_Van_der_Waal_Energy-OPLS-2005>
124.425346374512

> <r_mmod_Electrostatic_Energy-OPLS-2005>
-326.940246582031

> <r_mmod_Solvation_Energy-OPLS-2005>
-227.665924072266

> <b_mmod_Minimization_Converged-OPLS-2005>
0

> <r_mmod_RMS_Derivative-OPLS-2005>
1.55988013744354

$$$$
76
                    3D
 Structure written by MMmdl.
155163  0  0  1  0            999 V2000
  -30.6441  -14.6747   20.4704 C   0  0  0  0  0  0
  -30.4313  -12.4032   19.4697 C   0  0  0  0  0  0
  -29.5127  -12.4700   18.2316 C   0  0  0  0  0  0
  -28.0378  -12.3076   18.6515 C   0  0  0  0  0  0
  -27.6505  -13.2175   19.8484 C   0  0  2  0  0  0
  -28.6952  -13.1516   20.9873 C   0  0  0  0  0  0
  -25.2591  -13.8195   20.5613 C   0  0  0  0  0  0
  -24.1886  -13.0477   20.9113 C   0  0  0  0  0  0
  -24.6436  -11.6927   20.8730 C   0  0  0  0  0  0
  -23.9116  -10.4316   21.0390 C   0  0  0  0  0  0
  -24.3644   -9.4229   21.9178 C   0  0  0  0  0  0
  -23.6297   -8.2285   22.0778 C   0  0  0  0  0  0
  -22.4288   -8.0314   21.3565 C   0  0  0  0  0  0
  -21.9921   -9.0285   20.4680 C   0  0  0  0  0  0
  -22.7275  -10.2158   20.3055 C   0  0  0  0  0  0
  -21.6842   -6.0743   22.5267 C   0  0  0  0  0  0
  -21.4014   -6.5641   23.8201 C   0  0  0  0  0  0
  -21.3650   -5.6780   24.9169 C   0  0  0  0  0  0
  -21.6039   -4.3046   24.7199 C   0  0  0  0  0  0
  -21.8828   -3.8147   23.4300 C   0  0  0  0  0  0
  -21.9190   -4.6977   22.3375 C   0  0  0  0  0  0
  -22.7910  -13.5279   21.1748 C   0  0  0  0  0  0
  -22.1658   -4.2183   21.0946 F   0  0  0  0  0  0
  -21.5627   -3.4502   25.7680 F   0  0  0  0  0  0
  -29.9965  -13.4674   20.3980 N   0  0  0  0  0  0
  -26.3026  -12.9367   20.3284 N   0  0  0  0  0  0
  -25.9388  -11.6516   20.5840 N   0  0  0  0  0  0
  -22.0548  -12.8332   22.0337 N   0  0  0  0  0  0
  -25.4286  -15.1927   20.4020 N   0  0  0  0  0  0
  -31.8506  -14.7422   20.2155 O   0  0  0  0  0  0
  -21.6642   -6.8903   21.4231 O   0  0  0  0  0  0
  -22.3616  -14.5579   20.6576 O   0  0  0  0  0  0
  -24.6251  -31.8600   23.2006 C   0  0  0  0  0  0
  -25.9128  -32.4767   23.8322 C   0  0  1  0  0  0
  -27.2240  -27.3182   20.1261 C   0  0  0  0  0  0
  -25.5969  -33.8568   24.2270 N   0  0  0  0  0  0
  -23.4169  -30.4860   21.5405 C   0  0  2  0  0  0
  -24.8613  -28.9313   20.1113 C   0  0  0  0  0  0
  -22.7450  -29.4654   22.4888 C   0  0  0  0  0  0
  -18.0281  -28.1417   22.8456 C   0  0  0  0  0  0
  -24.1479  -36.7281   23.2635 C   0  0  0  0  0  0
  -25.9551  -30.7933   21.3665 C   0  0  0  0  0  0
  -26.0262  -29.4171   20.7143 C   0  0  0  0  0  0
  -27.2050  -28.6199   20.7110 C   0  0  0  0  0  0
  -26.0367  -26.8757   19.5003 C   0  0  0  0  0  0
  -24.8703  -27.6677   19.4982 C   0  0  0  0  0  0
  -23.6307  -29.8148   20.1568 C   0  0  0  0  0  0
  -25.4111  -36.3064   24.0319 C   0  0  1  0  0  0
  -20.5892  -28.3712   23.1262 C   0  0  2  0  0  0
  -20.6788  -26.9455   22.5379 C   0  0  0  0  0  0
  -19.5752  -26.6431   21.5177 C   0  0  0  0  0  0
  -18.1932  -26.7981   22.1595 C   0  0  0  0  0  0
  -19.1533  -28.8864   23.2894 C   0  0  0  0  0  0
  -18.9468  -30.1462   23.8938 C   0  0  0  0  0  0
  -17.6473  -30.6609   24.0612 C   0  0  0  0  0  0
  -25.9062  -34.9442   23.5093 C   0  0  0  0  0  0
  -16.5359  -29.9121   23.6350 C   0  0  0  0  0  0
  -16.7270  -28.6555   23.0320 C   0  0  0  0  0  0
  -26.4545  -31.6582   25.0685 C   0  0  0  0  0  0
  -25.3789  -31.3721   26.1409 C   0  0  0  0  0  0
  -27.0388  -30.3014   24.6125 C   0  0  0  0  0  0
  -27.6119  -32.4298   25.7472 C   0  0  0  0  0  0
  -27.5577  -37.1802   24.8479 C   0  0  0  0  0  0
  -21.4161  -29.3075   22.3645 N   0  0  0  0  0  0
  -26.4294  -37.3774   23.9414 N   0  0  0  0  0  0
  -24.6850  -31.0631   22.0939 N   0  0  0  0  0  0
  -23.4179  -28.8205   23.2968 O   0  0  0  0  0  0
  -28.3727  -26.5254   20.2193 O   0  0  0  0  0  0
  -26.5599  -34.8912   22.4632 O   0  0  0  0  0  0
  -23.5436  -32.1375   23.7374 O   0  0  0  0  0  0
  -28.2470  -19.1589   21.3831 C   0  0  0  0  0  0
  -30.4661  -19.1568   20.4687 C   0  0  0  0  0  0
  -28.1396  -20.5770   21.1686 C   0  0  0  0  0  0
  -30.3558  -20.5587   20.2356 C   0  0  0  0  0  0
  -29.4050  -18.3996   21.0263 C   0  0  0  0  0  0
  -29.1993  -21.3180   20.5657 C   0  0  0  0  0  0
  -29.9387  -16.3874   18.9423 C   0  0  0  0  0  0
  -29.5358  -16.8445   21.3463 C   0  0  0  0  0  0
  -28.3540  -23.8695   20.6693 C   0  0  0  0  0  0
  -28.4765  -25.1441   19.7110 C   0  0  0  0  0  0
  -29.2247  -22.7224   20.2459 N   0  0  0  0  0  0
  -29.8656  -15.8094   20.2869 N   0  0  0  0  0  0
  -31.4746  -12.5113   19.1728 H   0  0  0  0  0  0
  -30.3608  -11.4224   19.9447 H   0  0  0  0  0  0
  -29.7927  -11.6871   17.5233 H   0  0  0  0  0  0
  -29.6604  -13.4178   17.7124 H   0  0  0  0  0  0
  -27.8963  -11.2637   18.9326 H   0  0  0  0  0  0
  -27.3734  -12.4720   17.8034 H   0  0  0  0  0  0
  -27.6469  -14.2364   19.4610 H   0  0  0  0  0  0
  -28.7214  -12.1646   21.4490 H   0  0  0  0  0  0
  -28.4537  -13.8673   21.7739 H   0  0  0  0  0  0
  -25.2808   -9.5706   22.4737 H   0  0  0  0  0  0
  -23.9958   -7.4669   22.7514 H   0  0  0  0  0  0
  -21.0846   -8.8865   19.9002 H   0  0  0  0  0  0
  -22.3747  -10.9678   19.6165 H   0  0  0  0  0  0
  -21.2021   -7.6144   23.9729 H   0  0  0  0  0  0
  -21.1439   -6.0505   25.9072 H   0  0  0  0  0  0
  -22.0608   -2.7595   23.2793 H   0  0  0  0  0  0
  -22.4095  -11.9992   22.4768 H   0  0  0  0  0  0
  -21.1190  -13.1418   22.2510 H   0  0  0  0  0  0
  -24.6558  -15.8366   20.5409 H   0  0  0  0  0  0
  -26.2985  -15.6524   20.1723 H   0  0  0  0  0  0
  -26.7183  -32.5455   23.1065 H   0  0  0  0  0  0
  -25.0141  -33.9697   25.0429 H   0  0  0  0  0  0
  -22.7113  -31.3079   21.3986 H   0  0  0  0  0  0
  -23.3746  -35.9618   23.3305 H   0  0  0  0  0  0
  -24.3560  -36.8890   22.2053 H   0  0  0  0  0  0
  -23.7238  -37.6493   23.6640 H   0  0  0  0  0  0
  -26.0728  -31.5519   20.5909 H   0  0  0  0  0  0
  -26.8430  -30.8498   21.9856 H   0  0  0  0  0  0
  -28.1039  -28.9826   21.1913 H   0  0  0  0  0  0
  -25.9766  -25.9049   19.0307 H   0  0  0  0  0  0
  -23.9718  -27.2868   19.0315 H   0  0  0  0  0  0
  -23.7580  -30.5928   19.4013 H   0  0  0  0  0  0
  -22.7479  -29.2522   19.8450 H   0  0  0  0  0  0
  -25.1292  -36.1917   25.0821 H   0  0  0  0  0  0
  -21.0043  -28.3292   24.1339 H   0  0  0  0  0  0
  -20.5692  -26.2335   23.3576 H   0  0  0  0  0  0
  -21.6660  -26.7514   22.1166 H   0  0  0  0  0  0
  -19.6915  -25.6337   21.1209 H   0  0  0  0  0  0
  -19.6700  -27.3220   20.6679 H   0  0  0  0  0  0
  -17.4216  -26.6744   21.3994 H   0  0  0  0  0  0
  -18.0363  -26.0147   22.9006 H   0  0  0  0  0  0
  -19.7966  -30.7267   24.2296 H   0  0  0  0  0  0
  -17.5041  -31.6268   24.5248 H   0  0  0  0  0  0
  -15.5360  -30.3018   23.7710 H   0  0  0  0  0  0
  -15.8654  -28.0915   22.6974 H   0  0  0  0  0  0
  -24.5975  -30.7066   25.7741 H   0  0  0  0  0  0
  -24.8980  -32.2886   26.4840 H   0  0  0  0  0  0
  -25.8120  -30.8905   27.0183 H   0  0  0  0  0  0
  -26.2944  -29.6750   24.1203 H   0  0  0  0  0  0
  -27.4164  -29.7295   25.4623 H   0  0  0  0  0  0
  -27.8772  -30.4316   23.9268 H   0  0  0  0  0  0
  -27.2750  -33.3594   26.2071 H   0  0  0  0  0  0
  -28.3937  -32.6861   25.0306 H   0  0  0  0  0  0
  -28.0764  -31.8392   26.5381 H   0  0  0  0  0  0
  -28.2618  -38.0075   24.7495 H   0  0  0  0  0  0
  -28.1033  -36.2611   24.6327 H   0  0  0  0  0  0
  -27.2275  -37.1480   25.8876 H   0  0  0  0  0  0
  -20.9366  -29.8811   21.6846 H   0  0  0  0  0  0
  -26.0158  -38.2846   24.1440 H   0  0  0  0  0  0
  -27.4127  -18.6558   21.8563 H   0  0  0  0  0  0
  -31.3975  -18.6615   20.2216 H   0  0  0  0  0  0
  -27.2254  -21.0742   21.4825 H   0  0  0  0  0  0
  -31.2040  -21.0641   19.7945 H   0  0  0  0  0  0
  -29.9051  -15.6324   18.1540 H   0  0  0  0  0  0
  -30.8771  -16.9266   18.8194 H   0  0  0  0  0  0
  -29.1122  -17.0734   18.7571 H   0  0  0  0  0  0
  -28.5981  -16.5213   21.8039 H   0  0  0  0  0  0
  -30.2792  -16.7636   22.1409 H   0  0  0  0  0  0
  -27.3105  -23.5585   20.7421 H   0  0  0  0  0  0
  -28.6574  -24.1725   21.6744 H   0  0  0  0  0  0
  -27.8750  -24.9861   18.8188 H   0  0  0  0  0  0
  -29.4964  -25.1209   19.3262 H   0  0  0  0  0  0
  -30.0894  -23.0413   19.8077 H   0  0  0  0  0  0
  1 25  1  0  0  0
  1 30  2  0  0  0
  1 82  1  0  0  0
  2  3  1  0  0  0
  2 25  1  0  0  0
  2 83  1  0  0  0
  2 84  1  0  0  0
  3  4  1  0  0  0
  3 85  1  0  0  0
  3 86  1  0  0  0
  4  5  1  0  0  0
  4 87  1  0  0  0
  4 88  1  0  0  0
  5  6  1  0  0  0
  5 26  1  0  0  0
  5 89  1  0  0  0
  6 25  1  0  0  0
  6 90  1  0  0  0
  6 91  1  0  0  0
  7  8  2  0  0  0
  7 26  1  0  0  0
  7 29  1  0  0  0
  8  9  1  0  0  0
  8 22  1  0  0  0
  9 10  1  0  0  0
  9 27  2  0  0  0
 10 11  2  0  0  0
 10 15  1  0  0  0
 11 12  1  0  0  0
 11 92  1  0  0  0
 12 13  2  0  0  0
 12 93  1  0  0  0
 13 14  1  0  0  0
 13 31  1  0  0  0
 14 15  2  0  0  0
 14 94  1  0  0  0
 15 95  1  0  0  0
 16 17  2  0  0  0
 16 21  1  0  0  0
 16 31  1  0  0  0
 17 18  1  0  0  0
 17 96  1  0  0  0
 18 19  2  0  0  0
 18 97  1  0  0  0
 19 20  1  0  0  0
 19 24  1  0  0  0
 20 21  2  0  0  0
 20 98  1  0  0  0
 21 23  1  0  0  0
 22 28  1  0  0  0
 22 32  2  0  0  0
 26 27  1  0  0  0
 28 99  1  0  0  0
 28100  1  0  0  0
 29101  1  0  0  0
 29102  1  0  0  0
 33 34  1  0  0  0
 33 66  1  0  0  0
 33 70  2  0  0  0
 34 36  1  0  0  0
 34 59  1  0  0  0
 34103  1  0  0  0
 35 44  2  0  0  0
 35 45  1  0  0  0
 35 68  1  0  0  0
 36 56  1  0  0  0
 36104  1  0  0  0
 37 39  1  0  0  0
 37 47  1  0  0  0
 37 66  1  0  0  0
 37105  1  0  0  0
 38 43  2  0  0  0
 38 46  1  0  0  0
 38 47  1  0  0  0
 39 64  1  0  0  0
 39 67  2  0  0  0
 40 52  1  0  0  0
 40 53  2  0  0  0
 40 58  1  0  0  0
 41106  1  0  0  0
 41107  1  0  0  0
 41108  1  0  0  0
 41 48  1  0  0  0
 42 43  1  0  0  0
 42 66  1  0  0  0
 42109  1  0  0  0
 42110  1  0  0  0
 43 44  1  0  0  0
 44111  1  0  0  0
 45 46  2  0  0  0
 45112  1  0  0  0
 46113  1  0  0  0
 47114  1  0  0  0
 47115  1  0  0  0
 48 56  1  0  0  0
 48 65  1  0  0  0
 48116  1  0  0  0
 49 50  1  0  0  0
 49 53  1  0  0  0
 49 64  1  0  0  0
 49117  1  0  0  0
 50 51  1  0  0  0
 50118  1  0  0  0
 50119  1  0  0  0
 51 52  1  0  0  0
 51120  1  0  0  0
 51121  1  0  0  0
 52122  1  0  0  0
 52123  1  0  0  0
 53 54  1  0  0  0
 54 55  2  0  0  0
 54124  1  0  0  0
 55 57  1  0  0  0
 55125  1  0  0  0
 56 69  2  0  0  0
 57 58  2  0  0  0
 57126  1  0  0  0
 58127  1  0  0  0
 59 60  1  0  0  0
 59 61  1  0  0  0
 59 62  1  0  0  0
 60128  1  0  0  0
 60129  1  0  0  0
 60130  1  0  0  0
 61131  1  0  0  0
 61132  1  0  0  0
 61133  1  0  0  0
 62134  1  0  0  0
 62135  1  0  0  0
 62136  1  0  0  0
 63 65  1  0  0  0
 63137  1  0  0  0
 63138  1  0  0  0
 63139  1  0  0  0
 64140  1  0  0  0
 65141  1  0  0  0
 68 80  1  0  0  0
 71 73  2  0  0  0
 71 75  1  0  0  0
 71142  1  0  0  0
 72 74  1  0  0  0
 72 75  2  0  0  0
 72143  1  0  0  0
 73 76  1  0  0  0
 73144  1  0  0  0
 74 76  2  0  0  0
 74145  1  0  0  0
 75 78  1  0  0  0
 76 81  1  0  0  0
 77 82  1  0  0  0
 77146  1  0  0  0
 77147  1  0  0  0
 77148  1  0  0  0
 78 82  1  0  0  0
 78149  1  0  0  0
 78150  1  0  0  0
 79 80  1  0  0  0
 79 81  1  0  0  0
 79151  1  0  0  0
 79152  1  0  0  0
 80153  1  0  0  0
 80154  1  0  0  0
 81155  1  0  0  0
M  ISO  4   1 100  68 101  80 101  82 100
M  END
> <chiral flag>
0

> <version>
0

> <s_m_source_file>
/data/baiqing/PycharmProjects/Reinvent-master-3.2/result/LINK_invent/BTK/process_docking_weight1_custom_product_contain_oxygen_bond_distance_aromatic_linkinvent_7_9_3/rearranged_h_0014.sdf

> <i_m_source_file_index>
75

> <r_mmod_Potential_Energy-OPLS-2005>
237.70915222168

> <r_mmod_Stretch_Energy-OPLS-2005>
87.9696731567383

> <r_mmod_Bend_Energy-OPLS-2005>
183.502593994141

> <r_mmod_Torsional_Energy-OPLS-2005>
271.560668945312

> <r_mmod_Improper_Torsional_Energy-OPLS-2005>
20.6355228424072

> <r_mmod_Van_der_Waal_Energy-OPLS-2005>
138.258041381836

> <r_mmod_Electrostatic_Energy-OPLS-2005>
-316.160308837891

> <r_mmod_Solvation_Energy-OPLS-2005>
-206.954437255859

> <b_mmod_Minimization_Converged-OPLS-2005>
0

> <r_mmod_RMS_Derivative-OPLS-2005>
6.12823820114136

$$$$
77
                    3D
 Structure written by MMmdl.
157165  0  0  1  0            999 V2000
  -30.7213  -14.5110   20.5779 C   0  0  0  0  0  0
  -30.4172  -12.3398   19.4246 C   0  0  0  0  0  0
  -29.4887  -12.5011   18.2052 C   0  0  0  0  0  0
  -28.0147  -12.3379   18.6232 C   0  0  0  0  0  0
  -27.6496  -13.1980   19.8603 C   0  0  2  0  0  0
  -28.6972  -13.0337   20.9865 C   0  0  0  0  0  0
  -25.2554  -13.8129   20.5672 C   0  0  0  0  0  0
  -24.1820  -13.0419   20.9210 C   0  0  0  0  0  0
  -24.6366  -11.6888   20.8761 C   0  0  0  0  0  0
  -23.9033  -10.4285   21.0423 C   0  0  0  0  0  0
  -24.3600   -9.4205   21.9194 C   0  0  0  0  0  0
  -23.6288   -8.2234   22.0756 C   0  0  0  0  0  0
  -22.4271   -8.0270   21.3544 C   0  0  0  0  0  0
  -21.9896   -9.0240   20.4648 C   0  0  0  0  0  0
  -22.7212  -10.2126   20.3066 C   0  0  0  0  0  0
  -21.6851   -6.0729   22.5281 C   0  0  0  0  0  0
  -21.4010   -6.5634   23.8213 C   0  0  0  0  0  0
  -21.3658   -5.6788   24.9173 C   0  0  0  0  0  0
  -21.6046   -4.3050   24.7223 C   0  0  0  0  0  0
  -21.8822   -3.8142   23.4344 C   0  0  0  0  0  0
  -21.9193   -4.6960   22.3403 C   0  0  0  0  0  0
  -22.7849  -13.5235   21.1859 C   0  0  0  0  0  0
  -22.1668   -4.2146   21.0980 F   0  0  0  0  0  0
  -21.5628   -3.4536   25.7737 F   0  0  0  0  0  0
  -30.0204  -13.3479   20.4250 N   0  0  0  0  0  0
  -26.2960  -12.9273   20.3311 N   0  0  0  0  0  0
  -25.9281  -11.6449   20.5770 N   0  0  0  0  0  0
  -22.0474  -12.8246   22.0413 N   0  0  0  0  0  0
  -25.4225  -15.1851   20.4033 N   0  0  0  0  0  0
  -31.8626  -14.6420   20.1243 O   0  0  0  0  0  0
  -21.6637   -6.8871   21.4242 O   0  0  0  0  0  0
  -22.3554  -14.5539   20.6688 O   0  0  0  0  0  0
  -24.6156  -31.8666   23.2073 C   0  0  0  0  0  0
  -25.9038  -32.4821   23.8379 C   0  0  1  0  0  0
  -27.2346  -27.4173   20.1100 C   0  0  0  0  0  0
  -25.5890  -33.8618   24.2312 N   0  0  0  0  0  0
  -23.4045  -30.4886   21.5477 C   0  0  2  0  0  0
  -24.8513  -28.9471   20.1167 C   0  0  0  0  0  0
  -22.7414  -29.4653   22.4978 C   0  0  0  0  0  0
  -18.0273  -28.1381   22.8493 C   0  0  0  0  0  0
  -24.1484  -36.7311   23.2637 C   0  0  0  0  0  0
  -25.9334  -30.8303   21.3589 C   0  0  0  0  0  0
  -26.0119  -29.4618   20.7083 C   0  0  0  0  0  0
  -27.2081  -28.7070   20.6930 C   0  0  0  0  0  0
  -26.0563  -26.9154   19.5177 C   0  0  0  0  0  0
  -24.8692  -27.6751   19.5162 C   0  0  0  0  0  0
  -23.6142  -29.8167   20.1634 C   0  0  0  0  0  0
  -25.4107  -36.3114   24.0338 C   0  0  1  0  0  0
  -20.5865  -28.3667   23.1318 C   0  0  2  0  0  0
  -20.6767  -26.9402   22.5422 C   0  0  0  0  0  0
  -19.5749  -26.6387   21.5215 C   0  0  0  0  0  0
  -18.1924  -26.7931   22.1621 C   0  0  0  0  0  0
  -19.1523  -28.8839   23.2906 C   0  0  0  0  0  0
  -18.9453  -30.1443   23.8921 C   0  0  0  0  0  0
  -17.6457  -30.6591   24.0566 C   0  0  0  0  0  0
  -25.9033  -34.9477   23.5125 C   0  0  0  0  0  0
  -16.5346  -29.9100   23.6320 C   0  0  0  0  0  0
  -16.7263  -28.6512   23.0352 C   0  0  0  0  0  0
  -26.4466  -31.6607   25.0712 C   0  0  0  0  0  0
  -25.3731  -31.3736   26.1466 C   0  0  0  0  0  0
  -27.0281  -30.3047   24.6087 C   0  0  0  0  0  0
  -27.6050  -32.4322   25.7468 C   0  0  0  0  0  0
  -27.5584  -37.1806   24.8463 C   0  0  0  0  0  0
  -21.4138  -29.3032   22.3723 N   0  0  0  0  0  0
  -26.4294  -37.3799   23.9413 N   0  0  0  0  0  0
  -24.6696  -31.0760   22.0971 N   0  0  0  0  0  0
  -23.4182  -28.8198   23.3024 O   0  0  0  0  0  0
  -28.4086  -26.6911   20.0949 O   0  0  0  0  0  0
  -26.5599  -34.8933   22.4690 O   0  0  0  0  0  0
  -23.5345  -32.1411   23.7468 O   0  0  0  0  0  0
  -27.8842  -18.4752   21.4238 C   0  0  0  0  0  0
  -29.7480  -20.0547   20.0520 C   0  0  0  0  0  0
  -28.9641  -17.8328   20.7776 C   0  0  0  0  0  0
  -28.6296  -20.6942   20.6525 C   0  0  0  0  0  0
  -27.7188  -19.8769   21.3606 C   0  0  0  0  0  0
  -29.9059  -18.6460   20.1035 C   0  0  0  0  0  0
  -30.9425  -16.2409   22.2732 C   0  0  0  0  0  0
  -28.9980  -16.2881   20.7091 C   0  0  0  0  0  0
  -28.5033  -24.2797   19.4143 C   0  0  0  0  0  0
  -28.3700  -25.3218   20.5542 C   0  0  0  0  0  0
  -29.1653  -22.9142   19.7727 C   0  0  0  0  0  0
  -30.1400  -15.5273   21.2763 N   0  0  0  0  0  0
  -28.3475  -22.0585   20.5821 O   0  0  0  0  0  0
  -26.6470  -20.4419   21.9661 F   0  0  0  0  0  0
  -30.9515  -18.0719   19.4635 F   0  0  0  0  0  0
  -31.4605  -12.4343   19.1184 H   0  0  0  0  0  0
  -30.3248  -11.3379   19.8466 H   0  0  0  0  0  0
  -29.7436  -11.7677   17.4386 H   0  0  0  0  0  0
  -29.6383  -13.4825   17.7519 H   0  0  0  0  0  0
  -27.8484  -11.2834   18.8457 H   0  0  0  0  0  0
  -27.3560  -12.5788   17.7878 H   0  0  0  0  0  0
  -27.6630  -14.2274   19.5144 H   0  0  0  0  0  0
  -28.6936  -12.0097   21.3631 H   0  0  0  0  0  0
  -28.4514  -13.6596   21.8449 H   0  0  0  0  0  0
  -25.2743   -9.5691   22.4768 H   0  0  0  0  0  0
  -24.0004   -7.4626   22.7471 H   0  0  0  0  0  0
  -21.0824   -8.8750   19.8959 H   0  0  0  0  0  0
  -22.3662  -10.9665   19.6182 H   0  0  0  0  0  0
  -21.2001   -7.6144   23.9717 H   0  0  0  0  0  0
  -21.1480   -6.0515   25.9077 H   0  0  0  0  0  0
  -22.0604   -2.7605   23.2839 H   0  0  0  0  0  0
  -22.4073  -11.9913   22.4826 H   0  0  0  0  0  0
  -21.1093  -13.1295   22.2599 H   0  0  0  0  0  0
  -24.6406  -15.8245   20.4940 H   0  0  0  0  0  0
  -26.2461  -15.6220   20.0128 H   0  0  0  0  0  0
  -26.7105  -32.5539   23.1144 H   0  0  0  0  0  0
  -25.0058  -33.9777   25.0471 H   0  0  0  0  0  0
  -22.6938  -31.3058   21.4064 H   0  0  0  0  0  0
  -23.3752  -35.9638   23.3309 H   0  0  0  0  0  0
  -24.3581  -36.8915   22.2048 H   0  0  0  0  0  0
  -23.7223  -37.6516   23.6643 H   0  0  0  0  0  0
  -26.0425  -31.5953   20.5885 H   0  0  0  0  0  0
  -26.8223  -30.8872   21.9760 H   0  0  0  0  0  0
  -28.1084  -29.1043   21.1413 H   0  0  0  0  0  0
  -26.0535  -25.9427   19.0481 H   0  0  0  0  0  0
  -23.9768  -27.2743   19.0549 H   0  0  0  0  0  0
  -23.7245  -30.5897   19.4016 H   0  0  0  0  0  0
  -22.7384  -29.2364   19.8680 H   0  0  0  0  0  0
  -25.1287  -36.1979   25.0832 H   0  0  0  0  0  0
  -20.9957  -28.3231   24.1438 H   0  0  0  0  0  0
  -20.5667  -26.2275   23.3610 H   0  0  0  0  0  0
  -21.6642  -26.7450   22.1217 H   0  0  0  0  0  0
  -19.6913  -25.6301   21.1240 H   0  0  0  0  0  0
  -19.6696  -27.3203   20.6749 H   0  0  0  0  0  0
  -17.4201  -26.6680   21.4016 H   0  0  0  0  0  0
  -18.0320  -26.0068   22.9011 H   0  0  0  0  0  0
  -19.7931  -30.7247   24.2307 H   0  0  0  0  0  0
  -17.5018  -31.6275   24.5164 H   0  0  0  0  0  0
  -15.5349  -30.3017   23.7629 H   0  0  0  0  0  0
  -15.8660  -28.0838   22.7064 H   0  0  0  0  0  0
  -24.5897  -30.7086   25.7819 H   0  0  0  0  0  0
  -24.8928  -32.2900   26.4903 H   0  0  0  0  0  0
  -25.8078  -30.8921   27.0231 H   0  0  0  0  0  0
  -26.2816  -29.6827   24.1131 H   0  0  0  0  0  0
  -27.4038  -29.7271   25.4543 H   0  0  0  0  0  0
  -27.8661  -30.4370   23.9238 H   0  0  0  0  0  0
  -27.2678  -33.3612   26.2081 H   0  0  0  0  0  0
  -28.3836  -32.6898   25.0275 H   0  0  0  0  0  0
  -28.0743  -31.8424   26.5351 H   0  0  0  0  0  0
  -28.2612  -38.0097   24.7519 H   0  0  0  0  0  0
  -28.1070  -36.2632   24.6278 H   0  0  0  0  0  0
  -27.2310  -37.1447   25.8868 H   0  0  0  0  0  0
  -20.9293  -29.8761   21.6956 H   0  0  0  0  0  0
  -26.0189  -38.2878   24.1428 H   0  0  0  0  0  0
  -27.1392  -17.8903   21.9433 H   0  0  0  0  0  0
  -30.4921  -20.6225   19.5164 H   0  0  0  0  0  0
  -30.3114  -16.8064   22.9592 H   0  0  0  0  0  0
  -31.6401  -16.9290   21.7938 H   0  0  0  0  0  0
  -31.5264  -15.5424   22.8751 H   0  0  0  0  0  0
  -28.8999  -16.0500   19.6487 H   0  0  0  0  0  0
  -28.0960  -15.9088   21.1881 H   0  0  0  0  0  0
  -29.1209  -24.7309   18.6375 H   0  0  0  0  0  0
  -27.5328  -24.1084   18.9485 H   0  0  0  0  0  0
  -29.2186  -25.2092   21.2300 H   0  0  0  0  0  0
  -27.4862  -25.1167   21.1606 H   0  0  0  0  0  0
  -30.1241  -23.0790   20.2668 H   0  0  0  0  0  0
  -29.3792  -22.4154   18.8263 H   0  0  0  0  0  0
  1 25  1  0  0  0
  1 30  2  0  0  0
  1 82  1  0  0  0
  2  3  1  0  0  0
  2 25  1  0  0  0
  2 86  1  0  0  0
  2 87  1  0  0  0
  3  4  1  0  0  0
  3 88  1  0  0  0
  3 89  1  0  0  0
  4  5  1  0  0  0
  4 90  1  0  0  0
  4 91  1  0  0  0
  5  6  1  0  0  0
  5 26  1  0  0  0
  5 92  1  0  0  0
  6 25  1  0  0  0
  6 93  1  0  0  0
  6 94  1  0  0  0
  7  8  2  0  0  0
  7 26  1  0  0  0
  7 29  1  0  0  0
  8  9  1  0  0  0
  8 22  1  0  0  0
  9 10  1  0  0  0
  9 27  2  0  0  0
 10 11  2  0  0  0
 10 15  1  0  0  0
 11 12  1  0  0  0
 11 95  1  0  0  0
 12 13  2  0  0  0
 12 96  1  0  0  0
 13 14  1  0  0  0
 13 31  1  0  0  0
 14 15  2  0  0  0
 14 97  1  0  0  0
 15 98  1  0  0  0
 16 17  2  0  0  0
 16 21  1  0  0  0
 16 31  1  0  0  0
 17 18  1  0  0  0
 17 99  1  0  0  0
 18 19  2  0  0  0
 18100  1  0  0  0
 19 20  1  0  0  0
 19 24  1  0  0  0
 20 21  2  0  0  0
 20101  1  0  0  0
 21 23  1  0  0  0
 22 28  1  0  0  0
 22 32  2  0  0  0
 26 27  1  0  0  0
 28102  1  0  0  0
 28103  1  0  0  0
 29104  1  0  0  0
 29105  1  0  0  0
 33 34  1  0  0  0
 33 66  1  0  0  0
 33 70  2  0  0  0
 34 36  1  0  0  0
 34 59  1  0  0  0
 34106  1  0  0  0
 35 44  2  0  0  0
 35 45  1  0  0  0
 35 68  1  0  0  0
 36 56  1  0  0  0
 36107  1  0  0  0
 37 39  1  0  0  0
 37 47  1  0  0  0
 37 66  1  0  0  0
 37108  1  0  0  0
 38 43  2  0  0  0
 38 46  1  0  0  0
 38 47  1  0  0  0
 39 64  1  0  0  0
 39 67  2  0  0  0
 40 52  1  0  0  0
 40 53  2  0  0  0
 40 58  1  0  0  0
 41109  1  0  0  0
 41110  1  0  0  0
 41111  1  0  0  0
 41 48  1  0  0  0
 42 43  1  0  0  0
 42 66  1  0  0  0
 42112  1  0  0  0
 42113  1  0  0  0
 43 44  1  0  0  0
 44114  1  0  0  0
 45 46  2  0  0  0
 45115  1  0  0  0
 46116  1  0  0  0
 47117  1  0  0  0
 47118  1  0  0  0
 48 56  1  0  0  0
 48 65  1  0  0  0
 48119  1  0  0  0
 49 50  1  0  0  0
 49 53  1  0  0  0
 49 64  1  0  0  0
 49120  1  0  0  0
 50 51  1  0  0  0
 50121  1  0  0  0
 50122  1  0  0  0
 51 52  1  0  0  0
 51123  1  0  0  0
 51124  1  0  0  0
 52125  1  0  0  0
 52126  1  0  0  0
 53 54  1  0  0  0
 54 55  2  0  0  0
 54127  1  0  0  0
 55 57  1  0  0  0
 55128  1  0  0  0
 56 69  2  0  0  0
 57 58  2  0  0  0
 57129  1  0  0  0
 58130  1  0  0  0
 59 60  1  0  0  0
 59 61  1  0  0  0
 59 62  1  0  0  0
 60131  1  0  0  0
 60132  1  0  0  0
 60133  1  0  0  0
 61134  1  0  0  0
 61135  1  0  0  0
 61136  1  0  0  0
 62137  1  0  0  0
 62138  1  0  0  0
 62139  1  0  0  0
 63 65  1  0  0  0
 63140  1  0  0  0
 63141  1  0  0  0
 63142  1  0  0  0
 64143  1  0  0  0
 65144  1  0  0  0
 68 80  1  0  0  0
 71 73  2  0  0  0
 71 75  1  0  0  0
 71145  1  0  0  0
 72 74  1  0  0  0
 72 76  2  0  0  0
 72146  1  0  0  0
 73 76  1  0  0  0
 73 78  1  0  0  0
 74 75  2  0  0  0
 74 83  1  0  0  0
 75 84  1  0  0  0
 76 85  1  0  0  0
 77 82  1  0  0  0
 77147  1  0  0  0
 77148  1  0  0  0
 77149  1  0  0  0
 78 82  1  0  0  0
 78150  1  0  0  0
 78151  1  0  0  0
 79 80  1  0  0  0
 79 81  1  0  0  0
 79152  1  0  0  0
 79153  1  0  0  0
 80154  1  0  0  0
 80155  1  0  0  0
 81 83  1  0  0  0
 81156  1  0  0  0
 81157  1  0  0  0
M  ISO  4   1 100  68 101  80 101  82 100
M  END
> <chiral flag>
0

> <version>
0

> <s_m_source_file>
/data/baiqing/PycharmProjects/Reinvent-master-3.2/result/LINK_invent/BTK/process_docking_weight1_custom_product_contain_oxygen_bond_distance_aromatic_linkinvent_7_9_3/rearranged_h_0014.sdf

> <i_m_source_file_index>
76

> <r_mmod_Potential_Energy-OPLS-2005>
117.813537597656

> <r_mmod_Stretch_Energy-OPLS-2005>
44.9386558532715

> <r_mmod_Bend_Energy-OPLS-2005>
117.280075073242

> <r_mmod_Torsional_Energy-OPLS-2005>
285.769104003906

> <r_mmod_Improper_Torsional_Energy-OPLS-2005>
4.13188362121582

> <r_mmod_Van_der_Waal_Energy-OPLS-2005>
147.307907104492

> <r_mmod_Electrostatic_Energy-OPLS-2005>
-299.363586425781

> <r_mmod_Solvation_Energy-OPLS-2005>
-199.666473388672

> <b_mmod_Minimization_Converged-OPLS-2005>
0

> <r_mmod_RMS_Derivative-OPLS-2005>
0.857240974903107

$$$$
78
                    3D
 Structure written by MMmdl.
164173  0  0  1  0            999 V2000
  -30.7304  -14.4677   20.5838 C   0  0  0  0  0  0
  -30.4171  -12.3161   19.4118 C   0  0  0  0  0  0
  -29.4865  -12.5080   18.1985 C   0  0  0  0  0  0
  -28.0108  -12.3559   18.6154 C   0  0  0  0  0  0
  -27.6554  -13.2026   19.8654 C   0  0  2  0  0  0
  -28.7007  -13.0093   20.9864 C   0  0  0  0  0  0
  -25.2573  -13.8144   20.5665 C   0  0  0  0  0  0
  -24.1829  -13.0431   20.9179 C   0  0  0  0  0  0
  -24.6382  -11.6897   20.8742 C   0  0  0  0  0  0
  -23.9049  -10.4289   21.0412 C   0  0  0  0  0  0
  -24.3606   -9.4202   21.9189 C   0  0  0  0  0  0
  -23.6284   -8.2241   22.0754 C   0  0  0  0  0  0
  -22.4264   -8.0279   21.3548 C   0  0  0  0  0  0
  -21.9899   -9.0249   20.4643 C   0  0  0  0  0  0
  -22.7231  -10.2130   20.3055 C   0  0  0  0  0  0
  -21.6848   -6.0738   22.5281 C   0  0  0  0  0  0
  -21.4006   -6.5639   23.8210 C   0  0  0  0  0  0
  -21.3653   -5.6793   24.9173 C   0  0  0  0  0  0
  -21.6040   -4.3059   24.7219 C   0  0  0  0  0  0
  -21.8822   -3.8149   23.4344 C   0  0  0  0  0  0
  -21.9192   -4.6966   22.3406 C   0  0  0  0  0  0
  -22.7851  -13.5236   21.1846 C   0  0  0  0  0  0
  -22.1662   -4.2158   21.0982 F   0  0  0  0  0  0
  -21.5629   -3.4541   25.7730 F   0  0  0  0  0  0
  -30.0292  -13.3091   20.4260 N   0  0  0  0  0  0
  -26.2997  -12.9303   20.3334 N   0  0  0  0  0  0
  -25.9309  -11.6472   20.5765 N   0  0  0  0  0  0
  -22.0481  -12.8230   22.0394 N   0  0  0  0  0  0
  -25.4280  -15.1860   20.4042 N   0  0  0  0  0  0
  -31.8674  -14.6193   20.1290 O   0  0  0  0  0  0
  -21.6634   -6.8873   21.4242 O   0  0  0  0  0  0
  -22.3547  -14.5559   20.6710 O   0  0  0  0  0  0
  -24.6192  -31.8677   23.2107 C   0  0  0  0  0  0
  -25.9088  -32.4814   23.8399 C   0  0  1  0  0  0
  -27.2277  -27.4144   20.0734 C   0  0  0  0  0  0
  -25.5952  -33.8612   24.2329 N   0  0  0  0  0  0
  -23.4048  -30.4945   21.5543 C   0  0  2  0  0  0
  -24.8440  -28.9645   20.1124 C   0  0  0  0  0  0
  -22.7418  -29.4672   22.5004 C   0  0  0  0  0  0
  -18.0271  -28.1382   22.8496 C   0  0  0  0  0  0
  -24.1485  -36.7284   23.2638 C   0  0  0  0  0  0
  -25.9381  -30.8259   21.3657 C   0  0  0  0  0  0
  -26.0110  -29.4635   20.7024 C   0  0  0  0  0  0
  -27.2029  -28.6977   20.6780 C   0  0  0  0  0  0
  -26.0234  -26.9331   19.5005 C   0  0  0  0  0  0
  -24.8465  -27.6988   19.5102 C   0  0  0  0  0  0
  -23.6089  -29.8338   20.1669 C   0  0  0  0  0  0
  -25.4115  -36.3094   24.0333 C   0  0  1  0  0  0
  -20.5862  -28.3664   23.1310 C   0  0  2  0  0  0
  -20.6763  -26.9404   22.5410 C   0  0  0  0  0  0
  -19.5746  -26.6385   21.5208 C   0  0  0  0  0  0
  -18.1918  -26.7937   22.1611 C   0  0  0  0  0  0
  -19.1520  -28.8843   23.2900 C   0  0  0  0  0  0
  -18.9450  -30.1450   23.8911 C   0  0  0  0  0  0
  -17.6450  -30.6588   24.0568 C   0  0  0  0  0  0
  -25.9049  -34.9468   23.5118 C   0  0  0  0  0  0
  -16.5339  -29.9088   23.6340 C   0  0  0  0  0  0
  -16.7255  -28.6501   23.0364 C   0  0  0  0  0  0
  -26.4499  -31.6598   25.0736 C   0  0  0  0  0  0
  -25.3750  -31.3709   26.1470 C   0  0  0  0  0  0
  -27.0325  -30.3038   24.6129 C   0  0  0  0  0  0
  -27.6087  -32.4305   25.7497 C   0  0  0  0  0  0
  -27.5579  -37.1801   24.8463 C   0  0  0  0  0  0
  -21.4144  -29.3040   22.3734 N   0  0  0  0  0  0
  -26.4287  -37.3793   23.9414 N   0  0  0  0  0  0
  -24.6730  -31.0768   22.1011 N   0  0  0  0  0  0
  -23.4184  -28.8208   23.3044 O   0  0  0  0  0  0
  -28.3946  -26.6607   20.1350 O   0  0  0  0  0  0
  -26.5599  -34.8918   22.4672 O   0  0  0  0  0  0
  -23.5387  -32.1435   23.7502 O   0  0  0  0  0  0
  -28.6288  -18.8070   21.1203 C   0  0  0  0  0  0
  -28.8928  -20.1953   21.0806 C   0  0  0  0  0  0
  -30.9288  -19.7655   19.8409 C   0  0  0  0  0  0
  -29.5124  -17.8807   20.5222 C   0  0  0  0  0  0
  -30.0533  -20.7014   20.4514 C   0  0  0  0  0  0
  -30.6597  -18.3794   19.8673 C   0  0  0  0  0  0
  -28.5818  -25.4520   19.4930 C   0  0  0  0  0  0
  -31.9442  -23.9394   20.7668 C   0  0  0  0  0  0
  -30.9942  -24.9142   20.0543 C   0  0  0  0  0  0
  -31.7205  -22.4958   20.2931 C   0  0  0  0  0  0
  -29.3270  -22.9887   19.8524 C   0  0  0  0  0  0
  -29.5261  -24.4875   20.2510 C   0  0  2  0  0  0
  -30.7730  -16.0484   22.4245 C   0  0  0  0  0  0
  -29.1853  -16.3770   20.5355 C   0  0  0  0  0  0
  -30.3242  -22.0952   20.4734 N   0  0  0  0  0  0
  -30.1117  -15.4709   21.2527 N   0  0  0  0  0  0
  -28.0798  -25.1237   18.4141 O   0  0  0  0  0  0
  -31.5086  -17.5281   19.2458 F   0  0  0  0  0  0
  -31.4603  -12.4106   19.1038 H   0  0  0  0  0  0
  -30.3189  -11.3073   19.8165 H   0  0  0  0  0  0
  -29.7309  -11.7872   17.4172 H   0  0  0  0  0  0
  -29.6449  -13.4957   17.7628 H   0  0  0  0  0  0
  -27.8283  -11.2995   18.8177 H   0  0  0  0  0  0
  -27.3574  -12.6219   17.7840 H   0  0  0  0  0  0
  -27.6844  -14.2420   19.5468 H   0  0  0  0  0  0
  -28.6819  -11.9810   21.3506 H   0  0  0  0  0  0
  -28.4603  -13.6312   21.8499 H   0  0  0  0  0  0
  -25.2756   -9.5678   22.4762 H   0  0  0  0  0  0
  -23.9991   -7.4628   22.7475 H   0  0  0  0  0  0
  -21.0835   -8.8764   19.8943 H   0  0  0  0  0  0
  -22.3696  -10.9666   19.6157 H   0  0  0  0  0  0
  -21.1994   -7.6145   23.9717 H   0  0  0  0  0  0
  -21.1466   -6.0521   25.9072 H   0  0  0  0  0  0
  -22.0606   -2.7611   23.2843 H   0  0  0  0  0  0
  -22.4084  -11.9877   22.4771 H   0  0  0  0  0  0
  -21.1096  -13.1256   22.2591 H   0  0  0  0  0  0
  -24.6568  -15.8367   20.5064 H   0  0  0  0  0  0
  -26.2692  -15.6229   20.0531 H   0  0  0  0  0  0
  -26.7159  -32.5490   23.1157 H   0  0  0  0  0  0
  -25.0169  -33.9783   25.0518 H   0  0  0  0  0  0
  -22.6945  -31.3120   21.4202 H   0  0  0  0  0  0
  -23.3756  -35.9608   23.3305 H   0  0  0  0  0  0
  -24.3574  -36.8894   22.2048 H   0  0  0  0  0  0
  -23.7214  -37.6482   23.6643 H   0  0  0  0  0  0
  -26.0601  -31.5974   20.6046 H   0  0  0  0  0  0
  -26.8223  -30.8693   21.9894 H   0  0  0  0  0  0
  -28.1026  -29.0823   21.1382 H   0  0  0  0  0  0
  -25.9490  -25.9536   19.0550 H   0  0  0  0  0  0
  -23.9456  -27.3005   19.0651 H   0  0  0  0  0  0
  -23.7187  -30.6119   19.4111 H   0  0  0  0  0  0
  -22.7306  -29.2583   19.8684 H   0  0  0  0  0  0
  -25.1303  -36.1956   25.0826 H   0  0  0  0  0  0
  -20.9948  -28.3226   24.1432 H   0  0  0  0  0  0
  -20.5668  -26.2284   23.3605 H   0  0  0  0  0  0
  -21.6637  -26.7450   22.1200 H   0  0  0  0  0  0
  -19.6908  -25.6295   21.1243 H   0  0  0  0  0  0
  -19.6694  -27.3193   20.6741 H   0  0  0  0  0  0
  -17.4199  -26.6697   21.4000 H   0  0  0  0  0  0
  -18.0305  -26.0057   22.8984 H   0  0  0  0  0  0
  -19.7919  -30.7264   24.2290 H   0  0  0  0  0  0
  -17.5000  -31.6271   24.5157 H   0  0  0  0  0  0
  -15.5346  -30.2991   23.7669 H   0  0  0  0  0  0
  -15.8650  -28.0820   22.7096 H   0  0  0  0  0  0
  -24.5948  -30.7036   25.7791 H   0  0  0  0  0  0
  -24.8915  -32.2862   26.4900 H   0  0  0  0  0  0
  -25.8088  -30.8887   27.0238 H   0  0  0  0  0  0
  -26.2867  -29.6798   24.1190 H   0  0  0  0  0  0
  -27.4089  -29.7290   25.4602 H   0  0  0  0  0  0
  -27.8715  -30.4348   23.9291 H   0  0  0  0  0  0
  -27.2741  -33.3621   26.2074 H   0  0  0  0  0  0
  -28.3913  -32.6826   25.0326 H   0  0  0  0  0  0
  -28.0737  -31.8414   26.5415 H   0  0  0  0  0  0
  -28.2597  -38.0096   24.7529 H   0  0  0  0  0  0
  -28.1077  -36.2637   24.6273 H   0  0  0  0  0  0
  -27.2300  -37.1425   25.8864 H   0  0  0  0  0  0
  -20.9317  -29.8775   21.6960 H   0  0  0  0  0  0
  -26.0170  -38.2867   24.1433 H   0  0  0  0  0  0
  -27.7347  -18.4557   21.6153 H   0  0  0  0  0  0
  -28.1992  -20.8698   21.5640 H   0  0  0  0  0  0
  -31.8213  -20.0885   19.3274 H   0  0  0  0  0  0
  -31.7940  -23.9993   21.8461 H   0  0  0  0  0  0
  -32.9803  -24.2303   20.5854 H   0  0  0  0  0  0
  -31.2343  -24.9463   18.9899 H   0  0  0  0  0  0
  -31.1488  -25.9233   20.4385 H   0  0  0  0  0  0
  -32.3814  -21.8317   20.8538 H   0  0  0  0  0  0
  -31.9920  -22.4058   19.2398 H   0  0  0  0  0  0
  -29.3983  -22.8790   18.7692 H   0  0  0  0  0  0
  -28.3165  -22.6791   20.1223 H   0  0  0  0  0  0
  -29.2864  -24.5825   21.3106 H   0  0  0  0  0  0
  -30.0833  -16.6659   23.0005 H   0  0  0  0  0  0
  -31.6229  -16.6656   22.1293 H   0  0  0  0  0  0
  -31.1395  -15.2652   23.0897 H   0  0  0  0  0  0
  -29.0942  -16.0736   19.4902 H   0  0  0  0  0  0
  -28.1957  -16.2343   20.9694 H   0  0  0  0  0  0
  1 25  1  0  0  0
  1 30  2  0  0  0
  1 86  1  0  0  0
  2  3  1  0  0  0
  2 25  1  0  0  0
  2 89  1  0  0  0
  2 90  1  0  0  0
  3  4  1  0  0  0
  3 91  1  0  0  0
  3 92  1  0  0  0
  4  5  1  0  0  0
  4 93  1  0  0  0
  4 94  1  0  0  0
  5  6  1  0  0  0
  5 26  1  0  0  0
  5 95  1  0  0  0
  6 25  1  0  0  0
  6 96  1  0  0  0
  6 97  1  0  0  0
  7  8  2  0  0  0
  7 26  1  0  0  0
  7 29  1  0  0  0
  8  9  1  0  0  0
  8 22  1  0  0  0
  9 10  1  0  0  0
  9 27  2  0  0  0
 10 11  2  0  0  0
 10 15  1  0  0  0
 11 12  1  0  0  0
 11 98  1  0  0  0
 12 13  2  0  0  0
 12 99  1  0  0  0
 13 14  1  0  0  0
 13 31  1  0  0  0
 14 15  2  0  0  0
 14100  1  0  0  0
 15101  1  0  0  0
 16 17  2  0  0  0
 16 21  1  0  0  0
 16 31  1  0  0  0
 17 18  1  0  0  0
 17102  1  0  0  0
 18 19  2  0  0  0
 18103  1  0  0  0
 19 20  1  0  0  0
 19 24  1  0  0  0
 20 21  2  0  0  0
 20104  1  0  0  0
 21 23  1  0  0  0
 22 28  1  0  0  0
 22 32  2  0  0  0
 26 27  1  0  0  0
 28105  1  0  0  0
 28106  1  0  0  0
 29107  1  0  0  0
 29108  1  0  0  0
 33 34  1  0  0  0
 33 66  1  0  0  0
 33 70  2  0  0  0
 34 36  1  0  0  0
 34 59  1  0  0  0
 34109  1  0  0  0
 35 44  2  0  0  0
 35 45  1  0  0  0
 35 68  1  0  0  0
 36 56  1  0  0  0
 36110  1  0  0  0
 37 39  1  0  0  0
 37 47  1  0  0  0
 37 66  1  0  0  0
 37111  1  0  0  0
 38 43  2  0  0  0
 38 46  1  0  0  0
 38 47  1  0  0  0
 39 64  1  0  0  0
 39 67  2  0  0  0
 40 52  1  0  0  0
 40 53  2  0  0  0
 40 58  1  0  0  0
 41112  1  0  0  0
 41113  1  0  0  0
 41114  1  0  0  0
 41 48  1  0  0  0
 42 43  1  0  0  0
 42 66  1  0  0  0
 42115  1  0  0  0
 42116  1  0  0  0
 43 44  1  0  0  0
 44117  1  0  0  0
 45 46  2  0  0  0
 45118  1  0  0  0
 46119  1  0  0  0
 47120  1  0  0  0
 47121  1  0  0  0
 48 56  1  0  0  0
 48 65  1  0  0  0
 48122  1  0  0  0
 49 50  1  0  0  0
 49 53  1  0  0  0
 49 64  1  0  0  0
 49123  1  0  0  0
 50 51  1  0  0  0
 50124  1  0  0  0
 50125  1  0  0  0
 51 52  1  0  0  0
 51126  1  0  0  0
 51127  1  0  0  0
 52128  1  0  0  0
 52129  1  0  0  0
 53 54  1  0  0  0
 54 55  2  0  0  0
 54130  1  0  0  0
 55 57  1  0  0  0
 55131  1  0  0  0
 56 69  2  0  0  0
 57 58  2  0  0  0
 57132  1  0  0  0
 58133  1  0  0  0
 59 60  1  0  0  0
 59 61  1  0  0  0
 59 62  1  0  0  0
 60134  1  0  0  0
 60135  1  0  0  0
 60136  1  0  0  0
 61137  1  0  0  0
 61138  1  0  0  0
 61139  1  0  0  0
 62140  1  0  0  0
 62141  1  0  0  0
 62142  1  0  0  0
 63 65  1  0  0  0
 63143  1  0  0  0
 63144  1  0  0  0
 63145  1  0  0  0
 64146  1  0  0  0
 65147  1  0  0  0
 68 77  1  0  0  0
 71 72  2  0  0  0
 71 74  1  0  0  0
 71148  1  0  0  0
 72 75  1  0  0  0
 72149  1  0  0  0
 73 75  2  0  0  0
 73 76  1  0  0  0
 73150  1  0  0  0
 74 76  2  0  0  0
 74 84  1  0  0  0
 75 85  1  0  0  0
 76 88  1  0  0  0
 77 87  2  0  0  0
 77 82  1  0  0  0
 78 79  1  0  0  0
 78 80  1  0  0  0
 78151  1  0  0  0
 78152  1  0  0  0
 79 82  1  0  0  0
 79153  1  0  0  0
 79154  1  0  0  0
 80 85  1  0  0  0
 80155  1  0  0  0
 80156  1  0  0  0
 81 82  1  0  0  0
 81 85  1  0  0  0
 81157  1  0  0  0
 81158  1  0  0  0
 82159  1  0  0  0
 83 86  1  0  0  0
 83160  1  0  0  0
 83161  1  0  0  0
 83162  1  0  0  0
 84 86  1  0  0  0
 84163  1  0  0  0
 84164  1  0  0  0
M  ISO  4   1 100  68 101  77 101  86 100
M  END
> <chiral flag>
0

> <version>
0

> <s_m_source_file>
/data/baiqing/PycharmProjects/Reinvent-master-3.2/result/LINK_invent/BTK/process_docking_weight1_custom_product_contain_oxygen_bond_distance_aromatic_linkinvent_7_9_3/rearranged_h_0014.sdf

> <i_m_source_file_index>
77

> <r_mmod_Potential_Energy-OPLS-2005>
182.583923339844

> <r_mmod_Stretch_Energy-OPLS-2005>
45.7225532531738

> <r_mmod_Bend_Energy-OPLS-2005>
107.159301757812

> <r_mmod_Torsional_Energy-OPLS-2005>
311.147827148438

> <r_mmod_Improper_Torsional_Energy-OPLS-2005>
7.00889873504639

> <r_mmod_Van_der_Waal_Energy-OPLS-2005>
164.408050537109

> <r_mmod_Electrostatic_Energy-OPLS-2005>
-255.167724609375

> <r_mmod_Solvation_Energy-OPLS-2005>
-214.278167724609

> <b_mmod_Minimization_Converged-OPLS-2005>
0

> <r_mmod_RMS_Derivative-OPLS-2005>
1.39378786087036

$$$$
79
                    3D
 Structure written by MMmdl.
159168  0  0  1  0            999 V2000
  -30.7553  -14.3783   20.5812 C   0  0  0  0  0  0
  -30.3992  -12.2452   19.4287 C   0  0  0  0  0  0
  -29.4931  -12.4978   18.2075 C   0  0  0  0  0  0
  -28.0086  -12.3848   18.6068 C   0  0  0  0  0  0
  -27.6615  -13.2115   19.8753 C   0  0  2  0  0  0
  -28.6957  -12.9782   21.0014 C   0  0  0  0  0  0
  -25.2541  -13.8188   20.5659 C   0  0  0  0  0  0
  -24.1799  -13.0457   20.9173 C   0  0  0  0  0  0
  -24.6369  -11.6919   20.8724 C   0  0  0  0  0  0
  -23.9043  -10.4302   21.0404 C   0  0  0  0  0  0
  -24.3608   -9.4215   21.9178 C   0  0  0  0  0  0
  -23.6288   -8.2252   22.0752 C   0  0  0  0  0  0
  -22.4263   -8.0283   21.3546 C   0  0  0  0  0  0
  -21.9872   -9.0261   20.4651 C   0  0  0  0  0  0
  -22.7216  -10.2141   20.3054 C   0  0  0  0  0  0
  -21.6848   -6.0731   22.5279 C   0  0  0  0  0  0
  -21.4018   -6.5624   23.8219 C   0  0  0  0  0  0
  -21.3664   -5.6771   24.9173 C   0  0  0  0  0  0
  -21.6049   -4.3046   24.7222 C   0  0  0  0  0  0
  -21.8818   -3.8139   23.4338 C   0  0  0  0  0  0
  -21.9184   -4.6958   22.3398 C   0  0  0  0  0  0
  -22.7824  -13.5260   21.1863 C   0  0  0  0  0  0
  -22.1660   -4.2147   21.0972 F   0  0  0  0  0  0
  -21.5635   -3.4519   25.7728 F   0  0  0  0  0  0
  -30.0403  -13.2331   20.4568 N   0  0  0  0  0  0
  -26.2993  -12.9385   20.3338 N   0  0  0  0  0  0
  -25.9286  -11.6536   20.5716 N   0  0  0  0  0  0
  -22.0470  -12.8263   22.0427 N   0  0  0  0  0  0
  -25.4252  -15.1901   20.4060 N   0  0  0  0  0  0
  -31.8728  -14.5171   20.0741 O   0  0  0  0  0  0
  -21.6643   -6.8874   21.4236 O   0  0  0  0  0  0
  -22.3497  -14.5562   20.6716 O   0  0  0  0  0  0
  -24.6051  -31.8746   23.2167 C   0  0  0  0  0  0
  -25.8984  -32.4862   23.8422 C   0  0  1  0  0  0
  -27.2330  -27.5075   20.0937 C   0  0  0  0  0  0
  -25.5875  -33.8662   24.2364 N   0  0  0  0  0  0
  -23.3870  -30.5002   21.5561 C   0  0  2  0  0  0
  -24.8325  -28.9725   20.1204 C   0  0  0  0  0  0
  -22.7345  -29.4702   22.5039 C   0  0  0  0  0  0
  -18.0256  -28.1366   22.8492 C   0  0  0  0  0  0
  -24.1491  -36.7341   23.2632 C   0  0  0  0  0  0
  -25.9044  -30.8666   21.3533 C   0  0  0  0  0  0
  -25.9842  -29.5014   20.7147 C   0  0  0  0  0  0
  -27.1881  -28.7753   20.7103 C   0  0  0  0  0  0
  -26.0728  -26.9817   19.4935 C   0  0  0  0  0  0
  -24.8659  -27.7054   19.5109 C   0  0  0  0  0  0
  -23.5901  -29.8306   20.1702 C   0  0  0  0  0  0
  -25.4101  -36.3145   24.0341 C   0  0  1  0  0  0
  -20.5841  -28.3639   23.1338 C   0  0  2  0  0  0
  -20.6757  -26.9389   22.5418 C   0  0  0  0  0  0
  -19.5745  -26.6387   21.5200 C   0  0  0  0  0  0
  -18.1916  -26.7912   22.1612 C   0  0  0  0  0  0
  -19.1504  -28.8812   23.2915 C   0  0  0  0  0  0
  -18.9442  -30.1415   23.8932 C   0  0  0  0  0  0
  -17.6451  -30.6576   24.0562 C   0  0  0  0  0  0
  -25.9016  -34.9502   23.5145 C   0  0  0  0  0  0
  -16.5339  -29.9088   23.6327 C   0  0  0  0  0  0
  -16.7245  -28.6499   23.0352 C   0  0  0  0  0  0
  -26.4442  -31.6603   25.0706 C   0  0  0  0  0  0
  -25.3754  -31.3695   26.1497 C   0  0  0  0  0  0
  -27.0245  -30.3063   24.5999 C   0  0  0  0  0  0
  -27.6062  -32.4278   25.7437 C   0  0  0  0  0  0
  -27.5586  -37.1816   24.8464 C   0  0  0  0  0  0
  -21.4086  -29.3024   22.3765 N   0  0  0  0  0  0
  -26.4302  -37.3808   23.9408 N   0  0  0  0  0  0
  -24.6506  -31.0934   22.1020 N   0  0  0  0  0  0
  -23.4151  -28.8251   23.3062 O   0  0  0  0  0  0
  -28.3635  -26.7430   20.0235 O   0  0  0  0  0  0
  -26.5581  -34.8933   22.4707 O   0  0  0  0  0  0
  -23.5271  -32.1461   23.7624 O   0  0  0  0  0  0
  -30.8297  -25.3555   19.7173 C   0  0  0  0  0  0
  -31.3991  -24.0829   19.5805 C   0  0  0  0  0  0
  -31.7535  -17.2506   20.9195 C   0  0  0  0  0  0
  -29.3814  -17.6058   20.4463 C   0  0  0  0  0  0
  -32.0558  -18.5252   20.4118 C   0  0  0  0  0  0
  -29.6829  -18.8900   19.9443 C   0  0  0  0  0  0
  -30.9884  -23.6422   21.9476 C   0  0  0  0  0  0
  -30.2748  -25.7453   20.9515 C   0  0  0  0  0  0
  -30.4258  -16.7582   20.8743 C   0  0  0  0  0  0
  -31.4232  -23.2000   20.6796 C   0  0  0  0  0  0
  -30.4031  -24.9155   22.0848 C   0  0  0  0  0  0
  -31.0234  -19.3205   19.8870 C   0  0  0  0  0  0
  -29.3946  -26.9678   20.9742 C   0  0  0  0  0  0
  -30.1300  -15.4043   21.1816 N   0  0  0  0  0  0
  -31.8094  -21.8744   20.4979 N   0  0  0  0  0  0
  -30.2625  -21.4720   18.4911 O   0  0  0  0  0  0
  -32.7193  -20.7616   18.3987 O   0  0  0  0  0  0
  -29.9036  -25.2997   23.2850 F   0  0  0  0  0  0
  -31.4499  -20.8840   19.1349 S   0  0  0  0  0  0
  -31.4521  -12.2881   19.1435 H   0  0  0  0  0  0
  -30.2433  -11.2373   19.8155 H   0  0  0  0  0  0
  -29.7204  -11.7884   17.4114 H   0  0  0  0  0  0
  -29.6925  -13.4892   17.7993 H   0  0  0  0  0  0
  -27.7920  -11.3310   18.7774 H   0  0  0  0  0  0
  -27.3753  -12.6927   17.7745 H   0  0  0  0  0  0
  -27.7150  -14.2607   19.5885 H   0  0  0  0  0  0
  -28.6381  -11.9462   21.3498 H   0  0  0  0  0  0
  -28.4693  -13.5938   21.8723 H   0  0  0  0  0  0
  -25.2770   -9.5689   22.4724 H   0  0  0  0  0  0
  -24.0008   -7.4622   22.7438 H   0  0  0  0  0  0
  -21.0812   -8.8780   19.8944 H   0  0  0  0  0  0
  -22.3686  -10.9673   19.6142 H   0  0  0  0  0  0
  -21.2014   -7.6132   23.9718 H   0  0  0  0  0  0
  -21.1499   -6.0508   25.9075 H   0  0  0  0  0  0
  -22.0588   -2.7603   23.2846 H   0  0  0  0  0  0
  -22.4101  -11.9948   22.4857 H   0  0  0  0  0  0
  -21.1092  -13.1298   22.2635 H   0  0  0  0  0  0
  -24.6583  -15.8460   20.5041 H   0  0  0  0  0  0
  -26.2739  -15.6265   20.0672 H   0  0  0  0  0  0
  -26.7069  -32.5615   23.1208 H   0  0  0  0  0  0
  -25.0048  -33.9836   25.0524 H   0  0  0  0  0  0
  -22.6705  -31.3135   21.4217 H   0  0  0  0  0  0
  -23.3729  -35.9706   23.3342 H   0  0  0  0  0  0
  -24.3581  -36.8897   22.2041 H   0  0  0  0  0  0
  -23.7281  -37.6575   23.6601 H   0  0  0  0  0  0
  -25.9925  -31.6273   20.5764 H   0  0  0  0  0  0
  -26.8013  -30.9375   21.9556 H   0  0  0  0  0  0
  -28.0678  -29.2047   21.1658 H   0  0  0  0  0  0
  -26.1058  -26.0116   19.0172 H   0  0  0  0  0  0
  -23.9802  -27.2904   19.0503 H   0  0  0  0  0  0
  -23.6889  -30.6039   19.4076 H   0  0  0  0  0  0
  -22.7168  -29.2442   19.8806 H   0  0  0  0  0  0
  -25.1278  -36.2016   25.0835 H   0  0  0  0  0  0
  -20.9917  -28.3208   24.1462 H   0  0  0  0  0  0
  -20.5655  -26.2252   23.3595 H   0  0  0  0  0  0
  -21.6635  -26.7458   22.1215 H   0  0  0  0  0  0
  -19.6917  -25.6307   21.1209 H   0  0  0  0  0  0
  -19.6679  -27.3220   20.6744 H   0  0  0  0  0  0
  -17.4186  -26.6645   21.4013 H   0  0  0  0  0  0
  -18.0325  -26.0033   22.8992 H   0  0  0  0  0  0
  -19.7922  -30.7207   24.2325 H   0  0  0  0  0  0
  -17.5021  -31.6261   24.5150 H   0  0  0  0  0  0
  -15.5348  -30.3011   23.7622 H   0  0  0  0  0  0
  -15.8640  -28.0822   22.7076 H   0  0  0  0  0  0
  -24.5917  -30.7034   25.7862 H   0  0  0  0  0  0
  -24.8955  -32.2856   26.4959 H   0  0  0  0  0  0
  -25.8156  -30.8874   27.0238 H   0  0  0  0  0  0
  -26.2749  -29.6836   24.1112 H   0  0  0  0  0  0
  -27.4115  -29.7272   25.4386 H   0  0  0  0  0  0
  -27.8528  -30.4399   23.9042 H   0  0  0  0  0  0
  -27.2721  -33.3552   26.2093 H   0  0  0  0  0  0
  -28.3821  -32.6873   25.0224 H   0  0  0  0  0  0
  -28.0783  -31.8350   26.5280 H   0  0  0  0  0  0
  -28.2632  -38.0084   24.7492 H   0  0  0  0  0  0
  -28.1053  -36.2624   24.6309 H   0  0  0  0  0  0
  -27.2310  -37.1502   25.8867 H   0  0  0  0  0  0
  -20.9230  -29.8742   21.6998 H   0  0  0  0  0  0
  -26.0204  -38.2891   24.1400 H   0  0  0  0  0  0
  -30.7333  -25.9959   18.8518 H   0  0  0  0  0  0
  -31.7422  -23.7673   18.6055 H   0  0  0  0  0  0
  -32.5644  -16.6332   21.2790 H   0  0  0  0  0  0
  -28.3586  -17.2574   20.4372 H   0  0  0  0  0  0
  -33.0771  -18.8751   20.3844 H   0  0  0  0  0  0
  -28.8949  -19.5281   19.5693 H   0  0  0  0  0  0
  -31.0222  -22.9905   22.8086 H   0  0  0  0  0  0
  -29.9749  -27.8537   20.7141 H   0  0  0  0  0  0
  -28.9746  -27.1151   21.9704 H   0  0  0  0  0  0
  -29.2034  -15.1994   21.5257 H   0  0  0  0  0  0
  -31.8749  -21.3310   21.3470 H   0  0  0  0  0  0
  1 25  1  0  0  0
  1 30  2  0  0  0
  1 84  1  0  0  0
  2  3  1  0  0  0
  2 25  1  0  0  0
  2 90  1  0  0  0
  2 91  1  0  0  0
  3  4  1  0  0  0
  3 92  1  0  0  0
  3 93  1  0  0  0
  4  5  1  0  0  0
  4 94  1  0  0  0
  4 95  1  0  0  0
  5  6  1  0  0  0
  5 26  1  0  0  0
  5 96  1  0  0  0
  6 25  1  0  0  0
  6 97  1  0  0  0
  6 98  1  0  0  0
  7  8  2  0  0  0
  7 26  1  0  0  0
  7 29  1  0  0  0
  8  9  1  0  0  0
  8 22  1  0  0  0
  9 10  1  0  0  0
  9 27  2  0  0  0
 10 11  2  0  0  0
 10 15  1  0  0  0
 11 12  1  0  0  0
 11 99  1  0  0  0
 12 13  2  0  0  0
 12100  1  0  0  0
 13 14  1  0  0  0
 13 31  1  0  0  0
 14 15  2  0  0  0
 14101  1  0  0  0
 15102  1  0  0  0
 16 17  2  0  0  0
 16 21  1  0  0  0
 16 31  1  0  0  0
 17 18  1  0  0  0
 17103  1  0  0  0
 18 19  2  0  0  0
 18104  1  0  0  0
 19 20  1  0  0  0
 19 24  1  0  0  0
 20 21  2  0  0  0
 20105  1  0  0  0
 21 23  1  0  0  0
 22 28  1  0  0  0
 22 32  2  0  0  0
 26 27  1  0  0  0
 28106  1  0  0  0
 28107  1  0  0  0
 29108  1  0  0  0
 29109  1  0  0  0
 33 34  1  0  0  0
 33 66  1  0  0  0
 33 70  2  0  0  0
 34 36  1  0  0  0
 34 59  1  0  0  0
 34110  1  0  0  0
 35 44  2  0  0  0
 35 45  1  0  0  0
 35 68  1  0  0  0
 36 56  1  0  0  0
 36111  1  0  0  0
 37 39  1  0  0  0
 37 47  1  0  0  0
 37 66  1  0  0  0
 37112  1  0  0  0
 38 43  2  0  0  0
 38 46  1  0  0  0
 38 47  1  0  0  0
 39 64  1  0  0  0
 39 67  2  0  0  0
 40 52  1  0  0  0
 40 53  2  0  0  0
 40 58  1  0  0  0
 41113  1  0  0  0
 41114  1  0  0  0
 41115  1  0  0  0
 41 48  1  0  0  0
 42 43  1  0  0  0
 42 66  1  0  0  0
 42116  1  0  0  0
 42117  1  0  0  0
 43 44  1  0  0  0
 44118  1  0  0  0
 45 46  2  0  0  0
 45119  1  0  0  0
 46120  1  0  0  0
 47121  1  0  0  0
 47122  1  0  0  0
 48 56  1  0  0  0
 48 65  1  0  0  0
 48123  1  0  0  0
 49 50  1  0  0  0
 49 53  1  0  0  0
 49 64  1  0  0  0
 49124  1  0  0  0
 50 51  1  0  0  0
 50125  1  0  0  0
 50126  1  0  0  0
 51 52  1  0  0  0
 51127  1  0  0  0
 51128  1  0  0  0
 52129  1  0  0  0
 52130  1  0  0  0
 53 54  1  0  0  0
 54 55  2  0  0  0
 54131  1  0  0  0
 55 57  1  0  0  0
 55132  1  0  0  0
 56 69  2  0  0  0
 57 58  2  0  0  0
 57133  1  0  0  0
 58134  1  0  0  0
 59 60  1  0  0  0
 59 61  1  0  0  0
 59 62  1  0  0  0
 60135  1  0  0  0
 60136  1  0  0  0
 60137  1  0  0  0
 61138  1  0  0  0
 61139  1  0  0  0
 61140  1  0  0  0
 62141  1  0  0  0
 62142  1  0  0  0
 62143  1  0  0  0
 63 65  1  0  0  0
 63144  1  0  0  0
 63145  1  0  0  0
 63146  1  0  0  0
 64147  1  0  0  0
 65148  1  0  0  0
 68 83  1  0  0  0
 71 72  2  0  0  0
 71 78  1  0  0  0
 71149  1  0  0  0
 72 80  1  0  0  0
 72150  1  0  0  0
 73 75  2  0  0  0
 73 79  1  0  0  0
 73151  1  0  0  0
 74 76  1  0  0  0
 74 79  2  0  0  0
 74152  1  0  0  0
 75 82  1  0  0  0
 75153  1  0  0  0
 76 82  2  0  0  0
 76154  1  0  0  0
 77 80  2  0  0  0
 77 81  1  0  0  0
 77155  1  0  0  0
 78 81  2  0  0  0
 78 83  1  0  0  0
 79 84  1  0  0  0
 80 85  1  0  0  0
 81 88  1  0  0  0
 82 89  1  0  0  0
 83156  1  0  0  0
 83157  1  0  0  0
 84158  1  0  0  0
 85159  1  0  0  0
 85 89  1  0  0  0
 86 89  2  0  0  0
 87 89  2  0  0  0
M  ISO  4   1 100  68 101  83 101  84 100
M  END
> <chiral flag>
0

> <version>
0

> <s_m_source_file>
/data/baiqing/PycharmProjects/Reinvent-master-3.2/result/LINK_invent/BTK/process_docking_weight1_custom_product_contain_oxygen_bond_distance_aromatic_linkinvent_7_9_3/rearranged_h_0014.sdf

> <i_m_source_file_index>
78

> <r_mmod_Potential_Energy-OPLS-2005>
-94.9283676147461

> <r_mmod_Stretch_Energy-OPLS-2005>
30.3369331359863

> <r_mmod_Bend_Energy-OPLS-2005>
94.2759552001953

> <r_mmod_Torsional_Energy-OPLS-2005>
246.721664428711

> <r_mmod_Improper_Torsional_Energy-OPLS-2005>
8.28542137145996

> <r_mmod_Van_der_Waal_Energy-OPLS-2005>
176.059814453125

> <r_mmod_Electrostatic_Energy-OPLS-2005>
-409.026641845703

> <r_mmod_Solvation_Energy-OPLS-2005>
-251.541641235352

> <b_mmod_Minimization_Converged-OPLS-2005>
0

> <r_mmod_RMS_Derivative-OPLS-2005>
2.93101215362549

$$$$
80
                    3D
 Structure written by MMmdl.
153161  0  0  1  0            999 V2000
  -30.5477  -14.9943   20.4354 C   0  0  0  0  0  0
  -30.4379  -12.6301   19.4872 C   0  0  0  0  0  0
  -29.5237  -12.5560   18.2406 C   0  0  0  0  0  0
  -28.0510  -12.3458   18.6460 C   0  0  0  0  0  0
  -27.6304  -13.2505   19.8323 C   0  0  2  0  0  0
  -28.6776  -13.2396   20.9642 C   0  0  0  0  0  0
  -25.2465  -13.8215   20.5595 C   0  0  0  0  0  0
  -24.1803  -13.0434   20.9183 C   0  0  0  0  0  0
  -24.6436  -11.6935   20.8738 C   0  0  0  0  0  0
  -23.9131  -10.4312   21.0396 C   0  0  0  0  0  0
  -24.3681   -9.4220   21.9166 C   0  0  0  0  0  0
  -23.6337   -8.2278   22.0751 C   0  0  0  0  0  0
  -22.4306   -8.0324   21.3555 C   0  0  0  0  0  0
  -21.9959   -9.0297   20.4655 C   0  0  0  0  0  0
  -22.7304  -10.2152   20.3046 C   0  0  0  0  0  0
  -21.6865   -6.0778   22.5280 C   0  0  0  0  0  0
  -21.4022   -6.5668   23.8223 C   0  0  0  0  0  0
  -21.3656   -5.6802   24.9177 C   0  0  0  0  0  0
  -21.6046   -4.3074   24.7208 C   0  0  0  0  0  0
  -21.8821   -3.8177   23.4326 C   0  0  0  0  0  0
  -21.9200   -4.7001   22.3396 C   0  0  0  0  0  0
  -22.7825  -13.5204   21.1861 C   0  0  0  0  0  0
  -22.1672   -4.2192   21.0974 F   0  0  0  0  0  0
  -21.5614   -3.4554   25.7726 F   0  0  0  0  0  0
  -29.9364  -13.7272   20.3726 N   0  0  0  0  0  0
  -26.2900  -12.9453   20.3169 N   0  0  0  0  0  0
  -25.9380  -11.6586   20.5741 N   0  0  0  0  0  0
  -22.0509  -12.8157   22.0415 N   0  0  0  0  0  0
  -25.4010  -15.1938   20.3919 N   0  0  0  0  0  0
  -31.7385  -15.0213   20.1041 O   0  0  0  0  0  0
  -21.6646   -6.8926   21.4258 O   0  0  0  0  0  0
  -22.3482  -14.5509   20.6747 O   0  0  0  0  0  0
  -24.6450  -31.8446   23.1884 C   0  0  0  0  0  0
  -25.9207  -32.4701   23.8279 C   0  0  1  0  0  0
  -27.2050  -27.1190   20.1401 C   0  0  0  0  0  0
  -25.5955  -33.8510   24.2191 N   0  0  0  0  0  0
  -23.4479  -30.4666   21.5342 C   0  0  2  0  0  0
  -24.8935  -28.8914   20.1090 C   0  0  0  0  0  0
  -22.7574  -29.4553   22.4835 C   0  0  0  0  0  0
  -18.0313  -28.1401   22.8478 C   0  0  0  0  0  0
  -24.1486  -36.7254   23.2643 C   0  0  0  0  0  0
  -26.0058  -30.7115   21.3882 C   0  0  0  0  0  0
  -26.0737  -29.3211   20.7270 C   0  0  0  0  0  0
  -27.2305  -28.4518   20.7265 C   0  0  0  0  0  0
  -25.9967  -26.7948   19.4857 C   0  0  0  0  0  0
  -24.8661  -27.6417   19.4754 C   0  0  0  0  0  0
  -23.6756  -29.8029   20.1513 C   0  0  0  0  0  0
  -25.4121  -36.3036   24.0317 C   0  0  1  0  0  0
  -20.5932  -28.3736   23.1225 C   0  0  2  0  0  0
  -20.6798  -26.9431   22.5406 C   0  0  0  0  0  0
  -19.5767  -26.6381   21.5219 C   0  0  0  0  0  0
  -18.1951  -26.7935   22.1629 C   0  0  0  0  0  0
  -19.1566  -28.8882   23.2849 C   0  0  0  0  0  0
  -18.9484  -30.1480   23.8885 C   0  0  0  0  0  0
  -17.6477  -30.6594   24.0567 C   0  0  0  0  0  0
  -25.9072  -34.9410   23.5064 C   0  0  0  0  0  0
  -16.5374  -29.9097   23.6329 C   0  0  0  0  0  0
  -16.7294  -28.6512   23.0351 C   0  0  0  0  0  0
  -26.4523  -31.6574   25.0724 C   0  0  0  0  0  0
  -25.3700  -31.3771   26.1416 C   0  0  0  0  0  0
  -27.0390  -30.2973   24.6303 C   0  0  0  0  0  0
  -27.6046  -32.4347   25.7517 C   0  0  0  0  0  0
  -27.5571  -37.1787   24.8465 C   0  0  0  0  0  0
  -21.4265  -29.3057   22.3588 N   0  0  0  0  0  0
  -26.4279  -37.3752   23.9412 N   0  0  0  0  0  0
  -24.7192  -31.0298   22.0917 N   0  0  0  0  0  0
  -23.4218  -28.8096   23.2979 O   0  0  0  0  0  0
  -28.2498  -26.1217   20.2051 O   0  0  0  0  0  0
  -26.5660  -34.8911   22.4638 O   0  0  0  0  0  0
  -23.5562  -32.1324   23.7103 O   0  0  0  0  0  0
  -27.0975  -19.9256   19.3833 C   0  0  0  0  0  0
  -27.4259  -21.2786   19.6517 C   0  0  0  0  0  0
  -28.0059  -18.8584   19.5763 C   0  0  0  0  0  0
  -29.6328  -20.5058   20.2949 C   0  0  0  0  0  0
  -28.7095  -21.6639   20.0941 C   0  0  0  0  0  0
  -29.3115  -19.0651   20.0744 C   0  0  0  0  0  0
  -28.7675  -16.3266   21.5989 C   0  0  0  0  0  0
  -29.0037  -23.2812   20.3423 C   0  0  0  0  0  0
  -30.2818  -17.7285   20.2495 C   0  0  0  0  0  0
  -27.9715  -24.5894   20.0192 C   0  0  0  0  0  0
  -29.8296  -16.2428   20.5972 N   0  0  0  0  0  0
  -31.4704  -12.7827   19.1715 H   0  0  0  0  0  0
  -30.4389  -11.6765   20.0174 H   0  0  0  0  0  0
  -29.8501  -11.7504   17.5809 H   0  0  0  0  0  0
  -29.6094  -13.4784   17.6649 H   0  0  0  0  0  0
  -27.9339  -11.2995   18.9276 H   0  0  0  0  0  0
  -27.3942  -12.5099   17.7874 H   0  0  0  0  0  0
  -27.5988  -14.2618   19.4270 H   0  0  0  0  0  0
  -28.8044  -12.2393   21.3822 H   0  0  0  0  0  0
  -28.3439  -13.8408   21.8020 H   0  0  0  0  0  0
  -25.2840   -9.5700   22.4716 H   0  0  0  0  0  0
  -24.0059   -7.4672   22.7468 H   0  0  0  0  0  0
  -21.0887   -8.8838   19.8956 H   0  0  0  0  0  0
  -22.3786  -10.9703   19.6155 H   0  0  0  0  0  0
  -21.2017   -7.6175   23.9742 H   0  0  0  0  0  0
  -21.1464   -6.0525   25.9076 H   0  0  0  0  0  0
  -22.0594   -2.7644   23.2805 H   0  0  0  0  0  0
  -22.4175  -11.9831   22.4774 H   0  0  0  0  0  0
  -21.1142  -13.1170   22.2693 H   0  0  0  0  0  0
  -24.6339  -15.8435   20.5302 H   0  0  0  0  0  0
  -26.2368  -15.6390   20.0346 H   0  0  0  0  0  0
  -26.7271  -32.5304   23.1005 H   0  0  0  0  0  0
  -25.0084  -33.9625   25.0331 H   0  0  0  0  0  0
  -22.7510  -31.2933   21.3820 H   0  0  0  0  0  0
  -23.3758  -35.9573   23.3291 H   0  0  0  0  0  0
  -24.3566  -36.8901   22.2057 H   0  0  0  0  0  0
  -23.7230  -37.6443   23.6689 H   0  0  0  0  0  0
  -26.1628  -31.4668   20.6172 H   0  0  0  0  0  0
  -26.8763  -30.7628   22.0312 H   0  0  0  0  0  0
  -28.1267  -28.7748   21.2356 H   0  0  0  0  0  0
  -25.8866  -25.8417   18.9923 H   0  0  0  0  0  0
  -23.9630  -27.3090   18.9841 H   0  0  0  0  0  0
  -23.8264  -30.5829   19.4027 H   0  0  0  0  0  0
  -22.7866  -29.2564   19.8300 H   0  0  0  0  0  0
  -25.1306  -36.1861   25.0810 H   0  0  0  0  0  0
  -21.0029  -28.3334   24.1347 H   0  0  0  0  0  0
  -20.5697  -26.2348   23.3637 H   0  0  0  0  0  0
  -21.6662  -26.7438   22.1203 H   0  0  0  0  0  0
  -19.6929  -25.6287   21.1270 H   0  0  0  0  0  0
  -19.6704  -27.3175   20.6741 H   0  0  0  0  0  0
  -17.4221  -26.6683   21.4037 H   0  0  0  0  0  0
  -18.0348  -26.0092   22.9040 H   0  0  0  0  0  0
  -19.7962  -30.7293   24.2252 H   0  0  0  0  0  0
  -17.5037  -31.6268   24.5175 H   0  0  0  0  0  0
  -15.5374  -30.2993   23.7658 H   0  0  0  0  0  0
  -15.8701  -28.0830   22.7070 H   0  0  0  0  0  0
  -24.5878  -30.7123   25.7740 H   0  0  0  0  0  0
  -24.8892  -32.2958   26.4786 H   0  0  0  0  0  0
  -25.7975  -30.8980   27.0234 H   0  0  0  0  0  0
  -26.3011  -29.6698   24.1296 H   0  0  0  0  0  0
  -27.3995  -29.7271   25.4876 H   0  0  0  0  0  0
  -27.8921  -30.4223   23.9632 H   0  0  0  0  0  0
  -27.2629  -33.3666   26.2037 H   0  0  0  0  0  0
  -28.3891  -32.6881   25.0372 H   0  0  0  0  0  0
  -28.0675  -31.8511   26.5486 H   0  0  0  0  0  0
  -28.2581  -38.0091   24.7511 H   0  0  0  0  0  0
  -28.1074  -36.2619   24.6291 H   0  0  0  0  0  0
  -27.2289  -37.1435   25.8869 H   0  0  0  0  0  0
  -20.9472  -29.8773   21.6778 H   0  0  0  0  0  0
  -26.0143  -38.2815   24.1431 H   0  0  0  0  0  0
  -26.1100  -19.6924   19.0086 H   0  0  0  0  0  0
  -26.6611  -22.0269   19.4934 H   0  0  0  0  0  0
  -27.6882  -17.8520   19.3276 H   0  0  0  0  0  0
  -30.6369  -20.7319   20.6312 H   0  0  0  0  0  0
  -29.0227  -15.7419   22.4801 H   0  0  0  0  0  0
  -27.8185  -15.9957   21.1857 H   0  0  0  0  0  0
  -28.6116  -17.3442   21.9648 H   0  0  0  0  0  0
  -29.9407  -23.4904   19.8276 H   0  0  0  0  0  0
  -29.2441  -23.3544   21.4018 H   0  0  0  0  0  0
  -31.0298  -17.9981   20.9944 H   0  0  0  0  0  0
  -30.8453  -17.6419   19.3147 H   0  0  0  0  0  0
  -27.0613  -24.3941   20.5902 H   0  0  0  0  0  0
  -27.6759  -24.4690   18.9758 H   0  0  0  0  0  0
  1 25  1  0  0  0
  1 30  2  0  0  0
  1 81  1  0  0  0
  2  3  1  0  0  0
  2 25  1  0  0  0
  2 82  1  0  0  0
  2 83  1  0  0  0
  3  4  1  0  0  0
  3 84  1  0  0  0
  3 85  1  0  0  0
  4  5  1  0  0  0
  4 86  1  0  0  0
  4 87  1  0  0  0
  5  6  1  0  0  0
  5 26  1  0  0  0
  5 88  1  0  0  0
  6 25  1  0  0  0
  6 89  1  0  0  0
  6 90  1  0  0  0
  7  8  2  0  0  0
  7 26  1  0  0  0
  7 29  1  0  0  0
  8  9  1  0  0  0
  8 22  1  0  0  0
  9 10  1  0  0  0
  9 27  2  0  0  0
 10 11  2  0  0  0
 10 15  1  0  0  0
 11 12  1  0  0  0
 11 91  1  0  0  0
 12 13  2  0  0  0
 12 92  1  0  0  0
 13 14  1  0  0  0
 13 31  1  0  0  0
 14 15  2  0  0  0
 14 93  1  0  0  0
 15 94  1  0  0  0
 16 17  2  0  0  0
 16 21  1  0  0  0
 16 31  1  0  0  0
 17 18  1  0  0  0
 17 95  1  0  0  0
 18 19  2  0  0  0
 18 96  1  0  0  0
 19 20  1  0  0  0
 19 24  1  0  0  0
 20 21  2  0  0  0
 20 97  1  0  0  0
 21 23  1  0  0  0
 22 28  1  0  0  0
 22 32  2  0  0  0
 26 27  1  0  0  0
 28 98  1  0  0  0
 28 99  1  0  0  0
 29100  1  0  0  0
 29101  1  0  0  0
 33 34  1  0  0  0
 33 66  1  0  0  0
 33 70  2  0  0  0
 34 36  1  0  0  0
 34 59  1  0  0  0
 34102  1  0  0  0
 35 44  2  0  0  0
 35 45  1  0  0  0
 35 68  1  0  0  0
 36 56  1  0  0  0
 36103  1  0  0  0
 37 39  1  0  0  0
 37 47  1  0  0  0
 37 66  1  0  0  0
 37104  1  0  0  0
 38 43  2  0  0  0
 38 46  1  0  0  0
 38 47  1  0  0  0
 39 64  1  0  0  0
 39 67  2  0  0  0
 40 52  1  0  0  0
 40 53  2  0  0  0
 40 58  1  0  0  0
 41105  1  0  0  0
 41106  1  0  0  0
 41107  1  0  0  0
 41 48  1  0  0  0
 42 43  1  0  0  0
 42 66  1  0  0  0
 42108  1  0  0  0
 42109  1  0  0  0
 43 44  1  0  0  0
 44110  1  0  0  0
 45 46  2  0  0  0
 45111  1  0  0  0
 46112  1  0  0  0
 47113  1  0  0  0
 47114  1  0  0  0
 48 56  1  0  0  0
 48 65  1  0  0  0
 48115  1  0  0  0
 49 50  1  0  0  0
 49 53  1  0  0  0
 49 64  1  0  0  0
 49116  1  0  0  0
 50 51  1  0  0  0
 50117  1  0  0  0
 50118  1  0  0  0
 51 52  1  0  0  0
 51119  1  0  0  0
 51120  1  0  0  0
 52121  1  0  0  0
 52122  1  0  0  0
 53 54  1  0  0  0
 54 55  2  0  0  0
 54123  1  0  0  0
 55 57  1  0  0  0
 55124  1  0  0  0
 56 69  2  0  0  0
 57 58  2  0  0  0
 57125  1  0  0  0
 58126  1  0  0  0
 59 60  1  0  0  0
 59 61  1  0  0  0
 59 62  1  0  0  0
 60127  1  0  0  0
 60128  1  0  0  0
 60129  1  0  0  0
 61130  1  0  0  0
 61131  1  0  0  0
 61132  1  0  0  0
 62133  1  0  0  0
 62134  1  0  0  0
 62135  1  0  0  0
 63 65  1  0  0  0
 63136  1  0  0  0
 63137  1  0  0  0
 63138  1  0  0  0
 64139  1  0  0  0
 65140  1  0  0  0
 68 80  1  0  0  0
 71 72  2  0  0  0
 71 73  1  0  0  0
 71141  1  0  0  0
 72 75  1  0  0  0
 72142  1  0  0  0
 73 76  2  0  0  0
 73143  1  0  0  0
 74 75  2  0  0  0
 74 76  1  0  0  0
 74144  1  0  0  0
 75 78  1  0  0  0
 76 79  1  0  0  0
 77 81  1  0  0  0
 77145  1  0  0  0
 77146  1  0  0  0
 77147  1  0  0  0
 78 80  1  0  0  0
 78148  1  0  0  0
 78149  1  0  0  0
 79 81  1  0  0  0
 79150  1  0  0  0
 79151  1  0  0  0
 80152  1  0  0  0
 80153  1  0  0  0
M  ISO  4   1 100  68 101  80 101  81 100
M  END
> <chiral flag>
0

> <version>
0

> <s_m_source_file>
/data/baiqing/PycharmProjects/Reinvent-master-3.2/result/LINK_invent/BTK/process_docking_weight1_custom_product_contain_oxygen_bond_distance_aromatic_linkinvent_7_9_3/rearranged_h_0014.sdf

> <i_m_source_file_index>
79

> <r_mmod_Potential_Energy-OPLS-2005>
639.065795898438

> <r_mmod_Stretch_Energy-OPLS-2005>
286.681701660156

> <r_mmod_Bend_Energy-OPLS-2005>
257.672210693359

> <r_mmod_Torsional_Energy-OPLS-2005>
240.477172851562

> <r_mmod_Improper_Torsional_Energy-OPLS-2005>
7.48887968063354

> <r_mmod_Van_der_Waal_Energy-OPLS-2005>
137.051651000977

> <r_mmod_Electrostatic_Energy-OPLS-2005>
-298.633911132812

> <r_mmod_Solvation_Energy-OPLS-2005>
-200.149215698242

> <b_mmod_Minimization_Converged-OPLS-2005>
0

> <r_mmod_RMS_Derivative-OPLS-2005>
5.41818809509277

$$$$
81
                    3D
 Structure written by MMmdl.
153162  0  0  1  0            999 V2000
  -30.5041  -14.9487   20.4277 C   0  0  0  0  0  0
  -30.4546  -12.5902   19.4880 C   0  0  0  0  0  0
  -29.5250  -12.5287   18.2517 C   0  0  0  0  0  0
  -28.0582  -12.3085   18.6739 C   0  0  0  0  0  0
  -27.6339  -13.2393   19.8399 C   0  0  2  0  0  0
  -28.6783  -13.2464   20.9767 C   0  0  0  0  0  0
  -25.2496  -13.8204   20.5718 C   0  0  0  0  0  0
  -24.1801  -13.0435   20.9234 C   0  0  0  0  0  0
  -24.6400  -11.6915   20.8762 C   0  0  0  0  0  0
  -23.9078  -10.4289   21.0417 C   0  0  0  0  0  0
  -24.3627   -9.4204   21.9189 C   0  0  0  0  0  0
  -23.6299   -8.2241   22.0758 C   0  0  0  0  0  0
  -22.4280   -8.0284   21.3547 C   0  0  0  0  0  0
  -21.9918   -9.0258   20.4646 C   0  0  0  0  0  0
  -22.7253  -10.2133   20.3058 C   0  0  0  0  0  0
  -21.6852   -6.0742   22.5281 C   0  0  0  0  0  0
  -21.4013   -6.5643   23.8215 C   0  0  0  0  0  0
  -21.3659   -5.6793   24.9174 C   0  0  0  0  0  0
  -21.6043   -4.3057   24.7221 C   0  0  0  0  0  0
  -21.8819   -3.8149   23.4342 C   0  0  0  0  0  0
  -21.9192   -4.6969   22.3402 C   0  0  0  0  0  0
  -22.7816  -13.5211   21.1889 C   0  0  0  0  0  0
  -22.1658   -4.2157   21.0981 F   0  0  0  0  0  0
  -21.5629   -3.4539   25.7733 F   0  0  0  0  0  0
  -29.9540  -13.6702   20.3818 N   0  0  0  0  0  0
  -26.2908  -12.9410   20.3238 N   0  0  0  0  0  0
  -25.9330  -11.6549   20.5738 N   0  0  0  0  0  0
  -22.0458  -12.8197   22.0434 N   0  0  0  0  0  0
  -25.4149  -15.1943   20.4162 N   0  0  0  0  0  0
  -31.7096  -15.0666   20.1789 O   0  0  0  0  0  0
  -21.6640   -6.8886   21.4242 O   0  0  0  0  0  0
  -22.3499  -14.5522   20.6739 O   0  0  0  0  0  0
  -24.6432  -31.8427   23.1850 C   0  0  0  0  0  0
  -25.9197  -32.4697   23.8249 C   0  0  1  0  0  0
  -27.2259  -27.1367   20.1660 C   0  0  0  0  0  0
  -25.5945  -33.8500   24.2180 N   0  0  0  0  0  0
  -23.4479  -30.4591   21.5304 C   0  0  2  0  0  0
  -24.8984  -28.8748   20.1182 C   0  0  0  0  0  0
  -22.7566  -29.4542   22.4858 C   0  0  0  0  0  0
  -18.0300  -28.1404   22.8483 C   0  0  0  0  0  0
  -24.1480  -36.7244   23.2642 C   0  0  0  0  0  0
  -26.0014  -30.7197   21.3784 C   0  0  0  0  0  0
  -26.0754  -29.3263   20.7290 C   0  0  0  0  0  0
  -27.2427  -28.4757   20.7276 C   0  0  0  0  0  0
  -26.0215  -26.7733   19.5305 C   0  0  0  0  0  0
  -24.8829  -27.6117   19.5033 C   0  0  0  0  0  0
  -23.6752  -29.7783   20.1534 C   0  0  0  0  0  0
  -25.4111  -36.3028   24.0319 C   0  0  1  0  0  0
  -20.5915  -28.3722   23.1240 C   0  0  2  0  0  0
  -20.6783  -26.9425   22.5405 C   0  0  0  0  0  0
  -19.5754  -26.6387   21.5216 C   0  0  0  0  0  0
  -18.1935  -26.7946   22.1625 C   0  0  0  0  0  0
  -19.1558  -28.8879   23.2857 C   0  0  0  0  0  0
  -18.9481  -30.1477   23.8882 C   0  0  0  0  0  0
  -17.6479  -30.6603   24.0566 C   0  0  0  0  0  0
  -25.9068  -34.9410   23.5059 C   0  0  0  0  0  0
  -16.5367  -29.9101   23.6342 C   0  0  0  0  0  0
  -16.7285  -28.6518   23.0363 C   0  0  0  0  0  0
  -26.4524  -31.6563   25.0689 C   0  0  0  0  0  0
  -25.3722  -31.3760   26.1398 C   0  0  0  0  0  0
  -27.0376  -30.2964   24.6237 C   0  0  0  0  0  0
  -27.6060  -32.4319   25.7476 C   0  0  0  0  0  0
  -27.5572  -37.1764   24.8460 C   0  0  0  0  0  0
  -21.4258  -29.3055   22.3613 N   0  0  0  0  0  0
  -26.4267  -37.3751   23.9432 N   0  0  0  0  0  0
  -24.7178  -31.0284   22.0876 N   0  0  0  0  0  0
  -23.4207  -28.8095   23.3016 O   0  0  0  0  0  0
  -28.3080  -26.1877   20.1615 O   0  0  0  0  0  0
  -26.5656  -34.8913   22.4638 O   0  0  0  0  0  0
  -23.5550  -32.1284   23.7075 O   0  0  0  0  0  0
  -30.2724  -19.9540   21.1842 C   0  0  0  0  0  0
  -30.4759  -18.5089   21.1566 C   0  0  0  0  0  0
  -28.4171  -19.7578   19.7614 C   0  0  0  0  0  0
  -29.2301  -20.6841   20.4977 C   0  0  0  0  0  0
  -29.6301  -17.5898   20.4517 C   0  0  0  0  0  0
  -28.5875  -18.3078   19.7625 C   0  0  0  0  0  0
  -29.2036  -24.3813   21.6978 C   0  0  0  0  0  0
  -29.2786  -22.8317   21.9033 C   0  0  0  0  0  0
  -28.4313  -23.2906   19.7547 C   0  0  0  0  0  0
  -28.1731  -24.6957   20.5955 C   0  0  2  0  0  0
  -29.0260  -22.1660   20.6225 N   0  0  0  0  0  0
  -29.6201  -16.0545   20.5264 N   0  0  0  0  0  0
  -27.6779  -17.5666   19.0837 F   0  0  0  0  0  0
  -31.4824  -12.7750   19.1718 H   0  0  0  0  0  0
  -30.4699  -11.6337   20.0126 H   0  0  0  0  0  0
  -29.8448  -11.7327   17.5778 H   0  0  0  0  0  0
  -29.6054  -13.4584   17.6865 H   0  0  0  0  0  0
  -27.9592  -11.2672   18.9830 H   0  0  0  0  0  0
  -27.3916  -12.4364   17.8201 H   0  0  0  0  0  0
  -27.6001  -14.2432   19.4162 H   0  0  0  0  0  0
  -28.7685  -12.2610   21.4366 H   0  0  0  0  0  0
  -28.3779  -13.9302   21.7728 H   0  0  0  0  0  0
  -25.2775   -9.5681   22.4761 H   0  0  0  0  0  0
  -24.0007   -7.4633   22.7479 H   0  0  0  0  0  0
  -21.0850   -8.8780   19.8949 H   0  0  0  0  0  0
  -22.3720  -10.9673   19.6164 H   0  0  0  0  0  0
  -21.2003   -7.6151   23.9722 H   0  0  0  0  0  0
  -21.1480   -6.0521   25.9079 H   0  0  0  0  0  0
  -22.0599   -2.7611   23.2838 H   0  0  0  0  0  0
  -22.4066  -11.9845   22.4809 H   0  0  0  0  0  0
  -21.1074  -13.1221   22.2641 H   0  0  0  0  0  0
  -24.6406  -15.8370   20.5432 H   0  0  0  0  0  0
  -26.2372  -15.6466   20.0374 H   0  0  0  0  0  0
  -26.7264  -32.5309   23.0978 H   0  0  0  0  0  0
  -25.0088  -33.9609   25.0330 H   0  0  0  0  0  0
  -22.7514  -31.2845   21.3702 H   0  0  0  0  0  0
  -23.3760  -35.9558   23.3274 H   0  0  0  0  0  0
  -24.3570  -36.8896   22.2061 H   0  0  0  0  0  0
  -23.7203  -37.6424   23.6686 H   0  0  0  0  0  0
  -26.1457  -31.4684   20.5980 H   0  0  0  0  0  0
  -26.8771  -30.7813   22.0130 H   0  0  0  0  0  0
  -28.1477  -28.8247   21.2046 H   0  0  0  0  0  0
  -25.9524  -25.8025   19.0594 H   0  0  0  0  0  0
  -23.9827  -27.2592   19.0189 H   0  0  0  0  0  0
  -23.8138  -30.5472   19.3925 H   0  0  0  0  0  0
  -22.7910  -29.2178   19.8442 H   0  0  0  0  0  0
  -25.1292  -36.1846   25.0810 H   0  0  0  0  0  0
  -21.0006  -28.3305   24.1361 H   0  0  0  0  0  0
  -20.5671  -26.2338   23.3626 H   0  0  0  0  0  0
  -21.6647  -26.7426   22.1200 H   0  0  0  0  0  0
  -19.6915  -25.6295   21.1250 H   0  0  0  0  0  0
  -19.6694  -27.3197   20.6747 H   0  0  0  0  0  0
  -17.4205  -26.6696   21.4028 H   0  0  0  0  0  0
  -18.0329  -26.0097   22.9026 H   0  0  0  0  0  0
  -19.7960  -30.7299   24.2240 H   0  0  0  0  0  0
  -17.5038  -31.6284   24.5167 H   0  0  0  0  0  0
  -15.5369  -30.3004   23.7684 H   0  0  0  0  0  0
  -15.8680  -28.0836   22.7093 H   0  0  0  0  0  0
  -24.5904  -30.7097   25.7730 H   0  0  0  0  0  0
  -24.8917  -32.2953   26.4757 H   0  0  0  0  0  0
  -25.8021  -30.8982   27.0210 H   0  0  0  0  0  0
  -26.2974  -29.6698   24.1247 H   0  0  0  0  0  0
  -27.4017  -29.7241   25.4780 H   0  0  0  0  0  0
  -27.8868  -30.4213   23.9515 H   0  0  0  0  0  0
  -27.2669  -33.3665   26.1953 H   0  0  0  0  0  0
  -28.3934  -32.6790   25.0344 H   0  0  0  0  0  0
  -28.0651  -31.8498   26.5475 H   0  0  0  0  0  0
  -28.2545  -38.0106   24.7564 H   0  0  0  0  0  0
  -28.1109  -36.2635   24.6205 H   0  0  0  0  0  0
  -27.2306  -37.1310   25.8866 H   0  0  0  0  0  0
  -20.9464  -29.8775   21.6799 H   0  0  0  0  0  0
  -26.0126  -38.2803   24.1496 H   0  0  0  0  0  0
  -30.9723  -20.5185   21.7831 H   0  0  0  0  0  0
  -31.2846  -18.1031   21.7470 H   0  0  0  0  0  0
  -27.5822  -20.1552   19.2042 H   0  0  0  0  0  0
  -30.1810  -24.7370   21.3703 H   0  0  0  0  0  0
  -28.9774  -24.9026   22.6282 H   0  0  0  0  0  0
  -28.5104  -22.5178   22.6114 H   0  0  0  0  0  0
  -30.2415  -22.5510   22.3301 H   0  0  0  0  0  0
  -29.1354  -23.4884   18.9457 H   0  0  0  0  0  0
  -27.5066  -22.9572   19.2810 H   0  0  0  0  0  0
  -27.1868  -24.6017   21.0531 H   0  0  0  0  0  0
  -28.6743  -15.7065   20.5422 H   0  0  0  0  0  0
  1 25  1  0  0  0
  1 30  2  0  0  0
  1 82  1  0  0  0
  2  3  1  0  0  0
  2 25  1  0  0  0
  2 84  1  0  0  0
  2 85  1  0  0  0
  3  4  1  0  0  0
  3 86  1  0  0  0
  3 87  1  0  0  0
  4  5  1  0  0  0
  4 88  1  0  0  0
  4 89  1  0  0  0
  5  6  1  0  0  0
  5 26  1  0  0  0
  5 90  1  0  0  0
  6 25  1  0  0  0
  6 91  1  0  0  0
  6 92  1  0  0  0
  7  8  2  0  0  0
  7 26  1  0  0  0
  7 29  1  0  0  0
  8  9  1  0  0  0
  8 22  1  0  0  0
  9 10  1  0  0  0
  9 27  2  0  0  0
 10 11  2  0  0  0
 10 15  1  0  0  0
 11 12  1  0  0  0
 11 93  1  0  0  0
 12 13  2  0  0  0
 12 94  1  0  0  0
 13 14  1  0  0  0
 13 31  1  0  0  0
 14 15  2  0  0  0
 14 95  1  0  0  0
 15 96  1  0  0  0
 16 17  2  0  0  0
 16 21  1  0  0  0
 16 31  1  0  0  0
 17 18  1  0  0  0
 17 97  1  0  0  0
 18 19  2  0  0  0
 18 98  1  0  0  0
 19 20  1  0  0  0
 19 24  1  0  0  0
 20 21  2  0  0  0
 20 99  1  0  0  0
 21 23  1  0  0  0
 22 28  1  0  0  0
 22 32  2  0  0  0
 26 27  1  0  0  0
 28100  1  0  0  0
 28101  1  0  0  0
 29102  1  0  0  0
 29103  1  0  0  0
 33 34  1  0  0  0
 33 66  1  0  0  0
 33 70  2  0  0  0
 34 36  1  0  0  0
 34 59  1  0  0  0
 34104  1  0  0  0
 35 44  2  0  0  0
 35 45  1  0  0  0
 35 68  1  0  0  0
 36 56  1  0  0  0
 36105  1  0  0  0
 37 39  1  0  0  0
 37 47  1  0  0  0
 37 66  1  0  0  0
 37106  1  0  0  0
 38 43  2  0  0  0
 38 46  1  0  0  0
 38 47  1  0  0  0
 39 64  1  0  0  0
 39 67  2  0  0  0
 40 52  1  0  0  0
 40 53  2  0  0  0
 40 58  1  0  0  0
 41107  1  0  0  0
 41108  1  0  0  0
 41109  1  0  0  0
 41 48  1  0  0  0
 42 43  1  0  0  0
 42 66  1  0  0  0
 42110  1  0  0  0
 42111  1  0  0  0
 43 44  1  0  0  0
 44112  1  0  0  0
 45 46  2  0  0  0
 45113  1  0  0  0
 46114  1  0  0  0
 47115  1  0  0  0
 47116  1  0  0  0
 48 56  1  0  0  0
 48 65  1  0  0  0
 48117  1  0  0  0
 49 50  1  0  0  0
 49 53  1  0  0  0
 49 64  1  0  0  0
 49118  1  0  0  0
 50 51  1  0  0  0
 50119  1  0  0  0
 50120  1  0  0  0
 51 52  1  0  0  0
 51121  1  0  0  0
 51122  1  0  0  0
 52123  1  0  0  0
 52124  1  0  0  0
 53 54  1  0  0  0
 54 55  2  0  0  0
 54125  1  0  0  0
 55 57  1  0  0  0
 55126  1  0  0  0
 56 69  2  0  0  0
 57 58  2  0  0  0
 57127  1  0  0  0
 58128  1  0  0  0
 59 60  1  0  0  0
 59 61  1  0  0  0
 59 62  1  0  0  0
 60129  1  0  0  0
 60130  1  0  0  0
 60131  1  0  0  0
 61132  1  0  0  0
 61133  1  0  0  0
 61134  1  0  0  0
 62135  1  0  0  0
 62136  1  0  0  0
 62137  1  0  0  0
 63 65  1  0  0  0
 63138  1  0  0  0
 63139  1  0  0  0
 63140  1  0  0  0
 64141  1  0  0  0
 65142  1  0  0  0
 68 80  1  0  0  0
 71 72  2  0  0  0
 71 74  1  0  0  0
 71143  1  0  0  0
 72 75  1  0  0  0
 72144  1  0  0  0
 73 74  2  0  0  0
 73 76  1  0  0  0
 73145  1  0  0  0
 74 81  1  0  0  0
 75 76  2  0  0  0
 75 82  1  0  0  0
 76 83  1  0  0  0
 77 78  1  0  0  0
 77 80  1  0  0  0
 77146  1  0  0  0
 77147  1  0  0  0
 78 81  1  0  0  0
 78148  1  0  0  0
 78149  1  0  0  0
 79 80  1  0  0  0
 79 81  1  0  0  0
 79150  1  0  0  0
 79151  1  0  0  0
 80152  1  0  0  0
 82153  1  0  0  0
M  ISO  4   1 100  68 101  80 101  82 100
M  END
> <chiral flag>
0

> <version>
0

> <s_m_source_file>
/data/baiqing/PycharmProjects/Reinvent-master-3.2/result/LINK_invent/BTK/process_docking_weight1_custom_product_contain_oxygen_bond_distance_aromatic_linkinvent_7_9_3/rearranged_h_0014.sdf

> <i_m_source_file_index>
80

> <r_mmod_Potential_Energy-OPLS-2005>
511.134216308594

> <r_mmod_Stretch_Energy-OPLS-2005>
215.138229370117

> <r_mmod_Bend_Energy-OPLS-2005>
311.854766845703

> <r_mmod_Torsional_Energy-OPLS-2005>
297.146484375

> <r_mmod_Improper_Torsional_Energy-OPLS-2005>
6.74517917633057

> <r_mmod_Van_der_Waal_Energy-OPLS-2005>
122.15104675293

> <r_mmod_Electrostatic_Energy-OPLS-2005>
-410.138092041016

> <r_mmod_Solvation_Energy-OPLS-2005>
-221.11376953125

> <b_mmod_Minimization_Converged-OPLS-2005>
0

> <r_mmod_RMS_Derivative-OPLS-2005>
0.983909428119659

$$$$
82
                    3D
 Structure written by MMmdl.
160169  0  0  1  0            999 V2000
  -30.6241  -14.7909   20.4434 C   0  0  0  0  0  0
  -30.4528  -12.4964   19.4381 C   0  0  0  0  0  0
  -29.4984  -12.4674   18.2229 C   0  0  0  0  0  0
  -28.0409  -12.2180   18.6668 C   0  0  0  0  0  0
  -27.6342  -13.1251   19.8470 C   0  0  2  0  0  0
  -28.7147  -13.1091   20.9668 C   0  0  0  0  0  0
  -25.2471  -13.7839   20.5669 C   0  0  0  0  0  0
  -24.1730  -13.0227   20.9255 C   0  0  0  0  0  0
  -24.6257  -11.6703   20.8850 C   0  0  0  0  0  0
  -23.8928  -10.4164   21.0473 C   0  0  0  0  0  0
  -24.3522   -9.4099   21.9227 C   0  0  0  0  0  0
  -23.6216   -8.2141   22.0767 C   0  0  0  0  0  0
  -22.4207   -8.0204   21.3539 C   0  0  0  0  0  0
  -21.9826   -9.0172   20.4642 C   0  0  0  0  0  0
  -22.7138  -10.2047   20.3073 C   0  0  0  0  0  0
  -21.6816   -6.0695   22.5281 C   0  0  0  0  0  0
  -21.3992   -6.5616   23.8214 C   0  0  0  0  0  0
  -21.3646   -5.6775   24.9182 C   0  0  0  0  0  0
  -21.6038   -4.3038   24.7234 C   0  0  0  0  0  0
  -21.8827   -3.8125   23.4361 C   0  0  0  0  0  0
  -21.9182   -4.6932   22.3411 C   0  0  0  0  0  0
  -22.7784  -13.5125   21.1893 C   0  0  0  0  0  0
  -22.1660   -4.2124   21.0988 F   0  0  0  0  0  0
  -21.5623   -3.4527   25.7750 F   0  0  0  0  0  0
  -29.9784  -13.5614   20.3550 N   0  0  0  0  0  0
  -26.2867  -12.8873   20.3362 N   0  0  0  0  0  0
  -25.9156  -11.6143   20.5909 N   0  0  0  0  0  0
  -22.0401  -12.8174   22.0466 N   0  0  0  0  0  0
  -25.3927  -15.1548   20.3943 N   0  0  0  0  0  0
  -31.8367  -14.8236   20.2110 O   0  0  0  0  0  0
  -21.6578   -6.8813   21.4235 O   0  0  0  0  0  0
  -22.3518  -14.5450   20.6723 O   0  0  0  0  0  0
  -24.6232  -31.8598   23.2017 C   0  0  0  0  0  0
  -25.9098  -32.4777   23.8338 C   0  0  1  0  0  0
  -27.2601  -27.3522   20.1107 C   0  0  0  0  0  0
  -25.5925  -33.8576   24.2266 N   0  0  0  0  0  0
  -23.4174  -30.4785   21.5433 C   0  0  2  0  0  0
  -24.8714  -28.9314   20.1134 C   0  0  0  0  0  0
  -22.7467  -29.4606   22.4956 C   0  0  0  0  0  0
  -18.0275  -28.1366   22.8480 C   0  0  0  0  0  0
  -24.1485  -36.7293   23.2643 C   0  0  0  0  0  0
  -25.9544  -30.7992   21.3689 C   0  0  0  0  0  0
  -26.0353  -29.4277   20.7131 C   0  0  0  0  0  0
  -27.2270  -28.6494   20.7027 C   0  0  0  0  0  0
  -26.0684  -26.8943   19.4962 C   0  0  0  0  0  0
  -24.8888  -27.6675   19.4989 C   0  0  0  0  0  0
  -23.6336  -29.8049   20.1614 C   0  0  0  0  0  0
  -25.4113  -36.3082   24.0329 C   0  0  1  0  0  0
  -20.5873  -28.3671   23.1285 C   0  0  2  0  0  0
  -20.6767  -26.9398   22.5414 C   0  0  0  0  0  0
  -19.5747  -26.6371   21.5206 C   0  0  0  0  0  0
  -18.1919  -26.7907   22.1612 C   0  0  0  0  0  0
  -19.1527  -28.8837   23.2866 C   0  0  0  0  0  0
  -18.9456  -30.1437   23.8880 C   0  0  0  0  0  0
  -17.6468  -30.6579   24.0556 C   0  0  0  0  0  0
  -25.9050  -34.9454   23.5097 C   0  0  0  0  0  0
  -16.5350  -29.9079   23.6335 C   0  0  0  0  0  0
  -16.7265  -28.6497   23.0353 C   0  0  0  0  0  0
  -26.4497  -31.6589   25.0710 C   0  0  0  0  0  0
  -25.3737  -31.3726   26.1450 C   0  0  0  0  0  0
  -27.0348  -30.3015   24.6155 C   0  0  0  0  0  0
  -27.6048  -32.4341   25.7486 C   0  0  0  0  0  0
  -27.5573  -37.1805   24.8472 C   0  0  0  0  0  0
  -21.4183  -29.3023   22.3691 N   0  0  0  0  0  0
  -26.4294  -37.3773   23.9404 N   0  0  0  0  0  0
  -24.6829  -31.0625   22.0954 N   0  0  0  0  0  0
  -23.4195  -28.8150   23.3036 O   0  0  0  0  0  0
  -28.4229  -26.5676   20.1529 O   0  0  0  0  0  0
  -26.5628  -34.8925   22.4667 O   0  0  0  0  0  0
  -23.5407  -32.1390   23.7363 O   0  0  0  0  0  0
  -31.6493  -19.4820   20.3186 C   0  0  0  0  0  0
  -31.5836  -18.0443   20.3230 C   0  0  0  0  0  0
  -29.3506  -19.6578   21.0328 C   0  0  0  0  0  0
  -29.3029  -18.2447   21.0104 C   0  0  0  0  0  0
  -30.5369  -20.3235   20.6567 C   0  0  0  0  0  0
  -30.3680  -17.3975   20.6600 C   0  0  0  0  0  0
  -28.0636  -17.4543   21.1814 C   0  0  0  0  0  0
  -28.4443  -16.1813   20.4153 C   0  0  1  0  0  0
  -28.0987  -16.3991   18.9106 C   0  0  0  0  0  0
  -30.6395  -21.8924   20.7043 C   0  0  0  0  0  0
  -29.5910  -24.2402   20.3784 C   0  0  0  0  0  0
  -28.3354  -25.1114   19.9415 C   0  0  0  0  0  0
  -29.9078  -16.0026   20.5462 N   0  0  0  0  0  0
  -29.4881  -22.7311   20.1893 N   0  3  0  0  0  0
  -31.4750  -12.6667   19.0955 H   0  0  0  0  0  0
  -30.4719  -11.5296   19.9437 H   0  0  0  0  0  0
  -29.8094  -11.6905   17.5231 H   0  0  0  0  0  0
  -29.5624  -13.4117   17.6805 H   0  0  0  0  0  0
  -27.9556  -11.1732   18.9676 H   0  0  0  0  0  0
  -27.3578  -12.3499   17.8268 H   0  0  0  0  0  0
  -27.5706  -14.0739   19.3578 H   0  0  0  0  0  0
  -28.8243  -12.0951   21.3555 H   0  0  0  0  0  0
  -28.4527  -13.7013   21.8429 H   0  0  0  0  0  0
  -25.2666   -9.5585   22.4796 H   0  0  0  0  0  0
  -23.9926   -7.4524   22.7475 H   0  0  0  0  0  0
  -21.0762   -8.8678   19.8942 H   0  0  0  0  0  0
  -22.3614  -10.9594   19.6180 H   0  0  0  0  0  0
  -21.1989   -7.6124   23.9711 H   0  0  0  0  0  0
  -21.1455   -6.0506   25.9081 H   0  0  0  0  0  0
  -22.0624   -2.7588   23.2868 H   0  0  0  0  0  0
  -22.3987  -11.9825   22.4857 H   0  0  0  0  0  0
  -21.1038  -13.1249   22.2687 H   0  0  0  0  0  0
  -24.6086  -15.7901   20.4963 H   0  0  0  0  0  0
  -26.2236  -15.5988   20.0291 H   0  0  0  0  0  0
  -26.7180  -32.5477   23.1102 H   0  0  0  0  0  0
  -25.0087  -33.9708   25.0420 H   0  0  0  0  0  0
  -22.7094  -31.2967   21.3956 H   0  0  0  0  0  0
  -23.3745  -35.9630   23.3324 H   0  0  0  0  0  0
  -24.3572  -36.8897   22.2058 H   0  0  0  0  0  0
  -23.7245  -37.6501   23.6655 H   0  0  0  0  0  0
  -26.0822  -31.5633   20.6008 H   0  0  0  0  0  0
  -26.8354  -30.8502   21.9975 H   0  0  0  0  0  0
  -28.1211  -29.0306   21.1779 H   0  0  0  0  0  0
  -26.0267  -25.9313   19.0088 H   0  0  0  0  0  0
  -23.9965  -27.2784   19.0272 H   0  0  0  0  0  0
  -23.7439  -30.5762   19.3980 H   0  0  0  0  0  0
  -22.7570  -29.2249   19.8671 H   0  0  0  0  0  0
  -25.1285  -36.1939   25.0822 H   0  0  0  0  0  0
  -20.9945  -28.3257   24.1409 H   0  0  0  0  0  0
  -20.5658  -26.2282   23.3612 H   0  0  0  0  0  0
  -21.6636  -26.7421   22.1203 H   0  0  0  0  0  0
  -19.6914  -25.6281   21.1232 H   0  0  0  0  0  0
  -19.6685  -27.3188   20.6738 H   0  0  0  0  0  0
  -17.4186  -26.6648   21.4021 H   0  0  0  0  0  0
  -18.0314  -26.0041   22.9002 H   0  0  0  0  0  0
  -19.7945  -30.7235   24.2252 H   0  0  0  0  0  0
  -17.5035  -31.6262   24.5151 H   0  0  0  0  0  0
  -15.5356  -30.2984   23.7668 H   0  0  0  0  0  0
  -15.8656  -28.0818   22.7083 H   0  0  0  0  0  0
  -24.5902  -30.7077   25.7783 H   0  0  0  0  0  0
  -24.8945  -32.2900   26.4880 H   0  0  0  0  0  0
  -25.8077  -30.8903   27.0218 H   0  0  0  0  0  0
  -26.2910  -29.6758   24.1204 H   0  0  0  0  0  0
  -27.4079  -29.7276   25.4646 H   0  0  0  0  0  0
  -27.8759  -30.4295   23.9339 H   0  0  0  0  0  0
  -27.2625  -33.3635   26.2047 H   0  0  0  0  0  0
  -28.3861  -32.6923   25.0325 H   0  0  0  0  0  0
  -28.0709  -31.8490   26.5423 H   0  0  0  0  0  0
  -28.2604  -38.0091   24.7495 H   0  0  0  0  0  0
  -28.1049  -36.2617   24.6314 H   0  0  0  0  0  0
  -27.2286  -37.1474   25.8877 H   0  0  0  0  0  0
  -20.9371  -29.8744   21.6892 H   0  0  0  0  0  0
  -26.0179  -38.2846   24.1407 H   0  0  0  0  0  0
  -32.5869  -19.9451   20.0429 H   0  0  0  0  0  0
  -32.4412  -17.4628   20.0143 H   0  0  0  0  0  0
  -28.4660  -20.2164   21.3037 H   0  0  0  0  0  0
  -27.1806  -17.9565   20.7831 H   0  0  0  0  0  0
  -27.9054  -17.2568   22.2430 H   0  0  0  0  0  0
  -27.8591  -15.4251   20.9019 H   0  0  0  0  0  0
  -28.4976  -17.3433   18.5380 H   0  0  0  0  0  0
  -27.0249  -16.4323   18.7307 H   0  0  0  0  0  0
  -28.5226  -15.6312   18.2634 H   0  0  0  0  0  0
  -31.5402  -22.1942   20.1683 H   0  0  0  0  0  0
  -30.8128  -22.1634   21.7466 H   0  0  0  0  0  0
  -29.7907  -24.4387   21.4315 H   0  0  0  0  0  0
  -30.4676  -24.5941   19.8350 H   0  0  0  0  0  0
  -27.4669  -24.7381   20.4861 H   0  0  0  0  0  0
  -28.1412  -24.9371   18.8827 H   0  0  0  0  0  0
  -28.6524  -22.4095   20.6499 H   0  0  0  0  0  0
  -29.3830  -22.5299   19.2065 H   0  0  0  0  0  0
  1 25  1  0  0  0
  1 30  2  0  0  0
  1 83  1  0  0  0
  2  3  1  0  0  0
  2 25  1  0  0  0
  2 85  1  0  0  0
  2 86  1  0  0  0
  3  4  1  0  0  0
  3 87  1  0  0  0
  3 88  1  0  0  0
  4  5  1  0  0  0
  4 89  1  0  0  0
  4 90  1  0  0  0
  5  6  1  0  0  0
  5 26  1  0  0  0
  5 91  1  0  0  0
  6 25  1  0  0  0
  6 92  1  0  0  0
  6 93  1  0  0  0
  7  8  2  0  0  0
  7 26  1  0  0  0
  7 29  1  0  0  0
  8  9  1  0  0  0
  8 22  1  0  0  0
  9 10  1  0  0  0
  9 27  2  0  0  0
 10 11  2  0  0  0
 10 15  1  0  0  0
 11 12  1  0  0  0
 11 94  1  0  0  0
 12 13  2  0  0  0
 12 95  1  0  0  0
 13 14  1  0  0  0
 13 31  1  0  0  0
 14 15  2  0  0  0
 14 96  1  0  0  0
 15 97  1  0  0  0
 16 17  2  0  0  0
 16 21  1  0  0  0
 16 31  1  0  0  0
 17 18  1  0  0  0
 17 98  1  0  0  0
 18 19  2  0  0  0
 18 99  1  0  0  0
 19 20  1  0  0  0
 19 24  1  0  0  0
 20 21  2  0  0  0
 20100  1  0  0  0
 21 23  1  0  0  0
 22 28  1  0  0  0
 22 32  2  0  0  0
 26 27  1  0  0  0
 28101  1  0  0  0
 28102  1  0  0  0
 29103  1  0  0  0
 29104  1  0  0  0
 33 34  1  0  0  0
 33 66  1  0  0  0
 33 70  2  0  0  0
 34 36  1  0  0  0
 34 59  1  0  0  0
 34105  1  0  0  0
 35 44  2  0  0  0
 35 45  1  0  0  0
 35 68  1  0  0  0
 36 56  1  0  0  0
 36106  1  0  0  0
 37 39  1  0  0  0
 37 47  1  0  0  0
 37 66  1  0  0  0
 37107  1  0  0  0
 38 43  2  0  0  0
 38 46  1  0  0  0
 38 47  1  0  0  0
 39 64  1  0  0  0
 39 67  2  0  0  0
 40 52  1  0  0  0
 40 53  2  0  0  0
 40 58  1  0  0  0
 41108  1  0  0  0
 41109  1  0  0  0
 41110  1  0  0  0
 41 48  1  0  0  0
 42 43  1  0  0  0
 42 66  1  0  0  0
 42111  1  0  0  0
 42112  1  0  0  0
 43 44  1  0  0  0
 44113  1  0  0  0
 45 46  2  0  0  0
 45114  1  0  0  0
 46115  1  0  0  0
 47116  1  0  0  0
 47117  1  0  0  0
 48 56  1  0  0  0
 48 65  1  0  0  0
 48118  1  0  0  0
 49 50  1  0  0  0
 49 53  1  0  0  0
 49 64  1  0  0  0
 49119  1  0  0  0
 50 51  1  0  0  0
 50120  1  0  0  0
 50121  1  0  0  0
 51 52  1  0  0  0
 51122  1  0  0  0
 51123  1  0  0  0
 52124  1  0  0  0
 52125  1  0  0  0
 53 54  1  0  0  0
 54 55  2  0  0  0
 54126  1  0  0  0
 55 57  1  0  0  0
 55127  1  0  0  0
 56 69  2  0  0  0
 57 58  2  0  0  0
 57128  1  0  0  0
 58129  1  0  0  0
 59 60  1  0  0  0
 59 61  1  0  0  0
 59 62  1  0  0  0
 60130  1  0  0  0
 60131  1  0  0  0
 60132  1  0  0  0
 61133  1  0  0  0
 61134  1  0  0  0
 61135  1  0  0  0
 62136  1  0  0  0
 62137  1  0  0  0
 62138  1  0  0  0
 63 65  1  0  0  0
 63139  1  0  0  0
 63140  1  0  0  0
 63141  1  0  0  0
 64142  1  0  0  0
 65143  1  0  0  0
 68 82  1  0  0  0
 71 72  2  0  0  0
 71 75  1  0  0  0
 71144  1  0  0  0
 72 76  1  0  0  0
 72145  1  0  0  0
 73 74  1  0  0  0
 73 75  2  0  0  0
 73146  1  0  0  0
 74 76  2  0  0  0
 74 77  1  0  0  0
 75 80  1  0  0  0
 76 83  1  0  0  0
 77 78  1  0  0  0
 77147  1  0  0  0
 77148  1  0  0  0
 78 79  1  0  0  0
 78 83  1  0  0  0
 78149  1  0  0  0
 79150  1  0  0  0
 79151  1  0  0  0
 79152  1  0  0  0
 80 84  1  0  0  0
 80153  1  0  0  0
 80154  1  0  0  0
 81 82  1  0  0  0
 81 84  1  0  0  0
 81155  1  0  0  0
 81156  1  0  0  0
 82157  1  0  0  0
 82158  1  0  0  0
 84159  1  0  0  0
 84160  1  0  0  0
M  CHG  1  84   1
M  ISO  4   1 100  68 101  82 101  83 100
M  END
> <chiral flag>
0

> <version>
0

> <s_m_source_file>
/data/baiqing/PycharmProjects/Reinvent-master-3.2/result/LINK_invent/BTK/process_docking_weight1_custom_product_contain_oxygen_bond_distance_aromatic_linkinvent_7_9_3/rearranged_h_0014.sdf

> <i_m_source_file_index>
81

> <r_mmod_Potential_Energy-OPLS-2005>
218.250259399414

> <r_mmod_Stretch_Energy-OPLS-2005>
93.8609237670898

> <r_mmod_Bend_Energy-OPLS-2005>
237.808563232422

> <r_mmod_Torsional_Energy-OPLS-2005>
272.146118164062

> <r_mmod_Improper_Torsional_Energy-OPLS-2005>
7.05941963195801

> <r_mmod_Van_der_Waal_Energy-OPLS-2005>
161.496032714844

> <r_mmod_Electrostatic_Energy-OPLS-2005>
-185.074127197266

> <r_mmod_Solvation_Energy-OPLS-2005>
-446.451843261719

> <b_mmod_Minimization_Converged-OPLS-2005>
0

> <r_mmod_RMS_Derivative-OPLS-2005>
1.46812689304352

$$$$
83
                    3D
 Structure written by MMmdl.
157165  0  0  1  0            999 V2000
  -30.7651  -14.4580   20.6320 C   0  0  0  0  0  0
  -30.4117  -12.3222   19.4319 C   0  0  0  0  0  0
  -29.4949  -12.5191   18.2080 C   0  0  0  0  0  0
  -28.0126  -12.3794   18.6067 C   0  0  0  0  0  0
  -27.6561  -13.2112   19.8674 C   0  0  2  0  0  0
  -28.6911  -12.9736   20.9836 C   0  0  0  0  0  0
  -25.2544  -13.8161   20.5659 C   0  0  0  0  0  0
  -24.1815  -13.0431   20.9171 C   0  0  0  0  0  0
  -24.6378  -11.6901   20.8720 C   0  0  0  0  0  0
  -23.9050  -10.4293   21.0399 C   0  0  0  0  0  0
  -24.3607   -9.4213   21.9180 C   0  0  0  0  0  0
  -23.6290   -8.2244   22.0745 C   0  0  0  0  0  0
  -22.4271   -8.0278   21.3541 C   0  0  0  0  0  0
  -21.9901   -9.0252   20.4641 C   0  0  0  0  0  0
  -22.7223  -10.2139   20.3053 C   0  0  0  0  0  0
  -21.6855   -6.0736   22.5285 C   0  0  0  0  0  0
  -21.4015   -6.5644   23.8225 C   0  0  0  0  0  0
  -21.3661   -5.6793   24.9184 C   0  0  0  0  0  0
  -21.6043   -4.3057   24.7226 C   0  0  0  0  0  0
  -21.8816   -3.8145   23.4346 C   0  0  0  0  0  0
  -21.9190   -4.6963   22.3403 C   0  0  0  0  0  0
  -22.7843  -13.5224   21.1867 C   0  0  0  0  0  0
  -22.1651   -4.2155   21.0976 F   0  0  0  0  0  0
  -21.5636   -3.4535   25.7734 F   0  0  0  0  0  0
  -30.0263  -13.3149   20.4581 N   0  0  0  0  0  0
  -26.2976  -12.9349   20.3294 N   0  0  0  0  0  0
  -25.9297  -11.6499   20.5706 N   0  0  0  0  0  0
  -22.0482  -12.8221   22.0431 N   0  0  0  0  0  0
  -25.4241  -15.1886   20.4110 N   0  0  0  0  0  0
  -31.8622  -14.5775   20.0759 O   0  0  0  0  0  0
  -21.6636   -6.8880   21.4248 O   0  0  0  0  0  0
  -22.3528  -14.5534   20.6729 O   0  0  0  0  0  0
  -24.6169  -31.8705   23.2132 C   0  0  0  0  0  0
  -25.9059  -32.4839   23.8421 C   0  0  1  0  0  0
  -27.2157  -27.4194   20.0860 C   0  0  0  0  0  0
  -25.5920  -33.8637   24.2352 N   0  0  0  0  0  0
  -23.4034  -30.5002   21.5550 C   0  0  2  0  0  0
  -24.8446  -28.9787   20.1087 C   0  0  0  0  0  0
  -22.7422  -29.4682   22.4979 C   0  0  0  0  0  0
  -18.0283  -28.1385   22.8488 C   0  0  0  0  0  0
  -24.1493  -36.7318   23.2636 C   0  0  0  0  0  0
  -25.9375  -30.8304   21.3722 C   0  0  0  0  0  0
  -26.0101  -29.4684   20.7115 C   0  0  0  0  0  0
  -27.1987  -28.6963   20.6997 C   0  0  0  0  0  0
  -26.0283  -26.9702   19.4525 C   0  0  0  0  0  0
  -24.8504  -27.7304   19.4748 C   0  0  0  0  0  0
  -23.6101  -29.8472   20.1653 C   0  0  0  0  0  0
  -25.4112  -36.3122   24.0342 C   0  0  1  0  0  0
  -20.5874  -28.3679   23.1308 C   0  0  2  0  0  0
  -20.6781  -26.9413   22.5409 C   0  0  0  0  0  0
  -19.5759  -26.6387   21.5210 C   0  0  0  0  0  0
  -18.1937  -26.7931   22.1622 C   0  0  0  0  0  0
  -19.1530  -28.8847   23.2899 C   0  0  0  0  0  0
  -18.9455  -30.1450   23.8916 C   0  0  0  0  0  0
  -17.6457  -30.6586   24.0570 C   0  0  0  0  0  0
  -25.9040  -34.9486   23.5136 C   0  0  0  0  0  0
  -16.5349  -29.9087   23.6325 C   0  0  0  0  0  0
  -16.7270  -28.6506   23.0344 C   0  0  0  0  0  0
  -26.4476  -31.6609   25.0744 C   0  0  0  0  0  0
  -25.3735  -31.3709   26.1484 C   0  0  0  0  0  0
  -27.0305  -30.3053   24.6118 C   0  0  0  0  0  0
  -27.6062  -32.4319   25.7502 C   0  0  0  0  0  0
  -27.5586  -37.1817   24.8464 C   0  0  0  0  0  0
  -21.4149  -29.3051   22.3716 N   0  0  0  0  0  0
  -26.4301  -37.3801   23.9407 N   0  0  0  0  0  0
  -24.6710  -31.0805   22.1045 N   0  0  0  0  0  0
  -23.4194  -28.8203   23.3004 O   0  0  0  0  0  0
  -28.3575  -26.6286   20.1328 O   0  0  0  0  0  0
  -26.5589  -34.8925   22.4692 O   0  0  0  0  0  0
  -23.5359  -32.1464   23.7515 O   0  0  0  0  0  0
  -27.4696  -18.7086   19.8501 C   0  0  0  0  0  0
  -28.3836  -17.6841   20.1551 C   0  0  0  0  0  0
  -27.8369  -20.0609   19.9918 C   0  0  0  0  0  0
  -30.0362  -19.3720   20.7559 C   0  0  0  0  0  0
  -29.6752  -18.0064   20.6157 C   0  0  0  0  0  0
  -29.1333  -20.4183   20.4458 C   0  0  0  0  0  0
  -29.6002  -15.5249   22.5640 C   0  0  0  0  0  0
  -30.7118  -16.9128   20.8867 C   0  0  0  0  0  0
  -29.2019  -24.2197   20.4002 C   0  0  0  0  0  0
  -28.1289  -25.2194   19.9184 C   0  0  0  0  0  0
  -28.6537  -22.7769   20.2393 C   0  0  0  0  0  0
  -30.1997  -15.5548   21.2231 N   0  0  0  0  0  0
  -29.5670  -21.7309   20.5939 O   0  0  0  0  0  0
  -31.4574  -12.3982   19.1287 H   0  0  0  0  0  0
  -30.3046  -11.3104   19.8261 H   0  0  0  0  0  0
  -29.7446  -11.7940   17.4318 H   0  0  0  0  0  0
  -29.6669  -13.5051   17.7739 H   0  0  0  0  0  0
  -27.8180  -11.3229   18.7949 H   0  0  0  0  0  0
  -27.3708  -12.6622   17.7715 H   0  0  0  0  0  0
  -27.7045  -14.2636   19.5870 H   0  0  0  0  0  0
  -28.6777  -11.9235   21.2800 H   0  0  0  0  0  0
  -28.3947  -13.5017   21.8802 H   0  0  0  0  0  0
  -25.2754   -9.5697   22.4760 H   0  0  0  0  0  0
  -24.0011   -7.4636   22.7461 H   0  0  0  0  0  0
  -21.0838   -8.8760   19.8949 H   0  0  0  0  0  0
  -22.3671  -10.9676   19.6165 H   0  0  0  0  0  0
  -21.2009   -7.6152   23.9730 H   0  0  0  0  0  0
  -21.1487   -6.0520   25.9094 H   0  0  0  0  0  0
  -22.0600   -2.7605   23.2844 H   0  0  0  0  0  0
  -22.4064  -11.9876   22.4832 H   0  0  0  0  0  0
  -21.1099  -13.1274   22.2629 H   0  0  0  0  0  0
  -24.6630  -15.8451   20.5448 H   0  0  0  0  0  0
  -26.2839  -15.6326   20.1192 H   0  0  0  0  0  0
  -26.7130  -32.5541   23.1183 H   0  0  0  0  0  0
  -25.0101  -33.9811   25.0517 H   0  0  0  0  0  0
  -22.6921  -31.3185   21.4229 H   0  0  0  0  0  0
  -23.3755  -35.9650   23.3309 H   0  0  0  0  0  0
  -24.3588  -36.8916   22.2046 H   0  0  0  0  0  0
  -23.7237  -37.6527   23.6637 H   0  0  0  0  0  0
  -26.0582  -31.6003   20.6089 H   0  0  0  0  0  0
  -26.8233  -30.8763   21.9939 H   0  0  0  0  0  0
  -28.0930  -29.0659   21.1821 H   0  0  0  0  0  0
  -25.9733  -26.0272   18.9301 H   0  0  0  0  0  0
  -23.9594  -27.3544   18.9915 H   0  0  0  0  0  0
  -23.7198  -30.6296   19.4130 H   0  0  0  0  0  0
  -22.7319  -29.2730   19.8647 H   0  0  0  0  0  0
  -25.1286  -36.1999   25.0836 H   0  0  0  0  0  0
  -20.9974  -28.3245   24.1425 H   0  0  0  0  0  0
  -20.5700  -26.2285   23.3596 H   0  0  0  0  0  0
  -21.6651  -26.7469   22.1192 H   0  0  0  0  0  0
  -19.6924  -25.6297   21.1244 H   0  0  0  0  0  0
  -19.6701  -27.3196   20.6739 H   0  0  0  0  0  0
  -17.4206  -26.6678   21.4023 H   0  0  0  0  0  0
  -18.0340  -26.0070   22.9019 H   0  0  0  0  0  0
  -19.7931  -30.7263   24.2295 H   0  0  0  0  0  0
  -17.5011  -31.6269   24.5167 H   0  0  0  0  0  0
  -15.5350  -30.2997   23.7639 H   0  0  0  0  0  0
  -15.8670  -28.0832   22.7048 H   0  0  0  0  0  0
  -24.5912  -30.7060   25.7803 H   0  0  0  0  0  0
  -24.8924  -32.2865   26.4939 H   0  0  0  0  0  0
  -25.8082  -30.8863   27.0237 H   0  0  0  0  0  0
  -26.2852  -29.6821   24.1163 H   0  0  0  0  0  0
  -27.4066  -29.7279   25.4572 H   0  0  0  0  0  0
  -27.8693  -30.4370   23.9281 H   0  0  0  0  0  0
  -27.2697  -33.3612   26.2111 H   0  0  0  0  0  0
  -28.3856  -32.6890   25.0317 H   0  0  0  0  0  0
  -28.0749  -31.8422   26.5389 H   0  0  0  0  0  0
  -28.2611  -38.0110   24.7516 H   0  0  0  0  0  0
  -28.1082  -36.2644   24.6295 H   0  0  0  0  0  0
  -27.2308  -37.1469   25.8870 H   0  0  0  0  0  0
  -20.9299  -29.8790   21.6960 H   0  0  0  0  0  0
  -26.0200  -38.2889   24.1391 H   0  0  0  0  0  0
  -26.4802  -18.4577   19.4938 H   0  0  0  0  0  0
  -28.0927  -16.6534   20.0188 H   0  0  0  0  0  0
  -27.0971  -20.8038   19.7346 H   0  0  0  0  0  0
  -31.0314  -19.6267   21.0920 H   0  0  0  0  0  0
  -29.9449  -16.3490   23.1894 H   0  0  0  0  0  0
  -29.8475  -14.6111   23.1070 H   0  0  0  0  0  0
  -28.5160  -15.6176   22.4943 H   0  0  0  0  0  0
  -31.3850  -17.2425   21.6797 H   0  0  0  0  0  0
  -31.3291  -16.9000   19.9871 H   0  0  0  0  0  0
  -29.4477  -24.4106   21.4449 H   0  0  0  0  0  0
  -30.1193  -24.3467   19.8249 H   0  0  0  0  0  0
  -27.2111  -24.9293   20.4353 H   0  0  0  0  0  0
  -27.9668  -25.0552   18.8517 H   0  0  0  0  0  0
  -28.3494  -22.6418   19.2005 H   0  0  0  0  0  0
  -27.7579  -22.6793   20.8559 H   0  0  0  0  0  0
  1 25  1  0  0  0
  1 30  2  0  0  0
  1 82  1  0  0  0
  2  3  1  0  0  0
  2 25  1  0  0  0
  2 84  1  0  0  0
  2 85  1  0  0  0
  3  4  1  0  0  0
  3 86  1  0  0  0
  3 87  1  0  0  0
  4  5  1  0  0  0
  4 88  1  0  0  0
  4 89  1  0  0  0
  5  6  1  0  0  0
  5 26  1  0  0  0
  5 90  1  0  0  0
  6 25  1  0  0  0
  6 91  1  0  0  0
  6 92  1  0  0  0
  7  8  2  0  0  0
  7 26  1  0  0  0
  7 29  1  0  0  0
  8  9  1  0  0  0
  8 22  1  0  0  0
  9 10  1  0  0  0
  9 27  2  0  0  0
 10 11  2  0  0  0
 10 15  1  0  0  0
 11 12  1  0  0  0
 11 93  1  0  0  0
 12 13  2  0  0  0
 12 94  1  0  0  0
 13 14  1  0  0  0
 13 31  1  0  0  0
 14 15  2  0  0  0
 14 95  1  0  0  0
 15 96  1  0  0  0
 16 17  2  0  0  0
 16 21  1  0  0  0
 16 31  1  0  0  0
 17 18  1  0  0  0
 17 97  1  0  0  0
 18 19  2  0  0  0
 18 98  1  0  0  0
 19 20  1  0  0  0
 19 24  1  0  0  0
 20 21  2  0  0  0
 20 99  1  0  0  0
 21 23  1  0  0  0
 22 28  1  0  0  0
 22 32  2  0  0  0
 26 27  1  0  0  0
 28100  1  0  0  0
 28101  1  0  0  0
 29102  1  0  0  0
 29103  1  0  0  0
 33 34  1  0  0  0
 33 66  1  0  0  0
 33 70  2  0  0  0
 34 36  1  0  0  0
 34 59  1  0  0  0
 34104  1  0  0  0
 35 44  2  0  0  0
 35 45  1  0  0  0
 35 68  1  0  0  0
 36 56  1  0  0  0
 36105  1  0  0  0
 37 39  1  0  0  0
 37 47  1  0  0  0
 37 66  1  0  0  0
 37106  1  0  0  0
 38 43  2  0  0  0
 38 46  1  0  0  0
 38 47  1  0  0  0
 39 64  1  0  0  0
 39 67  2  0  0  0
 40 52  1  0  0  0
 40 53  2  0  0  0
 40 58  1  0  0  0
 41107  1  0  0  0
 41108  1  0  0  0
 41109  1  0  0  0
 41 48  1  0  0  0
 42 43  1  0  0  0
 42 66  1  0  0  0
 42110  1  0  0  0
 42111  1  0  0  0
 43 44  1  0  0  0
 44112  1  0  0  0
 45 46  2  0  0  0
 45113  1  0  0  0
 46114  1  0  0  0
 47115  1  0  0  0
 47116  1  0  0  0
 48 56  1  0  0  0
 48 65  1  0  0  0
 48117  1  0  0  0
 49 50  1  0  0  0
 49 53  1  0  0  0
 49 64  1  0  0  0
 49118  1  0  0  0
 50 51  1  0  0  0
 50119  1  0  0  0
 50120  1  0  0  0
 51 52  1  0  0  0
 51121  1  0  0  0
 51122  1  0  0  0
 52123  1  0  0  0
 52124  1  0  0  0
 53 54  1  0  0  0
 54 55  2  0  0  0
 54125  1  0  0  0
 55 57  1  0  0  0
 55126  1  0  0  0
 56 69  2  0  0  0
 57 58  2  0  0  0
 57127  1  0  0  0
 58128  1  0  0  0
 59 60  1  0  0  0
 59 61  1  0  0  0
 59 62  1  0  0  0
 60129  1  0  0  0
 60130  1  0  0  0
 60131  1  0  0  0
 61132  1  0  0  0
 61133  1  0  0  0
 61134  1  0  0  0
 62135  1  0  0  0
 62136  1  0  0  0
 62137  1  0  0  0
 63 65  1  0  0  0
 63138  1  0  0  0
 63139  1  0  0  0
 63140  1  0  0  0
 64141  1  0  0  0
 65142  1  0  0  0
 68 80  1  0  0  0
 71 72  2  0  0  0
 71 73  1  0  0  0
 71143  1  0  0  0
 72 75  1  0  0  0
 72144  1  0  0  0
 73 76  2  0  0  0
 73145  1  0  0  0
 74 75  2  0  0  0
 74 76  1  0  0  0
 74146  1  0  0  0
 75 78  1  0  0  0
 76 83  1  0  0  0
 77 82  1  0  0  0
 77147  1  0  0  0
 77148  1  0  0  0
 77149  1  0  0  0
 78 82  1  0  0  0
 78150  1  0  0  0
 78151  1  0  0  0
 79 80  1  0  0  0
 79 81  1  0  0  0
 79152  1  0  0  0
 79153  1  0  0  0
 80154  1  0  0  0
 80155  1  0  0  0
 81 83  1  0  0  0
 81156  1  0  0  0
 81157  1  0  0  0
M  ISO  4   1 100  68 101  80 101  82 100
M  END
> <chiral flag>
0

> <version>
0

> <s_m_source_file>
/data/baiqing/PycharmProjects/Reinvent-master-3.2/result/LINK_invent/BTK/process_docking_weight1_custom_product_contain_oxygen_bond_distance_aromatic_linkinvent_7_9_3/rearranged_h_0014.sdf

> <i_m_source_file_index>
82

> <r_mmod_Potential_Energy-OPLS-2005>
86.8033981323242

> <r_mmod_Stretch_Energy-OPLS-2005>
45.3138847351074

> <r_mmod_Bend_Energy-OPLS-2005>
119.920799255371

> <r_mmod_Torsional_Energy-OPLS-2005>
236.99104309082

> <r_mmod_Improper_Torsional_Energy-OPLS-2005>
7.01841974258423

> <r_mmod_Van_der_Waal_Energy-OPLS-2005>
178.730545043945

> <r_mmod_Electrostatic_Energy-OPLS-2005>
-317.793640136719

> <r_mmod_Solvation_Energy-OPLS-2005>
-200.01301574707

> <b_mmod_Minimization_Converged-OPLS-2005>
0

> <r_mmod_RMS_Derivative-OPLS-2005>
1.35540521144867

$$$$
84
                    3D
 Structure written by MMmdl.
161169  0  0  1  0            999 V2000
  -30.7977  -14.3233   20.6939 C   0  0  0  0  0  0
  -30.4015  -12.2691   19.3994 C   0  0  0  0  0  0
  -29.4816  -12.5286   18.1939 C   0  0  0  0  0  0
  -28.0037  -12.3966   18.6024 C   0  0  0  0  0  0
  -27.6649  -13.2056   19.8830 C   0  0  2  0  0  0
  -28.6999  -12.9498   21.0007 C   0  0  0  0  0  0
  -25.2577  -13.8162   20.5667 C   0  0  0  0  0  0
  -24.1823  -13.0450   20.9155 C   0  0  0  0  0  0
  -24.6372  -11.6907   20.8718 C   0  0  0  0  0  0
  -23.9045  -10.4300   21.0396 C   0  0  0  0  0  0
  -24.3611   -9.4223   21.9175 C   0  0  0  0  0  0
  -23.6298   -8.2253   22.0758 C   0  0  0  0  0  0
  -22.4280   -8.0282   21.3550 C   0  0  0  0  0  0
  -21.9906   -9.0243   20.4641 C   0  0  0  0  0  0
  -22.7220  -10.2131   20.3042 C   0  0  0  0  0  0
  -21.6857   -6.0738   22.5284 C   0  0  0  0  0  0
  -21.4016   -6.5647   23.8216 C   0  0  0  0  0  0
  -21.3661   -5.6798   24.9179 C   0  0  0  0  0  0
  -21.6048   -4.3060   24.7225 C   0  0  0  0  0  0
  -21.8817   -3.8153   23.4345 C   0  0  0  0  0  0
  -21.9196   -4.6969   22.3407 C   0  0  0  0  0  0
  -22.7848  -13.5252   21.1837 C   0  0  0  0  0  0
  -22.1661   -4.2158   21.0982 F   0  0  0  0  0  0
  -21.5633   -3.4543   25.7737 F   0  0  0  0  0  0
  -30.0458  -13.2188   20.4614 N   0  0  0  0  0  0
  -26.3023  -12.9333   20.3370 N   0  0  0  0  0  0
  -25.9297  -11.6491   20.5743 N   0  0  0  0  0  0
  -22.0499  -12.8226   22.0387 N   0  0  0  0  0  0
  -25.4291  -15.1881   20.4095 N   0  0  0  0  0  0
  -31.8260  -14.5832   20.0625 O   0  0  0  0  0  0
  -21.6650   -6.8875   21.4243 O   0  0  0  0  0  0
  -22.3529  -14.5578   20.6721 O   0  0  0  0  0  0
  -24.6101  -31.8733   23.2147 C   0  0  0  0  0  0
  -25.9013  -32.4839   23.8417 C   0  0  1  0  0  0
  -27.2399  -27.4764   20.0824 C   0  0  0  0  0  0
  -25.5891  -33.8634   24.2354 N   0  0  0  0  0  0
  -23.3934  -30.4971   21.5550 C   0  0  2  0  0  0
  -24.8373  -28.9655   20.1170 C   0  0  0  0  0  0
  -22.7385  -29.4678   22.5029 C   0  0  0  0  0  0
  -18.0276  -28.1357   22.8491 C   0  0  0  0  0  0
  -24.1483  -36.7305   23.2633 C   0  0  0  0  0  0
  -25.9178  -30.8507   21.3578 C   0  0  0  0  0  0
  -25.9941  -29.4870   20.7068 C   0  0  0  0  0  0
  -27.1934  -28.7472   20.6900 C   0  0  0  0  0  0
  -26.0646  -26.9584   19.4878 C   0  0  0  0  0  0
  -24.8656  -27.6969   19.5091 C   0  0  0  0  0  0
  -23.5968  -29.8288   20.1683 C   0  0  0  0  0  0
  -25.4100  -36.3115   24.0342 C   0  0  1  0  0  0
  -20.5865  -28.3629   23.1340 C   0  0  2  0  0  0
  -20.6762  -26.9375   22.5409 C   0  0  0  0  0  0
  -19.5726  -26.6377   21.5209 C   0  0  0  0  0  0
  -18.1913  -26.7907   22.1620 C   0  0  0  0  0  0
  -19.1522  -28.8807   23.2910 C   0  0  0  0  0  0
  -18.9455  -30.1431   23.8887 C   0  0  0  0  0  0
  -17.6454  -30.6553   24.0569 C   0  0  0  0  0  0
  -25.9026  -34.9479   23.5138 C   0  0  0  0  0  0
  -16.5344  -29.9057   23.6333 C   0  0  0  0  0  0
  -16.7266  -28.6491   23.0320 C   0  0  0  0  0  0
  -26.4467  -31.6586   25.0707 C   0  0  0  0  0  0
  -25.3739  -31.3635   26.1457 C   0  0  0  0  0  0
  -27.0332  -30.3055   24.6025 C   0  0  0  0  0  0
  -27.6057  -32.4299   25.7458 C   0  0  0  0  0  0
  -27.5582  -37.1810   24.8468 C   0  0  0  0  0  0
  -21.4120  -29.3014   22.3756 N   0  0  0  0  0  0
  -26.4283  -37.3799   23.9425 N   0  0  0  0  0  0
  -24.6592  -31.0875   22.1010 N   0  0  0  0  0  0
  -23.4188  -28.8239   23.3059 O   0  0  0  0  0  0
  -28.4476  -26.8189   20.0992 O   0  0  0  0  0  0
  -26.5583  -34.8914   22.4702 O   0  0  0  0  0  0
  -23.5307  -32.1472   23.7560 O   0  0  0  0  0  0
  -30.6055  -18.7230   22.3182 C   0  0  0  0  0  0
  -30.9392  -17.6890   20.1453 C   0  0  0  0  0  0
  -30.4627  -19.9768   21.6943 C   0  0  0  0  0  0
  -30.8020  -18.9392   19.5202 C   0  0  0  0  0  0
  -30.8603  -17.5689   21.5500 C   0  0  0  0  0  0
  -30.5775  -20.1000   20.2934 C   0  0  0  0  0  0
  -30.5791  -21.8322   18.4782 C   0  0  0  0  0  0
  -30.3984  -23.3676   18.3670 C   0  0  0  0  0  0
  -28.0775  -23.0078   17.5087 C   0  0  0  0  0  0
  -31.1109  -16.2384   22.2519 C   0  0  0  0  0  0
  -28.8354  -25.2438   18.2848 C   0  0  0  0  0  0
  -28.5059  -25.4394   19.7740 C   0  0  0  0  0  0
  -30.4671  -21.4030   19.7462 N   0  0  0  0  0  0
  -30.3838  -15.0975   21.7015 N   0  0  0  0  0  0
  -29.1713  -23.8389   18.0294 N   0  0  0  0  0  0
  -30.8131  -21.1456   17.4772 O   0  0  0  0  0  0
  -31.3441  -24.0952   18.6947 O   0  0  0  0  0  0
  -31.4485  -12.3435   19.0991 H   0  0  0  0  0  0
  -30.2708  -11.2491   19.7646 H   0  0  0  0  0  0
  -29.7103  -11.8294   17.3882 H   0  0  0  0  0  0
  -29.6659  -13.5295   17.7990 H   0  0  0  0  0  0
  -27.7901  -11.3381   18.7573 H   0  0  0  0  0  0
  -27.3615  -12.7157   17.7813 H   0  0  0  0  0  0
  -27.7257  -14.2621   19.6209 H   0  0  0  0  0  0
  -28.6484  -11.9134   21.3397 H   0  0  0  0  0  0
  -28.4477  -13.5500   21.8747 H   0  0  0  0  0  0
  -25.2754   -9.5728   22.4743 H   0  0  0  0  0  0
  -24.0030   -7.4654   22.7475 H   0  0  0  0  0  0
  -21.0847   -8.8735   19.8942 H   0  0  0  0  0  0
  -22.3662  -10.9661   19.6151 H   0  0  0  0  0  0
  -21.1999   -7.6149   23.9723 H   0  0  0  0  0  0
  -21.1493   -6.0524   25.9078 H   0  0  0  0  0  0
  -22.0593   -2.7618   23.2843 H   0  0  0  0  0  0
  -22.4130  -11.9881   22.4739 H   0  0  0  0  0  0
  -21.1110  -13.1225   22.2609 H   0  0  0  0  0  0
  -24.6629  -15.8442   20.5138 H   0  0  0  0  0  0
  -26.2920  -15.6324   20.1203 H   0  0  0  0  0  0
  -26.7090  -32.5562   23.1195 H   0  0  0  0  0  0
  -25.0087  -33.9790   25.0528 H   0  0  0  0  0  0
  -22.6783  -31.3119   21.4235 H   0  0  0  0  0  0
  -23.3750  -35.9634   23.3292 H   0  0  0  0  0  0
  -24.3578  -36.8917   22.2047 H   0  0  0  0  0  0
  -23.7227  -37.6498   23.6652 H   0  0  0  0  0  0
  -26.0225  -31.6194   20.5904 H   0  0  0  0  0  0
  -26.8100  -30.9053   21.9700 H   0  0  0  0  0  0
  -28.0881  -29.1531   21.1423 H   0  0  0  0  0  0
  -26.0552  -25.9966   18.9969 H   0  0  0  0  0  0
  -23.9752  -27.2893   19.0507 H   0  0  0  0  0  0
  -23.6983  -30.6051   19.4084 H   0  0  0  0  0  0
  -22.7204  -29.2468   19.8745 H   0  0  0  0  0  0
  -25.1284  -36.1990   25.0836 H   0  0  0  0  0  0
  -20.9943  -28.3200   24.1469 H   0  0  0  0  0  0
  -20.5693  -26.2233   23.3590 H   0  0  0  0  0  0
  -21.6634  -26.7440   22.1198 H   0  0  0  0  0  0
  -19.6877  -25.6312   21.1196 H   0  0  0  0  0  0
  -19.6651  -27.3218   20.6773 H   0  0  0  0  0  0
  -17.4196  -26.6676   21.4013 H   0  0  0  0  0  0
  -18.0290  -26.0041   22.8999 H   0  0  0  0  0  0
  -19.7933  -30.7261   24.2213 H   0  0  0  0  0  0
  -17.5011  -31.6231   24.5171 H   0  0  0  0  0  0
  -15.5335  -30.2948   23.7657 H   0  0  0  0  0  0
  -15.8680  -28.0824   22.6977 H   0  0  0  0  0  0
  -24.5946  -30.6946   25.7789 H   0  0  0  0  0  0
  -24.8872  -32.2754   26.4918 H   0  0  0  0  0  0
  -25.8118  -30.8808   27.0198 H   0  0  0  0  0  0
  -26.2867  -29.6764   24.1145 H   0  0  0  0  0  0
  -27.4246  -29.7329   25.4440 H   0  0  0  0  0  0
  -27.8631  -30.4440   23.9083 H   0  0  0  0  0  0
  -27.2702  -33.3615   26.2015 H   0  0  0  0  0  0
  -28.3856  -32.6806   25.0262 H   0  0  0  0  0  0
  -28.0715  -31.8412   26.5364 H   0  0  0  0  0  0
  -28.2599  -38.0114   24.7561 H   0  0  0  0  0  0
  -28.1085  -36.2654   24.6257 H   0  0  0  0  0  0
  -27.2294  -37.1397   25.8863 H   0  0  0  0  0  0
  -20.9274  -29.8721   21.6972 H   0  0  0  0  0  0
  -26.0178  -38.2876   24.1440 H   0  0  0  0  0  0
  -30.5369  -18.6576   23.3952 H   0  0  0  0  0  0
  -31.1360  -16.8370   19.5169 H   0  0  0  0  0  0
  -30.2810  -20.8484   22.3081 H   0  0  0  0  0  0
  -30.8928  -18.9723   18.4458 H   0  0  0  0  0  0
  -27.7053  -22.3302   18.2795 H   0  0  0  0  0  0
  -28.4104  -22.4112   16.6576 H   0  0  0  0  0  0
  -27.2273  -23.5973   17.1631 H   0  0  0  0  0  0
  -30.8470  -16.3234   23.3070 H   0  0  0  0  0  0
  -32.1853  -16.0438   22.2322 H   0  0  0  0  0  0
  -29.6751  -25.8850   18.0088 H   0  0  0  0  0  0
  -28.0067  -25.5800   17.6644 H   0  0  0  0  0  0
  -29.3058  -25.0245   20.3875 H   0  0  0  0  0  0
  -27.6085  -24.8930   20.0687 H   0  0  0  0  0  0
  -30.2953  -22.1471   20.4080 H   0  0  0  0  0  0
  -29.5613  -14.7929   22.1999 H   0  0  0  0  0  0
  1 25  1  0  0  0
  1 30  2  0  0  0
  1 84  1  0  0  0
  2  3  1  0  0  0
  2 25  1  0  0  0
  2 88  1  0  0  0
  2 89  1  0  0  0
  3  4  1  0  0  0
  3 90  1  0  0  0
  3 91  1  0  0  0
  4  5  1  0  0  0
  4 92  1  0  0  0
  4 93  1  0  0  0
  5  6  1  0  0  0
  5 26  1  0  0  0
  5 94  1  0  0  0
  6 25  1  0  0  0
  6 95  1  0  0  0
  6 96  1  0  0  0
  7  8  2  0  0  0
  7 26  1  0  0  0
  7 29  1  0  0  0
  8  9  1  0  0  0
  8 22  1  0  0  0
  9 10  1  0  0  0
  9 27  2  0  0  0
 10 11  2  0  0  0
 10 15  1  0  0  0
 11 12  1  0  0  0
 11 97  1  0  0  0
 12 13  2  0  0  0
 12 98  1  0  0  0
 13 14  1  0  0  0
 13 31  1  0  0  0
 14 15  2  0  0  0
 14 99  1  0  0  0
 15100  1  0  0  0
 16 17  2  0  0  0
 16 21  1  0  0  0
 16 31  1  0  0  0
 17 18  1  0  0  0
 17101  1  0  0  0
 18 19  2  0  0  0
 18102  1  0  0  0
 19 20  1  0  0  0
 19 24  1  0  0  0
 20 21  2  0  0  0
 20103  1  0  0  0
 21 23  1  0  0  0
 22 28  1  0  0  0
 22 32  2  0  0  0
 26 27  1  0  0  0
 28104  1  0  0  0
 28105  1  0  0  0
 29106  1  0  0  0
 29107  1  0  0  0
 33 34  1  0  0  0
 33 66  1  0  0  0
 33 70  2  0  0  0
 34 36  1  0  0  0
 34 59  1  0  0  0
 34108  1  0  0  0
 35 44  2  0  0  0
 35 45  1  0  0  0
 35 68  1  0  0  0
 36 56  1  0  0  0
 36109  1  0  0  0
 37 39  1  0  0  0
 37 47  1  0  0  0
 37 66  1  0  0  0
 37110  1  0  0  0
 38 43  2  0  0  0
 38 46  1  0  0  0
 38 47  1  0  0  0
 39 64  1  0  0  0
 39 67  2  0  0  0
 40 52  1  0  0  0
 40 53  2  0  0  0
 40 58  1  0  0  0
 41111  1  0  0  0
 41112  1  0  0  0
 41113  1  0  0  0
 41 48  1  0  0  0
 42 43  1  0  0  0
 42 66  1  0  0  0
 42114  1  0  0  0
 42115  1  0  0  0
 43 44  1  0  0  0
 44116  1  0  0  0
 45 46  2  0  0  0
 45117  1  0  0  0
 46118  1  0  0  0
 47119  1  0  0  0
 47120  1  0  0  0
 48 56  1  0  0  0
 48 65  1  0  0  0
 48121  1  0  0  0
 49 50  1  0  0  0
 49 53  1  0  0  0
 49 64  1  0  0  0
 49122  1  0  0  0
 50 51  1  0  0  0
 50123  1  0  0  0
 50124  1  0  0  0
 51 52  1  0  0  0
 51125  1  0  0  0
 51126  1  0  0  0
 52127  1  0  0  0
 52128  1  0  0  0
 53 54  1  0  0  0
 54 55  2  0  0  0
 54129  1  0  0  0
 55 57  1  0  0  0
 55130  1  0  0  0
 56 69  2  0  0  0
 57 58  2  0  0  0
 57131  1  0  0  0
 58132  1  0  0  0
 59 60  1  0  0  0
 59 61  1  0  0  0
 59 62  1  0  0  0
 60133  1  0  0  0
 60134  1  0  0  0
 60135  1  0  0  0
 61136  1  0  0  0
 61137  1  0  0  0
 61138  1  0  0  0
 62139  1  0  0  0
 62140  1  0  0  0
 62141  1  0  0  0
 63 65  1  0  0  0
 63142  1  0  0  0
 63143  1  0  0  0
 63144  1  0  0  0
 64145  1  0  0  0
 65146  1  0  0  0
 68 82  1  0  0  0
 71 73  2  0  0  0
 71 75  1  0  0  0
 71147  1  0  0  0
 72 74  1  0  0  0
 72 75  2  0  0  0
 72148  1  0  0  0
 73 76  1  0  0  0
 73149  1  0  0  0
 74 76  2  0  0  0
 74150  1  0  0  0
 75 80  1  0  0  0
 76 83  1  0  0  0
 77 78  1  0  0  0
 77 83  1  0  0  0
 77 86  2  0  0  0
 78 85  1  0  0  0
 78 87  2  0  0  0
 79 85  1  0  0  0
 79151  1  0  0  0
 79152  1  0  0  0
 79153  1  0  0  0
 80 84  1  0  0  0
 80154  1  0  0  0
 80155  1  0  0  0
 81 82  1  0  0  0
 81 85  1  0  0  0
 81156  1  0  0  0
 81157  1  0  0  0
 82158  1  0  0  0
 82159  1  0  0  0
 83160  1  0  0  0
 84161  1  0  0  0
M  ISO  4   1 100  68 101  82 101  84 100
M  END
> <chiral flag>
0

> <version>
0

> <s_m_source_file>
/data/baiqing/PycharmProjects/Reinvent-master-3.2/result/LINK_invent/BTK/process_docking_weight1_custom_product_contain_oxygen_bond_distance_aromatic_linkinvent_7_9_3/rearranged_h_0014.sdf

> <i_m_source_file_index>
83

> <r_mmod_Potential_Energy-OPLS-2005>
-63.0658493041992

> <r_mmod_Stretch_Energy-OPLS-2005>
33.338451385498

> <r_mmod_Bend_Energy-OPLS-2005>
109.830368041992

> <r_mmod_Torsional_Energy-OPLS-2005>
222.49462890625

> <r_mmod_Improper_Torsional_Energy-OPLS-2005>
3.11023187637329

> <r_mmod_Van_der_Waal_Energy-OPLS-2005>
174.304611206055

> <r_mmod_Electrostatic_Energy-OPLS-2005>
-360.152099609375

> <r_mmod_Solvation_Energy-OPLS-2005>
-254.894104003906

> <b_mmod_Minimization_Converged-OPLS-2005>
0

> <r_mmod_RMS_Derivative-OPLS-2005>
2.34550905227661

$$$$
85
                    3D
 Structure written by MMmdl.
155163  0  0  1  0            999 V2000
  -30.6007  -14.6594   20.5107 C   0  0  0  0  0  0
  -30.4512  -12.4055   19.4539 C   0  0  0  0  0  0
  -29.5146  -12.5064   18.2272 C   0  0  0  0  0  0
  -28.0344  -12.3508   18.6348 C   0  0  0  0  0  0
  -27.6579  -13.2149   19.8665 C   0  0  2  0  0  0
  -28.7039  -13.0480   20.9922 C   0  0  0  0  0  0
  -25.2575  -13.8169   20.5692 C   0  0  0  0  0  0
  -24.1836  -13.0439   20.9205 C   0  0  0  0  0  0
  -24.6398  -11.6904   20.8739 C   0  0  0  0  0  0
  -23.9065  -10.4289   21.0411 C   0  0  0  0  0  0
  -24.3612   -9.4206   21.9197 C   0  0  0  0  0  0
  -23.6286   -8.2243   22.0757 C   0  0  0  0  0  0
  -22.4274   -8.0280   21.3542 C   0  0  0  0  0  0
  -21.9918   -9.0251   20.4640 C   0  0  0  0  0  0
  -22.7241  -10.2133   20.3052 C   0  0  0  0  0  0
  -21.6854   -6.0740   22.5284 C   0  0  0  0  0  0
  -21.4003   -6.5640   23.8216 C   0  0  0  0  0  0
  -21.3658   -5.6793   24.9173 C   0  0  0  0  0  0
  -21.6051   -4.3059   24.7226 C   0  0  0  0  0  0
  -21.8818   -3.8153   23.4346 C   0  0  0  0  0  0
  -21.9186   -4.6968   22.3402 C   0  0  0  0  0  0
  -22.7852  -13.5233   21.1869 C   0  0  0  0  0  0
  -22.1659   -4.2155   21.0980 F   0  0  0  0  0  0
  -21.5635   -3.4541   25.7743 F   0  0  0  0  0  0
  -30.0206  -13.4161   20.4397 N   0  0  0  0  0  0
  -26.3006  -12.9340   20.3324 N   0  0  0  0  0  0
  -25.9322  -11.6500   20.5745 N   0  0  0  0  0  0
  -22.0478  -12.8207   22.0402 N   0  0  0  0  0  0
  -25.4317  -15.1891   20.4118 N   0  0  0  0  0  0
  -31.7390  -14.8677   20.0782 O   0  0  0  0  0  0
  -21.6630   -6.8882   21.4241 O   0  0  0  0  0  0
  -22.3546  -14.5554   20.6743 O   0  0  0  0  0  0
  -24.6260  -31.8594   23.1983 C   0  0  0  0  0  0
  -25.9106  -32.4773   23.8329 C   0  0  1  0  0  0
  -27.2375  -27.3212   20.1213 C   0  0  0  0  0  0
  -25.5933  -33.8571   24.2260 N   0  0  0  0  0  0
  -23.4200  -30.4771   21.5432 C   0  0  2  0  0  0
  -24.8691  -28.9228   20.1159 C   0  0  0  0  0  0
  -22.7491  -29.4591   22.4953 C   0  0  0  0  0  0
  -18.0281  -28.1376   22.8464 C   0  0  0  0  0  0
  -24.1495  -36.7286   23.2642 C   0  0  0  0  0  0
  -25.9575  -30.7916   21.3646 C   0  0  0  0  0  0
  -26.0370  -29.4137   20.7147 C   0  0  0  0  0  0
  -27.2251  -28.6255   20.7017 C   0  0  0  0  0  0
  -26.0457  -26.8669   19.5175 C   0  0  0  0  0  0
  -24.8743  -27.6535   19.5117 C   0  0  0  0  0  0
  -23.6348  -29.8037   20.1606 C   0  0  0  0  0  0
  -25.4120  -36.3071   24.0336 C   0  0  1  0  0  0
  -20.5883  -28.3674   23.1298 C   0  0  2  0  0  0
  -20.6772  -26.9403   22.5412 C   0  0  0  0  0  0
  -19.5756  -26.6389   21.5197 C   0  0  0  0  0  0
  -18.1923  -26.7920   22.1602 C   0  0  0  0  0  0
  -19.1540  -28.8845   23.2861 C   0  0  0  0  0  0
  -18.9463  -30.1445   23.8876 C   0  0  0  0  0  0
  -17.6464  -30.6576   24.0562 C   0  0  0  0  0  0
  -25.9070  -34.9444   23.5107 C   0  0  0  0  0  0
  -16.5352  -29.9078   23.6333 C   0  0  0  0  0  0
  -16.7269  -28.6504   23.0334 C   0  0  0  0  0  0
  -26.4486  -31.6576   25.0701 C   0  0  0  0  0  0
  -25.3709  -31.3697   26.1423 C   0  0  0  0  0  0
  -27.0320  -30.3020   24.6087 C   0  0  0  0  0  0
  -27.6068  -32.4294   25.7456 C   0  0  0  0  0  0
  -27.5575  -37.1785   24.8464 C   0  0  0  0  0  0
  -21.4199  -29.3018   22.3696 N   0  0  0  0  0  0
  -26.4284  -37.3776   23.9415 N   0  0  0  0  0  0
  -24.6860  -31.0600   22.0935 N   0  0  0  0  0  0
  -23.4201  -28.8138   23.3038 O   0  0  0  0  0  0
  -28.3806  -26.5124   20.0894 O   0  0  0  0  0  0
  -26.5632  -34.8916   22.4665 O   0  0  0  0  0  0
  -23.5432  -32.1414   23.7317 O   0  0  0  0  0  0
  -28.5154  -17.6675   21.4869 C   0  0  0  0  0  0
  -30.4958  -18.0347   20.1930 C   0  0  0  0  0  0
  -28.2108  -19.0502   21.4250 C   0  0  0  0  0  0
  -30.1882  -19.4452   20.1456 C   0  0  0  0  0  0
  -29.6544  -17.1020   20.8710 C   0  0  0  0  0  0
  -29.0253  -20.0137   20.7608 C   0  0  0  0  0  0
  -27.6177  -21.7905   21.7330 C   0  0  0  0  0  0
  -28.6791  -23.8911   19.6836 C   0  0  0  0  0  0
  -29.4382  -22.5726   20.2241 C   0  0  0  0  0  0
  -28.3274  -25.1320   20.6261 C   0  0  0  0  0  0
  -29.7814  -15.6443   20.9974 N   0  0  0  0  0  0
  -28.6348  -21.4194   20.7467 N   0  0  0  0  0  0
  -31.4897  -12.5457   19.1515 H   0  0  0  0  0  0
  -30.4031  -11.4081   19.8931 H   0  0  0  0  0  0
  -29.7759  -11.7426   17.4926 H   0  0  0  0  0  0
  -29.6619  -13.4677   17.7325 H   0  0  0  0  0  0
  -27.8648  -11.2978   18.8600 H   0  0  0  0  0  0
  -27.3846  -12.5867   17.7919 H   0  0  0  0  0  0
  -27.6802  -14.2543   19.5371 H   0  0  0  0  0  0
  -28.7193  -12.0135   21.3379 H   0  0  0  0  0  0
  -28.4392  -13.6410   21.8683 H   0  0  0  0  0  0
  -25.2749   -9.5688   22.4779 H   0  0  0  0  0  0
  -23.9996   -7.4630   22.7477 H   0  0  0  0  0  0
  -21.0860   -8.8765   19.8933 H   0  0  0  0  0  0
  -22.3710  -10.9668   19.6160 H   0  0  0  0  0  0
  -21.1988   -7.6149   23.9721 H   0  0  0  0  0  0
  -21.1485   -6.0524   25.9083 H   0  0  0  0  0  0
  -22.0598   -2.7612   23.2845 H   0  0  0  0  0  0
  -22.4057  -11.9841   22.4768 H   0  0  0  0  0  0
  -21.1089  -13.1227   22.2587 H   0  0  0  0  0  0
  -24.6701  -15.8491   20.5206 H   0  0  0  0  0  0
  -26.2824  -15.6195   20.0716 H   0  0  0  0  0  0
  -26.7189  -32.5465   23.1096 H   0  0  0  0  0  0
  -25.0030  -33.9692   25.0368 H   0  0  0  0  0  0
  -22.7135  -31.2963   21.3973 H   0  0  0  0  0  0
  -23.3754  -35.9622   23.3292 H   0  0  0  0  0  0
  -24.3575  -36.8924   22.2057 H   0  0  0  0  0  0
  -23.7249  -37.6484   23.6675 H   0  0  0  0  0  0
  -26.0721  -31.5492   20.5889 H   0  0  0  0  0  0
  -26.8443  -30.8558   21.9826 H   0  0  0  0  0  0
  -28.1276  -29.0009   21.1656 H   0  0  0  0  0  0
  -26.0212  -25.8947   19.0455 H   0  0  0  0  0  0
  -23.9775  -27.2697   19.0449 H   0  0  0  0  0  0
  -23.7497  -30.5775   19.4005 H   0  0  0  0  0  0
  -22.7558  -29.2282   19.8629 H   0  0  0  0  0  0
  -25.1278  -36.1927   25.0831 H   0  0  0  0  0  0
  -20.9942  -28.3244   24.1435 H   0  0  0  0  0  0
  -20.5703  -26.2270   23.3590 H   0  0  0  0  0  0
  -21.6643  -26.7460   22.1189 H   0  0  0  0  0  0
  -19.6947  -25.6312   21.1198 H   0  0  0  0  0  0
  -19.6718  -27.3235   20.6746 H   0  0  0  0  0  0
  -17.4208  -26.6678   21.3983 H   0  0  0  0  0  0
  -18.0313  -26.0058   22.9004 H   0  0  0  0  0  0
  -19.7957  -30.7237   24.2257 H   0  0  0  0  0  0
  -17.5037  -31.6266   24.5156 H   0  0  0  0  0  0
  -15.5357  -30.2963   23.7690 H   0  0  0  0  0  0
  -15.8662  -28.0823   22.7040 H   0  0  0  0  0  0
  -24.5937  -30.6985   25.7729 H   0  0  0  0  0  0
  -24.8831  -32.2861   26.4777 H   0  0  0  0  0  0
  -25.8047  -30.8930   27.0231 H   0  0  0  0  0  0
  -26.2861  -29.6777   24.1157 H   0  0  0  0  0  0
  -27.4111  -29.7260   25.4531 H   0  0  0  0  0  0
  -27.8693  -30.4322   23.9221 H   0  0  0  0  0  0
  -27.2712  -33.3647   26.1945 H   0  0  0  0  0  0
  -28.3917  -32.6759   25.0287 H   0  0  0  0  0  0
  -28.0679  -31.8456   26.5433 H   0  0  0  0  0  0
  -28.2568  -38.0096   24.7499 H   0  0  0  0  0  0
  -28.1085  -36.2621   24.6293 H   0  0  0  0  0  0
  -27.2279  -37.1427   25.8859 H   0  0  0  0  0  0
  -20.9396  -29.8721   21.6873 H   0  0  0  0  0  0
  -26.0169  -38.2850   24.1444 H   0  0  0  0  0  0
  -27.8315  -17.0273   22.0263 H   0  0  0  0  0  0
  -31.3877  -17.6819   19.6942 H   0  0  0  0  0  0
  -27.2975  -19.3390   21.9206 H   0  0  0  0  0  0
  -30.8709  -20.0909   19.6137 H   0  0  0  0  0  0
  -27.8441  -21.3717   22.7149 H   0  0  0  0  0  0
  -26.6336  -21.4367   21.4220 H   0  0  0  0  0  0
  -27.5414  -22.8668   21.8730 H   0  0  0  0  0  0
  -27.7878  -23.6032   19.1247 H   0  0  0  0  0  0
  -29.3478  -24.3025   18.9275 H   0  0  0  0  0  0
  -30.1784  -22.8608   20.9723 H   0  0  0  0  0  0
  -30.0211  -22.1897   19.3862 H   0  0  0  0  0  0
  -29.0468  -25.1259   21.4447 H   0  0  0  0  0  0
  -27.3622  -24.9570   21.1003 H   0  0  0  0  0  0
  -28.9737  -15.2234   21.4302 H   0  0  0  0  0  0
  1 25  1  0  0  0
  1 30  2  0  0  0
  1 81  1  0  0  0
  2  3  1  0  0  0
  2 25  1  0  0  0
  2 83  1  0  0  0
  2 84  1  0  0  0
  3  4  1  0  0  0
  3 85  1  0  0  0
  3 86  1  0  0  0
  4  5  1  0  0  0
  4 87  1  0  0  0
  4 88  1  0  0  0
  5  6  1  0  0  0
  5 26  1  0  0  0
  5 89  1  0  0  0
  6 25  1  0  0  0
  6 90  1  0  0  0
  6 91  1  0  0  0
  7  8  2  0  0  0
  7 26  1  0  0  0
  7 29  1  0  0  0
  8  9  1  0  0  0
  8 22  1  0  0  0
  9 10  1  0  0  0
  9 27  2  0  0  0
 10 11  2  0  0  0
 10 15  1  0  0  0
 11 12  1  0  0  0
 11 92  1  0  0  0
 12 13  2  0  0  0
 12 93  1  0  0  0
 13 14  1  0  0  0
 13 31  1  0  0  0
 14 15  2  0  0  0
 14 94  1  0  0  0
 15 95  1  0  0  0
 16 17  2  0  0  0
 16 21  1  0  0  0
 16 31  1  0  0  0
 17 18  1  0  0  0
 17 96  1  0  0  0
 18 19  2  0  0  0
 18 97  1  0  0  0
 19 20  1  0  0  0
 19 24  1  0  0  0
 20 21  2  0  0  0
 20 98  1  0  0  0
 21 23  1  0  0  0
 22 28  1  0  0  0
 22 32  2  0  0  0
 26 27  1  0  0  0
 28 99  1  0  0  0
 28100  1  0  0  0
 29101  1  0  0  0
 29102  1  0  0  0
 33 34  1  0  0  0
 33 66  1  0  0  0
 33 70  2  0  0  0
 34 36  1  0  0  0
 34 59  1  0  0  0
 34103  1  0  0  0
 35 44  2  0  0  0
 35 45  1  0  0  0
 35 68  1  0  0  0
 36 56  1  0  0  0
 36104  1  0  0  0
 37 39  1  0  0  0
 37 47  1  0  0  0
 37 66  1  0  0  0
 37105  1  0  0  0
 38 43  2  0  0  0
 38 46  1  0  0  0
 38 47  1  0  0  0
 39 64  1  0  0  0
 39 67  2  0  0  0
 40 52  1  0  0  0
 40 53  2  0  0  0
 40 58  1  0  0  0
 41106  1  0  0  0
 41107  1  0  0  0
 41108  1  0  0  0
 41 48  1  0  0  0
 42 43  1  0  0  0
 42 66  1  0  0  0
 42109  1  0  0  0
 42110  1  0  0  0
 43 44  1  0  0  0
 44111  1  0  0  0
 45 46  2  0  0  0
 45112  1  0  0  0
 46113  1  0  0  0
 47114  1  0  0  0
 47115  1  0  0  0
 48 56  1  0  0  0
 48 65  1  0  0  0
 48116  1  0  0  0
 49 50  1  0  0  0
 49 53  1  0  0  0
 49 64  1  0  0  0
 49117  1  0  0  0
 50 51  1  0  0  0
 50118  1  0  0  0
 50119  1  0  0  0
 51 52  1  0  0  0
 51120  1  0  0  0
 51121  1  0  0  0
 52122  1  0  0  0
 52123  1  0  0  0
 53 54  1  0  0  0
 54 55  2  0  0  0
 54124  1  0  0  0
 55 57  1  0  0  0
 55125  1  0  0  0
 56 69  2  0  0  0
 57 58  2  0  0  0
 57126  1  0  0  0
 58127  1  0  0  0
 59 60  1  0  0  0
 59 61  1  0  0  0
 59 62  1  0  0  0
 60128  1  0  0  0
 60129  1  0  0  0
 60130  1  0  0  0
 61131  1  0  0  0
 61132  1  0  0  0
 61133  1  0  0  0
 62134  1  0  0  0
 62135  1  0  0  0
 62136  1  0  0  0
 63 65  1  0  0  0
 63137  1  0  0  0
 63138  1  0  0  0
 63139  1  0  0  0
 64140  1  0  0  0
 65141  1  0  0  0
 68 80  1  0  0  0
 71 73  2  0  0  0
 71 75  1  0  0  0
 71142  1  0  0  0
 72 74  1  0  0  0
 72 75  2  0  0  0
 72143  1  0  0  0
 73 76  1  0  0  0
 73144  1  0  0  0
 74 76  2  0  0  0
 74145  1  0  0  0
 75 81  1  0  0  0
 76 82  1  0  0  0
 77 82  1  0  0  0
 77146  1  0  0  0
 77147  1  0  0  0
 77148  1  0  0  0
 78 79  1  0  0  0
 78 80  1  0  0  0
 78149  1  0  0  0
 78150  1  0  0  0
 79 82  1  0  0  0
 79151  1  0  0  0
 79152  1  0  0  0
 80153  1  0  0  0
 80154  1  0  0  0
 81155  1  0  0  0
M  ISO  4   1 100  68 101  80 101  81 100
M  END
> <chiral flag>
0

> <version>
0

> <s_m_source_file>
/data/baiqing/PycharmProjects/Reinvent-master-3.2/result/LINK_invent/BTK/process_docking_weight1_custom_product_contain_oxygen_bond_distance_aromatic_linkinvent_7_9_3/rearranged_h_0014.sdf

> <i_m_source_file_index>
84

> <r_mmod_Potential_Energy-OPLS-2005>
96.0075302124023

> <r_mmod_Stretch_Energy-OPLS-2005>
90.3139038085938

> <r_mmod_Bend_Energy-OPLS-2005>
187.635864257812

> <r_mmod_Torsional_Energy-OPLS-2005>
230.668258666992

> <r_mmod_Improper_Torsional_Energy-OPLS-2005>
4.55378293991089

> <r_mmod_Van_der_Waal_Energy-OPLS-2005>
145.405334472656

> <r_mmod_Electrostatic_Energy-OPLS-2005>
-383.672637939453

> <r_mmod_Solvation_Energy-OPLS-2005>
-227.081100463867

> <b_mmod_Minimization_Converged-OPLS-2005>
0

> <r_mmod_RMS_Derivative-OPLS-2005>
2.64921760559082

$$$$
86
                    3D
 Structure written by MMmdl.
161169  0  0  1  0            999 V2000
  -30.7328  -14.4944   20.5791 C   0  0  0  0  0  0
  -30.4121  -12.3290   19.4233 C   0  0  0  0  0  0
  -29.4837  -12.4971   18.2050 C   0  0  0  0  0  0
  -28.0095  -12.3431   18.6245 C   0  0  0  0  0  0
  -27.6493  -13.1979   19.8670 C   0  0  2  0  0  0
  -28.6990  -13.0318   20.9913 C   0  0  0  0  0  0
  -25.2551  -13.8121   20.5696 C   0  0  0  0  0  0
  -24.1807  -13.0405   20.9215 C   0  0  0  0  0  0
  -24.6354  -11.6879   20.8763 C   0  0  0  0  0  0
  -23.9015  -10.4273   21.0419 C   0  0  0  0  0  0
  -24.3575   -9.4197   21.9200 C   0  0  0  0  0  0
  -23.6261   -8.2226   22.0764 C   0  0  0  0  0  0
  -22.4248   -8.0259   21.3548 C   0  0  0  0  0  0
  -21.9880   -9.0230   20.4649 C   0  0  0  0  0  0
  -22.7192  -10.2118   20.3060 C   0  0  0  0  0  0
  -21.6842   -6.0716   22.5280 C   0  0  0  0  0  0
  -21.4006   -6.5630   23.8213 C   0  0  0  0  0  0
  -21.3662   -5.6788   24.9181 C   0  0  0  0  0  0
  -21.6049   -4.3051   24.7236 C   0  0  0  0  0  0
  -21.8822   -3.8136   23.4360 C   0  0  0  0  0  0
  -21.9190   -4.6945   22.3412 C   0  0  0  0  0  0
  -22.7842  -13.5218   21.1872 C   0  0  0  0  0  0
  -22.1659   -4.2126   21.0989 F   0  0  0  0  0  0
  -21.5636   -3.4541   25.7752 F   0  0  0  0  0  0
  -30.0242  -13.3362   20.4270 N   0  0  0  0  0  0
  -26.2959  -12.9266   20.3366 N   0  0  0  0  0  0
  -25.9274  -11.6442   20.5791 N   0  0  0  0  0  0
  -22.0481  -12.8203   22.0422 N   0  0  0  0  0  0
  -25.4239  -15.1835   20.4061 N   0  0  0  0  0  0
  -31.8644  -14.6335   20.1037 O   0  0  0  0  0  0
  -21.6624   -6.8850   21.4235 O   0  0  0  0  0  0
  -22.3545  -14.5534   20.6732 O   0  0  0  0  0  0
  -24.6149  -31.8679   23.2098 C   0  0  0  0  0  0
  -25.9040  -32.4818   23.8401 C   0  0  1  0  0  0
  -27.2360  -27.4238   20.0891 C   0  0  0  0  0  0
  -25.5893  -33.8616   24.2333 N   0  0  0  0  0  0
  -23.4027  -30.4913   21.5507 C   0  0  2  0  0  0
  -24.8462  -28.9531   20.1175 C   0  0  0  0  0  0
  -22.7405  -29.4661   22.4994 C   0  0  0  0  0  0
  -18.0273  -28.1381   22.8484 C   0  0  0  0  0  0
  -24.1480  -36.7308   23.2649 C   0  0  0  0  0  0
  -25.9325  -30.8283   21.3650 C   0  0  0  0  0  0
  -26.0069  -29.4610   20.7129 C   0  0  0  0  0  0
  -27.2005  -28.7026   20.6959 C   0  0  0  0  0  0
  -26.0484  -26.9257   19.5031 C   0  0  0  0  0  0
  -24.8616  -27.6839   19.5143 C   0  0  0  0  0  0
  -23.6110  -29.8244   20.1649 C   0  0  0  0  0  0
  -25.4105  -36.3105   24.0342 C   0  0  1  0  0  0
  -20.5865  -28.3664   23.1309 C   0  0  2  0  0  0
  -20.6769  -26.9407   22.5407 C   0  0  0  0  0  0
  -19.5745  -26.6391   21.5196 C   0  0  0  0  0  0
  -18.1920  -26.7928   22.1616 C   0  0  0  0  0  0
  -19.1524  -28.8835   23.2894 C   0  0  0  0  0  0
  -18.9454  -30.1440   23.8905 C   0  0  0  0  0  0
  -17.6462  -30.6588   24.0560 C   0  0  0  0  0  0
  -25.9036  -34.9469   23.5139 C   0  0  0  0  0  0
  -16.5347  -29.9096   23.6323 C   0  0  0  0  0  0
  -16.7265  -28.6512   23.0341 C   0  0  0  0  0  0
  -26.4482  -31.6600   25.0726 C   0  0  0  0  0  0
  -25.3752  -31.3645   26.1468 C   0  0  0  0  0  0
  -27.0369  -30.3073   24.6095 C   0  0  0  0  0  0
  -27.6056  -32.4341   25.7482 C   0  0  0  0  0  0
  -27.5577  -37.1803   24.8480 C   0  0  0  0  0  0
  -21.4138  -29.3028   22.3709 N   0  0  0  0  0  0
  -26.4294  -37.3792   23.9419 N   0  0  0  0  0  0
  -24.6685  -31.0773   22.0998 N   0  0  0  0  0  0
  -23.4164  -28.8228   23.3062 O   0  0  0  0  0  0
  -28.4334  -26.7290   20.0924 O   0  0  0  0  0  0
  -26.5607  -34.8921   22.4707 O   0  0  0  0  0  0
  -23.5336  -32.1454   23.7473 O   0  0  0  0  0  0
  -28.6219  -18.6799   21.6382 C   0  0  0  0  0  0
  -28.6994  -20.0880   21.5258 C   0  0  0  0  0  0
  -29.9466  -18.4476   19.6228 C   0  0  0  0  0  0
  -29.2393  -17.8411   20.6848 C   0  0  0  0  0  0
  -29.4020  -20.7058   20.4653 C   0  0  0  0  0  0
  -30.0274  -19.8559   19.5083 C   0  0  0  0  0  0
  -30.7266  -22.7105   19.9639 C   0  0  0  0  0  0
  -30.9986  -16.1860   22.3041 C   0  0  0  0  0  0
  -29.0650  -16.3121   20.7539 C   0  0  0  0  0  0
  -28.1228  -24.2983   20.5862 C   0  0  0  0  0  0
  -28.2138  -22.8277   20.0777 C   0  0  0  0  0  0
  -28.5264  -25.3933   19.5628 C   0  0  0  0  0  0
  -29.4644  -22.1266   20.4126 N   0  0  0  0  0  0
  -30.1735  -15.4982   21.3062 N   0  0  0  0  0  0
  -30.6938  -20.3766   18.4482 F   0  0  0  0  0  0
  -31.4553  -12.4192   19.1148 H   0  0  0  0  0  0
  -30.3125  -11.3273   19.8446 H   0  0  0  0  0  0
  -29.7303  -11.7605   17.4396 H   0  0  0  0  0  0
  -29.6387  -13.4772   17.7503 H   0  0  0  0  0  0
  -27.8343  -11.2876   18.8360 H   0  0  0  0  0  0
  -27.3521  -12.5985   17.7924 H   0  0  0  0  0  0
  -27.6607  -14.2280   19.5273 H   0  0  0  0  0  0
  -28.6910  -12.0103   21.3741 H   0  0  0  0  0  0
  -28.4560  -13.6659   21.8448 H   0  0  0  0  0  0
  -25.2715   -9.5696   22.4780 H   0  0  0  0  0  0
  -23.9982   -7.4627   22.7487 H   0  0  0  0  0  0
  -21.0817   -8.8727   19.8953 H   0  0  0  0  0  0
  -22.3631  -10.9654   19.6173 H   0  0  0  0  0  0
  -21.1986   -7.6141   23.9700 H   0  0  0  0  0  0
  -21.1487   -6.0528   25.9079 H   0  0  0  0  0  0
  -22.0597   -2.7593   23.2869 H   0  0  0  0  0  0
  -22.4087  -11.9844   22.4779 H   0  0  0  0  0  0
  -21.1108  -13.1239   22.2644 H   0  0  0  0  0  0
  -24.6496  -15.8313   20.5059 H   0  0  0  0  0  0
  -26.2603  -15.6222   20.0453 H   0  0  0  0  0  0
  -26.7112  -32.5522   23.1168 H   0  0  0  0  0  0
  -25.0018  -33.9779   25.0459 H   0  0  0  0  0  0
  -22.6906  -31.3078   21.4124 H   0  0  0  0  0  0
  -23.3746  -35.9640   23.3317 H   0  0  0  0  0  0
  -24.3568  -36.8931   22.2070 H   0  0  0  0  0  0
  -23.7225  -37.6503   23.6677 H   0  0  0  0  0  0
  -26.0483  -31.5924   20.5951 H   0  0  0  0  0  0
  -26.8198  -30.8817   21.9836 H   0  0  0  0  0  0
  -28.0998  -29.0954   21.1510 H   0  0  0  0  0  0
  -26.0098  -25.9556   19.0329 H   0  0  0  0  0  0
  -23.9673  -27.2819   19.0580 H   0  0  0  0  0  0
  -23.7258  -30.6011   19.4075 H   0  0  0  0  0  0
  -22.7338  -29.2486   19.8668 H   0  0  0  0  0  0
  -25.1274  -36.1977   25.0837 H   0  0  0  0  0  0
  -20.9944  -28.3246   24.1439 H   0  0  0  0  0  0
  -20.5698  -26.2268   23.3587 H   0  0  0  0  0  0
  -21.6641  -26.7474   22.1185 H   0  0  0  0  0  0
  -19.6903  -25.6303   21.1225 H   0  0  0  0  0  0
  -19.6678  -27.3197   20.6729 H   0  0  0  0  0  0
  -17.4187  -26.6661   21.4023 H   0  0  0  0  0  0
  -18.0335  -26.0072   22.9019 H   0  0  0  0  0  0
  -19.7931  -30.7238   24.2288 H   0  0  0  0  0  0
  -17.5028  -31.6272   24.5161 H   0  0  0  0  0  0
  -15.5350  -30.3008   23.7641 H   0  0  0  0  0  0
  -15.8665  -28.0840   22.7049 H   0  0  0  0  0  0
  -24.5915  -30.7031   25.7757 H   0  0  0  0  0  0
  -24.8942  -32.2766   26.5008 H   0  0  0  0  0  0
  -25.8109  -30.8722   27.0170 H   0  0  0  0  0  0
  -26.2914  -29.6753   24.1252 H   0  0  0  0  0  0
  -27.4299  -29.7388   25.4534 H   0  0  0  0  0  0
  -27.8676  -30.4448   23.9165 H   0  0  0  0  0  0
  -27.2683  -33.3646   26.2063 H   0  0  0  0  0  0
  -28.3845  -32.6892   25.0282 H   0  0  0  0  0  0
  -28.0756  -31.8462   26.5376 H   0  0  0  0  0  0
  -28.2596  -38.0101   24.7539 H   0  0  0  0  0  0
  -28.1065  -36.2623   24.6307 H   0  0  0  0  0  0
  -27.2279  -37.1462   25.8878 H   0  0  0  0  0  0
  -20.9304  -29.8737   21.6919 H   0  0  0  0  0  0
  -26.0178  -38.2871   24.1413 H   0  0  0  0  0  0
  -28.0693  -18.2445   22.4594 H   0  0  0  0  0  0
  -28.2175  -20.6982   22.2759 H   0  0  0  0  0  0
  -30.4151  -17.8359   18.8664 H   0  0  0  0  0  0
  -31.5798  -22.0794   20.2181 H   0  0  0  0  0  0
  -30.8903  -23.6756   20.4447 H   0  0  0  0  0  0
  -30.7251  -22.8673   18.8839 H   0  0  0  0  0  0
  -30.3736  -16.6737   23.0525 H   0  0  0  0  0  0
  -31.6283  -16.9434   21.8342 H   0  0  0  0  0  0
  -31.6508  -15.4870   22.8299 H   0  0  0  0  0  0
  -28.8514  -15.9968   19.7327 H   0  0  0  0  0  0
  -28.1698  -16.0878   21.3345 H   0  0  0  0  0  0
  -28.6940  -24.4173   21.5075 H   0  0  0  0  0  0
  -27.0859  -24.4851   20.8665 H   0  0  0  0  0  0
  -28.0503  -22.7966   18.9995 H   0  0  0  0  0  0
  -27.3823  -22.2728   20.5161 H   0  0  0  0  0  0
  -27.9872  -25.2872   18.6222 H   0  0  0  0  0  0
  -29.5725  -25.2476   19.2946 H   0  0  0  0  0  0
  1 25  1  0  0  0
  1 30  2  0  0  0
  1 84  1  0  0  0
  2  3  1  0  0  0
  2 25  1  0  0  0
  2 86  1  0  0  0
  2 87  1  0  0  0
  3  4  1  0  0  0
  3 88  1  0  0  0
  3 89  1  0  0  0
  4  5  1  0  0  0
  4 90  1  0  0  0
  4 91  1  0  0  0
  5  6  1  0  0  0
  5 26  1  0  0  0
  5 92  1  0  0  0
  6 25  1  0  0  0
  6 93  1  0  0  0
  6 94  1  0  0  0
  7  8  2  0  0  0
  7 26  1  0  0  0
  7 29  1  0  0  0
  8  9  1  0  0  0
  8 22  1  0  0  0
  9 10  1  0  0  0
  9 27  2  0  0  0
 10 11  2  0  0  0
 10 15  1  0  0  0
 11 12  1  0  0  0
 11 95  1  0  0  0
 12 13  2  0  0  0
 12 96  1  0  0  0
 13 14  1  0  0  0
 13 31  1  0  0  0
 14 15  2  0  0  0
 14 97  1  0  0  0
 15 98  1  0  0  0
 16 17  2  0  0  0
 16 21  1  0  0  0
 16 31  1  0  0  0
 17 18  1  0  0  0
 17 99  1  0  0  0
 18 19  2  0  0  0
 18100  1  0  0  0
 19 20  1  0  0  0
 19 24  1  0  0  0
 20 21  2  0  0  0
 20101  1  0  0  0
 21 23  1  0  0  0
 22 28  1  0  0  0
 22 32  2  0  0  0
 26 27  1  0  0  0
 28102  1  0  0  0
 28103  1  0  0  0
 29104  1  0  0  0
 29105  1  0  0  0
 33 34  1  0  0  0
 33 66  1  0  0  0
 33 70  2  0  0  0
 34 36  1  0  0  0
 34 59  1  0  0  0
 34106  1  0  0  0
 35 44  2  0  0  0
 35 45  1  0  0  0
 35 68  1  0  0  0
 36 56  1  0  0  0
 36107  1  0  0  0
 37 39  1  0  0  0
 37 47  1  0  0  0
 37 66  1  0  0  0
 37108  1  0  0  0
 38 43  2  0  0  0
 38 46  1  0  0  0
 38 47  1  0  0  0
 39 64  1  0  0  0
 39 67  2  0  0  0
 40 52  1  0  0  0
 40 53  2  0  0  0
 40 58  1  0  0  0
 41109  1  0  0  0
 41110  1  0  0  0
 41111  1  0  0  0
 41 48  1  0  0  0
 42 43  1  0  0  0
 42 66  1  0  0  0
 42112  1  0  0  0
 42113  1  0  0  0
 43 44  1  0  0  0
 44114  1  0  0  0
 45 46  2  0  0  0
 45115  1  0  0  0
 46116  1  0  0  0
 47117  1  0  0  0
 47118  1  0  0  0
 48 56  1  0  0  0
 48 65  1  0  0  0
 48119  1  0  0  0
 49 50  1  0  0  0
 49 53  1  0  0  0
 49 64  1  0  0  0
 49120  1  0  0  0
 50 51  1  0  0  0
 50121  1  0  0  0
 50122  1  0  0  0
 51 52  1  0  0  0
 51123  1  0  0  0
 51124  1  0  0  0
 52125  1  0  0  0
 52126  1  0  0  0
 53 54  1  0  0  0
 54 55  2  0  0  0
 54127  1  0  0  0
 55 57  1  0  0  0
 55128  1  0  0  0
 56 69  2  0  0  0
 57 58  2  0  0  0
 57129  1  0  0  0
 58130  1  0  0  0
 59 60  1  0  0  0
 59 61  1  0  0  0
 59 62  1  0  0  0
 60131  1  0  0  0
 60132  1  0  0  0
 60133  1  0  0  0
 61134  1  0  0  0
 61135  1  0  0  0
 61136  1  0  0  0
 62137  1  0  0  0
 62138  1  0  0  0
 62139  1  0  0  0
 63 65  1  0  0  0
 63140  1  0  0  0
 63141  1  0  0  0
 63142  1  0  0  0
 64143  1  0  0  0
 65144  1  0  0  0
 68 82  1  0  0  0
 71 72  2  0  0  0
 71 74  1  0  0  0
 71145  1  0  0  0
 72 75  1  0  0  0
 72146  1  0  0  0
 73 74  2  0  0  0
 73 76  1  0  0  0
 73147  1  0  0  0
 74 79  1  0  0  0
 75 76  2  0  0  0
 75 83  1  0  0  0
 76 85  1  0  0  0
 77 83  1  0  0  0
 77148  1  0  0  0
 77149  1  0  0  0
 77150  1  0  0  0
 78 84  1  0  0  0
 78151  1  0  0  0
 78152  1  0  0  0
 78153  1  0  0  0
 79 84  1  0  0  0
 79154  1  0  0  0
 79155  1  0  0  0
 80 81  1  0  0  0
 80 82  1  0  0  0
 80156  1  0  0  0
 80157  1  0  0  0
 81 83  1  0  0  0
 81158  1  0  0  0
 81159  1  0  0  0
 82160  1  0  0  0
 82161  1  0  0  0
M  ISO  4   1 100  68 101  82 101  84 100
M  END
> <chiral flag>
0

> <version>
0

> <s_m_source_file>
/data/baiqing/PycharmProjects/Reinvent-master-3.2/result/LINK_invent/BTK/process_docking_weight1_custom_product_contain_oxygen_bond_distance_aromatic_linkinvent_7_9_3/rearranged_h_0014.sdf

> <i_m_source_file_index>
85

> <r_mmod_Potential_Energy-OPLS-2005>
149.001327514648

> <r_mmod_Stretch_Energy-OPLS-2005>
44.1051406860352

> <r_mmod_Bend_Energy-OPLS-2005>
115.683898925781

> <r_mmod_Torsional_Energy-OPLS-2005>
281.501556396484

> <r_mmod_Improper_Torsional_Energy-OPLS-2005>
6.35699892044067

> <r_mmod_Van_der_Waal_Energy-OPLS-2005>
154.160858154297

> <r_mmod_Electrostatic_Energy-OPLS-2005>
-262.1337890625

> <r_mmod_Solvation_Energy-OPLS-2005>
-206.490859985352

> <b_mmod_Minimization_Converged-OPLS-2005>
0

> <r_mmod_RMS_Derivative-OPLS-2005>
1.6886088848114

$$$$
87
                    3D
 Structure written by MMmdl.
161169  0  0  1  0            999 V2000
  -30.8063  -14.4409   20.6560 C   0  0  0  0  0  0
  -30.3939  -12.3157   19.4563 C   0  0  0  0  0  0
  -29.4933  -12.5400   18.2247 C   0  0  0  0  0  0
  -28.0154  -12.3705   18.6153 C   0  0  0  0  0  0
  -27.6528  -13.2080   19.8680 C   0  0  2  0  0  0
  -28.6824  -12.9983   20.9982 C   0  0  0  0  0  0
  -25.2537  -13.8155   20.5658 C   0  0  0  0  0  0
  -24.1800  -13.0431   20.9135 C   0  0  0  0  0  0
  -24.6351  -11.6898   20.8676 C   0  0  0  0  0  0
  -23.9036  -10.4290   21.0364 C   0  0  0  0  0  0
  -24.3592   -9.4234   21.9160 C   0  0  0  0  0  0
  -23.6271   -8.2277   22.0762 C   0  0  0  0  0  0
  -22.4257   -8.0298   21.3546 C   0  0  0  0  0  0
  -21.9875   -9.0265   20.4650 C   0  0  0  0  0  0
  -22.7198  -10.2139   20.3039 C   0  0  0  0  0  0
  -21.6846   -6.0739   22.5280 C   0  0  0  0  0  0
  -21.4028   -6.5644   23.8216 C   0  0  0  0  0  0
  -21.3672   -5.6792   24.9171 C   0  0  0  0  0  0
  -21.6052   -4.3057   24.7216 C   0  0  0  0  0  0
  -21.8813   -3.8150   23.4334 C   0  0  0  0  0  0
  -21.9194   -4.6970   22.3396 C   0  0  0  0  0  0
  -22.7838  -13.5260   21.1830 C   0  0  0  0  0  0
  -22.1656   -4.2157   21.0972 F   0  0  0  0  0  0
  -21.5629   -3.4545   25.7730 F   0  0  0  0  0  0
  -30.0290  -13.3198   20.4819 N   0  0  0  0  0  0
  -26.2947  -12.9320   20.3270 N   0  0  0  0  0  0
  -25.9268  -11.6474   20.5675 N   0  0  0  0  0  0
  -22.0473  -12.8271   22.0393 N   0  0  0  0  0  0
  -25.4241  -15.1880   20.4165 N   0  0  0  0  0  0
  -31.8838  -14.5311   20.0528 O   0  0  0  0  0  0
  -21.6637   -6.8881   21.4240 O   0  0  0  0  0  0
  -22.3546  -14.5583   20.6694 O   0  0  0  0  0  0
  -24.6126  -31.8701   23.2104 C   0  0  0  0  0  0
  -25.9051  -32.4813   23.8400 C   0  0  1  0  0  0
  -27.2510  -27.4492   20.0950 C   0  0  0  0  0  0
  -25.5966  -33.8616   24.2346 N   0  0  0  0  0  0
  -23.3981  -30.4900   21.5485 C   0  0  2  0  0  0
  -24.8493  -28.9559   20.1187 C   0  0  0  0  0  0
  -22.7391  -29.4638   22.4989 C   0  0  0  0  0  0
  -18.0254  -28.1399   22.8496 C   0  0  0  0  0  0
  -24.1485  -36.7215   23.2643 C   0  0  0  0  0  0
  -25.9275  -30.8410   21.3604 C   0  0  0  0  0  0
  -26.0074  -29.4754   20.7070 C   0  0  0  0  0  0
  -27.2061  -28.7321   20.6879 C   0  0  0  0  0  0
  -26.0669  -26.9324   19.5180 C   0  0  0  0  0  0
  -24.8731  -27.6830   19.5241 C   0  0  0  0  0  0
  -23.6091  -29.8191   20.1631 C   0  0  0  0  0  0
  -25.4132  -36.3090   24.0339 C   0  0  1  0  0  0
  -20.5842  -28.3640   23.1346 C   0  0  2  0  0  0
  -20.6739  -26.9386   22.5414 C   0  0  0  0  0  0
  -19.5737  -26.6398   21.5204 C   0  0  0  0  0  0
  -18.1915  -26.7954   22.1614 C   0  0  0  0  0  0
  -19.1503  -28.8839   23.2909 C   0  0  0  0  0  0
  -18.9453  -30.1460   23.8895 C   0  0  0  0  0  0
  -17.6464  -30.6609   24.0580 C   0  0  0  0  0  0
  -25.9088  -34.9466   23.5126 C   0  0  0  0  0  0
  -16.5342  -29.9141   23.6332 C   0  0  0  0  0  0
  -16.7239  -28.6550   23.0345 C   0  0  0  0  0  0
  -26.4499  -31.6559   25.0715 C   0  0  0  0  0  0
  -25.3781  -31.3609   26.1463 C   0  0  0  0  0  0
  -27.0306  -30.3018   24.6058 C   0  0  0  0  0  0
  -27.6088  -32.4228   25.7512 C   0  0  0  0  0  0
  -27.5579  -37.1772   24.8505 C   0  0  0  0  0  0
  -21.4117  -29.2995   22.3747 N   0  0  0  0  0  0
  -26.4307  -37.3791   23.9435 N   0  0  0  0  0  0
  -24.6629  -31.0854   22.0965 N   0  0  0  0  0  0
  -23.4166  -28.8173   23.3023 O   0  0  0  0  0  0
  -28.4706  -26.7992   20.0946 O   0  0  0  0  0  0
  -26.5622  -34.8928   22.4668 O   0  0  0  0  0  0
  -23.5319  -32.1398   23.7535 O   0  0  0  0  0  0
  -30.3551  -18.7805   22.6159 C   0  0  0  0  0  0
  -29.9595  -18.8911   20.2265 C   0  0  0  0  0  0
  -29.8311  -20.0814   22.7618 C   0  0  0  0  0  0
  -29.4581  -20.2037   20.3721 C   0  0  0  0  0  0
  -30.4165  -18.1624   21.3494 C   0  0  0  0  0  0
  -29.3796  -20.8229   21.6444 C   0  0  0  0  0  0
  -27.8668  -22.2685   22.8739 C   0  0  0  0  0  0
  -29.6876  -15.4497   22.6520 C   0  0  0  0  0  0
  -31.1228  -16.8134   21.1668 C   0  0  0  0  0  0
  -28.6103  -24.5288   21.0262 C   0  0  0  0  0  0
  -28.8306  -23.0368   20.6670 C   0  0  0  0  0  0
  -28.5950  -25.4140   19.7657 C   0  0  0  0  0  0
  -28.8804  -22.1354   21.8249 N   0  0  0  0  0  0
  -30.3634  -15.5365   21.3509 N   0  0  0  0  0  0
  -31.4424  -12.3557   19.1590 H   0  0  0  0  0  0
  -30.2572  -11.3061   19.8494 H   0  0  0  0  0  0
  -29.7605  -11.8459   17.4269 H   0  0  0  0  0  0
  -29.6513  -13.5433   17.8228 H   0  0  0  0  0  0
  -27.8399  -11.3109   18.8084 H   0  0  0  0  0  0
  -27.3697  -12.6390   17.7778 H   0  0  0  0  0  0
  -27.6930  -14.2565   19.5726 H   0  0  0  0  0  0
  -28.6581  -11.9598   21.3338 H   0  0  0  0  0  0
  -28.3640  -13.5543   21.8690 H   0  0  0  0  0  0
  -25.2735   -9.5730   22.4723 H   0  0  0  0  0  0
  -23.9989   -7.4674   22.7481 H   0  0  0  0  0  0
  -21.0814   -8.8765   19.8956 H   0  0  0  0  0  0
  -22.3637  -10.9672   19.6147 H   0  0  0  0  0  0
  -21.2030   -7.6150   23.9720 H   0  0  0  0  0  0
  -21.1500   -6.0519   25.9072 H   0  0  0  0  0  0
  -22.0579   -2.7617   23.2825 H   0  0  0  0  0  0
  -22.4045  -11.9916   22.4769 H   0  0  0  0  0  0
  -21.1107  -13.1343   22.2595 H   0  0  0  0  0  0
  -24.6580  -15.8404   20.5457 H   0  0  0  0  0  0
  -26.2936  -15.6425   20.1644 H   0  0  0  0  0  0
  -26.7126  -32.5500   23.1163 H   0  0  0  0  0  0
  -25.0205  -33.9799   25.0558 H   0  0  0  0  0  0
  -22.6835  -31.3017   21.4047 H   0  0  0  0  0  0
  -23.3809  -35.9486   23.3377 H   0  0  0  0  0  0
  -24.3574  -36.8749   22.2045 H   0  0  0  0  0  0
  -23.7186  -37.6419   23.6595 H   0  0  0  0  0  0
  -26.0608  -31.6109   20.5985 H   0  0  0  0  0  0
  -26.8091  -30.8833   21.9857 H   0  0  0  0  0  0
  -28.1011  -29.1419   21.1325 H   0  0  0  0  0  0
  -26.0271  -25.9608   19.0518 H   0  0  0  0  0  0
  -23.9777  -27.2737   19.0767 H   0  0  0  0  0  0
  -23.7156  -30.5876   19.3975 H   0  0  0  0  0  0
  -22.7354  -29.2365   19.8651 H   0  0  0  0  0  0
  -25.1324  -36.1941   25.0833 H   0  0  0  0  0  0
  -20.9929  -28.3199   24.1469 H   0  0  0  0  0  0
  -20.5683  -26.2223   23.3574 H   0  0  0  0  0  0
  -21.6618  -26.7467   22.1208 H   0  0  0  0  0  0
  -19.6907  -25.6327   21.1213 H   0  0  0  0  0  0
  -19.6721  -27.3236   20.6760 H   0  0  0  0  0  0
  -17.4182  -26.6664   21.4016 H   0  0  0  0  0  0
  -18.0325  -26.0094   22.9013 H   0  0  0  0  0  0
  -19.7923  -30.7272   24.2255 H   0  0  0  0  0  0
  -17.5030  -31.6302   24.5183 H   0  0  0  0  0  0
  -15.5356  -30.3077   23.7672 H   0  0  0  0  0  0
  -15.8599  -28.0912   22.7064 H   0  0  0  0  0  0
  -24.5991  -30.6939   25.7787 H   0  0  0  0  0  0
  -24.8931  -32.2713   26.4962 H   0  0  0  0  0  0
  -25.8175  -30.8730   27.0170 H   0  0  0  0  0  0
  -26.2792  -29.6810   24.1166 H   0  0  0  0  0  0
  -27.4159  -29.7247   25.4476 H   0  0  0  0  0  0
  -27.8631  -30.4378   23.9156 H   0  0  0  0  0  0
  -27.2763  -33.3526   26.2145 H   0  0  0  0  0  0
  -28.3935  -32.6789   25.0379 H   0  0  0  0  0  0
  -28.0734  -31.8285   26.5410 H   0  0  0  0  0  0
  -28.2662  -38.0017   24.7568 H   0  0  0  0  0  0
  -28.1012  -36.2560   24.6325 H   0  0  0  0  0  0
  -27.2279  -37.1422   25.8907 H   0  0  0  0  0  0
  -20.9265  -29.8620   21.6898 H   0  0  0  0  0  0
  -26.0186  -38.2857   24.1474 H   0  0  0  0  0  0
  -30.7436  -18.2769   23.4888 H   0  0  0  0  0  0
  -30.0321  -18.4728   19.2321 H   0  0  0  0  0  0
  -29.8052  -20.5196   23.7487 H   0  0  0  0  0  0
  -29.1396  -20.7236   19.4822 H   0  0  0  0  0  0
  -27.4389  -21.3103   23.1725 H   0  0  0  0  0  0
  -27.0316  -22.8851   22.5437 H   0  0  0  0  0  0
  -28.2963  -22.7425   23.7559 H   0  0  0  0  0  0
  -29.8628  -14.4913   23.1442 H   0  0  0  0  0  0
  -28.6157  -15.6159   22.5369 H   0  0  0  0  0  0
  -30.0415  -16.1980   23.3540 H   0  0  0  0  0  0
  -31.9780  -16.7963   21.8453 H   0  0  0  0  0  0
  -31.5529  -16.8680   20.1636 H   0  0  0  0  0  0
  -29.4025  -24.8670   21.6973 H   0  0  0  0  0  0
  -27.6734  -24.6751   21.5629 H   0  0  0  0  0  0
  -29.7715  -22.9527   20.1178 H   0  0  0  0  0  0
  -28.0473  -22.7043   19.9844 H   0  0  0  0  0  0
  -27.8687  -25.0565   19.0387 H   0  0  0  0  0  0
  -29.5583  -25.3080   19.2670 H   0  0  0  0  0  0
  1 25  1  0  0  0
  1 30  2  0  0  0
  1 84  1  0  0  0
  2  3  1  0  0  0
  2 25  1  0  0  0
  2 85  1  0  0  0
  2 86  1  0  0  0
  3  4  1  0  0  0
  3 87  1  0  0  0
  3 88  1  0  0  0
  4  5  1  0  0  0
  4 89  1  0  0  0
  4 90  1  0  0  0
  5  6  1  0  0  0
  5 26  1  0  0  0
  5 91  1  0  0  0
  6 25  1  0  0  0
  6 92  1  0  0  0
  6 93  1  0  0  0
  7  8  2  0  0  0
  7 26  1  0  0  0
  7 29  1  0  0  0
  8  9  1  0  0  0
  8 22  1  0  0  0
  9 10  1  0  0  0
  9 27  2  0  0  0
 10 11  2  0  0  0
 10 15  1  0  0  0
 11 12  1  0  0  0
 11 94  1  0  0  0
 12 13  2  0  0  0
 12 95  1  0  0  0
 13 14  1  0  0  0
 13 31  1  0  0  0
 14 15  2  0  0  0
 14 96  1  0  0  0
 15 97  1  0  0  0
 16 17  2  0  0  0
 16 21  1  0  0  0
 16 31  1  0  0  0
 17 18  1  0  0  0
 17 98  1  0  0  0
 18 19  2  0  0  0
 18 99  1  0  0  0
 19 20  1  0  0  0
 19 24  1  0  0  0
 20 21  2  0  0  0
 20100  1  0  0  0
 21 23  1  0  0  0
 22 28  1  0  0  0
 22 32  2  0  0  0
 26 27  1  0  0  0
 28101  1  0  0  0
 28102  1  0  0  0
 29103  1  0  0  0
 29104  1  0  0  0
 33 34  1  0  0  0
 33 66  1  0  0  0
 33 70  2  0  0  0
 34 36  1  0  0  0
 34 59  1  0  0  0
 34105  1  0  0  0
 35 44  2  0  0  0
 35 45  1  0  0  0
 35 68  1  0  0  0
 36 56  1  0  0  0
 36106  1  0  0  0
 37 39  1  0  0  0
 37 47  1  0  0  0
 37 66  1  0  0  0
 37107  1  0  0  0
 38 43  2  0  0  0
 38 46  1  0  0  0
 38 47  1  0  0  0
 39 64  1  0  0  0
 39 67  2  0  0  0
 40 52  1  0  0  0
 40 53  2  0  0  0
 40 58  1  0  0  0
 41108  1  0  0  0
 41109  1  0  0  0
 41110  1  0  0  0
 41 48  1  0  0  0
 42 43  1  0  0  0
 42 66  1  0  0  0
 42111  1  0  0  0
 42112  1  0  0  0
 43 44  1  0  0  0
 44113  1  0  0  0
 45 46  2  0  0  0
 45114  1  0  0  0
 46115  1  0  0  0
 47116  1  0  0  0
 47117  1  0  0  0
 48 56  1  0  0  0
 48 65  1  0  0  0
 48118  1  0  0  0
 49 50  1  0  0  0
 49 53  1  0  0  0
 49 64  1  0  0  0
 49119  1  0  0  0
 50 51  1  0  0  0
 50120  1  0  0  0
 50121  1  0  0  0
 51 52  1  0  0  0
 51122  1  0  0  0
 51123  1  0  0  0
 52124  1  0  0  0
 52125  1  0  0  0
 53 54  1  0  0  0
 54 55  2  0  0  0
 54126  1  0  0  0
 55 57  1  0  0  0
 55127  1  0  0  0
 56 69  2  0  0  0
 57 58  2  0  0  0
 57128  1  0  0  0
 58129  1  0  0  0
 59 60  1  0  0  0
 59 61  1  0  0  0
 59 62  1  0  0  0
 60130  1  0  0  0
 60131  1  0  0  0
 60132  1  0  0  0
 61133  1  0  0  0
 61134  1  0  0  0
 61135  1  0  0  0
 62136  1  0  0  0
 62137  1  0  0  0
 62138  1  0  0  0
 63 65  1  0  0  0
 63139  1  0  0  0
 63140  1  0  0  0
 63141  1  0  0  0
 64142  1  0  0  0
 65143  1  0  0  0
 68 82  1  0  0  0
 71 73  2  0  0  0
 71 75  1  0  0  0
 71144  1  0  0  0
 72 74  1  0  0  0
 72 75  2  0  0  0
 72145  1  0  0  0
 73 76  1  0  0  0
 73146  1  0  0  0
 74 76  2  0  0  0
 74147  1  0  0  0
 75 79  1  0  0  0
 76 83  1  0  0  0
 77 83  1  0  0  0
 77148  1  0  0  0
 77149  1  0  0  0
 77150  1  0  0  0
 78 84  1  0  0  0
 78151  1  0  0  0
 78152  1  0  0  0
 78153  1  0  0  0
 79 84  1  0  0  0
 79154  1  0  0  0
 79155  1  0  0  0
 80 81  1  0  0  0
 80 82  1  0  0  0
 80156  1  0  0  0
 80157  1  0  0  0
 81 83  1  0  0  0
 81158  1  0  0  0
 81159  1  0  0  0
 82160  1  0  0  0
 82161  1  0  0  0
M  ISO  4   1 100  68 101  82 101  84 100
M  END
> <chiral flag>
0

> <version>
0

> <s_m_source_file>
/data/baiqing/PycharmProjects/Reinvent-master-3.2/result/LINK_invent/BTK/process_docking_weight1_custom_product_contain_oxygen_bond_distance_aromatic_linkinvent_7_9_3/rearranged_h_0014.sdf

> <i_m_source_file_index>
86

> <r_mmod_Potential_Energy-OPLS-2005>
100.385414123535

> <r_mmod_Stretch_Energy-OPLS-2005>
46.212100982666

> <r_mmod_Bend_Energy-OPLS-2005>
142.126251220703

> <r_mmod_Torsional_Energy-OPLS-2005>
238.704498291016

> <r_mmod_Improper_Torsional_Energy-OPLS-2005>
7.92415904998779

> <r_mmod_Van_der_Waal_Energy-OPLS-2005>
180.791030883789

> <r_mmod_Electrostatic_Energy-OPLS-2005>
-317.921661376953

> <r_mmod_Solvation_Energy-OPLS-2005>
-212.284820556641

> <b_mmod_Minimization_Converged-OPLS-2005>
0

> <r_mmod_RMS_Derivative-OPLS-2005>
4.60344171524048

$$$$
88
                    3D
 Structure written by MMmdl.
154162  0  0  1  0            999 V2000
  -30.6063  -14.7267   20.3567 C   0  0  0  0  0  0
  -30.4398  -12.4061   19.4749 C   0  0  0  0  0  0
  -29.5114  -12.3780   18.2406 C   0  0  0  0  0  0
  -28.0243  -12.2940   18.6539 C   0  0  0  0  0  0
  -27.6357  -13.2102   19.8498 C   0  0  2  0  0  0
  -28.6939  -13.1773   20.9707 C   0  0  0  0  0  0
  -25.2531  -13.8140   20.5773 C   0  0  0  0  0  0
  -24.1788  -13.0411   20.9249 C   0  0  0  0  0  0
  -24.6352  -11.6883   20.8795 C   0  0  0  0  0  0
  -23.9032  -10.4279   21.0431 C   0  0  0  0  0  0
  -24.3593   -9.4189   21.9189 C   0  0  0  0  0  0
  -23.6274   -8.2223   22.0748 C   0  0  0  0  0  0
  -22.4256   -8.0272   21.3537 C   0  0  0  0  0  0
  -21.9893   -9.0249   20.4637 C   0  0  0  0  0  0
  -22.7218  -10.2130   20.3064 C   0  0  0  0  0  0
  -21.6847   -6.0727   22.5274 C   0  0  0  0  0  0
  -21.4001   -6.5627   23.8207 C   0  0  0  0  0  0
  -21.3664   -5.6780   24.9169 C   0  0  0  0  0  0
  -21.6053   -4.3044   24.7218 C   0  0  0  0  0  0
  -21.8821   -3.8139   23.4339 C   0  0  0  0  0  0
  -21.9187   -4.6956   22.3394 C   0  0  0  0  0  0
  -22.7819  -13.5221   21.1891 C   0  0  0  0  0  0
  -22.1654   -4.2141   21.0974 F   0  0  0  0  0  0
  -21.5644   -3.4527   25.7733 F   0  0  0  0  0  0
  -29.9848  -13.5008   20.3535 N   0  0  0  0  0  0
  -26.2925  -12.9286   20.3384 N   0  0  0  0  0  0
  -25.9279  -11.6457   20.5855 N   0  0  0  0  0  0
  -22.0449  -12.8216   22.0439 N   0  0  0  0  0  0
  -25.4269  -15.1862   20.4218 N   0  0  0  0  0  0
  -31.8352  -14.7939   20.2597 O   0  0  0  0  0  0
  -21.6619   -6.8871   21.4237 O   0  0  0  0  0  0
  -22.3521  -14.5526   20.6733 O   0  0  0  0  0  0
  -24.6255  -31.8590   23.2003 C   0  0  0  0  0  0
  -25.9104  -32.4773   23.8335 C   0  0  1  0  0  0
  -27.2296  -27.3151   20.1209 C   0  0  0  0  0  0
  -25.5925  -33.8573   24.2269 N   0  0  0  0  0  0
  -23.4183  -30.4801   21.5439 C   0  0  2  0  0  0
  -24.8643  -28.9292   20.1112 C   0  0  0  0  0  0
  -22.7468  -29.4614   22.4946 C   0  0  0  0  0  0
  -18.0285  -28.1377   22.8489 C   0  0  0  0  0  0
  -24.1488  -36.7286   23.2640 C   0  0  0  0  0  0
  -25.9576  -30.7896   21.3685 C   0  0  0  0  0  0
  -26.0306  -29.4149   20.7133 C   0  0  0  0  0  0
  -27.2117  -28.6185   20.7074 C   0  0  0  0  0  0
  -26.0352  -26.8710   19.5090 C   0  0  0  0  0  0
  -24.8683  -27.6631   19.5020 C   0  0  0  0  0  0
  -23.6319  -29.8095   20.1598 C   0  0  0  0  0  0
  -25.4115  -36.3079   24.0330 C   0  0  1  0  0  0
  -20.5881  -28.3679   23.1293 C   0  0  2  0  0  0
  -20.6774  -26.9402   22.5416 C   0  0  0  0  0  0
  -19.5754  -26.6380   21.5214 C   0  0  0  0  0  0
  -18.1931  -26.7921   22.1621 C   0  0  0  0  0  0
  -19.1535  -28.8845   23.2886 C   0  0  0  0  0  0
  -18.9457  -30.1449   23.8898 C   0  0  0  0  0  0
  -17.6456  -30.6582   24.0559 C   0  0  0  0  0  0
  -25.9050  -34.9450   23.5100 C   0  0  0  0  0  0
  -16.5349  -29.9078   23.6328 C   0  0  0  0  0  0
  -16.7271  -28.6494   23.0353 C   0  0  0  0  0  0
  -26.4498  -31.6585   25.0703 C   0  0  0  0  0  0
  -25.3744  -31.3718   26.1439 C   0  0  0  0  0  0
  -27.0343  -30.3015   24.6145 C   0  0  0  0  0  0
  -27.6055  -32.4326   25.7475 C   0  0  0  0  0  0
  -27.5579  -37.1801   24.8468 C   0  0  0  0  0  0
  -21.4183  -29.3030   22.3691 N   0  0  0  0  0  0
  -26.4292  -37.3776   23.9409 N   0  0  0  0  0  0
  -24.6861  -31.0599   22.0951 N   0  0  0  0  0  0
  -23.4196  -28.8169   23.3033 O   0  0  0  0  0  0
  -28.3842  -26.5203   20.1893 O   0  0  0  0  0  0
  -26.5618  -34.8919   22.4666 O   0  0  0  0  0  0
  -23.5420  -32.1384   23.7338 O   0  0  0  0  0  0
  -28.7077  -17.5589   21.2588 C   0  0  0  0  0  0
  -28.3906  -18.9352   21.4772 C   0  0  0  0  0  0
  -30.1618  -19.6103   20.0090 C   0  0  0  0  0  0
  -29.7555  -17.1630   20.3886 C   0  0  0  0  0  0
  -29.0730  -20.0032   20.8306 C   0  0  0  0  0  0
  -30.5010  -18.2362   19.8049 C   0  0  0  0  0  0
  -29.6936  -15.7643   18.4006 C   0  0  0  0  0  0
  -28.4170  -23.8918   20.6762 C   0  0  0  0  0  0
  -28.4834  -25.1331   19.6757 C   0  0  0  0  0  0
  -28.9206  -22.4568   20.1665 C   0  0  0  0  0  0
  -29.8464  -15.7858   19.8718 N   0  0  0  0  0  0
  -28.6487  -21.3317   21.0710 O   0  0  0  0  0  0
  -31.5251  -17.9523   18.9639 F   0  0  0  0  0  0
  -31.4779  -12.5345   19.1615 H   0  0  0  0  0  0
  -30.4003  -11.4564   20.0097 H   0  0  0  0  0  0
  -29.7595  -11.5130   17.6239 H   0  0  0  0  0  0
  -29.6931  -13.2328   17.5962 H   0  0  0  0  0  0
  -27.8412  -11.2542   18.9270 H   0  0  0  0  0  0
  -27.3783  -12.4948   17.7988 H   0  0  0  0  0  0
  -27.5978  -14.2250   19.4703 H   0  0  0  0  0  0
  -28.7291  -12.1996   21.4536 H   0  0  0  0  0  0
  -28.4507  -13.9045   21.7475 H   0  0  0  0  0  0
  -25.2740   -9.5661   22.4759 H   0  0  0  0  0  0
  -23.9987   -7.4605   22.7453 H   0  0  0  0  0  0
  -21.0834   -8.8765   19.8933 H   0  0  0  0  0  0
  -22.3681  -10.9666   19.6170 H   0  0  0  0  0  0
  -21.1989   -7.6129   23.9703 H   0  0  0  0  0  0
  -21.1488   -6.0511   25.9070 H   0  0  0  0  0  0
  -22.0603   -2.7604   23.2837 H   0  0  0  0  0  0
  -22.4035  -11.9863   22.4825 H   0  0  0  0  0  0
  -21.1059  -13.1238   22.2623 H   0  0  0  0  0  0
  -24.6684  -15.8471   20.5492 H   0  0  0  0  0  0
  -26.2890  -15.6233   20.1221 H   0  0  0  0  0  0
  -26.7171  -32.5443   23.1082 H   0  0  0  0  0  0
  -25.0089  -33.9720   25.0424 H   0  0  0  0  0  0
  -22.7114  -31.2997   21.3992 H   0  0  0  0  0  0
  -23.3751  -35.9619   23.3309 H   0  0  0  0  0  0
  -24.3572  -36.8898   22.2052 H   0  0  0  0  0  0
  -23.7242  -37.6491   23.6656 H   0  0  0  0  0  0
  -26.0851  -31.5518   20.5987 H   0  0  0  0  0  0
  -26.8396  -30.8407   21.9955 H   0  0  0  0  0  0
  -28.1087  -28.9902   21.1825 H   0  0  0  0  0  0
  -25.9654  -25.8972   19.0514 H   0  0  0  0  0  0
  -23.9706  -27.2812   19.0354 H   0  0  0  0  0  0
  -23.7490  -30.5832   19.4003 H   0  0  0  0  0  0
  -22.7522  -29.2369   19.8609 H   0  0  0  0  0  0
  -25.1298  -36.1928   25.0824 H   0  0  0  0  0  0
  -20.9971  -28.3248   24.1415 H   0  0  0  0  0  0
  -20.5670  -26.2286   23.3614 H   0  0  0  0  0  0
  -21.6645  -26.7432   22.1214 H   0  0  0  0  0  0
  -19.6912  -25.6292   21.1242 H   0  0  0  0  0  0
  -19.6692  -27.3192   20.6747 H   0  0  0  0  0  0
  -17.4205  -26.6677   21.4018 H   0  0  0  0  0  0
  -18.0320  -26.0058   22.9011 H   0  0  0  0  0  0
  -19.7935  -30.7269   24.2263 H   0  0  0  0  0  0
  -17.5011  -31.6261   24.5163 H   0  0  0  0  0  0
  -15.5348  -30.2980   23.7651 H   0  0  0  0  0  0
  -15.8672  -28.0814   22.7064 H   0  0  0  0  0  0
  -24.5902  -30.7087   25.7769 H   0  0  0  0  0  0
  -24.8959  -32.2885   26.4894 H   0  0  0  0  0  0
  -25.8077  -30.8870   27.0196 H   0  0  0  0  0  0
  -26.2909  -29.6761   24.1187 H   0  0  0  0  0  0
  -27.4074  -29.7272   25.4636 H   0  0  0  0  0  0
  -27.8763  -30.4310   23.9340 H   0  0  0  0  0  0
  -27.2653  -33.3616   26.2065 H   0  0  0  0  0  0
  -28.3856  -32.6908   25.0301 H   0  0  0  0  0  0
  -28.0738  -31.8451   26.5384 H   0  0  0  0  0  0
  -28.2608  -38.0087   24.7501 H   0  0  0  0  0  0
  -28.1063  -36.2617   24.6311 H   0  0  0  0  0  0
  -27.2294  -37.1470   25.8871 H   0  0  0  0  0  0
  -20.9360  -29.8746   21.6897 H   0  0  0  0  0  0
  -26.0171  -38.2853   24.1404 H   0  0  0  0  0  0
  -28.0816  -16.8050   21.7138 H   0  0  0  0  0  0
  -27.5587  -19.1723   22.1253 H   0  0  0  0  0  0
  -30.7500  -20.3602   19.5026 H   0  0  0  0  0  0
  -29.4771  -16.7435   17.9740 H   0  0  0  0  0  0
  -28.8564  -15.1529   18.0832 H   0  0  0  0  0  0
  -30.5921  -15.4017   17.8964 H   0  0  0  0  0  0
  -27.3875  -23.7963   21.0206 H   0  0  0  0  0  0
  -28.9972  -24.1443   21.5636 H   0  0  0  0  0  0
  -27.8188  -24.9626   18.8316 H   0  0  0  0  0  0
  -29.4747  -25.0958   19.2240 H   0  0  0  0  0  0
  -29.9920  -22.5113   19.9706 H   0  0  0  0  0  0
  -28.4434  -22.2346   19.2110 H   0  0  0  0  0  0
  1 25  1  0  0  0
  1 30  2  0  0  0
  1 81  1  0  0  0
  2  3  1  0  0  0
  2 25  1  0  0  0
  2 84  1  0  0  0
  2 85  1  0  0  0
  3  4  1  0  0  0
  3 86  1  0  0  0
  3 87  1  0  0  0
  4  5  1  0  0  0
  4 88  1  0  0  0
  4 89  1  0  0  0
  5  6  1  0  0  0
  5 26  1  0  0  0
  5 90  1  0  0  0
  6 25  1  0  0  0
  6 91  1  0  0  0
  6 92  1  0  0  0
  7  8  2  0  0  0
  7 26  1  0  0  0
  7 29  1  0  0  0
  8  9  1  0  0  0
  8 22  1  0  0  0
  9 10  1  0  0  0
  9 27  2  0  0  0
 10 11  2  0  0  0
 10 15  1  0  0  0
 11 12  1  0  0  0
 11 93  1  0  0  0
 12 13  2  0  0  0
 12 94  1  0  0  0
 13 14  1  0  0  0
 13 31  1  0  0  0
 14 15  2  0  0  0
 14 95  1  0  0  0
 15 96  1  0  0  0
 16 17  2  0  0  0
 16 21  1  0  0  0
 16 31  1  0  0  0
 17 18  1  0  0  0
 17 97  1  0  0  0
 18 19  2  0  0  0
 18 98  1  0  0  0
 19 20  1  0  0  0
 19 24  1  0  0  0
 20 21  2  0  0  0
 20 99  1  0  0  0
 21 23  1  0  0  0
 22 28  1  0  0  0
 22 32  2  0  0  0
 26 27  1  0  0  0
 28100  1  0  0  0
 28101  1  0  0  0
 29102  1  0  0  0
 29103  1  0  0  0
 33 34  1  0  0  0
 33 66  1  0  0  0
 33 70  2  0  0  0
 34 36  1  0  0  0
 34 59  1  0  0  0
 34104  1  0  0  0
 35 44  2  0  0  0
 35 45  1  0  0  0
 35 68  1  0  0  0
 36 56  1  0  0  0
 36105  1  0  0  0
 37 39  1  0  0  0
 37 47  1  0  0  0
 37 66  1  0  0  0
 37106  1  0  0  0
 38 43  2  0  0  0
 38 46  1  0  0  0
 38 47  1  0  0  0
 39 64  1  0  0  0
 39 67  2  0  0  0
 40 52  1  0  0  0
 40 53  2  0  0  0
 40 58  1  0  0  0
 41107  1  0  0  0
 41108  1  0  0  0
 41109  1  0  0  0
 41 48  1  0  0  0
 42 43  1  0  0  0
 42 66  1  0  0  0
 42110  1  0  0  0
 42111  1  0  0  0
 43 44  1  0  0  0
 44112  1  0  0  0
 45 46  2  0  0  0
 45113  1  0  0  0
 46114  1  0  0  0
 47115  1  0  0  0
 47116  1  0  0  0
 48 56  1  0  0  0
 48 65  1  0  0  0
 48117  1  0  0  0
 49 50  1  0  0  0
 49 53  1  0  0  0
 49 64  1  0  0  0
 49118  1  0  0  0
 50 51  1  0  0  0
 50119  1  0  0  0
 50120  1  0  0  0
 51 52  1  0  0  0
 51121  1  0  0  0
 51122  1  0  0  0
 52123  1  0  0  0
 52124  1  0  0  0
 53 54  1  0  0  0
 54 55  2  0  0  0
 54125  1  0  0  0
 55 57  1  0  0  0
 55126  1  0  0  0
 56 69  2  0  0  0
 57 58  2  0  0  0
 57127  1  0  0  0
 58128  1  0  0  0
 59 60  1  0  0  0
 59 61  1  0  0  0
 59 62  1  0  0  0
 60129  1  0  0  0
 60130  1  0  0  0
 60131  1  0  0  0
 61132  1  0  0  0
 61133  1  0  0  0
 61134  1  0  0  0
 62135  1  0  0  0
 62136  1  0  0  0
 62137  1  0  0  0
 63 65  1  0  0  0
 63138  1  0  0  0
 63139  1  0  0  0
 63140  1  0  0  0
 64141  1  0  0  0
 65142  1  0  0  0
 68 79  1  0  0  0
 71 72  2  0  0  0
 71 74  1  0  0  0
 71143  1  0  0  0
 72 75  1  0  0  0
 72144  1  0  0  0
 73 75  2  0  0  0
 73 76  1  0  0  0
 73145  1  0  0  0
 74 76  2  0  0  0
 74 81  1  0  0  0
 75 82  1  0  0  0
 76 83  1  0  0  0
 77 81  1  0  0  0
 77146  1  0  0  0
 77147  1  0  0  0
 77148  1  0  0  0
 78 79  1  0  0  0
 78 80  1  0  0  0
 78149  1  0  0  0
 78150  1  0  0  0
 79151  1  0  0  0
 79152  1  0  0  0
 80 82  1  0  0  0
 80153  1  0  0  0
 80154  1  0  0  0
M  ISO  4   1 100  68 101  79 101  81 100
M  END
> <chiral flag>
0

> <version>
0

> <s_m_source_file>
/data/baiqing/PycharmProjects/Reinvent-master-3.2/result/LINK_invent/BTK/process_docking_weight1_custom_product_contain_oxygen_bond_distance_aromatic_linkinvent_7_9_3/rearranged_h_0014.sdf

> <i_m_source_file_index>
87

> <r_mmod_Potential_Energy-OPLS-2005>
309.552795410156

> <r_mmod_Stretch_Energy-OPLS-2005>
88.2453536987305

> <r_mmod_Bend_Energy-OPLS-2005>
167.276290893555

> <r_mmod_Torsional_Energy-OPLS-2005>
327.139190673828

> <r_mmod_Improper_Torsional_Energy-OPLS-2005>
25.6013622283936

> <r_mmod_Van_der_Waal_Energy-OPLS-2005>
144.744674682617

> <r_mmod_Electrostatic_Energy-OPLS-2005>
-321.322082519531

> <r_mmod_Solvation_Energy-OPLS-2005>
-199.737258911133

> <b_mmod_Minimization_Converged-OPLS-2005>
0

> <r_mmod_RMS_Derivative-OPLS-2005>
0.991896033287048

$$$$
89
                    3D
 Structure written by MMmdl.
173181  0  0  1  0            999 V2000
  -30.7559  -14.4033   20.6613 C   0  0  0  0  0  0
  -30.4165  -12.3045   19.4021 C   0  0  0  0  0  0
  -29.4834  -12.5171   18.1951 C   0  0  0  0  0  0
  -28.0094  -12.3584   18.6126 C   0  0  0  0  0  0
  -27.6614  -13.1902   19.8726 C   0  0  2  0  0  0
  -28.7031  -12.9487   20.9915 C   0  0  0  0  0  0
  -25.2603  -13.8126   20.5653 C   0  0  0  0  0  0
  -24.1844  -13.0426   20.9173 C   0  0  0  0  0  0
  -24.6377  -11.6887   20.8740 C   0  0  0  0  0  0
  -23.9040  -10.4283   21.0413 C   0  0  0  0  0  0
  -24.3599   -9.4200   21.9187 C   0  0  0  0  0  0
  -23.6279   -8.2235   22.0755 C   0  0  0  0  0  0
  -22.4264   -8.0275   21.3543 C   0  0  0  0  0  0
  -21.9895   -9.0248   20.4646 C   0  0  0  0  0  0
  -22.7218  -10.2127   20.3059 C   0  0  0  0  0  0
  -21.6848   -6.0733   22.5277 C   0  0  0  0  0  0
  -21.4011   -6.5639   23.8211 C   0  0  0  0  0  0
  -21.3659   -5.6791   24.9174 C   0  0  0  0  0  0
  -21.6044   -4.3055   24.7226 C   0  0  0  0  0  0
  -21.8818   -3.8146   23.4347 C   0  0  0  0  0  0
  -21.9190   -4.6960   22.3402 C   0  0  0  0  0  0
  -22.7873  -13.5242   21.1843 C   0  0  0  0  0  0
  -22.1659   -4.2146   21.0979 F   0  0  0  0  0  0
  -21.5630   -3.4539   25.7740 F   0  0  0  0  0  0
  -30.0369  -13.2643   20.4528 N   0  0  0  0  0  0
  -26.3016  -12.9260   20.3340 N   0  0  0  0  0  0
  -25.9293  -11.6440   20.5758 N   0  0  0  0  0  0
  -22.0510  -12.8239   22.0401 N   0  0  0  0  0  0
  -25.4337  -15.1839   20.4024 N   0  0  0  0  0  0
  -31.8248  -14.6200   20.0784 O   0  0  0  0  0  0
  -21.6630   -6.8873   21.4239 O   0  0  0  0  0  0
  -22.3565  -14.5554   20.6697 O   0  0  0  0  0  0
  -24.6104  -31.8703   23.2121 C   0  0  0  0  0  0
  -25.9013  -32.4836   23.8409 C   0  0  1  0  0  0
  -27.2441  -27.4787   20.0842 C   0  0  0  0  0  0
  -25.5891  -33.8636   24.2346 N   0  0  0  0  0  0
  -23.3977  -30.4911   21.5520 C   0  0  2  0  0  0
  -24.8474  -28.9583   20.1180 C   0  0  0  0  0  0
  -22.7389  -29.4661   22.5017 C   0  0  0  0  0  0
  -18.0266  -28.1370   22.8494 C   0  0  0  0  0  0
  -24.1488  -36.7322   23.2635 C   0  0  0  0  0  0
  -25.9210  -30.8484   21.3584 C   0  0  0  0  0  0
  -26.0032  -29.4839   20.7099 C   0  0  0  0  0  0
  -27.2065  -28.7484   20.6955 C   0  0  0  0  0  0
  -26.0733  -26.9467   19.5090 C   0  0  0  0  0  0
  -24.8743  -27.6858   19.5175 C   0  0  0  0  0  0
  -23.6050  -29.8184   20.1677 C   0  0  0  0  0  0
  -25.4106  -36.3120   24.0343 C   0  0  1  0  0  0
  -20.5851  -28.3652   23.1333 C   0  0  2  0  0  0
  -20.6759  -26.9393   22.5419 C   0  0  0  0  0  0
  -19.5741  -26.6382   21.5209 C   0  0  0  0  0  0
  -18.1915  -26.7922   22.1615 C   0  0  0  0  0  0
  -19.1514  -28.8829   23.2910 C   0  0  0  0  0  0
  -18.9445  -30.1441   23.8909 C   0  0  0  0  0  0
  -17.6449  -30.6582   24.0561 C   0  0  0  0  0  0
  -25.9029  -34.9484   23.5139 C   0  0  0  0  0  0
  -16.5339  -29.9080   23.6329 C   0  0  0  0  0  0
  -16.7257  -28.6498   23.0349 C   0  0  0  0  0  0
  -26.4458  -31.6601   25.0720 C   0  0  0  0  0  0
  -25.3735  -31.3684   26.1475 C   0  0  0  0  0  0
  -27.0295  -30.3060   24.6052 C   0  0  0  0  0  0
  -27.6048  -32.4309   25.7470 C   0  0  0  0  0  0
  -27.5585  -37.1807   24.8462 C   0  0  0  0  0  0
  -21.4122  -29.3026   22.3753 N   0  0  0  0  0  0
  -26.4294  -37.3800   23.9415 N   0  0  0  0  0  0
  -24.6611  -31.0832   22.1002 N   0  0  0  0  0  0
  -23.4175  -28.8205   23.3050 O   0  0  0  0  0  0
  -28.3985  -26.7401   20.0695 O   0  0  0  0  0  0
  -26.5579  -34.8926   22.4690 O   0  0  0  0  0  0
  -23.5306  -32.1430   23.7543 O   0  0  0  0  0  0
  -29.5077  -17.0250   19.0956 C   0  0  0  0  0  0
  -29.7028  -18.0773   18.1818 C   0  0  0  0  0  0
  -29.6396  -19.6800   20.0100 C   0  0  0  0  0  0
  -29.3974  -17.2868   20.4786 C   0  0  0  0  0  0
  -29.7662  -19.4123   18.6271 C   0  0  0  0  0  0
  -29.4625  -18.6249   20.9295 C   0  0  0  0  0  0
  -31.1066  -22.8698   16.2548 C   0  0  0  0  0  0
  -31.3352  -15.7990   22.5536 C   0  0  0  0  0  0
  -27.4579  -23.8547   16.5312 C   0  0  0  0  0  0
  -29.1787  -16.1396   21.4641 C   0  0  0  0  0  0
  -29.0544  -26.2951   17.7763 C   0  0  0  0  0  0
  -29.4827  -21.7755   17.9118 C   0  0  0  0  0  0
  -29.2453  -24.7761   17.9793 C   0  0  0  0  0  0
  -29.3301  -27.1008   19.0563 C   0  0  0  0  0  0
  -29.6295  -22.6705   16.6518 C   0  0  1  0  0  0
  -29.9631  -20.4171   17.6683 N   0  0  0  0  0  0
  -30.3331  -15.2360   21.6428 N   0  0  0  0  0  0
  -28.9201  -23.9810   16.7624 N   0  3  1  0  0  0
  -29.3538  -18.9068   22.2505 F   0  0  0  0  0  0
  -31.4584  -12.4054   19.0930 H   0  0  0  0  0  0
  -30.3239  -11.2852   19.7804 H   0  0  0  0  0  0
  -29.7249  -11.8071   17.4028 H   0  0  0  0  0  0
  -29.6426  -13.5113   17.7746 H   0  0  0  0  0  0
  -27.8290  -11.3002   18.8058 H   0  0  0  0  0  0
  -27.3521  -12.6324   17.7866 H   0  0  0  0  0  0
  -27.7074  -14.2324   19.5631 H   0  0  0  0  0  0
  -28.6806  -11.9026   21.3007 H   0  0  0  0  0  0
  -28.4582  -13.5074   21.8942 H   0  0  0  0  0  0
  -25.2746   -9.5676   22.4757 H   0  0  0  0  0  0
  -23.9991   -7.4625   22.7473 H   0  0  0  0  0  0
  -21.0827   -8.8762   19.8951 H   0  0  0  0  0  0
  -22.3678  -10.9667   19.6167 H   0  0  0  0  0  0
  -21.2005   -7.6147   23.9714 H   0  0  0  0  0  0
  -21.1483   -6.0523   25.9076 H   0  0  0  0  0  0
  -22.0599   -2.7608   23.2848 H   0  0  0  0  0  0
  -22.4118  -11.9890   22.4775 H   0  0  0  0  0  0
  -21.1137  -13.1281   22.2622 H   0  0  0  0  0  0
  -24.6641  -15.8364   20.5038 H   0  0  0  0  0  0
  -26.2752  -15.6198   20.0486 H   0  0  0  0  0  0
  -26.7088  -32.5572   23.1186 H   0  0  0  0  0  0
  -25.0081  -33.9809   25.0518 H   0  0  0  0  0  0
  -22.6842  -31.3059   21.4121 H   0  0  0  0  0  0
  -23.3749  -35.9654   23.3298 H   0  0  0  0  0  0
  -24.3587  -36.8934   22.2050 H   0  0  0  0  0  0
  -23.7239  -37.6529   23.6646 H   0  0  0  0  0  0
  -26.0224  -31.6142   20.5881 H   0  0  0  0  0  0
  -26.8125  -30.9082   21.9707 H   0  0  0  0  0  0
  -28.1018  -29.1495   21.1498 H   0  0  0  0  0  0
  -26.0932  -25.9673   19.0526 H   0  0  0  0  0  0
  -23.9832  -27.2718   19.0659 H   0  0  0  0  0  0
  -23.7051  -30.5906   19.4038 H   0  0  0  0  0  0
  -22.7319  -29.2311   19.8775 H   0  0  0  0  0  0
  -25.1276  -36.1988   25.0837 H   0  0  0  0  0  0
  -20.9935  -28.3208   24.1456 H   0  0  0  0  0  0
  -20.5663  -26.2252   23.3596 H   0  0  0  0  0  0
  -21.6630  -26.7443   22.1206 H   0  0  0  0  0  0
  -19.6900  -25.6293   21.1235 H   0  0  0  0  0  0
  -19.6687  -27.3196   20.6741 H   0  0  0  0  0  0
  -17.4188  -26.6683   21.4010 H   0  0  0  0  0  0
  -18.0311  -26.0051   22.8997 H   0  0  0  0  0  0
  -19.7921  -30.7262   24.2270 H   0  0  0  0  0  0
  -17.5003  -31.6266   24.5152 H   0  0  0  0  0  0
  -15.5340  -30.2987   23.7646 H   0  0  0  0  0  0
  -15.8657  -28.0829   22.7045 H   0  0  0  0  0  0
  -24.5918  -30.7018   25.7812 H   0  0  0  0  0  0
  -24.8907  -32.2828   26.4935 H   0  0  0  0  0  0
  -25.8101  -30.8850   27.0225 H   0  0  0  0  0  0
  -26.2827  -29.6817   24.1132 H   0  0  0  0  0  0
  -27.4130  -29.7295   25.4482 H   0  0  0  0  0  0
  -27.8626  -30.4415   23.9150 H   0  0  0  0  0  0
  -27.2686  -33.3606   26.2073 H   0  0  0  0  0  0
  -28.3835  -32.6871   25.0274 H   0  0  0  0  0  0
  -28.0735  -31.8413   26.5357 H   0  0  0  0  0  0
  -28.2589  -38.0117   24.7536 H   0  0  0  0  0  0
  -28.1098  -36.2653   24.6256 H   0  0  0  0  0  0
  -27.2312  -37.1419   25.8866 H   0  0  0  0  0  0
  -20.9278  -29.8754   21.6983 H   0  0  0  0  0  0
  -26.0189  -38.2880   24.1423 H   0  0  0  0  0  0
  -29.4450  -16.0149   18.7183 H   0  0  0  0  0  0
  -29.7949  -17.8448   17.1299 H   0  0  0  0  0  0
  -29.6887  -20.6881   20.3917 H   0  0  0  0  0  0
  -31.5818  -21.9155   16.0279 H   0  0  0  0  0  0
  -31.6906  -23.3329   17.0494 H   0  0  0  0  0  0
  -31.2014  -23.4893   15.3629 H   0  0  0  0  0  0
  -30.8791  -16.1535   23.4782 H   0  0  0  0  0  0
  -31.8525  -16.6382   22.0860 H   0  0  0  0  0  0
  -32.0840  -15.0545   22.8299 H   0  0  0  0  0  0
  -26.9756  -24.8282   16.4539 H   0  0  0  0  0  0
  -26.9711  -23.3089   17.3395 H   0  0  0  0  0  0
  -27.2484  -23.3298   15.5988 H   0  0  0  0  0  0
  -28.2948  -15.6002   21.1421 H   0  0  0  0  0  0
  -28.8894  -16.5442   22.4344 H   0  0  0  0  0  0
  -28.0487  -26.5260   17.4284 H   0  0  0  0  0  0
  -29.7304  -26.6431   16.9944 H   0  0  0  0  0  0
  -28.4366  -21.7206   18.2169 H   0  0  0  0  0  0
  -30.0352  -22.2110   18.7453 H   0  0  0  0  0  0
  -28.6385  -24.4239   18.8150 H   0  0  0  0  0  0
  -30.2814  -24.6100   18.2732 H   0  0  0  0  0  0
  -29.2988  -28.1719   18.8475 H   0  0  0  0  0  0
  -30.3358  -26.8898   19.4209 H   0  0  0  0  0  0
  -29.1691  -22.1407   15.8157 H   0  0  0  0  0  0
  -30.0128  -20.1216   16.6967 H   0  0  0  0  0  0
  -29.2633  -24.5149   15.9778 H   0  0  0  0  0  0
  1 25  1  0  0  0
  1 30  2  0  0  0
  1 87  1  0  0  0
  2  3  1  0  0  0
  2 25  1  0  0  0
  2 90  1  0  0  0
  2 91  1  0  0  0
  3  4  1  0  0  0
  3 92  1  0  0  0
  3 93  1  0  0  0
  4  5  1  0  0  0
  4 94  1  0  0  0
  4 95  1  0  0  0
  5  6  1  0  0  0
  5 26  1  0  0  0
  5 96  1  0  0  0
  6 25  1  0  0  0
  6 97  1  0  0  0
  6 98  1  0  0  0
  7  8  2  0  0  0
  7 26  1  0  0  0
  7 29  1  0  0  0
  8  9  1  0  0  0
  8 22  1  0  0  0
  9 10  1  0  0  0
  9 27  2  0  0  0
 10 11  2  0  0  0
 10 15  1  0  0  0
 11 12  1  0  0  0
 11 99  1  0  0  0
 12 13  2  0  0  0
 12100  1  0  0  0
 13 14  1  0  0  0
 13 31  1  0  0  0
 14 15  2  0  0  0
 14101  1  0  0  0
 15102  1  0  0  0
 16 17  2  0  0  0
 16 21  1  0  0  0
 16 31  1  0  0  0
 17 18  1  0  0  0
 17103  1  0  0  0
 18 19  2  0  0  0
 18104  1  0  0  0
 19 20  1  0  0  0
 19 24  1  0  0  0
 20 21  2  0  0  0
 20105  1  0  0  0
 21 23  1  0  0  0
 22 28  1  0  0  0
 22 32  2  0  0  0
 26 27  1  0  0  0
 28106  1  0  0  0
 28107  1  0  0  0
 29108  1  0  0  0
 29109  1  0  0  0
 33 34  1  0  0  0
 33 66  1  0  0  0
 33 70  2  0  0  0
 34 36  1  0  0  0
 34 59  1  0  0  0
 34110  1  0  0  0
 35 44  2  0  0  0
 35 45  1  0  0  0
 35 68  1  0  0  0
 36 56  1  0  0  0
 36111  1  0  0  0
 37 39  1  0  0  0
 37 47  1  0  0  0
 37 66  1  0  0  0
 37112  1  0  0  0
 38 43  2  0  0  0
 38 46  1  0  0  0
 38 47  1  0  0  0
 39 64  1  0  0  0
 39 67  2  0  0  0
 40 52  1  0  0  0
 40 53  2  0  0  0
 40 58  1  0  0  0
 41113  1  0  0  0
 41114  1  0  0  0
 41115  1  0  0  0
 41 48  1  0  0  0
 42 43  1  0  0  0
 42 66  1  0  0  0
 42116  1  0  0  0
 42117  1  0  0  0
 43 44  1  0  0  0
 44118  1  0  0  0
 45 46  2  0  0  0
 45119  1  0  0  0
 46120  1  0  0  0
 47121  1  0  0  0
 47122  1  0  0  0
 48 56  1  0  0  0
 48 65  1  0  0  0
 48123  1  0  0  0
 49 50  1  0  0  0
 49 53  1  0  0  0
 49 64  1  0  0  0
 49124  1  0  0  0
 50 51  1  0  0  0
 50125  1  0  0  0
 50126  1  0  0  0
 51 52  1  0  0  0
 51127  1  0  0  0
 51128  1  0  0  0
 52129  1  0  0  0
 52130  1  0  0  0
 53 54  1  0  0  0
 54 55  2  0  0  0
 54131  1  0  0  0
 55 57  1  0  0  0
 55132  1  0  0  0
 56 69  2  0  0  0
 57 58  2  0  0  0
 57133  1  0  0  0
 58134  1  0  0  0
 59 60  1  0  0  0
 59 61  1  0  0  0
 59 62  1  0  0  0
 60135  1  0  0  0
 60136  1  0  0  0
 60137  1  0  0  0
 61138  1  0  0  0
 61139  1  0  0  0
 61140  1  0  0  0
 62141  1  0  0  0
 62142  1  0  0  0
 62143  1  0  0  0
 63 65  1  0  0  0
 63144  1  0  0  0
 63145  1  0  0  0
 63146  1  0  0  0
 64147  1  0  0  0
 65148  1  0  0  0
 68 84  1  0  0  0
 71 72  2  0  0  0
 71 74  1  0  0  0
 71149  1  0  0  0
 72 75  1  0  0  0
 72150  1  0  0  0
 73 75  2  0  0  0
 73 76  1  0  0  0
 73151  1  0  0  0
 74 76  2  0  0  0
 74 80  1  0  0  0
 75 86  1  0  0  0
 76 89  1  0  0  0
 77152  1  0  0  0
 77153  1  0  0  0
 77154  1  0  0  0
 77 85  1  0  0  0
 78 87  1  0  0  0
 78155  1  0  0  0
 78156  1  0  0  0
 78157  1  0  0  0
 79158  1  0  0  0
 79159  1  0  0  0
 79160  1  0  0  0
 79 88  1  0  0  0
 80 87  1  0  0  0
 80161  1  0  0  0
 80162  1  0  0  0
 81 83  1  0  0  0
 81 84  1  0  0  0
 81163  1  0  0  0
 81164  1  0  0  0
 82 85  1  0  0  0
 82 86  1  0  0  0
 82165  1  0  0  0
 82166  1  0  0  0
 83 88  1  0  0  0
 83167  1  0  0  0
 83168  1  0  0  0
 84169  1  0  0  0
 84170  1  0  0  0
 85 88  1  0  0  0
 85171  1  0  0  0
 86172  1  0  0  0
 88173  1  0  0  0
M  CHG  1  88   1
M  ISO  4   1 100  68 101  84 101  87 100
M  END
> <chiral flag>
0

> <version>
0

> <s_m_source_file>
/data/baiqing/PycharmProjects/Reinvent-master-3.2/result/LINK_invent/BTK/process_docking_weight1_custom_product_contain_oxygen_bond_distance_aromatic_linkinvent_7_9_3/rearranged_h_0014.sdf

> <i_m_source_file_index>
88

> <r_mmod_Potential_Energy-OPLS-2005>
-18.5378551483154

> <r_mmod_Stretch_Energy-OPLS-2005>
36.5924644470215

> <r_mmod_Bend_Energy-OPLS-2005>
105.942260742188

> <r_mmod_Torsional_Energy-OPLS-2005>
297.757690429688

> <r_mmod_Improper_Torsional_Energy-OPLS-2005>
7.44175291061401

> <r_mmod_Van_der_Waal_Energy-OPLS-2005>
152.560394287109

> <r_mmod_Electrostatic_Energy-OPLS-2005>
-194.388442993164

> <r_mmod_Solvation_Energy-OPLS-2005>
-432.017578125

> <b_mmod_Minimization_Converged-OPLS-2005>
0

> <r_mmod_RMS_Derivative-OPLS-2005>
0.598408758640289

$$$$
90
                    3D
 Structure written by MMmdl.
161170  0  0  1  0            999 V2000
  -30.7194  -14.4489   20.6732 C   0  0  0  0  0  0
  -30.4282  -12.3344   19.4030 C   0  0  0  0  0  0
  -29.4906  -12.5330   18.1956 C   0  0  0  0  0  0
  -28.0133  -12.3803   18.6098 C   0  0  0  0  0  0
  -27.6649  -13.2028   19.8786 C   0  0  2  0  0  0
  -28.7049  -12.9387   20.9869 C   0  0  0  0  0  0
  -25.2619  -13.8156   20.5680 C   0  0  0  0  0  0
  -24.1854  -13.0441   20.9160 C   0  0  0  0  0  0
  -24.6395  -11.6903   20.8715 C   0  0  0  0  0  0
  -23.9056  -10.4293   21.0388 C   0  0  0  0  0  0
  -24.3608   -9.4214   21.9173 C   0  0  0  0  0  0
  -23.6287   -8.2247   22.0750 C   0  0  0  0  0  0
  -22.4270   -8.0281   21.3541 C   0  0  0  0  0  0
  -21.9902   -9.0252   20.4642 C   0  0  0  0  0  0
  -22.7226  -10.2134   20.3046 C   0  0  0  0  0  0
  -21.6855   -6.0737   22.5280 C   0  0  0  0  0  0
  -21.4012   -6.5640   23.8214 C   0  0  0  0  0  0
  -21.3658   -5.6792   24.9175 C   0  0  0  0  0  0
  -21.6044   -4.3055   24.7225 C   0  0  0  0  0  0
  -21.8819   -3.8148   23.4346 C   0  0  0  0  0  0
  -21.9193   -4.6965   22.3402 C   0  0  0  0  0  0
  -22.7880  -13.5245   21.1835 C   0  0  0  0  0  0
  -22.1663   -4.2152   21.0979 F   0  0  0  0  0  0
  -21.5628   -3.4537   25.7736 F   0  0  0  0  0  0
  -30.0325  -13.2891   20.4540 N   0  0  0  0  0  0
  -26.3044  -12.9311   20.3371 N   0  0  0  0  0  0
  -25.9321  -11.6474   20.5742 N   0  0  0  0  0  0
  -22.0518  -12.8236   22.0391 N   0  0  0  0  0  0
  -25.4392  -15.1872   20.4117 N   0  0  0  0  0  0
  -31.7714  -14.6869   20.0655 O   0  0  0  0  0  0
  -21.6637   -6.8878   21.4241 O   0  0  0  0  0  0
  -22.3564  -14.5555   20.6694 O   0  0  0  0  0  0
  -24.6142  -31.8674   23.2092 C   0  0  0  0  0  0
  -25.9032  -32.4823   23.8388 C   0  0  1  0  0  0
  -27.2359  -27.4327   20.1023 C   0  0  0  0  0  0
  -25.5885  -33.8621   24.2323 N   0  0  0  0  0  0
  -23.4032  -30.4896   21.5490 C   0  0  2  0  0  0
  -24.8523  -28.9490   20.1202 C   0  0  0  0  0  0
  -22.7408  -29.4659   22.4992 C   0  0  0  0  0  0
  -18.0272  -28.1383   22.8491 C   0  0  0  0  0  0
  -24.1486  -36.7314   23.2641 C   0  0  0  0  0  0
  -25.9315  -30.8315   21.3631 C   0  0  0  0  0  0
  -26.0107  -29.4618   20.7197 C   0  0  0  0  0  0
  -27.2077  -28.7082   20.7124 C   0  0  0  0  0  0
  -26.0659  -26.9313   19.5006 C   0  0  0  0  0  0
  -24.8733  -27.6813   19.5111 C   0  0  0  0  0  0
  -23.6137  -29.8173   20.1657 C   0  0  0  0  0  0
  -25.4106  -36.3115   24.0341 C   0  0  1  0  0  0
  -20.5864  -28.3665   23.1321 C   0  0  2  0  0  0
  -20.6767  -26.9403   22.5421 C   0  0  0  0  0  0
  -19.5747  -26.6393   21.5217 C   0  0  0  0  0  0
  -18.1922  -26.7933   22.1623 C   0  0  0  0  0  0
  -19.1521  -28.8838   23.2908 C   0  0  0  0  0  0
  -18.9453  -30.1448   23.8915 C   0  0  0  0  0  0
  -17.6455  -30.6588   24.0567 C   0  0  0  0  0  0
  -25.9031  -34.9477   23.5132 C   0  0  0  0  0  0
  -16.5346  -29.9095   23.6327 C   0  0  0  0  0  0
  -16.7261  -28.6513   23.0345 C   0  0  0  0  0  0
  -26.4463  -31.6597   25.0710 C   0  0  0  0  0  0
  -25.3734  -31.3695   26.1462 C   0  0  0  0  0  0
  -27.0291  -30.3043   24.6069 C   0  0  0  0  0  0
  -27.6044  -32.4308   25.7472 C   0  0  0  0  0  0
  -27.5579  -37.1813   24.8468 C   0  0  0  0  0  0
  -21.4136  -29.3036   22.3730 N   0  0  0  0  0  0
  -26.4293  -37.3797   23.9409 N   0  0  0  0  0  0
  -24.6677  -31.0776   22.0992 N   0  0  0  0  0  0
  -23.4181  -28.8209   23.3039 O   0  0  0  0  0  0
  -28.3920  -26.6900   20.0305 O   0  0  0  0  0  0
  -26.5601  -34.8930   22.4699 O   0  0  0  0  0  0
  -23.5333  -32.1420   23.7487 O   0  0  0  0  0  0
  -29.0160  -19.8276   20.8394 C   0  0  0  0  0  0
  -30.9873  -20.2376   22.1776 C   0  0  0  0  0  0
  -28.7017  -21.2124   20.8831 C   0  0  0  0  0  0
  -30.6628  -21.6075   22.2387 C   0  0  0  0  0  0
  -30.1500  -19.2999   21.5185 C   0  0  0  0  0  0
  -29.5015  -22.1143   21.6228 C   0  0  0  0  0  0
  -29.8285  -16.8139   21.0680 C   0  0  0  0  0  0
  -31.3406  -15.9039   22.7153 C   0  0  0  0  0  0
  -31.4870  -17.4195   22.5633 C   0  0  0  0  0  0
  -30.2393  -15.4851   21.7367 C   0  0  2  0  0  0
  -28.7429  -23.7002   23.2480 C   0  0  0  0  0  0
  -28.5624  -24.3094   20.8079 C   0  0  0  0  0  0
  -28.6559  -25.8302   21.1452 C   0  0  0  0  0  0
  -30.4499  -17.8803   21.6359 N   0  0  0  0  0  0
  -29.1473  -23.4625   21.8616 N   0  0  0  0  0  0
  -28.9905  -16.8552   20.1600 O   0  0  0  0  0  0
  -31.4682  -12.4532   19.0952 H   0  0  0  0  0  0
  -30.3540  -11.3133   19.7796 H   0  0  0  0  0  0
  -29.7342  -11.8183   17.4084 H   0  0  0  0  0  0
  -29.6503  -13.5248   17.7693 H   0  0  0  0  0  0
  -27.8267  -11.3213   18.7931 H   0  0  0  0  0  0
  -27.3591  -12.6645   17.7847 H   0  0  0  0  0  0
  -27.7227  -14.2575   19.6086 H   0  0  0  0  0  0
  -28.6969  -11.8808   21.2547 H   0  0  0  0  0  0
  -28.4244  -13.4434   21.9057 H   0  0  0  0  0  0
  -25.2757   -9.5693   22.4742 H   0  0  0  0  0  0
  -24.0002   -7.4639   22.7468 H   0  0  0  0  0  0
  -21.0837   -8.8766   19.8946 H   0  0  0  0  0  0
  -22.3686  -10.9667   19.6149 H   0  0  0  0  0  0
  -21.2003   -7.6149   23.9719 H   0  0  0  0  0  0
  -21.1480   -6.0521   25.9079 H   0  0  0  0  0  0
  -22.0600   -2.7610   23.2844 H   0  0  0  0  0  0
  -22.4125  -11.9892   22.4774 H   0  0  0  0  0  0
  -21.1132  -13.1258   22.2587 H   0  0  0  0  0  0
  -24.6818  -15.8513   20.5287 H   0  0  0  0  0  0
  -26.3085  -15.6234   20.1255 H   0  0  0  0  0  0
  -26.7098  -32.5537   23.1150 H   0  0  0  0  0  0
  -25.0035  -33.9785   25.0469 H   0  0  0  0  0  0
  -22.6925  -31.3065   21.4068 H   0  0  0  0  0  0
  -23.3747  -35.9648   23.3317 H   0  0  0  0  0  0
  -24.3581  -36.8913   22.2052 H   0  0  0  0  0  0
  -23.7242  -37.6526   23.6641 H   0  0  0  0  0  0
  -26.0417  -31.5933   20.5895 H   0  0  0  0  0  0
  -26.8209  -30.8912   21.9787 H   0  0  0  0  0  0
  -28.1064  -29.1041   21.1642 H   0  0  0  0  0  0
  -26.0815  -25.9626   19.0209 H   0  0  0  0  0  0
  -23.9827  -27.2810   19.0463 H   0  0  0  0  0  0
  -23.7237  -30.5896   19.4038 H   0  0  0  0  0  0
  -22.7382  -29.2369   19.8689 H   0  0  0  0  0  0
  -25.1286  -36.1982   25.0834 H   0  0  0  0  0  0
  -20.9949  -28.3226   24.1445 H   0  0  0  0  0  0
  -20.5682  -26.2266   23.3604 H   0  0  0  0  0  0
  -21.6635  -26.7461   22.1203 H   0  0  0  0  0  0
  -19.6909  -25.6313   21.1226 H   0  0  0  0  0  0
  -19.6684  -27.3221   20.6763 H   0  0  0  0  0  0
  -17.4195  -26.6681   21.4023 H   0  0  0  0  0  0
  -18.0314  -26.0076   22.9016 H   0  0  0  0  0  0
  -19.7929  -30.7254   24.2291 H   0  0  0  0  0  0
  -17.5015  -31.6269   24.5167 H   0  0  0  0  0  0
  -15.5348  -30.3005   23.7648 H   0  0  0  0  0  0
  -15.8660  -28.0845   22.7048 H   0  0  0  0  0  0
  -24.5906  -30.7045   25.7794 H   0  0  0  0  0  0
  -24.8930  -32.2848   26.4922 H   0  0  0  0  0  0
  -25.8091  -30.8851   27.0212 H   0  0  0  0  0  0
  -26.2828  -29.6813   24.1123 H   0  0  0  0  0  0
  -27.4080  -29.7262   25.4509 H   0  0  0  0  0  0
  -27.8650  -30.4375   23.9201 H   0  0  0  0  0  0
  -27.2666  -33.3596   26.2082 H   0  0  0  0  0  0
  -28.3835  -32.6886   25.0286 H   0  0  0  0  0  0
  -28.0731  -31.8412   26.5363 H   0  0  0  0  0  0
  -28.2610  -38.0100   24.7509 H   0  0  0  0  0  0
  -28.1064  -36.2631   24.6299 H   0  0  0  0  0  0
  -27.2297  -37.1473   25.8874 H   0  0  0  0  0  0
  -20.9296  -29.8752   21.6946 H   0  0  0  0  0  0
  -26.0186  -38.2880   24.1406 H   0  0  0  0  0  0
  -28.3327  -19.1813   20.3103 H   0  0  0  0  0  0
  -31.8824  -19.9274   22.6959 H   0  0  0  0  0  0
  -27.8009  -21.5593   20.3973 H   0  0  0  0  0  0
  -31.3061  -22.2701   22.8006 H   0  0  0  0  0  0
  -31.0490  -15.6506   23.7352 H   0  0  0  0  0  0
  -32.2930  -15.4048   22.5312 H   0  0  0  0  0  0
  -32.4715  -17.6689   22.1634 H   0  0  0  0  0  0
  -31.3852  -17.8965   23.5394 H   0  0  0  0  0  0
  -29.3847  -15.1607   22.3182 H   0  0  0  0  0  0
  -28.8712  -22.8223   23.8841 H   0  0  0  0  0  0
  -27.6913  -23.9845   23.3019 H   0  0  0  0  0  0
  -29.3340  -24.5087   23.6810 H   0  0  0  0  0  0
  -29.0986  -24.1194   19.8770 H   0  0  0  0  0  0
  -27.5222  -24.0308   20.6333 H   0  0  0  0  0  0
  -29.6694  -26.0610   21.4755 H   0  0  0  0  0  0
  -28.0060  -26.0713   21.9889 H   0  0  0  0  0  0
  1 25  1  0  0  0
  1 30  2  0  0  0
  1 80  1  0  0  0
  2  3  1  0  0  0
  2 25  1  0  0  0
  2 87  1  0  0  0
  2 88  1  0  0  0
  3  4  1  0  0  0
  3 89  1  0  0  0
  3 90  1  0  0  0
  4  5  1  0  0  0
  4 91  1  0  0  0
  4 92  1  0  0  0
  5  6  1  0  0  0
  5 26  1  0  0  0
  5 93  1  0  0  0
  6 25  1  0  0  0
  6 94  1  0  0  0
  6 95  1  0  0  0
  7  8  2  0  0  0
  7 26  1  0  0  0
  7 29  1  0  0  0
  8  9  1  0  0  0
  8 22  1  0  0  0
  9 10  1  0  0  0
  9 27  2  0  0  0
 10 11  2  0  0  0
 10 15  1  0  0  0
 11 12  1  0  0  0
 11 96  1  0  0  0
 12 13  2  0  0  0
 12 97  1  0  0  0
 13 14  1  0  0  0
 13 31  1  0  0  0
 14 15  2  0  0  0
 14 98  1  0  0  0
 15 99  1  0  0  0
 16 17  2  0  0  0
 16 21  1  0  0  0
 16 31  1  0  0  0
 17 18  1  0  0  0
 17100  1  0  0  0
 18 19  2  0  0  0
 18101  1  0  0  0
 19 20  1  0  0  0
 19 24  1  0  0  0
 20 21  2  0  0  0
 20102  1  0  0  0
 21 23  1  0  0  0
 22 28  1  0  0  0
 22 32  2  0  0  0
 26 27  1  0  0  0
 28103  1  0  0  0
 28104  1  0  0  0
 29105  1  0  0  0
 29106  1  0  0  0
 33 34  1  0  0  0
 33 66  1  0  0  0
 33 70  2  0  0  0
 34 36  1  0  0  0
 34 59  1  0  0  0
 34107  1  0  0  0
 35 44  2  0  0  0
 35 45  1  0  0  0
 35 68  1  0  0  0
 36 56  1  0  0  0
 36108  1  0  0  0
 37 39  1  0  0  0
 37 47  1  0  0  0
 37 66  1  0  0  0
 37109  1  0  0  0
 38 43  2  0  0  0
 38 46  1  0  0  0
 38 47  1  0  0  0
 39 64  1  0  0  0
 39 67  2  0  0  0
 40 52  1  0  0  0
 40 53  2  0  0  0
 40 58  1  0  0  0
 41110  1  0  0  0
 41111  1  0  0  0
 41112  1  0  0  0
 41 48  1  0  0  0
 42 43  1  0  0  0
 42 66  1  0  0  0
 42113  1  0  0  0
 42114  1  0  0  0
 43 44  1  0  0  0
 44115  1  0  0  0
 45 46  2  0  0  0
 45116  1  0  0  0
 46117  1  0  0  0
 47118  1  0  0  0
 47119  1  0  0  0
 48 56  1  0  0  0
 48 65  1  0  0  0
 48120  1  0  0  0
 49 50  1  0  0  0
 49 53  1  0  0  0
 49 64  1  0  0  0
 49121  1  0  0  0
 50 51  1  0  0  0
 50122  1  0  0  0
 50123  1  0  0  0
 51 52  1  0  0  0
 51124  1  0  0  0
 51125  1  0  0  0
 52126  1  0  0  0
 52127  1  0  0  0
 53 54  1  0  0  0
 54 55  2  0  0  0
 54128  1  0  0  0
 55 57  1  0  0  0
 55129  1  0  0  0
 56 69  2  0  0  0
 57 58  2  0  0  0
 57130  1  0  0  0
 58131  1  0  0  0
 59 60  1  0  0  0
 59 61  1  0  0  0
 59 62  1  0  0  0
 60132  1  0  0  0
 60133  1  0  0  0
 60134  1  0  0  0
 61135  1  0  0  0
 61136  1  0  0  0
 61137  1  0  0  0
 62138  1  0  0  0
 62139  1  0  0  0
 62140  1  0  0  0
 63 65  1  0  0  0
 63141  1  0  0  0
 63142  1  0  0  0
 63143  1  0  0  0
 64144  1  0  0  0
 65145  1  0  0  0
 68 83  1  0  0  0
 71 73  2  0  0  0
 71 75  1  0  0  0
 71146  1  0  0  0
 72 74  1  0  0  0
 72 75  2  0  0  0
 72147  1  0  0  0
 73 76  1  0  0  0
 73148  1  0  0  0
 74 76  2  0  0  0
 74149  1  0  0  0
 75 84  1  0  0  0
 76 85  1  0  0  0
 77 80  1  0  0  0
 77 84  1  0  0  0
 77 86  2  0  0  0
 78 79  1  0  0  0
 78 80  1  0  0  0
 78150  1  0  0  0
 78151  1  0  0  0
 79 84  1  0  0  0
 79152  1  0  0  0
 79153  1  0  0  0
 80154  1  0  0  0
 81 85  1  0  0  0
 81155  1  0  0  0
 81156  1  0  0  0
 81157  1  0  0  0
 82 83  1  0  0  0
 82 85  1  0  0  0
 82158  1  0  0  0
 82159  1  0  0  0
 83160  1  0  0  0
 83161  1  0  0  0
M  ISO  4   1 100  68 101  80 100  83 101
M  END
> <chiral flag>
0

> <version>
0

> <s_m_source_file>
/data/baiqing/PycharmProjects/Reinvent-master-3.2/result/LINK_invent/BTK/process_docking_weight1_custom_product_contain_oxygen_bond_distance_aromatic_linkinvent_7_9_3/rearranged_h_0014.sdf

> <i_m_source_file_index>
89

> <r_mmod_Potential_Energy-OPLS-2005>
103.194267272949

> <r_mmod_Stretch_Energy-OPLS-2005>
45.9419174194336

> <r_mmod_Bend_Energy-OPLS-2005>
136.924194335938

> <r_mmod_Torsional_Energy-OPLS-2005>
261.947906494141

> <r_mmod_Improper_Torsional_Energy-OPLS-2005>
4.6820125579834

> <r_mmod_Van_der_Waal_Energy-OPLS-2005>
155.306015014648

> <r_mmod_Electrostatic_Energy-OPLS-2005>
-300.759857177734

> <r_mmod_Solvation_Energy-OPLS-2005>
-210.631546020508

> <b_mmod_Minimization_Converged-OPLS-2005>
0

> <r_mmod_RMS_Derivative-OPLS-2005>
0.853571057319641

$$$$
91
                    3D
 Structure written by MMmdl.
161169  0  0  1  0            999 V2000
  -30.7783  -14.4279   20.6650 C   0  0  0  0  0  0
  -30.4158  -12.3046   19.4201 C   0  0  0  0  0  0
  -29.4837  -12.5031   18.2077 C   0  0  0  0  0  0
  -28.0119  -12.3486   18.6229 C   0  0  0  0  0  0
  -27.6625  -13.2040   19.8707 C   0  0  2  0  0  0
  -28.7098  -12.9944   20.9941 C   0  0  0  0  0  0
  -25.2571  -13.8154   20.5662 C   0  0  0  0  0  0
  -24.1805  -13.0431   20.9164 C   0  0  0  0  0  0
  -24.6346  -11.6901   20.8693 C   0  0  0  0  0  0
  -23.8990  -10.4286   21.0339 C   0  0  0  0  0  0
  -24.3551   -9.4225   21.9132 C   0  0  0  0  0  0
  -23.6250   -8.2250   22.0739 C   0  0  0  0  0  0
  -22.4257   -8.0238   21.3524 C   0  0  0  0  0  0
  -21.9846   -9.0199   20.4653 C   0  0  0  0  0  0
  -22.7142  -10.2091   20.3021 C   0  0  0  0  0  0
  -21.6869   -6.0701   22.5260 C   0  0  0  0  0  0
  -21.4026   -6.5616   23.8190 C   0  0  0  0  0  0
  -21.3670   -5.6770   24.9153 C   0  0  0  0  0  0
  -21.6043   -4.3031   24.7214 C   0  0  0  0  0  0
  -21.8826   -3.8117   23.4347 C   0  0  0  0  0  0
  -21.9197   -4.6923   22.3394 C   0  0  0  0  0  0
  -22.7828  -13.5238   21.1824 C   0  0  0  0  0  0
  -22.1670   -4.2109   21.0970 F   0  0  0  0  0  0
  -21.5613   -3.4520   25.7732 F   0  0  0  0  0  0
  -30.0480  -13.2900   20.4565 N   0  0  0  0  0  0
  -26.3019  -12.9323   20.3357 N   0  0  0  0  0  0
  -25.9274  -11.6493   20.5746 N   0  0  0  0  0  0
  -22.0483  -12.8238   22.0419 N   0  0  0  0  0  0
  -25.4301  -15.1855   20.4092 N   0  0  0  0  0  0
  -31.8186  -14.6597   20.0475 O   0  0  0  0  0  0
  -21.6654   -6.8818   21.4219 O   0  0  0  0  0  0
  -22.3500  -14.5541   20.6686 O   0  0  0  0  0  0
  -24.6165  -31.8662   23.2069 C   0  0  0  0  0  0
  -25.9067  -32.4801   23.8353 C   0  0  1  0  0  0
  -27.2288  -27.4027   20.1094 C   0  0  0  0  0  0
  -25.5912  -33.8595   24.2295 N   0  0  0  0  0  0
  -23.4048  -30.4928   21.5473 C   0  0  2  0  0  0
  -24.8502  -28.9604   20.1094 C   0  0  0  0  0  0
  -22.7430  -29.4672   22.4956 C   0  0  0  0  0  0
  -18.0280  -28.1397   22.8487 C   0  0  0  0  0  0
  -24.1491  -36.7312   23.2632 C   0  0  0  0  0  0
  -25.9363  -30.8282   21.3613 C   0  0  0  0  0  0
  -26.0128  -29.4614   20.7079 C   0  0  0  0  0  0
  -27.2027  -28.6916   20.7028 C   0  0  0  0  0  0
  -26.0462  -26.9383   19.4842 C   0  0  0  0  0  0
  -24.8652  -27.7022   19.4888 C   0  0  0  0  0  0
  -23.6115  -29.8270   20.1622 C   0  0  0  0  0  0
  -25.4109  -36.3086   24.0323 C   0  0  1  0  0  0
  -20.5875  -28.3687   23.1312 C   0  0  2  0  0  0
  -20.6778  -26.9419   22.5427 C   0  0  0  0  0  0
  -19.5751  -26.6397   21.5237 C   0  0  0  0  0  0
  -18.1926  -26.7934   22.1638 C   0  0  0  0  0  0
  -19.1530  -28.8863   23.2892 C   0  0  0  0  0  0
  -18.9456  -30.1476   23.8895 C   0  0  0  0  0  0
  -17.6454  -30.6591   24.0591 C   0  0  0  0  0  0
  -25.9048  -34.9458   23.5106 C   0  0  0  0  0  0
  -16.5345  -29.9102   23.6331 C   0  0  0  0  0  0
  -16.7270  -28.6532   23.0330 C   0  0  0  0  0  0
  -26.4486  -31.6578   25.0686 C   0  0  0  0  0  0
  -25.3722  -31.3731   26.1415 C   0  0  0  0  0  0
  -27.0331  -30.2999   24.6109 C   0  0  0  0  0  0
  -27.6047  -32.4299   25.7467 C   0  0  0  0  0  0
  -27.5569  -37.1818   24.8461 C   0  0  0  0  0  0
  -21.4157  -29.3030   22.3693 N   0  0  0  0  0  0
  -26.4297  -37.3768   23.9389 N   0  0  0  0  0  0
  -24.6713  -31.0772   22.0975 N   0  0  0  0  0  0
  -23.4189  -28.8210   23.3007 O   0  0  0  0  0  0
  -28.3823  -26.6293   20.1678 O   0  0  0  0  0  0
  -26.5616  -34.8916   22.4673 O   0  0  0  0  0  0
  -23.5355  -32.1422   23.7485 O   0  0  0  0  0  0
  -31.4051  -18.5047   20.7849 C   0  0  0  0  0  0
  -31.2566  -19.8909   20.5548 C   0  0  0  0  0  0
  -29.5546  -19.9843   22.2730 C   0  0  0  0  0  0
  -30.6928  -17.8443   21.8119 C   0  0  0  0  0  0
  -29.7346  -18.6010   22.5442 C   0  0  0  0  0  0
  -30.3533  -20.6613   21.3239 C   0  0  0  0  0  0
  -28.9304  -18.0137   23.6925 C   0  0  0  0  0  0
  -31.6936  -22.6610   21.4525 C   0  0  0  0  0  0
  -31.1171  -16.4057   22.1811 C   0  0  0  0  0  0
  -29.4051  -24.3696   20.6584 C   0  0  0  0  0  0
  -29.3468  -22.8090   20.4872 C   0  0  0  0  0  0
  -28.2456  -25.1904   20.0153 C   0  0  0  0  0  0
  -30.3387  -15.2819   21.6130 N   0  0  0  0  0  0
  -30.3624  -22.0803   21.2777 N   0  0  0  0  0  0
  -31.4572  -12.3914   19.1044 H   0  0  0  0  0  0
  -30.3102  -11.2896   19.8141 H   0  0  0  0  0  0
  -29.7263  -11.7946   17.4130 H   0  0  0  0  0  0
  -29.6366  -13.4986   17.7915 H   0  0  0  0  0  0
  -27.8366  -11.2942   18.8360 H   0  0  0  0  0  0
  -27.3556  -12.5959   17.7878 H   0  0  0  0  0  0
  -27.7074  -14.2488   19.5578 H   0  0  0  0  0  0
  -28.6807  -11.9577   21.3322 H   0  0  0  0  0  0
  -28.4668  -13.5902   21.8728 H   0  0  0  0  0  0
  -25.2676   -9.5742   22.4716 H   0  0  0  0  0  0
  -23.9982   -7.4657   22.7444 H   0  0  0  0  0  0
  -21.0775   -8.8665   19.8972 H   0  0  0  0  0  0
  -22.3535  -10.9594   19.6137 H   0  0  0  0  0  0
  -21.2055   -7.6126   23.9682 H   0  0  0  0  0  0
  -21.1479   -6.0511   25.9058 H   0  0  0  0  0  0
  -22.0612   -2.7582   23.2854 H   0  0  0  0  0  0
  -22.4149  -11.9920   22.4784 H   0  0  0  0  0  0
  -21.1106  -13.1247   22.2636 H   0  0  0  0  0  0
  -24.6699  -15.8451   20.5382 H   0  0  0  0  0  0
  -26.2930  -15.6277   20.1171 H   0  0  0  0  0  0
  -26.7132  -32.5506   23.1113 H   0  0  0  0  0  0
  -25.0043  -33.9747   25.0424 H   0  0  0  0  0  0
  -22.6919  -31.3095   21.4109 H   0  0  0  0  0  0
  -23.3714  -35.9686   23.3327 H   0  0  0  0  0  0
  -24.3569  -36.8904   22.2038 H   0  0  0  0  0  0
  -23.7314  -37.6550   23.6639 H   0  0  0  0  0  0
  -26.0463  -31.5968   20.5945 H   0  0  0  0  0  0
  -26.8239  -30.8809   21.9796 H   0  0  0  0  0  0
  -28.0930  -29.0782   21.1781 H   0  0  0  0  0  0
  -26.0120  -25.9787   18.9900 H   0  0  0  0  0  0
  -23.9741  -27.3191   19.0098 H   0  0  0  0  0  0
  -23.7099  -30.6001   19.3985 H   0  0  0  0  0  0
  -22.7368  -29.2409   19.8720 H   0  0  0  0  0  0
  -25.1302  -36.1920   25.0818 H   0  0  0  0  0  0
  -20.9981  -28.3262   24.1435 H   0  0  0  0  0  0
  -20.5731  -26.2287   23.3620 H   0  0  0  0  0  0
  -21.6640  -26.7481   22.1196 H   0  0  0  0  0  0
  -19.6910  -25.6326   21.1237 H   0  0  0  0  0  0
  -19.6678  -27.3236   20.6797 H   0  0  0  0  0  0
  -17.4208  -26.6698   21.4030 H   0  0  0  0  0  0
  -18.0305  -26.0094   22.9053 H   0  0  0  0  0  0
  -19.7936  -30.7324   24.2210 H   0  0  0  0  0  0
  -17.5007  -31.6253   24.5226 H   0  0  0  0  0  0
  -15.5351  -30.3010   23.7657 H   0  0  0  0  0  0
  -15.8675  -28.0886   22.6983 H   0  0  0  0  0  0
  -24.5881  -30.7102   25.7739 H   0  0  0  0  0  0
  -24.8937  -32.2927   26.4795 H   0  0  0  0  0  0
  -25.8037  -30.8919   27.0203 H   0  0  0  0  0  0
  -26.2911  -29.6744   24.1134 H   0  0  0  0  0  0
  -27.4049  -29.7245   25.4603 H   0  0  0  0  0  0
  -27.8759  -30.4284   23.9308 H   0  0  0  0  0  0
  -27.2634  -33.3577   26.2071 H   0  0  0  0  0  0
  -28.3852  -32.6898   25.0301 H   0  0  0  0  0  0
  -28.0720  -31.8403   26.5370 H   0  0  0  0  0  0
  -28.2618  -38.0083   24.7454 H   0  0  0  0  0  0
  -28.1039  -36.2613   24.6353 H   0  0  0  0  0  0
  -27.2281  -37.1547   25.8868 H   0  0  0  0  0  0
  -20.9313  -29.8714   21.6885 H   0  0  0  0  0  0
  -26.0165  -38.2847   24.1344 H   0  0  0  0  0  0
  -32.1405  -17.9555   20.2132 H   0  0  0  0  0  0
  -31.9009  -20.3611   19.8242 H   0  0  0  0  0  0
  -28.8606  -20.5512   22.8797 H   0  0  0  0  0  0
  -27.8670  -18.1429   23.4970 H   0  0  0  0  0  0
  -29.1675  -18.5496   24.6155 H   0  0  0  0  0  0
  -29.0991  -16.9501   23.8606 H   0  0  0  0  0  0
  -31.6484  -23.4748   22.1774 H   0  0  0  0  0  0
  -32.0879  -23.0557   20.5143 H   0  0  0  0  0  0
  -32.4133  -21.9415   21.8469 H   0  0  0  0  0  0
  -32.1700  -16.2941   21.9128 H   0  0  0  0  0  0
  -31.1408  -16.3125   23.2674 H   0  0  0  0  0  0
  -30.3439  -24.7406   20.2478 H   0  0  0  0  0  0
  -29.4206  -24.6019   21.7228 H   0  0  0  0  0  0
  -29.4450  -22.5455   19.4325 H   0  0  0  0  0  0
  -28.3626  -22.4551   20.7928 H   0  0  0  0  0  0
  -27.3168  -24.8487   20.4734 H   0  0  0  0  0  0
  -28.1754  -24.9729   18.9484 H   0  0  0  0  0  0
  -29.4790  -15.0449   22.0836 H   0  0  0  0  0  0
  1 25  1  0  0  0
  1 30  2  0  0  0
  1 83  1  0  0  0
  2  3  1  0  0  0
  2 25  1  0  0  0
  2 85  1  0  0  0
  2 86  1  0  0  0
  3  4  1  0  0  0
  3 87  1  0  0  0
  3 88  1  0  0  0
  4  5  1  0  0  0
  4 89  1  0  0  0
  4 90  1  0  0  0
  5  6  1  0  0  0
  5 26  1  0  0  0
  5 91  1  0  0  0
  6 25  1  0  0  0
  6 92  1  0  0  0
  6 93  1  0  0  0
  7  8  2  0  0  0
  7 26  1  0  0  0
  7 29  1  0  0  0
  8  9  1  0  0  0
  8 22  1  0  0  0
  9 10  1  0  0  0
  9 27  2  0  0  0
 10 11  2  0  0  0
 10 15  1  0  0  0
 11 12  1  0  0  0
 11 94  1  0  0  0
 12 13  2  0  0  0
 12 95  1  0  0  0
 13 14  1  0  0  0
 13 31  1  0  0  0
 14 15  2  0  0  0
 14 96  1  0  0  0
 15 97  1  0  0  0
 16 17  2  0  0  0
 16 21  1  0  0  0
 16 31  1  0  0  0
 17 18  1  0  0  0
 17 98  1  0  0  0
 18 19  2  0  0  0
 18 99  1  0  0  0
 19 20  1  0  0  0
 19 24  1  0  0  0
 20 21  2  0  0  0
 20100  1  0  0  0
 21 23  1  0  0  0
 22 28  1  0  0  0
 22 32  2  0  0  0
 26 27  1  0  0  0
 28101  1  0  0  0
 28102  1  0  0  0
 29103  1  0  0  0
 29104  1  0  0  0
 33 34  1  0  0  0
 33 66  1  0  0  0
 33 70  2  0  0  0
 34 36  1  0  0  0
 34 59  1  0  0  0
 34105  1  0  0  0
 35 44  2  0  0  0
 35 45  1  0  0  0
 35 68  1  0  0  0
 36 56  1  0  0  0
 36106  1  0  0  0
 37 39  1  0  0  0
 37 47  1  0  0  0
 37 66  1  0  0  0
 37107  1  0  0  0
 38 43  2  0  0  0
 38 46  1  0  0  0
 38 47  1  0  0  0
 39 64  1  0  0  0
 39 67  2  0  0  0
 40 52  1  0  0  0
 40 53  2  0  0  0
 40 58  1  0  0  0
 41108  1  0  0  0
 41109  1  0  0  0
 41110  1  0  0  0
 41 48  1  0  0  0
 42 43  1  0  0  0
 42 66  1  0  0  0
 42111  1  0  0  0
 42112  1  0  0  0
 43 44  1  0  0  0
 44113  1  0  0  0
 45 46  2  0  0  0
 45114  1  0  0  0
 46115  1  0  0  0
 47116  1  0  0  0
 47117  1  0  0  0
 48 56  1  0  0  0
 48 65  1  0  0  0
 48118  1  0  0  0
 49 50  1  0  0  0
 49 53  1  0  0  0
 49 64  1  0  0  0
 49119  1  0  0  0
 50 51  1  0  0  0
 50120  1  0  0  0
 50121  1  0  0  0
 51 52  1  0  0  0
 51122  1  0  0  0
 51123  1  0  0  0
 52124  1  0  0  0
 52125  1  0  0  0
 53 54  1  0  0  0
 54 55  2  0  0  0
 54126  1  0  0  0
 55 57  1  0  0  0
 55127  1  0  0  0
 56 69  2  0  0  0
 57 58  2  0  0  0
 57128  1  0  0  0
 58129  1  0  0  0
 59 60  1  0  0  0
 59 61  1  0  0  0
 59 62  1  0  0  0
 60130  1  0  0  0
 60131  1  0  0  0
 60132  1  0  0  0
 61133  1  0  0  0
 61134  1  0  0  0
 61135  1  0  0  0
 62136  1  0  0  0
 62137  1  0  0  0
 62138  1  0  0  0
 63 65  1  0  0  0
 63139  1  0  0  0
 63140  1  0  0  0
 63141  1  0  0  0
 64142  1  0  0  0
 65143  1  0  0  0
 68 82  1  0  0  0
 71 72  2  0  0  0
 71 74  1  0  0  0
 71144  1  0  0  0
 72 76  1  0  0  0
 72145  1  0  0  0
 73 75  1  0  0  0
 73 76  2  0  0  0
 73146  1  0  0  0
 74 75  2  0  0  0
 74 79  1  0  0  0
 75 77  1  0  0  0
 76 84  1  0  0  0
 77147  1  0  0  0
 77148  1  0  0  0
 77149  1  0  0  0
 78 84  1  0  0  0
 78150  1  0  0  0
 78151  1  0  0  0
 78152  1  0  0  0
 79 83  1  0  0  0
 79153  1  0  0  0
 79154  1  0  0  0
 80 81  1  0  0  0
 80 82  1  0  0  0
 80155  1  0  0  0
 80156  1  0  0  0
 81 84  1  0  0  0
 81157  1  0  0  0
 81158  1  0  0  0
 82159  1  0  0  0
 82160  1  0  0  0
 83161  1  0  0  0
M  ISO  4   1 100  68 101  82 101  83 100
M  END
> <chiral flag>
0

> <version>
0

> <s_m_source_file>
/data/baiqing/PycharmProjects/Reinvent-master-3.2/result/LINK_invent/BTK/process_docking_weight1_custom_product_contain_oxygen_bond_distance_aromatic_linkinvent_7_9_3/rearranged_h_0014.sdf

> <i_m_source_file_index>
90

> <r_mmod_Potential_Energy-OPLS-2005>
-66.4312286376953

> <r_mmod_Stretch_Energy-OPLS-2005>
48.4731483459473

> <r_mmod_Bend_Energy-OPLS-2005>
111.740516662598

> <r_mmod_Torsional_Energy-OPLS-2005>
225.467697143555

> <r_mmod_Improper_Torsional_Energy-OPLS-2005>
5.55281400680542

> <r_mmod_Van_der_Waal_Energy-OPLS-2005>
156.027450561523

> <r_mmod_Electrostatic_Energy-OPLS-2005>
-407.143798828125

> <r_mmod_Solvation_Energy-OPLS-2005>
-221.007614135742

> <b_mmod_Minimization_Converged-OPLS-2005>
0

> <r_mmod_RMS_Derivative-OPLS-2005>
4.57496118545532

$$$$
92
                    3D
 Structure written by MMmdl.
160169  0  0  1  0            999 V2000
  -30.6149  -14.6374   20.5045 C   0  0  0  0  0  0
  -30.4394  -12.3896   19.4543 C   0  0  0  0  0  0
  -29.5083  -12.5106   18.2259 C   0  0  0  0  0  0
  -28.0311  -12.3481   18.6378 C   0  0  0  0  0  0
  -27.6543  -13.2162   19.8682 C   0  0  2  0  0  0
  -28.6980  -13.0608   20.9981 C   0  0  0  0  0  0
  -25.2543  -13.8160   20.5690 C   0  0  0  0  0  0
  -24.1805  -13.0420   20.9164 C   0  0  0  0  0  0
  -24.6386  -11.6899   20.8734 C   0  0  0  0  0  0
  -23.9064  -10.4282   21.0403 C   0  0  0  0  0  0
  -24.3611   -9.4201   21.9187 C   0  0  0  0  0  0
  -23.6282   -8.2242   22.0765 C   0  0  0  0  0  0
  -22.4263   -8.0279   21.3552 C   0  0  0  0  0  0
  -21.9897   -9.0256   20.4655 C   0  0  0  0  0  0
  -22.7235  -10.2126   20.3057 C   0  0  0  0  0  0
  -21.6849   -6.0729   22.5281 C   0  0  0  0  0  0
  -21.4021   -6.5637   23.8213 C   0  0  0  0  0  0
  -21.3661   -5.6790   24.9178 C   0  0  0  0  0  0
  -21.6040   -4.3053   24.7225 C   0  0  0  0  0  0
  -21.8818   -3.8143   23.4349 C   0  0  0  0  0  0
  -21.9193   -4.6960   22.3404 C   0  0  0  0  0  0
  -22.7827  -13.5221   21.1831 C   0  0  0  0  0  0
  -22.1657   -4.2148   21.0981 F   0  0  0  0  0  0
  -21.5626   -3.4538   25.7740 F   0  0  0  0  0  0
  -30.0170  -13.4051   20.4399 N   0  0  0  0  0  0
  -26.2987  -12.9354   20.3342 N   0  0  0  0  0  0
  -25.9317  -11.6507   20.5756 N   0  0  0  0  0  0
  -22.0470  -12.8226   22.0400 N   0  0  0  0  0  0
  -25.4230  -15.1880   20.4155 N   0  0  0  0  0  0
  -31.7664  -14.8163   20.0971 O   0  0  0  0  0  0
  -21.6632   -6.8873   21.4243 O   0  0  0  0  0  0
  -22.3518  -14.5539   20.6700 O   0  0  0  0  0  0
  -24.6251  -31.8607   23.2028 C   0  0  0  0  0  0
  -25.9103  -32.4784   23.8356 C   0  0  1  0  0  0
  -27.2266  -27.3292   20.1197 C   0  0  0  0  0  0
  -25.5922  -33.8584   24.2286 N   0  0  0  0  0  0
  -23.4182  -30.4836   21.5458 C   0  0  2  0  0  0
  -24.8649  -28.9363   20.1151 C   0  0  0  0  0  0
  -22.7467  -29.4626   22.4949 C   0  0  0  0  0  0
  -18.0285  -28.1381   22.8489 C   0  0  0  0  0  0
  -24.1488  -36.7299   23.2639 C   0  0  0  0  0  0
  -25.9577  -30.7943   21.3713 C   0  0  0  0  0  0
  -26.0332  -29.4206   20.7174 C   0  0  0  0  0  0
  -27.2188  -28.6304   20.7076 C   0  0  0  0  0  0
  -26.0394  -26.8958   19.4885 C   0  0  0  0  0  0
  -24.8692  -27.6784   19.4923 C   0  0  0  0  0  0
  -23.6329  -29.8165   20.1619 C   0  0  0  0  0  0
  -25.4111  -36.3088   24.0332 C   0  0  1  0  0  0
  -20.5882  -28.3683   23.1290 C   0  0  2  0  0  0
  -20.6774  -26.9410   22.5410 C   0  0  0  0  0  0
  -19.5752  -26.6385   21.5210 C   0  0  0  0  0  0
  -18.1932  -26.7924   22.1623 C   0  0  0  0  0  0
  -19.1536  -28.8850   23.2887 C   0  0  0  0  0  0
  -18.9459  -30.1451   23.8907 C   0  0  0  0  0  0
  -17.6460  -30.6586   24.0561 C   0  0  0  0  0  0
  -25.9051  -34.9456   23.5111 C   0  0  0  0  0  0
  -16.5352  -29.9086   23.6324 C   0  0  0  0  0  0
  -16.7272  -28.6499   23.0353 C   0  0  0  0  0  0
  -26.4490  -31.6590   25.0724 C   0  0  0  0  0  0
  -25.3725  -31.3723   26.1455 C   0  0  0  0  0  0
  -27.0322  -30.3015   24.6160 C   0  0  0  0  0  0
  -27.6055  -32.4320   25.7492 C   0  0  0  0  0  0
  -27.5579  -37.1805   24.8466 C   0  0  0  0  0  0
  -21.4182  -29.3041   22.3690 N   0  0  0  0  0  0
  -26.4290  -37.3780   23.9411 N   0  0  0  0  0  0
  -24.6858  -31.0629   22.0969 N   0  0  0  0  0  0
  -23.4198  -28.8163   23.3023 O   0  0  0  0  0  0
  -28.3543  -26.5003   20.1241 O   0  0  0  0  0  0
  -26.5619  -34.8920   22.4677 O   0  0  0  0  0  0
  -23.5421  -32.1400   23.7369 O   0  0  0  0  0  0
  -30.6648  -19.2836   19.8620 C   0  0  0  0  0  0
  -30.8324  -17.8838   20.1054 C   0  0  0  0  0  0
  -28.4468  -19.2016   20.7873 C   0  0  0  0  0  0
  -29.4621  -19.9815   20.1758 C   0  0  0  0  0  0
  -29.7923  -17.1030   20.6774 C   0  0  0  0  0  0
  -28.6102  -17.8063   21.0274 C   0  0  0  0  0  0
  -31.5182  -23.4435   20.8479 C   0  0  0  0  0  0
  -30.6983  -24.6114   20.3097 C   0  0  0  0  0  0
  -30.4674  -22.5800   21.5396 C   0  0  0  0  0  0
  -29.2868  -24.0439   20.0372 C   0  0  2  0  0  0
  -29.2113  -21.4686   19.7011 C   0  0  0  0  0  0
  -28.1852  -25.0845   20.5308 C   0  0  0  0  0  0
  -29.8080  -15.6610   20.9191 N   0  0  0  0  0  0
  -29.2717  -22.6414   20.6687 N   0  3  1  0  0  0
  -27.5862  -17.1101   21.5770 F   0  0  0  0  0  0
  -31.4807  -12.5181   19.1542 H   0  0  0  0  0  0
  -30.3758  -11.3905   19.8891 H   0  0  0  0  0  0
  -29.7717  -11.7626   17.4762 H   0  0  0  0  0  0
  -29.6502  -13.4811   17.7477 H   0  0  0  0  0  0
  -27.8712  -11.2950   18.8712 H   0  0  0  0  0  0
  -27.3749  -12.5777   17.7973 H   0  0  0  0  0  0
  -27.6745  -14.2527   19.5309 H   0  0  0  0  0  0
  -28.7050  -12.0363   21.3732 H   0  0  0  0  0  0
  -28.4403  -13.6851   21.8551 H   0  0  0  0  0  0
  -25.2755   -9.5677   22.4764 H   0  0  0  0  0  0
  -23.9995   -7.4630   22.7479 H   0  0  0  0  0  0
  -21.0832   -8.8774   19.8955 H   0  0  0  0  0  0
  -22.3702  -10.9667   19.6165 H   0  0  0  0  0  0
  -21.2023   -7.6145   23.9721 H   0  0  0  0  0  0
  -21.1481   -6.0518   25.9081 H   0  0  0  0  0  0
  -22.0597   -2.7608   23.2845 H   0  0  0  0  0  0
  -22.4081  -11.9886   22.4788 H   0  0  0  0  0  0
  -21.1102  -13.1283   22.2628 H   0  0  0  0  0  0
  -24.6667  -15.8429   20.5771 H   0  0  0  0  0  0
  -26.3019  -15.6475   20.2152 H   0  0  0  0  0  0
  -26.7171  -32.5456   23.1107 H   0  0  0  0  0  0
  -25.0059  -33.9722   25.0425 H   0  0  0  0  0  0
  -22.7120  -31.3039   21.4023 H   0  0  0  0  0  0
  -23.3749  -35.9633   23.3299 H   0  0  0  0  0  0
  -24.3584  -36.8920   22.2054 H   0  0  0  0  0  0
  -23.7244  -37.6501   23.6662 H   0  0  0  0  0  0
  -26.0874  -31.5561   20.6011 H   0  0  0  0  0  0
  -26.8391  -30.8453   21.9988 H   0  0  0  0  0  0
  -28.1185  -29.0039   21.1771 H   0  0  0  0  0  0
  -26.0032  -25.9450   18.9770 H   0  0  0  0  0  0
  -23.9764  -27.3051   19.0100 H   0  0  0  0  0  0
  -23.7536  -30.5919   19.4046 H   0  0  0  0  0  0
  -22.7529  -29.2464   19.8594 H   0  0  0  0  0  0
  -25.1289  -36.1939   25.0824 H   0  0  0  0  0  0
  -20.9973  -28.3255   24.1413 H   0  0  0  0  0  0
  -20.5676  -26.2295   23.3606 H   0  0  0  0  0  0
  -21.6645  -26.7446   22.1206 H   0  0  0  0  0  0
  -19.6915  -25.6298   21.1241 H   0  0  0  0  0  0
  -19.6686  -27.3194   20.6738 H   0  0  0  0  0  0
  -17.4200  -26.6672   21.4024 H   0  0  0  0  0  0
  -18.0332  -26.0064   22.9017 H   0  0  0  0  0  0
  -19.7934  -30.7258   24.2291 H   0  0  0  0  0  0
  -17.5015  -31.6267   24.5157 H   0  0  0  0  0  0
  -15.5353  -30.2991   23.7640 H   0  0  0  0  0  0
  -15.8670  -28.0815   22.7074 H   0  0  0  0  0  0
  -24.5902  -30.7068   25.7787 H   0  0  0  0  0  0
  -24.8913  -32.2886   26.4885 H   0  0  0  0  0  0
  -25.8053  -30.8901   27.0227 H   0  0  0  0  0  0
  -26.2880  -29.6777   24.1192 H   0  0  0  0  0  0
  -27.4035  -29.7262   25.4652 H   0  0  0  0  0  0
  -27.8750  -30.4312   23.9364 H   0  0  0  0  0  0
  -27.2669  -33.3622   26.2068 H   0  0  0  0  0  0
  -28.3862  -32.6875   25.0315 H   0  0  0  0  0  0
  -28.0722  -31.8444   26.5407 H   0  0  0  0  0  0
  -28.2600  -38.0099   24.7510 H   0  0  0  0  0  0
  -28.1072  -36.2634   24.6290 H   0  0  0  0  0  0
  -27.2303  -37.1452   25.8870 H   0  0  0  0  0  0
  -20.9362  -29.8769   21.6902 H   0  0  0  0  0  0
  -26.0174  -38.2858   24.1401 H   0  0  0  0  0  0
  -31.4707  -19.8170   19.3761 H   0  0  0  0  0  0
  -31.7624  -17.4132   19.8192 H   0  0  0  0  0  0
  -27.4999  -19.6578   21.0372 H   0  0  0  0  0  0
  -32.3141  -23.7598   21.5233 H   0  0  0  0  0  0
  -31.9777  -22.8928   20.0260 H   0  0  0  0  0  0
  -31.1456  -25.0598   19.4213 H   0  0  0  0  0  0
  -30.6561  -25.3920   21.0712 H   0  0  0  0  0  0
  -30.2117  -23.0252   22.5022 H   0  0  0  0  0  0
  -30.8254  -21.5719   21.7484 H   0  0  0  0  0  0
  -29.1661  -23.9344   18.9581 H   0  0  0  0  0  0
  -28.2355  -21.4969   19.2149 H   0  0  0  0  0  0
  -29.9272  -21.6659   18.9023 H   0  0  0  0  0  0
  -28.1772  -25.0856   21.6219 H   0  0  0  0  0  0
  -27.2120  -24.6915   20.2422 H   0  0  0  0  0  0
  -28.9379  -15.3299   21.3073 H   0  0  0  0  0  0
  -28.4596  -22.5486   21.2622 H   0  0  0  0  0  0
  1 25  1  0  0  0
  1 30  2  0  0  0
  1 83  1  0  0  0
  2  3  1  0  0  0
  2 25  1  0  0  0
  2 86  1  0  0  0
  2 87  1  0  0  0
  3  4  1  0  0  0
  3 88  1  0  0  0
  3 89  1  0  0  0
  4  5  1  0  0  0
  4 90  1  0  0  0
  4 91  1  0  0  0
  5  6  1  0  0  0
  5 26  1  0  0  0
  5 92  1  0  0  0
  6 25  1  0  0  0
  6 93  1  0  0  0
  6 94  1  0  0  0
  7  8  2  0  0  0
  7 26  1  0  0  0
  7 29  1  0  0  0
  8  9  1  0  0  0
  8 22  1  0  0  0
  9 10  1  0  0  0
  9 27  2  0  0  0
 10 11  2  0  0  0
 10 15  1  0  0  0
 11 12  1  0  0  0
 11 95  1  0  0  0
 12 13  2  0  0  0
 12 96  1  0  0  0
 13 14  1  0  0  0
 13 31  1  0  0  0
 14 15  2  0  0  0
 14 97  1  0  0  0
 15 98  1  0  0  0
 16 17  2  0  0  0
 16 21  1  0  0  0
 16 31  1  0  0  0
 17 18  1  0  0  0
 17 99  1  0  0  0
 18 19  2  0  0  0
 18100  1  0  0  0
 19 20  1  0  0  0
 19 24  1  0  0  0
 20 21  2  0  0  0
 20101  1  0  0  0
 21 23  1  0  0  0
 22 28  1  0  0  0
 22 32  2  0  0  0
 26 27  1  0  0  0
 28102  1  0  0  0
 28103  1  0  0  0
 29104  1  0  0  0
 29105  1  0  0  0
 33 34  1  0  0  0
 33 66  1  0  0  0
 33 70  2  0  0  0
 34 36  1  0  0  0
 34 59  1  0  0  0
 34106  1  0  0  0
 35 44  2  0  0  0
 35 45  1  0  0  0
 35 68  1  0  0  0
 36 56  1  0  0  0
 36107  1  0  0  0
 37 39  1  0  0  0
 37 47  1  0  0  0
 37 66  1  0  0  0
 37108  1  0  0  0
 38 43  2  0  0  0
 38 46  1  0  0  0
 38 47  1  0  0  0
 39 64  1  0  0  0
 39 67  2  0  0  0
 40 52  1  0  0  0
 40 53  2  0  0  0
 40 58  1  0  0  0
 41109  1  0  0  0
 41110  1  0  0  0
 41111  1  0  0  0
 41 48  1  0  0  0
 42 43  1  0  0  0
 42 66  1  0  0  0
 42112  1  0  0  0
 42113  1  0  0  0
 43 44  1  0  0  0
 44114  1  0  0  0
 45 46  2  0  0  0
 45115  1  0  0  0
 46116  1  0  0  0
 47117  1  0  0  0
 47118  1  0  0  0
 48 56  1  0  0  0
 48 65  1  0  0  0
 48119  1  0  0  0
 49 50  1  0  0  0
 49 53  1  0  0  0
 49 64  1  0  0  0
 49120  1  0  0  0
 50 51  1  0  0  0
 50121  1  0  0  0
 50122  1  0  0  0
 51 52  1  0  0  0
 51123  1  0  0  0
 51124  1  0  0  0
 52125  1  0  0  0
 52126  1  0  0  0
 53 54  1  0  0  0
 54 55  2  0  0  0
 54127  1  0  0  0
 55 57  1  0  0  0
 55128  1  0  0  0
 56 69  2  0  0  0
 57 58  2  0  0  0
 57129  1  0  0  0
 58130  1  0  0  0
 59 60  1  0  0  0
 59 61  1  0  0  0
 59 62  1  0  0  0
 60131  1  0  0  0
 60132  1  0  0  0
 60133  1  0  0  0
 61134  1  0  0  0
 61135  1  0  0  0
 61136  1  0  0  0
 62137  1  0  0  0
 62138  1  0  0  0
 62139  1  0  0  0
 63 65  1  0  0  0
 63140  1  0  0  0
 63141  1  0  0  0
 63142  1  0  0  0
 64143  1  0  0  0
 65144  1  0  0  0
 68 82  1  0  0  0
 71 72  2  0  0  0
 71 74  1  0  0  0
 71145  1  0  0  0
 72 75  1  0  0  0
 72146  1  0  0  0
 73 74  2  0  0  0
 73 76  1  0  0  0
 73147  1  0  0  0
 74 81  1  0  0  0
 75 76  2  0  0  0
 75 83  1  0  0  0
 76 85  1  0  0  0
 77 78  1  0  0  0
 77 79  1  0  0  0
 77148  1  0  0  0
 77149  1  0  0  0
 78 80  1  0  0  0
 78150  1  0  0  0
 78151  1  0  0  0
 79 84  1  0  0  0
 79152  1  0  0  0
 79153  1  0  0  0
 80 82  1  0  0  0
 80 84  1  0  0  0
 80154  1  0  0  0
 81155  1  0  0  0
 81156  1  0  0  0
 81 84  1  0  0  0
 82157  1  0  0  0
 82158  1  0  0  0
 83159  1  0  0  0
 84160  1  0  0  0
M  CHG  1  84   1
M  ISO  4   1 100  68 101  82 101  83 100
M  END
> <chiral flag>
0

> <version>
0

> <s_m_source_file>
/data/baiqing/PycharmProjects/Reinvent-master-3.2/result/LINK_invent/BTK/process_docking_weight1_custom_product_contain_oxygen_bond_distance_aromatic_linkinvent_7_9_3/rearranged_h_0014.sdf

> <i_m_source_file_index>
91

> <r_mmod_Potential_Energy-OPLS-2005>
22.1129570007324

> <r_mmod_Stretch_Energy-OPLS-2005>
80.3119430541992

> <r_mmod_Bend_Energy-OPLS-2005>
163.003128051758

> <r_mmod_Torsional_Energy-OPLS-2005>
288.649932861328

> <r_mmod_Improper_Torsional_Energy-OPLS-2005>
4.53385353088379

> <r_mmod_Van_der_Waal_Energy-OPLS-2005>
137.763717651367

> <r_mmod_Electrostatic_Energy-OPLS-2005>
-263.133239746094

> <r_mmod_Solvation_Energy-OPLS-2005>
-433.199249267578

> <b_mmod_Minimization_Converged-OPLS-2005>
0

> <r_mmod_RMS_Derivative-OPLS-2005>
1.13686311244965

$$$$
93
                    3D
 Structure written by MMmdl.
188198  0  0  1  0            999 V2000
  -30.6853  -14.5207   20.5667 C   0  0  0  0  0  0
  -30.4107  -12.3460   19.4452 C   0  0  0  0  0  0
  -29.4731  -12.5400   18.2301 C   0  0  0  0  0  0
  -28.0008  -12.3674   18.6323 C   0  0  0  0  0  0
  -27.6496  -13.2127   19.8757 C   0  0  2  0  0  0
  -28.6854  -12.9961   21.0017 C   0  0  0  0  0  0
  -25.2524  -13.8136   20.5519 C   0  0  0  0  0  0
  -24.1830  -13.0476   20.9077 C   0  0  0  0  0  0
  -24.6376  -11.6914   20.8765 C   0  0  0  0  0  0
  -23.9046  -10.4339   21.0451 C   0  0  0  0  0  0
  -24.3582   -9.4218   21.9198 C   0  0  0  0  0  0
  -23.6273   -8.2257   22.0708 C   0  0  0  0  0  0
  -22.4250   -8.0308   21.3510 C   0  0  0  0  0  0
  -21.9936   -9.0302   20.4610 C   0  0  0  0  0  0
  -22.7251  -10.2174   20.3059 C   0  0  0  0  0  0
  -21.6840   -6.0759   22.5246 C   0  0  0  0  0  0
  -21.4054   -6.5669   23.8182 C   0  0  0  0  0  0
  -21.3652   -5.6801   24.9136 C   0  0  0  0  0  0
  -21.6039   -4.3061   24.7166 C   0  0  0  0  0  0
  -21.8828   -3.8156   23.4279 C   0  0  0  0  0  0
  -21.9212   -4.6997   22.3339 C   0  0  0  0  0  0
  -22.7862  -13.5255   21.1836 C   0  0  0  0  0  0
  -22.1645   -4.2193   21.0902 F   0  0  0  0  0  0
  -21.5625   -3.4516   25.7662 F   0  0  0  0  0  0
  -30.0146  -13.3355   20.4655 N   0  0  0  0  0  0
  -26.2978  -12.9336   20.3349 N   0  0  0  0  0  0
  -25.9320  -11.6491   20.5817 N   0  0  0  0  0  0
  -22.0597  -12.8211   22.0375 N   0  0  0  0  0  0
  -25.4328  -15.1818   20.3626 N   0  0  0  0  0  0
  -31.8549  -14.6283   20.1741 O   0  0  0  0  0  0
  -21.6633   -6.8906   21.4187 O   0  0  0  0  0  0
  -22.3500  -14.5585   20.6722 O   0  0  0  0  0  0
  -24.6037  -31.8606   23.2080 C   0  0  0  0  0  0
  -25.8968  -32.4881   23.8196 C   0  0  1  0  0  0
  -27.2482  -27.5107   20.1013 C   0  0  0  0  0  0
  -25.5518  -33.8654   24.2005 N   0  0  0  0  0  0
  -23.3926  -30.4914   21.5310 C   0  0  2  0  0  0
  -24.8562  -28.9858   20.0813 C   0  0  0  0  0  0
  -22.7380  -29.4640   22.4797 C   0  0  0  0  0  0
  -18.0295  -28.1478   22.8533 C   0  0  0  0  0  0
  -24.1291  -36.7567   23.2716 C   0  0  0  0  0  0
  -25.9192  -30.8552   21.3691 C   0  0  0  0  0  0
  -26.0016  -29.5159   20.6835 C   0  0  0  0  0  0
  -27.2055  -28.8002   20.6635 C   0  0  0  0  0  0
  -26.1149  -26.9983   19.4422 C   0  0  0  0  0  0
  -24.9133  -27.7361   19.4282 C   0  0  0  0  0  0
  -23.6096  -29.8342   20.1379 C   0  0  0  0  0  0
  -25.3905  -36.3169   24.0306 C   0  0  1  0  0  0
  -20.5879  -28.3708   23.1297 C   0  0  2  0  0  0
  -20.6770  -26.9392   22.5484 C   0  0  0  0  0  0
  -19.5757  -26.6421   21.5314 C   0  0  0  0  0  0
  -18.1954  -26.8004   22.1704 C   0  0  0  0  0  0
  -19.1565  -28.8917   23.2932 C   0  0  0  0  0  0
  -18.9516  -30.1504   23.8953 C   0  0  0  0  0  0
  -17.6523  -30.6680   24.0628 C   0  0  0  0  0  0
  -25.8848  -34.9563   23.4983 C   0  0  0  0  0  0
  -16.5408  -29.9260   23.6285 C   0  0  0  0  0  0
  -16.7286  -28.6667   23.0301 C   0  0  0  0  0  0
  -26.4738  -31.6967   25.0585 C   0  0  0  0  0  0
  -25.4198  -31.4502   26.1599 C   0  0  0  0  0  0
  -27.0463  -30.3179   24.6481 C   0  0  0  0  0  0
  -27.6530  -32.5049   25.6602 C   0  0  0  0  0  0
  -27.5404  -37.1954   24.8316 C   0  0  0  0  0  0
  -21.4098  -29.3074   22.3638 N   0  0  0  0  0  0
  -26.4020  -37.3886   23.9436 N   0  0  0  0  0  0
  -24.6500  -31.0894   22.0882 N   0  0  0  0  0  0
  -23.4177  -28.8142   23.2777 O   0  0  0  0  0  0
  -28.3513  -26.7246   20.2760 O   0  0  0  0  0  0
  -26.5656  -34.9064   22.4703 O   0  0  0  0  0  0
  -23.5255  -32.1232   23.7619 O   0  0  0  0  0  0
  -26.4148  -22.4787   24.4663 C   0  0  0  0  0  0
  -26.4853  -23.8599   24.2309 C   0  0  0  0  0  0
  -27.0661  -16.8759   22.8438 C   0  0  0  0  0  0
  -27.9051  -16.6015   21.7527 C   0  0  0  0  0  0
  -27.3547  -22.8112   26.6902 C   0  0  0  0  0  0
  -29.4954  -15.5250   23.2505 C   0  0  0  0  0  0
  -26.9415  -21.9436   25.6574 C   0  0  0  0  0  0
  -27.4609  -16.5544   24.1561 C   0  0  0  0  0  0
  -27.0306  -24.7300   25.1959 C   0  0  0  0  0  0
  -27.3516  -24.2100   26.4777 C   0  0  0  0  0  0
  -28.6863  -15.8613   24.3695 C   0  0  0  0  0  0
  -29.1218  -15.9079   21.9345 C   0  0  0  0  0  0
  -27.0355  -19.5159   24.5709 C   0  0  0  0  0  0
  -26.5112  -19.3529   26.5472 C   0  0  0  0  0  0
  -27.2224  -20.4583   25.7499 C   0  0  2  0  0  0
  -27.6512  -25.1421   27.6342 C   0  0  0  0  0  0
  -29.1827  -15.4962   25.7715 C   0  0  0  0  0  0
  -30.2606  -16.8227   19.9536 C   0  0  0  0  0  0
  -29.5886  -27.0577   24.9872 C   0  0  0  0  0  0
  -26.6120  -17.1298   25.2852 C   0  0  0  0  0  0
  -27.2699  -26.1895   24.8027 C   0  0  0  0  0  0
  -28.4726  -27.0261   22.7732 C   0  0  0  0  0  0
  -28.3067  -26.0527   21.5543 C   0  0  0  0  0  0
  -29.9518  -15.6511   20.7954 N   0  0  0  0  0  0
  -27.1723  -18.4616   25.5830 N   0  3  1  0  0  0
  -28.5861  -26.3765   24.1152 N   0  3  1  0  0  0
  -31.4448  -12.4622   19.1248 H   0  0  0  0  0  0
  -30.3335  -11.3339   19.8500 H   0  0  0  0  0  0
  -29.7272  -11.8643   17.4171 H   0  0  0  0  0  0
  -29.5964  -13.5501   17.8390 H   0  0  0  0  0  0
  -27.8118  -11.3108   18.8355 H   0  0  0  0  0  0
  -27.3492  -12.6514   17.8027 H   0  0  0  0  0  0
  -27.6906  -14.2559   19.5536 H   0  0  0  0  0  0
  -28.6876  -11.9602   21.3412 H   0  0  0  0  0  0
  -28.3919  -13.5509   21.8852 H   0  0  0  0  0  0
  -25.2719   -9.5679   22.4778 H   0  0  0  0  0  0
  -23.9987   -7.4643   22.7398 H   0  0  0  0  0  0
  -21.0907   -8.8843   19.8880 H   0  0  0  0  0  0
  -22.3761  -10.9736   19.6160 H   0  0  0  0  0  0
  -21.2048   -7.6189   23.9697 H   0  0  0  0  0  0
  -21.1449   -6.0509   25.9038 H   0  0  0  0  0  0
  -22.0622   -2.7640   23.2704 H   0  0  0  0  0  0
  -22.4261  -11.9722   22.4465 H   0  0  0  0  0  0
  -21.1289  -13.1292   22.2857 H   0  0  0  0  0  0
  -24.6871  -15.8655   20.4193 H   0  0  0  0  0  0
  -26.3226  -15.5803   20.0962 H   0  0  0  0  0  0
  -26.6975  -32.5675   23.0834 H   0  0  0  0  0  0
  -24.8879  -33.9644   24.9550 H   0  0  0  0  0  0
  -22.6758  -31.2983   21.3838 H   0  0  0  0  0  0
  -23.3341  -36.0092   23.3338 H   0  0  0  0  0  0
  -24.3381  -36.9380   22.2138 H   0  0  0  0  0  0
  -23.7242  -37.6827   23.6842 H   0  0  0  0  0  0
  -26.0866  -31.6379   20.6286 H   0  0  0  0  0  0
  -26.7750  -30.8505   22.0334 H   0  0  0  0  0  0
  -28.0793  -29.2168   21.1469 H   0  0  0  0  0  0
  -26.1708  -26.0386   18.9469 H   0  0  0  0  0  0
  -24.0519  -27.3483   18.9032 H   0  0  0  0  0  0
  -23.7208  -30.6157   19.3856 H   0  0  0  0  0  0
  -22.7397  -29.2497   19.8258 H   0  0  0  0  0  0
  -25.1128  -36.1860   25.0786 H   0  0  0  0  0  0
  -21.0086  -28.3413   24.1377 H   0  0  0  0  0  0
  -20.5734  -26.2356   23.3711 H   0  0  0  0  0  0
  -21.6624  -26.7418   22.1236 H   0  0  0  0  0  0
  -19.6835  -25.6342   21.1343 H   0  0  0  0  0  0
  -19.6763  -27.3236   20.6847 H   0  0  0  0  0  0
  -17.4164  -26.6733   21.4144 H   0  0  0  0  0  0
  -18.0384  -26.0181   22.9132 H   0  0  0  0  0  0
  -19.7979  -30.7344   24.2365 H   0  0  0  0  0  0
  -17.5071  -31.6336   24.5274 H   0  0  0  0  0  0
  -15.5425  -30.3239   23.7588 H   0  0  0  0  0  0
  -15.8634  -28.1102   22.6927 H   0  0  0  0  0  0
  -24.6557  -30.7424   25.8424 H   0  0  0  0  0  0
  -24.9177  -32.3753   26.4421 H   0  0  0  0  0  0
  -25.8825  -31.0419   27.0622 H   0  0  0  0  0  0
  -26.3019  -29.7040   24.1421 H   0  0  0  0  0  0
  -27.3858  -29.7608   25.5273 H   0  0  0  0  0  0
  -27.9093  -30.4148   23.9888 H   0  0  0  0  0  0
  -27.3136  -33.4426   26.1030 H   0  0  0  0  0  0
  -28.3754  -32.7875   24.8875 H   0  0  0  0  0  0
  -28.2055  -31.9574   26.4226 H   0  0  0  0  0  0
  -28.2352  -38.0290   24.7171 H   0  0  0  0  0  0
  -28.0913  -36.2797   24.6094 H   0  0  0  0  0  0
  -27.2256  -37.1697   25.8769 H   0  0  0  0  0  0
  -20.9191  -29.8953   21.7022 H   0  0  0  0  0  0
  -25.9805  -38.2890   24.1592 H   0  0  0  0  0  0
  -26.0389  -21.8390   23.6760 H   0  0  0  0  0  0
  -26.1496  -24.2410   23.2770 H   0  0  0  0  0  0
  -26.1356  -17.4011   22.6664 H   0  0  0  0  0  0
  -27.5861  -16.9391   20.7798 H   0  0  0  0  0  0
  -27.7158  -22.4034   27.6293 H   0  0  0  0  0  0
  -30.4312  -15.0091   23.4212 H   0  0  0  0  0  0
  -27.8267  -19.5674   23.8208 H   0  0  0  0  0  0
  -26.0497  -19.5904   24.1039 H   0  0  0  0  0  0
  -25.4188  -19.3501   26.4758 H   0  0  0  0  0  0
  -26.8479  -19.2373   27.5805 H   0  0  0  0  0  0
  -28.2833  -20.4410   26.0204 H   0  0  0  0  0  0
  -27.7243  -24.6245   28.5945 H   0  0  0  0  0  0
  -26.8171  -25.8440   27.7182 H   0  0  0  0  0  0
  -28.5733  -25.7001   27.4775 H   0  0  0  0  0  0
  -30.2536  -15.2779   25.7508 H   0  0  0  0  0  0
  -28.6667  -14.6150   26.1624 H   0  0  0  0  0  0
  -29.0499  -16.3044   26.4958 H   0  0  0  0  0  0
  -29.4006  -17.4622   19.7573 H   0  0  0  0  0  0
  -30.6355  -16.5451   18.9669 H   0  0  0  0  0  0
  -31.0125  -17.4425   20.4449 H   0  0  0  0  0  0
  -30.0140  -26.3583   25.7065 H   0  0  0  0  0  0
  -29.1784  -27.8905   25.5598 H   0  0  0  0  0  0
  -30.4206  -27.4717   24.4194 H   0  0  0  0  0  0
  -26.6411  -16.4965   26.1697 H   0  0  0  0  0  0
  -25.5632  -17.1901   24.9859 H   0  0  0  0  0  0
  -27.2093  -26.8432   25.6717 H   0  0  0  0  0  0
  -26.4405  -26.5158   24.1702 H   0  0  0  0  0  0
  -27.6722  -27.7635   22.8526 H   0  0  0  0  0  0
  -29.3627  -27.6151   22.5666 H   0  0  0  0  0  0
  -27.3768  -25.4838   21.6254 H   0  0  0  0  0  0
  -29.1242  -25.3322   21.5583 H   0  0  0  0  0  0
  -28.1516  -18.3629   25.7990 H   0  0  0  0  0  0
  -28.9753  -25.4565   23.9619 H   0  0  0  0  0  0
  1 25  1  0  0  0
  1 30  2  0  0  0
  1 94  1  0  0  0
  2  3  1  0  0  0
  2 25  1  0  0  0
  2 97  1  0  0  0
  2 98  1  0  0  0
  3  4  1  0  0  0
  3 99  1  0  0  0
  3100  1  0  0  0
  4  5  1  0  0  0
  4101  1  0  0  0
  4102  1  0  0  0
  5  6  1  0  0  0
  5 26  1  0  0  0
  5103  1  0  0  0
  6 25  1  0  0  0
  6104  1  0  0  0
  6105  1  0  0  0
  7  8  2  0  0  0
  7 26  1  0  0  0
  7 29  1  0  0  0
  8  9  1  0  0  0
  8 22  1  0  0  0
  9 10  1  0  0  0
  9 27  2  0  0  0
 10 11  2  0  0  0
 10 15  1  0  0  0
 11 12  1  0  0  0
 11106  1  0  0  0
 12 13  2  0  0  0
 12107  1  0  0  0
 13 14  1  0  0  0
 13 31  1  0  0  0
 14 15  2  0  0  0
 14108  1  0  0  0
 15109  1  0  0  0
 16 17  2  0  0  0
 16 21  1  0  0  0
 16 31  1  0  0  0
 17 18  1  0  0  0
 17110  1  0  0  0
 18 19  2  0  0  0
 18111  1  0  0  0
 19 20  1  0  0  0
 19 24  1  0  0  0
 20 21  2  0  0  0
 20112  1  0  0  0
 21 23  1  0  0  0
 22 28  1  0  0  0
 22 32  2  0  0  0
 26 27  1  0  0  0
 28113  1  0  0  0
 28114  1  0  0  0
 29115  1  0  0  0
 29116  1  0  0  0
 33 34  1  0  0  0
 33 66  1  0  0  0
 33 70  2  0  0  0
 34 36  1  0  0  0
 34 59  1  0  0  0
 34117  1  0  0  0
 35 44  2  0  0  0
 35 45  1  0  0  0
 35 68  1  0  0  0
 36 56  1  0  0  0
 36118  1  0  0  0
 37 39  1  0  0  0
 37 47  1  0  0  0
 37 66  1  0  0  0
 37119  1  0  0  0
 38 43  2  0  0  0
 38 46  1  0  0  0
 38 47  1  0  0  0
 39 64  1  0  0  0
 39 67  2  0  0  0
 40 52  1  0  0  0
 40 53  2  0  0  0
 40 58  1  0  0  0
 41120  1  0  0  0
 41121  1  0  0  0
 41122  1  0  0  0
 41 48  1  0  0  0
 42 43  1  0  0  0
 42 66  1  0  0  0
 42123  1  0  0  0
 42124  1  0  0  0
 43 44  1  0  0  0
 44125  1  0  0  0
 45 46  2  0  0  0
 45126  1  0  0  0
 46127  1  0  0  0
 47128  1  0  0  0
 47129  1  0  0  0
 48 56  1  0  0  0
 48 65  1  0  0  0
 48130  1  0  0  0
 49 50  1  0  0  0
 49 53  1  0  0  0
 49 64  1  0  0  0
 49131  1  0  0  0
 50 51  1  0  0  0
 50132  1  0  0  0
 50133  1  0  0  0
 51 52  1  0  0  0
 51134  1  0  0  0
 51135  1  0  0  0
 52136  1  0  0  0
 52137  1  0  0  0
 53 54  1  0  0  0
 54 55  2  0  0  0
 54138  1  0  0  0
 55 57  1  0  0  0
 55139  1  0  0  0
 56 69  2  0  0  0
 57 58  2  0  0  0
 57140  1  0  0  0
 58141  1  0  0  0
 59 60  1  0  0  0
 59 61  1  0  0  0
 59 62  1  0  0  0
 60142  1  0  0  0
 60143  1  0  0  0
 60144  1  0  0  0
 61145  1  0  0  0
 61146  1  0  0  0
 61147  1  0  0  0
 62148  1  0  0  0
 62149  1  0  0  0
 62150  1  0  0  0
 63 65  1  0  0  0
 63151  1  0  0  0
 63152  1  0  0  0
 63153  1  0  0  0
 64154  1  0  0  0
 65155  1  0  0  0
 68 93  1  0  0  0
 71 72  2  0  0  0
 71 77  1  0  0  0
 71156  1  0  0  0
 72 79  1  0  0  0
 72157  1  0  0  0
 73 74  2  0  0  0
 73 78  1  0  0  0
 73158  1  0  0  0
 74 82  1  0  0  0
 74159  1  0  0  0
 75 77  2  0  0  0
 75 80  1  0  0  0
 75160  1  0  0  0
 76 81  1  0  0  0
 76 82  2  0  0  0
 76161  1  0  0  0
 77 85  1  0  0  0
 78 81  2  0  0  0
 78 90  1  0  0  0
 79 80  2  0  0  0
 79 91  1  0  0  0
 80 86  1  0  0  0
 81 87  1  0  0  0
 82 94  1  0  0  0
 83 85  1  0  0  0
 83 95  1  0  0  0
 83162  1  0  0  0
 83163  1  0  0  0
 84 85  1  0  0  0
 84 95  1  0  0  0
 84164  1  0  0  0
 84165  1  0  0  0
 85166  1  0  0  0
 86167  1  0  0  0
 86168  1  0  0  0
 86169  1  0  0  0
 87170  1  0  0  0
 87171  1  0  0  0
 87172  1  0  0  0
 88 94  1  0  0  0
 88173  1  0  0  0
 88174  1  0  0  0
 88175  1  0  0  0
 89176  1  0  0  0
 89177  1  0  0  0
 89178  1  0  0  0
 89 96  1  0  0  0
 90179  1  0  0  0
 90180  1  0  0  0
 90 95  1  0  0  0
 91 96  1  0  0  0
 91181  1  0  0  0
 91182  1  0  0  0
 92 93  1  0  0  0
 92 96  1  0  0  0
 92183  1  0  0  0
 92184  1  0  0  0
 93185  1  0  0  0
 93186  1  0  0  0
 95187  1  0  0  0
 96188  1  0  0  0
M  CHG  2  95   1  96   1
M  ISO  4   1 100  68 101  93 101  94 100
M  END
> <chiral flag>
0

> <version>
0

> <s_m_source_file>
/data/baiqing/PycharmProjects/Reinvent-master-3.2/result/LINK_invent/BTK/process_docking_weight1_custom_product_contain_oxygen_bond_distance_aromatic_linkinvent_7_9_3/rearranged_h_0014.sdf

> <i_m_source_file_index>
92

> <r_mmod_Potential_Energy-OPLS-2005>
-27.3108367919922

> <r_mmod_Stretch_Energy-OPLS-2005>
47.7167053222656

> <r_mmod_Bend_Energy-OPLS-2005>
158.087692260742

> <r_mmod_Torsional_Energy-OPLS-2005>
333.013427734375

> <r_mmod_Improper_Torsional_Energy-OPLS-2005>
10.7538404464722

> <r_mmod_Van_der_Waal_Energy-OPLS-2005>
184.857498168945

> <r_mmod_Electrostatic_Energy-OPLS-2005>
26.1459789276123

> <r_mmod_Solvation_Energy-OPLS-2005>
-818.694946289062

> <b_mmod_Minimization_Converged-OPLS-2005>
0

> <r_mmod_RMS_Derivative-OPLS-2005>
11.0617189407349

$$$$
94
                    3D
 Structure written by MMmdl.
159167  0  0  1  0            999 V2000
  -30.5828  -15.0455   20.4063 C   0  0  0  0  0  0
  -30.4207  -12.6621   19.5028 C   0  0  0  0  0  0
  -29.5079  -12.5359   18.2631 C   0  0  0  0  0  0
  -28.0559  -12.2984   18.7022 C   0  0  0  0  0  0
  -27.6189  -13.2645   19.8318 C   0  0  2  0  0  0
  -28.6638  -13.3862   20.9645 C   0  0  0  0  0  0
  -25.2423  -13.8247   20.5763 C   0  0  0  0  0  0
  -24.1763  -13.0437   20.9247 C   0  0  0  0  0  0
  -24.6403  -11.6930   20.8776 C   0  0  0  0  0  0
  -23.9101  -10.4291   21.0418 C   0  0  0  0  0  0
  -24.3647   -9.4206   21.9201 C   0  0  0  0  0  0
  -23.6310   -8.2248   22.0765 C   0  0  0  0  0  0
  -22.4299   -8.0287   21.3546 C   0  0  0  0  0  0
  -21.9938   -9.0268   20.4653 C   0  0  0  0  0  0
  -22.7273  -10.2138   20.3069 C   0  0  0  0  0  0
  -21.6868   -6.0746   22.5272 C   0  0  0  0  0  0
  -21.4018   -6.5648   23.8203 C   0  0  0  0  0  0
  -21.3654   -5.6799   24.9165 C   0  0  0  0  0  0
  -21.6050   -4.3063   24.7222 C   0  0  0  0  0  0
  -21.8816   -3.8153   23.4341 C   0  0  0  0  0  0
  -21.9196   -4.6971   22.3396 C   0  0  0  0  0  0
  -22.7778  -13.5193   21.1883 C   0  0  0  0  0  0
  -22.1662   -4.2156   21.0972 F   0  0  0  0  0  0
  -21.5632   -3.4541   25.7732 F   0  0  0  0  0  0
  -29.9232  -13.8061   20.3374 N   0  0  0  0  0  0
  -26.2859  -12.9510   20.3293 N   0  0  0  0  0  0
  -25.9349  -11.6623   20.5797 N   0  0  0  0  0  0
  -22.0438  -12.8168   22.0438 N   0  0  0  0  0  0
  -25.4068  -15.1978   20.4189 N   0  0  0  0  0  0
  -31.7833  -14.9814   20.1213 O   0  0  0  0  0  0
  -21.6651   -6.8893   21.4241 O   0  0  0  0  0  0
  -22.3451  -14.5505   20.6743 O   0  0  0  0  0  0
  -24.6464  -31.8397   23.1837 C   0  0  0  0  0  0
  -25.9217  -32.4661   23.8242 C   0  0  1  0  0  0
  -27.2112  -27.0816   20.1448 C   0  0  0  0  0  0
  -25.5950  -33.8473   24.2156 N   0  0  0  0  0  0
  -23.4514  -30.4575   21.5327 C   0  0  2  0  0  0
  -24.9006  -28.8803   20.1020 C   0  0  0  0  0  0
  -22.7574  -29.4512   22.4847 C   0  0  0  0  0  0
  -18.0311  -28.1402   22.8476 C   0  0  0  0  0  0
  -24.1500  -36.7242   23.2648 C   0  0  0  0  0  0
  -26.0107  -30.6919   21.3930 C   0  0  0  0  0  0
  -26.0784  -29.3007   20.7309 C   0  0  0  0  0  0
  -27.2285  -28.4170   20.7381 C   0  0  0  0  0  0
  -26.0084  -26.7819   19.4655 C   0  0  0  0  0  0
  -24.8829  -27.6372   19.4542 C   0  0  0  0  0  0
  -23.6777  -29.7876   20.1514 C   0  0  0  0  0  0
  -25.4129  -36.3014   24.0320 C   0  0  1  0  0  0
  -20.5923  -28.3722   23.1241 C   0  0  2  0  0  0
  -20.6809  -26.9419   22.5418 C   0  0  0  0  0  0
  -19.5782  -26.6383   21.5228 C   0  0  0  0  0  0
  -18.1950  -26.7948   22.1619 C   0  0  0  0  0  0
  -19.1567  -28.8882   23.2852 C   0  0  0  0  0  0
  -18.9479  -30.1479   23.8875 C   0  0  0  0  0  0
  -17.6472  -30.6600   24.0561 C   0  0  0  0  0  0
  -25.9084  -34.9387   23.5057 C   0  0  0  0  0  0
  -16.5370  -29.9072   23.6346 C   0  0  0  0  0  0
  -16.7296  -28.6496   23.0368 C   0  0  0  0  0  0
  -26.4527  -31.6539   25.0695 C   0  0  0  0  0  0
  -25.3686  -31.3720   26.1368 C   0  0  0  0  0  0
  -27.0404  -30.2930   24.6319 C   0  0  0  0  0  0
  -27.6071  -32.4306   25.7452 C   0  0  0  0  0  0
  -27.5580  -37.1763   24.8466 C   0  0  0  0  0  0
  -21.4268  -29.3034   22.3592 N   0  0  0  0  0  0
  -26.4295  -37.3720   23.9407 N   0  0  0  0  0  0
  -24.7234  -31.0190   22.0912 N   0  0  0  0  0  0
  -23.4202  -28.8086   23.3026 O   0  0  0  0  0  0
  -28.2567  -26.0732   20.2608 O   0  0  0  0  0  0
  -26.5691  -34.8883   22.4639 O   0  0  0  0  0  0
  -23.5577  -32.1322   23.7016 O   0  0  0  0  0  0
  -31.8238  -17.5578   21.4714 C   0  0  0  0  0  0
  -32.7580  -18.5523   21.7749 C   0  0  0  0  0  0
  -31.2324  -20.1982   20.9456 C   0  0  0  0  0  0
  -30.5654  -17.7568   20.8291 C   0  0  0  0  0  0
  -30.2019  -19.2575   20.6546 C   0  0  0  0  0  0
  -32.4968  -19.8815   21.4701 C   0  0  0  0  0  0
  -27.7632  -19.3389   20.5084 C   0  0  0  0  0  0
  -33.3504  -22.1164   21.2189 C   0  0  0  0  0  0
  -28.6483  -23.0844   20.5325 C   0  0  0  0  0  0
  -28.8859  -21.5719   19.7493 C   0  0  0  0  0  0
  -28.2206  -24.5670   19.7664 C   0  0  0  0  0  0
  -29.9430  -16.3464   20.5551 N   0  0  0  0  0  0
  -29.0013  -20.0854   20.3408 N   0  0  0  0  0  0
  -33.4826  -20.8033   21.7539 O   0  0  0  0  0  0
  -31.4510  -12.7968   19.1729 H   0  0  0  0  0  0
  -30.4215  -11.7363   20.0800 H   0  0  0  0  0  0
  -29.8440  -11.7196   17.6235 H   0  0  0  0  0  0
  -29.5683  -13.4443   17.6618 H   0  0  0  0  0  0
  -27.9923  -11.2704   19.0595 H   0  0  0  0  0  0
  -27.3772  -12.3672   17.8517 H   0  0  0  0  0  0
  -27.5539  -14.2441   19.3578 H   0  0  0  0  0  0
  -28.7804  -12.4479   21.5080 H   0  0  0  0  0  0
  -28.3466  -14.1347   21.6920 H   0  0  0  0  0  0
  -25.2795   -9.5678   22.4774 H   0  0  0  0  0  0
  -24.0018   -7.4645   22.7493 H   0  0  0  0  0  0
  -21.0869   -8.8793   19.8958 H   0  0  0  0  0  0
  -22.3746  -10.9684   19.6174 H   0  0  0  0  0  0
  -21.2011   -7.6154   23.9713 H   0  0  0  0  0  0
  -21.1478   -6.0525   25.9067 H   0  0  0  0  0  0
  -22.0603   -2.7616   23.2837 H   0  0  0  0  0  0
  -22.4078  -11.9818   22.4797 H   0  0  0  0  0  0
  -21.1062  -13.1173   22.2677 H   0  0  0  0  0  0
  -24.6392  -15.8495   20.5434 H   0  0  0  0  0  0
  -26.2566  -15.6427   20.0987 H   0  0  0  0  0  0
  -26.7264  -32.5228   23.0945 H   0  0  0  0  0  0
  -25.0005  -33.9590   25.0245 H   0  0  0  0  0  0
  -22.7550  -31.2843   21.3782 H   0  0  0  0  0  0
  -23.3786  -35.9553   23.3284 H   0  0  0  0  0  0
  -24.3590  -36.8905   22.2071 H   0  0  0  0  0  0
  -23.7232  -37.6411   23.6717 H   0  0  0  0  0  0
  -26.1803  -31.4460   20.6230 H   0  0  0  0  0  0
  -26.8763  -30.7367   22.0417 H   0  0  0  0  0  0
  -28.1193  -28.7328   21.2623 H   0  0  0  0  0  0
  -25.8793  -25.8430   18.9548 H   0  0  0  0  0  0
  -23.9863  -27.3112   18.9446 H   0  0  0  0  0  0
  -23.8021  -30.5667   19.3978 H   0  0  0  0  0  0
  -22.7900  -29.2297   19.8467 H   0  0  0  0  0  0
  -25.1307  -36.1846   25.0818 H   0  0  0  0  0  0
  -21.0017  -28.3336   24.1363 H   0  0  0  0  0  0
  -20.5743  -26.2310   23.3635 H   0  0  0  0  0  0
  -21.6661  -26.7456   22.1177 H   0  0  0  0  0  0
  -19.6953  -25.6289   21.1262 H   0  0  0  0  0  0
  -19.6748  -27.3194   20.6768 H   0  0  0  0  0  0
  -17.4228  -26.6711   21.4014 H   0  0  0  0  0  0
  -18.0343  -26.0090   22.9015 H   0  0  0  0  0  0
  -19.7954  -30.7317   24.2226 H   0  0  0  0  0  0
  -17.5019  -31.6286   24.5157 H   0  0  0  0  0  0
  -15.5361  -30.2969   23.7700 H   0  0  0  0  0  0
  -15.8700  -28.0817   22.7104 H   0  0  0  0  0  0
  -24.5932  -30.7005   25.7661 H   0  0  0  0  0  0
  -24.8787  -32.2883   26.4680 H   0  0  0  0  0  0
  -25.7931  -30.8965   27.0218 H   0  0  0  0  0  0
  -26.3030  -29.6621   24.1350 H   0  0  0  0  0  0
  -27.4024  -29.7258   25.4901 H   0  0  0  0  0  0
  -27.8928  -30.4146   23.9635 H   0  0  0  0  0  0
  -27.2731  -33.3689   26.1885 H   0  0  0  0  0  0
  -28.3930  -32.6726   25.0288 H   0  0  0  0  0  0
  -28.0683  -31.8512   26.5461 H   0  0  0  0  0  0
  -28.2566  -38.0087   24.7522 H   0  0  0  0  0  0
  -28.1101  -36.2609   24.6280 H   0  0  0  0  0  0
  -27.2293  -37.1382   25.8866 H   0  0  0  0  0  0
  -20.9482  -29.8669   21.6706 H   0  0  0  0  0  0
  -26.0173  -38.2787   24.1415 H   0  0  0  0  0  0
  -32.1515  -16.5806   21.7858 H   0  0  0  0  0  0
  -33.6965  -18.2804   22.2388 H   0  0  0  0  0  0
  -31.0363  -21.2496   20.8324 H   0  0  0  0  0  0
  -27.8172  -18.6768   21.3737 H   0  0  0  0  0  0
  -27.5585  -18.7293   19.6270 H   0  0  0  0  0  0
  -26.9175  -20.0104   20.6630 H   0  0  0  0  0  0
  -32.5775  -22.6884   21.7349 H   0  0  0  0  0  0
  -33.1263  -22.0962   20.1514 H   0  0  0  0  0  0
  -34.2923  -22.6514   21.3408 H   0  0  0  0  0  0
  -29.5664  -23.2859   21.0844 H   0  0  0  0  0  0
  -27.8993  -22.9266   21.3078 H   0  0  0  0  0  0
  -29.7299  -21.6985   19.0691 H   0  0  0  0  0  0
  -28.0367  -21.5036   19.0692 H   0  0  0  0  0  0
  -27.2431  -24.3732   19.3361 H   0  0  0  0  0  0
  -28.8690  -24.6122   18.8912 H   0  0  0  0  0  0
  -28.9357  -16.3247   20.5154 H   0  0  0  0  0  0
  1 25  1  0  0  0
  1 30  2  0  0  0
  1 82  1  0  0  0
  2  3  1  0  0  0
  2 25  1  0  0  0
  2 85  1  0  0  0
  2 86  1  0  0  0
  3  4  1  0  0  0
  3 87  1  0  0  0
  3 88  1  0  0  0
  4  5  1  0  0  0
  4 89  1  0  0  0
  4 90  1  0  0  0
  5  6  1  0  0  0
  5 26  1  0  0  0
  5 91  1  0  0  0
  6 25  1  0  0  0
  6 92  1  0  0  0
  6 93  1  0  0  0
  7  8  2  0  0  0
  7 26  1  0  0  0
  7 29  1  0  0  0
  8  9  1  0  0  0
  8 22  1  0  0  0
  9 10  1  0  0  0
  9 27  2  0  0  0
 10 11  2  0  0  0
 10 15  1  0  0  0
 11 12  1  0  0  0
 11 94  1  0  0  0
 12 13  2  0  0  0
 12 95  1  0  0  0
 13 14  1  0  0  0
 13 31  1  0  0  0
 14 15  2  0  0  0
 14 96  1  0  0  0
 15 97  1  0  0  0
 16 17  2  0  0  0
 16 21  1  0  0  0
 16 31  1  0  0  0
 17 18  1  0  0  0
 17 98  1  0  0  0
 18 19  2  0  0  0
 18 99  1  0  0  0
 19 20  1  0  0  0
 19 24  1  0  0  0
 20 21  2  0  0  0
 20100  1  0  0  0
 21 23  1  0  0  0
 22 28  1  0  0  0
 22 32  2  0  0  0
 26 27  1  0  0  0
 28101  1  0  0  0
 28102  1  0  0  0
 29103  1  0  0  0
 29104  1  0  0  0
 33 34  1  0  0  0
 33 66  1  0  0  0
 33 70  2  0  0  0
 34 36  1  0  0  0
 34 59  1  0  0  0
 34105  1  0  0  0
 35 44  2  0  0  0
 35 45  1  0  0  0
 35 68  1  0  0  0
 36 56  1  0  0  0
 36106  1  0  0  0
 37 39  1  0  0  0
 37 47  1  0  0  0
 37 66  1  0  0  0
 37107  1  0  0  0
 38 43  2  0  0  0
 38 46  1  0  0  0
 38 47  1  0  0  0
 39 64  1  0  0  0
 39 67  2  0  0  0
 40 52  1  0  0  0
 40 53  2  0  0  0
 40 58  1  0  0  0
 41108  1  0  0  0
 41109  1  0  0  0
 41110  1  0  0  0
 41 48  1  0  0  0
 42 43  1  0  0  0
 42 66  1  0  0  0
 42111  1  0  0  0
 42112  1  0  0  0
 43 44  1  0  0  0
 44113  1  0  0  0
 45 46  2  0  0  0
 45114  1  0  0  0
 46115  1  0  0  0
 47116  1  0  0  0
 47117  1  0  0  0
 48 56  1  0  0  0
 48 65  1  0  0  0
 48118  1  0  0  0
 49 50  1  0  0  0
 49 53  1  0  0  0
 49 64  1  0  0  0
 49119  1  0  0  0
 50 51  1  0  0  0
 50120  1  0  0  0
 50121  1  0  0  0
 51 52  1  0  0  0
 51122  1  0  0  0
 51123  1  0  0  0
 52124  1  0  0  0
 52125  1  0  0  0
 53 54  1  0  0  0
 54 55  2  0  0  0
 54126  1  0  0  0
 55 57  1  0  0  0
 55127  1  0  0  0
 56 69  2  0  0  0
 57 58  2  0  0  0
 57128  1  0  0  0
 58129  1  0  0  0
 59 60  1  0  0  0
 59 61  1  0  0  0
 59 62  1  0  0  0
 60130  1  0  0  0
 60131  1  0  0  0
 60132  1  0  0  0
 61133  1  0  0  0
 61134  1  0  0  0
 61135  1  0  0  0
 62136  1  0  0  0
 62137  1  0  0  0
 62138  1  0  0  0
 63 65  1  0  0  0
 63139  1  0  0  0
 63140  1  0  0  0
 63141  1  0  0  0
 64142  1  0  0  0
 65143  1  0  0  0
 68 81  1  0  0  0
 71 72  2  0  0  0
 71 74  1  0  0  0
 71144  1  0  0  0
 72 76  1  0  0  0
 72145  1  0  0  0
 73 75  1  0  0  0
 73 76  2  0  0  0
 73146  1  0  0  0
 74 75  2  0  0  0
 74 82  1  0  0  0
 75 83  1  0  0  0
 76 84  1  0  0  0
 77 83  1  0  0  0
 77147  1  0  0  0
 77148  1  0  0  0
 77149  1  0  0  0
 78 84  1  0  0  0
 78150  1  0  0  0
 78151  1  0  0  0
 78152  1  0  0  0
 79 80  1  0  0  0
 79 81  1  0  0  0
 79153  1  0  0  0
 79154  1  0  0  0
 80 83  1  0  0  0
 80155  1  0  0  0
 80156  1  0  0  0
 81157  1  0  0  0
 81158  1  0  0  0
 82159  1  0  0  0
M  ISO  4   1 100  68 101  81 101  82 100
M  END
> <chiral flag>
0

> <version>
0

> <s_m_source_file>
/data/baiqing/PycharmProjects/Reinvent-master-3.2/result/LINK_invent/BTK/process_docking_weight1_custom_product_contain_oxygen_bond_distance_aromatic_linkinvent_7_9_3/rearranged_h_0014.sdf

> <i_m_source_file_index>
93

> <r_mmod_Potential_Energy-OPLS-2005>
805.206970214844

> <r_mmod_Stretch_Energy-OPLS-2005>
377.005828857422

> <r_mmod_Bend_Energy-OPLS-2005>
415.776824951172

> <r_mmod_Torsional_Energy-OPLS-2005>
220.126052856445

> <r_mmod_Improper_Torsional_Energy-OPLS-2005>
5.3412914276123

> <r_mmod_Van_der_Waal_Energy-OPLS-2005>
161.559799194336

> <r_mmod_Electrostatic_Energy-OPLS-2005>
-393.196014404297

> <r_mmod_Solvation_Energy-OPLS-2005>
-236.111694335938

> <b_mmod_Minimization_Converged-OPLS-2005>
0

> <r_mmod_RMS_Derivative-OPLS-2005>
2.55468392372131

$$$$
95
                    3D
 Structure written by MMmdl.
156165  0  0  1  0            999 V2000
  -30.5503  -14.7830   20.4544 C   0  0  0  0  0  0
  -30.4509  -12.4779   19.4684 C   0  0  0  0  0  0
  -29.5171  -12.5169   18.2357 C   0  0  0  0  0  0
  -28.0428  -12.3289   18.6495 C   0  0  0  0  0  0
  -27.6446  -13.2227   19.8530 C   0  0  2  0  0  0
  -28.6916  -13.1389   20.9859 C   0  0  0  0  0  0
  -25.2526  -13.8165   20.5686 C   0  0  0  0  0  0
  -24.1811  -13.0423   20.9207 C   0  0  0  0  0  0
  -24.6395  -11.6900   20.8748 C   0  0  0  0  0  0
  -23.9068  -10.4284   21.0411 C   0  0  0  0  0  0
  -24.3618   -9.4200   21.9187 C   0  0  0  0  0  0
  -23.6291   -8.2238   22.0756 C   0  0  0  0  0  0
  -22.4272   -8.0279   21.3547 C   0  0  0  0  0  0
  -21.9909   -9.0254   20.4650 C   0  0  0  0  0  0
  -22.7241  -10.2131   20.3059 C   0  0  0  0  0  0
  -21.6850   -6.0736   22.5280 C   0  0  0  0  0  0
  -21.4013   -6.5640   23.8214 C   0  0  0  0  0  0
  -21.3658   -5.6792   24.9175 C   0  0  0  0  0  0
  -21.6043   -4.3055   24.7225 C   0  0  0  0  0  0
  -21.8819   -3.8147   23.4346 C   0  0  0  0  0  0
  -21.9191   -4.6963   22.3402 C   0  0  0  0  0  0
  -22.7835  -13.5215   21.1866 C   0  0  0  0  0  0
  -22.1660   -4.2150   21.0979 F   0  0  0  0  0  0
  -21.5631   -3.4540   25.7739 F   0  0  0  0  0  0
  -29.9898  -13.5227   20.4108 N   0  0  0  0  0  0
  -26.2949  -12.9354   20.3280 N   0  0  0  0  0  0
  -25.9322  -11.6507   20.5746 N   0  0  0  0  0  0
  -22.0477  -12.8210   22.0423 N   0  0  0  0  0  0
  -25.4199  -15.1890   20.4090 N   0  0  0  0  0  0
  -31.7364  -14.9436   20.1470 O   0  0  0  0  0  0
  -21.6636   -6.8878   21.4242 O   0  0  0  0  0  0
  -22.3522  -14.5521   20.6712 O   0  0  0  0  0  0
  -24.6338  -31.8519   23.1948 C   0  0  0  0  0  0
  -25.9152  -32.4738   23.8305 C   0  0  1  0  0  0
  -27.2270  -27.2411   20.1369 C   0  0  0  0  0  0
  -25.5933  -33.8540   24.2227 N   0  0  0  0  0  0
  -23.4318  -30.4723   21.5386 C   0  0  2  0  0  0
  -24.8800  -28.9098   20.1138 C   0  0  0  0  0  0
  -22.7513  -29.4586   22.4904 C   0  0  0  0  0  0
  -18.0294  -28.1391   22.8487 C   0  0  0  0  0  0
  -24.1489  -36.7276   23.2641 C   0  0  0  0  0  0
  -25.9785  -30.7606   21.3750 C   0  0  0  0  0  0
  -26.0529  -29.3801   20.7180 C   0  0  0  0  0  0
  -27.2300  -28.5617   20.7088 C   0  0  0  0  0  0
  -26.0267  -26.8342   19.5174 C   0  0  0  0  0  0
  -24.8732  -27.6461   19.5012 C   0  0  0  0  0  0
  -23.6516  -29.8000   20.1572 C   0  0  0  0  0  0
  -25.4119  -36.3058   24.0319 C   0  0  1  0  0  0
  -20.5899  -28.3703   23.1268 C   0  0  2  0  0  0
  -20.6780  -26.9418   22.5410 C   0  0  0  0  0  0
  -19.5753  -26.6384   21.5217 C   0  0  0  0  0  0
  -18.1934  -26.7932   22.1628 C   0  0  0  0  0  0
  -19.1549  -28.8865   23.2869 C   0  0  0  0  0  0
  -18.9467  -30.1468   23.8885 C   0  0  0  0  0  0
  -17.6465  -30.6589   24.0566 C   0  0  0  0  0  0
  -25.9062  -34.9432   23.5079 C   0  0  0  0  0  0
  -16.5357  -29.9085   23.6335 C   0  0  0  0  0  0
  -16.7282  -28.6505   23.0353 C   0  0  0  0  0  0
  -26.4508  -31.6578   25.0712 C   0  0  0  0  0  0
  -25.3721  -31.3735   26.1426 C   0  0  0  0  0  0
  -27.0365  -30.2993   24.6222 C   0  0  0  0  0  0
  -27.6052  -32.4331   25.7490 C   0  0  0  0  0  0
  -27.5578  -37.1793   24.8464 C   0  0  0  0  0  0
  -21.4217  -29.3043   22.3650 N   0  0  0  0  0  0
  -26.4290  -37.3763   23.9408 N   0  0  0  0  0  0
  -24.7006  -31.0468   22.0927 N   0  0  0  0  0  0
  -23.4201  -28.8136   23.3021 O   0  0  0  0  0  0
  -28.3389  -26.3615   20.1656 O   0  0  0  0  0  0
  -26.5638  -34.8916   22.4652 O   0  0  0  0  0  0
  -23.5485  -32.1346   23.7237 O   0  0  0  0  0  0
  -28.3775  -19.3736   19.7321 C   0  0  0  0  0  0
  -30.3917  -19.6879   20.9493 C   0  0  0  0  0  0
  -28.5522  -17.9499   19.8262 C   0  0  0  0  0  0
  -30.5848  -18.2555   21.0227 C   0  0  0  0  0  0
  -29.2786  -20.3220   20.3030 C   0  0  0  0  0  0
  -29.6604  -17.3200   20.4676 C   0  0  0  0  0  0
  -28.1524  -23.9373   19.0805 C   0  0  0  0  0  0
  -29.3478  -24.1978   21.1674 C   0  0  0  0  0  0
  -28.0354  -22.3708   19.3556 C   0  0  0  0  0  0
  -29.2672  -22.6265   21.4223 C   0  0  0  0  0  0
  -28.1830  -24.8612   20.3486 C   0  0  0  0  0  0
  -29.0915  -21.7782   20.2174 N   0  0  0  0  0  0
  -29.6620  -15.8363   20.6522 N   0  0  0  0  0  0
  -31.4861  -12.6369   19.1615 H   0  0  0  0  0  0
  -30.4249  -11.4966   19.9447 H   0  0  0  0  0  0
  -29.8048  -11.7470   17.5184 H   0  0  0  0  0  0
  -29.6316  -13.4717   17.7201 H   0  0  0  0  0  0
  -27.9053  -11.2787   18.9098 H   0  0  0  0  0  0
  -27.3842  -12.5199   17.8015 H   0  0  0  0  0  0
  -27.6389  -14.2452   19.4756 H   0  0  0  0  0  0
  -28.7388  -12.1287   21.3952 H   0  0  0  0  0  0
  -28.4196  -13.7887   21.8193 H   0  0  0  0  0  0
  -25.2764   -9.5673   22.4760 H   0  0  0  0  0  0
  -24.0001   -7.4627   22.7474 H   0  0  0  0  0  0
  -21.0843   -8.8774   19.8952 H   0  0  0  0  0  0
  -22.3705  -10.9672   19.6168 H   0  0  0  0  0  0
  -21.2004   -7.6148   23.9718 H   0  0  0  0  0  0
  -21.1482   -6.0523   25.9079 H   0  0  0  0  0  0
  -22.0598   -2.7609   23.2849 H   0  0  0  0  0  0
  -22.4092  -11.9871   22.4810 H   0  0  0  0  0  0
  -21.1097  -13.1241   22.2631 H   0  0  0  0  0  0
  -24.6454  -15.8355   20.5140 H   0  0  0  0  0  0
  -26.2531  -15.6298   20.0448 H   0  0  0  0  0  0
  -26.7220  -32.5380   23.1046 H   0  0  0  0  0  0
  -25.0074  -33.9669   25.0368 H   0  0  0  0  0  0
  -22.7298  -31.2951   21.3882 H   0  0  0  0  0  0
  -23.3756  -35.9603   23.3298 H   0  0  0  0  0  0
  -24.3576  -36.8911   22.2056 H   0  0  0  0  0  0
  -23.7239  -37.6470   23.6679 H   0  0  0  0  0  0
  -26.1188  -31.5205   20.6050 H   0  0  0  0  0  0
  -26.8550  -30.8105   22.0096 H   0  0  0  0  0  0
  -28.1321  -28.9218   21.1835 H   0  0  0  0  0  0
  -25.9621  -25.8645   19.0494 H   0  0  0  0  0  0
  -23.9742  -27.2782   19.0258 H   0  0  0  0  0  0
  -23.7777  -30.5729   19.3982 H   0  0  0  0  0  0
  -22.7696  -29.2331   19.8537 H   0  0  0  0  0  0
  -25.1305  -36.1896   25.0811 H   0  0  0  0  0  0
  -20.9992  -28.3286   24.1389 H   0  0  0  0  0  0
  -20.5684  -26.2313   23.3617 H   0  0  0  0  0  0
  -21.6647  -26.7437   22.1204 H   0  0  0  0  0  0
  -19.6913  -25.6294   21.1250 H   0  0  0  0  0  0
  -19.6692  -27.3193   20.6746 H   0  0  0  0  0  0
  -17.4203  -26.6688   21.4029 H   0  0  0  0  0  0
  -18.0328  -26.0074   22.9025 H   0  0  0  0  0  0
  -19.7942  -30.7292   24.2243 H   0  0  0  0  0  0
  -17.5016  -31.6266   24.5173 H   0  0  0  0  0  0
  -15.5356  -30.2982   23.7663 H   0  0  0  0  0  0
  -15.8684  -28.0822   22.7069 H   0  0  0  0  0  0
  -24.5899  -30.7084   25.7748 H   0  0  0  0  0  0
  -24.8912  -32.2908   26.4834 H   0  0  0  0  0  0
  -25.8027  -30.8919   27.0215 H   0  0  0  0  0  0
  -26.2958  -29.6728   24.1239 H   0  0  0  0  0  0
  -27.4029  -29.7271   25.4755 H   0  0  0  0  0  0
  -27.8841  -30.4262   23.9483 H   0  0  0  0  0  0
  -27.2651  -33.3639   26.2041 H   0  0  0  0  0  0
  -28.3874  -32.6879   25.0327 H   0  0  0  0  0  0
  -28.0710  -31.8477   26.5428 H   0  0  0  0  0  0
  -28.2588  -38.0096   24.7516 H   0  0  0  0  0  0
  -28.1080  -36.2627   24.6285 H   0  0  0  0  0  0
  -27.2294  -37.1433   25.8865 H   0  0  0  0  0  0
  -20.9408  -29.8752   21.6840 H   0  0  0  0  0  0
  -26.0163  -38.2831   24.1420 H   0  0  0  0  0  0
  -27.4959  -19.7267   19.2181 H   0  0  0  0  0  0
  -31.1435  -20.3122   21.4093 H   0  0  0  0  0  0
  -27.7849  -17.3273   19.3897 H   0  0  0  0  0  0
  -31.4465  -17.8811   21.5568 H   0  0  0  0  0  0
  -27.3260  -24.2326   18.4355 H   0  0  0  0  0  0
  -29.0521  -24.1202   18.4916 H   0  0  0  0  0  0
  -30.2903  -24.4145   20.6631 H   0  0  0  0  0  0
  -29.4191  -24.6983   22.1337 H   0  0  0  0  0  0
  -28.0374  -21.8543   18.3948 H   0  0  0  0  0  0
  -27.0646  -22.1620   19.8084 H   0  0  0  0  0  0
  -28.4359  -22.4227   22.0994 H   0  0  0  0  0  0
  -30.1666  -22.3158   21.9549 H   0  0  0  0  0  0
  -27.2609  -24.6981   20.9086 H   0  0  0  0  0  0
  -28.7375  -15.4653   20.8059 H   0  0  0  0  0  0
  1 25  1  0  0  0
  1 30  2  0  0  0
  1 83  1  0  0  0
  2  3  1  0  0  0
  2 25  1  0  0  0
  2 84  1  0  0  0
  2 85  1  0  0  0
  3  4  1  0  0  0
  3 86  1  0  0  0
  3 87  1  0  0  0
  4  5  1  0  0  0
  4 88  1  0  0  0
  4 89  1  0  0  0
  5  6  1  0  0  0
  5 26  1  0  0  0
  5 90  1  0  0  0
  6 25  1  0  0  0
  6 91  1  0  0  0
  6 92  1  0  0  0
  7  8  2  0  0  0
  7 26  1  0  0  0
  7 29  1  0  0  0
  8  9  1  0  0  0
  8 22  1  0  0  0
  9 10  1  0  0  0
  9 27  2  0  0  0
 10 11  2  0  0  0
 10 15  1  0  0  0
 11 12  1  0  0  0
 11 93  1  0  0  0
 12 13  2  0  0  0
 12 94  1  0  0  0
 13 14  1  0  0  0
 13 31  1  0  0  0
 14 15  2  0  0  0
 14 95  1  0  0  0
 15 96  1  0  0  0
 16 17  2  0  0  0
 16 21  1  0  0  0
 16 31  1  0  0  0
 17 18  1  0  0  0
 17 97  1  0  0  0
 18 19  2  0  0  0
 18 98  1  0  0  0
 19 20  1  0  0  0
 19 24  1  0  0  0
 20 21  2  0  0  0
 20 99  1  0  0  0
 21 23  1  0  0  0
 22 28  1  0  0  0
 22 32  2  0  0  0
 26 27  1  0  0  0
 28100  1  0  0  0
 28101  1  0  0  0
 29102  1  0  0  0
 29103  1  0  0  0
 33 34  1  0  0  0
 33 66  1  0  0  0
 33 70  2  0  0  0
 34 36  1  0  0  0
 34 59  1  0  0  0
 34104  1  0  0  0
 35 44  2  0  0  0
 35 45  1  0  0  0
 35 68  1  0  0  0
 36 56  1  0  0  0
 36105  1  0  0  0
 37 39  1  0  0  0
 37 47  1  0  0  0
 37 66  1  0  0  0
 37106  1  0  0  0
 38 43  2  0  0  0
 38 46  1  0  0  0
 38 47  1  0  0  0
 39 64  1  0  0  0
 39 67  2  0  0  0
 40 52  1  0  0  0
 40 53  2  0  0  0
 40 58  1  0  0  0
 41107  1  0  0  0
 41108  1  0  0  0
 41109  1  0  0  0
 41 48  1  0  0  0
 42 43  1  0  0  0
 42 66  1  0  0  0
 42110  1  0  0  0
 42111  1  0  0  0
 43 44  1  0  0  0
 44112  1  0  0  0
 45 46  2  0  0  0
 45113  1  0  0  0
 46114  1  0  0  0
 47115  1  0  0  0
 47116  1  0  0  0
 48 56  1  0  0  0
 48 65  1  0  0  0
 48117  1  0  0  0
 49 50  1  0  0  0
 49 53  1  0  0  0
 49 64  1  0  0  0
 49118  1  0  0  0
 50 51  1  0  0  0
 50119  1  0  0  0
 50120  1  0  0  0
 51 52  1  0  0  0
 51121  1  0  0  0
 51122  1  0  0  0
 52123  1  0  0  0
 52124  1  0  0  0
 53 54  1  0  0  0
 54 55  2  0  0  0
 54125  1  0  0  0
 55 57  1  0  0  0
 55126  1  0  0  0
 56 69  2  0  0  0
 57 58  2  0  0  0
 57127  1  0  0  0
 58128  1  0  0  0
 59 60  1  0  0  0
 59 61  1  0  0  0
 59 62  1  0  0  0
 60129  1  0  0  0
 60130  1  0  0  0
 60131  1  0  0  0
 61132  1  0  0  0
 61133  1  0  0  0
 61134  1  0  0  0
 62135  1  0  0  0
 62136  1  0  0  0
 62137  1  0  0  0
 63 65  1  0  0  0
 63138  1  0  0  0
 63139  1  0  0  0
 63140  1  0  0  0
 64141  1  0  0  0
 65142  1  0  0  0
 68 81  1  0  0  0
 71 73  2  0  0  0
 71 75  1  0  0  0
 71143  1  0  0  0
 72 74  1  0  0  0
 72 75  2  0  0  0
 72144  1  0  0  0
 73 76  1  0  0  0
 73145  1  0  0  0
 74 76  2  0  0  0
 74146  1  0  0  0
 75 82  1  0  0  0
 76 83  1  0  0  0
 77 79  1  0  0  0
 77 81  1  0  0  0
 77147  1  0  0  0
 77148  1  0  0  0
 78 80  1  0  0  0
 78 81  1  0  0  0
 78149  1  0  0  0
 78150  1  0  0  0
 79 82  1  0  0  0
 79151  1  0  0  0
 79152  1  0  0  0
 80 82  1  0  0  0
 80153  1  0  0  0
 80154  1  0  0  0
 81155  1  0  0  0
 83156  1  0  0  0
M  ISO  4   1 100  68 101  81 101  83 100
M  END
> <chiral flag>
0

> <version>
0

> <s_m_source_file>
/data/baiqing/PycharmProjects/Reinvent-master-3.2/result/LINK_invent/BTK/process_docking_weight1_custom_product_contain_oxygen_bond_distance_aromatic_linkinvent_7_9_3/rearranged_h_0014.sdf

> <i_m_source_file_index>
94

> <r_mmod_Potential_Energy-OPLS-2005>
190.801544189453

> <r_mmod_Stretch_Energy-OPLS-2005>
124.130180358887

> <r_mmod_Bend_Energy-OPLS-2005>
190.531784057617

> <r_mmod_Torsional_Energy-OPLS-2005>
259.040710449219

> <r_mmod_Improper_Torsional_Energy-OPLS-2005>
9.05308055877686

> <r_mmod_Van_der_Waal_Energy-OPLS-2005>
136.684219360352

> <r_mmod_Electrostatic_Energy-OPLS-2005>
-396.944183349609

> <r_mmod_Solvation_Energy-OPLS-2005>
-230.249862670898

> <b_mmod_Minimization_Converged-OPLS-2005>
0

> <r_mmod_RMS_Derivative-OPLS-2005>
0.348706066608429

$$$$
96
                    3D
 Structure written by MMmdl.
160169  0  0  1  0            999 V2000
  -30.6149  -14.6374   20.5045 C   0  0  0  0  0  0
  -30.4394  -12.3896   19.4543 C   0  0  0  0  0  0
  -29.5083  -12.5106   18.2259 C   0  0  0  0  0  0
  -28.0311  -12.3481   18.6378 C   0  0  0  0  0  0
  -27.6543  -13.2162   19.8682 C   0  0  2  0  0  0
  -28.6980  -13.0608   20.9981 C   0  0  0  0  0  0
  -25.2543  -13.8160   20.5690 C   0  0  0  0  0  0
  -24.1805  -13.0420   20.9164 C   0  0  0  0  0  0
  -24.6386  -11.6899   20.8734 C   0  0  0  0  0  0
  -23.9064  -10.4282   21.0403 C   0  0  0  0  0  0
  -24.3611   -9.4201   21.9187 C   0  0  0  0  0  0
  -23.6282   -8.2242   22.0765 C   0  0  0  0  0  0
  -22.4263   -8.0279   21.3552 C   0  0  0  0  0  0
  -21.9897   -9.0256   20.4655 C   0  0  0  0  0  0
  -22.7235  -10.2126   20.3057 C   0  0  0  0  0  0
  -21.6849   -6.0729   22.5281 C   0  0  0  0  0  0
  -21.4021   -6.5637   23.8213 C   0  0  0  0  0  0
  -21.3661   -5.6790   24.9178 C   0  0  0  0  0  0
  -21.6040   -4.3053   24.7225 C   0  0  0  0  0  0
  -21.8818   -3.8143   23.4349 C   0  0  0  0  0  0
  -21.9193   -4.6960   22.3404 C   0  0  0  0  0  0
  -22.7827  -13.5221   21.1831 C   0  0  0  0  0  0
  -22.1657   -4.2148   21.0981 F   0  0  0  0  0  0
  -21.5626   -3.4538   25.7740 F   0  0  0  0  0  0
  -30.0170  -13.4051   20.4399 N   0  0  0  0  0  0
  -26.2987  -12.9354   20.3342 N   0  0  0  0  0  0
  -25.9317  -11.6507   20.5756 N   0  0  0  0  0  0
  -22.0470  -12.8226   22.0400 N   0  0  0  0  0  0
  -25.4230  -15.1880   20.4155 N   0  0  0  0  0  0
  -31.7664  -14.8163   20.0971 O   0  0  0  0  0  0
  -21.6632   -6.8873   21.4243 O   0  0  0  0  0  0
  -22.3518  -14.5539   20.6700 O   0  0  0  0  0  0
  -24.6251  -31.8607   23.2028 C   0  0  0  0  0  0
  -25.9103  -32.4784   23.8356 C   0  0  1  0  0  0
  -27.2266  -27.3292   20.1197 C   0  0  0  0  0  0
  -25.5922  -33.8584   24.2286 N   0  0  0  0  0  0
  -23.4182  -30.4836   21.5458 C   0  0  2  0  0  0
  -24.8649  -28.9363   20.1151 C   0  0  0  0  0  0
  -22.7467  -29.4626   22.4949 C   0  0  0  0  0  0
  -18.0285  -28.1381   22.8489 C   0  0  0  0  0  0
  -24.1488  -36.7299   23.2639 C   0  0  0  0  0  0
  -25.9577  -30.7943   21.3713 C   0  0  0  0  0  0
  -26.0332  -29.4206   20.7174 C   0  0  0  0  0  0
  -27.2188  -28.6304   20.7076 C   0  0  0  0  0  0
  -26.0394  -26.8958   19.4885 C   0  0  0  0  0  0
  -24.8692  -27.6784   19.4923 C   0  0  0  0  0  0
  -23.6329  -29.8165   20.1619 C   0  0  0  0  0  0
  -25.4111  -36.3088   24.0332 C   0  0  1  0  0  0
  -20.5882  -28.3683   23.1290 C   0  0  2  0  0  0
  -20.6774  -26.9410   22.5410 C   0  0  0  0  0  0
  -19.5752  -26.6385   21.5210 C   0  0  0  0  0  0
  -18.1932  -26.7924   22.1623 C   0  0  0  0  0  0
  -19.1536  -28.8850   23.2887 C   0  0  0  0  0  0
  -18.9459  -30.1451   23.8907 C   0  0  0  0  0  0
  -17.6460  -30.6586   24.0561 C   0  0  0  0  0  0
  -25.9051  -34.9456   23.5111 C   0  0  0  0  0  0
  -16.5352  -29.9086   23.6324 C   0  0  0  0  0  0
  -16.7272  -28.6499   23.0353 C   0  0  0  0  0  0
  -26.4490  -31.6590   25.0724 C   0  0  0  0  0  0
  -25.3725  -31.3723   26.1455 C   0  0  0  0  0  0
  -27.0322  -30.3015   24.6160 C   0  0  0  0  0  0
  -27.6055  -32.4320   25.7492 C   0  0  0  0  0  0
  -27.5579  -37.1805   24.8466 C   0  0  0  0  0  0
  -21.4182  -29.3041   22.3690 N   0  0  0  0  0  0
  -26.4290  -37.3780   23.9411 N   0  0  0  0  0  0
  -24.6858  -31.0629   22.0969 N   0  0  0  0  0  0
  -23.4198  -28.8163   23.3023 O   0  0  0  0  0  0
  -28.3543  -26.5003   20.1241 O   0  0  0  0  0  0
  -26.5619  -34.8920   22.4677 O   0  0  0  0  0  0
  -23.5421  -32.1400   23.7369 O   0  0  0  0  0  0
  -30.6648  -19.2836   19.8620 C   0  0  0  0  0  0
  -30.8324  -17.8838   20.1054 C   0  0  0  0  0  0
  -28.4468  -19.2016   20.7873 C   0  0  0  0  0  0
  -29.4621  -19.9815   20.1758 C   0  0  0  0  0  0
  -29.7923  -17.1030   20.6774 C   0  0  0  0  0  0
  -28.6102  -17.8063   21.0274 C   0  0  0  0  0  0
  -31.5182  -23.4435   20.8479 C   0  0  0  0  0  0
  -30.6983  -24.6114   20.3097 C   0  0  0  0  0  0
  -30.4674  -22.5800   21.5396 C   0  0  0  0  0  0
  -29.2868  -24.0439   20.0372 C   0  0  2  0  0  0
  -29.2113  -21.4686   19.7011 C   0  0  0  0  0  0
  -28.1852  -25.0845   20.5308 C   0  0  0  0  0  0
  -29.8080  -15.6610   20.9191 N   0  0  0  0  0  0
  -29.2717  -22.6414   20.6687 N   0  3  1  0  0  0
  -27.5862  -17.1101   21.5770 F   0  0  0  0  0  0
  -31.4807  -12.5181   19.1542 H   0  0  0  0  0  0
  -30.3758  -11.3905   19.8891 H   0  0  0  0  0  0
  -29.7717  -11.7626   17.4762 H   0  0  0  0  0  0
  -29.6502  -13.4811   17.7477 H   0  0  0  0  0  0
  -27.8712  -11.2950   18.8712 H   0  0  0  0  0  0
  -27.3749  -12.5777   17.7973 H   0  0  0  0  0  0
  -27.6745  -14.2527   19.5309 H   0  0  0  0  0  0
  -28.7050  -12.0363   21.3732 H   0  0  0  0  0  0
  -28.4403  -13.6851   21.8551 H   0  0  0  0  0  0
  -25.2755   -9.5677   22.4764 H   0  0  0  0  0  0
  -23.9995   -7.4630   22.7479 H   0  0  0  0  0  0
  -21.0832   -8.8774   19.8955 H   0  0  0  0  0  0
  -22.3702  -10.9667   19.6165 H   0  0  0  0  0  0
  -21.2023   -7.6145   23.9721 H   0  0  0  0  0  0
  -21.1481   -6.0518   25.9081 H   0  0  0  0  0  0
  -22.0597   -2.7608   23.2845 H   0  0  0  0  0  0
  -22.4081  -11.9886   22.4788 H   0  0  0  0  0  0
  -21.1102  -13.1283   22.2628 H   0  0  0  0  0  0
  -24.6667  -15.8429   20.5771 H   0  0  0  0  0  0
  -26.3019  -15.6475   20.2152 H   0  0  0  0  0  0
  -26.7171  -32.5456   23.1107 H   0  0  0  0  0  0
  -25.0059  -33.9722   25.0425 H   0  0  0  0  0  0
  -22.7120  -31.3039   21.4023 H   0  0  0  0  0  0
  -23.3749  -35.9633   23.3299 H   0  0  0  0  0  0
  -24.3584  -36.8920   22.2054 H   0  0  0  0  0  0
  -23.7244  -37.6501   23.6662 H   0  0  0  0  0  0
  -26.0874  -31.5561   20.6011 H   0  0  0  0  0  0
  -26.8391  -30.8453   21.9988 H   0  0  0  0  0  0
  -28.1185  -29.0039   21.1771 H   0  0  0  0  0  0
  -26.0032  -25.9450   18.9770 H   0  0  0  0  0  0
  -23.9764  -27.3051   19.0100 H   0  0  0  0  0  0
  -23.7536  -30.5919   19.4046 H   0  0  0  0  0  0
  -22.7529  -29.2464   19.8594 H   0  0  0  0  0  0
  -25.1289  -36.1939   25.0824 H   0  0  0  0  0  0
  -20.9973  -28.3255   24.1413 H   0  0  0  0  0  0
  -20.5676  -26.2295   23.3606 H   0  0  0  0  0  0
  -21.6645  -26.7446   22.1206 H   0  0  0  0  0  0
  -19.6915  -25.6298   21.1241 H   0  0  0  0  0  0
  -19.6686  -27.3194   20.6738 H   0  0  0  0  0  0
  -17.4200  -26.6672   21.4024 H   0  0  0  0  0  0
  -18.0332  -26.0064   22.9017 H   0  0  0  0  0  0
  -19.7934  -30.7258   24.2291 H   0  0  0  0  0  0
  -17.5015  -31.6267   24.5157 H   0  0  0  0  0  0
  -15.5353  -30.2991   23.7640 H   0  0  0  0  0  0
  -15.8670  -28.0815   22.7074 H   0  0  0  0  0  0
  -24.5902  -30.7068   25.7787 H   0  0  0  0  0  0
  -24.8913  -32.2886   26.4885 H   0  0  0  0  0  0
  -25.8053  -30.8901   27.0227 H   0  0  0  0  0  0
  -26.2880  -29.6777   24.1192 H   0  0  0  0  0  0
  -27.4035  -29.7262   25.4652 H   0  0  0  0  0  0
  -27.8750  -30.4312   23.9364 H   0  0  0  0  0  0
  -27.2669  -33.3622   26.2068 H   0  0  0  0  0  0
  -28.3862  -32.6875   25.0315 H   0  0  0  0  0  0
  -28.0722  -31.8444   26.5407 H   0  0  0  0  0  0
  -28.2600  -38.0099   24.7510 H   0  0  0  0  0  0
  -28.1072  -36.2634   24.6290 H   0  0  0  0  0  0
  -27.2303  -37.1452   25.8870 H   0  0  0  0  0  0
  -20.9362  -29.8769   21.6902 H   0  0  0  0  0  0
  -26.0174  -38.2858   24.1401 H   0  0  0  0  0  0
  -31.4707  -19.8170   19.3761 H   0  0  0  0  0  0
  -31.7624  -17.4132   19.8192 H   0  0  0  0  0  0
  -27.4999  -19.6578   21.0372 H   0  0  0  0  0  0
  -32.3141  -23.7598   21.5233 H   0  0  0  0  0  0
  -31.9777  -22.8928   20.0260 H   0  0  0  0  0  0
  -31.1456  -25.0598   19.4213 H   0  0  0  0  0  0
  -30.6561  -25.3920   21.0712 H   0  0  0  0  0  0
  -30.2117  -23.0252   22.5022 H   0  0  0  0  0  0
  -30.8254  -21.5719   21.7484 H   0  0  0  0  0  0
  -29.1661  -23.9344   18.9581 H   0  0  0  0  0  0
  -28.2355  -21.4969   19.2149 H   0  0  0  0  0  0
  -29.9272  -21.6659   18.9023 H   0  0  0  0  0  0
  -28.1772  -25.0856   21.6219 H   0  0  0  0  0  0
  -27.2120  -24.6915   20.2422 H   0  0  0  0  0  0
  -28.9379  -15.3299   21.3073 H   0  0  0  0  0  0
  -28.4596  -22.5486   21.2622 H   0  0  0  0  0  0
  1 25  1  0  0  0
  1 30  2  0  0  0
  1 83  1  0  0  0
  2  3  1  0  0  0
  2 25  1  0  0  0
  2 86  1  0  0  0
  2 87  1  0  0  0
  3  4  1  0  0  0
  3 88  1  0  0  0
  3 89  1  0  0  0
  4  5  1  0  0  0
  4 90  1  0  0  0
  4 91  1  0  0  0
  5  6  1  0  0  0
  5 26  1  0  0  0
  5 92  1  0  0  0
  6 25  1  0  0  0
  6 93  1  0  0  0
  6 94  1  0  0  0
  7  8  2  0  0  0
  7 26  1  0  0  0
  7 29  1  0  0  0
  8  9  1  0  0  0
  8 22  1  0  0  0
  9 10  1  0  0  0
  9 27  2  0  0  0
 10 11  2  0  0  0
 10 15  1  0  0  0
 11 12  1  0  0  0
 11 95  1  0  0  0
 12 13  2  0  0  0
 12 96  1  0  0  0
 13 14  1  0  0  0
 13 31  1  0  0  0
 14 15  2  0  0  0
 14 97  1  0  0  0
 15 98  1  0  0  0
 16 17  2  0  0  0
 16 21  1  0  0  0
 16 31  1  0  0  0
 17 18  1  0  0  0
 17 99  1  0  0  0
 18 19  2  0  0  0
 18100  1  0  0  0
 19 20  1  0  0  0
 19 24  1  0  0  0
 20 21  2  0  0  0
 20101  1  0  0  0
 21 23  1  0  0  0
 22 28  1  0  0  0
 22 32  2  0  0  0
 26 27  1  0  0  0
 28102  1  0  0  0
 28103  1  0  0  0
 29104  1  0  0  0
 29105  1  0  0  0
 33 34  1  0  0  0
 33 66  1  0  0  0
 33 70  2  0  0  0
 34 36  1  0  0  0
 34 59  1  0  0  0
 34106  1  0  0  0
 35 44  2  0  0  0
 35 45  1  0  0  0
 35 68  1  0  0  0
 36 56  1  0  0  0
 36107  1  0  0  0
 37 39  1  0  0  0
 37 47  1  0  0  0
 37 66  1  0  0  0
 37108  1  0  0  0
 38 43  2  0  0  0
 38 46  1  0  0  0
 38 47  1  0  0  0
 39 64  1  0  0  0
 39 67  2  0  0  0
 40 52  1  0  0  0
 40 53  2  0  0  0
 40 58  1  0  0  0
 41109  1  0  0  0
 41110  1  0  0  0
 41111  1  0  0  0
 41 48  1  0  0  0
 42 43  1  0  0  0
 42 66  1  0  0  0
 42112  1  0  0  0
 42113  1  0  0  0
 43 44  1  0  0  0
 44114  1  0  0  0
 45 46  2  0  0  0
 45115  1  0  0  0
 46116  1  0  0  0
 47117  1  0  0  0
 47118  1  0  0  0
 48 56  1  0  0  0
 48 65  1  0  0  0
 48119  1  0  0  0
 49 50  1  0  0  0
 49 53  1  0  0  0
 49 64  1  0  0  0
 49120  1  0  0  0
 50 51  1  0  0  0
 50121  1  0  0  0
 50122  1  0  0  0
 51 52  1  0  0  0
 51123  1  0  0  0
 51124  1  0  0  0
 52125  1  0  0  0
 52126  1  0  0  0
 53 54  1  0  0  0
 54 55  2  0  0  0
 54127  1  0  0  0
 55 57  1  0  0  0
 55128  1  0  0  0
 56 69  2  0  0  0
 57 58  2  0  0  0
 57129  1  0  0  0
 58130  1  0  0  0
 59 60  1  0  0  0
 59 61  1  0  0  0
 59 62  1  0  0  0
 60131  1  0  0  0
 60132  1  0  0  0
 60133  1  0  0  0
 61134  1  0  0  0
 61135  1  0  0  0
 61136  1  0  0  0
 62137  1  0  0  0
 62138  1  0  0  0
 62139  1  0  0  0
 63 65  1  0  0  0
 63140  1  0  0  0
 63141  1  0  0  0
 63142  1  0  0  0
 64143  1  0  0  0
 65144  1  0  0  0
 68 82  1  0  0  0
 71 72  2  0  0  0
 71 74  1  0  0  0
 71145  1  0  0  0
 72 75  1  0  0  0
 72146  1  0  0  0
 73 74  2  0  0  0
 73 76  1  0  0  0
 73147  1  0  0  0
 74 81  1  0  0  0
 75 76  2  0  0  0
 75 83  1  0  0  0
 76 85  1  0  0  0
 77 78  1  0  0  0
 77 79  1  0  0  0
 77148  1  0  0  0
 77149  1  0  0  0
 78 80  1  0  0  0
 78150  1  0  0  0
 78151  1  0  0  0
 79 84  1  0  0  0
 79152  1  0  0  0
 79153  1  0  0  0
 80 82  1  0  0  0
 80 84  1  0  0  0
 80154  1  0  0  0
 81155  1  0  0  0
 81156  1  0  0  0
 81 84  1  0  0  0
 82157  1  0  0  0
 82158  1  0  0  0
 83159  1  0  0  0
 84160  1  0  0  0
M  CHG  1  84   1
M  ISO  4   1 100  68 101  82 101  83 100
M  END
> <chiral flag>
0

> <version>
0

> <s_m_source_file>
/data/baiqing/PycharmProjects/Reinvent-master-3.2/result/LINK_invent/BTK/process_docking_weight1_custom_product_contain_oxygen_bond_distance_aromatic_linkinvent_7_9_3/rearranged_h_0014.sdf

> <i_m_source_file_index>
95

> <r_mmod_Potential_Energy-OPLS-2005>
22.1129570007324

> <r_mmod_Stretch_Energy-OPLS-2005>
80.3119430541992

> <r_mmod_Bend_Energy-OPLS-2005>
163.003128051758

> <r_mmod_Torsional_Energy-OPLS-2005>
288.649932861328

> <r_mmod_Improper_Torsional_Energy-OPLS-2005>
4.53385353088379

> <r_mmod_Van_der_Waal_Energy-OPLS-2005>
137.763717651367

> <r_mmod_Electrostatic_Energy-OPLS-2005>
-263.133239746094

> <r_mmod_Solvation_Energy-OPLS-2005>
-433.199249267578

> <b_mmod_Minimization_Converged-OPLS-2005>
0

> <r_mmod_RMS_Derivative-OPLS-2005>
1.13686311244965

$$$$
97
                    3D
 Structure written by MMmdl.
151159  0  0  1  0            999 V2000
  -30.5900  -14.6594   20.5191 C   0  0  0  0  0  0
  -30.4486  -12.4094   19.4505 C   0  0  0  0  0  0
  -29.5109  -12.5185   18.2256 C   0  0  0  0  0  0
  -28.0339  -12.3487   18.6373 C   0  0  0  0  0  0
  -27.6571  -13.2120   19.8700 C   0  0  2  0  0  0
  -28.7013  -13.0445   20.9970 C   0  0  0  0  0  0
  -25.2578  -13.8158   20.5689 C   0  0  0  0  0  0
  -24.1834  -13.0433   20.9183 C   0  0  0  0  0  0
  -24.6395  -11.6901   20.8735 C   0  0  0  0  0  0
  -23.9060  -10.4288   21.0405 C   0  0  0  0  0  0
  -24.3612   -9.4205   21.9184 C   0  0  0  0  0  0
  -23.6288   -8.2241   22.0754 C   0  0  0  0  0  0
  -22.4271   -8.0279   21.3544 C   0  0  0  0  0  0
  -21.9904   -9.0253   20.4646 C   0  0  0  0  0  0
  -22.7233  -10.2132   20.3055 C   0  0  0  0  0  0
  -21.6851   -6.0733   22.5279 C   0  0  0  0  0  0
  -21.4012   -6.5638   23.8212 C   0  0  0  0  0  0
  -21.3659   -5.6792   24.9175 C   0  0  0  0  0  0
  -21.6045   -4.3055   24.7225 C   0  0  0  0  0  0
  -21.8819   -3.8145   23.4347 C   0  0  0  0  0  0
  -21.9192   -4.6961   22.3402 C   0  0  0  0  0  0
  -22.7857  -13.5232   21.1848 C   0  0  0  0  0  0
  -22.1661   -4.2147   21.0979 F   0  0  0  0  0  0
  -21.5630   -3.4538   25.7739 F   0  0  0  0  0  0
  -30.0165  -13.4139   20.4439 N   0  0  0  0  0  0
  -26.3006  -12.9329   20.3342 N   0  0  0  0  0  0
  -25.9324  -11.6488   20.5760 N   0  0  0  0  0  0
  -22.0497  -12.8226   22.0406 N   0  0  0  0  0  0
  -25.4311  -15.1879   20.4112 N   0  0  0  0  0  0
  -31.7227  -14.8752   20.0754 O   0  0  0  0  0  0
  -21.6637   -6.8875   21.4240 O   0  0  0  0  0  0
  -22.3545  -14.5542   20.6702 O   0  0  0  0  0  0
  -24.6258  -31.8576   23.1999 C   0  0  0  0  0  0
  -25.9102  -32.4767   23.8334 C   0  0  1  0  0  0
  -27.2353  -27.3124   20.1129 C   0  0  0  0  0  0
  -25.5913  -33.8568   24.2262 N   0  0  0  0  0  0
  -23.4199  -30.4789   21.5424 C   0  0  2  0  0  0
  -24.8670  -28.9269   20.1115 C   0  0  0  0  0  0
  -22.7471  -29.4609   22.4935 C   0  0  0  0  0  0
  -18.0281  -28.1382   22.8489 C   0  0  0  0  0  0
  -24.1488  -36.7291   23.2642 C   0  0  0  0  0  0
  -25.9598  -30.7858   21.3706 C   0  0  0  0  0  0
  -26.0333  -29.4111   20.7144 C   0  0  0  0  0  0
  -27.2147  -28.6139   20.7059 C   0  0  0  0  0  0
  -26.0394  -26.8707   19.5021 C   0  0  0  0  0  0
  -24.8718  -27.6622   19.4994 C   0  0  0  0  0  0
  -23.6347  -29.8083   20.1589 C   0  0  0  0  0  0
  -25.4114  -36.3078   24.0330 C   0  0  1  0  0  0
  -20.5883  -28.3682   23.1289 C   0  0  2  0  0  0
  -20.6771  -26.9406   22.5413 C   0  0  0  0  0  0
  -19.5748  -26.6382   21.5214 C   0  0  0  0  0  0
  -18.1927  -26.7926   22.1625 C   0  0  0  0  0  0
  -19.1535  -28.8849   23.2884 C   0  0  0  0  0  0
  -18.9460  -30.1454   23.8897 C   0  0  0  0  0  0
  -17.6461  -30.6585   24.0565 C   0  0  0  0  0  0
  -25.9049  -34.9447   23.5099 C   0  0  0  0  0  0
  -16.5351  -29.9085   23.6331 C   0  0  0  0  0  0
  -16.7269  -28.6504   23.0349 C   0  0  0  0  0  0
  -26.4489  -31.6586   25.0711 C   0  0  0  0  0  0
  -25.3727  -31.3727   26.1442 C   0  0  0  0  0  0
  -27.0334  -30.3011   24.6169 C   0  0  0  0  0  0
  -27.6046  -32.4328   25.7482 C   0  0  0  0  0  0
  -27.5578  -37.1801   24.8467 C   0  0  0  0  0  0
  -21.4185  -29.3034   22.3684 N   0  0  0  0  0  0
  -26.4290  -37.3773   23.9409 N   0  0  0  0  0  0
  -24.6872  -31.0583   22.0946 N   0  0  0  0  0  0
  -23.4194  -28.8157   23.3022 O   0  0  0  0  0  0
  -28.3930  -26.5183   20.1718 O   0  0  0  0  0  0
  -26.5626  -34.8920   22.4671 O   0  0  0  0  0  0
  -23.5421  -32.1374   23.7328 O   0  0  0  0  0  0
  -30.2049  -17.9631   19.9330 C   0  0  0  0  0  0
  -28.9822  -17.7649   21.9869 C   0  0  0  0  0  0
  -29.7160  -17.1096   20.9682 C   0  0  0  0  0  0
  -29.2027  -20.0248   20.9581 C   0  0  0  0  0  0
  -29.9491  -19.3821   19.9207 C   0  0  0  0  0  0
  -28.7460  -19.1655   21.9898 C   0  0  0  0  0  0
  -28.5240  -23.8900   20.6182 C   0  0  0  0  0  0
  -28.5070  -25.1415   19.6272 C   0  0  0  0  0  0
  -29.0057  -22.4494   20.0934 C   0  0  0  0  0  0
  -29.7816  -15.6410   21.0337 N   0  0  0  0  0  0
  -28.8794  -21.3991   21.1059 O   0  0  0  0  0  0
  -30.4336  -20.1212   18.8929 F   0  0  0  0  0  0
  -28.0386  -19.6967   23.0176 F   0  0  0  0  0  0
  -31.4865  -12.5561   19.1459 H   0  0  0  0  0  0
  -30.4034  -11.4083   19.8821 H   0  0  0  0  0  0
  -29.7782  -11.7697   17.4787 H   0  0  0  0  0  0
  -29.6460  -13.4892   17.7458 H   0  0  0  0  0  0
  -27.8739  -11.2942   18.8645 H   0  0  0  0  0  0
  -27.3775  -12.5809   17.7978 H   0  0  0  0  0  0
  -27.6815  -14.2511   19.5410 H   0  0  0  0  0  0
  -28.7204  -12.0114   21.3474 H   0  0  0  0  0  0
  -28.4348  -13.6409   21.8705 H   0  0  0  0  0  0
  -25.2758   -9.5681   22.4757 H   0  0  0  0  0  0
  -23.9998   -7.4631   22.7472 H   0  0  0  0  0  0
  -21.0835   -8.8770   19.8953 H   0  0  0  0  0  0
  -22.3692  -10.9669   19.6162 H   0  0  0  0  0  0
  -21.2003   -7.6147   23.9714 H   0  0  0  0  0  0
  -21.1482   -6.0523   25.9077 H   0  0  0  0  0  0
  -22.0599   -2.7607   23.2848 H   0  0  0  0  0  0
  -22.4106  -11.9881   22.4788 H   0  0  0  0  0  0
  -21.1118  -13.1258   22.2616 H   0  0  0  0  0  0
  -24.6655  -15.8442   20.5190 H   0  0  0  0  0  0
  -26.2831  -15.6252   20.0836 H   0  0  0  0  0  0
  -26.7168  -32.5429   23.1079 H   0  0  0  0  0  0
  -25.0052  -33.9709   25.0400 H   0  0  0  0  0  0
  -22.7141  -31.2995   21.3968 H   0  0  0  0  0  0
  -23.3747  -35.9628   23.3311 H   0  0  0  0  0  0
  -24.3576  -36.8900   22.2055 H   0  0  0  0  0  0
  -23.7247  -37.6497   23.6659 H   0  0  0  0  0  0
  -26.0917  -31.5483   20.6015 H   0  0  0  0  0  0
  -26.8400  -30.8353   22.0001 H   0  0  0  0  0  0
  -28.1119  -28.9845   21.1819 H   0  0  0  0  0  0
  -25.9680  -25.8998   19.0385 H   0  0  0  0  0  0
  -23.9739  -27.2815   19.0325 H   0  0  0  0  0  0
  -23.7535  -30.5822   19.3996 H   0  0  0  0  0  0
  -22.7546  -29.2366   19.8590 H   0  0  0  0  0  0
  -25.1296  -36.1927   25.0824 H   0  0  0  0  0  0
  -20.9975  -28.3252   24.1410 H   0  0  0  0  0  0
  -20.5670  -26.2290   23.3609 H   0  0  0  0  0  0
  -21.6640  -26.7433   22.1208 H   0  0  0  0  0  0
  -19.6913  -25.6295   21.1237 H   0  0  0  0  0  0
  -19.6689  -27.3200   20.6751 H   0  0  0  0  0  0
  -17.4198  -26.6672   21.4025 H   0  0  0  0  0  0
  -18.0326  -26.0066   22.9020 H   0  0  0  0  0  0
  -19.7938  -30.7272   24.2262 H   0  0  0  0  0  0
  -17.5016  -31.6266   24.5166 H   0  0  0  0  0  0
  -15.5353  -30.2990   23.7656 H   0  0  0  0  0  0
  -15.8667  -28.0827   22.7062 H   0  0  0  0  0  0
  -24.5893  -30.7088   25.7770 H   0  0  0  0  0  0
  -24.8934  -32.2897   26.4880 H   0  0  0  0  0  0
  -25.8052  -30.8890   27.0210 H   0  0  0  0  0  0
  -26.2906  -29.6758   24.1200 H   0  0  0  0  0  0
  -27.4040  -29.7269   25.4671 H   0  0  0  0  0  0
  -27.8771  -30.4296   23.9385 H   0  0  0  0  0  0
  -27.2651  -33.3629   26.2053 H   0  0  0  0  0  0
  -28.3859  -32.6886   25.0313 H   0  0  0  0  0  0
  -28.0713  -31.8461   26.5403 H   0  0  0  0  0  0
  -28.2598  -38.0095   24.7504 H   0  0  0  0  0  0
  -28.1069  -36.2624   24.6300 H   0  0  0  0  0  0
  -27.2296  -37.1459   25.8870 H   0  0  0  0  0  0
  -20.9361  -29.8754   21.6892 H   0  0  0  0  0  0
  -26.0170  -38.2849   24.1403 H   0  0  0  0  0  0
  -30.7584  -17.5336   19.1109 H   0  0  0  0  0  0
  -28.5697  -17.1858   22.8003 H   0  0  0  0  0  0
  -27.5209  -23.7830   21.0310 H   0  0  0  0  0  0
  -29.1570  -24.1514   21.4663 H   0  0  0  0  0  0
  -27.8071  -24.9582   18.8152 H   0  0  0  0  0  0
  -29.4759  -25.1387   19.1278 H   0  0  0  0  0  0
  -30.0456  -22.5116   19.7713 H   0  0  0  0  0  0
  -28.4200  -22.1632   19.2194 H   0  0  0  0  0  0
  -28.9938  -15.2292   21.5111 H   0  0  0  0  0  0
  1 25  1  0  0  0
  1 30  2  0  0  0
  1 80  1  0  0  0
  2  3  1  0  0  0
  2 25  1  0  0  0
  2 84  1  0  0  0
  2 85  1  0  0  0
  3  4  1  0  0  0
  3 86  1  0  0  0
  3 87  1  0  0  0
  4  5  1  0  0  0
  4 88  1  0  0  0
  4 89  1  0  0  0
  5  6  1  0  0  0
  5 26  1  0  0  0
  5 90  1  0  0  0
  6 25  1  0  0  0
  6 91  1  0  0  0
  6 92  1  0  0  0
  7  8  2  0  0  0
  7 26  1  0  0  0
  7 29  1  0  0  0
  8  9  1  0  0  0
  8 22  1  0  0  0
  9 10  1  0  0  0
  9 27  2  0  0  0
 10 11  2  0  0  0
 10 15  1  0  0  0
 11 12  1  0  0  0
 11 93  1  0  0  0
 12 13  2  0  0  0
 12 94  1  0  0  0
 13 14  1  0  0  0
 13 31  1  0  0  0
 14 15  2  0  0  0
 14 95  1  0  0  0
 15 96  1  0  0  0
 16 17  2  0  0  0
 16 21  1  0  0  0
 16 31  1  0  0  0
 17 18  1  0  0  0
 17 97  1  0  0  0
 18 19  2  0  0  0
 18 98  1  0  0  0
 19 20  1  0  0  0
 19 24  1  0  0  0
 20 21  2  0  0  0
 20 99  1  0  0  0
 21 23  1  0  0  0
 22 28  1  0  0  0
 22 32  2  0  0  0
 26 27  1  0  0  0
 28100  1  0  0  0
 28101  1  0  0  0
 29102  1  0  0  0
 29103  1  0  0  0
 33 34  1  0  0  0
 33 66  1  0  0  0
 33 70  2  0  0  0
 34 36  1  0  0  0
 34 59  1  0  0  0
 34104  1  0  0  0
 35 44  2  0  0  0
 35 45  1  0  0  0
 35 68  1  0  0  0
 36 56  1  0  0  0
 36105  1  0  0  0
 37 39  1  0  0  0
 37 47  1  0  0  0
 37 66  1  0  0  0
 37106  1  0  0  0
 38 43  2  0  0  0
 38 46  1  0  0  0
 38 47  1  0  0  0
 39 64  1  0  0  0
 39 67  2  0  0  0
 40 52  1  0  0  0
 40 53  2  0  0  0
 40 58  1  0  0  0
 41107  1  0  0  0
 41108  1  0  0  0
 41109  1  0  0  0
 41 48  1  0  0  0
 42 43  1  0  0  0
 42 66  1  0  0  0
 42110  1  0  0  0
 42111  1  0  0  0
 43 44  1  0  0  0
 44112  1  0  0  0
 45 46  2  0  0  0
 45113  1  0  0  0
 46114  1  0  0  0
 47115  1  0  0  0
 47116  1  0  0  0
 48 56  1  0  0  0
 48 65  1  0  0  0
 48117  1  0  0  0
 49 50  1  0  0  0
 49 53  1  0  0  0
 49 64  1  0  0  0
 49118  1  0  0  0
 50 51  1  0  0  0
 50119  1  0  0  0
 50120  1  0  0  0
 51 52  1  0  0  0
 51121  1  0  0  0
 51122  1  0  0  0
 52123  1  0  0  0
 52124  1  0  0  0
 53 54  1  0  0  0
 54 55  2  0  0  0
 54125  1  0  0  0
 55 57  1  0  0  0
 55126  1  0  0  0
 56 69  2  0  0  0
 57 58  2  0  0  0
 57127  1  0  0  0
 58128  1  0  0  0
 59 60  1  0  0  0
 59 61  1  0  0  0
 59 62  1  0  0  0
 60129  1  0  0  0
 60130  1  0  0  0
 60131  1  0  0  0
 61132  1  0  0  0
 61133  1  0  0  0
 61134  1  0  0  0
 62135  1  0  0  0
 62136  1  0  0  0
 62137  1  0  0  0
 63 65  1  0  0  0
 63138  1  0  0  0
 63139  1  0  0  0
 63140  1  0  0  0
 64141  1  0  0  0
 65142  1  0  0  0
 68 78  1  0  0  0
 71 73  2  0  0  0
 71 75  1  0  0  0
 71143  1  0  0  0
 72 73  1  0  0  0
 72 76  2  0  0  0
 72144  1  0  0  0
 73 80  1  0  0  0
 74 75  2  0  0  0
 74 76  1  0  0  0
 74 81  1  0  0  0
 75 82  1  0  0  0
 76 83  1  0  0  0
 77 78  1  0  0  0
 77 79  1  0  0  0
 77145  1  0  0  0
 77146  1  0  0  0
 78147  1  0  0  0
 78148  1  0  0  0
 79 81  1  0  0  0
 79149  1  0  0  0
 79150  1  0  0  0
 80151  1  0  0  0
M  ISO  4   1 100  68 101  78 101  80 100
M  END
> <chiral flag>
0

> <version>
0

> <s_m_source_file>
/data/baiqing/PycharmProjects/Reinvent-master-3.2/result/LINK_invent/BTK/process_docking_weight1_custom_product_contain_oxygen_bond_distance_aromatic_linkinvent_7_9_3/rearranged_h_0014.sdf

> <i_m_source_file_index>
96

> <r_mmod_Potential_Energy-OPLS-2005>
131.99348449707

> <r_mmod_Stretch_Energy-OPLS-2005>
86.260368347168

> <r_mmod_Bend_Energy-OPLS-2005>
186.080505371094

> <r_mmod_Torsional_Energy-OPLS-2005>
208.843765258789

> <r_mmod_Improper_Torsional_Energy-OPLS-2005>
3.13950490951538

> <r_mmod_Van_der_Waal_Energy-OPLS-2005>
136.903945922852

> <r_mmod_Electrostatic_Energy-OPLS-2005>
-328.921142578125

> <r_mmod_Solvation_Energy-OPLS-2005>
-211.335021972656

> <b_mmod_Minimization_Converged-OPLS-2005>
0

> <r_mmod_RMS_Derivative-OPLS-2005>
0.333857923746109

$$$$
98
                    3D
 Structure written by MMmdl.
159167  0  0  1  0            999 V2000
  -30.6691  -14.7168   20.3370 C   0  0  0  0  0  0
  -30.4242  -12.4268   19.4284 C   0  0  0  0  0  0
  -29.4759  -12.4382   18.2072 C   0  0  0  0  0  0
  -28.0207  -12.2669   18.6624 C   0  0  0  0  0  0
  -27.6375  -13.2196   19.8272 C   0  0  2  0  0  0
  -28.7027  -13.2189   20.9443 C   0  0  0  0  0  0
  -25.2571  -13.8180   20.5716 C   0  0  0  0  0  0
  -24.1839  -13.0431   20.9222 C   0  0  0  0  0  0
  -24.6408  -11.6907   20.8772 C   0  0  0  0  0  0
  -23.9082  -10.4285   21.0413 C   0  0  0  0  0  0
  -24.3626   -9.4192   21.9180 C   0  0  0  0  0  0
  -23.6279   -8.2232   22.0749 C   0  0  0  0  0  0
  -22.4256   -8.0286   21.3547 C   0  0  0  0  0  0
  -21.9913   -9.0267   20.4644 C   0  0  0  0  0  0
  -22.7260  -10.2140   20.3061 C   0  0  0  0  0  0
  -21.6844   -6.0741   22.5269 C   0  0  0  0  0  0
  -21.4022   -6.5633   23.8213 C   0  0  0  0  0  0
  -21.3664   -5.6781   24.9169 C   0  0  0  0  0  0
  -21.6053   -4.3040   24.7217 C   0  0  0  0  0  0
  -21.8820   -3.8141   23.4330 C   0  0  0  0  0  0
  -21.9191   -4.6963   22.3391 C   0  0  0  0  0  0
  -22.7859  -13.5236   21.1834 C   0  0  0  0  0  0
  -22.1654   -4.2157   21.0963 F   0  0  0  0  0  0
  -21.5623   -3.4521   25.7723 F   0  0  0  0  0  0
  -29.9892  -13.5248   20.3083 N   0  0  0  0  0  0
  -26.2966  -12.9357   20.3286 N   0  0  0  0  0  0
  -25.9342  -11.6516   20.5808 N   0  0  0  0  0  0
  -22.0463  -12.8258   22.0378 N   0  0  0  0  0  0
  -25.4306  -15.1884   20.4123 N   0  0  0  0  0  0
  -31.8986  -14.7058   20.4273 O   0  0  0  0  0  0
  -21.6616   -6.8883   21.4241 O   0  0  0  0  0  0
  -22.3544  -14.5518   20.6632 O   0  0  0  0  0  0
  -24.6239  -31.8601   23.2000 C   0  0  0  0  0  0
  -25.9071  -32.4804   23.8342 C   0  0  1  0  0  0
  -27.2207  -27.3168   20.1332 C   0  0  0  0  0  0
  -25.5891  -33.8604   24.2278 N   0  0  0  0  0  0
  -23.4193  -30.4801   21.5437 C   0  0  2  0  0  0
  -24.8647  -28.9273   20.1164 C   0  0  0  0  0  0
  -22.7474  -29.4606   22.4945 C   0  0  0  0  0  0
  -18.0278  -28.1378   22.8494 C   0  0  0  0  0  0
  -24.1477  -36.7299   23.2648 C   0  0  0  0  0  0
  -25.9564  -30.7938   21.3653 C   0  0  0  0  0  0
  -26.0329  -29.4165   20.7155 C   0  0  0  0  0  0
  -27.2182  -28.6252   20.7052 C   0  0  0  0  0  0
  -26.0345  -26.8693   19.5179 C   0  0  0  0  0  0
  -24.8684  -27.6602   19.5068 C   0  0  0  0  0  0
  -23.6339  -29.8109   20.1605 C   0  0  0  0  0  0
  -25.4107  -36.3109   24.0343 C   0  0  1  0  0  0
  -20.5876  -28.3661   23.1298 C   0  0  2  0  0  0
  -20.6765  -26.9390   22.5413 C   0  0  0  0  0  0
  -19.5743  -26.6371   21.5215 C   0  0  0  0  0  0
  -18.1916  -26.7923   22.1622 C   0  0  0  0  0  0
  -19.1531  -28.8840   23.2888 C   0  0  0  0  0  0
  -18.9461  -30.1443   23.8902 C   0  0  0  0  0  0
  -17.6463  -30.6583   24.0562 C   0  0  0  0  0  0
  -25.9042  -34.9480   23.5115 C   0  0  0  0  0  0
  -16.5351  -29.9081   23.6333 C   0  0  0  0  0  0
  -16.7266  -28.6498   23.0356 C   0  0  0  0  0  0
  -26.4460  -31.6625   25.0714 C   0  0  0  0  0  0
  -25.3706  -31.3776   26.1462 C   0  0  0  0  0  0
  -27.0309  -30.3075   24.6116 C   0  0  0  0  0  0
  -27.6017  -32.4364   25.7490 C   0  0  0  0  0  0
  -27.5579  -37.1808   24.8467 C   0  0  0  0  0  0
  -21.4182  -29.3024   22.3707 N   0  0  0  0  0  0
  -26.4289  -37.3801   23.9418 N   0  0  0  0  0  0
  -24.6863  -31.0613   22.0950 N   0  0  0  0  0  0
  -23.4219  -28.8150   23.3013 O   0  0  0  0  0  0
  -28.3468  -26.4915   20.1267 O   0  0  0  0  0  0
  -26.5607  -34.8944   22.4681 O   0  0  0  0  0  0
  -23.5393  -32.1374   23.7331 O   0  0  0  0  0  0
  -28.6359  -18.8316   21.3055 C   0  0  0  0  0  0
  -29.0904  -17.4887   21.0763 C   0  0  0  0  0  0
  -29.8752  -18.1819   18.9242 C   0  0  0  0  0  0
  -28.7885  -19.8830   20.3516 C   0  0  0  0  0  0
  -29.7286  -17.1047   19.8641 C   0  0  0  0  0  0
  -29.4267  -19.5129   19.1503 C   0  0  0  0  0  0
  -30.7269  -15.6144   18.1541 C   0  0  0  0  0  0
  -30.2596  -22.7118   20.8385 C   0  0  0  0  0  0
  -28.1845  -21.3320   20.5563 C   0  0  0  0  0  0
  -28.2822  -23.8566   19.7166 C   0  0  0  0  0  0
  -28.2590  -25.1225   20.6960 C   0  0  0  0  0  0
  -30.1526  -15.7169   19.5182 N   0  0  0  0  0  0
  -28.9905  -22.5401   20.0960 N   0  3  1  0  0  0
  -29.5962  -20.4496   18.1840 F   0  0  0  0  0  0
  -31.4625  -12.5432   19.1123 H   0  0  0  0  0  0
  -30.3699  -11.4730   19.9540 H   0  0  0  0  0  0
  -29.7566  -11.6535   17.5055 H   0  0  0  0  0  0
  -29.5296  -13.3668   17.6445 H   0  0  0  0  0  0
  -27.9120  -11.2288   18.9809 H   0  0  0  0  0  0
  -27.3444  -12.4031   17.8181 H   0  0  0  0  0  0
  -27.6165  -14.2234   19.4010 H   0  0  0  0  0  0
  -28.7447  -12.2555   21.4544 H   0  0  0  0  0  0
  -28.4661  -13.9709   21.6996 H   0  0  0  0  0  0
  -25.2793   -9.5634   22.4754 H   0  0  0  0  0  0
  -23.9983   -7.4616   22.7478 H   0  0  0  0  0  0
  -21.0839   -8.8806   19.8943 H   0  0  0  0  0  0
  -22.3741  -10.9685   19.6154 H   0  0  0  0  0  0
  -21.2022   -7.6143   23.9729 H   0  0  0  0  0  0
  -21.1480   -6.0494   25.9080 H   0  0  0  0  0  0
  -22.0598   -2.7608   23.2811 H   0  0  0  0  0  0
  -22.4051  -11.9953   22.4861 H   0  0  0  0  0  0
  -21.1060  -13.1311   22.2504 H   0  0  0  0  0  0
  -24.6696  -15.8450   20.5416 H   0  0  0  0  0  0
  -26.2894  -15.6297   20.1052 H   0  0  0  0  0  0
  -26.7140  -32.5477   23.1094 H   0  0  0  0  0  0
  -25.0083  -33.9756   25.0451 H   0  0  0  0  0  0
  -22.7119  -31.2995   21.3998 H   0  0  0  0  0  0
  -23.3754  -35.9618   23.3326 H   0  0  0  0  0  0
  -24.3560  -36.8891   22.2056 H   0  0  0  0  0  0
  -23.7206  -37.6504   23.6643 H   0  0  0  0  0  0
  -26.0713  -31.5534   20.5895 H   0  0  0  0  0  0
  -26.8442  -30.8564   21.9836 H   0  0  0  0  0  0
  -28.1207  -29.0037   21.1642 H   0  0  0  0  0  0
  -26.0060  -25.8978   19.0467 H   0  0  0  0  0  0
  -23.9739  -27.2837   19.0302 H   0  0  0  0  0  0
  -23.7551  -30.5872   19.4042 H   0  0  0  0  0  0
  -22.7535  -29.2422   19.8554 H   0  0  0  0  0  0
  -25.1282  -36.1985   25.0836 H   0  0  0  0  0  0
  -20.9950  -28.3217   24.1427 H   0  0  0  0  0  0
  -20.5646  -26.2270   23.3604 H   0  0  0  0  0  0
  -21.6634  -26.7415   22.1217 H   0  0  0  0  0  0
  -19.6899  -25.6283   21.1235 H   0  0  0  0  0  0
  -19.6682  -27.3192   20.6760 H   0  0  0  0  0  0
  -17.4185  -26.6667   21.4021 H   0  0  0  0  0  0
  -18.0315  -26.0061   22.9017 H   0  0  0  0  0  0
  -19.7938  -30.7253   24.2265 H   0  0  0  0  0  0
  -17.5023  -31.6271   24.5154 H   0  0  0  0  0  0
  -15.5348  -30.2989   23.7664 H   0  0  0  0  0  0
  -15.8664  -28.0825   22.7070 H   0  0  0  0  0  0
  -24.5842  -30.7155   25.7822 H   0  0  0  0  0  0
  -24.8930  -32.2953   26.4913 H   0  0  0  0  0  0
  -25.8029  -30.8952   27.0236 H   0  0  0  0  0  0
  -26.2877  -29.6852   24.1116 H   0  0  0  0  0  0
  -27.4040  -29.7295   25.4578 H   0  0  0  0  0  0
  -27.8719  -30.4427   23.9311 H   0  0  0  0  0  0
  -27.2611  -33.3647   26.2095 H   0  0  0  0  0  0
  -28.3813  -32.6965   25.0319 H   0  0  0  0  0  0
  -28.0704  -31.8485   26.5389 H   0  0  0  0  0  0
  -28.2613  -38.0097   24.7537 H   0  0  0  0  0  0
  -28.1058  -36.2630   24.6267 H   0  0  0  0  0  0
  -27.2296  -37.1436   25.8871 H   0  0  0  0  0  0
  -20.9345  -29.8793   21.6969 H   0  0  0  0  0  0
  -26.0183  -38.2881   24.1426 H   0  0  0  0  0  0
  -28.1270  -19.0416   22.2351 H   0  0  0  0  0  0
  -28.9152  -16.7448   21.8403 H   0  0  0  0  0  0
  -30.3292  -18.0325   17.9577 H   0  0  0  0  0  0
  -31.1871  -14.6551   17.9162 H   0  0  0  0  0  0
  -31.5464  -16.3218   18.0221 H   0  0  0  0  0  0
  -29.9674  -15.8031   17.3948 H   0  0  0  0  0  0
  -30.8474  -23.5307   20.4233 H   0  0  0  0  0  0
  -30.8700  -21.8099   20.7683 H   0  0  0  0  0  0
  -30.0843  -22.9174   21.8951 H   0  0  0  0  0  0
  -27.9472  -21.4578   21.6131 H   0  0  0  0  0  0
  -27.2250  -21.3395   20.0380 H   0  0  0  0  0  0
  -28.8083  -24.1898   18.8215 H   0  0  0  0  0  0
  -27.2699  -23.6477   19.3693 H   0  0  0  0  0  0
  -29.1106  -25.0666   21.3720 H   0  0  0  0  0  0
  -27.3897  -25.0496   21.3521 H   0  0  0  0  0  0
  -29.2954  -22.2109   19.1884 H   0  0  0  0  0  0
  1 25  1  0  0  0
  1 30  2  0  0  0
  1 82  1  0  0  0
  2  3  1  0  0  0
  2 25  1  0  0  0
  2 85  1  0  0  0
  2 86  1  0  0  0
  3  4  1  0  0  0
  3 87  1  0  0  0
  3 88  1  0  0  0
  4  5  1  0  0  0
  4 89  1  0  0  0
  4 90  1  0  0  0
  5  6  1  0  0  0
  5 26  1  0  0  0
  5 91  1  0  0  0
  6 25  1  0  0  0
  6 92  1  0  0  0
  6 93  1  0  0  0
  7  8  2  0  0  0
  7 26  1  0  0  0
  7 29  1  0  0  0
  8  9  1  0  0  0
  8 22  1  0  0  0
  9 10  1  0  0  0
  9 27  2  0  0  0
 10 11  2  0  0  0
 10 15  1  0  0  0
 11 12  1  0  0  0
 11 94  1  0  0  0
 12 13  2  0  0  0
 12 95  1  0  0  0
 13 14  1  0  0  0
 13 31  1  0  0  0
 14 15  2  0  0  0
 14 96  1  0  0  0
 15 97  1  0  0  0
 16 17  2  0  0  0
 16 21  1  0  0  0
 16 31  1  0  0  0
 17 18  1  0  0  0
 17 98  1  0  0  0
 18 19  2  0  0  0
 18 99  1  0  0  0
 19 20  1  0  0  0
 19 24  1  0  0  0
 20 21  2  0  0  0
 20100  1  0  0  0
 21 23  1  0  0  0
 22 28  1  0  0  0
 22 32  2  0  0  0
 26 27  1  0  0  0
 28101  1  0  0  0
 28102  1  0  0  0
 29103  1  0  0  0
 29104  1  0  0  0
 33 34  1  0  0  0
 33 66  1  0  0  0
 33 70  2  0  0  0
 34 36  1  0  0  0
 34 59  1  0  0  0
 34105  1  0  0  0
 35 44  2  0  0  0
 35 45  1  0  0  0
 35 68  1  0  0  0
 36 56  1  0  0  0
 36106  1  0  0  0
 37 39  1  0  0  0
 37 47  1  0  0  0
 37 66  1  0  0  0
 37107  1  0  0  0
 38 43  2  0  0  0
 38 46  1  0  0  0
 38 47  1  0  0  0
 39 64  1  0  0  0
 39 67  2  0  0  0
 40 52  1  0  0  0
 40 53  2  0  0  0
 40 58  1  0  0  0
 41108  1  0  0  0
 41109  1  0  0  0
 41110  1  0  0  0
 41 48  1  0  0  0
 42 43  1  0  0  0
 42 66  1  0  0  0
 42111  1  0  0  0
 42112  1  0  0  0
 43 44  1  0  0  0
 44113  1  0  0  0
 45 46  2  0  0  0
 45114  1  0  0  0
 46115  1  0  0  0
 47116  1  0  0  0
 47117  1  0  0  0
 48 56  1  0  0  0
 48 65  1  0  0  0
 48118  1  0  0  0
 49 50  1  0  0  0
 49 53  1  0  0  0
 49 64  1  0  0  0
 49119  1  0  0  0
 50 51  1  0  0  0
 50120  1  0  0  0
 50121  1  0  0  0
 51 52  1  0  0  0
 51122  1  0  0  0
 51123  1  0  0  0
 52124  1  0  0  0
 52125  1  0  0  0
 53 54  1  0  0  0
 54 55  2  0  0  0
 54126  1  0  0  0
 55 57  1  0  0  0
 55127  1  0  0  0
 56 69  2  0  0  0
 57 58  2  0  0  0
 57128  1  0  0  0
 58129  1  0  0  0
 59 60  1  0  0  0
 59 61  1  0  0  0
 59 62  1  0  0  0
 60130  1  0  0  0
 60131  1  0  0  0
 60132  1  0  0  0
 61133  1  0  0  0
 61134  1  0  0  0
 61135  1  0  0  0
 62136  1  0  0  0
 62137  1  0  0  0
 62138  1  0  0  0
 63 65  1  0  0  0
 63139  1  0  0  0
 63140  1  0  0  0
 63141  1  0  0  0
 64142  1  0  0  0
 65143  1  0  0  0
 68 81  1  0  0  0
 71 72  2  0  0  0
 71 74  1  0  0  0
 71144  1  0  0  0
 72 75  1  0  0  0
 72145  1  0  0  0
 73 75  2  0  0  0
 73 76  1  0  0  0
 73146  1  0  0  0
 74 76  2  0  0  0
 74 79  1  0  0  0
 75 82  1  0  0  0
 76 84  1  0  0  0
 77 82  1  0  0  0
 77147  1  0  0  0
 77148  1  0  0  0
 77149  1  0  0  0
 78150  1  0  0  0
 78151  1  0  0  0
 78152  1  0  0  0
 78 83  1  0  0  0
 79 83  1  0  0  0
 79153  1  0  0  0
 79154  1  0  0  0
 80 81  1  0  0  0
 80 83  1  0  0  0
 80155  1  0  0  0
 80156  1  0  0  0
 81157  1  0  0  0
 81158  1  0  0  0
 83159  1  0  0  0
M  CHG  1  83   1
M  ISO  4   1 100  68 101  81 101  82 100
M  END
> <chiral flag>
0

> <version>
0

> <s_m_source_file>
/data/baiqing/PycharmProjects/Reinvent-master-3.2/result/LINK_invent/BTK/process_docking_weight1_custom_product_contain_oxygen_bond_distance_aromatic_linkinvent_7_9_3/rearranged_h_0014.sdf

> <i_m_source_file_index>
97

> <r_mmod_Potential_Energy-OPLS-2005>
259.736389160156

> <r_mmod_Stretch_Energy-OPLS-2005>
97.1202163696289

> <r_mmod_Bend_Energy-OPLS-2005>
179.468078613281

> <r_mmod_Torsional_Energy-OPLS-2005>
322.710754394531

> <r_mmod_Improper_Torsional_Energy-OPLS-2005>
33.9877395629883

> <r_mmod_Van_der_Waal_Energy-OPLS-2005>
150.960494995117

> <r_mmod_Electrostatic_Energy-OPLS-2005>
-199.73274230957

> <r_mmod_Solvation_Energy-OPLS-2005>
-414.234558105469

> <b_mmod_Minimization_Converged-OPLS-2005>
0

> <r_mmod_RMS_Derivative-OPLS-2005>
3.27065205574036

$$$$
