0
                    3D
 Structure written by MMmdl.
159167  0  0  1  0            999 V2000
  -30.6630  -14.8251   20.3310 C   0  0  0  0  0  0
  -30.4355  -12.4821   19.4660 C   0  0  0  0  0  0
  -29.4861  -12.2845   18.2628 C   0  0  0  0  0  0
  -28.0119  -12.2355   18.6872 C   0  0  0  0  0  0
  -27.6263  -13.2306   19.8142 C   0  0  2  0  0  0
  -28.6930  -13.2987   20.9244 C   0  0  0  0  0  0
  -25.2495  -13.8229   20.5758 C   0  0  0  0  0  0
  -24.1781  -13.0475   20.9263 C   0  0  0  0  0  0
  -24.6367  -11.6954   20.8834 C   0  0  0  0  0  0
  -23.9058  -10.4313   21.0449 C   0  0  0  0  0  0
  -24.3613   -9.4213   21.9207 C   0  0  0  0  0  0
  -23.6294   -8.2243   22.0759 C   0  0  0  0  0  0
  -22.4280   -8.0283   21.3545 C   0  0  0  0  0  0
  -21.9919   -9.0262   20.4652 C   0  0  0  0  0  0
  -22.7241  -10.2149   20.3080 C   0  0  0  0  0  0
  -21.6856   -6.0736   22.5276 C   0  0  0  0  0  0
  -21.4016   -6.5641   23.8208 C   0  0  0  0  0  0
  -21.3659   -5.6795   24.9172 C   0  0  0  0  0  0
  -21.6044   -4.3057   24.7225 C   0  0  0  0  0  0
  -21.8819   -3.8148   23.4346 C   0  0  0  0  0  0
  -21.9193   -4.6963   22.3401 C   0  0  0  0  0  0
  -22.7797  -13.5247   21.1880 C   0  0  0  0  0  0
  -22.1660   -4.2148   21.0979 F   0  0  0  0  0  0
  -21.5628   -3.4540   25.7738 F   0  0  0  0  0  0
  -29.9585  -13.6369   20.2621 N   0  0  0  0  0  0
  -26.2906  -12.9441   20.3317 N   0  0  0  0  0  0
  -25.9302  -11.6599   20.5918 N   0  0  0  0  0  0
  -22.0438  -12.8234   22.0428 N   0  0  0  0  0  0
  -25.4215  -15.1938   20.4151 N   0  0  0  0  0  0
  -31.8909  -14.7462   20.3589 O   0  0  0  0  0  0
  -21.6645   -6.8880   21.4237 O   0  0  0  0  0  0
  -22.3483  -14.5541   20.6706 O   0  0  0  0  0  0
  -24.6310  -31.8553   23.1987 C   0  0  0  0  0  0
  -25.9136  -32.4758   23.8336 C   0  0  1  0  0  0
  -27.2185  -27.2724   20.1367 C   0  0  0  0  0  0
  -25.5932  -33.8562   24.2262 N   0  0  0  0  0  0
  -23.4294  -30.4774   21.5403 C   0  0  2  0  0  0
  -24.8816  -28.9301   20.1036 C   0  0  0  0  0  0
  -22.7511  -29.4598   22.4897 C   0  0  0  0  0  0
  -18.0293  -28.1387   22.8483 C   0  0  0  0  0  0
  -24.1490  -36.7285   23.2641 C   0  0  0  0  0  0
  -25.9746  -30.7729   21.3782 C   0  0  0  0  0  0
  -26.0518  -29.3971   20.7189 C   0  0  0  0  0  0
  -27.2277  -28.5785   20.7296 C   0  0  0  0  0  0
  -26.0354  -26.8741   19.4835 C   0  0  0  0  0  0
  -24.8785  -27.6767   19.4719 C   0  0  0  0  0  0
  -23.6492  -29.8132   20.1551 C   0  0  0  0  0  0
  -25.4115  -36.3072   24.0328 C   0  0  1  0  0  0
  -20.5900  -28.3700   23.1263 C   0  0  2  0  0  0
  -20.6781  -26.9415   22.5408 C   0  0  0  0  0  0
  -19.5755  -26.6381   21.5213 C   0  0  0  0  0  0
  -18.1935  -26.7928   22.1624 C   0  0  0  0  0  0
  -19.1548  -28.8860   23.2867 C   0  0  0  0  0  0
  -18.9469  -30.1459   23.8887 C   0  0  0  0  0  0
  -17.6468  -30.6587   24.0562 C   0  0  0  0  0  0
  -25.9054  -34.9441   23.5096 C   0  0  0  0  0  0
  -16.5359  -29.9083   23.6332 C   0  0  0  0  0  0
  -16.7280  -28.6501   23.0354 C   0  0  0  0  0  0
  -26.4504  -31.6580   25.0723 C   0  0  0  0  0  0
  -25.3724  -31.3729   26.1441 C   0  0  0  0  0  0
  -27.0353  -30.2995   24.6205 C   0  0  0  0  0  0
  -27.6054  -32.4323   25.7498 C   0  0  0  0  0  0
  -27.5576  -37.1800   24.8466 C   0  0  0  0  0  0
  -21.4216  -29.3046   22.3647 N   0  0  0  0  0  0
  -26.4290  -37.3770   23.9407 N   0  0  0  0  0  0
  -24.6970  -31.0528   22.0956 N   0  0  0  0  0  0
  -23.4209  -28.8140   23.2999 O   0  0  0  0  0  0
  -28.2287  -26.2932   20.2436 O   0  0  0  0  0  0
  -26.5627  -34.8915   22.4665 O   0  0  0  0  0  0
  -23.5459  -32.1367   23.7283 O   0  0  0  0  0  0
  -30.1921  -19.5930   21.1795 C   0  0  0  0  0  0
  -28.3724  -17.8021   20.0675 C   0  0  0  0  0  0
  -28.9443  -20.1442   20.7565 C   0  0  0  0  0  0
  -29.6412  -17.2539   20.4202 C   0  0  0  0  0  0
  -28.0307  -19.1819   20.2424 C   0  0  0  0  0  0
  -30.5286  -18.1988   21.0268 C   0  0  0  0  0  0
  -27.9324  -25.2734   21.1838 C   0  0  0  0  0  0
  -28.1383  -23.9039   21.3746 C   0  0  0  0  0  0
  -28.8515  -22.8103   20.6104 C   0  0  0  0  0  0
  -32.0384  -16.8799   18.3032 C   0  0  0  0  0  0
  -30.2560  -15.4332   17.2684 C   0  0  0  0  0  0
  -30.5679  -16.4069   18.3986 C   0  0  0  0  0  0
  -28.4841  -21.5322   21.0176 N   0  0  0  0  0  0
  -30.0946  -15.9912   19.7679 N   0  0  0  0  0  0
  -29.6955  -22.9968   19.7337 O   0  0  0  0  0  0
  -27.6058  -23.4714   22.5316 O   0  0  0  0  0  0
  -26.7932  -19.5944   19.8765 F   0  0  0  0  0  0
  -31.7589  -17.7888   21.4158 F   0  0  0  0  0  0
  -31.4563  -12.6221   19.1056 H   0  0  0  0  0  0
  -30.4574  -11.5861   20.0881 H   0  0  0  0  0  0
  -29.7402  -11.3447   17.7704 H   0  0  0  0  0  0
  -29.6105  -13.0167   17.4841 H   0  0  0  0  0  0
  -27.8400  -11.2150   19.0301 H   0  0  0  0  0  0
  -27.3613  -12.3689   17.8220 H   0  0  0  0  0  0
  -27.5859  -14.2143   19.3443 H   0  0  0  0  0  0
  -28.7681  -12.3540   21.4645 H   0  0  0  0  0  0
  -28.4330  -14.0653   21.6564 H   0  0  0  0  0  0
  -25.2752   -9.5686   22.4791 H   0  0  0  0  0  0
  -24.0003   -7.4630   22.7472 H   0  0  0  0  0  0
  -21.0854   -8.8782   19.8951 H   0  0  0  0  0  0
  -22.3697  -10.9694   19.6197 H   0  0  0  0  0  0
  -21.2010   -7.6150   23.9711 H   0  0  0  0  0  0
  -21.1480   -6.0526   25.9074 H   0  0  0  0  0  0
  -22.0598   -2.7610   23.2847 H   0  0  0  0  0  0
  -22.4063  -11.9904   22.4829 H   0  0  0  0  0  0
  -21.1048  -13.1246   22.2617 H   0  0  0  0  0  0
  -24.6612  -15.8540   20.5344 H   0  0  0  0  0  0
  -26.2827  -15.6275   20.1132 H   0  0  0  0  0  0
  -26.7205  -32.5418   23.1083 H   0  0  0  0  0  0
  -25.0079  -33.9703   25.0407 H   0  0  0  0  0  0
  -22.7256  -31.2994   21.3944 H   0  0  0  0  0  0
  -23.3751  -35.9618   23.3304 H   0  0  0  0  0  0
  -24.3579  -36.8905   22.2055 H   0  0  0  0  0  0
  -23.7244  -37.6487   23.6663 H   0  0  0  0  0  0
  -26.1126  -31.5350   20.6100 H   0  0  0  0  0  0
  -26.8522  -30.8227   22.0110 H   0  0  0  0  0  0
  -28.1163  -28.9174   21.2433 H   0  0  0  0  0  0
  -25.9932  -25.8970   19.0229 H   0  0  0  0  0  0
  -23.9830  -27.3121   18.9879 H   0  0  0  0  0  0
  -23.7699  -30.5910   19.4002 H   0  0  0  0  0  0
  -22.7691  -29.2440   19.8506 H   0  0  0  0  0  0
  -25.1297  -36.1920   25.0820 H   0  0  0  0  0  0
  -20.9993  -28.3282   24.1384 H   0  0  0  0  0  0
  -20.5680  -26.2312   23.3616 H   0  0  0  0  0  0
  -21.6647  -26.7436   22.1201 H   0  0  0  0  0  0
  -19.6917  -25.6291   21.1246 H   0  0  0  0  0  0
  -19.6691  -27.3188   20.6741 H   0  0  0  0  0  0
  -17.4204  -26.6675   21.4026 H   0  0  0  0  0  0
  -18.0334  -26.0072   22.9022 H   0  0  0  0  0  0
  -19.7946  -30.7277   24.2251 H   0  0  0  0  0  0
  -17.5024  -31.6267   24.5163 H   0  0  0  0  0  0
  -15.5359  -30.2983   23.7662 H   0  0  0  0  0  0
  -15.8679  -28.0817   22.7075 H   0  0  0  0  0  0
  -24.5904  -30.7073   25.7768 H   0  0  0  0  0  0
  -24.8911  -32.2899   26.4851 H   0  0  0  0  0  0
  -25.8040  -30.8917   27.0226 H   0  0  0  0  0  0
  -26.2938  -29.6742   24.1216 H   0  0  0  0  0  0
  -27.4022  -29.7258   25.4727 H   0  0  0  0  0  0
  -27.8822  -30.4271   23.9459 H   0  0  0  0  0  0
  -27.2657  -33.3628   26.2057 H   0  0  0  0  0  0
  -28.3872  -32.6874   25.0331 H   0  0  0  0  0  0
  -28.0709  -31.8458   26.5428 H   0  0  0  0  0  0
  -28.2597  -38.0092   24.7505 H   0  0  0  0  0  0
  -28.1066  -36.2623   24.6301 H   0  0  0  0  0  0
  -27.2293  -37.1458   25.8869 H   0  0  0  0  0  0
  -20.9399  -29.8771   21.6854 H   0  0  0  0  0  0
  -26.0168  -38.2844   24.1403 H   0  0  0  0  0  0
  -30.9188  -20.2445   21.6408 H   0  0  0  0  0  0
  -27.6577  -17.1712   19.5623 H   0  0  0  0  0  0
  -27.3727  -25.7487   21.9808 H   0  0  0  0  0  0
  -32.2311  -17.3247   17.3264 H   0  0  0  0  0  0
  -32.7496  -16.0619   18.4139 H   0  0  0  0  0  0
  -32.2870  -17.6404   19.0400 H   0  0  0  0  0  0
  -30.3874  -15.9143   16.2983 H   0  0  0  0  0  0
  -29.2191  -15.1000   17.3143 H   0  0  0  0  0  0
  -30.9457  -14.5908   17.2878 H   0  0  0  0  0  0
  -29.9916  -17.2852   18.1010 H   0  0  0  0  0  0
  -27.6032  -21.5585   21.5127 H   0  0  0  0  0  0
  -28.0497  -22.6625   22.7565 H   0  0  0  0  0  0
  1 25  1  0  0  0
  1 30  2  0  0  0
  1 84  1  0  0  0
  2  3  1  0  0  0
  2 25  1  0  0  0
  2 89  1  0  0  0
  2 90  1  0  0  0
  3  4  1  0  0  0
  3 91  1  0  0  0
  3 92  1  0  0  0
  4  5  1  0  0  0
  4 93  1  0  0  0
  4 94  1  0  0  0
  5  6  1  0  0  0
  5 26  1  0  0  0
  5 95  1  0  0  0
  6 25  1  0  0  0
  6 96  1  0  0  0
  6 97  1  0  0  0
  7  8  2  0  0  0
  7 26  1  0  0  0
  7 29  1  0  0  0
  8  9  1  0  0  0
  8 22  1  0  0  0
  9 10  1  0  0  0
  9 27  2  0  0  0
 10 11  2  0  0  0
 10 15  1  0  0  0
 11 12  1  0  0  0
 11 98  1  0  0  0
 12 13  2  0  0  0
 12 99  1  0  0  0
 13 14  1  0  0  0
 13 31  1  0  0  0
 14 15  2  0  0  0
 14100  1  0  0  0
 15101  1  0  0  0
 16 17  2  0  0  0
 16 21  1  0  0  0
 16 31  1  0  0  0
 17 18  1  0  0  0
 17102  1  0  0  0
 18 19  2  0  0  0
 18103  1  0  0  0
 19 20  1  0  0  0
 19 24  1  0  0  0
 20 21  2  0  0  0
 20104  1  0  0  0
 21 23  1  0  0  0
 22 28  1  0  0  0
 22 32  2  0  0  0
 26 27  1  0  0  0
 28105  1  0  0  0
 28106  1  0  0  0
 29107  1  0  0  0
 29108  1  0  0  0
 33 34  1  0  0  0
 33 66  1  0  0  0
 33 70  2  0  0  0
 34 36  1  0  0  0
 34 59  1  0  0  0
 34109  1  0  0  0
 35 44  2  0  0  0
 35 45  1  0  0  0
 35 68  1  0  0  0
 36 56  1  0  0  0
 36110  1  0  0  0
 37 39  1  0  0  0
 37 47  1  0  0  0
 37 66  1  0  0  0
 37111  1  0  0  0
 38 43  2  0  0  0
 38 46  1  0  0  0
 38 47  1  0  0  0
 39 64  1  0  0  0
 39 67  2  0  0  0
 40 52  1  0  0  0
 40 53  2  0  0  0
 40 58  1  0  0  0
 41112  1  0  0  0
 41113  1  0  0  0
 41114  1  0  0  0
 41 48  1  0  0  0
 42 43  1  0  0  0
 42 66  1  0  0  0
 42115  1  0  0  0
 42116  1  0  0  0
 43 44  1  0  0  0
 44117  1  0  0  0
 45 46  2  0  0  0
 45118  1  0  0  0
 46119  1  0  0  0
 47120  1  0  0  0
 47121  1  0  0  0
 48 56  1  0  0  0
 48 65  1  0  0  0
 48122  1  0  0  0
 49 50  1  0  0  0
 49 53  1  0  0  0
 49 64  1  0  0  0
 49123  1  0  0  0
 50 51  1  0  0  0
 50124  1  0  0  0
 50125  1  0  0  0
 51 52  1  0  0  0
 51126  1  0  0  0
 51127  1  0  0  0
 52128  1  0  0  0
 52129  1  0  0  0
 53 54  1  0  0  0
 54 55  2  0  0  0
 54130  1  0  0  0
 55 57  1  0  0  0
 55131  1  0  0  0
 56 69  2  0  0  0
 57 58  2  0  0  0
 57132  1  0  0  0
 58133  1  0  0  0
 59 60  1  0  0  0
 59 61  1  0  0  0
 59 62  1  0  0  0
 60134  1  0  0  0
 60135  1  0  0  0
 60136  1  0  0  0
 61137  1  0  0  0
 61138  1  0  0  0
 61139  1  0  0  0
 62140  1  0  0  0
 62141  1  0  0  0
 62142  1  0  0  0
 63 65  1  0  0  0
 63143  1  0  0  0
 63144  1  0  0  0
 63145  1  0  0  0
 64146  1  0  0  0
 65147  1  0  0  0
 68 77  1  0  0  0
 71 73  2  0  0  0
 71 76  1  0  0  0
 71148  1  0  0  0
 72 74  1  0  0  0
 72 75  2  0  0  0
 72149  1  0  0  0
 73 75  1  0  0  0
 73 83  1  0  0  0
 74 76  2  0  0  0
 74 84  1  0  0  0
 75 87  1  0  0  0
 76 88  1  0  0  0
 77 78  2  0  0  0
 77150  1  0  0  0
 78 79  1  0  0  0
 78 86  1  0  0  0
 79 83  1  0  0  0
 79 85  2  0  0  0
 80151  1  0  0  0
 80152  1  0  0  0
 80153  1  0  0  0
 80 82  1  0  0  0
 81 82  1  0  0  0
 81154  1  0  0  0
 81155  1  0  0  0
 81156  1  0  0  0
 82 84  1  0  0  0
 82157  1  0  0  0
 83158  1  0  0  0
 86159  1  0  0  0
M  ISO  4   1 100  68 101  77 101  84 100
M  END
> <chiral flag>
0

> <version>
0

> <s_m_source_file>
/data/baiqing/PycharmProjects/Reinvent-master-3.2/result/LINK_invent/BTK/process_docking_weight1_custom_product_contain_oxygen_bond_distance_aromatic_linkinvent_7_9_3/rearranged_h_0177.sdf

> <i_m_source_file_index>
1

> <r_mmod_Potential_Energy-OPLS-2005>
536.376220703125

> <r_mmod_Stretch_Energy-OPLS-2005>
122.47484588623

> <r_mmod_Bend_Energy-OPLS-2005>
260.126739501953

> <r_mmod_Torsional_Energy-OPLS-2005>
386.404266357422

> <r_mmod_Improper_Torsional_Energy-OPLS-2005>
31.5758380889893

> <r_mmod_Van_der_Waal_Energy-OPLS-2005>
148.726577758789

> <r_mmod_Electrostatic_Energy-OPLS-2005>
-332.413665771484

> <r_mmod_Solvation_Energy-OPLS-2005>
-226.325103759766

> <b_mmod_Minimization_Converged-OPLS-2005>
0

> <r_mmod_RMS_Derivative-OPLS-2005>
0.375425010919571

$$$$
1
                    3D
 Structure written by MMmdl.
160168  0  0  1  0            999 V2000
  -30.7236  -14.4101   20.6306 C   0  0  0  0  0  0
  -30.4206  -12.2868   19.4079 C   0  0  0  0  0  0
  -29.4898  -12.5055   18.1981 C   0  0  0  0  0  0
  -28.0108  -12.3685   18.6103 C   0  0  0  0  0  0
  -27.6630  -13.1980   19.8745 C   0  0  2  0  0  0
  -28.7007  -12.9412   20.9908 C   0  0  0  0  0  0
  -25.2609  -13.8155   20.5650 C   0  0  0  0  0  0
  -24.1839  -13.0448   20.9137 C   0  0  0  0  0  0
  -24.6375  -11.6910   20.8712 C   0  0  0  0  0  0
  -23.9040  -10.4298   21.0388 C   0  0  0  0  0  0
  -24.3591   -9.4212   21.9169 C   0  0  0  0  0  0
  -23.6268   -8.2251   22.0751 C   0  0  0  0  0  0
  -22.4258   -8.0281   21.3539 C   0  0  0  0  0  0
  -21.9894   -9.0250   20.4636 C   0  0  0  0  0  0
  -22.7218  -10.2125   20.3035 C   0  0  0  0  0  0
  -21.6848   -6.0725   22.5271 C   0  0  0  0  0  0
  -21.4013   -6.5625   23.8207 C   0  0  0  0  0  0
  -21.3657   -5.6784   24.9169 C   0  0  0  0  0  0
  -21.6042   -4.3049   24.7229 C   0  0  0  0  0  0
  -21.8815   -3.8138   23.4352 C   0  0  0  0  0  0
  -21.9186   -4.6950   22.3396 C   0  0  0  0  0  0
  -22.7865  -13.5246   21.1813 C   0  0  0  0  0  0
  -22.1659   -4.2132   21.0978 F   0  0  0  0  0  0
  -21.5627   -3.4539   25.7749 F   0  0  0  0  0  0
  -30.0403  -13.2481   20.4528 N   0  0  0  0  0  0
  -26.3014  -12.9296   20.3325 N   0  0  0  0  0  0
  -25.9292  -11.6466   20.5732 N   0  0  0  0  0  0
  -22.0504  -12.8237   22.0372 N   0  0  0  0  0  0
  -25.4418  -15.1861   20.4073 N   0  0  0  0  0  0
  -31.8052  -14.6417   20.0792 O   0  0  0  0  0  0
  -21.6626   -6.8870   21.4238 O   0  0  0  0  0  0
  -22.3556  -14.5559   20.6679 O   0  0  0  0  0  0
  -24.6135  -31.8692   23.2124 C   0  0  0  0  0  0
  -25.9046  -32.4819   23.8400 C   0  0  1  0  0  0
  -27.2200  -27.4468   20.0968 C   0  0  0  0  0  0
  -25.5907  -33.8614   24.2342 N   0  0  0  0  0  0
  -23.3986  -30.4949   21.5543 C   0  0  2  0  0  0
  -24.8409  -28.9660   20.1124 C   0  0  0  0  0  0
  -22.7401  -29.4678   22.5029 C   0  0  0  0  0  0
  -18.0265  -28.1368   22.8496 C   0  0  0  0  0  0
  -24.1495  -36.7320   23.2645 C   0  0  0  0  0  0
  -25.9252  -30.8395   21.3622 C   0  0  0  0  0  0
  -26.0015  -29.4760   20.7087 C   0  0  0  0  0  0
  -27.1975  -28.7256   20.6945 C   0  0  0  0  0  0
  -26.0481  -26.9506   19.4865 C   0  0  0  0  0  0
  -24.8606  -27.7019   19.4962 C   0  0  0  0  0  0
  -23.6018  -29.8300   20.1673 C   0  0  0  0  0  0
  -25.4114  -36.3098   24.0330 C   0  0  1  0  0  0
  -20.5854  -28.3663   23.1336 C   0  0  2  0  0  0
  -20.6765  -26.9401   22.5423 C   0  0  0  0  0  0
  -19.5737  -26.6372   21.5223 C   0  0  0  0  0  0
  -18.1900  -26.7911   22.1613 C   0  0  0  0  0  0
  -19.1513  -28.8821   23.2904 C   0  0  0  0  0  0
  -18.9455  -30.1425   23.8920 C   0  0  0  0  0  0
  -17.6466  -30.6584   24.0569 C   0  0  0  0  0  0
  -25.9034  -34.9470   23.5125 C   0  0  0  0  0  0
  -16.5353  -29.9093   23.6331 C   0  0  0  0  0  0
  -16.7257  -28.6506   23.0358 C   0  0  0  0  0  0
  -26.4473  -31.6602   25.0725 C   0  0  0  0  0  0
  -25.3742  -31.3708   26.1487 C   0  0  0  0  0  0
  -27.0341  -30.3063   24.6085 C   0  0  0  0  0  0
  -27.6037  -32.4342   25.7492 C   0  0  0  0  0  0
  -27.5587  -37.1822   24.8456 C   0  0  0  0  0  0
  -21.4131  -29.3051   22.3785 N   0  0  0  0  0  0
  -26.4309  -37.3775   23.9391 N   0  0  0  0  0  0
  -24.6650  -31.0810   22.1016 N   0  0  0  0  0  0
  -23.4170  -28.8221   23.3066 O   0  0  0  0  0  0
  -28.3774  -26.7079   20.0892 O   0  0  0  0  0  0
  -26.5597  -34.8921   22.4691 O   0  0  0  0  0  0
  -23.5340  -32.1440   23.7544 O   0  0  0  0  0  0
  -31.5219  -17.3462   21.2986 C   0  0  0  0  0  0
  -31.4673  -18.7100   21.7114 C   0  0  0  0  0  0
  -30.2851  -19.0496   22.3235 C   0  0  0  0  0  0
  -30.3952  -16.6206   21.6168 C   0  0  0  0  0  0
  -30.5089  -20.5560   24.2847 C   0  0  0  0  0  0
  -29.1833  -24.4167   19.9056 C   0  0  0  0  0  0
  -29.4207  -22.4698   21.5831 C   0  0  0  0  0  0
  -29.9746  -19.7105   25.4342 C   0  0  0  0  0  0
  -30.1276  -23.5572   20.7555 C   0  0  0  0  0  0
  -28.2497  -25.3872   20.6362 C   0  0  0  0  0  0
  -29.8456  -20.3697   22.9069 C   0  0  1  0  0  0
  -32.5616  -19.5589   21.4862 N   0  0  0  0  0  0
  -30.0993  -15.3074   21.4139 N   0  0  0  0  0  0
  -30.2137  -21.4944   22.0427 N   0  0  0  0  0  0
  -31.4421  -21.3394   24.4930 O   0  0  0  0  0  0
  -29.2015  -24.3548   18.6693 O   0  0  0  0  0  0
  -28.2170  -22.5209   21.8500 O   0  0  0  0  0  0
  -29.2301  -17.6585   22.4045 S   0  0  0  0  0  0
  -31.4653  -12.3830   19.1075 H   0  0  0  0  0  0
  -30.3178  -11.2697   19.7892 H   0  0  0  0  0  0
  -29.7245  -11.7891   17.4096 H   0  0  0  0  0  0
  -29.6608  -13.4951   17.7719 H   0  0  0  0  0  0
  -27.8170  -11.3116   18.7997 H   0  0  0  0  0  0
  -27.3598  -12.6511   17.7821 H   0  0  0  0  0  0
  -27.7195  -14.2501   19.5938 H   0  0  0  0  0  0
  -28.6686  -11.8933   21.2928 H   0  0  0  0  0  0
  -28.4507  -13.5011   21.8926 H   0  0  0  0  0  0
  -25.2740   -9.5687   22.4742 H   0  0  0  0  0  0
  -23.9974   -7.4645   22.7477 H   0  0  0  0  0  0
  -21.0825   -8.8748   19.8946 H   0  0  0  0  0  0
  -22.3668  -10.9654   19.6131 H   0  0  0  0  0  0
  -21.2028   -7.6133   23.9707 H   0  0  0  0  0  0
  -21.1476   -6.0518   25.9069 H   0  0  0  0  0  0
  -22.0604   -2.7606   23.2859 H   0  0  0  0  0  0
  -22.4103  -11.9877   22.4733 H   0  0  0  0  0  0
  -21.1131  -13.1272   22.2614 H   0  0  0  0  0  0
  -24.6883  -15.8553   20.5160 H   0  0  0  0  0  0
  -26.3046  -15.6113   20.0914 H   0  0  0  0  0  0
  -26.7142  -32.5549   23.1195 H   0  0  0  0  0  0
  -25.0083  -33.9787   25.0493 H   0  0  0  0  0  0
  -22.6848  -31.3104   21.4195 H   0  0  0  0  0  0
  -23.3726  -35.9683   23.3297 H   0  0  0  0  0  0
  -24.3614  -36.8950   22.2068 H   0  0  0  0  0  0
  -23.7289  -37.6533   23.6686 H   0  0  0  0  0  0
  -26.0321  -31.6065   20.5953 H   0  0  0  0  0  0
  -26.8152  -30.8905   21.9781 H   0  0  0  0  0  0
  -28.0955  -29.1133   21.1556 H   0  0  0  0  0  0
  -26.0505  -25.9886   18.9920 H   0  0  0  0  0  0
  -23.9733  -27.3071   19.0228 H   0  0  0  0  0  0
  -23.7027  -30.6055   19.4066 H   0  0  0  0  0  0
  -22.7240  -29.2507   19.8785 H   0  0  0  0  0  0
  -25.1288  -36.1979   25.0821 H   0  0  0  0  0  0
  -20.9928  -28.3246   24.1463 H   0  0  0  0  0  0
  -20.5697  -26.2259   23.3608 H   0  0  0  0  0  0
  -21.6643  -26.7470   22.1218 H   0  0  0  0  0  0
  -19.6901  -25.6279   21.1257 H   0  0  0  0  0  0
  -19.6693  -27.3188   20.6757 H   0  0  0  0  0  0
  -17.4187  -26.6693   21.3990 H   0  0  0  0  0  0
  -18.0252  -26.0025   22.8969 H   0  0  0  0  0  0
  -19.7945  -30.7215   24.2307 H   0  0  0  0  0  0
  -17.5026  -31.6287   24.5136 H   0  0  0  0  0  0
  -15.5351  -30.3009   23.7627 H   0  0  0  0  0  0
  -15.8650  -28.0842   22.7069 H   0  0  0  0  0  0
  -24.5918  -30.7040   25.7840 H   0  0  0  0  0  0
  -24.8917  -32.2857   26.4943 H   0  0  0  0  0  0
  -25.8072  -30.8896   27.0262 H   0  0  0  0  0  0
  -26.2892  -29.6798   24.1159 H   0  0  0  0  0  0
  -27.4171  -29.7336   25.4545 H   0  0  0  0  0  0
  -27.8677  -30.4433   23.9191 H   0  0  0  0  0  0
  -27.2653  -33.3649   26.2070 H   0  0  0  0  0  0
  -28.3832  -32.6907   25.0302 H   0  0  0  0  0  0
  -28.0698  -31.8458   26.5412 H   0  0  0  0  0  0
  -28.2595  -38.0123   24.7510 H   0  0  0  0  0  0
  -28.1098  -36.2660   24.6288 H   0  0  0  0  0  0
  -27.2301  -37.1484   25.8856 H   0  0  0  0  0  0
  -20.9264  -29.8805   21.7067 H   0  0  0  0  0  0
  -26.0188  -38.2853   24.1368 H   0  0  0  0  0  0
  -32.3962  -16.9451   20.8055 H   0  0  0  0  0  0
  -28.8851  -19.6807   25.4107 H   0  0  0  0  0  0
  -30.2872  -20.1279   26.3902 H   0  0  0  0  0  0
  -30.3538  -18.6921   25.3542 H   0  0  0  0  0  0
  -30.6664  -24.2163   21.4372 H   0  0  0  0  0  0
  -30.8714  -23.0959   20.1053 H   0  0  0  0  0  0
  -28.4982  -25.4130   21.6974 H   0  0  0  0  0  0
  -27.2384  -24.9887   20.5591 H   0  0  0  0  0  0
  -28.7644  -20.3493   23.0501 H   0  0  0  0  0  0
  -33.3988  -19.1200   21.1194 H   0  0  0  0  0  0
  -32.7944  -20.2079   22.2318 H   0  0  0  0  0  0
  -29.2322  -14.9805   21.8149 H   0  0  0  0  0  0
  -31.1908  -21.5203   21.7828 H   0  0  0  0  0  0
  1 25  1  0  0  0
  1 30  2  0  0  0
  1 83  1  0  0  0
  2  3  1  0  0  0
  2 25  1  0  0  0
  2 89  1  0  0  0
  2 90  1  0  0  0
  3  4  1  0  0  0
  3 91  1  0  0  0
  3 92  1  0  0  0
  4  5  1  0  0  0
  4 93  1  0  0  0
  4 94  1  0  0  0
  5  6  1  0  0  0
  5 26  1  0  0  0
  5 95  1  0  0  0
  6 25  1  0  0  0
  6 96  1  0  0  0
  6 97  1  0  0  0
  7  8  2  0  0  0
  7 26  1  0  0  0
  7 29  1  0  0  0
  8  9  1  0  0  0
  8 22  1  0  0  0
  9 10  1  0  0  0
  9 27  2  0  0  0
 10 11  2  0  0  0
 10 15  1  0  0  0
 11 12  1  0  0  0
 11 98  1  0  0  0
 12 13  2  0  0  0
 12 99  1  0  0  0
 13 14  1  0  0  0
 13 31  1  0  0  0
 14 15  2  0  0  0
 14100  1  0  0  0
 15101  1  0  0  0
 16 17  2  0  0  0
 16 21  1  0  0  0
 16 31  1  0  0  0
 17 18  1  0  0  0
 17102  1  0  0  0
 18 19  2  0  0  0
 18103  1  0  0  0
 19 20  1  0  0  0
 19 24  1  0  0  0
 20 21  2  0  0  0
 20104  1  0  0  0
 21 23  1  0  0  0
 22 28  1  0  0  0
 22 32  2  0  0  0
 26 27  1  0  0  0
 28105  1  0  0  0
 28106  1  0  0  0
 29107  1  0  0  0
 29108  1  0  0  0
 33 34  1  0  0  0
 33 66  1  0  0  0
 33 70  2  0  0  0
 34 36  1  0  0  0
 34 59  1  0  0  0
 34109  1  0  0  0
 35 44  2  0  0  0
 35 45  1  0  0  0
 35 68  1  0  0  0
 36 56  1  0  0  0
 36110  1  0  0  0
 37 39  1  0  0  0
 37 47  1  0  0  0
 37 66  1  0  0  0
 37111  1  0  0  0
 38 43  2  0  0  0
 38 46  1  0  0  0
 38 47  1  0  0  0
 39 64  1  0  0  0
 39 67  2  0  0  0
 40 52  1  0  0  0
 40 53  2  0  0  0
 40 58  1  0  0  0
 41112  1  0  0  0
 41113  1  0  0  0
 41114  1  0  0  0
 41 48  1  0  0  0
 42 43  1  0  0  0
 42 66  1  0  0  0
 42115  1  0  0  0
 42116  1  0  0  0
 43 44  1  0  0  0
 44117  1  0  0  0
 45 46  2  0  0  0
 45118  1  0  0  0
 46119  1  0  0  0
 47120  1  0  0  0
 47121  1  0  0  0
 48 56  1  0  0  0
 48 65  1  0  0  0
 48122  1  0  0  0
 49 50  1  0  0  0
 49 53  1  0  0  0
 49 64  1  0  0  0
 49123  1  0  0  0
 50 51  1  0  0  0
 50124  1  0  0  0
 50125  1  0  0  0
 51 52  1  0  0  0
 51126  1  0  0  0
 51127  1  0  0  0
 52128  1  0  0  0
 52129  1  0  0  0
 53 54  1  0  0  0
 54 55  2  0  0  0
 54130  1  0  0  0
 55 57  1  0  0  0
 55131  1  0  0  0
 56 69  2  0  0  0
 57 58  2  0  0  0
 57132  1  0  0  0
 58133  1  0  0  0
 59 60  1  0  0  0
 59 61  1  0  0  0
 59 62  1  0  0  0
 60134  1  0  0  0
 60135  1  0  0  0
 60136  1  0  0  0
 61137  1  0  0  0
 61138  1  0  0  0
 61139  1  0  0  0
 62140  1  0  0  0
 62141  1  0  0  0
 62142  1  0  0  0
 63 65  1  0  0  0
 63143  1  0  0  0
 63144  1  0  0  0
 63145  1  0  0  0
 64146  1  0  0  0
 65147  1  0  0  0
 68 80  1  0  0  0
 71 72  1  0  0  0
 71 74  2  0  0  0
 71148  1  0  0  0
 72 73  2  0  0  0
 72 82  1  0  0  0
 73 81  1  0  0  0
 73 88  1  0  0  0
 74 83  1  0  0  0
 74 88  1  0  0  0
 75 78  1  0  0  0
 75 81  1  0  0  0
 75 85  2  0  0  0
 76 79  1  0  0  0
 76 80  1  0  0  0
 76 86  2  0  0  0
 77 79  1  0  0  0
 77 84  1  0  0  0
 77 87  2  0  0  0
 78149  1  0  0  0
 78150  1  0  0  0
 78151  1  0  0  0
 79152  1  0  0  0
 79153  1  0  0  0
 80154  1  0  0  0
 80155  1  0  0  0
 81 84  1  0  0  0
 81156  1  0  0  0
 82157  1  0  0  0
 82158  1  0  0  0
 83159  1  0  0  0
 84160  1  0  0  0
M  ISO  4   1 100  68 101  80 101  83 100
M  END
> <chiral flag>
0

> <version>
0

> <s_m_source_file>
/data/baiqing/PycharmProjects/Reinvent-master-3.2/result/LINK_invent/BTK/process_docking_weight1_custom_product_contain_oxygen_bond_distance_aromatic_linkinvent_7_9_3/rearranged_h_0177.sdf

> <i_m_source_file_index>
2

> <r_mmod_Potential_Energy-OPLS-2005>
-230.88655090332

> <r_mmod_Stretch_Energy-OPLS-2005>
32.5691070556641

> <r_mmod_Bend_Energy-OPLS-2005>
100.538444519043

> <r_mmod_Torsional_Energy-OPLS-2005>
221.168243408203

> <r_mmod_Improper_Torsional_Energy-OPLS-2005>
6.91651916503906

> <r_mmod_Van_der_Waal_Energy-OPLS-2005>
135.297180175781

> <r_mmod_Electrostatic_Energy-OPLS-2005>
-482.177459716797

> <r_mmod_Solvation_Energy-OPLS-2005>
-253.936737060547

> <b_mmod_Minimization_Converged-OPLS-2005>
0

> <r_mmod_RMS_Derivative-OPLS-2005>
2.74450635910034

$$$$
2
                    3D
 Structure written by MMmdl.
158166  0  0  1  0            999 V2000
  -30.7091  -14.5342   20.5074 C   0  0  0  0  0  0
  -30.4132  -12.3287   19.4428 C   0  0  0  0  0  0
  -29.4952  -12.4887   18.2142 C   0  0  0  0  0  0
  -28.0174  -12.3473   18.6267 C   0  0  0  0  0  0
  -27.6508  -13.2168   19.8597 C   0  0  2  0  0  0
  -28.6963  -13.0743   20.9899 C   0  0  0  0  0  0
  -25.2539  -13.8169   20.5681 C   0  0  0  0  0  0
  -24.1820  -13.0433   20.9211 C   0  0  0  0  0  0
  -24.6394  -11.6907   20.8754 C   0  0  0  0  0  0
  -23.9068  -10.4289   21.0412 C   0  0  0  0  0  0
  -24.3621   -9.4204   21.9186 C   0  0  0  0  0  0
  -23.6295   -8.2239   22.0752 C   0  0  0  0  0  0
  -22.4275   -8.0281   21.3543 C   0  0  0  0  0  0
  -21.9912   -9.0257   20.4647 C   0  0  0  0  0  0
  -22.7243  -10.2135   20.3058 C   0  0  0  0  0  0
  -21.6855   -6.0737   22.5279 C   0  0  0  0  0  0
  -21.4015   -6.5639   23.8213 C   0  0  0  0  0  0
  -21.3658   -5.6792   24.9175 C   0  0  0  0  0  0
  -21.6043   -4.3054   24.7226 C   0  0  0  0  0  0
  -21.8821   -3.8147   23.4347 C   0  0  0  0  0  0
  -21.9194   -4.6964   22.3402 C   0  0  0  0  0  0
  -22.7840  -13.5223   21.1865 C   0  0  0  0  0  0
  -22.1662   -4.2150   21.0979 F   0  0  0  0  0  0
  -21.5630   -3.4538   25.7739 F   0  0  0  0  0  0
  -30.0190  -13.3606   20.4182 N   0  0  0  0  0  0
  -26.2974  -12.9363   20.3310 N   0  0  0  0  0  0
  -25.9322  -11.6516   20.5768 N   0  0  0  0  0  0
  -22.0480  -12.8217   22.0420 N   0  0  0  0  0  0
  -25.4199  -15.1885   20.4056 N   0  0  0  0  0  0
  -31.8916  -14.5924   20.1609 O   0  0  0  0  0  0
  -21.6639   -6.8878   21.4240 O   0  0  0  0  0  0
  -22.3524  -14.5528   20.6710 O   0  0  0  0  0  0
  -24.6189  -31.8658   23.2092 C   0  0  0  0  0  0
  -25.9071  -32.4808   23.8389 C   0  0  1  0  0  0
  -27.2257  -27.3953   20.0941 C   0  0  0  0  0  0
  -25.5912  -33.8603   24.2325 N   0  0  0  0  0  0
  -23.4074  -30.4922   21.5505 C   0  0  2  0  0  0
  -24.8506  -28.9581   20.1115 C   0  0  0  0  0  0
  -22.7430  -29.4656   22.4970 C   0  0  0  0  0  0
  -18.0279  -28.1378   22.8491 C   0  0  0  0  0  0
  -24.1486  -36.7311   23.2638 C   0  0  0  0  0  0
  -25.9415  -30.8188   21.3686 C   0  0  0  0  0  0
  -26.0149  -29.4523   20.7119 C   0  0  0  0  0  0
  -27.2036  -28.6784   20.7009 C   0  0  0  0  0  0
  -26.0334  -26.9281   19.4883 C   0  0  0  0  0  0
  -24.8568  -27.6972   19.4964 C   0  0  0  0  0  0
  -23.6158  -29.8300   20.1636 C   0  0  0  0  0  0
  -25.4107  -36.3106   24.0341 C   0  0  1  0  0  0
  -20.5872  -28.3675   23.1299 C   0  0  2  0  0  0
  -20.6768  -26.9406   22.5410 C   0  0  0  0  0  0
  -19.5748  -26.6386   21.5205 C   0  0  0  0  0  0
  -18.1927  -26.7926   22.1621 C   0  0  0  0  0  0
  -19.1527  -28.8842   23.2894 C   0  0  0  0  0  0
  -18.9454  -30.1444   23.8913 C   0  0  0  0  0  0
  -17.6455  -30.6584   24.0563 C   0  0  0  0  0  0
  -25.9034  -34.9468   23.5130 C   0  0  0  0  0  0
  -16.5347  -29.9087   23.6320 C   0  0  0  0  0  0
  -16.7268  -28.6498   23.0355 C   0  0  0  0  0  0
  -26.4482  -31.6592   25.0727 C   0  0  0  0  0  0
  -25.3738  -31.3708   26.1471 C   0  0  0  0  0  0
  -27.0306  -30.3026   24.6121 C   0  0  0  0  0  0
  -27.6061  -32.4308   25.7486 C   0  0  0  0  0  0
  -27.5582  -37.1811   24.8466 C   0  0  0  0  0  0
  -21.4154  -29.3043   22.3707 N   0  0  0  0  0  0
  -26.4297  -37.3788   23.9407 N   0  0  0  0  0  0
  -24.6745  -31.0735   22.1006 N   0  0  0  0  0  0
  -23.4187  -28.8191   23.3019 O   0  0  0  0  0  0
  -28.3788  -26.6193   20.1352 O   0  0  0  0  0  0
  -26.5594  -34.8924   22.4691 O   0  0  0  0  0  0
  -23.5375  -32.1423   23.7472 O   0  0  0  0  0  0
  -28.2155  -17.6781   19.6826 C   0  0  0  0  0  0
  -27.4591  -19.9862   19.5857 C   0  0  0  0  0  0
  -29.3591  -18.0381   20.4337 C   0  0  0  0  0  0
  -29.5304  -19.4357   20.7752 C   0  0  0  0  0  0
  -28.5974  -20.4193   20.3024 C   0  0  0  0  0  0
  -27.2686  -18.6309   19.2832 C   0  0  0  0  0  0
  -28.3422  -25.3213   19.6479 C   0  0  0  0  0  0
  -30.3981  -16.9442   20.6945 C   0  0  0  0  0  0
  -28.6240  -24.2047   20.3683 C   0  0  0  0  0  0
  -28.4984  -22.8743   19.7406 C   0  0  0  0  0  0
  -31.8619  -20.4769   20.7748 C   0  0  0  0  0  0
  -30.7050  -19.9297   21.6246 C   0  0  0  0  0  0
  -28.7622  -21.8321   20.5693 N   0  0  0  0  0  0
  -29.9682  -15.6511   20.7443 N   0  0  0  0  0  0
  -31.5860  -17.2605   20.8118 O   0  0  0  0  0  0
  -28.1889  -22.7053   18.5576 O   0  0  0  0  0  0
  -28.9980  -24.3105   21.6529 O   0  0  0  0  0  0
  -26.1798  -18.2413   18.5790 F   0  0  0  0  0  0
  -31.4593  -12.4045   19.1414 H   0  0  0  0  0  0
  -30.3028  -11.3350   19.8799 H   0  0  0  0  0  0
  -29.7440  -11.7428   17.4581 H   0  0  0  0  0  0
  -29.6601  -13.4622   17.7495 H   0  0  0  0  0  0
  -27.8401  -11.2947   18.8508 H   0  0  0  0  0  0
  -27.3659  -12.5912   17.7867 H   0  0  0  0  0  0
  -27.6695  -14.2507   19.5176 H   0  0  0  0  0  0
  -28.6815  -12.0638   21.4017 H   0  0  0  0  0  0
  -28.4647  -13.7413   21.8218 H   0  0  0  0  0  0
  -25.2769   -9.5682   22.4759 H   0  0  0  0  0  0
  -24.0008   -7.4629   22.7472 H   0  0  0  0  0  0
  -21.0843   -8.8783   19.8953 H   0  0  0  0  0  0
  -22.3707  -10.9678   19.6167 H   0  0  0  0  0  0
  -21.2006   -7.6146   23.9716 H   0  0  0  0  0  0
  -21.1475   -6.0521   25.9077 H   0  0  0  0  0  0
  -22.0600   -2.7610   23.2848 H   0  0  0  0  0  0
  -22.4091  -11.9879   22.4813 H   0  0  0  0  0  0
  -21.1098  -13.1247   22.2621 H   0  0  0  0  0  0
  -24.6375  -15.8282   20.4907 H   0  0  0  0  0  0
  -26.2371  -15.6253   20.0055 H   0  0  0  0  0  0
  -26.7139  -32.5501   23.1145 H   0  0  0  0  0  0
  -25.0070  -33.9748   25.0476 H   0  0  0  0  0  0
  -22.6982  -31.3113   21.4136 H   0  0  0  0  0  0
  -23.3744  -35.9648   23.3312 H   0  0  0  0  0  0
  -24.3585  -36.8910   22.2050 H   0  0  0  0  0  0
  -23.7243  -37.6523   23.6640 H   0  0  0  0  0  0
  -26.0615  -31.5847   20.6011 H   0  0  0  0  0  0
  -26.8271  -30.8682   21.9903 H   0  0  0  0  0  0
  -28.1008  -29.0532   21.1729 H   0  0  0  0  0  0
  -25.9791  -25.9593   19.0143 H   0  0  0  0  0  0
  -23.9607  -27.3097   19.0311 H   0  0  0  0  0  0
  -23.7277  -30.6075   19.4072 H   0  0  0  0  0  0
  -22.7374  -29.2553   19.8653 H   0  0  0  0  0  0
  -25.1281  -36.1977   25.0835 H   0  0  0  0  0  0
  -20.9964  -28.3246   24.1418 H   0  0  0  0  0  0
  -20.5661  -26.2282   23.3600 H   0  0  0  0  0  0
  -21.6639  -26.7438   22.1205 H   0  0  0  0  0  0
  -19.6906  -25.6298   21.1233 H   0  0  0  0  0  0
  -19.6688  -27.3197   20.6735 H   0  0  0  0  0  0
  -17.4192  -26.6673   21.4028 H   0  0  0  0  0  0
  -18.0334  -26.0063   22.9011 H   0  0  0  0  0  0
  -19.7930  -30.7254   24.2294 H   0  0  0  0  0  0
  -17.5012  -31.6265   24.5165 H   0  0  0  0  0  0
  -15.5350  -30.2999   23.7626 H   0  0  0  0  0  0
  -15.8666  -28.0814   22.7078 H   0  0  0  0  0  0
  -24.5911  -30.7056   25.7809 H   0  0  0  0  0  0
  -24.8930  -32.2864   26.4922 H   0  0  0  0  0  0
  -25.8083  -30.8874   27.0228 H   0  0  0  0  0  0
  -26.2851  -29.6798   24.1161 H   0  0  0  0  0  0
  -27.4049  -29.7257   25.4588 H   0  0  0  0  0  0
  -27.8704  -30.4336   23.9291 H   0  0  0  0  0  0
  -27.2687  -33.3599   26.2091 H   0  0  0  0  0  0
  -28.3853  -32.6880   25.0298 H   0  0  0  0  0  0
  -28.0749  -31.8412   26.5374 H   0  0  0  0  0  0
  -28.2609  -38.0097   24.7501 H   0  0  0  0  0  0
  -28.1066  -36.2631   24.6304 H   0  0  0  0  0  0
  -27.2297  -37.1479   25.8867 H   0  0  0  0  0  0
  -20.9316  -29.8776   21.6935 H   0  0  0  0  0  0
  -26.0190  -38.2871   24.1396 H   0  0  0  0  0  0
  -28.0570  -16.6590   19.3655 H   0  0  0  0  0  0
  -26.7138  -20.6926   19.2511 H   0  0  0  0  0  0
  -28.0540  -25.2913   18.6047 H   0  0  0  0  0  0
  -32.6810  -20.8168   21.4091 H   0  0  0  0  0  0
  -31.5438  -21.3225   20.1649 H   0  0  0  0  0  0
  -32.2602  -19.7174   20.1025 H   0  0  0  0  0  0
  -31.0598  -19.1515   22.2988 H   0  0  0  0  0  0
  -30.3566  -20.7104   22.3013 H   0  0  0  0  0  0
  -29.1368  -22.1031   21.4688 H   0  0  0  0  0  0
  -28.9773  -15.5154   20.8323 H   0  0  0  0  0  0
  -29.0124  -25.2375   21.8565 H   0  0  0  0  0  0
  1 25  1  0  0  0
  1 30  2  0  0  0
  1 84  1  0  0  0
  2  3  1  0  0  0
  2 25  1  0  0  0
  2 89  1  0  0  0
  2 90  1  0  0  0
  3  4  1  0  0  0
  3 91  1  0  0  0
  3 92  1  0  0  0
  4  5  1  0  0  0
  4 93  1  0  0  0
  4 94  1  0  0  0
  5  6  1  0  0  0
  5 26  1  0  0  0
  5 95  1  0  0  0
  6 25  1  0  0  0
  6 96  1  0  0  0
  6 97  1  0  0  0
  7  8  2  0  0  0
  7 26  1  0  0  0
  7 29  1  0  0  0
  8  9  1  0  0  0
  8 22  1  0  0  0
  9 10  1  0  0  0
  9 27  2  0  0  0
 10 11  2  0  0  0
 10 15  1  0  0  0
 11 12  1  0  0  0
 11 98  1  0  0  0
 12 13  2  0  0  0
 12 99  1  0  0  0
 13 14  1  0  0  0
 13 31  1  0  0  0
 14 15  2  0  0  0
 14100  1  0  0  0
 15101  1  0  0  0
 16 17  2  0  0  0
 16 21  1  0  0  0
 16 31  1  0  0  0
 17 18  1  0  0  0
 17102  1  0  0  0
 18 19  2  0  0  0
 18103  1  0  0  0
 19 20  1  0  0  0
 19 24  1  0  0  0
 20 21  2  0  0  0
 20104  1  0  0  0
 21 23  1  0  0  0
 22 28  1  0  0  0
 22 32  2  0  0  0
 26 27  1  0  0  0
 28105  1  0  0  0
 28106  1  0  0  0
 29107  1  0  0  0
 29108  1  0  0  0
 33 34  1  0  0  0
 33 66  1  0  0  0
 33 70  2  0  0  0
 34 36  1  0  0  0
 34 59  1  0  0  0
 34109  1  0  0  0
 35 44  2  0  0  0
 35 45  1  0  0  0
 35 68  1  0  0  0
 36 56  1  0  0  0
 36110  1  0  0  0
 37 39  1  0  0  0
 37 47  1  0  0  0
 37 66  1  0  0  0
 37111  1  0  0  0
 38 43  2  0  0  0
 38 46  1  0  0  0
 38 47  1  0  0  0
 39 64  1  0  0  0
 39 67  2  0  0  0
 40 52  1  0  0  0
 40 53  2  0  0  0
 40 58  1  0  0  0
 41112  1  0  0  0
 41113  1  0  0  0
 41114  1  0  0  0
 41 48  1  0  0  0
 42 43  1  0  0  0
 42 66  1  0  0  0
 42115  1  0  0  0
 42116  1  0  0  0
 43 44  1  0  0  0
 44117  1  0  0  0
 45 46  2  0  0  0
 45118  1  0  0  0
 46119  1  0  0  0
 47120  1  0  0  0
 47121  1  0  0  0
 48 56  1  0  0  0
 48 65  1  0  0  0
 48122  1  0  0  0
 49 50  1  0  0  0
 49 53  1  0  0  0
 49 64  1  0  0  0
 49123  1  0  0  0
 50 51  1  0  0  0
 50124  1  0  0  0
 50125  1  0  0  0
 51 52  1  0  0  0
 51126  1  0  0  0
 51127  1  0  0  0
 52128  1  0  0  0
 52129  1  0  0  0
 53 54  1  0  0  0
 54 55  2  0  0  0
 54130  1  0  0  0
 55 57  1  0  0  0
 55131  1  0  0  0
 56 69  2  0  0  0
 57 58  2  0  0  0
 57132  1  0  0  0
 58133  1  0  0  0
 59 60  1  0  0  0
 59 61  1  0  0  0
 59 62  1  0  0  0
 60134  1  0  0  0
 60135  1  0  0  0
 60136  1  0  0  0
 61137  1  0  0  0
 61138  1  0  0  0
 61139  1  0  0  0
 62140  1  0  0  0
 62141  1  0  0  0
 62142  1  0  0  0
 63 65  1  0  0  0
 63143  1  0  0  0
 63144  1  0  0  0
 63145  1  0  0  0
 64146  1  0  0  0
 65147  1  0  0  0
 68 77  1  0  0  0
 71 73  2  0  0  0
 71 76  1  0  0  0
 71148  1  0  0  0
 72 75  1  0  0  0
 72 76  2  0  0  0
 72149  1  0  0  0
 73 74  1  0  0  0
 73 78  1  0  0  0
 74 75  2  0  0  0
 74 82  1  0  0  0
 75 83  1  0  0  0
 76 88  1  0  0  0
 77 79  2  0  0  0
 77150  1  0  0  0
 78 84  1  0  0  0
 78 85  2  0  0  0
 79 80  1  0  0  0
 79 87  1  0  0  0
 80 83  1  0  0  0
 80 86  2  0  0  0
 81 82  1  0  0  0
 81151  1  0  0  0
 81152  1  0  0  0
 81153  1  0  0  0
 82154  1  0  0  0
 82155  1  0  0  0
 83156  1  0  0  0
 84157  1  0  0  0
 87158  1  0  0  0
M  ISO  4   1 100  68 101  77 101  84 100
M  END
> <chiral flag>
0

> <version>
0

> <s_m_source_file>
/data/baiqing/PycharmProjects/Reinvent-master-3.2/result/LINK_invent/BTK/process_docking_weight1_custom_product_contain_oxygen_bond_distance_aromatic_linkinvent_7_9_3/rearranged_h_0177.sdf

> <i_m_source_file_index>
3

> <r_mmod_Potential_Energy-OPLS-2005>
-148.71565246582

> <r_mmod_Stretch_Energy-OPLS-2005>
54.3821258544922

> <r_mmod_Bend_Energy-OPLS-2005>
104.456283569336

> <r_mmod_Torsional_Energy-OPLS-2005>
236.660995483398

> <r_mmod_Improper_Torsional_Energy-OPLS-2005>
7.12391567230225

> <r_mmod_Van_der_Waal_Energy-OPLS-2005>
173.695114135742

> <r_mmod_Electrostatic_Energy-OPLS-2005>
-525.544616699219

> <r_mmod_Solvation_Energy-OPLS-2005>
-226.023391723633

> <b_mmod_Minimization_Converged-OPLS-2005>
0

> <r_mmod_RMS_Derivative-OPLS-2005>
0.651898503303528

$$$$
3
                    3D
 Structure written by MMmdl.
154163  0  0  1  0            999 V2000
  -30.6112  -14.6254   20.4933 C   0  0  0  0  0  0
  -30.4477  -12.3807   19.4320 C   0  0  0  0  0  0
  -29.5067  -12.5074   18.2113 C   0  0  0  0  0  0
  -28.0295  -12.3442   18.6288 C   0  0  0  0  0  0
  -27.6581  -13.2078   19.8622 C   0  0  2  0  0  0
  -28.7083  -13.0380   20.9861 C   0  0  0  0  0  0
  -25.2576  -13.8134   20.5647 C   0  0  0  0  0  0
  -24.1841  -13.0431   20.9217 C   0  0  0  0  0  0
  -24.6398  -11.6900   20.8758 C   0  0  0  0  0  0
  -23.9055  -10.4295   21.0435 C   0  0  0  0  0  0
  -24.3601   -9.4202   21.9200 C   0  0  0  0  0  0
  -23.6280   -8.2243   22.0757 C   0  0  0  0  0  0
  -22.4257   -8.0281   21.3559 C   0  0  0  0  0  0
  -21.9898   -9.0264   20.4672 C   0  0  0  0  0  0
  -22.7229  -10.2143   20.3085 C   0  0  0  0  0  0
  -21.6848   -6.0734   22.5280 C   0  0  0  0  0  0
  -21.4013   -6.5637   23.8216 C   0  0  0  0  0  0
  -21.3657   -5.6787   24.9176 C   0  0  0  0  0  0
  -21.6037   -4.3048   24.7229 C   0  0  0  0  0  0
  -21.8817   -3.8149   23.4352 C   0  0  0  0  0  0
  -21.9193   -4.6963   22.3408 C   0  0  0  0  0  0
  -22.7864  -13.5245   21.1849 C   0  0  0  0  0  0
  -22.1660   -4.2155   21.0987 F   0  0  0  0  0  0
  -21.5631   -3.4531   25.7743 F   0  0  0  0  0  0
  -30.0268  -13.3883   20.4255 N   0  0  0  0  0  0
  -26.3009  -12.9312   20.3302 N   0  0  0  0  0  0
  -25.9321  -11.6479   20.5753 N   0  0  0  0  0  0
  -22.0464  -12.8289   22.0418 N   0  0  0  0  0  0
  -25.4259  -15.1834   20.3925 N   0  0  0  0  0  0
  -31.7650  -14.8343   20.1068 O   0  0  0  0  0  0
  -21.6636   -6.8867   21.4238 O   0  0  0  0  0  0
  -22.3575  -14.5550   20.6664 O   0  0  0  0  0  0
  -24.6267  -31.8591   23.2032 C   0  0  0  0  0  0
  -25.9107  -32.4783   23.8370 C   0  0  1  0  0  0
  -27.2313  -27.3201   20.1225 C   0  0  0  0  0  0
  -25.5909  -33.8583   24.2289 N   0  0  0  0  0  0
  -23.4215  -30.4826   21.5457 C   0  0  2  0  0  0
  -24.8707  -28.9373   20.1137 C   0  0  0  0  0  0
  -22.7484  -29.4621   22.4940 C   0  0  0  0  0  0
  -18.0282  -28.1394   22.8485 C   0  0  0  0  0  0
  -24.1477  -36.7301   23.2626 C   0  0  0  0  0  0
  -25.9620  -30.7906   21.3744 C   0  0  0  0  0  0
  -26.0383  -29.4161   20.7213 C   0  0  0  0  0  0
  -27.2226  -28.6206   20.7140 C   0  0  0  0  0  0
  -26.0450  -26.8986   19.4813 C   0  0  0  0  0  0
  -24.8765  -27.6833   19.4832 C   0  0  0  0  0  0
  -23.6385  -29.8175   20.1606 C   0  0  0  0  0  0
  -25.4090  -36.3088   24.0334 C   0  0  1  0  0  0
  -20.5887  -28.3702   23.1285 C   0  0  2  0  0  0
  -20.6782  -26.9424   22.5414 C   0  0  0  0  0  0
  -19.5757  -26.6388   21.5219 C   0  0  0  0  0  0
  -18.1931  -26.7934   22.1631 C   0  0  0  0  0  0
  -19.1538  -28.8864   23.2881 C   0  0  0  0  0  0
  -18.9456  -30.1460   23.8910 C   0  0  0  0  0  0
  -17.6457  -30.6604   24.0552 C   0  0  0  0  0  0
  -25.9032  -34.9461   23.5113 C   0  0  0  0  0  0
  -16.5346  -29.9096   23.6327 C   0  0  0  0  0  0
  -16.7269  -28.6508   23.0357 C   0  0  0  0  0  0
  -26.4487  -31.6593   25.0743 C   0  0  0  0  0  0
  -25.3715  -31.3757   26.1472 C   0  0  0  0  0  0
  -27.0289  -30.3003   24.6193 C   0  0  0  0  0  0
  -27.6070  -32.4303   25.7505 C   0  0  0  0  0  0
  -27.5589  -37.1769   24.8438 C   0  0  0  0  0  0
  -21.4195  -29.3056   22.3692 N   0  0  0  0  0  0
  -26.4256  -37.3797   23.9450 N   0  0  0  0  0  0
  -24.6891  -31.0599   22.0991 N   0  0  0  0  0  0
  -23.4198  -28.8141   23.3013 O   0  0  0  0  0  0
  -28.3509  -26.4737   20.1390 O   0  0  0  0  0  0
  -26.5622  -34.8930   22.4687 O   0  0  0  0  0  0
  -23.5423  -32.1389   23.7357 O   0  0  0  0  0  0
  -28.4536  -17.6525   20.3434 C   0  0  0  0  0  0
  -30.8120  -17.9677   20.5704 C   0  0  0  0  0  0
  -29.7189  -17.0598   20.5700 C   0  0  0  0  0  0
  -28.3206  -19.0404   20.0912 C   0  0  0  0  0  0
  -29.4662  -19.8728   20.0858 C   0  0  0  0  0  0
  -29.1726  -23.9610   20.0900 C   0  0  0  0  0  0
  -29.1229  -22.5335   20.7440 C   0  0  0  0  0  0
  -30.3607  -21.8721   18.6111 C   0  0  0  0  0  0
  -29.3370  -21.3952   19.6740 C   0  0  1  0  0  0
  -28.1331  -25.0573   20.5436 C   0  0  0  0  0  0
  -30.6904  -19.3232   20.3614 N   0  0  0  0  0  0
  -30.0353  -24.1816   19.1712 N   0  0  0  0  0  0
  -29.7626  -15.6285   20.8618 N   0  0  0  0  0  0
  -30.9795  -23.1242   18.9807 O   0  0  0  0  0  0
  -27.0921  -19.5549   19.8380 F   0  0  0  0  0  0
  -31.4870  -12.5135   19.1244 H   0  0  0  0  0  0
  -30.3851  -11.3778   19.8566 H   0  0  0  0  0  0
  -29.7633  -11.7634   17.4551 H   0  0  0  0  0  0
  -29.6471  -13.4807   17.7394 H   0  0  0  0  0  0
  -27.8639  -11.2903   18.8526 H   0  0  0  0  0  0
  -27.3731  -12.5829   17.7912 H   0  0  0  0  0  0
  -27.6835  -14.2445   19.5283 H   0  0  0  0  0  0
  -28.7197  -12.0082   21.3465 H   0  0  0  0  0  0
  -28.4571  -13.6462   21.8552 H   0  0  0  0  0  0
  -25.2749   -9.5685   22.4771 H   0  0  0  0  0  0
  -24.0000   -7.4630   22.7466 H   0  0  0  0  0  0
  -21.0833   -8.8795   19.8984 H   0  0  0  0  0  0
  -22.3691  -10.9683   19.6203 H   0  0  0  0  0  0
  -21.2001   -7.6142   23.9717 H   0  0  0  0  0  0
  -21.1476   -6.0517   25.9074 H   0  0  0  0  0  0
  -22.0596   -2.7614   23.2848 H   0  0  0  0  0  0
  -22.4037  -11.9967   22.4874 H   0  0  0  0  0  0
  -21.1091  -13.1371   22.2578 H   0  0  0  0  0  0
  -24.6362  -15.8169   20.4493 H   0  0  0  0  0  0
  -26.2137  -15.5825   19.9013 H   0  0  0  0  0  0
  -26.7181  -32.5454   23.1126 H   0  0  0  0  0  0
  -25.0044  -33.9733   25.0426 H   0  0  0  0  0  0
  -22.7151  -31.3026   21.4025 H   0  0  0  0  0  0
  -23.3761  -35.9602   23.3220 H   0  0  0  0  0  0
  -24.3602  -36.8991   22.2056 H   0  0  0  0  0  0
  -23.7196  -37.6470   23.6688 H   0  0  0  0  0  0
  -26.0848  -31.5484   20.5995 H   0  0  0  0  0  0
  -26.8466  -30.8495   21.9975 H   0  0  0  0  0  0
  -28.1198  -28.9831   21.1951 H   0  0  0  0  0  0
  -26.0044  -25.9514   18.9643 H   0  0  0  0  0  0
  -23.9875  -27.3175   18.9889 H   0  0  0  0  0  0
  -23.7591  -30.5940   19.4041 H   0  0  0  0  0  0
  -22.7593  -29.2465   19.8579 H   0  0  0  0  0  0
  -25.1247  -36.1929   25.0822 H   0  0  0  0  0  0
  -20.9972  -28.3281   24.1407 H   0  0  0  0  0  0
  -20.5716  -26.2301   23.3613 H   0  0  0  0  0  0
  -21.6647  -26.7477   22.1185 H   0  0  0  0  0  0
  -19.6916  -25.6289   21.1272 H   0  0  0  0  0  0
  -19.6699  -27.3187   20.6737 H   0  0  0  0  0  0
  -17.4200  -26.6676   21.4032 H   0  0  0  0  0  0
  -18.0334  -26.0093   22.9047 H   0  0  0  0  0  0
  -19.7928  -30.7271   24.2306 H   0  0  0  0  0  0
  -17.5008  -31.6296   24.5133 H   0  0  0  0  0  0
  -15.5346  -30.3002   23.7646 H   0  0  0  0  0  0
  -15.8665  -28.0823   22.7085 H   0  0  0  0  0  0
  -24.5855  -30.7151   25.7797 H   0  0  0  0  0  0
  -24.8945  -32.2935   26.4915 H   0  0  0  0  0  0
  -25.8012  -30.8901   27.0242 H   0  0  0  0  0  0
  -26.2844  -29.6807   24.1175 H   0  0  0  0  0  0
  -27.3923  -29.7223   25.4702 H   0  0  0  0  0  0
  -27.8758  -30.4278   23.9447 H   0  0  0  0  0  0
  -27.2705  -33.3596   26.2117 H   0  0  0  0  0  0
  -28.3859  -32.6866   25.0311 H   0  0  0  0  0  0
  -28.0764  -31.8400   26.5390 H   0  0  0  0  0  0
  -28.2504  -38.0164   24.7626 H   0  0  0  0  0  0
  -28.1181  -36.2710   24.6049 H   0  0  0  0  0  0
  -27.2352  -37.1170   25.8843 H   0  0  0  0  0  0
  -20.9382  -29.8759   21.6888 H   0  0  0  0  0  0
  -26.0134  -38.2843   24.1558 H   0  0  0  0  0  0
  -27.5654  -17.0401   20.3426 H   0  0  0  0  0  0
  -31.8110  -17.6101   20.7729 H   0  0  0  0  0  0
  -28.1769  -22.3945   21.2679 H   0  0  0  0  0  0
  -29.9109  -22.4739   21.4957 H   0  0  0  0  0  0
  -29.8948  -21.9572   17.6283 H   0  0  0  0  0  0
  -31.1595  -21.1393   18.4920 H   0  0  0  0  0  0
  -28.3970  -21.4092   19.1209 H   0  0  0  0  0  0
  -28.0975  -25.0406   21.6336 H   0  0  0  0  0  0
  -27.1591  -24.6902   20.2287 H   0  0  0  0  0  0
  -28.8768  -15.2446   21.1571 H   0  0  0  0  0  0
  1 25  1  0  0  0
  1 30  2  0  0  0
  1 83  1  0  0  0
  2  3  1  0  0  0
  2 25  1  0  0  0
  2 86  1  0  0  0
  2 87  1  0  0  0
  3  4  1  0  0  0
  3 88  1  0  0  0
  3 89  1  0  0  0
  4  5  1  0  0  0
  4 90  1  0  0  0
  4 91  1  0  0  0
  5  6  1  0  0  0
  5 26  1  0  0  0
  5 92  1  0  0  0
  6 25  1  0  0  0
  6 93  1  0  0  0
  6 94  1  0  0  0
  7  8  2  0  0  0
  7 26  1  0  0  0
  7 29  1  0  0  0
  8  9  1  0  0  0
  8 22  1  0  0  0
  9 10  1  0  0  0
  9 27  2  0  0  0
 10 11  2  0  0  0
 10 15  1  0  0  0
 11 12  1  0  0  0
 11 95  1  0  0  0
 12 13  2  0  0  0
 12 96  1  0  0  0
 13 14  1  0  0  0
 13 31  1  0  0  0
 14 15  2  0  0  0
 14 97  1  0  0  0
 15 98  1  0  0  0
 16 17  2  0  0  0
 16 21  1  0  0  0
 16 31  1  0  0  0
 17 18  1  0  0  0
 17 99  1  0  0  0
 18 19  2  0  0  0
 18100  1  0  0  0
 19 20  1  0  0  0
 19 24  1  0  0  0
 20 21  2  0  0  0
 20101  1  0  0  0
 21 23  1  0  0  0
 22 28  1  0  0  0
 22 32  2  0  0  0
 26 27  1  0  0  0
 28102  1  0  0  0
 28103  1  0  0  0
 29104  1  0  0  0
 29105  1  0  0  0
 33 34  1  0  0  0
 33 66  1  0  0  0
 33 70  2  0  0  0
 34 36  1  0  0  0
 34 59  1  0  0  0
 34106  1  0  0  0
 35 44  2  0  0  0
 35 45  1  0  0  0
 35 68  1  0  0  0
 36 56  1  0  0  0
 36107  1  0  0  0
 37 39  1  0  0  0
 37 47  1  0  0  0
 37 66  1  0  0  0
 37108  1  0  0  0
 38 43  2  0  0  0
 38 46  1  0  0  0
 38 47  1  0  0  0
 39 64  1  0  0  0
 39 67  2  0  0  0
 40 52  1  0  0  0
 40 53  2  0  0  0
 40 58  1  0  0  0
 41109  1  0  0  0
 41110  1  0  0  0
 41111  1  0  0  0
 41 48  1  0  0  0
 42 43  1  0  0  0
 42 66  1  0  0  0
 42112  1  0  0  0
 42113  1  0  0  0
 43 44  1  0  0  0
 44114  1  0  0  0
 45 46  2  0  0  0
 45115  1  0  0  0
 46116  1  0  0  0
 47117  1  0  0  0
 47118  1  0  0  0
 48 56  1  0  0  0
 48 65  1  0  0  0
 48119  1  0  0  0
 49 50  1  0  0  0
 49 53  1  0  0  0
 49 64  1  0  0  0
 49120  1  0  0  0
 50 51  1  0  0  0
 50121  1  0  0  0
 50122  1  0  0  0
 51 52  1  0  0  0
 51123  1  0  0  0
 51124  1  0  0  0
 52125  1  0  0  0
 52126  1  0  0  0
 53 54  1  0  0  0
 54 55  2  0  0  0
 54127  1  0  0  0
 55 57  1  0  0  0
 55128  1  0  0  0
 56 69  2  0  0  0
 57 58  2  0  0  0
 57129  1  0  0  0
 58130  1  0  0  0
 59 60  1  0  0  0
 59 61  1  0  0  0
 59 62  1  0  0  0
 60131  1  0  0  0
 60132  1  0  0  0
 60133  1  0  0  0
 61134  1  0  0  0
 61135  1  0  0  0
 61136  1  0  0  0
 62137  1  0  0  0
 62138  1  0  0  0
 62139  1  0  0  0
 63 65  1  0  0  0
 63140  1  0  0  0
 63141  1  0  0  0
 63142  1  0  0  0
 64143  1  0  0  0
 65144  1  0  0  0
 68 80  1  0  0  0
 71 73  2  0  0  0
 71 74  1  0  0  0
 71145  1  0  0  0
 72 73  1  0  0  0
 72 81  2  0  0  0
 72146  1  0  0  0
 73 83  1  0  0  0
 74 75  2  0  0  0
 74 85  1  0  0  0
 75 81  1  0  0  0
 75 79  1  0  0  0
 76 77  1  0  0  0
 76 80  1  0  0  0
 76 82  2  0  0  0
 77 79  1  0  0  0
 77147  1  0  0  0
 77148  1  0  0  0
 78 79  1  0  0  0
 78 84  1  0  0  0
 78149  1  0  0  0
 78150  1  0  0  0
 79151  1  0  0  0
 80152  1  0  0  0
 80153  1  0  0  0
 82 84  1  0  0  0
 83154  1  0  0  0
M  ISO  4   1 100  68 101  80 101  83 100
M  END
> <chiral flag>
0

> <version>
0

> <s_m_source_file>
/data/baiqing/PycharmProjects/Reinvent-master-3.2/result/LINK_invent/BTK/process_docking_weight1_custom_product_contain_oxygen_bond_distance_aromatic_linkinvent_7_9_3/rearranged_h_0177.sdf

> <i_m_source_file_index>
4

> <r_mmod_Potential_Energy-OPLS-2005>
-5.95304679870605

> <r_mmod_Stretch_Energy-OPLS-2005>
83.8569869995117

> <r_mmod_Bend_Energy-OPLS-2005>
150.348052978516

> <r_mmod_Torsional_Energy-OPLS-2005>
261.055603027344

> <r_mmod_Improper_Torsional_Energy-OPLS-2005>
6.50104331970215

> <r_mmod_Van_der_Waal_Energy-OPLS-2005>
158.323654174805

> <r_mmod_Electrostatic_Energy-OPLS-2005>
-464.266448974609

> <r_mmod_Solvation_Energy-OPLS-2005>
-247.778106689453

> <b_mmod_Minimization_Converged-OPLS-2005>
0

> <r_mmod_RMS_Derivative-OPLS-2005>
2.17397379875183

$$$$
4
                    3D
 Structure written by MMmdl.
166174  0  0  1  0            999 V2000
  -30.7017  -14.5141   20.5312 C   0  0  0  0  0  0
  -30.4334  -12.3269   19.4086 C   0  0  0  0  0  0
  -29.4993  -12.4847   18.1904 C   0  0  0  0  0  0
  -28.0212  -12.3436   18.6117 C   0  0  0  0  0  0
  -27.6539  -13.2108   19.8456 C   0  0  2  0  0  0
  -28.7062  -13.0500   20.9683 C   0  0  0  0  0  0
  -25.2558  -13.8130   20.5625 C   0  0  0  0  0  0
  -24.1852  -13.0423   20.9225 C   0  0  0  0  0  0
  -24.6416  -11.6889   20.8783 C   0  0  0  0  0  0
  -23.9082  -10.4280   21.0431 C   0  0  0  0  0  0
  -24.3636   -9.4190   21.9181 C   0  0  0  0  0  0
  -23.6297   -8.2237   22.0781 C   0  0  0  0  0  0
  -22.4273   -8.0293   21.3556 C   0  0  0  0  0  0
  -21.9908   -9.0298   20.4672 C   0  0  0  0  0  0
  -22.7267  -10.2160   20.3070 C   0  0  0  0  0  0
  -21.6855   -6.0731   22.5292 C   0  0  0  0  0  0
  -21.4009   -6.5620   23.8234 C   0  0  0  0  0  0
  -21.3669   -5.6773   24.9186 C   0  0  0  0  0  0
  -21.6050   -4.3036   24.7207 C   0  0  0  0  0  0
  -21.8821   -3.8130   23.4332 C   0  0  0  0  0  0
  -21.9191   -4.6943   22.3395 C   0  0  0  0  0  0
  -22.7853  -13.5222   21.1850 C   0  0  0  0  0  0
  -22.1659   -4.2138   21.0965 F   0  0  0  0  0  0
  -21.5641   -3.4538   25.7714 F   0  0  0  0  0  0
  -30.0286  -13.3398   20.3947 N   0  0  0  0  0  0
  -26.3001  -12.9324   20.3222 N   0  0  0  0  0  0
  -25.9327  -11.6513   20.5772 N   0  0  0  0  0  0
  -22.0444  -12.8286   22.0425 N   0  0  0  0  0  0
  -25.4155  -15.1856   20.3861 N   0  0  0  0  0  0
  -31.8994  -14.6570   20.2720 O   0  0  0  0  0  0
  -21.6632   -6.8869   21.4253 O   0  0  0  0  0  0
  -22.3558  -14.5519   20.6623 O   0  0  0  0  0  0
  -24.6149  -31.8702   23.2095 C   0  0  0  0  0  0
  -25.9040  -32.4851   23.8394 C   0  0  1  0  0  0
  -27.2222  -27.4188   20.0863 C   0  0  0  0  0  0
  -25.5904  -33.8654   24.2322 N   0  0  0  0  0  0
  -23.4023  -30.4941   21.5520 C   0  0  2  0  0  0
  -24.8503  -28.9704   20.1036 C   0  0  0  0  0  0
  -22.7412  -29.4669   22.4983 C   0  0  0  0  0  0
  -18.0262  -28.1365   22.8499 C   0  0  0  0  0  0
  -24.1507  -36.7308   23.2641 C   0  0  0  0  0  0
  -25.9338  -30.8348   21.3647 C   0  0  0  0  0  0
  -26.0146  -29.4721   20.7014 C   0  0  0  0  0  0
  -27.2090  -28.7076   20.6798 C   0  0  0  0  0  0
  -26.0436  -26.9483   19.4715 C   0  0  0  0  0  0
  -24.8619  -27.7136   19.4778 C   0  0  0  0  0  0
  -23.6081  -29.8349   20.1638 C   0  0  0  0  0  0
  -25.4135  -36.3119   24.0337 C   0  0  1  0  0  0
  -20.5859  -28.3660   23.1322 C   0  0  2  0  0  0
  -20.6777  -26.9401   22.5429 C   0  0  0  0  0  0
  -19.5752  -26.6369   21.5230 C   0  0  0  0  0  0
  -18.1913  -26.7904   22.1616 C   0  0  0  0  0  0
  -19.1515  -28.8824   23.2910 C   0  0  0  0  0  0
  -18.9441  -30.1430   23.8925 C   0  0  0  0  0  0
  -17.6450  -30.6589   24.0563 C   0  0  0  0  0  0
  -25.9053  -34.9493   23.5130 C   0  0  0  0  0  0
  -16.5343  -29.9096   23.6328 C   0  0  0  0  0  0
  -16.7251  -28.6505   23.0361 C   0  0  0  0  0  0
  -26.4459  -31.6603   25.0720 C   0  0  0  0  0  0
  -25.3705  -31.3712   26.1445 C   0  0  0  0  0  0
  -27.0272  -30.3039   24.6085 C   0  0  0  0  0  0
  -27.6046  -32.4312   25.7467 C   0  0  0  0  0  0
  -27.5590  -37.1808   24.8454 C   0  0  0  0  0  0
  -21.4134  -29.3033   22.3716 N   0  0  0  0  0  0
  -26.4307  -37.3813   23.9401 N   0  0  0  0  0  0
  -24.6686  -31.0805   22.0992 N   0  0  0  0  0  0
  -23.4197  -28.8190   23.3013 O   0  0  0  0  0  0
  -28.3491  -26.6204   20.0941 O   0  0  0  0  0  0
  -26.5619  -34.8936   22.4690 O   0  0  0  0  0  0
  -23.5341  -32.1432   23.7504 O   0  0  0  0  0  0
  -29.6217  -18.0711   20.0235 C   0  0  0  0  0  0
  -28.9761  -17.8640   18.8182 C   0  0  0  0  0  0
  -28.9928  -20.2279   19.5862 C   0  0  0  0  0  0
  -30.3633  -16.9913   20.7482 C   0  0  0  0  0  0
  -33.5599  -18.0724   22.3442 C   0  0  0  0  0  0
  -31.3485  -18.9090   23.2924 C   0  0  0  0  0  0
  -28.7440  -24.1302   19.9173 C   0  0  0  0  0  0
  -34.5762  -19.1716   22.6346 C   0  0  0  0  0  0
  -31.5370  -20.3456   23.7747 C   0  0  0  0  0  0
  -28.8687  -22.7349   20.6061 C   0  0  0  0  0  0
  -28.1599  -25.3217   20.7254 C   0  0  0  0  0  0
  -32.1032  -18.4506   22.0241 C   0  0  0  0  0  0
  -29.6165  -19.4211   20.4679 N   0  0  0  0  0  0
  -28.8085  -16.6885   18.0776 N   0  0  0  0  0  0
  -28.8025  -21.6157   19.6476 N   0  0  0  0  0  0
  -29.8995  -15.7099   20.6224 N   0  0  0  0  0  0
  -31.4801  -17.2207   21.4873 N   0  3  0  0  0  0
  -33.9393  -16.8947   22.3683 O   0  0  0  0  0  0
  -30.6016  -18.1601   23.9321 O   0  0  0  0  0  0
  -29.0681  -24.2614   18.7333 O   0  0  0  0  0  0
  -28.3544  -19.3666   18.1867 S   0  0  0  0  0  0
  -31.4768  -12.4340   19.1041 H   0  0  0  0  0  0
  -30.3435  -11.3239   19.8287 H   0  0  0  0  0  0
  -29.7460  -11.7394   17.4301 H   0  0  0  0  0  0
  -29.6621  -13.4607   17.7227 H   0  0  0  0  0  0
  -27.8497  -11.2940   18.8442 H   0  0  0  0  0  0
  -27.3655  -12.5825   17.7732 H   0  0  0  0  0  0
  -27.6712  -14.2454   19.5065 H   0  0  0  0  0  0
  -28.6855  -12.0311   21.3650 H   0  0  0  0  0  0
  -28.4761  -13.7035   21.8124 H   0  0  0  0  0  0
  -25.2792   -9.5653   22.4735 H   0  0  0  0  0  0
  -24.0021   -7.4610   22.7504 H   0  0  0  0  0  0
  -21.0842   -8.8792   19.8978 H   0  0  0  0  0  0
  -22.3735  -10.9676   19.6165 H   0  0  0  0  0  0
  -21.2000   -7.6138   23.9719 H   0  0  0  0  0  0
  -21.1500   -6.0500   25.9086 H   0  0  0  0  0  0
  -22.0587   -2.7595   23.2829 H   0  0  0  0  0  0
  -22.4012  -11.9999   22.4936 H   0  0  0  0  0  0
  -21.1052  -13.1374   22.2520 H   0  0  0  0  0  0
  -24.5965  -15.7836   20.4192 H   0  0  0  0  0  0
  -26.1530  -15.5753   19.8140 H   0  0  0  0  0  0
  -26.7109  -32.5561   23.1152 H   0  0  0  0  0  0
  -25.0079  -33.9813   25.0473 H   0  0  0  0  0  0
  -22.6918  -31.3119   21.4194 H   0  0  0  0  0  0
  -23.3787  -35.9613   23.3306 H   0  0  0  0  0  0
  -24.3576  -36.8928   22.2042 H   0  0  0  0  0  0
  -23.7207  -37.6508   23.6650 H   0  0  0  0  0  0
  -26.0507  -31.6148   20.6105 H   0  0  0  0  0  0
  -26.8185  -30.8803   21.9870 H   0  0  0  0  0  0
  -28.1123  -29.0954   21.1289 H   0  0  0  0  0  0
  -26.0332  -25.9852   18.9854 H   0  0  0  0  0  0
  -23.9684  -27.3340   19.0000 H   0  0  0  0  0  0
  -23.7034  -30.6152   19.4067 H   0  0  0  0  0  0
  -22.7329  -29.2526   19.8730 H   0  0  0  0  0  0
  -25.1302  -36.2005   25.0828 H   0  0  0  0  0  0
  -20.9951  -28.3232   24.1445 H   0  0  0  0  0  0
  -20.5712  -26.2262   23.3611 H   0  0  0  0  0  0
  -21.6636  -26.7470   22.1203 H   0  0  0  0  0  0
  -19.6944  -25.6287   21.1247 H   0  0  0  0  0  0
  -19.6704  -27.3195   20.6773 H   0  0  0  0  0  0
  -17.4208  -26.6668   21.4009 H   0  0  0  0  0  0
  -18.0316  -26.0029   22.8992 H   0  0  0  0  0  0
  -19.7924  -30.7223   24.2321 H   0  0  0  0  0  0
  -17.5016  -31.6269   24.5137 H   0  0  0  0  0  0
  -15.5353  -30.3014   23.7627 H   0  0  0  0  0  0
  -15.8639  -28.0826   22.7092 H   0  0  0  0  0  0
  -24.5904  -30.7053   25.7754 H   0  0  0  0  0  0
  -24.8869  -32.2883   26.4853 H   0  0  0  0  0  0
  -25.8032  -30.8895   27.0224 H   0  0  0  0  0  0
  -26.2820  -29.6834   24.1127 H   0  0  0  0  0  0
  -27.4024  -29.7254   25.4532 H   0  0  0  0  0  0
  -27.8659  -30.4355   23.9243 H   0  0  0  0  0  0
  -27.2696  -33.3629   26.2048 H   0  0  0  0  0  0
  -28.3853  -32.6862   25.0282 H   0  0  0  0  0  0
  -28.0724  -31.8438   26.5374 H   0  0  0  0  0  0
  -28.2613  -38.0113   24.7552 H   0  0  0  0  0  0
  -28.1095  -36.2646   24.6249 H   0  0  0  0  0  0
  -27.2304  -37.1420   25.8860 H   0  0  0  0  0  0
  -20.9284  -29.8738   21.6929 H   0  0  0  0  0  0
  -26.0212  -38.2902   24.1420 H   0  0  0  0  0  0
  -34.1449  -20.1717   22.5669 H   0  0  0  0  0  0
  -35.4096  -19.1060   21.9348 H   0  0  0  0  0  0
  -34.9729  -19.0333   23.6400 H   0  0  0  0  0  0
  -31.2943  -21.0512   22.9800 H   0  0  0  0  0  0
  -32.5621  -20.5180   24.0942 H   0  0  0  0  0  0
  -30.8921  -20.5483   24.6307 H   0  0  0  0  0  0
  -28.0665  -22.6261   21.3371 H   0  0  0  0  0  0
  -29.8041  -22.6900   21.1629 H   0  0  0  0  0  0
  -28.6268  -25.3437   21.7069 H   0  0  0  0  0  0
  -27.1012  -25.1090   20.8881 H   0  0  0  0  0  0
  -32.0918  -19.2446   21.2825 H   0  0  0  0  0  0
  -29.6493  -16.3246   17.6366 H   0  0  0  0  0  0
  -28.1237  -16.7810   17.3312 H   0  0  0  0  0  0
  -28.4170  -21.9676   18.7735 H   0  0  0  0  0  0
  -28.9093  -15.6724   20.4581 H   0  0  0  0  0  0
  -32.0509  -16.4267   21.7560 H   0  0  0  0  0  0
  1 25  1  0  0  0
  1 30  2  0  0  0
  1 86  1  0  0  0
  2  3  1  0  0  0
  2 25  1  0  0  0
  2 92  1  0  0  0
  2 93  1  0  0  0
  3  4  1  0  0  0
  3 94  1  0  0  0
  3 95  1  0  0  0
  4  5  1  0  0  0
  4 96  1  0  0  0
  4 97  1  0  0  0
  5  6  1  0  0  0
  5 26  1  0  0  0
  5 98  1  0  0  0
  6 25  1  0  0  0
  6 99  1  0  0  0
  6100  1  0  0  0
  7  8  2  0  0  0
  7 26  1  0  0  0
  7 29  1  0  0  0
  8  9  1  0  0  0
  8 22  1  0  0  0
  9 10  1  0  0  0
  9 27  2  0  0  0
 10 11  2  0  0  0
 10 15  1  0  0  0
 11 12  1  0  0  0
 11101  1  0  0  0
 12 13  2  0  0  0
 12102  1  0  0  0
 13 14  1  0  0  0
 13 31  1  0  0  0
 14 15  2  0  0  0
 14103  1  0  0  0
 15104  1  0  0  0
 16 17  2  0  0  0
 16 21  1  0  0  0
 16 31  1  0  0  0
 17 18  1  0  0  0
 17105  1  0  0  0
 18 19  2  0  0  0
 18106  1  0  0  0
 19 20  1  0  0  0
 19 24  1  0  0  0
 20 21  2  0  0  0
 20107  1  0  0  0
 21 23  1  0  0  0
 22 28  1  0  0  0
 22 32  2  0  0  0
 26 27  1  0  0  0
 28108  1  0  0  0
 28109  1  0  0  0
 29110  1  0  0  0
 29111  1  0  0  0
 33 34  1  0  0  0
 33 66  1  0  0  0
 33 70  2  0  0  0
 34 36  1  0  0  0
 34 59  1  0  0  0
 34112  1  0  0  0
 35 44  2  0  0  0
 35 45  1  0  0  0
 35 68  1  0  0  0
 36 56  1  0  0  0
 36113  1  0  0  0
 37 39  1  0  0  0
 37 47  1  0  0  0
 37 66  1  0  0  0
 37114  1  0  0  0
 38 43  2  0  0  0
 38 46  1  0  0  0
 38 47  1  0  0  0
 39 64  1  0  0  0
 39 67  2  0  0  0
 40 52  1  0  0  0
 40 53  2  0  0  0
 40 58  1  0  0  0
 41115  1  0  0  0
 41116  1  0  0  0
 41117  1  0  0  0
 41 48  1  0  0  0
 42 43  1  0  0  0
 42 66  1  0  0  0
 42118  1  0  0  0
 42119  1  0  0  0
 43 44  1  0  0  0
 44120  1  0  0  0
 45 46  2  0  0  0
 45121  1  0  0  0
 46122  1  0  0  0
 47123  1  0  0  0
 47124  1  0  0  0
 48 56  1  0  0  0
 48 65  1  0  0  0
 48125  1  0  0  0
 49 50  1  0  0  0
 49 53  1  0  0  0
 49 64  1  0  0  0
 49126  1  0  0  0
 50 51  1  0  0  0
 50127  1  0  0  0
 50128  1  0  0  0
 51 52  1  0  0  0
 51129  1  0  0  0
 51130  1  0  0  0
 52131  1  0  0  0
 52132  1  0  0  0
 53 54  1  0  0  0
 54 55  2  0  0  0
 54133  1  0  0  0
 55 57  1  0  0  0
 55134  1  0  0  0
 56 69  2  0  0  0
 57 58  2  0  0  0
 57135  1  0  0  0
 58136  1  0  0  0
 59 60  1  0  0  0
 59 61  1  0  0  0
 59 62  1  0  0  0
 60137  1  0  0  0
 60138  1  0  0  0
 60139  1  0  0  0
 61140  1  0  0  0
 61141  1  0  0  0
 61142  1  0  0  0
 62143  1  0  0  0
 62144  1  0  0  0
 62145  1  0  0  0
 63 65  1  0  0  0
 63146  1  0  0  0
 63147  1  0  0  0
 63148  1  0  0  0
 64149  1  0  0  0
 65150  1  0  0  0
 68 81  1  0  0  0
 71 72  2  0  0  0
 71 74  1  0  0  0
 71 83  1  0  0  0
 72 84  1  0  0  0
 72 91  1  0  0  0
 73 83  2  0  0  0
 73 85  1  0  0  0
 73 91  1  0  0  0
 74 86  1  0  0  0
 74 87  2  0  0  0
 75 78  1  0  0  0
 75 82  1  0  0  0
 75 88  2  0  0  0
 76 79  1  0  0  0
 76 82  1  0  0  0
 76 89  2  0  0  0
 77 80  1  0  0  0
 77 81  1  0  0  0
 77 90  2  0  0  0
 78151  1  0  0  0
 78152  1  0  0  0
 78153  1  0  0  0
 79154  1  0  0  0
 79155  1  0  0  0
 79156  1  0  0  0
 80 85  1  0  0  0
 80157  1  0  0  0
 80158  1  0  0  0
 81159  1  0  0  0
 81160  1  0  0  0
 82 87  1  0  0  0
 82161  1  0  0  0
 84162  1  0  0  0
 84163  1  0  0  0
 85164  1  0  0  0
 86165  1  0  0  0
 87166  1  0  0  0
M  CHG  1  87   1
M  ISO  4   1 100  68 101  81 101  86 100
M  END
> <chiral flag>
0

> <version>
0

> <s_m_source_file>
/data/baiqing/PycharmProjects/Reinvent-master-3.2/result/LINK_invent/BTK/process_docking_weight1_custom_product_contain_oxygen_bond_distance_aromatic_linkinvent_7_9_3/rearranged_h_0177.sdf

> <i_m_source_file_index>
5

> <r_mmod_Potential_Energy-OPLS-2005>
-345.182159423828

> <r_mmod_Stretch_Energy-OPLS-2005>
48.742919921875

> <r_mmod_Bend_Energy-OPLS-2005>
130.844161987305

> <r_mmod_Torsional_Energy-OPLS-2005>
281.066436767578

> <r_mmod_Improper_Torsional_Energy-OPLS-2005>
17.6516971588135

> <r_mmod_Van_der_Waal_Energy-OPLS-2005>
121.505760192871

> <r_mmod_Electrostatic_Energy-OPLS-2005>
-511.569091796875

> <r_mmod_Solvation_Energy-OPLS-2005>
-459.237854003906

> <b_mmod_Minimization_Converged-OPLS-2005>
0

> <r_mmod_RMS_Derivative-OPLS-2005>
5.54949998855591

$$$$
5
                    3D
 Structure written by MMmdl.
150158  0  0  1  0            999 V2000
  -30.6046  -14.6978   20.4775 C   0  0  0  0  0  0
  -30.4392  -12.4237   19.4654 C   0  0  0  0  0  0
  -29.5121  -12.5088   18.2320 C   0  0  0  0  0  0
  -28.0358  -12.3381   18.6424 C   0  0  0  0  0  0
  -27.6490  -13.2213   19.8582 C   0  0  2  0  0  0
  -28.6932  -13.1096   20.9920 C   0  0  0  0  0  0
  -25.2544  -13.8174   20.5686 C   0  0  0  0  0  0
  -24.1820  -13.0437   20.9206 C   0  0  0  0  0  0
  -24.6392  -11.6909   20.8740 C   0  0  0  0  0  0
  -23.9061  -10.4291   21.0402 C   0  0  0  0  0  0
  -24.3614   -9.4207   21.9179 C   0  0  0  0  0  0
  -23.6289   -8.2242   22.0751 C   0  0  0  0  0  0
  -22.4269   -8.0279   21.3544 C   0  0  0  0  0  0
  -21.9904   -9.0255   20.4651 C   0  0  0  0  0  0
  -22.7231  -10.2134   20.3057 C   0  0  0  0  0  0
  -21.6854   -6.0731   22.5277 C   0  0  0  0  0  0
  -21.4017   -6.5635   23.8210 C   0  0  0  0  0  0
  -21.3660   -5.6789   24.9173 C   0  0  0  0  0  0
  -21.6043   -4.3052   24.7224 C   0  0  0  0  0  0
  -21.8819   -3.8144   23.4346 C   0  0  0  0  0  0
  -21.9195   -4.6959   22.3401 C   0  0  0  0  0  0
  -22.7842  -13.5231   21.1864 C   0  0  0  0  0  0
  -22.1662   -4.2145   21.0978 F   0  0  0  0  0  0
  -21.5628   -3.4537   25.7737 F   0  0  0  0  0  0
  -30.0033  -13.4620   20.4244 N   0  0  0  0  0  0
  -26.2966  -12.9361   20.3291 N   0  0  0  0  0  0
  -25.9320  -11.6516   20.5746 N   0  0  0  0  0  0
  -22.0481  -12.8230   22.0421 N   0  0  0  0  0  0
  -25.4242  -15.1896   20.4078 N   0  0  0  0  0  0
  -31.7772  -14.8344   20.1128 O   0  0  0  0  0  0
  -21.6638   -6.8874   21.4239 O   0  0  0  0  0  0
  -22.3529  -14.5534   20.6701 O   0  0  0  0  0  0
  -24.6291  -31.8573   23.2005 C   0  0  0  0  0  0
  -25.9128  -32.4766   23.8339 C   0  0  1  0  0  0
  -27.2218  -27.2889   20.1209 C   0  0  0  0  0  0
  -25.5931  -33.8566   24.2265 N   0  0  0  0  0  0
  -23.4242  -30.4810   21.5436 C   0  0  2  0  0  0
  -24.8707  -28.9328   20.1095 C   0  0  0  0  0  0
  -22.7492  -29.4610   22.4922 C   0  0  0  0  0  0
  -18.0291  -28.1388   22.8483 C   0  0  0  0  0  0
  -24.1490  -36.7289   23.2638 C   0  0  0  0  0  0
  -25.9682  -30.7788   21.3765 C   0  0  0  0  0  0
  -26.0413  -29.4042   20.7168 C   0  0  0  0  0  0
  -27.2196  -28.5946   20.7116 C   0  0  0  0  0  0
  -26.0268  -26.8801   19.4848 C   0  0  0  0  0  0
  -24.8673  -27.6779   19.4833 C   0  0  0  0  0  0
  -23.6404  -29.8167   20.1586 C   0  0  0  0  0  0
  -25.4115  -36.3074   24.0326 C   0  0  1  0  0  0
  -20.5894  -28.3694   23.1279 C   0  0  2  0  0  0
  -20.6778  -26.9412   22.5417 C   0  0  0  0  0  0
  -19.5758  -26.6383   21.5214 C   0  0  0  0  0  0
  -18.1936  -26.7932   22.1619 C   0  0  0  0  0  0
  -19.1544  -28.8857   23.2878 C   0  0  0  0  0  0
  -18.9464  -30.1458   23.8897 C   0  0  0  0  0  0
  -17.6461  -30.6587   24.0563 C   0  0  0  0  0  0
  -25.9053  -34.9444   23.5096 C   0  0  0  0  0  0
  -16.5354  -29.9083   23.6329 C   0  0  0  0  0  0
  -16.7277  -28.6503   23.0348 C   0  0  0  0  0  0
  -26.4496  -31.6586   25.0725 C   0  0  0  0  0  0
  -25.3721  -31.3751   26.1452 C   0  0  0  0  0  0
  -27.0328  -30.2996   24.6209 C   0  0  0  0  0  0
  -27.6060  -32.4321   25.7492 C   0  0  0  0  0  0
  -27.5582  -37.1797   24.8460 C   0  0  0  0  0  0
  -21.4202  -29.3040   22.3666 N   0  0  0  0  0  0
  -26.4291  -37.3771   23.9407 N   0  0  0  0  0  0
  -24.6927  -31.0563   22.0968 N   0  0  0  0  0  0
  -23.4203  -28.8147   23.3011 O   0  0  0  0  0  0
  -28.3265  -26.4143   20.1813 O   0  0  0  0  0  0
  -26.5622  -34.8918   22.4665 O   0  0  0  0  0  0
  -23.5448  -32.1380   23.7319 O   0  0  0  0  0  0
  -28.8735  -18.0613   21.1560 C   0  0  0  0  0  0
  -29.9126  -20.0925   20.5238 C   0  0  0  0  0  0
  -29.9161  -17.2267   20.6392 C   0  0  0  0  0  0
  -30.9499  -19.2527   19.9659 C   0  0  0  0  0  0
  -30.0971  -21.6323   20.7427 C   0  0  0  0  0  0
  -29.2577  -23.9749   20.4810 C   0  0  0  0  0  0
  -28.0916  -24.9426   20.0065 C   0  0  0  0  0  0
  -28.8650  -19.4390   21.1102 N   0  0  0  0  0  0
  -30.9391  -17.8807   20.0156 N   0  0  0  0  0  0
  -32.0851  -19.7443   19.3249 N   0  0  0  0  0  0
  -29.7921  -15.7649   20.7974 N   0  0  0  0  0  0
  -29.1611  -22.5883   20.3793 N   0  0  0  0  0  0
  -31.1709  -21.9600   21.2652 O   0  0  0  0  0  0
  -30.2561  -24.5399   20.9443 O   0  0  0  0  0  0
  -31.4803  -12.5515   19.1635 H   0  0  0  0  0  0
  -30.3807  -11.4358   19.9249 H   0  0  0  0  0  0
  -29.7868  -11.7484   17.4998 H   0  0  0  0  0  0
  -29.6465  -13.4720   17.7372 H   0  0  0  0  0  0
  -27.8818  -11.2865   18.8880 H   0  0  0  0  0  0
  -27.3811  -12.5509   17.7964 H   0  0  0  0  0  0
  -27.6568  -14.2503   19.4982 H   0  0  0  0  0  0
  -28.7170  -12.0960   21.3949 H   0  0  0  0  0  0
  -28.4301  -13.7572   21.8298 H   0  0  0  0  0  0
  -25.2759   -9.5681   22.4753 H   0  0  0  0  0  0
  -24.0002   -7.4631   22.7466 H   0  0  0  0  0  0
  -21.0833   -8.8773   19.8958 H   0  0  0  0  0  0
  -22.3684  -10.9673   19.6167 H   0  0  0  0  0  0
  -21.2010   -7.6142   23.9712 H   0  0  0  0  0  0
  -21.1482   -6.0519   25.9076 H   0  0  0  0  0  0
  -22.0599   -2.7606   23.2848 H   0  0  0  0  0  0
  -22.4095  -11.9896   22.4822 H   0  0  0  0  0  0
  -21.1100  -13.1261   22.2625 H   0  0  0  0  0  0
  -24.6469  -15.8347   20.4987 H   0  0  0  0  0  0
  -26.2500  -15.6224   20.0158 H   0  0  0  0  0  0
  -26.7195  -32.5424   23.1082 H   0  0  0  0  0  0
  -25.0073  -33.9702   25.0406 H   0  0  0  0  0  0
  -22.7194  -31.3026   21.3999 H   0  0  0  0  0  0
  -23.3749  -35.9625   23.3300 H   0  0  0  0  0  0
  -24.3582  -36.8913   22.2054 H   0  0  0  0  0  0
  -23.7250  -37.6493   23.6662 H   0  0  0  0  0  0
  -26.1052  -31.5425   20.6095 H   0  0  0  0  0  0
  -26.8464  -30.8256   22.0090 H   0  0  0  0  0  0
  -28.1157  -28.9505   21.2004 H   0  0  0  0  0  0
  -25.9566  -25.9231   18.9901 H   0  0  0  0  0  0
  -23.9711  -27.3122   19.0010 H   0  0  0  0  0  0
  -23.7627  -30.5935   19.4028 H   0  0  0  0  0  0
  -22.7592  -29.2489   19.8546 H   0  0  0  0  0  0
  -25.1299  -36.1919   25.0818 H   0  0  0  0  0  0
  -20.9988  -28.3272   24.1399 H   0  0  0  0  0  0
  -20.5668  -26.2304   23.3620 H   0  0  0  0  0  0
  -21.6650  -26.7433   22.1221 H   0  0  0  0  0  0
  -19.6918  -25.6292   21.1249 H   0  0  0  0  0  0
  -19.6700  -27.3188   20.6740 H   0  0  0  0  0  0
  -17.4210  -26.6684   21.4017 H   0  0  0  0  0  0
  -18.0327  -26.0075   22.9015 H   0  0  0  0  0  0
  -19.7939  -30.7274   24.2269 H   0  0  0  0  0  0
  -17.5015  -31.6267   24.5167 H   0  0  0  0  0  0
  -15.5353  -30.2980   23.7653 H   0  0  0  0  0  0
  -15.8679  -28.0817   22.7063 H   0  0  0  0  0  0
  -24.5901  -30.7086   25.7796 H   0  0  0  0  0  0
  -24.8905  -32.2927   26.4841 H   0  0  0  0  0  0
  -25.8041  -30.8964   27.0248 H   0  0  0  0  0  0
  -26.2901  -29.6757   24.1220 H   0  0  0  0  0  0
  -27.3983  -29.7252   25.4732 H   0  0  0  0  0  0
  -27.8796  -30.4258   23.9460 H   0  0  0  0  0  0
  -27.2674  -33.3622   26.2069 H   0  0  0  0  0  0
  -28.3866  -32.6879   25.0316 H   0  0  0  0  0  0
  -28.0730  -31.8446   26.5408 H   0  0  0  0  0  0
  -28.2600  -38.0093   24.7503 H   0  0  0  0  0  0
  -28.1076  -36.2626   24.6279 H   0  0  0  0  0  0
  -27.2308  -37.1450   25.8865 H   0  0  0  0  0  0
  -20.9381  -29.8758   21.6871 H   0  0  0  0  0  0
  -26.0171  -38.2845   24.1408 H   0  0  0  0  0  0
  -28.0220  -17.6119   21.6467 H   0  0  0  0  0  0
  -27.1984  -24.6474   20.5582 H   0  0  0  0  0  0
  -27.9052  -24.7356   18.9524 H   0  0  0  0  0  0
  -32.3691  -20.7001   19.5158 H   0  0  0  0  0  0
  -32.8630  -19.1100   19.1834 H   0  0  0  0  0  0
  -28.8926  -15.4707   21.1434 H   0  0  0  0  0  0
  -28.3113  -22.2188   19.9826 H   0  0  0  0  0  0
  1 25  1  0  0  0
  1 30  2  0  0  0
  1 81  1  0  0  0
  2  3  1  0  0  0
  2 25  1  0  0  0
  2 85  1  0  0  0
  2 86  1  0  0  0
  3  4  1  0  0  0
  3 87  1  0  0  0
  3 88  1  0  0  0
  4  5  1  0  0  0
  4 89  1  0  0  0
  4 90  1  0  0  0
  5  6  1  0  0  0
  5 26  1  0  0  0
  5 91  1  0  0  0
  6 25  1  0  0  0
  6 92  1  0  0  0
  6 93  1  0  0  0
  7  8  2  0  0  0
  7 26  1  0  0  0
  7 29  1  0  0  0
  8  9  1  0  0  0
  8 22  1  0  0  0
  9 10  1  0  0  0
  9 27  2  0  0  0
 10 11  2  0  0  0
 10 15  1  0  0  0
 11 12  1  0  0  0
 11 94  1  0  0  0
 12 13  2  0  0  0
 12 95  1  0  0  0
 13 14  1  0  0  0
 13 31  1  0  0  0
 14 15  2  0  0  0
 14 96  1  0  0  0
 15 97  1  0  0  0
 16 17  2  0  0  0
 16 21  1  0  0  0
 16 31  1  0  0  0
 17 18  1  0  0  0
 17 98  1  0  0  0
 18 19  2  0  0  0
 18 99  1  0  0  0
 19 20  1  0  0  0
 19 24  1  0  0  0
 20 21  2  0  0  0
 20100  1  0  0  0
 21 23  1  0  0  0
 22 28  1  0  0  0
 22 32  2  0  0  0
 26 27  1  0  0  0
 28101  1  0  0  0
 28102  1  0  0  0
 29103  1  0  0  0
 29104  1  0  0  0
 33 34  1  0  0  0
 33 66  1  0  0  0
 33 70  2  0  0  0
 34 36  1  0  0  0
 34 59  1  0  0  0
 34105  1  0  0  0
 35 44  2  0  0  0
 35 45  1  0  0  0
 35 68  1  0  0  0
 36 56  1  0  0  0
 36106  1  0  0  0
 37 39  1  0  0  0
 37 47  1  0  0  0
 37 66  1  0  0  0
 37107  1  0  0  0
 38 43  2  0  0  0
 38 46  1  0  0  0
 38 47  1  0  0  0
 39 64  1  0  0  0
 39 67  2  0  0  0
 40 52  1  0  0  0
 40 53  2  0  0  0
 40 58  1  0  0  0
 41108  1  0  0  0
 41109  1  0  0  0
 41110  1  0  0  0
 41 48  1  0  0  0
 42 43  1  0  0  0
 42 66  1  0  0  0
 42111  1  0  0  0
 42112  1  0  0  0
 43 44  1  0  0  0
 44113  1  0  0  0
 45 46  2  0  0  0
 45114  1  0  0  0
 46115  1  0  0  0
 47116  1  0  0  0
 47117  1  0  0  0
 48 56  1  0  0  0
 48 65  1  0  0  0
 48118  1  0  0  0
 49 50  1  0  0  0
 49 53  1  0  0  0
 49 64  1  0  0  0
 49119  1  0  0  0
 50 51  1  0  0  0
 50120  1  0  0  0
 50121  1  0  0  0
 51 52  1  0  0  0
 51122  1  0  0  0
 51123  1  0  0  0
 52124  1  0  0  0
 52125  1  0  0  0
 53 54  1  0  0  0
 54 55  2  0  0  0
 54126  1  0  0  0
 55 57  1  0  0  0
 55127  1  0  0  0
 56 69  2  0  0  0
 57 58  2  0  0  0
 57128  1  0  0  0
 58129  1  0  0  0
 59 60  1  0  0  0
 59 61  1  0  0  0
 59 62  1  0  0  0
 60130  1  0  0  0
 60131  1  0  0  0
 60132  1  0  0  0
 61133  1  0  0  0
 61134  1  0  0  0
 61135  1  0  0  0
 62136  1  0  0  0
 62137  1  0  0  0
 62138  1  0  0  0
 63 65  1  0  0  0
 63139  1  0  0  0
 63140  1  0  0  0
 63141  1  0  0  0
 64142  1  0  0  0
 65143  1  0  0  0
 68 77  1  0  0  0
 71 73  2  0  0  0
 71 78  1  0  0  0
 71144  1  0  0  0
 72 74  1  0  0  0
 72 75  1  0  0  0
 72 78  2  0  0  0
 73 79  1  0  0  0
 73 81  1  0  0  0
 74 79  2  0  0  0
 74 80  1  0  0  0
 75 82  1  0  0  0
 75 83  2  0  0  0
 76 77  1  0  0  0
 76 82  1  0  0  0
 76 84  2  0  0  0
 77145  1  0  0  0
 77146  1  0  0  0
 80147  1  0  0  0
 80148  1  0  0  0
 81149  1  0  0  0
 82150  1  0  0  0
M  ISO  4   1 100  68 101  77 101  81 100
M  END
> <chiral flag>
0

> <version>
0

> <s_m_source_file>
/data/baiqing/PycharmProjects/Reinvent-master-3.2/result/LINK_invent/BTK/process_docking_weight1_custom_product_contain_oxygen_bond_distance_aromatic_linkinvent_7_9_3/rearranged_h_0177.sdf

> <i_m_source_file_index>
6

> <r_mmod_Potential_Energy-OPLS-2005>
84.2813949584961

> <r_mmod_Stretch_Energy-OPLS-2005>
106.147895812988

> <r_mmod_Bend_Energy-OPLS-2005>
157.896606445312

> <r_mmod_Torsional_Energy-OPLS-2005>
231.697937011719

> <r_mmod_Improper_Torsional_Energy-OPLS-2005>
8.653564453125

> <r_mmod_Van_der_Waal_Energy-OPLS-2005>
153.667541503906

> <r_mmod_Electrostatic_Energy-OPLS-2005>
-323.433563232422

> <r_mmod_Solvation_Energy-OPLS-2005>
-317.055297851562

> <b_mmod_Minimization_Converged-OPLS-2005>
0

> <r_mmod_RMS_Derivative-OPLS-2005>
0.466236710548401

$$$$
6
                    3D
 Structure written by MMmdl.
162170  0  0  1  0            999 V2000
  -30.6270  -14.6052   20.5614 C   0  0  0  0  0  0
  -30.4466  -12.3903   19.4337 C   0  0  0  0  0  0
  -29.5081  -12.5488   18.2173 C   0  0  0  0  0  0
  -28.0311  -12.3797   18.6248 C   0  0  0  0  0  0
  -27.6664  -13.2137   19.8766 C   0  0  2  0  0  0
  -28.7121  -13.0105   20.9945 C   0  0  0  0  0  0
  -25.2615  -13.8166   20.5622 C   0  0  0  0  0  0
  -24.1853  -13.0432   20.9159 C   0  0  0  0  0  0
  -24.6450  -11.6918   20.8763 C   0  0  0  0  0  0
  -23.9089  -10.4279   21.0398 C   0  0  0  0  0  0
  -24.3645   -9.4189   21.9177 C   0  0  0  0  0  0
  -23.6294   -8.2234   22.0768 C   0  0  0  0  0  0
  -22.4270   -8.0292   21.3556 C   0  0  0  0  0  0
  -21.9900   -9.0265   20.4651 C   0  0  0  0  0  0
  -22.7271  -10.2129   20.3045 C   0  0  0  0  0  0
  -21.6825   -6.0732   22.5286 C   0  0  0  0  0  0
  -21.4027   -6.5650   23.8238 C   0  0  0  0  0  0
  -21.3661   -5.6806   24.9188 C   0  0  0  0  0  0
  -21.6022   -4.3049   24.7222 C   0  0  0  0  0  0
  -21.8830   -3.8160   23.4347 C   0  0  0  0  0  0
  -21.9208   -4.6974   22.3409 C   0  0  0  0  0  0
  -22.7903  -13.5256   21.1811 C   0  0  0  0  0  0
  -22.1661   -4.2165   21.0973 F   0  0  0  0  0  0
  -21.5630   -3.4546   25.7734 F   0  0  0  0  0  0
  -30.0366  -13.3724   20.4534 N   0  0  0  0  0  0
  -26.3074  -12.9338   20.3373 N   0  0  0  0  0  0
  -25.9391  -11.6509   20.5786 N   0  0  0  0  0  0
  -22.0532  -12.8242   22.0381 N   0  0  0  0  0  0
  -25.4279  -15.1810   20.3846 N   0  0  0  0  0  0
  -31.7178  -14.8499   20.0274 O   0  0  0  0  0  0
  -21.6649   -6.8886   21.4238 O   0  0  0  0  0  0
  -22.3542  -14.5521   20.6632 O   0  0  0  0  0  0
  -24.6228  -31.8600   23.2038 C   0  0  0  0  0  0
  -25.9111  -32.4789   23.8311 C   0  0  1  0  0  0
  -27.2012  -27.3449   20.0484 C   0  0  0  0  0  0
  -25.5923  -33.8578   24.2265 N   0  0  0  0  0  0
  -23.4086  -30.4924   21.5517 C   0  0  2  0  0  0
  -24.8399  -28.9516   20.1132 C   0  0  0  0  0  0
  -22.7404  -29.4673   22.4983 C   0  0  0  0  0  0
  -18.0281  -28.1394   22.8502 C   0  0  0  0  0  0
  -24.1479  -36.7301   23.2632 C   0  0  0  0  0  0
  -25.9507  -30.8016   21.3634 C   0  0  0  0  0  0
  -26.0129  -29.4329   20.7027 C   0  0  0  0  0  0
  -27.1983  -28.6379   20.6556 C   0  0  0  0  0  0
  -25.9683  -26.8833   19.5327 C   0  0  0  0  0  0
  -24.8124  -27.6793   19.5310 C   0  0  0  0  0  0
  -23.6106  -29.8304   20.1638 C   0  0  0  0  0  0
  -25.4118  -36.3106   24.0314 C   0  0  1  0  0  0
  -20.5841  -28.3685   23.1284 C   0  0  2  0  0  0
  -20.6766  -26.9412   22.5402 C   0  0  0  0  0  0
  -19.5758  -26.6405   21.5201 C   0  0  0  0  0  0
  -18.1938  -26.7949   22.1629 C   0  0  0  0  0  0
  -19.1510  -28.8869   23.2907 C   0  0  0  0  0  0
  -18.9461  -30.1465   23.8927 C   0  0  0  0  0  0
  -17.6458  -30.6600   24.0578 C   0  0  0  0  0  0
  -25.9060  -34.9467   23.5108 C   0  0  0  0  0  0
  -16.5349  -29.9102   23.6323 C   0  0  0  0  0  0
  -16.7277  -28.6520   23.0360 C   0  0  0  0  0  0
  -26.4472  -31.6594   25.0669 C   0  0  0  0  0  0
  -25.3729  -31.3668   26.1403 C   0  0  0  0  0  0
  -27.0260  -30.3030   24.6057 C   0  0  0  0  0  0
  -27.6051  -32.4263   25.7461 C   0  0  0  0  0  0
  -27.5592  -37.1817   24.8482 C   0  0  0  0  0  0
  -21.4124  -29.3074   22.3719 N   0  0  0  0  0  0
  -26.4329  -37.3788   23.9402 N   0  0  0  0  0  0
  -24.6824  -31.0617   22.1015 N   0  0  0  0  0  0
  -23.4170  -28.8169   23.3005 O   0  0  0  0  0  0
  -28.3921  -26.6045   19.9901 O   0  0  0  0  0  0
  -26.5618  -34.8928   22.4656 O   0  0  0  0  0  0
  -23.5397  -32.1394   23.7411 O   0  0  0  0  0  0
  -28.1325  -16.9500   21.6585 C   0  0  0  0  0  0
  -28.0982  -19.2987   21.1587 C   0  0  0  0  0  0
  -27.4379  -18.1709   21.6556 C   0  0  0  0  0  0
  -29.4249  -16.8410   21.1094 C   0  0  0  0  0  0
  -29.3646  -19.1679   20.5851 C   0  0  0  0  0  0
  -28.6323  -22.5919   19.9699 C   0  0  0  0  0  0
  -27.8091  -24.9887   18.0766 C   0  0  0  0  0  0
  -30.0764  -25.3655   18.9458 C   0  0  0  0  0  0
  -28.4651  -24.0865   20.4328 C   0  0  0  0  0  0
  -29.7747  -21.6934   20.5465 C   0  0  0  0  0  0
  -25.9859  -18.2634   22.1129 C   0  0  0  0  0  0
  -28.5994  -25.2661   19.3794 C   0  0  0  0  0  0
  -30.0198  -17.9554   20.5439 N   0  0  0  0  0  0
  -29.9431  -15.5012   21.3209 N   0  0  0  0  0  0
  -29.9281  -20.3194   19.9830 N   0  0  0  0  0  0
  -27.7871  -22.0801   19.2312 O   0  0  0  0  0  0
  -25.1980  -18.2211   21.0358 F   0  0  0  0  0  0
  -25.6719  -17.2517   22.9237 F   0  0  0  0  0  0
  -25.7694  -19.4148   22.7565 F   0  0  0  0  0  0
  -31.4889  -12.5211   19.1309 H   0  0  0  0  0  0
  -30.3776  -11.3790   19.8417 H   0  0  0  0  0  0
  -29.7729  -11.8339   17.4364 H   0  0  0  0  0  0
  -29.6491  -13.5397   17.7821 H   0  0  0  0  0  0
  -27.8533  -11.3203   18.8152 H   0  0  0  0  0  0
  -27.3807  -12.6470   17.7936 H   0  0  0  0  0  0
  -27.7000  -14.2607   19.5769 H   0  0  0  0  0  0
  -28.7240  -11.9694   21.3174 H   0  0  0  0  0  0
  -28.4473  -13.5769   21.8863 H   0  0  0  0  0  0
  -25.2786   -9.5662   22.4739 H   0  0  0  0  0  0
  -24.0009   -7.4638   22.7492 H   0  0  0  0  0  0
  -21.0830   -8.8777   19.8965 H   0  0  0  0  0  0
  -22.3729  -10.9662   19.6143 H   0  0  0  0  0  0
  -21.2019   -7.6167   23.9722 H   0  0  0  0  0  0
  -21.1457   -6.0535   25.9083 H   0  0  0  0  0  0
  -22.0596   -2.7618   23.2848 H   0  0  0  0  0  0
  -22.4149  -11.9901   22.4732 H   0  0  0  0  0  0
  -21.1170  -13.1254   22.2638 H   0  0  0  0  0  0
  -24.6339  -15.8104   20.4116 H   0  0  0  0  0  0
  -26.2470  -15.5924   19.9573 H   0  0  0  0  0  0
  -26.7178  -32.5430   23.1041 H   0  0  0  0  0  0
  -25.0084  -33.9728   25.0428 H   0  0  0  0  0  0
  -22.7099  -31.3191   21.4153 H   0  0  0  0  0  0
  -23.3752  -35.9624   23.3294 H   0  0  0  0  0  0
  -24.3598  -36.8924   22.2060 H   0  0  0  0  0  0
  -23.7242  -37.6500   23.6652 H   0  0  0  0  0  0
  -26.0663  -31.5634   20.5887 H   0  0  0  0  0  0
  -26.8458  -30.8490   21.9752 H   0  0  0  0  0  0
  -28.1158  -29.0159   21.0866 H   0  0  0  0  0  0
  -25.8267  -25.9014   19.1262 H   0  0  0  0  0  0
  -23.8998  -27.2985   19.0956 H   0  0  0  0  0  0
  -23.7165  -30.6029   19.4007 H   0  0  0  0  0  0
  -22.7287  -29.2528   19.8764 H   0  0  0  0  0  0
  -25.1302  -36.1949   25.0810 H   0  0  0  0  0  0
  -20.9994  -28.3265   24.1379 H   0  0  0  0  0  0
  -20.5612  -26.2303   23.3603 H   0  0  0  0  0  0
  -21.6639  -26.7435   22.1212 H   0  0  0  0  0  0
  -19.6882  -25.6309   21.1257 H   0  0  0  0  0  0
  -19.6674  -27.3186   20.6699 H   0  0  0  0  0  0
  -17.4176  -26.6682   21.4059 H   0  0  0  0  0  0
  -18.0366  -26.0092   22.9029 H   0  0  0  0  0  0
  -19.7925  -30.7288   24.2305 H   0  0  0  0  0  0
  -17.5007  -31.6276   24.5157 H   0  0  0  0  0  0
  -15.5343  -30.3015   23.7643 H   0  0  0  0  0  0
  -15.8692  -28.0865   22.7042 H   0  0  0  0  0  0
  -24.5969  -30.6938   25.7737 H   0  0  0  0  0  0
  -24.8812  -32.2781   26.4796 H   0  0  0  0  0  0
  -25.8079  -30.8897   27.0205 H   0  0  0  0  0  0
  -26.2796  -29.6839   24.1063 H   0  0  0  0  0  0
  -27.3993  -29.7195   25.4489 H   0  0  0  0  0  0
  -27.8647  -30.4330   23.9222 H   0  0  0  0  0  0
  -27.2729  -33.3596   26.2014 H   0  0  0  0  0  0
  -28.3907  -32.6757   25.0319 H   0  0  0  0  0  0
  -28.0666  -31.8372   26.5406 H   0  0  0  0  0  0
  -28.2628  -38.0097   24.7490 H   0  0  0  0  0  0
  -28.1058  -36.2616   24.6336 H   0  0  0  0  0  0
  -27.2289  -37.1518   25.8886 H   0  0  0  0  0  0
  -20.9274  -29.8849   21.6995 H   0  0  0  0  0  0
  -26.0180  -38.2854   24.1384 H   0  0  0  0  0  0
  -27.6366  -16.0859   22.0778 H   0  0  0  0  0  0
  -27.5703  -20.2373   21.1554 H   0  0  0  0  0  0
  -28.3836  -24.3933   17.3694 H   0  0  0  0  0  0
  -27.5164  -25.9027   17.5616 H   0  0  0  0  0  0
  -26.9291  -24.3769   18.2721 H   0  0  0  0  0  0
  -30.2281  -26.1637   18.2144 H   0  0  0  0  0  0
  -30.4346  -24.4428   18.4850 H   0  0  0  0  0  0
  -30.7331  -25.5747   19.7867 H   0  0  0  0  0  0
  -29.1425  -24.2753   21.2666 H   0  0  0  0  0  0
  -27.4752  -24.1658   20.8711 H   0  0  0  0  0  0
  -29.6408  -21.6349   21.6313 H   0  0  0  0  0  0
  -30.7377  -22.1815   20.3829 H   0  0  0  0  0  0
  -29.3159  -14.9837   21.9169 H   0  0  0  0  0  0
  -30.6135  -20.2049   19.2517 H   0  0  0  0  0  0
  1 25  1  0  0  0
  1 30  2  0  0  0
  1 84  1  0  0  0
  2  3  1  0  0  0
  2 25  1  0  0  0
  2 90  1  0  0  0
  2 91  1  0  0  0
  3  4  1  0  0  0
  3 92  1  0  0  0
  3 93  1  0  0  0
  4  5  1  0  0  0
  4 94  1  0  0  0
  4 95  1  0  0  0
  5  6  1  0  0  0
  5 26  1  0  0  0
  5 96  1  0  0  0
  6 25  1  0  0  0
  6 97  1  0  0  0
  6 98  1  0  0  0
  7  8  2  0  0  0
  7 26  1  0  0  0
  7 29  1  0  0  0
  8  9  1  0  0  0
  8 22  1  0  0  0
  9 10  1  0  0  0
  9 27  2  0  0  0
 10 11  2  0  0  0
 10 15  1  0  0  0
 11 12  1  0  0  0
 11 99  1  0  0  0
 12 13  2  0  0  0
 12100  1  0  0  0
 13 14  1  0  0  0
 13 31  1  0  0  0
 14 15  2  0  0  0
 14101  1  0  0  0
 15102  1  0  0  0
 16 17  2  0  0  0
 16 21  1  0  0  0
 16 31  1  0  0  0
 17 18  1  0  0  0
 17103  1  0  0  0
 18 19  2  0  0  0
 18104  1  0  0  0
 19 20  1  0  0  0
 19 24  1  0  0  0
 20 21  2  0  0  0
 20105  1  0  0  0
 21 23  1  0  0  0
 22 28  1  0  0  0
 22 32  2  0  0  0
 26 27  1  0  0  0
 28106  1  0  0  0
 28107  1  0  0  0
 29108  1  0  0  0
 29109  1  0  0  0
 33 34  1  0  0  0
 33 66  1  0  0  0
 33 70  2  0  0  0
 34 36  1  0  0  0
 34 59  1  0  0  0
 34110  1  0  0  0
 35 44  2  0  0  0
 35 45  1  0  0  0
 35 68  1  0  0  0
 36 56  1  0  0  0
 36111  1  0  0  0
 37 39  1  0  0  0
 37 47  1  0  0  0
 37 66  1  0  0  0
 37112  1  0  0  0
 38 43  2  0  0  0
 38 46  1  0  0  0
 38 47  1  0  0  0
 39 64  1  0  0  0
 39 67  2  0  0  0
 40 52  1  0  0  0
 40 53  2  0  0  0
 40 58  1  0  0  0
 41113  1  0  0  0
 41114  1  0  0  0
 41115  1  0  0  0
 41 48  1  0  0  0
 42 43  1  0  0  0
 42 66  1  0  0  0
 42116  1  0  0  0
 42117  1  0  0  0
 43 44  1  0  0  0
 44118  1  0  0  0
 45 46  2  0  0  0
 45119  1  0  0  0
 46120  1  0  0  0
 47121  1  0  0  0
 47122  1  0  0  0
 48 56  1  0  0  0
 48 65  1  0  0  0
 48123  1  0  0  0
 49 50  1  0  0  0
 49 53  1  0  0  0
 49 64  1  0  0  0
 49124  1  0  0  0
 50 51  1  0  0  0
 50125  1  0  0  0
 50126  1  0  0  0
 51 52  1  0  0  0
 51127  1  0  0  0
 51128  1  0  0  0
 52129  1  0  0  0
 52130  1  0  0  0
 53 54  1  0  0  0
 54 55  2  0  0  0
 54131  1  0  0  0
 55 57  1  0  0  0
 55132  1  0  0  0
 56 69  2  0  0  0
 57 58  2  0  0  0
 57133  1  0  0  0
 58134  1  0  0  0
 59 60  1  0  0  0
 59 61  1  0  0  0
 59 62  1  0  0  0
 60135  1  0  0  0
 60136  1  0  0  0
 60137  1  0  0  0
 61138  1  0  0  0
 61139  1  0  0  0
 61140  1  0  0  0
 62141  1  0  0  0
 62142  1  0  0  0
 62143  1  0  0  0
 63 65  1  0  0  0
 63144  1  0  0  0
 63145  1  0  0  0
 63146  1  0  0  0
 64147  1  0  0  0
 65148  1  0  0  0
 68 82  1  0  0  0
 71 73  2  0  0  0
 71 74  1  0  0  0
 71149  1  0  0  0
 72 73  1  0  0  0
 72 75  2  0  0  0
 72150  1  0  0  0
 73 81  1  0  0  0
 74 83  2  0  0  0
 74 84  1  0  0  0
 75 83  1  0  0  0
 75 85  1  0  0  0
 76 79  1  0  0  0
 76 80  1  0  0  0
 76 86  2  0  0  0
 77151  1  0  0  0
 77152  1  0  0  0
 77153  1  0  0  0
 77 82  1  0  0  0
 78 82  1  0  0  0
 78154  1  0  0  0
 78155  1  0  0  0
 78156  1  0  0  0
 79 82  1  0  0  0
 79157  1  0  0  0
 79158  1  0  0  0
 80 85  1  0  0  0
 80159  1  0  0  0
 80160  1  0  0  0
 81 87  1  0  0  0
 81 88  1  0  0  0
 81 89  1  0  0  0
 84161  1  0  0  0
 85162  1  0  0  0
M  ISO  4   1 100  68 101  82 101  84 100
M  END
> <chiral flag>
0

> <version>
0

> <s_m_source_file>
/data/baiqing/PycharmProjects/Reinvent-master-3.2/result/LINK_invent/BTK/process_docking_weight1_custom_product_contain_oxygen_bond_distance_aromatic_linkinvent_7_9_3/rearranged_h_0177.sdf

> <i_m_source_file_index>
7

> <r_mmod_Potential_Energy-OPLS-2005>
-204.806838989258

> <r_mmod_Stretch_Energy-OPLS-2005>
72.2022476196289

> <r_mmod_Bend_Energy-OPLS-2005>
193.376800537109

> <r_mmod_Torsional_Energy-OPLS-2005>
212.214324951172

> <r_mmod_Improper_Torsional_Energy-OPLS-2005>
7.61733293533325

> <r_mmod_Van_der_Waal_Energy-OPLS-2005>
151.352905273438

> <r_mmod_Electrostatic_Energy-OPLS-2005>
-631.138854980469

> <r_mmod_Solvation_Energy-OPLS-2005>
-246.17219543457

> <b_mmod_Minimization_Converged-OPLS-2005>
0

> <r_mmod_RMS_Derivative-OPLS-2005>
8.37395858764648

$$$$
7
                    3D
 Structure written by MMmdl.
151159  0  0  1  0            999 V2000
  -30.6213  -14.6103   20.5518 C   0  0  0  0  0  0
  -30.4429  -12.3809   19.4459 C   0  0  0  0  0  0
  -29.5103  -12.5229   18.2225 C   0  0  0  0  0  0
  -28.0315  -12.3592   18.6318 C   0  0  0  0  0  0
  -27.6587  -13.2157   19.8715 C   0  0  2  0  0  0
  -28.7037  -13.0467   20.9973 C   0  0  0  0  0  0
  -25.2580  -13.8169   20.5699 C   0  0  0  0  0  0
  -24.1836  -13.0432   20.9183 C   0  0  0  0  0  0
  -24.6413  -11.6905   20.8730 C   0  0  0  0  0  0
  -23.9080  -10.4290   21.0397 C   0  0  0  0  0  0
  -24.3622   -9.4205   21.9180 C   0  0  0  0  0  0
  -23.6293   -8.2243   22.0749 C   0  0  0  0  0  0
  -22.4273   -8.0285   21.3542 C   0  0  0  0  0  0
  -21.9914   -9.0265   20.4647 C   0  0  0  0  0  0
  -22.7249  -10.2140   20.3056 C   0  0  0  0  0  0
  -21.6845   -6.0745   22.5283 C   0  0  0  0  0  0
  -21.4016   -6.5650   23.8219 C   0  0  0  0  0  0
  -21.3659   -5.6796   24.9183 C   0  0  0  0  0  0
  -21.6039   -4.3058   24.7227 C   0  0  0  0  0  0
  -21.8817   -3.8156   23.4347 C   0  0  0  0  0  0
  -21.9195   -4.6976   22.3407 C   0  0  0  0  0  0
  -22.7858  -13.5219   21.1852 C   0  0  0  0  0  0
  -22.1654   -4.2164   21.0984 F   0  0  0  0  0  0
  -21.5633   -3.4541   25.7744 F   0  0  0  0  0  0
  -30.0234  -13.3822   20.4441 N   0  0  0  0  0  0
  -26.3021  -12.9355   20.3363 N   0  0  0  0  0  0
  -25.9345  -11.6510   20.5766 N   0  0  0  0  0  0
  -22.0504  -12.8213   22.0412 N   0  0  0  0  0  0
  -25.4300  -15.1891   20.4138 N   0  0  0  0  0  0
  -31.7536  -14.7970   20.0850 O   0  0  0  0  0  0
  -21.6630   -6.8887   21.4242 O   0  0  0  0  0  0
  -22.3544  -14.5533   20.6711 O   0  0  0  0  0  0
  -24.6250  -31.8620   23.2040 C   0  0  0  0  0  0
  -25.9104  -32.4795   23.8372 C   0  0  1  0  0  0
  -27.2297  -27.3402   20.1150 C   0  0  0  0  0  0
  -25.5931  -33.8595   24.2304 N   0  0  0  0  0  0
  -23.4190  -30.4855   21.5443 C   0  0  2  0  0  0
  -24.8675  -28.9396   20.1125 C   0  0  0  0  0  0
  -22.7477  -29.4644   22.4941 C   0  0  0  0  0  0
  -18.0294  -28.1376   22.8497 C   0  0  0  0  0  0
  -24.1488  -36.7297   23.2638 C   0  0  0  0  0  0
  -25.9584  -30.7975   21.3734 C   0  0  0  0  0  0
  -26.0347  -29.4249   20.7182 C   0  0  0  0  0  0
  -27.2205  -28.6345   20.7142 C   0  0  0  0  0  0
  -26.0437  -26.9032   19.4853 C   0  0  0  0  0  0
  -24.8709  -27.6808   19.4903 C   0  0  0  0  0  0
  -23.6341  -29.8171   20.1604 C   0  0  0  0  0  0
  -25.4110  -36.3098   24.0336 C   0  0  1  0  0  0
  -20.5891  -28.3689   23.1281 C   0  0  2  0  0  0
  -20.6774  -26.9404   22.5416 C   0  0  0  0  0  0
  -19.5742  -26.6375   21.5226 C   0  0  0  0  0  0
  -18.1925  -26.7925   22.1634 C   0  0  0  0  0  0
  -19.1543  -28.8852   23.2889 C   0  0  0  0  0  0
  -18.9464  -30.1456   23.8897 C   0  0  0  0  0  0
  -17.6460  -30.6579   24.0563 C   0  0  0  0  0  0
  -25.9042  -34.9464   23.5114 C   0  0  0  0  0  0
  -16.5354  -29.9076   23.6320 C   0  0  0  0  0  0
  -16.7283  -28.6491   23.0352 C   0  0  0  0  0  0
  -26.4487  -31.6601   25.0744 C   0  0  0  0  0  0
  -25.3735  -31.3747   26.1492 C   0  0  0  0  0  0
  -27.0313  -30.3020   24.6200 C   0  0  0  0  0  0
  -27.6073  -32.4311   25.7494 C   0  0  0  0  0  0
  -27.5574  -37.1807   24.8462 C   0  0  0  0  0  0
  -21.4191  -29.3049   22.3681 N   0  0  0  0  0  0
  -26.4290  -37.3790   23.9400 N   0  0  0  0  0  0
  -24.6859  -31.0654   22.0973 N   0  0  0  0  0  0
  -23.4214  -28.8192   23.3020 O   0  0  0  0  0  0
  -28.3384  -26.4886   20.1303 O   0  0  0  0  0  0
  -26.5607  -34.8924   22.4676 O   0  0  0  0  0  0
  -23.5418  -32.1412   23.7374 O   0  0  0  0  0  0
  -30.6282  -18.0771   20.0165 C   0  0  0  0  0  0
  -28.6362  -19.5459   21.3381 C   0  0  0  0  0  0
  -29.7540  -17.3614   20.8820 C   0  0  0  0  0  0
  -29.5067  -20.2632   20.4735 C   0  0  0  0  0  0
  -30.5040  -19.4866   19.8214 C   0  0  0  0  0  0
  -28.7584  -18.1403   21.5306 C   0  0  0  0  0  0
  -28.1285  -25.1413   20.4820 C   0  0  0  0  0  0
  -28.9292  -24.0710   20.1751 C   0  0  0  0  0  0
  -28.5860  -22.6842   20.6164 C   0  0  0  0  0  0
  -29.8039  -15.8133   21.1836 C   0  0  0  0  0  0
  -29.4652  -21.7097   20.2314 N   0  0  0  0  0  0
  -27.5777  -22.4184   21.2736 O   0  0  0  0  0  0
  -30.0479  -24.2711   19.4617 O   0  0  0  0  0  0
  -31.3695  -20.1093   18.9852 F   0  0  0  0  0  0
  -27.8937  -17.5232   22.3702 F   0  0  0  0  0  0
  -31.4850  -12.5062   19.1475 H   0  0  0  0  0  0
  -30.3724  -11.3771   19.8683 H   0  0  0  0  0  0
  -29.7733  -11.7873   17.4610 H   0  0  0  0  0  0
  -29.6567  -13.5029   17.7645 H   0  0  0  0  0  0
  -27.8626  -11.3038   18.8474 H   0  0  0  0  0  0
  -27.3791  -12.6063   17.7938 H   0  0  0  0  0  0
  -27.6854  -14.2565   19.5501 H   0  0  0  0  0  0
  -28.7062  -12.0191   21.3645 H   0  0  0  0  0  0
  -28.4529  -13.6680   21.8586 H   0  0  0  0  0  0
  -25.2770   -9.5680   22.4752 H   0  0  0  0  0  0
  -24.0014   -7.4628   22.7456 H   0  0  0  0  0  0
  -21.0851   -8.8783   19.8945 H   0  0  0  0  0  0
  -22.3710  -10.9680   19.6166 H   0  0  0  0  0  0
  -21.1998   -7.6160   23.9731 H   0  0  0  0  0  0
  -21.1481   -6.0529   25.9089 H   0  0  0  0  0  0
  -22.0595   -2.7622   23.2846 H   0  0  0  0  0  0
  -22.4125  -11.9875   22.4798 H   0  0  0  0  0  0
  -21.1125  -13.1239   22.2623 H   0  0  0  0  0  0
  -24.6723  -15.8487   20.5519 H   0  0  0  0  0  0
  -26.3019  -15.6347   20.1560 H   0  0  0  0  0  0
  -26.7193  -32.5470   23.1139 H   0  0  0  0  0  0
  -25.0116  -33.9743   25.0475 H   0  0  0  0  0  0
  -22.7128  -31.3061   21.4001 H   0  0  0  0  0  0
  -23.3760  -35.9619   23.3304 H   0  0  0  0  0  0
  -24.3582  -36.8912   22.2051 H   0  0  0  0  0  0
  -23.7230  -37.6492   23.6659 H   0  0  0  0  0  0
  -26.0883  -31.5589   20.6030 H   0  0  0  0  0  0
  -26.8376  -30.8466   22.0042 H   0  0  0  0  0  0
  -28.1168  -28.9995   21.1961 H   0  0  0  0  0  0
  -26.0165  -25.9375   19.0015 H   0  0  0  0  0  0
  -23.9764  -27.3018   19.0143 H   0  0  0  0  0  0
  -23.7524  -30.5906   19.4011 H   0  0  0  0  0  0
  -22.7548  -29.2450   19.8597 H   0  0  0  0  0  0
  -25.1290  -36.1953   25.0834 H   0  0  0  0  0  0
  -20.9996  -28.3264   24.1393 H   0  0  0  0  0  0
  -20.5670  -26.2299   23.3623 H   0  0  0  0  0  0
  -21.6642  -26.7420   22.1207 H   0  0  0  0  0  0
  -19.6890  -25.6288   21.1241 H   0  0  0  0  0  0
  -19.6664  -27.3194   20.6761 H   0  0  0  0  0  0
  -17.4194  -26.6700   21.4032 H   0  0  0  0  0  0
  -18.0302  -26.0063   22.9017 H   0  0  0  0  0  0
  -19.7945  -30.7280   24.2253 H   0  0  0  0  0  0
  -17.5012  -31.6253   24.5176 H   0  0  0  0  0  0
  -15.5353  -30.2969   23.7638 H   0  0  0  0  0  0
  -15.8694  -28.0812   22.7047 H   0  0  0  0  0  0
  -24.5881  -30.7126   25.7831 H   0  0  0  0  0  0
  -24.8963  -32.2919   26.4955 H   0  0  0  0  0  0
  -25.8066  -30.8896   27.0250 H   0  0  0  0  0  0
  -26.2883  -29.6783   24.1217 H   0  0  0  0  0  0
  -27.3988  -29.7271   25.4710 H   0  0  0  0  0  0
  -27.8769  -30.4298   23.9440 H   0  0  0  0  0  0
  -27.2719  -33.3608   26.2095 H   0  0  0  0  0  0
  -28.3861  -32.6859   25.0299 H   0  0  0  0  0  0
  -28.0767  -31.8418   26.5381 H   0  0  0  0  0  0
  -28.2610  -38.0086   24.7497 H   0  0  0  0  0  0
  -28.1053  -36.2619   24.6306 H   0  0  0  0  0  0
  -27.2293  -37.1479   25.8866 H   0  0  0  0  0  0
  -20.9364  -29.8788   21.6906 H   0  0  0  0  0  0
  -26.0179  -38.2864   24.1406 H   0  0  0  0  0  0
  -31.4098  -17.5476   19.4924 H   0  0  0  0  0  0
  -27.8578  -20.0570   21.8835 H   0  0  0  0  0  0
  -27.2210  -25.0149   21.0606 H   0  0  0  0  0  0
  -29.4795  -15.8520   20.1427 H   0  0  0  0  0  0
  -30.7343  -16.0794   21.6858 H   0  0  0  0  0  0
  -30.2214  -22.0668   19.6617 H   0  0  0  0  0  0
  -30.0929  -25.2017   19.2802 H   0  0  0  0  0  0
  1 25  1  0  0  0
  1 30  2  0  0  0
  1 80  1  0  0  0
  2  3  1  0  0  0
  2 25  1  0  0  0
  2 86  1  0  0  0
  2 87  1  0  0  0
  3  4  1  0  0  0
  3 88  1  0  0  0
  3 89  1  0  0  0
  4  5  1  0  0  0
  4 90  1  0  0  0
  4 91  1  0  0  0
  5  6  1  0  0  0
  5 26  1  0  0  0
  5 92  1  0  0  0
  6 25  1  0  0  0
  6 93  1  0  0  0
  6 94  1  0  0  0
  7  8  2  0  0  0
  7 26  1  0  0  0
  7 29  1  0  0  0
  8  9  1  0  0  0
  8 22  1  0  0  0
  9 10  1  0  0  0
  9 27  2  0  0  0
 10 11  2  0  0  0
 10 15  1  0  0  0
 11 12  1  0  0  0
 11 95  1  0  0  0
 12 13  2  0  0  0
 12 96  1  0  0  0
 13 14  1  0  0  0
 13 31  1  0  0  0
 14 15  2  0  0  0
 14 97  1  0  0  0
 15 98  1  0  0  0
 16 17  2  0  0  0
 16 21  1  0  0  0
 16 31  1  0  0  0
 17 18  1  0  0  0
 17 99  1  0  0  0
 18 19  2  0  0  0
 18100  1  0  0  0
 19 20  1  0  0  0
 19 24  1  0  0  0
 20 21  2  0  0  0
 20101  1  0  0  0
 21 23  1  0  0  0
 22 28  1  0  0  0
 22 32  2  0  0  0
 26 27  1  0  0  0
 28102  1  0  0  0
 28103  1  0  0  0
 29104  1  0  0  0
 29105  1  0  0  0
 33 34  1  0  0  0
 33 66  1  0  0  0
 33 70  2  0  0  0
 34 36  1  0  0  0
 34 59  1  0  0  0
 34106  1  0  0  0
 35 44  2  0  0  0
 35 45  1  0  0  0
 35 68  1  0  0  0
 36 56  1  0  0  0
 36107  1  0  0  0
 37 39  1  0  0  0
 37 47  1  0  0  0
 37 66  1  0  0  0
 37108  1  0  0  0
 38 43  2  0  0  0
 38 46  1  0  0  0
 38 47  1  0  0  0
 39 64  1  0  0  0
 39 67  2  0  0  0
 40 52  1  0  0  0
 40 53  2  0  0  0
 40 58  1  0  0  0
 41109  1  0  0  0
 41110  1  0  0  0
 41111  1  0  0  0
 41 48  1  0  0  0
 42 43  1  0  0  0
 42 66  1  0  0  0
 42112  1  0  0  0
 42113  1  0  0  0
 43 44  1  0  0  0
 44114  1  0  0  0
 45 46  2  0  0  0
 45115  1  0  0  0
 46116  1  0  0  0
 47117  1  0  0  0
 47118  1  0  0  0
 48 56  1  0  0  0
 48 65  1  0  0  0
 48119  1  0  0  0
 49 50  1  0  0  0
 49 53  1  0  0  0
 49 64  1  0  0  0
 49120  1  0  0  0
 50 51  1  0  0  0
 50121  1  0  0  0
 50122  1  0  0  0
 51 52  1  0  0  0
 51123  1  0  0  0
 51124  1  0  0  0
 52125  1  0  0  0
 52126  1  0  0  0
 53 54  1  0  0  0
 54 55  2  0  0  0
 54127  1  0  0  0
 55 57  1  0  0  0
 55128  1  0  0  0
 56 69  2  0  0  0
 57 58  2  0  0  0
 57129  1  0  0  0
 58130  1  0  0  0
 59 60  1  0  0  0
 59 61  1  0  0  0
 59 62  1  0  0  0
 60131  1  0  0  0
 60132  1  0  0  0
 60133  1  0  0  0
 61134  1  0  0  0
 61135  1  0  0  0
 61136  1  0  0  0
 62137  1  0  0  0
 62138  1  0  0  0
 62139  1  0  0  0
 63 65  1  0  0  0
 63140  1  0  0  0
 63141  1  0  0  0
 63142  1  0  0  0
 64143  1  0  0  0
 65144  1  0  0  0
 68 77  1  0  0  0
 71 73  2  0  0  0
 71 75  1  0  0  0
 71145  1  0  0  0
 72 74  1  0  0  0
 72 76  2  0  0  0
 72146  1  0  0  0
 73 76  1  0  0  0
 73 80  1  0  0  0
 74 75  2  0  0  0
 74 81  1  0  0  0
 75 84  1  0  0  0
 76 85  1  0  0  0
 77 78  2  0  0  0
 77147  1  0  0  0
 78 79  1  0  0  0
 78 83  1  0  0  0
 79 81  1  0  0  0
 79 82  2  0  0  0
 80148  1  0  0  0
 80149  1  0  0  0
 81150  1  0  0  0
 83151  1  0  0  0
M  ISO  4   1 100  68 101  77 101  80 100
M  END
> <chiral flag>
0

> <version>
0

> <s_m_source_file>
/data/baiqing/PycharmProjects/Reinvent-master-3.2/result/LINK_invent/BTK/process_docking_weight1_custom_product_contain_oxygen_bond_distance_aromatic_linkinvent_7_9_3/rearranged_h_0177.sdf

> <i_m_source_file_index>
8

> <r_mmod_Potential_Energy-OPLS-2005>
155.406753540039

> <r_mmod_Stretch_Energy-OPLS-2005>
73.2423324584961

> <r_mmod_Bend_Energy-OPLS-2005>
337.082611083984

> <r_mmod_Torsional_Energy-OPLS-2005>
167.761276245117

> <r_mmod_Improper_Torsional_Energy-OPLS-2005>
2.46004176139832

> <r_mmod_Van_der_Waal_Energy-OPLS-2005>
152.795227050781

> <r_mmod_Electrostatic_Energy-OPLS-2005>
-420.720764160156

> <r_mmod_Solvation_Energy-OPLS-2005>
-196.400283813477

> <b_mmod_Minimization_Converged-OPLS-2005>
0

> <r_mmod_RMS_Derivative-OPLS-2005>
1.48531532287598

$$$$
8
                    3D
 Structure written by MMmdl.
153161  0  0  1  0            999 V2000
  -30.6781  -14.4905   20.5815 C   0  0  0  0  0  0
  -30.4321  -12.3193   19.4227 C   0  0  0  0  0  0
  -29.4988  -12.5127   18.2081 C   0  0  0  0  0  0
  -28.0195  -12.3666   18.6190 C   0  0  0  0  0  0
  -27.6640  -13.2028   19.8772 C   0  0  2  0  0  0
  -28.7045  -12.9699   20.9964 C   0  0  0  0  0  0
  -25.2605  -13.8149   20.5675 C   0  0  0  0  0  0
  -24.1849  -13.0435   20.9174 C   0  0  0  0  0  0
  -24.6395  -11.6899   20.8731 C   0  0  0  0  0  0
  -23.9057  -10.4290   21.0403 C   0  0  0  0  0  0
  -24.3613   -9.4207   21.9182 C   0  0  0  0  0  0
  -23.6290   -8.2242   22.0753 C   0  0  0  0  0  0
  -22.4272   -8.0281   21.3544 C   0  0  0  0  0  0
  -21.9904   -9.0253   20.4646 C   0  0  0  0  0  0
  -22.7231  -10.2132   20.3054 C   0  0  0  0  0  0
  -21.6850   -6.0737   22.5280 C   0  0  0  0  0  0
  -21.4012   -6.5641   23.8215 C   0  0  0  0  0  0
  -21.3658   -5.6792   24.9175 C   0  0  0  0  0  0
  -21.6044   -4.3055   24.7224 C   0  0  0  0  0  0
  -21.8818   -3.8147   23.4345 C   0  0  0  0  0  0
  -21.9192   -4.6964   22.3402 C   0  0  0  0  0  0
  -22.7874  -13.5243   21.1841 C   0  0  0  0  0  0
  -22.1661   -4.2153   21.0978 F   0  0  0  0  0  0
  -21.5628   -3.4537   25.7736 F   0  0  0  0  0  0
  -30.0374  -13.2933   20.4537 N   0  0  0  0  0  0
  -26.3035  -12.9308   20.3362 N   0  0  0  0  0  0
  -25.9321  -11.6473   20.5760 N   0  0  0  0  0  0
  -22.0507  -12.8238   22.0394 N   0  0  0  0  0  0
  -25.4347  -15.1865   20.4081 N   0  0  0  0  0  0
  -31.7934  -14.6983   20.0903 O   0  0  0  0  0  0
  -21.6637   -6.8878   21.4242 O   0  0  0  0  0  0
  -22.3568  -14.5556   20.6697 O   0  0  0  0  0  0
  -24.6150  -31.8672   23.2093 C   0  0  0  0  0  0
  -25.9040  -32.4822   23.8393 C   0  0  1  0  0  0
  -27.2359  -27.4313   20.1006 C   0  0  0  0  0  0
  -25.5896  -33.8620   24.2329 N   0  0  0  0  0  0
  -23.4042  -30.4895   21.5493 C   0  0  2  0  0  0
  -24.8537  -28.9536   20.1147 C   0  0  0  0  0  0
  -22.7416  -29.4653   22.4986 C   0  0  0  0  0  0
  -18.0270  -28.1382   22.8494 C   0  0  0  0  0  0
  -24.1485  -36.7315   23.2638 C   0  0  0  0  0  0
  -25.9331  -30.8324   21.3626 C   0  0  0  0  0  0
  -26.0137  -29.4656   20.7114 C   0  0  0  0  0  0
  -27.2112  -28.7118   20.7013 C   0  0  0  0  0  0
  -26.0635  -26.9338   19.4969 C   0  0  0  0  0  0
  -24.8735  -27.6869   19.5035 C   0  0  0  0  0  0
  -23.6139  -29.8191   20.1649 C   0  0  0  0  0  0
  -25.4106  -36.3113   24.0340 C   0  0  1  0  0  0
  -20.5863  -28.3667   23.1321 C   0  0  2  0  0  0
  -20.6763  -26.9402   22.5424 C   0  0  0  0  0  0
  -19.5744  -26.6385   21.5219 C   0  0  0  0  0  0
  -18.1917  -26.7932   22.1619 C   0  0  0  0  0  0
  -19.1521  -28.8840   23.2904 C   0  0  0  0  0  0
  -18.9449  -30.1447   23.8911 C   0  0  0  0  0  0
  -17.6452  -30.6588   24.0566 C   0  0  0  0  0  0
  -25.9031  -34.9477   23.5130 C   0  0  0  0  0  0
  -16.5343  -29.9090   23.6329 C   0  0  0  0  0  0
  -16.7260  -28.6508   23.0348 C   0  0  0  0  0  0
  -26.4470  -31.6603   25.0721 C   0  0  0  0  0  0
  -25.3738  -31.3713   26.1472 C   0  0  0  0  0  0
  -27.0299  -30.3047   24.6092 C   0  0  0  0  0  0
  -27.6048  -32.4321   25.7483 C   0  0  0  0  0  0
  -27.5582  -37.1809   24.8462 C   0  0  0  0  0  0
  -21.4143  -29.3034   22.3730 N   0  0  0  0  0  0
  -26.4293  -37.3796   23.9408 N   0  0  0  0  0  0
  -24.6690  -31.0769   22.0993 N   0  0  0  0  0  0
  -23.4188  -28.8191   23.3024 O   0  0  0  0  0  0
  -28.3712  -26.6521   20.1009 O   0  0  0  0  0  0
  -26.5590  -34.8929   22.4689 O   0  0  0  0  0  0
  -23.5341  -32.1419   23.7490 O   0  0  0  0  0  0
  -29.7351  -19.3280   21.4586 C   0  0  0  0  0  0
  -30.7443  -18.9671   20.5821 C   0  0  0  0  0  0
  -30.0456  -16.8680   21.1761 C   0  0  0  0  0  0
  -29.2820  -20.6350   21.9436 C   0  0  0  0  0  0
  -28.8040  -24.2321   20.5998 C   0  0  0  0  0  0
  -28.7692  -23.0914   21.6353 C   0  0  0  0  0  0
  -28.3395  -25.6194   21.1070 C   0  0  0  0  0  0
  -30.8983  -17.5792   20.4242 N   0  0  0  0  0  0
  -31.5992  -19.8187   19.8758 N   0  0  0  0  0  0
  -29.9623  -15.4402   21.2194 N   0  0  0  0  0  0
  -29.2227  -21.7517   21.1713 N   0  0  0  0  0  0
  -28.8998  -20.7286   23.2306 N   0  3  0  0  0  0
  -29.1783  -24.0393   19.4362 O   0  0  0  0  0  0
  -28.9501  -17.8898   22.0999 S   0  0  0  0  0  0
  -31.4750  -12.4319   19.1209 H   0  0  0  0  0  0
  -30.3463  -11.3047   19.8148 H   0  0  0  0  0  0
  -29.7426  -11.7903   17.4279 H   0  0  0  0  0  0
  -29.6621  -13.4993   17.7713 H   0  0  0  0  0  0
  -27.8324  -11.3098   18.8134 H   0  0  0  0  0  0
  -27.3685  -12.6405   17.7880 H   0  0  0  0  0  0
  -27.7114  -14.2523   19.5859 H   0  0  0  0  0  0
  -28.6860  -11.9264   21.3147 H   0  0  0  0  0  0
  -28.4536  -13.5428   21.8902 H   0  0  0  0  0  0
  -25.2760   -9.5683   22.4753 H   0  0  0  0  0  0
  -24.0002   -7.4631   22.7471 H   0  0  0  0  0  0
  -21.0835   -8.8767   19.8952 H   0  0  0  0  0  0
  -22.3690  -10.9669   19.6159 H   0  0  0  0  0  0
  -21.2002   -7.6149   23.9719 H   0  0  0  0  0  0
  -21.1480   -6.0520   25.9078 H   0  0  0  0  0  0
  -22.0598   -2.7610   23.2841 H   0  0  0  0  0  0
  -22.4110  -11.9891   22.4773 H   0  0  0  0  0  0
  -21.1128  -13.1272   22.2599 H   0  0  0  0  0  0
  -24.6655  -15.8406   20.5047 H   0  0  0  0  0  0
  -26.2822  -15.6205   20.0650 H   0  0  0  0  0  0
  -26.7113  -32.5538   23.1160 H   0  0  0  0  0  0
  -25.0069  -33.9787   25.0489 H   0  0  0  0  0  0
  -22.6928  -31.3060   21.4088 H   0  0  0  0  0  0
  -23.3748  -35.9646   23.3306 H   0  0  0  0  0  0
  -24.3580  -36.8923   22.2051 H   0  0  0  0  0  0
  -23.7238  -37.6522   23.6647 H   0  0  0  0  0  0
  -26.0431  -31.5975   20.5930 H   0  0  0  0  0  0
  -26.8217  -30.8891   21.9794 H   0  0  0  0  0  0
  -28.1073  -29.1019   21.1639 H   0  0  0  0  0  0
  -26.0714  -25.9607   19.0261 H   0  0  0  0  0  0
  -23.9821  -27.2880   19.0388 H   0  0  0  0  0  0
  -23.7192  -30.5924   19.4033 H   0  0  0  0  0  0
  -22.7392  -29.2361   19.8714 H   0  0  0  0  0  0
  -25.1286  -36.1976   25.0833 H   0  0  0  0  0  0
  -20.9954  -28.3230   24.1442 H   0  0  0  0  0  0
  -20.5667  -26.2273   23.3611 H   0  0  0  0  0  0
  -21.6633  -26.7446   22.1213 H   0  0  0  0  0  0
  -19.6904  -25.6299   21.1239 H   0  0  0  0  0  0
  -19.6693  -27.3204   20.6759 H   0  0  0  0  0  0
  -17.4198  -26.6699   21.4007 H   0  0  0  0  0  0
  -18.0299  -26.0066   22.9003 H   0  0  0  0  0  0
  -19.7927  -30.7259   24.2287 H   0  0  0  0  0  0
  -17.5010  -31.6273   24.5159 H   0  0  0  0  0  0
  -15.5344  -30.2995   23.7651 H   0  0  0  0  0  0
  -15.8658  -28.0834   22.7051 H   0  0  0  0  0  0
  -24.5916  -30.7048   25.7819 H   0  0  0  0  0  0
  -24.8919  -32.2869   26.4911 H   0  0  0  0  0  0
  -25.8093  -30.8897   27.0236 H   0  0  0  0  0  0
  -26.2843  -29.6812   24.1143 H   0  0  0  0  0  0
  -27.4072  -29.7276   25.4545 H   0  0  0  0  0  0
  -27.8676  -30.4372   23.9241 H   0  0  0  0  0  0
  -27.2668  -33.3608   26.2093 H   0  0  0  0  0  0
  -28.3841  -32.6902   25.0300 H   0  0  0  0  0  0
  -28.0735  -31.8426   26.5373 H   0  0  0  0  0  0
  -28.2603  -38.0102   24.7508 H   0  0  0  0  0  0
  -28.1074  -36.2637   24.6285 H   0  0  0  0  0  0
  -27.2303  -37.1453   25.8865 H   0  0  0  0  0  0
  -20.9300  -29.8760   21.6959 H   0  0  0  0  0  0
  -26.0187  -38.2875   24.1406 H   0  0  0  0  0  0
  -27.7457  -23.0065   22.0001 H   0  0  0  0  0  0
  -29.3847  -23.3954   22.4816 H   0  0  0  0  0  0
  -28.9858  -25.9219   21.9309 H   0  0  0  0  0  0
  -27.3369  -25.5063   21.5232 H   0  0  0  0  0  0
  -31.7635  -20.7582   20.2191 H   0  0  0  0  0  0
  -32.4155  -19.4095   19.4340 H   0  0  0  0  0  0
  -29.1401  -15.0841   21.6808 H   0  0  0  0  0  0
  -29.4821  -21.6954   20.1943 H   0  0  0  0  0  0
  -28.9443  -19.9132   23.8238 H   0  0  0  0  0  0
  -28.5691  -21.5797   23.6540 H   0  0  0  0  0  0
  1 25  1  0  0  0
  1 30  2  0  0  0
  1 80  1  0  0  0
  2  3  1  0  0  0
  2 25  1  0  0  0
  2 85  1  0  0  0
  2 86  1  0  0  0
  3  4  1  0  0  0
  3 87  1  0  0  0
  3 88  1  0  0  0
  4  5  1  0  0  0
  4 89  1  0  0  0
  4 90  1  0  0  0
  5  6  1  0  0  0
  5 26  1  0  0  0
  5 91  1  0  0  0
  6 25  1  0  0  0
  6 92  1  0  0  0
  6 93  1  0  0  0
  7  8  2  0  0  0
  7 26  1  0  0  0
  7 29  1  0  0  0
  8  9  1  0  0  0
  8 22  1  0  0  0
  9 10  1  0  0  0
  9 27  2  0  0  0
 10 11  2  0  0  0
 10 15  1  0  0  0
 11 12  1  0  0  0
 11 94  1  0  0  0
 12 13  2  0  0  0
 12 95  1  0  0  0
 13 14  1  0  0  0
 13 31  1  0  0  0
 14 15  2  0  0  0
 14 96  1  0  0  0
 15 97  1  0  0  0
 16 17  2  0  0  0
 16 21  1  0  0  0
 16 31  1  0  0  0
 17 18  1  0  0  0
 17 98  1  0  0  0
 18 19  2  0  0  0
 18 99  1  0  0  0
 19 20  1  0  0  0
 19 24  1  0  0  0
 20 21  2  0  0  0
 20100  1  0  0  0
 21 23  1  0  0  0
 22 28  1  0  0  0
 22 32  2  0  0  0
 26 27  1  0  0  0
 28101  1  0  0  0
 28102  1  0  0  0
 29103  1  0  0  0
 29104  1  0  0  0
 33 34  1  0  0  0
 33 66  1  0  0  0
 33 70  2  0  0  0
 34 36  1  0  0  0
 34 59  1  0  0  0
 34105  1  0  0  0
 35 44  2  0  0  0
 35 45  1  0  0  0
 35 68  1  0  0  0
 36 56  1  0  0  0
 36106  1  0  0  0
 37 39  1  0  0  0
 37 47  1  0  0  0
 37 66  1  0  0  0
 37107  1  0  0  0
 38 43  2  0  0  0
 38 46  1  0  0  0
 38 47  1  0  0  0
 39 64  1  0  0  0
 39 67  2  0  0  0
 40 52  1  0  0  0
 40 53  2  0  0  0
 40 58  1  0  0  0
 41108  1  0  0  0
 41109  1  0  0  0
 41110  1  0  0  0
 41 48  1  0  0  0
 42 43  1  0  0  0
 42 66  1  0  0  0
 42111  1  0  0  0
 42112  1  0  0  0
 43 44  1  0  0  0
 44113  1  0  0  0
 45 46  2  0  0  0
 45114  1  0  0  0
 46115  1  0  0  0
 47116  1  0  0  0
 47117  1  0  0  0
 48 56  1  0  0  0
 48 65  1  0  0  0
 48118  1  0  0  0
 49 50  1  0  0  0
 49 53  1  0  0  0
 49 64  1  0  0  0
 49119  1  0  0  0
 50 51  1  0  0  0
 50120  1  0  0  0
 50121  1  0  0  0
 51 52  1  0  0  0
 51122  1  0  0  0
 51123  1  0  0  0
 52124  1  0  0  0
 52125  1  0  0  0
 53 54  1  0  0  0
 54 55  2  0  0  0
 54126  1  0  0  0
 55 57  1  0  0  0
 55127  1  0  0  0
 56 69  2  0  0  0
 57 58  2  0  0  0
 57128  1  0  0  0
 58129  1  0  0  0
 59 60  1  0  0  0
 59 61  1  0  0  0
 59 62  1  0  0  0
 60130  1  0  0  0
 60131  1  0  0  0
 60132  1  0  0  0
 61133  1  0  0  0
 61134  1  0  0  0
 61135  1  0  0  0
 62136  1  0  0  0
 62137  1  0  0  0
 62138  1  0  0  0
 63 65  1  0  0  0
 63139  1  0  0  0
 63140  1  0  0  0
 63141  1  0  0  0
 64142  1  0  0  0
 65143  1  0  0  0
 68 77  1  0  0  0
 71 72  2  0  0  0
 71 74  1  0  0  0
 71 84  1  0  0  0
 72 78  1  0  0  0
 72 79  1  0  0  0
 73 78  2  0  0  0
 73 80  1  0  0  0
 73 84  1  0  0  0
 74 81  1  0  0  0
 74 82  2  0  0  0
 75 76  1  0  0  0
 75 77  1  0  0  0
 75 83  2  0  0  0
 76 81  1  0  0  0
 76144  1  0  0  0
 76145  1  0  0  0
 77146  1  0  0  0
 77147  1  0  0  0
 79148  1  0  0  0
 79149  1  0  0  0
 80150  1  0  0  0
 81151  1  0  0  0
 82152  1  0  0  0
 82153  1  0  0  0
M  CHG  1  82   1
M  ISO  4   1 100  68 101  77 101  80 100
M  END
> <chiral flag>
0

> <version>
0

> <s_m_source_file>
/data/baiqing/PycharmProjects/Reinvent-master-3.2/result/LINK_invent/BTK/process_docking_weight1_custom_product_contain_oxygen_bond_distance_aromatic_linkinvent_7_9_3/rearranged_h_0177.sdf

> <i_m_source_file_index>
9

> <r_mmod_Potential_Energy-OPLS-2005>
-293.918518066406

> <r_mmod_Stretch_Energy-OPLS-2005>
39.0655097961426

> <r_mmod_Bend_Energy-OPLS-2005>
107.515121459961

> <r_mmod_Torsional_Energy-OPLS-2005>
226.370422363281

> <r_mmod_Improper_Torsional_Energy-OPLS-2005>
5.82246589660645

> <r_mmod_Van_der_Waal_Energy-OPLS-2005>
127.749061584473

> <r_mmod_Electrostatic_Energy-OPLS-2005>
-292.784851074219

> <r_mmod_Solvation_Energy-OPLS-2005>
-521.224548339844

> <b_mmod_Minimization_Converged-OPLS-2005>
0

> <r_mmod_RMS_Derivative-OPLS-2005>
0.503661394119263

$$$$
9
                    3D
 Structure written by MMmdl.
153161  0  0  1  0            999 V2000
  -30.6921  -14.5101   20.5333 C   0  0  0  0  0  0
  -30.4264  -12.3097   19.4524 C   0  0  0  0  0  0
  -29.5097  -12.4934   18.2242 C   0  0  0  0  0  0
  -28.0278  -12.3613   18.6282 C   0  0  0  0  0  0
  -27.6635  -13.2128   19.8749 C   0  0  2  0  0  0
  -28.7036  -13.0287   21.0051 C   0  0  0  0  0  0
  -25.2608  -13.8170   20.5693 C   0  0  0  0  0  0
  -24.1853  -13.0450   20.9169 C   0  0  0  0  0  0
  -24.6406  -11.6910   20.8731 C   0  0  0  0  0  0
  -23.9066  -10.4302   21.0405 C   0  0  0  0  0  0
  -24.3628   -9.4220   21.9178 C   0  0  0  0  0  0
  -23.6307   -8.2250   22.0753 C   0  0  0  0  0  0
  -22.4279   -8.0285   21.3556 C   0  0  0  0  0  0
  -21.9921   -9.0246   20.4644 C   0  0  0  0  0  0
  -22.7249  -10.2130   20.3049 C   0  0  0  0  0  0
  -21.6852   -6.0743   22.5285 C   0  0  0  0  0  0
  -21.4012   -6.5638   23.8223 C   0  0  0  0  0  0
  -21.3665   -5.6786   24.9184 C   0  0  0  0  0  0
  -21.6054   -4.3055   24.7232 C   0  0  0  0  0  0
  -21.8817   -3.8148   23.4348 C   0  0  0  0  0  0
  -21.9193   -4.6968   22.3410 C   0  0  0  0  0  0
  -22.7880  -13.5257   21.1842 C   0  0  0  0  0  0
  -22.1663   -4.2154   21.0990 F   0  0  0  0  0  0
  -21.5630   -3.4536   25.7741 F   0  0  0  0  0  0
  -30.0360  -13.3187   20.4536 N   0  0  0  0  0  0
  -26.3042  -12.9343   20.3360 N   0  0  0  0  0  0
  -25.9345  -11.6507   20.5763 N   0  0  0  0  0  0
  -22.0514  -12.8236   22.0376 N   0  0  0  0  0  0
  -25.4392  -15.1887   20.4165 N   0  0  0  0  0  0
  -31.8329  -14.6549   20.0849 O   0  0  0  0  0  0
  -21.6649   -6.8888   21.4245 O   0  0  0  0  0  0
  -22.3572  -14.5578   20.6702 O   0  0  0  0  0  0
  -24.6161  -31.8657   23.2066 C   0  0  0  0  0  0
  -25.9025  -32.4823   23.8383 C   0  0  1  0  0  0
  -27.2341  -27.4096   20.1112 C   0  0  0  0  0  0
  -25.5870  -33.8617   24.2308 N   0  0  0  0  0  0
  -23.4062  -30.4864   21.5490 C   0  0  2  0  0  0
  -24.8545  -28.9486   20.1147 C   0  0  0  0  0  0
  -22.7429  -29.4638   22.4998 C   0  0  0  0  0  0
  -18.0267  -28.1369   22.8504 C   0  0  0  0  0  0
  -24.1482  -36.7313   23.2645 C   0  0  0  0  0  0
  -25.9360  -30.8268   21.3606 C   0  0  0  0  0  0
  -26.0165  -29.4596   20.7085 C   0  0  0  0  0  0
  -27.2137  -28.6998   20.6972 C   0  0  0  0  0  0
  -26.0574  -26.9168   19.5127 C   0  0  0  0  0  0
  -24.8717  -27.6787   19.5120 C   0  0  0  0  0  0
  -23.6134  -29.8139   20.1661 C   0  0  0  0  0  0
  -25.4114  -36.3114   24.0341 C   0  0  1  0  0  0
  -20.5870  -28.3649   23.1324 C   0  0  2  0  0  0
  -20.6760  -26.9386   22.5427 C   0  0  0  0  0  0
  -19.5742  -26.6372   21.5225 C   0  0  0  0  0  0
  -18.1916  -26.7916   22.1632 C   0  0  0  0  0  0
  -19.1526  -28.8825   23.2908 C   0  0  0  0  0  0
  -18.9450  -30.1434   23.8915 C   0  0  0  0  0  0
  -17.6455  -30.6580   24.0559 C   0  0  0  0  0  0
  -25.9049  -34.9478   23.5135 C   0  0  0  0  0  0
  -16.5341  -29.9094   23.6315 C   0  0  0  0  0  0
  -16.7258  -28.6504   23.0354 C   0  0  0  0  0  0
  -26.4446  -31.6598   25.0709 C   0  0  0  0  0  0
  -25.3708  -31.3696   26.1460 C   0  0  0  0  0  0
  -27.0256  -30.3045   24.6056 C   0  0  0  0  0  0
  -27.6015  -32.4303   25.7475 C   0  0  0  0  0  0
  -27.5584  -37.1813   24.8465 C   0  0  0  0  0  0
  -21.4152  -29.3028   22.3750 N   0  0  0  0  0  0
  -26.4299  -37.3804   23.9409 N   0  0  0  0  0  0
  -24.6713  -31.0745   22.0981 N   0  0  0  0  0  0
  -23.4196  -28.8191   23.3049 O   0  0  0  0  0  0
  -28.3731  -26.6244   20.1000 O   0  0  0  0  0  0
  -26.5622  -34.8939   22.4702 O   0  0  0  0  0  0
  -23.5340  -32.1403   23.7450 O   0  0  0  0  0  0
  -29.6797  -19.2102   20.8371 C   0  0  0  0  0  0
  -30.5953  -19.1827   19.8099 C   0  0  0  0  0  0
  -30.1369  -16.9379   20.6802 C   0  0  0  0  0  0
  -29.0052  -20.4441   21.4113 C   0  0  0  0  0  0
  -29.1692  -26.0653   22.2656 C   0  0  0  0  0  0
  -28.9821  -24.1991   20.4862 C   0  0  0  0  0  0
  -28.7845  -22.9465   21.4080 C   0  0  0  0  0  0
  -28.3827  -25.5353   21.0550 C   0  0  2  0  0  0
  -29.4262  -17.8932   21.3133 N   0  0  0  0  0  0
  -29.9831  -15.5522   21.0203 N   0  0  0  0  0  0
  -29.3159  -21.6585   20.8963 N   0  0  0  0  0  0
  -28.1955  -20.3403   22.3387 O   0  0  0  0  0  0
  -31.0449  -20.2790   19.1469 F   0  0  0  0  0  0
  -31.1609  -17.5883   19.3905 S   0  0  0  0  0  0
  -31.4750  -12.3884   19.1619 H   0  0  0  0  0  0
  -30.3156  -11.3069   19.8697 H   0  0  0  0  0  0
  -29.7550  -11.7587   17.4562 H   0  0  0  0  0  0
  -29.6844  -13.4726   17.7770 H   0  0  0  0  0  0
  -27.8365  -11.3076   18.8296 H   0  0  0  0  0  0
  -27.3831  -12.6288   17.7902 H   0  0  0  0  0  0
  -27.6976  -14.2559   19.5584 H   0  0  0  0  0  0
  -28.6749  -12.0075   21.3855 H   0  0  0  0  0  0
  -28.4659  -13.6648   21.8593 H   0  0  0  0  0  0
  -25.2789   -9.5684   22.4747 H   0  0  0  0  0  0
  -24.0017   -7.4640   22.7470 H   0  0  0  0  0  0
  -21.0858   -8.8777   19.8954 H   0  0  0  0  0  0
  -22.3725  -10.9668   19.6145 H   0  0  0  0  0  0
  -21.1997   -7.6144   23.9731 H   0  0  0  0  0  0
  -21.1500   -6.0518   25.9093 H   0  0  0  0  0  0
  -22.0596   -2.7606   23.2849 H   0  0  0  0  0  0
  -22.4119  -11.9894   22.4766 H   0  0  0  0  0  0
  -21.1138  -13.1269   22.2589 H   0  0  0  0  0  0
  -24.6852  -15.8557   20.5464 H   0  0  0  0  0  0
  -26.3033  -15.6239   20.1168 H   0  0  0  0  0  0
  -26.7096  -32.5531   23.1145 H   0  0  0  0  0  0
  -24.9965  -33.9774   25.0410 H   0  0  0  0  0  0
  -22.6963  -31.3043   21.4089 H   0  0  0  0  0  0
  -23.3755  -35.9640   23.3327 H   0  0  0  0  0  0
  -24.3569  -36.8907   22.2055 H   0  0  0  0  0  0
  -23.7232  -37.6522   23.6643 H   0  0  0  0  0  0
  -26.0506  -31.5908   20.5908 H   0  0  0  0  0  0
  -26.8232  -30.8812   21.9789 H   0  0  0  0  0  0
  -28.1123  -29.0904   21.1508 H   0  0  0  0  0  0
  -26.0558  -25.9354   19.0579 H   0  0  0  0  0  0
  -23.9768  -27.2791   19.0546 H   0  0  0  0  0  0
  -23.7110  -30.5843   19.4011 H   0  0  0  0  0  0
  -22.7387  -29.2271   19.8794 H   0  0  0  0  0  0
  -25.1288  -36.1983   25.0838 H   0  0  0  0  0  0
  -20.9939  -28.3201   24.1453 H   0  0  0  0  0  0
  -20.5661  -26.2257   23.3616 H   0  0  0  0  0  0
  -21.6630  -26.7421   22.1226 H   0  0  0  0  0  0
  -19.6905  -25.6287   21.1253 H   0  0  0  0  0  0
  -19.6686  -27.3180   20.6758 H   0  0  0  0  0  0
  -17.4187  -26.6665   21.4027 H   0  0  0  0  0  0
  -18.0305  -26.0049   22.9018 H   0  0  0  0  0  0
  -19.7929  -30.7242   24.2306 H   0  0  0  0  0  0
  -17.5011  -31.6274   24.5152 H   0  0  0  0  0  0
  -15.5349  -30.3008   23.7633 H   0  0  0  0  0  0
  -15.8651  -28.0833   22.7071 H   0  0  0  0  0  0
  -24.5815  -30.7138   25.7774 H   0  0  0  0  0  0
  -24.8989  -32.2866   26.4987 H   0  0  0  0  0  0
  -25.8040  -30.8766   27.0166 H   0  0  0  0  0  0
  -26.2789  -29.6871   24.1042 H   0  0  0  0  0  0
  -27.3970  -29.7216   25.4491 H   0  0  0  0  0  0
  -27.8654  -30.4384   23.9233 H   0  0  0  0  0  0
  -27.2595  -33.3550   26.2127 H   0  0  0  0  0  0
  -28.3799  -32.6939   25.0303 H   0  0  0  0  0  0
  -28.0711  -31.8388   26.5341 H   0  0  0  0  0  0
  -28.2611  -38.0097   24.7499 H   0  0  0  0  0  0
  -28.1065  -36.2630   24.6299 H   0  0  0  0  0  0
  -27.2303  -37.1476   25.8868 H   0  0  0  0  0  0
  -20.9325  -29.8745   21.6961 H   0  0  0  0  0  0
  -26.0196  -38.2892   24.1399 H   0  0  0  0  0  0
  -29.2542  -25.3249   23.0587 H   0  0  0  0  0  0
  -28.6851  -26.9440   22.6955 H   0  0  0  0  0  0
  -30.1793  -26.3579   21.9739 H   0  0  0  0  0  0
  -28.5120  -23.9908   19.5245 H   0  0  0  0  0  0
  -30.0439  -24.3382   20.2799 H   0  0  0  0  0  0
  -27.7188  -22.8300   21.6100 H   0  0  0  0  0  0
  -29.2511  -23.1287   22.3776 H   0  0  0  0  0  0
  -27.3623  -25.3157   21.3759 H   0  0  0  0  0  0
  -29.1422  -15.3129   21.5195 H   0  0  0  0  0  0
  -30.0046  -21.6754   20.1535 H   0  0  0  0  0  0
  1 25  1  0  0  0
  1 30  2  0  0  0
  1 80  1  0  0  0
  2  3  1  0  0  0
  2 25  1  0  0  0
  2 85  1  0  0  0
  2 86  1  0  0  0
  3  4  1  0  0  0
  3 87  1  0  0  0
  3 88  1  0  0  0
  4  5  1  0  0  0
  4 89  1  0  0  0
  4 90  1  0  0  0
  5  6  1  0  0  0
  5 26  1  0  0  0
  5 91  1  0  0  0
  6 25  1  0  0  0
  6 92  1  0  0  0
  6 93  1  0  0  0
  7  8  2  0  0  0
  7 26  1  0  0  0
  7 29  1  0  0  0
  8  9  1  0  0  0
  8 22  1  0  0  0
  9 10  1  0  0  0
  9 27  2  0  0  0
 10 11  2  0  0  0
 10 15  1  0  0  0
 11 12  1  0  0  0
 11 94  1  0  0  0
 12 13  2  0  0  0
 12 95  1  0  0  0
 13 14  1  0  0  0
 13 31  1  0  0  0
 14 15  2  0  0  0
 14 96  1  0  0  0
 15 97  1  0  0  0
 16 17  2  0  0  0
 16 21  1  0  0  0
 16 31  1  0  0  0
 17 18  1  0  0  0
 17 98  1  0  0  0
 18 19  2  0  0  0
 18 99  1  0  0  0
 19 20  1  0  0  0
 19 24  1  0  0  0
 20 21  2  0  0  0
 20100  1  0  0  0
 21 23  1  0  0  0
 22 28  1  0  0  0
 22 32  2  0  0  0
 26 27  1  0  0  0
 28101  1  0  0  0
 28102  1  0  0  0
 29103  1  0  0  0
 29104  1  0  0  0
 33 34  1  0  0  0
 33 66  1  0  0  0
 33 70  2  0  0  0
 34 36  1  0  0  0
 34 59  1  0  0  0
 34105  1  0  0  0
 35 44  2  0  0  0
 35 45  1  0  0  0
 35 68  1  0  0  0
 36 56  1  0  0  0
 36106  1  0  0  0
 37 39  1  0  0  0
 37 47  1  0  0  0
 37 66  1  0  0  0
 37107  1  0  0  0
 38 43  2  0  0  0
 38 46  1  0  0  0
 38 47  1  0  0  0
 39 64  1  0  0  0
 39 67  2  0  0  0
 40 52  1  0  0  0
 40 53  2  0  0  0
 40 58  1  0  0  0
 41108  1  0  0  0
 41109  1  0  0  0
 41110  1  0  0  0
 41 48  1  0  0  0
 42 43  1  0  0  0
 42 66  1  0  0  0
 42111  1  0  0  0
 42112  1  0  0  0
 43 44  1  0  0  0
 44113  1  0  0  0
 45 46  2  0  0  0
 45114  1  0  0  0
 46115  1  0  0  0
 47116  1  0  0  0
 47117  1  0  0  0
 48 56  1  0  0  0
 48 65  1  0  0  0
 48118  1  0  0  0
 49 50  1  0  0  0
 49 53  1  0  0  0
 49 64  1  0  0  0
 49119  1  0  0  0
 50 51  1  0  0  0
 50120  1  0  0  0
 50121  1  0  0  0
 51 52  1  0  0  0
 51122  1  0  0  0
 51123  1  0  0  0
 52124  1  0  0  0
 52125  1  0  0  0
 53 54  1  0  0  0
 54 55  2  0  0  0
 54126  1  0  0  0
 55 57  1  0  0  0
 55127  1  0  0  0
 56 69  2  0  0  0
 57 58  2  0  0  0
 57128  1  0  0  0
 58129  1  0  0  0
 59 60  1  0  0  0
 59 61  1  0  0  0
 59 62  1  0  0  0
 60130  1  0  0  0
 60131  1  0  0  0
 60132  1  0  0  0
 61133  1  0  0  0
 61134  1  0  0  0
 61135  1  0  0  0
 62136  1  0  0  0
 62137  1  0  0  0
 62138  1  0  0  0
 63 65  1  0  0  0
 63139  1  0  0  0
 63140  1  0  0  0
 63141  1  0  0  0
 64142  1  0  0  0
 65143  1  0  0  0
 68 78  1  0  0  0
 71 72  2  0  0  0
 71 74  1  0  0  0
 71 79  1  0  0  0
 72 83  1  0  0  0
 72 84  1  0  0  0
 73 79  2  0  0  0
 73 80  1  0  0  0
 73 84  1  0  0  0
 74 81  1  0  0  0
 74 82  2  0  0  0
 75144  1  0  0  0
 75145  1  0  0  0
 75146  1  0  0  0
 75 78  1  0  0  0
 76 77  1  0  0  0
 76 78  1  0  0  0
 76147  1  0  0  0
 76148  1  0  0  0
 77 81  1  0  0  0
 77149  1  0  0  0
 77150  1  0  0  0
 78151  1  0  0  0
 80152  1  0  0  0
 81153  1  0  0  0
M  ISO  4   1 100  68 101  78 101  80 100
M  END
> <chiral flag>
0

> <version>
0

> <s_m_source_file>
/data/baiqing/PycharmProjects/Reinvent-master-3.2/result/LINK_invent/BTK/process_docking_weight1_custom_product_contain_oxygen_bond_distance_aromatic_linkinvent_7_9_3/rearranged_h_0177.sdf

> <i_m_source_file_index>
10

> <r_mmod_Potential_Energy-OPLS-2005>
-93.815544128418

> <r_mmod_Stretch_Energy-OPLS-2005>
45.6911582946777

> <r_mmod_Bend_Energy-OPLS-2005>
102.610717773438

> <r_mmod_Torsional_Energy-OPLS-2005>
237.701553344727

> <r_mmod_Improper_Torsional_Energy-OPLS-2005>
3.44493627548218

> <r_mmod_Van_der_Waal_Energy-OPLS-2005>
127.569702148438

> <r_mmod_Electrostatic_Energy-OPLS-2005>
-403.97900390625

> <r_mmod_Solvation_Energy-OPLS-2005>
-224.794845581055

> <b_mmod_Minimization_Converged-OPLS-2005>
0

> <r_mmod_RMS_Derivative-OPLS-2005>
2.72057938575745

$$$$
10
                    3D
 Structure written by MMmdl.
151159  0  0  1  0            999 V2000
  -30.5976  -14.6886   20.4297 C   0  0  0  0  0  0
  -30.4356  -12.4284   19.4349 C   0  0  0  0  0  0
  -29.5148  -12.5406   18.1994 C   0  0  0  0  0  0
  -28.0163  -12.4451   18.5777 C   0  0  0  0  0  0
  -27.6509  -13.2524   19.8551 C   0  0  2  0  0  0
  -28.7033  -13.0982   20.9784 C   0  0  0  0  0  0
  -25.2482  -13.8257   20.5682 C   0  0  0  0  0  0
  -24.1829  -13.0449   20.9234 C   0  0  0  0  0  0
  -24.6448  -11.6955   20.8712 C   0  0  0  0  0  0
  -23.9143  -10.4336   21.0359 C   0  0  0  0  0  0
  -24.3711   -9.4243   21.9112 C   0  0  0  0  0  0
  -23.6401   -8.2266   22.0702 C   0  0  0  0  0  0
  -22.4348   -8.0285   21.3506 C   0  0  0  0  0  0
  -21.9987   -9.0272   20.4602 C   0  0  0  0  0  0
  -22.7323  -10.2157   20.2990 C   0  0  0  0  0  0
  -21.6887   -6.0770   22.5300 C   0  0  0  0  0  0
  -21.4011   -6.5661   23.8242 C   0  0  0  0  0  0
  -21.3649   -5.6784   24.9182 C   0  0  0  0  0  0
  -21.6065   -4.3060   24.7207 C   0  0  0  0  0  0
  -21.8816   -3.8177   23.4310 C   0  0  0  0  0  0
  -21.9191   -4.7019   22.3385 C   0  0  0  0  0  0
  -22.7807  -13.5194   21.1910 C   0  0  0  0  0  0
  -22.1652   -4.2193   21.0973 F   0  0  0  0  0  0
  -21.5654   -3.4535   25.7704 F   0  0  0  0  0  0
  -30.0056  -13.4535   20.4065 N   0  0  0  0  0  0
  -26.2997  -12.9504   20.3263 N   0  0  0  0  0  0
  -25.9419  -11.6632   20.5732 N   0  0  0  0  0  0
  -22.0482  -12.8139   22.0467 N   0  0  0  0  0  0
  -25.4152  -15.2000   20.4099 N   0  0  0  0  0  0
  -31.7809  -14.8196   20.1109 O   0  0  0  0  0  0
  -21.6680   -6.8889   21.4228 O   0  0  0  0  0  0
  -22.3449  -14.5486   20.6791 O   0  0  0  0  0  0
  -24.6266  -31.8544   23.1990 C   0  0  0  0  0  0
  -25.9067  -32.4774   23.8369 C   0  0  1  0  0  0
  -27.2574  -27.3335   20.1180 C   0  0  0  0  0  0
  -25.5858  -33.8577   24.2329 N   0  0  0  0  0  0
  -23.4255  -30.4736   21.5430 C   0  0  2  0  0  0
  -24.8858  -28.9287   20.1071 C   0  0  0  0  0  0
  -22.7489  -29.4574   22.4909 C   0  0  0  0  0  0
  -18.0237  -28.1352   22.8481 C   0  0  0  0  0  0
  -24.1458  -36.7303   23.2676 C   0  0  0  0  0  0
  -25.9663  -30.7809   21.3784 C   0  0  0  0  0  0
  -26.0459  -29.4128   20.7230 C   0  0  0  0  0  0
  -27.2286  -28.6212   20.7322 C   0  0  0  0  0  0
  -26.0781  -26.8924   19.4751 C   0  0  0  0  0  0
  -24.9025  -27.6701   19.4788 C   0  0  0  0  0  0
  -23.6468  -29.8060   20.1605 C   0  0  0  0  0  0
  -25.4083  -36.3110   24.0393 C   0  0  1  0  0  0
  -20.5868  -28.3636   23.1314 C   0  0  2  0  0  0
  -20.6726  -26.9311   22.5471 C   0  0  0  0  0  0
  -19.5714  -26.6306   21.5254 C   0  0  0  0  0  0
  -18.1889  -26.7880   22.1625 C   0  0  0  0  0  0
  -19.1503  -28.8798   23.2901 C   0  0  0  0  0  0
  -18.9415  -30.1425   23.8883 C   0  0  0  0  0  0
  -17.6415  -30.6567   24.0532 C   0  0  0  0  0  0
  -25.8992  -34.9456   23.5174 C   0  0  0  0  0  0
  -16.5308  -29.9064   23.6334 C   0  0  0  0  0  0
  -16.7227  -28.6489   23.0349 C   0  0  0  0  0  0
  -26.4432  -31.6607   25.0794 C   0  0  0  0  0  0
  -25.3659  -31.3740   26.1547 C   0  0  0  0  0  0
  -27.0345  -30.3059   24.6288 C   0  0  0  0  0  0
  -27.5981  -32.4358   25.7559 C   0  0  0  0  0  0
  -27.5574  -37.1814   24.8452 C   0  0  0  0  0  0
  -21.4185  -29.2995   22.3690 N   0  0  0  0  0  0
  -26.4266  -37.3802   23.9424 N   0  0  0  0  0  0
  -24.6906  -31.0540   22.0955 N   0  0  0  0  0  0
  -23.4198  -28.8089   23.2993 O   0  0  0  0  0  0
  -28.3643  -26.4823   20.2475 O   0  0  0  0  0  0
  -26.5556  -34.8913   22.4739 O   0  0  0  0  0  0
  -23.5438  -32.1362   23.7269 O   0  0  0  0  0  0
  -30.1107  -17.3606   18.7172 C   0  0  0  0  0  0
  -29.8628  -17.1341   20.0614 C   0  0  0  0  0  0
  -29.5676  -19.4669   19.9504 C   0  0  0  0  0  0
  -28.6655  -25.5289   19.2788 C   0  0  0  0  0  0
  -29.0221  -24.1956   19.3863 C   0  0  0  0  0  0
  -29.1181  -23.3373   20.6401 C   0  0  0  0  0  0
  -29.8502  -21.8926   20.5986 C   0  0  0  0  0  0
  -30.2547  -16.3797   17.5966 C   0  0  0  0  0  0
  -29.4791  -18.3481   20.7309 N   0  0  0  0  0  0
  -29.7873  -15.7830   20.6383 N   0  0  0  0  0  0
  -29.0882  -20.7975   20.2881 N   0  0  0  0  0  0
  -28.6981  -23.7478   21.7312 O   0  0  0  0  0  0
  -31.0385  -21.7982   20.9541 O   0  0  0  0  0  0
  -29.3219  -23.5628   18.2388 O   0  0  0  0  0  0
  -30.1121  -19.0730   18.3208 S   0  0  0  0  0  0
  -31.4691  -12.5765   19.1231 H   0  0  0  0  0  0
  -30.3926  -11.4274   19.8617 H   0  0  0  0  0  0
  -29.7771  -11.7741   17.4706 H   0  0  0  0  0  0
  -29.6953  -13.4955   17.7021 H   0  0  0  0  0  0
  -27.7332  -11.4007   18.6781 H   0  0  0  0  0  0
  -27.4183  -12.8250   17.7457 H   0  0  0  0  0  0
  -27.6628  -14.2969   19.5517 H   0  0  0  0  0  0
  -28.7102  -12.0762   21.3645 H   0  0  0  0  0  0
  -28.4567  -13.7422   21.8226 H   0  0  0  0  0  0
  -25.2847   -9.5761   22.4677 H   0  0  0  0  0  0
  -24.0147   -7.4651   22.7416 H   0  0  0  0  0  0
  -21.0925   -8.8809   19.8919 H   0  0  0  0  0  0
  -22.3786  -10.9688   19.6125 H   0  0  0  0  0  0
  -21.1987   -7.6166   23.9765 H   0  0  0  0  0  0
  -21.1468   -6.0498   25.9100 H   0  0  0  0  0  0
  -22.0595   -2.7633   23.2808 H   0  0  0  0  0  0
  -22.4145  -11.9870   22.4955 H   0  0  0  0  0  0
  -21.1031  -13.1069   22.2567 H   0  0  0  0  0  0
  -24.6476  -15.8467   20.5435 H   0  0  0  0  0  0
  -26.2627  -15.6488   20.0870 H   0  0  0  0  0  0
  -26.7107  -32.5451   23.1090 H   0  0  0  0  0  0
  -24.9967  -33.9674   25.0456 H   0  0  0  0  0  0
  -22.7275  -31.2983   21.3930 H   0  0  0  0  0  0
  -23.3745  -35.9606   23.3307 H   0  0  0  0  0  0
  -24.3560  -36.8930   22.2095 H   0  0  0  0  0  0
  -23.7154  -37.6493   23.6669 H   0  0  0  0  0  0
  -26.1090  -31.5381   20.6072 H   0  0  0  0  0  0
  -26.8433  -30.8291   22.0115 H   0  0  0  0  0  0
  -28.1045  -28.9783   21.2501 H   0  0  0  0  0  0
  -26.0503  -25.9228   18.9915 H   0  0  0  0  0  0
  -24.0051  -27.2964   18.9984 H   0  0  0  0  0  0
  -23.7628  -30.5817   19.4029 H   0  0  0  0  0  0
  -22.7732  -29.2281   19.8529 H   0  0  0  0  0  0
  -25.1253  -36.2002   25.0894 H   0  0  0  0  0  0
  -20.9949  -28.3135   24.1445 H   0  0  0  0  0  0
  -20.5615  -26.2165   23.3664 H   0  0  0  0  0  0
  -21.6600  -26.7283   22.1299 H   0  0  0  0  0  0
  -19.6865  -25.6226   21.1269 H   0  0  0  0  0  0
  -19.6728  -27.3130   20.6821 H   0  0  0  0  0  0
  -17.4201  -26.6649   21.3993 H   0  0  0  0  0  0
  -18.0200  -26.0052   22.9029 H   0  0  0  0  0  0
  -19.7903  -30.7238   24.2254 H   0  0  0  0  0  0
  -17.4975  -31.6253   24.5094 H   0  0  0  0  0  0
  -15.5311  -30.2954   23.7695 H   0  0  0  0  0  0
  -15.8619  -28.0822   22.7057 H   0  0  0  0  0  0
  -24.5792  -30.7123   25.7884 H   0  0  0  0  0  0
  -24.8901  -32.2917   26.5036 H   0  0  0  0  0  0
  -25.8028  -30.8880   27.0284 H   0  0  0  0  0  0
  -26.3002  -29.6803   24.1230 H   0  0  0  0  0  0
  -27.3953  -29.7339   25.4831 H   0  0  0  0  0  0
  -27.8861  -30.4411   23.9633 H   0  0  0  0  0  0
  -27.2571  -33.3642   26.2138 H   0  0  0  0  0  0
  -28.3785  -32.6925   25.0392 H   0  0  0  0  0  0
  -28.0639  -31.8494   26.5479 H   0  0  0  0  0  0
  -28.2568  -38.0126   24.7539 H   0  0  0  0  0  0
  -28.1077  -36.2672   24.6213 H   0  0  0  0  0  0
  -27.2293  -37.1406   25.8845 H   0  0  0  0  0  0
  -20.9312  -29.8754   21.6975 H   0  0  0  0  0  0
  -26.0176  -38.2884   24.1436 H   0  0  0  0  0  0
  -28.6278  -25.9965   18.3014 H   0  0  0  0  0  0
  -29.3477  -15.7853   17.5077 H   0  0  0  0  0  0
  -31.0972  -15.7086   17.7395 H   0  0  0  0  0  0
  -30.3858  -16.8776   16.6328 H   0  0  0  0  0  0
  -28.9154  -15.5815   21.1012 H   0  0  0  0  0  0
  -28.1530  -21.0159   19.9499 H   0  0  0  0  0  0
  -29.3398  -24.2141   17.5464 H   0  0  0  0  0  0
  1 25  1  0  0  0
  1 30  2  0  0  0
  1 80  1  0  0  0
  2  3  1  0  0  0
  2 25  1  0  0  0
  2 86  1  0  0  0
  2 87  1  0  0  0
  3  4  1  0  0  0
  3 88  1  0  0  0
  3 89  1  0  0  0
  4  5  1  0  0  0
  4 90  1  0  0  0
  4 91  1  0  0  0
  5  6  1  0  0  0
  5 26  1  0  0  0
  5 92  1  0  0  0
  6 25  1  0  0  0
  6 93  1  0  0  0
  6 94  1  0  0  0
  7  8  2  0  0  0
  7 26  1  0  0  0
  7 29  1  0  0  0
  8  9  1  0  0  0
  8 22  1  0  0  0
  9 10  1  0  0  0
  9 27  2  0  0  0
 10 11  2  0  0  0
 10 15  1  0  0  0
 11 12  1  0  0  0
 11 95  1  0  0  0
 12 13  2  0  0  0
 12 96  1  0  0  0
 13 14  1  0  0  0
 13 31  1  0  0  0
 14 15  2  0  0  0
 14 97  1  0  0  0
 15 98  1  0  0  0
 16 17  2  0  0  0
 16 21  1  0  0  0
 16 31  1  0  0  0
 17 18  1  0  0  0
 17 99  1  0  0  0
 18 19  2  0  0  0
 18100  1  0  0  0
 19 20  1  0  0  0
 19 24  1  0  0  0
 20 21  2  0  0  0
 20101  1  0  0  0
 21 23  1  0  0  0
 22 28  1  0  0  0
 22 32  2  0  0  0
 26 27  1  0  0  0
 28102  1  0  0  0
 28103  1  0  0  0
 29104  1  0  0  0
 29105  1  0  0  0
 33 34  1  0  0  0
 33 66  1  0  0  0
 33 70  2  0  0  0
 34 36  1  0  0  0
 34 59  1  0  0  0
 34106  1  0  0  0
 35 44  2  0  0  0
 35 45  1  0  0  0
 35 68  1  0  0  0
 36 56  1  0  0  0
 36107  1  0  0  0
 37 39  1  0  0  0
 37 47  1  0  0  0
 37 66  1  0  0  0
 37108  1  0  0  0
 38 43  2  0  0  0
 38 46  1  0  0  0
 38 47  1  0  0  0
 39 64  1  0  0  0
 39 67  2  0  0  0
 40 52  1  0  0  0
 40 53  2  0  0  0
 40 58  1  0  0  0
 41109  1  0  0  0
 41110  1  0  0  0
 41111  1  0  0  0
 41 48  1  0  0  0
 42 43  1  0  0  0
 42 66  1  0  0  0
 42112  1  0  0  0
 42113  1  0  0  0
 43 44  1  0  0  0
 44114  1  0  0  0
 45 46  2  0  0  0
 45115  1  0  0  0
 46116  1  0  0  0
 47117  1  0  0  0
 47118  1  0  0  0
 48 56  1  0  0  0
 48 65  1  0  0  0
 48119  1  0  0  0
 49 50  1  0  0  0
 49 53  1  0  0  0
 49 64  1  0  0  0
 49120  1  0  0  0
 50 51  1  0  0  0
 50121  1  0  0  0
 50122  1  0  0  0
 51 52  1  0  0  0
 51123  1  0  0  0
 51124  1  0  0  0
 52125  1  0  0  0
 52126  1  0  0  0
 53 54  1  0  0  0
 54 55  2  0  0  0
 54127  1  0  0  0
 55 57  1  0  0  0
 55128  1  0  0  0
 56 69  2  0  0  0
 57 58  2  0  0  0
 57129  1  0  0  0
 58130  1  0  0  0
 59 60  1  0  0  0
 59 61  1  0  0  0
 59 62  1  0  0  0
 60131  1  0  0  0
 60132  1  0  0  0
 60133  1  0  0  0
 61134  1  0  0  0
 61135  1  0  0  0
 61136  1  0  0  0
 62137  1  0  0  0
 62138  1  0  0  0
 62139  1  0  0  0
 63 65  1  0  0  0
 63140  1  0  0  0
 63141  1  0  0  0
 63142  1  0  0  0
 64143  1  0  0  0
 65144  1  0  0  0
 68 74  1  0  0  0
 71 72  2  0  0  0
 71 78  1  0  0  0
 71 85  1  0  0  0
 72 79  1  0  0  0
 72 80  1  0  0  0
 73 79  2  0  0  0
 73 81  1  0  0  0
 73 85  1  0  0  0
 74 75  2  0  0  0
 74145  1  0  0  0
 75 76  1  0  0  0
 75 84  1  0  0  0
 76 77  1  0  0  0
 76 82  2  0  0  0
 77 81  1  0  0  0
 77 83  2  0  0  0
 78146  1  0  0  0
 78147  1  0  0  0
 78148  1  0  0  0
 80149  1  0  0  0
 81150  1  0  0  0
 84151  1  0  0  0
M  ISO  4   1 100  68 101  74 101  80 100
M  END
> <chiral flag>
0

> <version>
0

> <s_m_source_file>
/data/baiqing/PycharmProjects/Reinvent-master-3.2/result/LINK_invent/BTK/process_docking_weight1_custom_product_contain_oxygen_bond_distance_aromatic_linkinvent_7_9_3/rearranged_h_0177.sdf

> <i_m_source_file_index>
11

> <r_mmod_Potential_Energy-OPLS-2005>
111.281311035156

> <r_mmod_Stretch_Energy-OPLS-2005>
82.9518585205078

> <r_mmod_Bend_Energy-OPLS-2005>
146.651000976562

> <r_mmod_Torsional_Energy-OPLS-2005>
284.795104980469

> <r_mmod_Improper_Torsional_Energy-OPLS-2005>
10.0726737976074

> <r_mmod_Van_der_Waal_Energy-OPLS-2005>
110.49934387207

> <r_mmod_Electrostatic_Energy-OPLS-2005>
-313.741638183594

> <r_mmod_Solvation_Energy-OPLS-2005>
-272.256469726562

> <b_mmod_Minimization_Converged-OPLS-2005>
0

> <r_mmod_RMS_Derivative-OPLS-2005>
8.38122367858887

$$$$
11
                    3D
 Structure written by MMmdl.
157165  0  0  1  0            999 V2000
  -30.7111  -14.4495   20.6866 C   0  0  0  0  0  0
  -30.4339  -12.3290   19.4185 C   0  0  0  0  0  0
  -29.4964  -12.5261   18.2090 C   0  0  0  0  0  0
  -28.0209  -12.3694   18.6218 C   0  0  0  0  0  0
  -27.6674  -13.2016   19.8803 C   0  0  2  0  0  0
  -28.6998  -12.9593   21.0031 C   0  0  0  0  0  0
  -25.2598  -13.8162   20.5653 C   0  0  0  0  0  0
  -24.1852  -13.0443   20.9187 C   0  0  0  0  0  0
  -24.6392  -11.6904   20.8733 C   0  0  0  0  0  0
  -23.9043  -10.4293   21.0378 C   0  0  0  0  0  0
  -24.3623   -9.4224   21.9150 C   0  0  0  0  0  0
  -23.6326   -8.2250   22.0724 C   0  0  0  0  0  0
  -22.4293   -8.0286   21.3551 C   0  0  0  0  0  0
  -21.9919   -9.0234   20.4631 C   0  0  0  0  0  0
  -22.7214  -10.2126   20.3017 C   0  0  0  0  0  0
  -21.6881   -6.0763   22.5300 C   0  0  0  0  0  0
  -21.4026   -6.5656   23.8234 C   0  0  0  0  0  0
  -21.3653   -5.6793   24.9190 C   0  0  0  0  0  0
  -21.6021   -4.3054   24.7230 C   0  0  0  0  0  0
  -21.8825   -3.8165   23.4353 C   0  0  0  0  0  0
  -21.9204   -4.6994   22.3418 C   0  0  0  0  0  0
  -22.7873  -13.5246   21.1878 C   0  0  0  0  0  0
  -22.1667   -4.2196   21.0989 F   0  0  0  0  0  0
  -21.5620   -3.4504   25.7727 F   0  0  0  0  0  0
  -30.0455  -13.2743   20.4805 N   0  0  0  0  0  0
  -26.3037  -12.9325   20.3363 N   0  0  0  0  0  0
  -25.9328  -11.6494   20.5781 N   0  0  0  0  0  0
  -22.0531  -12.8212   22.0445 N   0  0  0  0  0  0
  -25.4347  -15.1868   20.4006 N   0  0  0  0  0  0
  -31.7206  -14.7637   20.0452 O   0  0  0  0  0  0
  -21.6675   -6.8883   21.4248 O   0  0  0  0  0  0
  -22.3540  -14.5543   20.6723 O   0  0  0  0  0  0
  -24.6083  -31.8683   23.2101 C   0  0  0  0  0  0
  -25.8985  -32.4840   23.8384 C   0  0  1  0  0  0
  -27.2661  -27.4445   20.1262 C   0  0  0  0  0  0
  -25.5865  -33.8632   24.2347 N   0  0  0  0  0  0
  -23.4014  -30.4859   21.5495 C   0  0  2  0  0  0
  -24.8588  -28.9469   20.1253 C   0  0  0  0  0  0
  -22.7392  -29.4631   22.5012 C   0  0  0  0  0  0
  -18.0276  -28.1383   22.8479 C   0  0  0  0  0  0
  -24.1490  -36.7312   23.2646 C   0  0  0  0  0  0
  -25.9236  -30.8404   21.3582 C   0  0  0  0  0  0
  -26.0111  -29.4672   20.7257 C   0  0  0  0  0  0
  -27.2137  -28.7262   20.7278 C   0  0  0  0  0  0
  -26.1006  -26.9474   19.5062 C   0  0  0  0  0  0
  -24.8962  -27.6813   19.5133 C   0  0  0  0  0  0
  -23.6157  -29.8088   20.1674 C   0  0  0  0  0  0
  -25.4110  -36.3120   24.0351 C   0  0  1  0  0  0
  -20.5855  -28.3638   23.1352 C   0  0  2  0  0  0
  -20.6751  -26.9379   22.5445 C   0  0  0  0  0  0
  -19.5744  -26.6383   21.5221 C   0  0  0  0  0  0
  -18.1920  -26.7930   22.1605 C   0  0  0  0  0  0
  -19.1522  -28.8829   23.2912 C   0  0  0  0  0  0
  -18.9440  -30.1439   23.8927 C   0  0  0  0  0  0
  -17.6439  -30.6578   24.0564 C   0  0  0  0  0  0
  -25.9018  -34.9482   23.5136 C   0  0  0  0  0  0
  -16.5336  -29.9080   23.6318 C   0  0  0  0  0  0
  -16.7262  -28.6502   23.0332 C   0  0  0  0  0  0
  -26.4449  -31.6595   25.0679 C   0  0  0  0  0  0
  -25.3748  -31.3670   26.1460 C   0  0  0  0  0  0
  -27.0257  -30.3042   24.5972 C   0  0  0  0  0  0
  -27.6046  -32.4300   25.7426 C   0  0  0  0  0  0
  -27.5591  -37.1799   24.8462 C   0  0  0  0  0  0
  -21.4128  -29.3000   22.3754 N   0  0  0  0  0  0
  -26.4298  -37.3800   23.9416 N   0  0  0  0  0  0
  -24.6636  -31.0782   22.1003 N   0  0  0  0  0  0
  -23.4170  -28.8196   23.3070 O   0  0  0  0  0  0
  -28.4133  -26.6759   20.0369 O   0  0  0  0  0  0
  -26.5586  -34.8921   22.4699 O   0  0  0  0  0  0
  -23.5275  -32.1448   23.7487 O   0  0  0  0  0  0
  -28.7242  -18.0827   23.2709 C   0  0  0  0  0  0
  -29.1331  -16.7648   23.0213 C   0  0  0  0  0  0
  -29.9463  -16.5386   21.9004 C   0  0  0  0  0  0
  -29.8571  -18.8224   21.4258 C   0  0  0  0  0  0
  -30.2102  -20.0213   20.5101 C   0  0  0  0  0  0
  -29.7014  -22.4051   20.2832 C   0  0  0  0  0  0
  -30.1518  -27.3231   21.6273 C   0  0  0  0  0  0
  -28.9369  -23.6111   20.8953 C   0  0  0  0  0  0
  -29.8081  -24.9022   21.0071 C   0  0  0  0  0  0
  -29.0895  -26.2696   21.2403 C   0  0  2  0  0  0
  -29.0812  -19.1062   22.4739 N   0  0  0  0  0  0
  -30.3029  -17.5850   21.1101 N   0  0  0  0  0  0
  -30.2551  -15.1574   21.7370 N   0  0  0  0  0  0
  -29.6350  -21.1915   20.8795 N   0  0  0  0  0  0
  -30.9507  -19.8516   19.5303 O   0  0  0  0  0  0
  -30.3402  -22.6124   19.2475 O   0  0  0  0  0  0
  -28.7415  -15.7395   23.8210 F   0  0  0  0  0  0
  -31.4726  -12.4596   19.1113 H   0  0  0  0  0  0
  -30.3667  -11.3039   19.7873 H   0  0  0  0  0  0
  -29.7445  -11.8106   17.4246 H   0  0  0  0  0  0
  -29.6579  -13.5167   17.7804 H   0  0  0  0  0  0
  -27.8398  -11.3109   18.8167 H   0  0  0  0  0  0
  -27.3612  -12.6421   17.7968 H   0  0  0  0  0  0
  -27.7223  -14.2536   19.5976 H   0  0  0  0  0  0
  -28.6730  -11.9148   21.3149 H   0  0  0  0  0  0
  -28.4166  -13.5271   21.8915 H   0  0  0  0  0  0
  -25.2766   -9.5742   22.4702 H   0  0  0  0  0  0
  -24.0090   -7.4633   22.7404 H   0  0  0  0  0  0
  -21.0875   -8.8709   19.8925 H   0  0  0  0  0  0
  -22.3657  -10.9650   19.6109 H   0  0  0  0  0  0
  -21.2030   -7.6161   23.9773 H   0  0  0  0  0  0
  -21.1454   -6.0507   25.9099 H   0  0  0  0  0  0
  -22.0617   -2.7640   23.2841 H   0  0  0  0  0  0
  -22.4178  -11.9879   22.4824 H   0  0  0  0  0  0
  -21.1103  -13.1163   22.2580 H   0  0  0  0  0  0
  -24.6733  -15.8472   20.5103 H   0  0  0  0  0  0
  -26.2876  -15.6217   20.0731 H   0  0  0  0  0  0
  -26.7051  -32.5594   23.1157 H   0  0  0  0  0  0
  -25.0007  -33.9798   25.0480 H   0  0  0  0  0  0
  -22.6874  -31.2985   21.4022 H   0  0  0  0  0  0
  -23.3758  -35.9635   23.3305 H   0  0  0  0  0  0
  -24.3596  -36.8914   22.2063 H   0  0  0  0  0  0
  -23.7229  -37.6509   23.6650 H   0  0  0  0  0  0
  -26.0159  -31.5960   20.5768 H   0  0  0  0  0  0
  -26.8178  -30.9174   21.9654 H   0  0  0  0  0  0
  -28.0921  -29.1730   21.1619 H   0  0  0  0  0  0
  -26.1300  -25.9843   19.0169 H   0  0  0  0  0  0
  -24.0145  -27.2721   19.0414 H   0  0  0  0  0  0
  -23.7253  -30.5803   19.4038 H   0  0  0  0  0  0
  -22.7424  -29.2230   19.8718 H   0  0  0  0  0  0
  -25.1294  -36.1981   25.0848 H   0  0  0  0  0  0
  -20.9951  -28.3184   24.1466 H   0  0  0  0  0  0
  -20.5628  -26.2234   23.3622 H   0  0  0  0  0  0
  -21.6624  -26.7405   22.1247 H   0  0  0  0  0  0
  -19.6891  -25.6298   21.1241 H   0  0  0  0  0  0
  -19.6713  -27.3203   20.6772 H   0  0  0  0  0  0
  -17.4206  -26.6720   21.3992 H   0  0  0  0  0  0
  -18.0272  -26.0063   22.8984 H   0  0  0  0  0  0
  -19.7919  -30.7264   24.2289 H   0  0  0  0  0  0
  -17.4993  -31.6261   24.5166 H   0  0  0  0  0  0
  -15.5333  -30.2987   23.7638 H   0  0  0  0  0  0
  -15.8667  -28.0851   22.7002 H   0  0  0  0  0  0
  -24.5916  -30.7018   25.7798 H   0  0  0  0  0  0
  -24.8953  -32.2818   26.4949 H   0  0  0  0  0  0
  -25.8139  -30.8810   27.0182 H   0  0  0  0  0  0
  -26.2751  -29.6824   24.1075 H   0  0  0  0  0  0
  -27.4120  -29.7240   25.4360 H   0  0  0  0  0  0
  -27.8549  -30.4386   23.9027 H   0  0  0  0  0  0
  -27.2665  -33.3553   26.2104 H   0  0  0  0  0  0
  -28.3799  -32.6940   25.0223 H   0  0  0  0  0  0
  -28.0790  -31.8376   26.5261 H   0  0  0  0  0  0
  -28.2599  -38.0107   24.7526 H   0  0  0  0  0  0
  -28.1099  -36.2633   24.6268 H   0  0  0  0  0  0
  -27.2309  -37.1432   25.8865 H   0  0  0  0  0  0
  -20.9280  -29.8684   21.6954 H   0  0  0  0  0  0
  -26.0188  -38.2865   24.1445 H   0  0  0  0  0  0
  -28.0930  -18.3177   24.1129 H   0  0  0  0  0  0
  -30.8189  -26.9451   22.4028 H   0  0  0  0  0  0
  -29.7259  -28.2358   22.0366 H   0  0  0  0  0  0
  -30.7743  -27.5940   20.7706 H   0  0  0  0  0  0
  -28.5180  -23.3501   21.8673 H   0  0  0  0  0  0
  -28.0844  -23.8158   20.2477 H   0  0  0  0  0  0
  -30.4418  -25.0130   20.1253 H   0  0  0  0  0  0
  -30.5048  -24.7336   21.8309 H   0  0  0  0  0  0
  -28.3780  -26.1630   22.0614 H   0  0  0  0  0  0
  -29.7107  -14.6025   22.3787 H   0  0  0  0  0  0
  -29.0862  -21.0542   21.7197 H   0  0  0  0  0  0
  1 25  1  0  0  0
  1 30  2  0  0  0
  1 83  1  0  0  0
  2  3  1  0  0  0
  2 25  1  0  0  0
  2 88  1  0  0  0
  2 89  1  0  0  0
  3  4  1  0  0  0
  3 90  1  0  0  0
  3 91  1  0  0  0
  4  5  1  0  0  0
  4 92  1  0  0  0
  4 93  1  0  0  0
  5  6  1  0  0  0
  5 26  1  0  0  0
  5 94  1  0  0  0
  6 25  1  0  0  0
  6 95  1  0  0  0
  6 96  1  0  0  0
  7  8  2  0  0  0
  7 26  1  0  0  0
  7 29  1  0  0  0
  8  9  1  0  0  0
  8 22  1  0  0  0
  9 10  1  0  0  0
  9 27  2  0  0  0
 10 11  2  0  0  0
 10 15  1  0  0  0
 11 12  1  0  0  0
 11 97  1  0  0  0
 12 13  2  0  0  0
 12 98  1  0  0  0
 13 14  1  0  0  0
 13 31  1  0  0  0
 14 15  2  0  0  0
 14 99  1  0  0  0
 15100  1  0  0  0
 16 17  2  0  0  0
 16 21  1  0  0  0
 16 31  1  0  0  0
 17 18  1  0  0  0
 17101  1  0  0  0
 18 19  2  0  0  0
 18102  1  0  0  0
 19 20  1  0  0  0
 19 24  1  0  0  0
 20 21  2  0  0  0
 20103  1  0  0  0
 21 23  1  0  0  0
 22 28  1  0  0  0
 22 32  2  0  0  0
 26 27  1  0  0  0
 28104  1  0  0  0
 28105  1  0  0  0
 29106  1  0  0  0
 29107  1  0  0  0
 33 34  1  0  0  0
 33 66  1  0  0  0
 33 70  2  0  0  0
 34 36  1  0  0  0
 34 59  1  0  0  0
 34108  1  0  0  0
 35 44  2  0  0  0
 35 45  1  0  0  0
 35 68  1  0  0  0
 36 56  1  0  0  0
 36109  1  0  0  0
 37 39  1  0  0  0
 37 47  1  0  0  0
 37 66  1  0  0  0
 37110  1  0  0  0
 38 43  2  0  0  0
 38 46  1  0  0  0
 38 47  1  0  0  0
 39 64  1  0  0  0
 39 67  2  0  0  0
 40 52  1  0  0  0
 40 53  2  0  0  0
 40 58  1  0  0  0
 41111  1  0  0  0
 41112  1  0  0  0
 41113  1  0  0  0
 41 48  1  0  0  0
 42 43  1  0  0  0
 42 66  1  0  0  0
 42114  1  0  0  0
 42115  1  0  0  0
 43 44  1  0  0  0
 44116  1  0  0  0
 45 46  2  0  0  0
 45117  1  0  0  0
 46118  1  0  0  0
 47119  1  0  0  0
 47120  1  0  0  0
 48 56  1  0  0  0
 48 65  1  0  0  0
 48121  1  0  0  0
 49 50  1  0  0  0
 49 53  1  0  0  0
 49 64  1  0  0  0
 49122  1  0  0  0
 50 51  1  0  0  0
 50123  1  0  0  0
 50124  1  0  0  0
 51 52  1  0  0  0
 51125  1  0  0  0
 51126  1  0  0  0
 52127  1  0  0  0
 52128  1  0  0  0
 53 54  1  0  0  0
 54 55  2  0  0  0
 54129  1  0  0  0
 55 57  1  0  0  0
 55130  1  0  0  0
 56 69  2  0  0  0
 57 58  2  0  0  0
 57131  1  0  0  0
 58132  1  0  0  0
 59 60  1  0  0  0
 59 61  1  0  0  0
 59 62  1  0  0  0
 60133  1  0  0  0
 60134  1  0  0  0
 60135  1  0  0  0
 61136  1  0  0  0
 61137  1  0  0  0
 61138  1  0  0  0
 62139  1  0  0  0
 62140  1  0  0  0
 62141  1  0  0  0
 63 65  1  0  0  0
 63142  1  0  0  0
 63143  1  0  0  0
 63144  1  0  0  0
 64145  1  0  0  0
 65146  1  0  0  0
 68 80  1  0  0  0
 71 72  2  0  0  0
 71 81  1  0  0  0
 71147  1  0  0  0
 72 73  1  0  0  0
 72 87  1  0  0  0
 73 82  2  0  0  0
 73 83  1  0  0  0
 74 75  1  0  0  0
 74 81  2  0  0  0
 74 82  1  0  0  0
 75 84  1  0  0  0
 75 85  2  0  0  0
 76 78  1  0  0  0
 76 84  1  0  0  0
 76 86  2  0  0  0
 77148  1  0  0  0
 77149  1  0  0  0
 77150  1  0  0  0
 77 80  1  0  0  0
 78 79  1  0  0  0
 78151  1  0  0  0
 78152  1  0  0  0
 79 80  1  0  0  0
 79153  1  0  0  0
 79154  1  0  0  0
 80155  1  0  0  0
 83156  1  0  0  0
 84157  1  0  0  0
M  ISO  4   1 100  68 101  80 101  83 100
M  END
> <chiral flag>
0

> <version>
0

> <s_m_source_file>
/data/baiqing/PycharmProjects/Reinvent-master-3.2/result/LINK_invent/BTK/process_docking_weight1_custom_product_contain_oxygen_bond_distance_aromatic_linkinvent_7_9_3/rearranged_h_0177.sdf

> <i_m_source_file_index>
12

> <r_mmod_Potential_Energy-OPLS-2005>
-590.731750488281

> <r_mmod_Stretch_Energy-OPLS-2005>
45.134880065918

> <r_mmod_Bend_Energy-OPLS-2005>
132.520584106445

> <r_mmod_Torsional_Energy-OPLS-2005>
218.313873291016

> <r_mmod_Improper_Torsional_Energy-OPLS-2005>
5.18209981918335

> <r_mmod_Van_der_Waal_Energy-OPLS-2005>
165.48893737793

> <r_mmod_Electrostatic_Energy-OPLS-2005>
-885.826416015625

> <r_mmod_Solvation_Energy-OPLS-2005>
-281.816253662109

> <b_mmod_Minimization_Converged-OPLS-2005>
0

> <r_mmod_RMS_Derivative-OPLS-2005>
3.72253131866455

$$$$
12
                    3D
 Structure written by MMmdl.
153161  0  0  1  0            999 V2000
  -30.6097  -14.7612   20.4677 C   0  0  0  0  0  0
  -30.4358  -12.4712   19.4661 C   0  0  0  0  0  0
  -29.5116  -12.5032   18.2293 C   0  0  0  0  0  0
  -28.0396  -12.3203   18.6474 C   0  0  0  0  0  0
  -27.6379  -13.2313   19.8395 C   0  0  2  0  0  0
  -28.6829  -13.1777   20.9755 C   0  0  0  0  0  0
  -25.2502  -13.8183   20.5681 C   0  0  0  0  0  0
  -24.1792  -13.0423   20.9207 C   0  0  0  0  0  0
  -24.6386  -11.6909   20.8740 C   0  0  0  0  0  0
  -23.9060  -10.4289   21.0408 C   0  0  0  0  0  0
  -24.3616   -9.4204   21.9179 C   0  0  0  0  0  0
  -23.6293   -8.2237   22.0748 C   0  0  0  0  0  0
  -22.4272   -8.0283   21.3549 C   0  0  0  0  0  0
  -21.9910   -9.0246   20.4645 C   0  0  0  0  0  0
  -22.7235  -10.2129   20.3056 C   0  0  0  0  0  0
  -21.6848   -6.0739   22.5279 C   0  0  0  0  0  0
  -21.4008   -6.5636   23.8212 C   0  0  0  0  0  0
  -21.3662   -5.6791   24.9172 C   0  0  0  0  0  0
  -21.6047   -4.3052   24.7222 C   0  0  0  0  0  0
  -21.8818   -3.8150   23.4337 C   0  0  0  0  0  0
  -21.9186   -4.6967   22.3402 C   0  0  0  0  0  0
  -22.7817  -13.5223   21.1858 C   0  0  0  0  0  0
  -22.1659   -4.2156   21.0975 F   0  0  0  0  0  0
  -21.5629   -3.4534   25.7730 F   0  0  0  0  0  0
  -29.9789  -13.5379   20.3873 N   0  0  0  0  0  0
  -26.2913  -12.9387   20.3209 N   0  0  0  0  0  0
  -25.9315  -11.6530   20.5719 N   0  0  0  0  0  0
  -22.0453  -12.8229   22.0422 N   0  0  0  0  0  0
  -25.4173  -15.1904   20.4120 N   0  0  0  0  0  0
  -31.8045  -14.8410   20.1678 O   0  0  0  0  0  0
  -21.6633   -6.8881   21.4250 O   0  0  0  0  0  0
  -22.3518  -14.5526   20.6691 O   0  0  0  0  0  0
  -24.6319  -31.8574   23.1984 C   0  0  0  0  0  0
  -25.9147  -32.4772   23.8331 C   0  0  1  0  0  0
  -27.2195  -27.2568   20.1262 C   0  0  0  0  0  0
  -25.5947  -33.8564   24.2268 N   0  0  0  0  0  0
  -23.4284  -30.4810   21.5425 C   0  0  2  0  0  0
  -24.8774  -28.9324   20.1077 C   0  0  0  0  0  0
  -22.7506  -29.4628   22.4916 C   0  0  0  0  0  0
  -18.0306  -28.1379   22.8491 C   0  0  0  0  0  0
  -24.1495  -36.7284   23.2638 C   0  0  0  0  0  0
  -25.9758  -30.7702   21.3786 C   0  0  0  0  0  0
  -26.0497  -29.3912   20.7211 C   0  0  0  0  0  0
  -27.2235  -28.5668   20.7201 C   0  0  0  0  0  0
  -26.0238  -26.8800   19.4684 C   0  0  0  0  0  0
  -24.8725  -27.6868   19.4658 C   0  0  0  0  0  0
  -23.6469  -29.8171   20.1577 C   0  0  0  0  0  0
  -25.4122  -36.3079   24.0331 C   0  0  1  0  0  0
  -20.5909  -28.3695   23.1277 C   0  0  2  0  0  0
  -20.6779  -26.9413   22.5396 C   0  0  0  0  0  0
  -19.5754  -26.6381   21.5202 C   0  0  0  0  0  0
  -18.1941  -26.7924   22.1619 C   0  0  0  0  0  0
  -19.1554  -28.8856   23.2884 C   0  0  0  0  0  0
  -18.9466  -30.1452   23.8907 C   0  0  0  0  0  0
  -17.6463  -30.6585   24.0563 C   0  0  0  0  0  0
  -25.9060  -34.9448   23.5102 C   0  0  0  0  0  0
  -16.5362  -29.9074   23.6327 C   0  0  0  0  0  0
  -16.7291  -28.6486   23.0367 C   0  0  0  0  0  0
  -26.4500  -31.6584   25.0712 C   0  0  0  0  0  0
  -25.3731  -31.3708   26.1434 C   0  0  0  0  0  0
  -27.0338  -30.3011   24.6170 C   0  0  0  0  0  0
  -27.6072  -32.4298   25.7488 C   0  0  0  0  0  0
  -27.5588  -37.1799   24.8466 C   0  0  0  0  0  0
  -21.4213  -29.3061   22.3667 N   0  0  0  0  0  0
  -26.4300  -37.3775   23.9413 N   0  0  0  0  0  0
  -24.6980  -31.0540   22.0968 N   0  0  0  0  0  0
  -23.4206  -28.8182   23.3031 O   0  0  0  0  0  0
  -28.2948  -26.3326   20.1982 O   0  0  0  0  0  0
  -26.5618  -34.8916   22.4663 O   0  0  0  0  0  0
  -23.5468  -32.1390   23.7294 O   0  0  0  0  0  0
  -31.1718  -17.6735   21.7845 C   0  0  0  0  0  0
  -30.1815  -17.3298   20.8854 C   0  0  0  0  0  0
  -30.0028  -19.7226   20.8701 C   0  0  0  0  0  0
  -28.9792  -23.7142   20.4198 C   0  0  0  0  0  0
  -32.0338  -16.7871   22.6255 C   0  0  0  0  0  0
  -27.2551  -21.7647   20.5197 C   0  0  0  0  0  0
  -27.9789  -24.8766   19.9413 C   0  0  0  0  0  0
  -28.6894  -22.1310   20.1015 C   0  0  2  0  0  0
  -29.4887  -18.5266   20.4140 N   0  0  0  0  0  0
  -29.8282  -15.9043   20.6299 N   0  0  0  0  0  0
  -29.6592  -21.1224   20.6851 N   0  0  0  0  0  0
  -29.9942  -24.0288   21.0482 O   0  0  0  0  0  0
  -31.3602  -19.4123   21.9481 S   0  0  0  0  0  0
  -31.4755  -12.6063   19.1592 H   0  0  0  0  0  0
  -30.3925  -11.4991   19.9598 H   0  0  0  0  0  0
  -29.8024  -11.7238   17.5233 H   0  0  0  0  0  0
  -29.6265  -13.4516   17.7044 H   0  0  0  0  0  0
  -27.9099  -11.2746   18.9273 H   0  0  0  0  0  0
  -27.3786  -12.4914   17.7966 H   0  0  0  0  0  0
  -27.6252  -14.2480   19.4461 H   0  0  0  0  0  0
  -28.7255  -12.1811   21.4148 H   0  0  0  0  0  0
  -28.4118  -13.8593   21.7846 H   0  0  0  0  0  0
  -25.2765   -9.5674   22.4740 H   0  0  0  0  0  0
  -24.0000   -7.4635   22.7468 H   0  0  0  0  0  0
  -21.0838   -8.8769   19.8955 H   0  0  0  0  0  0
  -22.3699  -10.9663   19.6158 H   0  0  0  0  0  0
  -21.2003   -7.6146   23.9717 H   0  0  0  0  0  0
  -21.1485   -6.0517   25.9075 H   0  0  0  0  0  0
  -22.0599   -2.7614   23.2828 H   0  0  0  0  0  0
  -22.4073  -11.9910   22.4844 H   0  0  0  0  0  0
  -21.1062  -13.1252   22.2585 H   0  0  0  0  0  0
  -24.6437  -15.8363   20.5238 H   0  0  0  0  0  0
  -26.2506  -15.6356   20.0515 H   0  0  0  0  0  0
  -26.7226  -32.5427   23.1083 H   0  0  0  0  0  0
  -25.0128  -33.9675   25.0435 H   0  0  0  0  0  0
  -22.7240  -31.3035   21.3981 H   0  0  0  0  0  0
  -23.3762  -35.9614   23.3304 H   0  0  0  0  0  0
  -24.3600  -36.8890   22.2055 H   0  0  0  0  0  0
  -23.7218  -37.6475   23.6655 H   0  0  0  0  0  0
  -26.1141  -31.5323   20.6089 H   0  0  0  0  0  0
  -26.8523  -30.8241   22.0130 H   0  0  0  0  0  0
  -28.1156  -28.9166   21.2204 H   0  0  0  0  0  0
  -25.9390  -25.9352   18.9531 H   0  0  0  0  0  0
  -23.9811  -27.3343   18.9653 H   0  0  0  0  0  0
  -23.7673  -30.5938   19.4013 H   0  0  0  0  0  0
  -22.7643  -29.2502   19.8560 H   0  0  0  0  0  0
  -25.1302  -36.1935   25.0823 H   0  0  0  0  0  0
  -21.0015  -28.3258   24.1396 H   0  0  0  0  0  0
  -20.5653  -26.2309   23.3597 H   0  0  0  0  0  0
  -21.6645  -26.7415   22.1204 H   0  0  0  0  0  0
  -19.6899  -25.6288   21.1235 H   0  0  0  0  0  0
  -19.6677  -27.3185   20.6727 H   0  0  0  0  0  0
  -17.4196  -26.6689   21.4034 H   0  0  0  0  0  0
  -18.0349  -26.0057   22.9008 H   0  0  0  0  0  0
  -19.7941  -30.7272   24.2272 H   0  0  0  0  0  0
  -17.5016  -31.6265   24.5159 H   0  0  0  0  0  0
  -15.5354  -30.2981   23.7636 H   0  0  0  0  0  0
  -15.8695  -28.0791   22.7102 H   0  0  0  0  0  0
  -24.5927  -30.7038   25.7751 H   0  0  0  0  0  0
  -24.8889  -32.2862   26.4856 H   0  0  0  0  0  0
  -25.8055  -30.8881   27.0210 H   0  0  0  0  0  0
  -26.2905  -29.6774   24.1187 H   0  0  0  0  0  0
  -27.4038  -29.7256   25.4663 H   0  0  0  0  0  0
  -27.8787  -30.4306   23.9401 H   0  0  0  0  0  0
  -27.2716  -33.3612   26.2062 H   0  0  0  0  0  0
  -28.3894  -32.6819   25.0318 H   0  0  0  0  0  0
  -28.0740  -31.8410   26.5393 H   0  0  0  0  0  0
  -28.2597  -38.0102   24.7537 H   0  0  0  0  0  0
  -28.1085  -36.2635   24.6275 H   0  0  0  0  0  0
  -27.2314  -37.1437   25.8865 H   0  0  0  0  0  0
  -20.9394  -29.8790   21.6875 H   0  0  0  0  0  0
  -26.0183  -38.2854   24.1403 H   0  0  0  0  0  0
  -31.4802  -15.9209   22.9870 H   0  0  0  0  0  0
  -32.4039  -17.3173   23.5026 H   0  0  0  0  0  0
  -32.8984  -16.4369   22.0637 H   0  0  0  0  0  0
  -27.1372  -21.7610   21.6039 H   0  0  0  0  0  0
  -26.9824  -20.7752   20.1521 H   0  0  0  0  0  0
  -26.5198  -22.4588   20.1094 H   0  0  0  0  0  0
  -27.8109  -24.7401   18.8723 H   0  0  0  0  0  0
  -27.0316  -24.6645   20.4371 H   0  0  0  0  0  0
  -28.7486  -22.0224   19.0175 H   0  0  0  0  0  0
  -28.8383  -15.7247   20.5864 H   0  0  0  0  0  0
  -30.3636  -21.6720   21.1726 H   0  0  0  0  0  0
  1 25  1  0  0  0
  1 30  2  0  0  0
  1 80  1  0  0  0
  2  3  1  0  0  0
  2 25  1  0  0  0
  2 84  1  0  0  0
  2 85  1  0  0  0
  3  4  1  0  0  0
  3 86  1  0  0  0
  3 87  1  0  0  0
  4  5  1  0  0  0
  4 88  1  0  0  0
  4 89  1  0  0  0
  5  6  1  0  0  0
  5 26  1  0  0  0
  5 90  1  0  0  0
  6 25  1  0  0  0
  6 91  1  0  0  0
  6 92  1  0  0  0
  7  8  2  0  0  0
  7 26  1  0  0  0
  7 29  1  0  0  0
  8  9  1  0  0  0
  8 22  1  0  0  0
  9 10  1  0  0  0
  9 27  2  0  0  0
 10 11  2  0  0  0
 10 15  1  0  0  0
 11 12  1  0  0  0
 11 93  1  0  0  0
 12 13  2  0  0  0
 12 94  1  0  0  0
 13 14  1  0  0  0
 13 31  1  0  0  0
 14 15  2  0  0  0
 14 95  1  0  0  0
 15 96  1  0  0  0
 16 17  2  0  0  0
 16 21  1  0  0  0
 16 31  1  0  0  0
 17 18  1  0  0  0
 17 97  1  0  0  0
 18 19  2  0  0  0
 18 98  1  0  0  0
 19 20  1  0  0  0
 19 24  1  0  0  0
 20 21  2  0  0  0
 20 99  1  0  0  0
 21 23  1  0  0  0
 22 28  1  0  0  0
 22 32  2  0  0  0
 26 27  1  0  0  0
 28100  1  0  0  0
 28101  1  0  0  0
 29102  1  0  0  0
 29103  1  0  0  0
 33 34  1  0  0  0
 33 66  1  0  0  0
 33 70  2  0  0  0
 34 36  1  0  0  0
 34 59  1  0  0  0
 34104  1  0  0  0
 35 44  2  0  0  0
 35 45  1  0  0  0
 35 68  1  0  0  0
 36 56  1  0  0  0
 36105  1  0  0  0
 37 39  1  0  0  0
 37 47  1  0  0  0
 37 66  1  0  0  0
 37106  1  0  0  0
 38 43  2  0  0  0
 38 46  1  0  0  0
 38 47  1  0  0  0
 39 64  1  0  0  0
 39 67  2  0  0  0
 40 52  1  0  0  0
 40 53  2  0  0  0
 40 58  1  0  0  0
 41107  1  0  0  0
 41108  1  0  0  0
 41109  1  0  0  0
 41 48  1  0  0  0
 42 43  1  0  0  0
 42 66  1  0  0  0
 42110  1  0  0  0
 42111  1  0  0  0
 43 44  1  0  0  0
 44112  1  0  0  0
 45 46  2  0  0  0
 45113  1  0  0  0
 46114  1  0  0  0
 47115  1  0  0  0
 47116  1  0  0  0
 48 56  1  0  0  0
 48 65  1  0  0  0
 48117  1  0  0  0
 49 50  1  0  0  0
 49 53  1  0  0  0
 49 64  1  0  0  0
 49118  1  0  0  0
 50 51  1  0  0  0
 50119  1  0  0  0
 50120  1  0  0  0
 51 52  1  0  0  0
 51121  1  0  0  0
 51122  1  0  0  0
 52123  1  0  0  0
 52124  1  0  0  0
 53 54  1  0  0  0
 54 55  2  0  0  0
 54125  1  0  0  0
 55 57  1  0  0  0
 55126  1  0  0  0
 56 69  2  0  0  0
 57 58  2  0  0  0
 57127  1  0  0  0
 58128  1  0  0  0
 59 60  1  0  0  0
 59 61  1  0  0  0
 59 62  1  0  0  0
 60129  1  0  0  0
 60130  1  0  0  0
 60131  1  0  0  0
 61132  1  0  0  0
 61133  1  0  0  0
 61134  1  0  0  0
 62135  1  0  0  0
 62136  1  0  0  0
 62137  1  0  0  0
 63 65  1  0  0  0
 63138  1  0  0  0
 63139  1  0  0  0
 63140  1  0  0  0
 64141  1  0  0  0
 65142  1  0  0  0
 68 77  1  0  0  0
 71 72  2  0  0  0
 71 75  1  0  0  0
 71 83  1  0  0  0
 72 79  1  0  0  0
 72 80  1  0  0  0
 73 79  2  0  0  0
 73 81  1  0  0  0
 73 83  1  0  0  0
 74 77  1  0  0  0
 74 78  1  0  0  0
 74 82  2  0  0  0
 75143  1  0  0  0
 75144  1  0  0  0
 75145  1  0  0  0
 76146  1  0  0  0
 76147  1  0  0  0
 76148  1  0  0  0
 76 78  1  0  0  0
 77149  1  0  0  0
 77150  1  0  0  0
 78 81  1  0  0  0
 78151  1  0  0  0
 80152  1  0  0  0
 81153  1  0  0  0
M  ISO  4   1 100  68 101  77 101  80 100
M  END
> <chiral flag>
0

> <version>
0

> <s_m_source_file>
/data/baiqing/PycharmProjects/Reinvent-master-3.2/result/LINK_invent/BTK/process_docking_weight1_custom_product_contain_oxygen_bond_distance_aromatic_linkinvent_7_9_3/rearranged_h_0177.sdf

> <i_m_source_file_index>
13

> <r_mmod_Potential_Energy-OPLS-2005>
136.987838745117

> <r_mmod_Stretch_Energy-OPLS-2005>
129.663269042969

> <r_mmod_Bend_Energy-OPLS-2005>
182.777923583984

> <r_mmod_Torsional_Energy-OPLS-2005>
213.599975585938

> <r_mmod_Improper_Torsional_Energy-OPLS-2005>
6.68342256546021

> <r_mmod_Van_der_Waal_Energy-OPLS-2005>
120.455078125

> <r_mmod_Electrostatic_Energy-OPLS-2005>
-377.6826171875

> <r_mmod_Solvation_Energy-OPLS-2005>
-232.249420166016

> <b_mmod_Minimization_Converged-OPLS-2005>
0

> <r_mmod_RMS_Derivative-OPLS-2005>
2.24229502677917

$$$$
13
                    3D
 Structure written by MMmdl.
162170  0  0  1  0            999 V2000
  -30.7804  -14.3166   20.7039 C   0  0  0  0  0  0
  -30.4129  -12.2671   19.3893 C   0  0  0  0  0  0
  -29.4810  -12.5301   18.1931 C   0  0  0  0  0  0
  -28.0064  -12.3877   18.6090 C   0  0  0  0  0  0
  -27.6697  -13.2015   19.8857 C   0  0  2  0  0  0
  -28.7039  -12.9235   20.9989 C   0  0  0  0  0  0
  -25.2610  -13.8155   20.5665 C   0  0  0  0  0  0
  -24.1844  -13.0438   20.9139 C   0  0  0  0  0  0
  -24.6389  -11.6903   20.8717 C   0  0  0  0  0  0
  -23.9054  -10.4287   21.0389 C   0  0  0  0  0  0
  -24.3611   -9.4207   21.9168 C   0  0  0  0  0  0
  -23.6285   -8.2246   22.0751 C   0  0  0  0  0  0
  -22.4268   -8.0280   21.3543 C   0  0  0  0  0  0
  -21.9899   -9.0251   20.4646 C   0  0  0  0  0  0
  -22.7228  -10.2129   20.3044 C   0  0  0  0  0  0
  -21.6849   -6.0727   22.5274 C   0  0  0  0  0  0
  -21.4011   -6.5631   23.8205 C   0  0  0  0  0  0
  -21.3661   -5.6789   24.9170 C   0  0  0  0  0  0
  -21.6045   -4.3051   24.7227 C   0  0  0  0  0  0
  -21.8819   -3.8140   23.4349 C   0  0  0  0  0  0
  -21.9192   -4.6954   22.3402 C   0  0  0  0  0  0
  -22.7872  -13.5242   21.1829 C   0  0  0  0  0  0
  -22.1658   -4.2137   21.0980 F   0  0  0  0  0  0
  -21.5636   -3.4535   25.7739 F   0  0  0  0  0  0
  -30.0578  -13.1924   20.4747 N   0  0  0  0  0  0
  -26.3058  -12.9325   20.3398 N   0  0  0  0  0  0
  -25.9314  -11.6480   20.5754 N   0  0  0  0  0  0
  -22.0522  -12.8227   22.0389 N   0  0  0  0  0  0
  -25.4353  -15.1871   20.4087 N   0  0  0  0  0  0
  -31.7545  -14.6537   20.0217 O   0  0  0  0  0  0
  -21.6638   -6.8876   21.4236 O   0  0  0  0  0  0
  -22.3548  -14.5546   20.6686 O   0  0  0  0  0  0
  -24.6096  -31.8699   23.2125 C   0  0  0  0  0  0
  -25.9009  -32.4820   23.8407 C   0  0  1  0  0  0
  -27.2424  -27.4717   20.0774 C   0  0  0  0  0  0
  -25.5870  -33.8619   24.2332 N   0  0  0  0  0  0
  -23.3945  -30.4934   21.5541 C   0  0  2  0  0  0
  -24.8397  -28.9625   20.1182 C   0  0  0  0  0  0
  -22.7374  -29.4665   22.5027 C   0  0  0  0  0  0
  -18.0262  -28.1366   22.8503 C   0  0  0  0  0  0
  -24.1490  -36.7331   23.2639 C   0  0  0  0  0  0
  -25.9188  -30.8459   21.3588 C   0  0  0  0  0  0
  -25.9964  -29.4816   20.7100 C   0  0  0  0  0  0
  -27.1954  -28.7402   20.6925 C   0  0  0  0  0  0
  -26.0606  -26.9523   19.4959 C   0  0  0  0  0  0
  -24.8643  -27.6936   19.5151 C   0  0  0  0  0  0
  -23.5988  -29.8230   20.1688 C   0  0  0  0  0  0
  -25.4103  -36.3117   24.0343 C   0  0  1  0  0  0
  -20.5848  -28.3644   23.1340 C   0  0  2  0  0  0
  -20.6745  -26.9381   22.5427 C   0  0  0  0  0  0
  -19.5725  -26.6386   21.5213 C   0  0  0  0  0  0
  -18.1908  -26.7917   22.1629 C   0  0  0  0  0  0
  -19.1510  -28.8823   23.2922 C   0  0  0  0  0  0
  -18.9433  -30.1431   23.8928 C   0  0  0  0  0  0
  -17.6435  -30.6578   24.0564 C   0  0  0  0  0  0
  -25.9016  -34.9475   23.5135 C   0  0  0  0  0  0
  -16.5329  -29.9078   23.6317 C   0  0  0  0  0  0
  -16.7251  -28.6494   23.0342 C   0  0  0  0  0  0
  -26.4461  -31.6581   25.0710 C   0  0  0  0  0  0
  -25.3754  -31.3657   26.1474 C   0  0  0  0  0  0
  -27.0273  -30.3030   24.6036 C   0  0  0  0  0  0
  -27.6051  -32.4281   25.7462 C   0  0  0  0  0  0
  -27.5580  -37.1818   24.8466 C   0  0  0  0  0  0
  -21.4111  -29.3024   22.3757 N   0  0  0  0  0  0
  -26.4296  -37.3792   23.9407 N   0  0  0  0  0  0
  -24.6591  -31.0832   22.1008 N   0  0  0  0  0  0
  -23.4163  -28.8209   23.3057 O   0  0  0  0  0  0
  -28.4573  -26.8196   20.0773 O   0  0  0  0  0  0
  -26.5588  -34.8928   22.4699 O   0  0  0  0  0  0
  -23.5302  -32.1440   23.7546 O   0  0  0  0  0  0
  -31.9482  -17.9544   23.4824 C   0  0  0  0  0  0
  -31.6672  -18.9839   22.5530 C   0  0  0  0  0  0
  -30.8312  -16.3227   22.0616 C   0  0  0  0  0  0
  -31.5408  -16.6305   23.2361 C   0  0  0  0  0  0
  -30.9094  -18.6730   21.3966 C   0  0  0  0  0  0
  -30.4909  -17.3519   21.1572 C   0  0  0  0  0  0
  -32.1320  -20.3632   22.8703 C   0  0  0  0  0  0
  -31.3448  -22.8743   20.2391 C   0  0  0  0  0  0
  -28.7169  -25.7100   17.9372 C   0  0  0  0  0  0
  -32.5251  -21.2903   21.7170 C   0  0  0  0  0  0
  -29.9805  -23.4204   19.8327 C   0  0  0  0  0  0
  -29.8727  -24.9338   20.0687 C   0  0  0  0  0  0
  -28.5978  -25.5436   19.4642 C   0  0  2  0  0  0
  -30.4419  -14.9885   21.8077 N   0  0  0  0  0  0
  -31.3892  -22.1245   21.3393 N   0  0  0  0  0  0
  -32.2452  -20.7783   24.0276 O   0  0  0  0  0  0
  -32.3364  -23.0947   19.5428 O   0  0  0  0  0  0
  -31.8481  -15.6529   24.1234 F   0  0  0  0  0  0
  -30.5467  -19.6246   20.5049 F   0  0  0  0  0  0
  -29.7445  -17.0809   20.0588 F   0  0  0  0  0  0
  -31.4557  -12.3664   19.0833 H   0  0  0  0  0  0
  -30.3063  -11.2372   19.7342 H   0  0  0  0  0  0
  -29.7097  -11.8400   17.3804 H   0  0  0  0  0  0
  -29.6578  -13.5340   17.8045 H   0  0  0  0  0  0
  -27.8075  -11.3296   18.7816 H   0  0  0  0  0  0
  -27.3543  -12.6877   17.7884 H   0  0  0  0  0  0
  -27.7358  -14.2579   19.6259 H   0  0  0  0  0  0
  -28.6480  -11.8787   21.3089 H   0  0  0  0  0  0
  -28.4515  -13.5015   21.8877 H   0  0  0  0  0  0
  -25.2757   -9.5676   22.4741 H   0  0  0  0  0  0
  -23.9987   -7.4635   22.7472 H   0  0  0  0  0  0
  -21.0829   -8.8771   19.8957 H   0  0  0  0  0  0
  -22.3684  -10.9665   19.6150 H   0  0  0  0  0  0
  -21.1997   -7.6137   23.9701 H   0  0  0  0  0  0
  -21.1488   -6.0522   25.9071 H   0  0  0  0  0  0
  -22.0598   -2.7602   23.2854 H   0  0  0  0  0  0
  -22.4151  -11.9877   22.4758 H   0  0  0  0  0  0
  -21.1149  -13.1265   22.2630 H   0  0  0  0  0  0
  -24.6780  -15.8520   20.5238 H   0  0  0  0  0  0
  -26.3012  -15.6209   20.1127 H   0  0  0  0  0  0
  -26.7073  -32.5552   23.1178 H   0  0  0  0  0  0
  -25.0001  -33.9775   25.0463 H   0  0  0  0  0  0
  -22.6823  -31.3100   21.4171 H   0  0  0  0  0  0
  -23.3734  -35.9679   23.3300 H   0  0  0  0  0  0
  -24.3598  -36.8936   22.2054 H   0  0  0  0  0  0
  -23.7259  -37.6547   23.6646 H   0  0  0  0  0  0
  -26.0205  -31.6133   20.5899 H   0  0  0  0  0  0
  -26.8114  -30.9045   21.9703 H   0  0  0  0  0  0
  -28.0931  -29.1426   21.1412 H   0  0  0  0  0  0
  -26.0376  -25.9867   19.0131 H   0  0  0  0  0  0
  -23.9724  -27.2827   19.0623 H   0  0  0  0  0  0
  -23.6996  -30.5973   19.4075 H   0  0  0  0  0  0
  -22.7235  -29.2387   19.8782 H   0  0  0  0  0  0
  -25.1276  -36.1991   25.0835 H   0  0  0  0  0  0
  -20.9936  -28.3197   24.1463 H   0  0  0  0  0  0
  -20.5635  -26.2245   23.3609 H   0  0  0  0  0  0
  -21.6619  -26.7430   22.1220 H   0  0  0  0  0  0
  -19.6888  -25.6309   21.1214 H   0  0  0  0  0  0
  -19.6659  -27.3223   20.6763 H   0  0  0  0  0  0
  -17.4174  -26.6674   21.4034 H   0  0  0  0  0  0
  -18.0311  -26.0047   22.9012 H   0  0  0  0  0  0
  -19.7906  -30.7242   24.2309 H   0  0  0  0  0  0
  -17.4987  -31.6260   24.5162 H   0  0  0  0  0  0
  -15.5328  -30.2987   23.7626 H   0  0  0  0  0  0
  -15.8654  -28.0823   22.7039 H   0  0  0  0  0  0
  -24.5938  -30.6987   25.7817 H   0  0  0  0  0  0
  -24.8937  -32.2797   26.4954 H   0  0  0  0  0  0
  -25.8134  -30.8816   27.0214 H   0  0  0  0  0  0
  -26.2789  -29.6808   24.1109 H   0  0  0  0  0  0
  -27.4088  -29.7238   25.4460 H   0  0  0  0  0  0
  -27.8609  -30.4359   23.9135 H   0  0  0  0  0  0
  -27.2676  -33.3563   26.2087 H   0  0  0  0  0  0
  -28.3828  -32.6855   25.0259 H   0  0  0  0  0  0
  -28.0754  -31.8374   26.5337 H   0  0  0  0  0  0
  -28.2601  -38.0108   24.7478 H   0  0  0  0  0  0
  -28.1068  -36.2635   24.6319 H   0  0  0  0  0  0
  -27.2299  -37.1494   25.8870 H   0  0  0  0  0  0
  -20.9262  -29.8743   21.6982 H   0  0  0  0  0  0
  -26.0189  -38.2876   24.1390 H   0  0  0  0  0  0
  -32.5023  -18.1725   24.3832 H   0  0  0  0  0  0
  -29.5930  -26.3028   17.6703 H   0  0  0  0  0  0
  -28.8089  -24.7464   17.4369 H   0  0  0  0  0  0
  -27.8463  -26.2049   17.5077 H   0  0  0  0  0  0
  -32.8723  -20.6990   20.8680 H   0  0  0  0  0  0
  -33.3613  -21.9162   22.0275 H   0  0  0  0  0  0
  -29.1872  -22.9004   20.3705 H   0  0  0  0  0  0
  -29.8367  -23.1846   18.7794 H   0  0  0  0  0  0
  -30.7524  -25.4499   19.6789 H   0  0  0  0  0  0
  -29.8792  -25.1083   21.1460 H   0  0  0  0  0  0
  -27.7570  -24.9000   19.7282 H   0  0  0  0  0  0
  -29.8274  -14.5433   22.4708 H   0  0  0  0  0  0
  -30.5422  -22.0118   21.8801 H   0  0  0  0  0  0
  1 25  1  0  0  0
  1 30  2  0  0  0
  1 84  1  0  0  0
  2  3  1  0  0  0
  2 25  1  0  0  0
  2 91  1  0  0  0
  2 92  1  0  0  0
  3  4  1  0  0  0
  3 93  1  0  0  0
  3 94  1  0  0  0
  4  5  1  0  0  0
  4 95  1  0  0  0
  4 96  1  0  0  0
  5  6  1  0  0  0
  5 26  1  0  0  0
  5 97  1  0  0  0
  6 25  1  0  0  0
  6 98  1  0  0  0
  6 99  1  0  0  0
  7  8  2  0  0  0
  7 26  1  0  0  0
  7 29  1  0  0  0
  8  9  1  0  0  0
  8 22  1  0  0  0
  9 10  1  0  0  0
  9 27  2  0  0  0
 10 11  2  0  0  0
 10 15  1  0  0  0
 11 12  1  0  0  0
 11100  1  0  0  0
 12 13  2  0  0  0
 12101  1  0  0  0
 13 14  1  0  0  0
 13 31  1  0  0  0
 14 15  2  0  0  0
 14102  1  0  0  0
 15103  1  0  0  0
 16 17  2  0  0  0
 16 21  1  0  0  0
 16 31  1  0  0  0
 17 18  1  0  0  0
 17104  1  0  0  0
 18 19  2  0  0  0
 18105  1  0  0  0
 19 20  1  0  0  0
 19 24  1  0  0  0
 20 21  2  0  0  0
 20106  1  0  0  0
 21 23  1  0  0  0
 22 28  1  0  0  0
 22 32  2  0  0  0
 26 27  1  0  0  0
 28107  1  0  0  0
 28108  1  0  0  0
 29109  1  0  0  0
 29110  1  0  0  0
 33 34  1  0  0  0
 33 66  1  0  0  0
 33 70  2  0  0  0
 34 36  1  0  0  0
 34 59  1  0  0  0
 34111  1  0  0  0
 35 44  2  0  0  0
 35 45  1  0  0  0
 35 68  1  0  0  0
 36 56  1  0  0  0
 36112  1  0  0  0
 37 39  1  0  0  0
 37 47  1  0  0  0
 37 66  1  0  0  0
 37113  1  0  0  0
 38 43  2  0  0  0
 38 46  1  0  0  0
 38 47  1  0  0  0
 39 64  1  0  0  0
 39 67  2  0  0  0
 40 52  1  0  0  0
 40 53  2  0  0  0
 40 58  1  0  0  0
 41114  1  0  0  0
 41115  1  0  0  0
 41116  1  0  0  0
 41 48  1  0  0  0
 42 43  1  0  0  0
 42 66  1  0  0  0
 42117  1  0  0  0
 42118  1  0  0  0
 43 44  1  0  0  0
 44119  1  0  0  0
 45 46  2  0  0  0
 45120  1  0  0  0
 46121  1  0  0  0
 47122  1  0  0  0
 47123  1  0  0  0
 48 56  1  0  0  0
 48 65  1  0  0  0
 48124  1  0  0  0
 49 50  1  0  0  0
 49 53  1  0  0  0
 49 64  1  0  0  0
 49125  1  0  0  0
 50 51  1  0  0  0
 50126  1  0  0  0
 50127  1  0  0  0
 51 52  1  0  0  0
 51128  1  0  0  0
 51129  1  0  0  0
 52130  1  0  0  0
 52131  1  0  0  0
 53 54  1  0  0  0
 54 55  2  0  0  0
 54132  1  0  0  0
 55 57  1  0  0  0
 55133  1  0  0  0
 56 69  2  0  0  0
 57 58  2  0  0  0
 57134  1  0  0  0
 58135  1  0  0  0
 59 60  1  0  0  0
 59 61  1  0  0  0
 59 62  1  0  0  0
 60136  1  0  0  0
 60137  1  0  0  0
 60138  1  0  0  0
 61139  1  0  0  0
 61140  1  0  0  0
 61141  1  0  0  0
 62142  1  0  0  0
 62143  1  0  0  0
 62144  1  0  0  0
 63 65  1  0  0  0
 63145  1  0  0  0
 63146  1  0  0  0
 63147  1  0  0  0
 64148  1  0  0  0
 65149  1  0  0  0
 68 83  1  0  0  0
 71 72  2  0  0  0
 71 74  1  0  0  0
 71150  1  0  0  0
 72 75  1  0  0  0
 72 77  1  0  0  0
 73 74  2  0  0  0
 73 76  1  0  0  0
 73 84  1  0  0  0
 74 88  1  0  0  0
 75 76  2  0  0  0
 75 89  1  0  0  0
 76 90  1  0  0  0
 77 80  1  0  0  0
 77 86  2  0  0  0
 78 81  1  0  0  0
 78 85  1  0  0  0
 78 87  2  0  0  0
 79151  1  0  0  0
 79152  1  0  0  0
 79153  1  0  0  0
 79 83  1  0  0  0
 80 85  1  0  0  0
 80154  1  0  0  0
 80155  1  0  0  0
 81 82  1  0  0  0
 81156  1  0  0  0
 81157  1  0  0  0
 82 83  1  0  0  0
 82158  1  0  0  0
 82159  1  0  0  0
 83160  1  0  0  0
 84161  1  0  0  0
 85162  1  0  0  0
M  ISO  4   1 100  68 101  83 101  84 100
M  END
> <chiral flag>
0

> <version>
0

> <s_m_source_file>
/data/baiqing/PycharmProjects/Reinvent-master-3.2/result/LINK_invent/BTK/process_docking_weight1_custom_product_contain_oxygen_bond_distance_aromatic_linkinvent_7_9_3/rearranged_h_0177.sdf

> <i_m_source_file_index>
14

> <r_mmod_Potential_Energy-OPLS-2005>
-262.860168457031

> <r_mmod_Stretch_Energy-OPLS-2005>
31.5399265289307

> <r_mmod_Bend_Energy-OPLS-2005>
94.0028228759766

> <r_mmod_Torsional_Energy-OPLS-2005>
260.294860839844

> <r_mmod_Improper_Torsional_Energy-OPLS-2005>
3.21975374221802

> <r_mmod_Van_der_Waal_Energy-OPLS-2005>
164.069198608398

> <r_mmod_Electrostatic_Energy-OPLS-2005>
-587.016845703125

> <r_mmod_Solvation_Energy-OPLS-2005>
-237.095443725586

> <b_mmod_Minimization_Converged-OPLS-2005>
0

> <r_mmod_RMS_Derivative-OPLS-2005>
1.89860796928406

$$$$
14
                    3D
 Structure written by MMmdl.
155163  0  0  1  0            999 V2000
  -30.7600  -14.3638   20.6829 C   0  0  0  0  0  0
  -30.4184  -12.2869   19.3920 C   0  0  0  0  0  0
  -29.4841  -12.5251   18.1909 C   0  0  0  0  0  0
  -28.0071  -12.3844   18.6075 C   0  0  0  0  0  0
  -27.6670  -13.2013   19.8816 C   0  0  2  0  0  0
  -28.7049  -12.9304   20.9930 C   0  0  0  0  0  0
  -25.2605  -13.8161   20.5677 C   0  0  0  0  0  0
  -24.1841  -13.0441   20.9151 C   0  0  0  0  0  0
  -24.6384  -11.6904   20.8716 C   0  0  0  0  0  0
  -23.9046  -10.4293   21.0395 C   0  0  0  0  0  0
  -24.3605   -9.4213   21.9174 C   0  0  0  0  0  0
  -23.6288   -8.2245   22.0750 C   0  0  0  0  0  0
  -22.4268   -8.0277   21.3543 C   0  0  0  0  0  0
  -21.9896   -9.0246   20.4645 C   0  0  0  0  0  0
  -22.7218  -10.2129   20.3048 C   0  0  0  0  0  0
  -21.6850   -6.0734   22.5280 C   0  0  0  0  0  0
  -21.4012   -6.5638   23.8213 C   0  0  0  0  0  0
  -21.3660   -5.6790   24.9177 C   0  0  0  0  0  0
  -21.6043   -4.3051   24.7225 C   0  0  0  0  0  0
  -21.8819   -3.8142   23.4343 C   0  0  0  0  0  0
  -21.9194   -4.6961   22.3402 C   0  0  0  0  0  0
  -22.7866  -13.5240   21.1829 C   0  0  0  0  0  0
  -22.1663   -4.2149   21.0978 F   0  0  0  0  0  0
  -21.5630   -3.4533   25.7737 F   0  0  0  0  0  0
  -30.0479  -13.2293   20.4572 N   0  0  0  0  0  0
  -26.3043  -12.9319   20.3387 N   0  0  0  0  0  0
  -25.9310  -11.6480   20.5751 N   0  0  0  0  0  0
  -22.0509  -12.8244   22.0398 N   0  0  0  0  0  0
  -25.4363  -15.1881   20.4130 N   0  0  0  0  0  0
  -31.7915  -14.6492   20.0663 O   0  0  0  0  0  0
  -21.6634   -6.8875   21.4239 O   0  0  0  0  0  0
  -22.3549  -14.5549   20.6687 O   0  0  0  0  0  0
  -24.6107  -31.8709   23.2141 C   0  0  0  0  0  0
  -25.9017  -32.4836   23.8421 C   0  0  1  0  0  0
  -27.2361  -27.4714   20.0894 C   0  0  0  0  0  0
  -25.5895  -33.8636   24.2356 N   0  0  0  0  0  0
  -23.3975  -30.4941   21.5532 C   0  0  2  0  0  0
  -24.8457  -28.9612   20.1200 C   0  0  0  0  0  0
  -22.7387  -29.4672   22.5013 C   0  0  0  0  0  0
  -18.0264  -28.1371   22.8493 C   0  0  0  0  0  0
  -24.1485  -36.7329   23.2640 C   0  0  0  0  0  0
  -25.9217  -30.8443   21.3645 C   0  0  0  0  0  0
  -26.0012  -29.4771   20.7223 C   0  0  0  0  0  0
  -27.2009  -28.7351   20.7162 C   0  0  0  0  0  0
  -26.0727  -26.9635   19.4797 C   0  0  0  0  0  0
  -24.8723  -27.6983   19.5013 C   0  0  0  0  0  0
  -23.6056  -29.8241   20.1678 C   0  0  0  0  0  0
  -25.4104  -36.3129   24.0344 C   0  0  1  0  0  0
  -20.5851  -28.3656   23.1332 C   0  0  2  0  0  0
  -20.6750  -26.9396   22.5423 C   0  0  0  0  0  0
  -19.5737  -26.6384   21.5211 C   0  0  0  0  0  0
  -18.1915  -26.7922   22.1617 C   0  0  0  0  0  0
  -19.1512  -28.8831   23.2908 C   0  0  0  0  0  0
  -18.9441  -30.1436   23.8919 C   0  0  0  0  0  0
  -17.6444  -30.6583   24.0561 C   0  0  0  0  0  0
  -25.9022  -34.9486   23.5144 C   0  0  0  0  0  0
  -16.5335  -29.9087   23.6316 C   0  0  0  0  0  0
  -16.7251  -28.6498   23.0344 C   0  0  0  0  0  0
  -26.4467  -31.6595   25.0729 C   0  0  0  0  0  0
  -25.3748  -31.3681   26.1487 C   0  0  0  0  0  0
  -27.0286  -30.3041   24.6076 C   0  0  0  0  0  0
  -27.6066  -32.4298   25.7476 C   0  0  0  0  0  0
  -27.5581  -37.1818   24.8465 C   0  0  0  0  0  0
  -21.4122  -29.3027   22.3738 N   0  0  0  0  0  0
  -26.4297  -37.3807   23.9407 N   0  0  0  0  0  0
  -24.6611  -31.0834   22.1029 N   0  0  0  0  0  0
  -23.4175  -28.8208   23.3039 O   0  0  0  0  0  0
  -28.3944  -26.7432   20.0011 O   0  0  0  0  0  0
  -26.5580  -34.8931   22.4700 O   0  0  0  0  0  0
  -23.5311  -32.1444   23.7562 O   0  0  0  0  0  0
  -31.5496  -19.0438   22.6570 C   0  0  0  0  0  0
  -32.4298  -17.9546   22.8090 C   0  0  0  0  0  0
  -30.2345  -18.8530   22.1608 C   0  0  0  0  0  0
  -30.7156  -16.4513   21.9585 C   0  0  0  0  0  0
  -32.0165  -16.6561   22.4659 C   0  0  0  0  0  0
  -29.8257  -17.5370   21.8226 C   0  0  0  0  0  0
  -29.2934  -20.0100   22.0186 C   0  0  0  0  0  0
  -28.4143  -24.7406   21.3703 C   0  0  0  0  0  0
  -29.8860  -21.4242   22.1489 C   0  0  0  0  0  0
  -28.8771  -26.1969   21.2281 C   0  0  0  0  0  0
  -29.4403  -23.7308   21.8967 C   0  0  0  0  0  0
  -30.2486  -15.1587   21.6280 N   0  0  0  0  0  0
  -28.0830  -19.8881   21.7972 O   0  0  0  0  0  0
  -27.2654  -24.3915   21.0710 O   0  0  0  0  0  0
  -28.9189  -22.4088   21.7937 O   0  0  0  0  0  0
  -32.8606  -15.6128   22.6577 F   0  0  0  0  0  0
  -28.5802  -17.2834   21.3460 F   0  0  0  0  0  0
  -31.4611  -12.3892   19.0863 H   0  0  0  0  0  0
  -30.3181  -11.2625   19.7541 H   0  0  0  0  0  0
  -29.7154  -11.8219   17.3898 H   0  0  0  0  0  0
  -29.6574  -13.5218   17.7822 H   0  0  0  0  0  0
  -27.8082  -11.3263   18.7819 H   0  0  0  0  0  0
  -27.3550  -12.6839   17.7861 H   0  0  0  0  0  0
  -27.7296  -14.2568   19.6154 H   0  0  0  0  0  0
  -28.6677  -11.8825   21.2942 H   0  0  0  0  0  0
  -28.4494  -13.4902   21.8929 H   0  0  0  0  0  0
  -25.2757   -9.5696   22.4736 H   0  0  0  0  0  0
  -24.0007   -7.4637   22.7467 H   0  0  0  0  0  0
  -21.0826   -8.8750   19.8955 H   0  0  0  0  0  0
  -22.3668  -10.9658   19.6148 H   0  0  0  0  0  0
  -21.2000   -7.6147   23.9721 H   0  0  0  0  0  0
  -21.1484   -6.0515   25.9083 H   0  0  0  0  0  0
  -22.0599   -2.7604   23.2838 H   0  0  0  0  0  0
  -22.4114  -11.9896   22.4778 H   0  0  0  0  0  0
  -21.1136  -13.1285   22.2627 H   0  0  0  0  0  0
  -24.6800  -15.8516   20.5402 H   0  0  0  0  0  0
  -26.3119  -15.6314   20.1614 H   0  0  0  0  0  0
  -26.7085  -32.5575   23.1190 H   0  0  0  0  0  0
  -25.0051  -33.9804   25.0505 H   0  0  0  0  0  0
  -22.6850  -31.3096   21.4144 H   0  0  0  0  0  0
  -23.3740  -35.9672   23.3330 H   0  0  0  0  0  0
  -24.3574  -36.8916   22.2049 H   0  0  0  0  0  0
  -23.7242  -37.6547   23.6630 H   0  0  0  0  0  0
  -26.0232  -31.6062   20.5905 H   0  0  0  0  0  0
  -26.8142  -30.9068   21.9748 H   0  0  0  0  0  0
  -28.0970  -29.1377   21.1675 H   0  0  0  0  0  0
  -26.0994  -25.9993   18.9916 H   0  0  0  0  0  0
  -23.9856  -27.2965   19.0308 H   0  0  0  0  0  0
  -23.7111  -30.5976   19.4057 H   0  0  0  0  0  0
  -22.7319  -29.2397   19.8736 H   0  0  0  0  0  0
  -25.1276  -36.2007   25.0838 H   0  0  0  0  0  0
  -20.9935  -28.3213   24.1454 H   0  0  0  0  0  0
  -20.5644  -26.2263   23.3603 H   0  0  0  0  0  0
  -21.6619  -26.7437   22.1218 H   0  0  0  0  0  0
  -19.6899  -25.6296   21.1235 H   0  0  0  0  0  0
  -19.6688  -27.3200   20.6748 H   0  0  0  0  0  0
  -17.4184  -26.6673   21.4015 H   0  0  0  0  0  0
  -18.0315  -26.0057   22.9006 H   0  0  0  0  0  0
  -19.7921  -30.7236   24.2306 H   0  0  0  0  0  0
  -17.5004  -31.6265   24.5153 H   0  0  0  0  0  0
  -15.5337  -30.2995   23.7626 H   0  0  0  0  0  0
  -15.8648  -28.0824   22.7053 H   0  0  0  0  0  0
  -24.5926  -30.7024   25.7819 H   0  0  0  0  0  0
  -24.8931  -32.2828   26.4956 H   0  0  0  0  0  0
  -25.8118  -30.8833   27.0226 H   0  0  0  0  0  0
  -26.2807  -29.6805   24.1162 H   0  0  0  0  0  0
  -27.4093  -29.7273   25.4515 H   0  0  0  0  0  0
  -27.8633  -30.4362   23.9187 H   0  0  0  0  0  0
  -27.2712  -33.3594   26.2086 H   0  0  0  0  0  0
  -28.3853  -32.6856   25.0278 H   0  0  0  0  0  0
  -28.0756  -31.8393   26.5358 H   0  0  0  0  0  0
  -28.2612  -38.0100   24.7495 H   0  0  0  0  0  0
  -28.1058  -36.2631   24.6309 H   0  0  0  0  0  0
  -27.2298  -37.1496   25.8868 H   0  0  0  0  0  0
  -20.9278  -29.8747   21.6963 H   0  0  0  0  0  0
  -26.0197  -38.2892   24.1405 H   0  0  0  0  0  0
  -31.9094  -20.0210   22.9441 H   0  0  0  0  0  0
  -33.4241  -18.1125   23.2018 H   0  0  0  0  0  0
  -30.7551  -21.5097   21.4959 H   0  0  0  0  0  0
  -30.2158  -21.5819   23.1762 H   0  0  0  0  0  0
  -29.9667  -26.2291   21.2210 H   0  0  0  0  0  0
  -28.5408  -26.7752   22.0888 H   0  0  0  0  0  0
  -29.6808  -23.9632   22.9348 H   0  0  0  0  0  0
  -30.3560  -23.8221   21.3106 H   0  0  0  0  0  0
  -29.3354  -14.9070   21.9711 H   0  0  0  0  0  0
  1 25  1  0  0  0
  1 30  2  0  0  0
  1 82  1  0  0  0
  2  3  1  0  0  0
  2 25  1  0  0  0
  2 88  1  0  0  0
  2 89  1  0  0  0
  3  4  1  0  0  0
  3 90  1  0  0  0
  3 91  1  0  0  0
  4  5  1  0  0  0
  4 92  1  0  0  0
  4 93  1  0  0  0
  5  6  1  0  0  0
  5 26  1  0  0  0
  5 94  1  0  0  0
  6 25  1  0  0  0
  6 95  1  0  0  0
  6 96  1  0  0  0
  7  8  2  0  0  0
  7 26  1  0  0  0
  7 29  1  0  0  0
  8  9  1  0  0  0
  8 22  1  0  0  0
  9 10  1  0  0  0
  9 27  2  0  0  0
 10 11  2  0  0  0
 10 15  1  0  0  0
 11 12  1  0  0  0
 11 97  1  0  0  0
 12 13  2  0  0  0
 12 98  1  0  0  0
 13 14  1  0  0  0
 13 31  1  0  0  0
 14 15  2  0  0  0
 14 99  1  0  0  0
 15100  1  0  0  0
 16 17  2  0  0  0
 16 21  1  0  0  0
 16 31  1  0  0  0
 17 18  1  0  0  0
 17101  1  0  0  0
 18 19  2  0  0  0
 18102  1  0  0  0
 19 20  1  0  0  0
 19 24  1  0  0  0
 20 21  2  0  0  0
 20103  1  0  0  0
 21 23  1  0  0  0
 22 28  1  0  0  0
 22 32  2  0  0  0
 26 27  1  0  0  0
 28104  1  0  0  0
 28105  1  0  0  0
 29106  1  0  0  0
 29107  1  0  0  0
 33 34  1  0  0  0
 33 66  1  0  0  0
 33 70  2  0  0  0
 34 36  1  0  0  0
 34 59  1  0  0  0
 34108  1  0  0  0
 35 44  2  0  0  0
 35 45  1  0  0  0
 35 68  1  0  0  0
 36 56  1  0  0  0
 36109  1  0  0  0
 37 39  1  0  0  0
 37 47  1  0  0  0
 37 66  1  0  0  0
 37110  1  0  0  0
 38 43  2  0  0  0
 38 46  1  0  0  0
 38 47  1  0  0  0
 39 64  1  0  0  0
 39 67  2  0  0  0
 40 52  1  0  0  0
 40 53  2  0  0  0
 40 58  1  0  0  0
 41111  1  0  0  0
 41112  1  0  0  0
 41113  1  0  0  0
 41 48  1  0  0  0
 42 43  1  0  0  0
 42 66  1  0  0  0
 42114  1  0  0  0
 42115  1  0  0  0
 43 44  1  0  0  0
 44116  1  0  0  0
 45 46  2  0  0  0
 45117  1  0  0  0
 46118  1  0  0  0
 47119  1  0  0  0
 47120  1  0  0  0
 48 56  1  0  0  0
 48 65  1  0  0  0
 48121  1  0  0  0
 49 50  1  0  0  0
 49 53  1  0  0  0
 49 64  1  0  0  0
 49122  1  0  0  0
 50 51  1  0  0  0
 50123  1  0  0  0
 50124  1  0  0  0
 51 52  1  0  0  0
 51125  1  0  0  0
 51126  1  0  0  0
 52127  1  0  0  0
 52128  1  0  0  0
 53 54  1  0  0  0
 54 55  2  0  0  0
 54129  1  0  0  0
 55 57  1  0  0  0
 55130  1  0  0  0
 56 69  2  0  0  0
 57 58  2  0  0  0
 57131  1  0  0  0
 58132  1  0  0  0
 59 60  1  0  0  0
 59 61  1  0  0  0
 59 62  1  0  0  0
 60133  1  0  0  0
 60134  1  0  0  0
 60135  1  0  0  0
 61136  1  0  0  0
 61137  1  0  0  0
 61138  1  0  0  0
 62139  1  0  0  0
 62140  1  0  0  0
 62141  1  0  0  0
 63 65  1  0  0  0
 63142  1  0  0  0
 63143  1  0  0  0
 63144  1  0  0  0
 64145  1  0  0  0
 65146  1  0  0  0
 68 80  1  0  0  0
 71 72  2  0  0  0
 71 73  1  0  0  0
 71147  1  0  0  0
 72 75  1  0  0  0
 72148  1  0  0  0
 73 76  2  0  0  0
 73 77  1  0  0  0
 74 75  2  0  0  0
 74 76  1  0  0  0
 74 82  1  0  0  0
 75 86  1  0  0  0
 76 87  1  0  0  0
 77 79  1  0  0  0
 77 83  2  0  0  0
 78 80  1  0  0  0
 78 81  1  0  0  0
 78 84  2  0  0  0
 79 85  1  0  0  0
 79149  1  0  0  0
 79150  1  0  0  0
 80151  1  0  0  0
 80152  1  0  0  0
 81 85  1  0  0  0
 81153  1  0  0  0
 81154  1  0  0  0
 82155  1  0  0  0
M  ISO  4   1 100  68 101  80 101  82 100
M  END
> <chiral flag>
0

> <version>
0

> <s_m_source_file>
/data/baiqing/PycharmProjects/Reinvent-master-3.2/result/LINK_invent/BTK/process_docking_weight1_custom_product_contain_oxygen_bond_distance_aromatic_linkinvent_7_9_3/rearranged_h_0177.sdf

> <i_m_source_file_index>
15

> <r_mmod_Potential_Energy-OPLS-2005>
-41.8763427734375

> <r_mmod_Stretch_Energy-OPLS-2005>
33.6416282653809

> <r_mmod_Bend_Energy-OPLS-2005>
84.2200012207031

> <r_mmod_Torsional_Energy-OPLS-2005>
264.797302246094

> <r_mmod_Improper_Torsional_Energy-OPLS-2005>
2.38679575920105

> <r_mmod_Van_der_Waal_Energy-OPLS-2005>
157.975372314453

> <r_mmod_Electrostatic_Energy-OPLS-2005>
-327.321838378906

> <r_mmod_Solvation_Energy-OPLS-2005>
-263.735870361328

> <b_mmod_Minimization_Converged-OPLS-2005>
0

> <r_mmod_RMS_Derivative-OPLS-2005>
1.00773656368256

$$$$
15
                    3D
 Structure written by MMmdl.
152160  0  0  1  0            999 V2000
  -30.6655  -14.5446   20.4703 C   0  0  0  0  0  0
  -30.4282  -12.3268   19.4415 C   0  0  0  0  0  0
  -29.5004  -12.4833   18.2169 C   0  0  0  0  0  0
  -28.0231  -12.3386   18.6297 C   0  0  0  0  0  0
  -27.6552  -13.2078   19.8612 C   0  0  2  0  0  0
  -28.6995  -13.0487   20.9896 C   0  0  0  0  0  0
  -25.2579  -13.8147   20.5661 C   0  0  0  0  0  0
  -24.1823  -13.0439   20.9179 C   0  0  0  0  0  0
  -24.6387  -11.6901   20.8743 C   0  0  0  0  0  0
  -23.9048  -10.4296   21.0408 C   0  0  0  0  0  0
  -24.3601   -9.4206   21.9176 C   0  0  0  0  0  0
  -23.6280   -8.2232   22.0747 C   0  0  0  0  0  0
  -22.4259   -8.0276   21.3543 C   0  0  0  0  0  0
  -21.9897   -9.0247   20.4646 C   0  0  0  0  0  0
  -22.7228  -10.2120   20.3060 C   0  0  0  0  0  0
  -21.6847   -6.0723   22.5274 C   0  0  0  0  0  0
  -21.4014   -6.5626   23.8205 C   0  0  0  0  0  0
  -21.3669   -5.6778   24.9167 C   0  0  0  0  0  0
  -21.6040   -4.3046   24.7227 C   0  0  0  0  0  0
  -21.8818   -3.8141   23.4350 C   0  0  0  0  0  0
  -21.9194   -4.6956   22.3400 C   0  0  0  0  0  0
  -22.7856  -13.5256   21.1848 C   0  0  0  0  0  0
  -22.1662   -4.2143   21.0981 F   0  0  0  0  0  0
  -21.5634   -3.4542   25.7746 F   0  0  0  0  0  0
  -30.0250  -13.3421   20.4274 N   0  0  0  0  0  0
  -26.3004  -12.9317   20.3301 N   0  0  0  0  0  0
  -25.9307  -11.6494   20.5743 N   0  0  0  0  0  0
  -22.0480  -12.8248   22.0407 N   0  0  0  0  0  0
  -25.4310  -15.1870   20.4057 N   0  0  0  0  0  0
  -31.8655  -14.6567   20.2003 O   0  0  0  0  0  0
  -21.6625   -6.8867   21.4234 O   0  0  0  0  0  0
  -22.3552  -14.5570   20.6703 O   0  0  0  0  0  0
  -24.6192  -31.8653   23.2070 C   0  0  0  0  0  0
  -25.9065  -32.4806   23.8378 C   0  0  1  0  0  0
  -27.2301  -27.3876   20.0887 C   0  0  0  0  0  0
  -25.5895  -33.8608   24.2297 N   0  0  0  0  0  0
  -23.4083  -30.4878   21.5490 C   0  0  2  0  0  0
  -24.8501  -28.9460   20.1154 C   0  0  0  0  0  0
  -22.7437  -29.4640   22.4988 C   0  0  0  0  0  0
  -18.0269  -28.1376   22.8491 C   0  0  0  0  0  0
  -24.1477  -36.7304   23.2619 C   0  0  0  0  0  0
  -25.9417  -30.8134   21.3690 C   0  0  0  0  0  0
  -26.0145  -29.4453   20.7117 C   0  0  0  0  0  0
  -27.2045  -28.6737   20.6932 C   0  0  0  0  0  0
  -26.0354  -26.9075   19.5041 C   0  0  0  0  0  0
  -24.8580  -27.6789   19.5103 C   0  0  0  0  0  0
  -23.6175  -29.8202   20.1648 C   0  0  0  0  0  0
  -25.4088  -36.3096   24.0333 C   0  0  1  0  0  0
  -20.5865  -28.3666   23.1306 C   0  0  2  0  0  0
  -20.6764  -26.9401   22.5403 C   0  0  0  0  0  0
  -19.5730  -26.6382   21.5209 C   0  0  0  0  0  0
  -18.1919  -26.7916   22.1641 C   0  0  0  0  0  0
  -19.1524  -28.8834   23.2894 C   0  0  0  0  0  0
  -18.9455  -30.1445   23.8904 C   0  0  0  0  0  0
  -17.6455  -30.6581   24.0559 C   0  0  0  0  0  0
  -25.9039  -34.9471   23.5121 C   0  0  0  0  0  0
  -16.5343  -29.9079   23.6321 C   0  0  0  0  0  0
  -16.7264  -28.6492   23.0349 C   0  0  0  0  0  0
  -26.4465  -31.6602   25.0735 C   0  0  0  0  0  0
  -25.3709  -31.3738   26.1473 C   0  0  0  0  0  0
  -27.0297  -30.3032   24.6159 C   0  0  0  0  0  0
  -27.6028  -32.4334   25.7503 C   0  0  0  0  0  0
  -27.5613  -37.1745   24.8420 C   0  0  0  0  0  0
  -21.4159  -29.3037   22.3724 N   0  0  0  0  0  0
  -26.4249  -37.3818   23.9480 N   0  0  0  0  0  0
  -24.6740  -31.0706   22.0992 N   0  0  0  0  0  0
  -23.4188  -28.8173   23.3037 O   0  0  0  0  0  0
  -28.4141  -26.6592   20.0928 O   0  0  0  0  0  0
  -26.5618  -34.8937   22.4696 O   0  0  0  0  0  0
  -23.5373  -32.1425   23.7428 O   0  0  0  0  0  0
  -30.4937  -18.0763   17.8372 C   0  0  0  0  0  0
  -29.9475  -19.2455   18.3817 C   0  0  0  0  0  0
  -30.4585  -16.8819   18.5702 C   0  0  0  0  0  0
  -29.3938  -19.2088   19.6842 C   0  0  0  0  0  0
  -29.9294  -16.8803   19.8901 C   0  0  0  0  0  0
  -28.0618  -22.7580   19.9324 C   0  0  0  0  0  0
  -29.1968  -21.6774   20.0500 C   0  0  0  0  0  0
  -28.2828  -24.1659   20.5455 C   0  0  0  0  0  0
  -28.4973  -25.3250   19.5237 C   0  0  0  0  0  0
  -29.3807  -18.0355   20.4017 N   0  0  0  0  0  0
  -28.7380  -20.4026   20.1382 N   0  0  0  0  0  0
  -29.8640  -15.6337   20.6189 N   0  0  0  0  0  0
  -26.9980  -22.5045   19.3534 O   0  0  0  0  0  0
  -30.3928  -21.9898   20.0799 O   0  0  0  0  0  0
  -29.8997  -20.3643   17.6151 F   0  0  0  0  0  0
  -30.8841  -15.7498   17.9569 F   0  0  0  0  0  0
  -31.4731  -12.4307   19.1401 H   0  0  0  0  0  0
  -30.3377  -11.3274   19.8705 H   0  0  0  0  0  0
  -29.7497  -11.7407   17.4583 H   0  0  0  0  0  0
  -29.6560  -13.4583   17.7514 H   0  0  0  0  0  0
  -27.8450  -11.2873   18.8546 H   0  0  0  0  0  0
  -27.3726  -12.5834   17.7904 H   0  0  0  0  0  0
  -27.6779  -14.2429   19.5190 H   0  0  0  0  0  0
  -28.6823  -12.0330   21.3827 H   0  0  0  0  0  0
  -28.4695  -13.7029   21.8328 H   0  0  0  0  0  0
  -25.2747   -9.5677   22.4763 H   0  0  0  0  0  0
  -23.9990   -7.4619   22.7470 H   0  0  0  0  0  0
  -21.0820   -8.8758   19.8958 H   0  0  0  0  0  0
  -22.3680  -10.9643   19.6181 H   0  0  0  0  0  0
  -21.1989   -7.6131   23.9707 H   0  0  0  0  0  0
  -21.1501   -6.0508   25.9063 H   0  0  0  0  0  0
  -22.0596   -2.7602   23.2846 H   0  0  0  0  0  0
  -22.4087  -11.9917   22.4790 H   0  0  0  0  0  0
  -21.1122  -13.1292   22.2627 H   0  0  0  0  0  0
  -24.6573  -15.8382   20.4978 H   0  0  0  0  0  0
  -26.2750  -15.6232   20.0576 H   0  0  0  0  0  0
  -26.7132  -32.5488   23.1132 H   0  0  0  0  0  0
  -25.0032  -33.9764   25.0432 H   0  0  0  0  0  0
  -22.6991  -31.3057   21.4092 H   0  0  0  0  0  0
  -23.3786  -35.9581   23.3155 H   0  0  0  0  0  0
  -24.3621  -36.9057   22.2065 H   0  0  0  0  0  0
  -23.7148  -37.6437   23.6714 H   0  0  0  0  0  0
  -26.0670  -31.5781   20.6008 H   0  0  0  0  0  0
  -26.8261  -30.8606   21.9939 H   0  0  0  0  0  0
  -28.1065  -29.0579   21.1506 H   0  0  0  0  0  0
  -25.9745  -25.9342   19.0441 H   0  0  0  0  0  0
  -23.9593  -27.2856   19.0542 H   0  0  0  0  0  0
  -23.7343  -30.5940   19.4059 H   0  0  0  0  0  0
  -22.7393  -29.2454   19.8657 H   0  0  0  0  0  0
  -25.1233  -36.1931   25.0815 H   0  0  0  0  0  0
  -20.9951  -28.3219   24.1429 H   0  0  0  0  0  0
  -20.5671  -26.2270   23.3591 H   0  0  0  0  0  0
  -21.6634  -26.7448   22.1189 H   0  0  0  0  0  0
  -19.6895  -25.6295   21.1230 H   0  0  0  0  0  0
  -19.6648  -27.3198   20.6738 H   0  0  0  0  0  0
  -17.4177  -26.6636   21.4062 H   0  0  0  0  0  0
  -18.0347  -26.0064   22.9046 H   0  0  0  0  0  0
  -19.7932  -30.7258   24.2279 H   0  0  0  0  0  0
  -17.5010  -31.6268   24.5159 H   0  0  0  0  0  0
  -15.5347  -30.2987   23.7639 H   0  0  0  0  0  0
  -15.8664  -28.0812   22.7072 H   0  0  0  0  0  0
  -24.5914  -30.7034   25.7834 H   0  0  0  0  0  0
  -24.8852  -32.2897   26.4856 H   0  0  0  0  0  0
  -25.8051  -30.8983   27.0278 H   0  0  0  0  0  0
  -26.2863  -29.6814   24.1157 H   0  0  0  0  0  0
  -27.3979  -29.7259   25.4650 H   0  0  0  0  0  0
  -27.8735  -30.4335   23.9380 H   0  0  0  0  0  0
  -27.2639  -33.3639   26.2080 H   0  0  0  0  0  0
  -28.3836  -32.6899   25.0326 H   0  0  0  0  0  0
  -28.0699  -31.8466   26.5426 H   0  0  0  0  0  0
  -28.2433  -38.0232   24.7788 H   0  0  0  0  0  0
  -28.1302  -36.2808   24.5816 H   0  0  0  0  0  0
  -27.2404  -37.0868   25.8814 H   0  0  0  0  0  0
  -20.9329  -29.8773   21.6957 H   0  0  0  0  0  0
  -26.0120  -38.2845   24.1678 H   0  0  0  0  0  0
  -30.8930  -18.0820   16.8335 H   0  0  0  0  0  0
  -29.1256  -24.1216   21.2359 H   0  0  0  0  0  0
  -27.4037  -24.3869   21.1500 H   0  0  0  0  0  0
  -27.8801  -25.2109   18.6349 H   0  0  0  0  0  0
  -29.5160  -25.2342   19.1453 H   0  0  0  0  0  0
  -27.7502  -20.3186   20.3214 H   0  0  0  0  0  0
  -28.9860  -15.4589   21.0774 H   0  0  0  0  0  0
  1 25  1  0  0  0
  1 30  2  0  0  0
  1 82  1  0  0  0
  2  3  1  0  0  0
  2 25  1  0  0  0
  2 87  1  0  0  0
  2 88  1  0  0  0
  3  4  1  0  0  0
  3 89  1  0  0  0
  3 90  1  0  0  0
  4  5  1  0  0  0
  4 91  1  0  0  0
  4 92  1  0  0  0
  5  6  1  0  0  0
  5 26  1  0  0  0
  5 93  1  0  0  0
  6 25  1  0  0  0
  6 94  1  0  0  0
  6 95  1  0  0  0
  7  8  2  0  0  0
  7 26  1  0  0  0
  7 29  1  0  0  0
  8  9  1  0  0  0
  8 22  1  0  0  0
  9 10  1  0  0  0
  9 27  2  0  0  0
 10 11  2  0  0  0
 10 15  1  0  0  0
 11 12  1  0  0  0
 11 96  1  0  0  0
 12 13  2  0  0  0
 12 97  1  0  0  0
 13 14  1  0  0  0
 13 31  1  0  0  0
 14 15  2  0  0  0
 14 98  1  0  0  0
 15 99  1  0  0  0
 16 17  2  0  0  0
 16 21  1  0  0  0
 16 31  1  0  0  0
 17 18  1  0  0  0
 17100  1  0  0  0
 18 19  2  0  0  0
 18101  1  0  0  0
 19 20  1  0  0  0
 19 24  1  0  0  0
 20 21  2  0  0  0
 20102  1  0  0  0
 21 23  1  0  0  0
 22 28  1  0  0  0
 22 32  2  0  0  0
 26 27  1  0  0  0
 28103  1  0  0  0
 28104  1  0  0  0
 29105  1  0  0  0
 29106  1  0  0  0
 33 34  1  0  0  0
 33 66  1  0  0  0
 33 70  2  0  0  0
 34 36  1  0  0  0
 34 59  1  0  0  0
 34107  1  0  0  0
 35 44  2  0  0  0
 35 45  1  0  0  0
 35 68  1  0  0  0
 36 56  1  0  0  0
 36108  1  0  0  0
 37 39  1  0  0  0
 37 47  1  0  0  0
 37 66  1  0  0  0
 37109  1  0  0  0
 38 43  2  0  0  0
 38 46  1  0  0  0
 38 47  1  0  0  0
 39 64  1  0  0  0
 39 67  2  0  0  0
 40 52  1  0  0  0
 40 53  2  0  0  0
 40 58  1  0  0  0
 41110  1  0  0  0
 41111  1  0  0  0
 41112  1  0  0  0
 41 48  1  0  0  0
 42 43  1  0  0  0
 42 66  1  0  0  0
 42113  1  0  0  0
 42114  1  0  0  0
 43 44  1  0  0  0
 44115  1  0  0  0
 45 46  2  0  0  0
 45116  1  0  0  0
 46117  1  0  0  0
 47118  1  0  0  0
 47119  1  0  0  0
 48 56  1  0  0  0
 48 65  1  0  0  0
 48120  1  0  0  0
 49 50  1  0  0  0
 49 53  1  0  0  0
 49 64  1  0  0  0
 49121  1  0  0  0
 50 51  1  0  0  0
 50122  1  0  0  0
 50123  1  0  0  0
 51 52  1  0  0  0
 51124  1  0  0  0
 51125  1  0  0  0
 52126  1  0  0  0
 52127  1  0  0  0
 53 54  1  0  0  0
 54 55  2  0  0  0
 54128  1  0  0  0
 55 57  1  0  0  0
 55129  1  0  0  0
 56 69  2  0  0  0
 57 58  2  0  0  0
 57130  1  0  0  0
 58131  1  0  0  0
 59 60  1  0  0  0
 59 61  1  0  0  0
 59 62  1  0  0  0
 60132  1  0  0  0
 60133  1  0  0  0
 60134  1  0  0  0
 61135  1  0  0  0
 61136  1  0  0  0
 61137  1  0  0  0
 62138  1  0  0  0
 62139  1  0  0  0
 62140  1  0  0  0
 63 65  1  0  0  0
 63141  1  0  0  0
 63142  1  0  0  0
 63143  1  0  0  0
 64144  1  0  0  0
 65145  1  0  0  0
 68 79  1  0  0  0
 71 72  2  0  0  0
 71 73  1  0  0  0
 71146  1  0  0  0
 72 74  1  0  0  0
 72 85  1  0  0  0
 73 75  2  0  0  0
 73 86  1  0  0  0
 74 80  2  0  0  0
 74 81  1  0  0  0
 75 80  1  0  0  0
 75 82  1  0  0  0
 76 77  1  0  0  0
 76 78  1  0  0  0
 76 83  2  0  0  0
 77 81  1  0  0  0
 77 84  2  0  0  0
 78 79  1  0  0  0
 78147  1  0  0  0
 78148  1  0  0  0
 79149  1  0  0  0
 79150  1  0  0  0
 81151  1  0  0  0
 82152  1  0  0  0
M  ISO  4   1 100  68 101  79 101  82 100
M  END
> <chiral flag>
0

> <version>
0

> <s_m_source_file>
/data/baiqing/PycharmProjects/Reinvent-master-3.2/result/LINK_invent/BTK/process_docking_weight1_custom_product_contain_oxygen_bond_distance_aromatic_linkinvent_7_9_3/rearranged_h_0177.sdf

> <i_m_source_file_index>
16

> <r_mmod_Potential_Energy-OPLS-2005>
-170.883758544922

> <r_mmod_Stretch_Energy-OPLS-2005>
52.6067047119141

> <r_mmod_Bend_Energy-OPLS-2005>
114.746620178223

> <r_mmod_Torsional_Energy-OPLS-2005>
275.024780273438

> <r_mmod_Improper_Torsional_Energy-OPLS-2005>
7.55307912826538

> <r_mmod_Van_der_Waal_Energy-OPLS-2005>
158.577209472656

> <r_mmod_Electrostatic_Energy-OPLS-2005>
-563.015747070312

> <r_mmod_Solvation_Energy-OPLS-2005>
-243.304580688477

> <b_mmod_Minimization_Converged-OPLS-2005>
0

> <r_mmod_RMS_Derivative-OPLS-2005>
3.39780163764954

$$$$
16
                    3D
 Structure written by MMmdl.
159167  0  0  1  0            999 V2000
  -30.6079  -14.7323   20.4339 C   0  0  0  0  0  0
  -30.4350  -12.4379   19.4471 C   0  0  0  0  0  0
  -29.5021  -12.5001   18.2170 C   0  0  0  0  0  0
  -28.0316  -12.3226   18.6484 C   0  0  0  0  0  0
  -27.6447  -13.2250   19.8507 C   0  0  2  0  0  0
  -28.7013  -13.1582   20.9757 C   0  0  0  0  0  0
  -25.2557  -13.8192   20.5751 C   0  0  0  0  0  0
  -24.1824  -13.0433   20.9246 C   0  0  0  0  0  0
  -24.6411  -11.6915   20.8787 C   0  0  0  0  0  0
  -23.9094  -10.4287   21.0428 C   0  0  0  0  0  0
  -24.3639   -9.4183   21.9183 C   0  0  0  0  0  0
  -23.6299   -8.2225   22.0738 C   0  0  0  0  0  0
  -22.4276   -8.0284   21.3534 C   0  0  0  0  0  0
  -21.9940   -9.0266   20.4629 C   0  0  0  0  0  0
  -22.7285  -10.2140   20.3054 C   0  0  0  0  0  0
  -21.6844   -6.0740   22.5267 C   0  0  0  0  0  0
  -21.4007   -6.5635   23.8203 C   0  0  0  0  0  0
  -21.3673   -5.6788   24.9163 C   0  0  0  0  0  0
  -21.6058   -4.3054   24.7212 C   0  0  0  0  0  0
  -21.8811   -3.8145   23.4331 C   0  0  0  0  0  0
  -21.9181   -4.6966   22.3387 C   0  0  0  0  0  0
  -22.7846  -13.5219   21.1884 C   0  0  0  0  0  0
  -22.1647   -4.2150   21.0968 F   0  0  0  0  0  0
  -21.5647   -3.4537   25.7730 F   0  0  0  0  0  0
  -29.9947  -13.5032   20.3728 N   0  0  0  0  0  0
  -26.2976  -12.9372   20.3357 N   0  0  0  0  0  0
  -25.9340  -11.6521   20.5805 N   0  0  0  0  0  0
  -22.0486  -12.8192   22.0445 N   0  0  0  0  0  0
  -25.4294  -15.1915   20.4182 N   0  0  0  0  0  0
  -31.8175  -14.8337   20.2080 O   0  0  0  0  0  0
  -21.6621   -6.8893   21.4235 O   0  0  0  0  0  0
  -22.3524  -14.5513   20.6723 O   0  0  0  0  0  0
  -24.6328  -31.8550   23.1960 C   0  0  0  0  0  0
  -25.9157  -32.4739   23.8309 C   0  0  1  0  0  0
  -27.2318  -27.2764   20.1288 C   0  0  0  0  0  0
  -25.5937  -33.8543   24.2223 N   0  0  0  0  0  0
  -23.4266  -30.4757   21.5409 C   0  0  2  0  0  0
  -24.8757  -28.9101   20.1202 C   0  0  0  0  0  0
  -22.7501  -29.4599   22.4929 C   0  0  0  0  0  0
  -18.0284  -28.1381   22.8436 C   0  0  0  0  0  0
  -24.1488  -36.7298   23.2635 C   0  0  0  0  0  0
  -25.9712  -30.7732   21.3688 C   0  0  0  0  0  0
  -26.0475  -29.3920   20.7170 C   0  0  0  0  0  0
  -27.2326  -28.5914   20.7022 C   0  0  0  0  0  0
  -26.0387  -26.8450   19.5207 C   0  0  0  0  0  0
  -24.8744  -27.6422   19.5116 C   0  0  0  0  0  0
  -23.6450  -29.7980   20.1609 C   0  0  0  0  0  0
  -25.4123  -36.3070   24.0310 C   0  0  1  0  0  0
  -20.5884  -28.3695   23.1251 C   0  0  2  0  0  0
  -20.6765  -26.9407   22.5398 C   0  0  0  0  0  0
  -19.5746  -26.6370   21.5188 C   0  0  0  0  0  0
  -18.1926  -26.7911   22.1601 C   0  0  0  0  0  0
  -19.1539  -28.8856   23.2825 C   0  0  0  0  0  0
  -18.9468  -30.1456   23.8842 C   0  0  0  0  0  0
  -17.6470  -30.6561   24.0559 C   0  0  0  0  0  0
  -25.9063  -34.9432   23.5067 C   0  0  0  0  0  0
  -16.5358  -29.9073   23.6303 C   0  0  0  0  0  0
  -16.7277  -28.6506   23.0293 C   0  0  0  0  0  0
  -26.4510  -31.6580   25.0705 C   0  0  0  0  0  0
  -25.3704  -31.3726   26.1409 C   0  0  0  0  0  0
  -27.0385  -30.2996   24.6218 C   0  0  0  0  0  0
  -27.6038  -32.4373   25.7459 C   0  0  0  0  0  0
  -27.5578  -37.1805   24.8465 C   0  0  0  0  0  0
  -21.4221  -29.3044   22.3669 N   0  0  0  0  0  0
  -26.4288  -37.3782   23.9400 N   0  0  0  0  0  0
  -24.6957  -31.0529   22.0914 N   0  0  0  0  0  0
  -23.4192  -28.8118   23.3024 O   0  0  0  0  0  0
  -28.3487  -26.4197   20.0989 O   0  0  0  0  0  0
  -26.5657  -34.8906   22.4643 O   0  0  0  0  0  0
  -23.5475  -32.1378   23.7258 O   0  0  0  0  0  0
  -29.5600  -19.6279   20.8247 C   0  0  0  0  0  0
  -30.3799  -19.4118   21.9365 C   0  0  0  0  0  0
  -30.0185  -17.2612   20.7149 C   0  0  0  0  0  0
  -28.8134  -20.9252   20.4245 C   0  0  0  0  0  0
  -31.5976  -21.3521   19.0179 C   0  0  0  0  0  0
  -30.2821  -22.8200   21.5046 C   0  0  0  0  0  0
  -30.4609  -22.3977   19.0490 C   0  0  0  0  0  0
  -28.4231  -23.6647   19.9193 C   0  0  0  0  0  0
  -28.2808  -25.0674   20.7379 C   0  0  0  0  0  0
  -29.4661  -22.4180   20.2593 C   0  0  1  0  0  0
  -29.3132  -18.3287   20.2170 N   0  0  0  0  0  0
  -30.7069  -20.2089   23.0326 N   0  0  0  0  0  0
  -29.7774  -15.8406   20.4052 N   0  0  0  0  0  0
  -27.6220  -20.8404   20.1082 O   0  0  0  0  0  0
  -31.0789  -17.7921   21.9962 S   0  0  0  0  0  0
  -31.4757  -12.5607   19.1423 H   0  0  0  0  0  0
  -30.3735  -11.4577   19.9257 H   0  0  0  0  0  0
  -29.7715  -11.7313   17.4920 H   0  0  0  0  0  0
  -29.6252  -13.4566   17.7055 H   0  0  0  0  0  0
  -27.8999  -11.2747   18.9219 H   0  0  0  0  0  0
  -27.3597  -12.5040   17.8091 H   0  0  0  0  0  0
  -27.6345  -14.2447   19.4657 H   0  0  0  0  0  0
  -28.7380  -12.1620   21.4183 H   0  0  0  0  0  0
  -28.4568  -13.8475   21.7861 H   0  0  0  0  0  0
  -25.2786   -9.5623   22.4771 H   0  0  0  0  0  0
  -23.9991   -7.4596   22.7445 H   0  0  0  0  0  0
  -21.0882   -8.8803   19.8931 H   0  0  0  0  0  0
  -22.3759  -10.9683   19.6169 H   0  0  0  0  0  0
  -21.1984   -7.6137   23.9710 H   0  0  0  0  0  0
  -21.1524   -6.0515   25.9075 H   0  0  0  0  0  0
  -22.0583   -2.7607   23.2822 H   0  0  0  0  0  0
  -22.4099  -11.9855   22.4831 H   0  0  0  0  0  0
  -21.1095  -13.1189   22.2638 H   0  0  0  0  0  0
  -24.6711  -15.8546   20.5368 H   0  0  0  0  0  0
  -26.2864  -15.6319   20.1123 H   0  0  0  0  0  0
  -26.7202  -32.5408   23.1032 H   0  0  0  0  0  0
  -25.0049  -33.9673   25.0343 H   0  0  0  0  0  0
  -22.7232  -31.2998   21.3915 H   0  0  0  0  0  0
  -23.3729  -35.9647   23.3306 H   0  0  0  0  0  0
  -24.3573  -36.8949   22.2051 H   0  0  0  0  0  0
  -23.7279  -37.6506   23.6689 H   0  0  0  0  0  0
  -26.1102  -31.5305   20.5964 H   0  0  0  0  0  0
  -26.8493  -30.8285   22.0014 H   0  0  0  0  0  0
  -28.1395  -28.9685   21.1541 H   0  0  0  0  0  0
  -26.0063  -25.8709   19.0500 H   0  0  0  0  0  0
  -23.9773  -27.2676   19.0389 H   0  0  0  0  0  0
  -23.7735  -30.5701   19.4024 H   0  0  0  0  0  0
  -22.7627  -29.2350   19.8511 H   0  0  0  0  0  0
  -25.1315  -36.1888   25.0803 H   0  0  0  0  0  0
  -20.9953  -28.3288   24.1385 H   0  0  0  0  0  0
  -20.5641  -26.2323   23.3621 H   0  0  0  0  0  0
  -21.6641  -26.7417   22.1223 H   0  0  0  0  0  0
  -19.6910  -25.6275   21.1243 H   0  0  0  0  0  0
  -19.6661  -27.3156   20.6689 H   0  0  0  0  0  0
  -17.4189  -26.6610   21.4013 H   0  0  0  0  0  0
  -18.0348  -26.0054   22.8999 H   0  0  0  0  0  0
  -19.7949  -30.7270   24.2184 H   0  0  0  0  0  0
  -17.5029  -31.6221   24.5203 H   0  0  0  0  0  0
  -15.5364  -30.2964   23.7661 H   0  0  0  0  0  0
  -15.8672  -28.0857   22.6965 H   0  0  0  0  0  0
  -24.5837  -30.7149   25.7701 H   0  0  0  0  0  0
  -24.8917  -32.2879   26.4884 H   0  0  0  0  0  0
  -25.7957  -30.8828   27.0166 H   0  0  0  0  0  0
  -26.2979  -29.6694   24.1273 H   0  0  0  0  0  0
  -27.4108  -29.7326   25.4769 H   0  0  0  0  0  0
  -27.8826  -30.4306   23.9441 H   0  0  0  0  0  0
  -27.2627  -33.3678   26.2018 H   0  0  0  0  0  0
  -28.3799  -32.6953   25.0238 H   0  0  0  0  0  0
  -28.0767  -31.8538   26.5382 H   0  0  0  0  0  0
  -28.2589  -38.0108   24.7517 H   0  0  0  0  0  0
  -28.1076  -36.2632   24.6274 H   0  0  0  0  0  0
  -27.2297  -37.1456   25.8872 H   0  0  0  0  0  0
  -20.9442  -29.8825   21.6899 H   0  0  0  0  0  0
  -26.0147  -38.2839   24.1415 H   0  0  0  0  0  0
  -32.2486  -21.5315   18.1605 H   0  0  0  0  0  0
  -31.2282  -20.3352   18.8996 H   0  0  0  0  0  0
  -32.2307  -21.3854   19.9029 H   0  0  0  0  0  0
  -31.1471  -22.1818   21.6531 H   0  0  0  0  0  0
  -29.6757  -22.8118   22.4125 H   0  0  0  0  0  0
  -30.7178  -23.8123   21.3936 H   0  0  0  0  0  0
  -29.8988  -22.2839   18.1207 H   0  0  0  0  0  0
  -30.9314  -23.3800   18.9813 H   0  0  0  0  0  0
  -28.5768  -23.9659   18.8831 H   0  0  0  0  0  0
  -27.4129  -23.2579   19.8823 H   0  0  0  0  0  0
  -29.0331  -25.1146   21.5202 H   0  0  0  0  0  0
  -27.3488  -25.0200   21.3045 H   0  0  0  0  0  0
  -30.3414  -21.1369   23.2228 H   0  0  0  0  0  0
  -31.3459  -19.9009   23.7611 H   0  0  0  0  0  0
  -28.8109  -15.6180   20.2443 H   0  0  0  0  0  0
  1 25  1  0  0  0
  1 30  2  0  0  0
  1 83  1  0  0  0
  2  3  1  0  0  0
  2 25  1  0  0  0
  2 86  1  0  0  0
  2 87  1  0  0  0
  3  4  1  0  0  0
  3 88  1  0  0  0
  3 89  1  0  0  0
  4  5  1  0  0  0
  4 90  1  0  0  0
  4 91  1  0  0  0
  5  6  1  0  0  0
  5 26  1  0  0  0
  5 92  1  0  0  0
  6 25  1  0  0  0
  6 93  1  0  0  0
  6 94  1  0  0  0
  7  8  2  0  0  0
  7 26  1  0  0  0
  7 29  1  0  0  0
  8  9  1  0  0  0
  8 22  1  0  0  0
  9 10  1  0  0  0
  9 27  2  0  0  0
 10 11  2  0  0  0
 10 15  1  0  0  0
 11 12  1  0  0  0
 11 95  1  0  0  0
 12 13  2  0  0  0
 12 96  1  0  0  0
 13 14  1  0  0  0
 13 31  1  0  0  0
 14 15  2  0  0  0
 14 97  1  0  0  0
 15 98  1  0  0  0
 16 17  2  0  0  0
 16 21  1  0  0  0
 16 31  1  0  0  0
 17 18  1  0  0  0
 17 99  1  0  0  0
 18 19  2  0  0  0
 18100  1  0  0  0
 19 20  1  0  0  0
 19 24  1  0  0  0
 20 21  2  0  0  0
 20101  1  0  0  0
 21 23  1  0  0  0
 22 28  1  0  0  0
 22 32  2  0  0  0
 26 27  1  0  0  0
 28102  1  0  0  0
 28103  1  0  0  0
 29104  1  0  0  0
 29105  1  0  0  0
 33 34  1  0  0  0
 33 66  1  0  0  0
 33 70  2  0  0  0
 34 36  1  0  0  0
 34 59  1  0  0  0
 34106  1  0  0  0
 35 44  2  0  0  0
 35 45  1  0  0  0
 35 68  1  0  0  0
 36 56  1  0  0  0
 36107  1  0  0  0
 37 39  1  0  0  0
 37 47  1  0  0  0
 37 66  1  0  0  0
 37108  1  0  0  0
 38 43  2  0  0  0
 38 46  1  0  0  0
 38 47  1  0  0  0
 39 64  1  0  0  0
 39 67  2  0  0  0
 40 52  1  0  0  0
 40 53  2  0  0  0
 40 58  1  0  0  0
 41109  1  0  0  0
 41110  1  0  0  0
 41111  1  0  0  0
 41 48  1  0  0  0
 42 43  1  0  0  0
 42 66  1  0  0  0
 42112  1  0  0  0
 42113  1  0  0  0
 43 44  1  0  0  0
 44114  1  0  0  0
 45 46  2  0  0  0
 45115  1  0  0  0
 46116  1  0  0  0
 47117  1  0  0  0
 47118  1  0  0  0
 48 56  1  0  0  0
 48 65  1  0  0  0
 48119  1  0  0  0
 49 50  1  0  0  0
 49 53  1  0  0  0
 49 64  1  0  0  0
 49120  1  0  0  0
 50 51  1  0  0  0
 50121  1  0  0  0
 50122  1  0  0  0
 51 52  1  0  0  0
 51123  1  0  0  0
 51124  1  0  0  0
 52125  1  0  0  0
 52126  1  0  0  0
 53 54  1  0  0  0
 54 55  2  0  0  0
 54127  1  0  0  0
 55 57  1  0  0  0
 55128  1  0  0  0
 56 69  2  0  0  0
 57 58  2  0  0  0
 57129  1  0  0  0
 58130  1  0  0  0
 59 60  1  0  0  0
 59 61  1  0  0  0
 59 62  1  0  0  0
 60131  1  0  0  0
 60132  1  0  0  0
 60133  1  0  0  0
 61134  1  0  0  0
 61135  1  0  0  0
 61136  1  0  0  0
 62137  1  0  0  0
 62138  1  0  0  0
 62139  1  0  0  0
 63 65  1  0  0  0
 63140  1  0  0  0
 63141  1  0  0  0
 63142  1  0  0  0
 64143  1  0  0  0
 65144  1  0  0  0
 68 79  1  0  0  0
 71 72  2  0  0  0
 71 74  1  0  0  0
 71 81  1  0  0  0
 72 82  1  0  0  0
 72 85  1  0  0  0
 73 81  2  0  0  0
 73 83  1  0  0  0
 73 85  1  0  0  0
 74 84  2  0  0  0
 74 80  1  0  0  0
 75 77  1  0  0  0
 75145  1  0  0  0
 75146  1  0  0  0
 75147  1  0  0  0
 76148  1  0  0  0
 76149  1  0  0  0
 76150  1  0  0  0
 76 80  1  0  0  0
 77 80  1  0  0  0
 77151  1  0  0  0
 77152  1  0  0  0
 78 79  1  0  0  0
 78 80  1  0  0  0
 78153  1  0  0  0
 78154  1  0  0  0
 79155  1  0  0  0
 79156  1  0  0  0
 82157  1  0  0  0
 82158  1  0  0  0
 83159  1  0  0  0
M  ISO  4   1 100  68 101  79 101  83 100
M  END
> <chiral flag>
0

> <version>
0

> <s_m_source_file>
/data/baiqing/PycharmProjects/Reinvent-master-3.2/result/LINK_invent/BTK/process_docking_weight1_custom_product_contain_oxygen_bond_distance_aromatic_linkinvent_7_9_3/rearranged_h_0177.sdf

> <i_m_source_file_index>
17

> <r_mmod_Potential_Energy-OPLS-2005>
423.791412353516

> <r_mmod_Stretch_Energy-OPLS-2005>
141.951263427734

> <r_mmod_Bend_Energy-OPLS-2005>
205.082382202148

> <r_mmod_Torsional_Energy-OPLS-2005>
299.280883789062

> <r_mmod_Improper_Torsional_Energy-OPLS-2005>
11.5971908569336

> <r_mmod_Van_der_Waal_Energy-OPLS-2005>
126.948333740234

> <r_mmod_Electrostatic_Energy-OPLS-2005>
-217.116088867188

> <r_mmod_Solvation_Energy-OPLS-2005>
-221.646682739258

> <b_mmod_Minimization_Converged-OPLS-2005>
0

> <r_mmod_RMS_Derivative-OPLS-2005>
3.33213520050049

$$$$
17
                    3D
 Structure written by MMmdl.
160168  0  0  1  0            999 V2000
  -30.7279  -14.5011   20.5567 C   0  0  0  0  0  0
  -30.4147  -12.3211   19.4374 C   0  0  0  0  0  0
  -29.4933  -12.4963   18.2138 C   0  0  0  0  0  0
  -28.0165  -12.3549   18.6280 C   0  0  0  0  0  0
  -27.6570  -13.2153   19.8692 C   0  0  2  0  0  0
  -28.7011  -13.0443   20.9973 C   0  0  0  0  0  0
  -25.2563  -13.8183   20.5682 C   0  0  0  0  0  0
  -24.1828  -13.0442   20.9182 C   0  0  0  0  0  0
  -24.6394  -11.6915   20.8748 C   0  0  0  0  0  0
  -23.9064  -10.4294   21.0410 C   0  0  0  0  0  0
  -24.3617   -9.4209   21.9185 C   0  0  0  0  0  0
  -23.6291   -8.2245   22.0756 C   0  0  0  0  0  0
  -22.4276   -8.0284   21.3546 C   0  0  0  0  0  0
  -21.9911   -9.0257   20.4647 C   0  0  0  0  0  0
  -22.7237  -10.2132   20.3057 C   0  0  0  0  0  0
  -21.6852   -6.0736   22.5276 C   0  0  0  0  0  0
  -21.4012   -6.5641   23.8210 C   0  0  0  0  0  0
  -21.3657   -5.6795   24.9173 C   0  0  0  0  0  0
  -21.6044   -4.3055   24.7223 C   0  0  0  0  0  0
  -21.8821   -3.8146   23.4343 C   0  0  0  0  0  0
  -21.9192   -4.6966   22.3399 C   0  0  0  0  0  0
  -22.7845  -13.5232   21.1844 C   0  0  0  0  0  0
  -22.1661   -4.2151   21.0976 F   0  0  0  0  0  0
  -21.5630   -3.4540   25.7733 F   0  0  0  0  0  0
  -30.0286  -13.3357   20.4343 N   0  0  0  0  0  0
  -26.3004  -12.9366   20.3355 N   0  0  0  0  0  0
  -25.9327  -11.6519   20.5785 N   0  0  0  0  0  0
  -22.0489  -12.8228   22.0401 N   0  0  0  0  0  0
  -25.4278  -15.1899   20.4074 N   0  0  0  0  0  0
  -31.8656  -14.6099   20.0902 O   0  0  0  0  0  0
  -21.6640   -6.8881   21.4239 O   0  0  0  0  0  0
  -22.3527  -14.5541   20.6692 O   0  0  0  0  0  0
  -24.6182  -31.8661   23.2109 C   0  0  0  0  0  0
  -25.9059  -32.4812   23.8396 C   0  0  1  0  0  0
  -27.2224  -27.4019   20.0946 C   0  0  0  0  0  0
  -25.5898  -33.8613   24.2318 N   0  0  0  0  0  0
  -23.4067  -30.4935   21.5527 C   0  0  2  0  0  0
  -24.8494  -28.9668   20.1102 C   0  0  0  0  0  0
  -22.7426  -29.4658   22.4985 C   0  0  0  0  0  0
  -18.0271  -28.1383   22.8492 C   0  0  0  0  0  0
  -24.1485  -36.7315   23.2641 C   0  0  0  0  0  0
  -25.9413  -30.8238   21.3690 C   0  0  0  0  0  0
  -26.0151  -29.4587   20.7109 C   0  0  0  0  0  0
  -27.2035  -28.6840   20.7021 C   0  0  0  0  0  0
  -26.0355  -26.9536   19.4608 C   0  0  0  0  0  0
  -24.8570  -27.7151   19.4806 C   0  0  0  0  0  0
  -23.6142  -29.8351   20.1644 C   0  0  0  0  0  0
  -25.4107  -36.3110   24.0337 C   0  0  1  0  0  0
  -20.5869  -28.3662   23.1310 C   0  0  2  0  0  0
  -20.6762  -26.9395   22.5412 C   0  0  0  0  0  0
  -19.5736  -26.6383   21.5218 C   0  0  0  0  0  0
  -18.1914  -26.7925   22.1626 C   0  0  0  0  0  0
  -19.1524  -28.8837   23.2898 C   0  0  0  0  0  0
  -18.9456  -30.1444   23.8902 C   0  0  0  0  0  0
  -17.6460  -30.6584   24.0567 C   0  0  0  0  0  0
  -25.9032  -34.9472   23.5124 C   0  0  0  0  0  0
  -16.5348  -29.9087   23.6334 C   0  0  0  0  0  0
  -16.7260  -28.6508   23.0348 C   0  0  0  0  0  0
  -26.4465  -31.6608   25.0739 C   0  0  0  0  0  0
  -25.3721  -31.3730   26.1483 C   0  0  0  0  0  0
  -27.0289  -30.3044   24.6131 C   0  0  0  0  0  0
  -27.6032  -32.4332   25.7506 C   0  0  0  0  0  0
  -27.5581  -37.1815   24.8466 C   0  0  0  0  0  0
  -21.4148  -29.3037   22.3723 N   0  0  0  0  0  0
  -26.4291  -37.3801   23.9413 N   0  0  0  0  0  0
  -24.6745  -31.0746   22.1023 N   0  0  0  0  0  0
  -23.4188  -28.8184   23.3021 O   0  0  0  0  0  0
  -28.3599  -26.6038   20.1470 O   0  0  0  0  0  0
  -26.5603  -34.8926   22.4689 O   0  0  0  0  0  0
  -23.5366  -32.1418   23.7488 O   0  0  0  0  0  0
  -29.5664  -17.9730   21.0849 C   0  0  0  0  0  0
  -29.9731  -19.3384   21.1699 C   0  0  0  0  0  0
  -31.3500  -19.5953   21.3706 C   0  0  0  0  0  0
  -30.5147  -16.9223   21.1775 C   0  0  0  0  0  0
  -32.2229  -18.5024   21.4810 C   0  0  0  0  0  0
  -28.9527  -20.4596   21.0656 C   0  0  0  0  0  0
  -29.1312  -24.2342   20.6174 C   0  0  0  0  0  0
  -28.0865  -23.1634   22.6945 C   0  0  0  0  0  0
  -34.5602  -17.7294   21.3538 C   0  0  0  0  0  0
  -28.1255  -25.1869   19.9312 C   0  0  0  0  0  0
  -28.5254  -22.9397   21.2350 C   0  0  2  0  0  0
  -31.8185  -17.2182   21.3995 N   0  0  0  0  0  0
  -30.0506  -15.5693   21.0479 N   0  0  0  0  0  0
  -33.5806  -18.7534   21.6936 N   0  0  0  0  0  0
  -29.3832  -21.7379   21.1421 N   0  0  0  0  0  0
  -27.7546  -20.1888   20.9399 O   0  0  0  0  0  0
  -30.3351  -24.5068   20.6695 O   0  0  0  0  0  0
  -31.8511  -20.8550   21.4607 F   0  0  0  0  0  0
  -31.4607  -12.3968   19.1340 H   0  0  0  0  0  0
  -30.3054  -11.3214   19.8611 H   0  0  0  0  0  0
  -29.7391  -11.7592   17.4483 H   0  0  0  0  0  0
  -29.6583  -13.4752   17.7605 H   0  0  0  0  0  0
  -27.8354  -11.3010   18.8439 H   0  0  0  0  0  0
  -27.3638  -12.6080   17.7920 H   0  0  0  0  0  0
  -27.6872  -14.2560   19.5451 H   0  0  0  0  0  0
  -28.6824  -12.0239   21.3828 H   0  0  0  0  0  0
  -28.4640  -13.6851   21.8475 H   0  0  0  0  0  0
  -25.2764   -9.5682   22.4755 H   0  0  0  0  0  0
  -24.0001   -7.4636   22.7477 H   0  0  0  0  0  0
  -21.0842   -8.8770   19.8952 H   0  0  0  0  0  0
  -22.3700  -10.9669   19.6161 H   0  0  0  0  0  0
  -21.2006   -7.6150   23.9712 H   0  0  0  0  0  0
  -21.1478   -6.0525   25.9074 H   0  0  0  0  0  0
  -22.0603   -2.7610   23.2841 H   0  0  0  0  0  0
  -22.4101  -11.9880   22.4779 H   0  0  0  0  0  0
  -21.1106  -13.1250   22.2618 H   0  0  0  0  0  0
  -24.6590  -15.8442   20.5106 H   0  0  0  0  0  0
  -26.2739  -15.6268   20.0646 H   0  0  0  0  0  0
  -26.7127  -32.5501   23.1154 H   0  0  0  0  0  0
  -25.0038  -33.9776   25.0456 H   0  0  0  0  0  0
  -22.6973  -31.3126   21.4168 H   0  0  0  0  0  0
  -23.3741  -35.9654   23.3307 H   0  0  0  0  0  0
  -24.3579  -36.8925   22.2056 H   0  0  0  0  0  0
  -23.7241  -37.6524   23.6644 H   0  0  0  0  0  0
  -26.0605  -31.5928   20.6041 H   0  0  0  0  0  0
  -26.8278  -30.8716   21.9898 H   0  0  0  0  0  0
  -28.0967  -29.0568   21.1837 H   0  0  0  0  0  0
  -25.9828  -26.0077   18.9421 H   0  0  0  0  0  0
  -23.9645  -27.3354   19.0017 H   0  0  0  0  0  0
  -23.7225  -30.6133   19.4079 H   0  0  0  0  0  0
  -22.7373  -29.2569   19.8653 H   0  0  0  0  0  0
  -25.1287  -36.1973   25.0831 H   0  0  0  0  0  0
  -20.9958  -28.3213   24.1432 H   0  0  0  0  0  0
  -20.5673  -26.2262   23.3598 H   0  0  0  0  0  0
  -21.6629  -26.7438   22.1197 H   0  0  0  0  0  0
  -19.6888  -25.6302   21.1225 H   0  0  0  0  0  0
  -19.6671  -27.3207   20.6764 H   0  0  0  0  0  0
  -17.4187  -26.6675   21.4023 H   0  0  0  0  0  0
  -18.0305  -26.0071   22.9025 H   0  0  0  0  0  0
  -19.7936  -30.7257   24.2268 H   0  0  0  0  0  0
  -17.5022  -31.6270   24.5157 H   0  0  0  0  0  0
  -15.5349  -30.2993   23.7669 H   0  0  0  0  0  0
  -15.8658  -28.0836   22.7059 H   0  0  0  0  0  0
  -24.5885  -30.7082   25.7828 H   0  0  0  0  0  0
  -24.8926  -32.2899   26.4921 H   0  0  0  0  0  0
  -25.8073  -30.8906   27.0245 H   0  0  0  0  0  0
  -26.2842  -29.6823   24.1149 H   0  0  0  0  0  0
  -27.4015  -29.7259   25.4595 H   0  0  0  0  0  0
  -27.8694  -30.4358   23.9313 H   0  0  0  0  0  0
  -27.2628  -33.3619   26.2103 H   0  0  0  0  0  0
  -28.3830  -32.6916   25.0329 H   0  0  0  0  0  0
  -28.0702  -31.8444   26.5415 H   0  0  0  0  0  0
  -28.2606  -38.0110   24.7513 H   0  0  0  0  0  0
  -28.1068  -36.2635   24.6281 H   0  0  0  0  0  0
  -27.2294  -37.1463   25.8871 H   0  0  0  0  0  0
  -20.9304  -29.8789   21.6976 H   0  0  0  0  0  0
  -26.0170  -38.2876   24.1414 H   0  0  0  0  0  0
  -28.5217  -17.7448   20.9274 H   0  0  0  0  0  0
  -27.4427  -24.0396   22.7862 H   0  0  0  0  0  0
  -28.9466  -23.3201   23.3469 H   0  0  0  0  0  0
  -27.5290  -22.3105   23.0806 H   0  0  0  0  0  0
  -35.5720  -18.1287   21.4291 H   0  0  0  0  0  0
  -34.4130  -17.3725   20.3333 H   0  0  0  0  0  0
  -34.4805  -16.8777   22.0307 H   0  0  0  0  0  0
  -27.1487  -24.9066   20.3257 H   0  0  0  0  0  0
  -28.1223  -24.9787   18.8609 H   0  0  0  0  0  0
  -27.6211  -22.7261   20.6616 H   0  0  0  0  0  0
  -29.0832  -15.4053   21.2726 H   0  0  0  0  0  0
  -33.8552  -19.7302   21.6376 H   0  0  0  0  0  0
  -30.3877  -21.8665   21.2191 H   0  0  0  0  0  0
  1 25  1  0  0  0
  1 30  2  0  0  0
  1 83  1  0  0  0
  2  3  1  0  0  0
  2 25  1  0  0  0
  2 89  1  0  0  0
  2 90  1  0  0  0
  3  4  1  0  0  0
  3 91  1  0  0  0
  3 92  1  0  0  0
  4  5  1  0  0  0
  4 93  1  0  0  0
  4 94  1  0  0  0
  5  6  1  0  0  0
  5 26  1  0  0  0
  5 95  1  0  0  0
  6 25  1  0  0  0
  6 96  1  0  0  0
  6 97  1  0  0  0
  7  8  2  0  0  0
  7 26  1  0  0  0
  7 29  1  0  0  0
  8  9  1  0  0  0
  8 22  1  0  0  0
  9 10  1  0  0  0
  9 27  2  0  0  0
 10 11  2  0  0  0
 10 15  1  0  0  0
 11 12  1  0  0  0
 11 98  1  0  0  0
 12 13  2  0  0  0
 12 99  1  0  0  0
 13 14  1  0  0  0
 13 31  1  0  0  0
 14 15  2  0  0  0
 14100  1  0  0  0
 15101  1  0  0  0
 16 17  2  0  0  0
 16 21  1  0  0  0
 16 31  1  0  0  0
 17 18  1  0  0  0
 17102  1  0  0  0
 18 19  2  0  0  0
 18103  1  0  0  0
 19 20  1  0  0  0
 19 24  1  0  0  0
 20 21  2  0  0  0
 20104  1  0  0  0
 21 23  1  0  0  0
 22 28  1  0  0  0
 22 32  2  0  0  0
 26 27  1  0  0  0
 28105  1  0  0  0
 28106  1  0  0  0
 29107  1  0  0  0
 29108  1  0  0  0
 33 34  1  0  0  0
 33 66  1  0  0  0
 33 70  2  0  0  0
 34 36  1  0  0  0
 34 59  1  0  0  0
 34109  1  0  0  0
 35 44  2  0  0  0
 35 45  1  0  0  0
 35 68  1  0  0  0
 36 56  1  0  0  0
 36110  1  0  0  0
 37 39  1  0  0  0
 37 47  1  0  0  0
 37 66  1  0  0  0
 37111  1  0  0  0
 38 43  2  0  0  0
 38 46  1  0  0  0
 38 47  1  0  0  0
 39 64  1  0  0  0
 39 67  2  0  0  0
 40 52  1  0  0  0
 40 53  2  0  0  0
 40 58  1  0  0  0
 41112  1  0  0  0
 41113  1  0  0  0
 41114  1  0  0  0
 41 48  1  0  0  0
 42 43  1  0  0  0
 42 66  1  0  0  0
 42115  1  0  0  0
 42116  1  0  0  0
 43 44  1  0  0  0
 44117  1  0  0  0
 45 46  2  0  0  0
 45118  1  0  0  0
 46119  1  0  0  0
 47120  1  0  0  0
 47121  1  0  0  0
 48 56  1  0  0  0
 48 65  1  0  0  0
 48122  1  0  0  0
 49 50  1  0  0  0
 49 53  1  0  0  0
 49 64  1  0  0  0
 49123  1  0  0  0
 50 51  1  0  0  0
 50124  1  0  0  0
 50125  1  0  0  0
 51 52  1  0  0  0
 51126  1  0  0  0
 51127  1  0  0  0
 52128  1  0  0  0
 52129  1  0  0  0
 53 54  1  0  0  0
 54 55  2  0  0  0
 54130  1  0  0  0
 55 57  1  0  0  0
 55131  1  0  0  0
 56 69  2  0  0  0
 57 58  2  0  0  0
 57132  1  0  0  0
 58133  1  0  0  0
 59 60  1  0  0  0
 59 61  1  0  0  0
 59 62  1  0  0  0
 60134  1  0  0  0
 60135  1  0  0  0
 60136  1  0  0  0
 61137  1  0  0  0
 61138  1  0  0  0
 61139  1  0  0  0
 62140  1  0  0  0
 62141  1  0  0  0
 62142  1  0  0  0
 63 65  1  0  0  0
 63143  1  0  0  0
 63144  1  0  0  0
 63145  1  0  0  0
 64146  1  0  0  0
 65147  1  0  0  0
 68 80  1  0  0  0
 71 72  2  0  0  0
 71 74  1  0  0  0
 71148  1  0  0  0
 72 73  1  0  0  0
 72 76  1  0  0  0
 73 75  2  0  0  0
 73 88  1  0  0  0
 74 82  2  0  0  0
 74 83  1  0  0  0
 75 82  1  0  0  0
 75 84  1  0  0  0
 76 85  1  0  0  0
 76 86  2  0  0  0
 77 80  1  0  0  0
 77 81  1  0  0  0
 77 87  2  0  0  0
 78149  1  0  0  0
 78150  1  0  0  0
 78151  1  0  0  0
 78 81  1  0  0  0
 79 84  1  0  0  0
 79152  1  0  0  0
 79153  1  0  0  0
 79154  1  0  0  0
 80155  1  0  0  0
 80156  1  0  0  0
 81 85  1  0  0  0
 81157  1  0  0  0
 83158  1  0  0  0
 84159  1  0  0  0
 85160  1  0  0  0
M  ISO  4   1 100  68 101  80 101  83 100
M  END
> <chiral flag>
0

> <version>
0

> <s_m_source_file>
/data/baiqing/PycharmProjects/Reinvent-master-3.2/result/LINK_invent/BTK/process_docking_weight1_custom_product_contain_oxygen_bond_distance_aromatic_linkinvent_7_9_3/rearranged_h_0177.sdf

> <i_m_source_file_index>
18

> <r_mmod_Potential_Energy-OPLS-2005>
-284.645080566406

> <r_mmod_Stretch_Energy-OPLS-2005>
46.2089538574219

> <r_mmod_Bend_Energy-OPLS-2005>
112.530364990234

> <r_mmod_Torsional_Energy-OPLS-2005>
214.674835205078

> <r_mmod_Improper_Torsional_Energy-OPLS-2005>
5.94763422012329

> <r_mmod_Van_der_Waal_Energy-OPLS-2005>
174.547821044922

> <r_mmod_Electrostatic_Energy-OPLS-2005>
-591.59033203125

> <r_mmod_Solvation_Energy-OPLS-2005>
-268.045623779297

> <b_mmod_Minimization_Converged-OPLS-2005>
0

> <r_mmod_RMS_Derivative-OPLS-2005>
1.26842939853668

$$$$
18
                    3D
 Structure written by MMmdl.
156164  0  0  1  0            999 V2000
  -30.7449  -14.3968   20.6392 C   0  0  0  0  0  0
  -30.4174  -12.2889   19.3996 C   0  0  0  0  0  0
  -29.4863  -12.5196   18.1930 C   0  0  0  0  0  0
  -28.0079  -12.3821   18.6060 C   0  0  0  0  0  0
  -27.6645  -13.2037   19.8779 C   0  0  2  0  0  0
  -28.7056  -12.9509   20.9922 C   0  0  0  0  0  0
  -25.2603  -13.8159   20.5661 C   0  0  0  0  0  0
  -24.1845  -13.0443   20.9152 C   0  0  0  0  0  0
  -24.6389  -11.6905   20.8710 C   0  0  0  0  0  0
  -23.9039  -10.4297   21.0392 C   0  0  0  0  0  0
  -24.3595   -9.4218   21.9174 C   0  0  0  0  0  0
  -23.6271   -8.2254   22.0754 C   0  0  0  0  0  0
  -22.4261   -8.0279   21.3536 C   0  0  0  0  0  0
  -21.9882   -9.0261   20.4642 C   0  0  0  0  0  0
  -22.7203  -10.2149   20.3047 C   0  0  0  0  0  0
  -21.6854   -6.0722   22.5264 C   0  0  0  0  0  0
  -21.4020   -6.5635   23.8198 C   0  0  0  0  0  0
  -21.3654   -5.6792   24.9160 C   0  0  0  0  0  0
  -21.6040   -4.3054   24.7216 C   0  0  0  0  0  0
  -21.8823   -3.8132   23.4344 C   0  0  0  0  0  0
  -21.9195   -4.6946   22.3394 C   0  0  0  0  0  0
  -22.7871  -13.5249   21.1819 C   0  0  0  0  0  0
  -22.1663   -4.2126   21.0977 F   0  0  0  0  0  0
  -21.5619   -3.4547   25.7736 F   0  0  0  0  0  0
  -30.0424  -13.2504   20.4465 N   0  0  0  0  0  0
  -26.3039  -12.9316   20.3371 N   0  0  0  0  0  0
  -25.9320  -11.6481   20.5748 N   0  0  0  0  0  0
  -22.0509  -12.8259   22.0387 N   0  0  0  0  0  0
  -25.4343  -15.1872   20.4066 N   0  0  0  0  0  0
  -31.8175  -14.6375   20.0757 O   0  0  0  0  0  0
  -21.6638   -6.8866   21.4226 O   0  0  0  0  0  0
  -22.3560  -14.5564   20.6674 O   0  0  0  0  0  0
  -24.6142  -31.8702   23.2137 C   0  0  0  0  0  0
  -25.9042  -32.4837   23.8422 C   0  0  1  0  0  0
  -27.2246  -27.4524   20.0782 C   0  0  0  0  0  0
  -25.5907  -33.8634   24.2347 N   0  0  0  0  0  0
  -23.3994  -30.4980   21.5546 C   0  0  2  0  0  0
  -24.8392  -28.9704   20.1149 C   0  0  0  0  0  0
  -22.7404  -29.4673   22.4991 C   0  0  0  0  0  0
  -18.0283  -28.1358   22.8493 C   0  0  0  0  0  0
  -24.1475  -36.7321   23.2614 C   0  0  0  0  0  0
  -25.9275  -30.8410   21.3631 C   0  0  0  0  0  0
  -26.0011  -29.4779   20.7089 C   0  0  0  0  0  0
  -27.1958  -28.7248   20.6903 C   0  0  0  0  0  0
  -26.0389  -26.9605   19.4775 C   0  0  0  0  0  0
  -24.8511  -27.7093   19.5007 C   0  0  0  0  0  0
  -23.6048  -29.8387   20.1660 C   0  0  0  0  0  0
  -25.4078  -36.3117   24.0345 C   0  0  1  0  0  0
  -20.5870  -28.3650   23.1309 C   0  0  2  0  0  0
  -20.6763  -26.9389   22.5401 C   0  0  0  0  0  0
  -19.5738  -26.6376   21.5198 C   0  0  0  0  0  0
  -18.1928  -26.7905   22.1634 C   0  0  0  0  0  0
  -19.1529  -28.8822   23.2903 C   0  0  0  0  0  0
  -18.9458  -30.1423   23.8918 C   0  0  0  0  0  0
  -17.6459  -30.6566   24.0569 C   0  0  0  0  0  0
  -25.9036  -34.9490   23.5141 C   0  0  0  0  0  0
  -16.5352  -29.9076   23.6308 C   0  0  0  0  0  0
  -16.7271  -28.6490   23.0339 C   0  0  0  0  0  0
  -26.4462  -31.6604   25.0740 C   0  0  0  0  0  0
  -25.3735  -31.3716   26.1498 C   0  0  0  0  0  0
  -27.0275  -30.3055   24.6081 C   0  0  0  0  0  0
  -27.6057  -32.4294   25.7493 C   0  0  0  0  0  0
  -27.5616  -37.1739   24.8406 C   0  0  0  0  0  0
  -21.4138  -29.3033   22.3727 N   0  0  0  0  0  0
  -26.4234  -37.3838   23.9498 N   0  0  0  0  0  0
  -24.6657  -31.0826   22.1031 N   0  0  0  0  0  0
  -23.4184  -28.8201   23.3018 O   0  0  0  0  0  0
  -28.4038  -26.7358   20.0876 O   0  0  0  0  0  0
  -26.5591  -34.8940   22.4700 O   0  0  0  0  0  0
  -23.5339  -32.1439   23.7546 O   0  0  0  0  0  0
  -30.6100  -17.7172   21.4136 C   0  0  0  0  0  0
  -31.2607  -18.8444   21.9777 C   0  0  0  0  0  0
  -30.8057  -16.4337   21.9767 C   0  0  0  0  0  0
  -32.0960  -18.6681   23.1013 C   0  0  0  0  0  0
  -31.6263  -16.2773   23.1150 C   0  0  0  0  0  0
  -32.2739  -17.3943   23.6726 C   0  0  0  0  0  0
  -30.5953  -22.2514   20.4693 C   0  0  0  0  0  0
  -30.3496  -20.7223   20.5648 C   0  0  0  0  0  0
  -29.4651  -23.0952   19.8736 C   0  0  0  0  0  0
  -29.5916  -24.6070   20.1631 C   0  0  0  0  0  0
  -28.3131  -25.3481   19.7675 C   0  0  0  0  0  0
  -31.1532  -20.1763   21.4908 N   0  0  0  0  0  0
  -30.1549  -15.3011   21.4334 N   0  0  0  0  0  0
  -31.6407  -22.7748   20.8776 O   0  0  0  0  0  0
  -29.5106  -20.1260   19.8818 O   0  0  0  0  0  0
  -32.7290  -19.7397   23.6400 F   0  0  0  0  0  0
  -31.7935  -15.0520   23.6701 F   0  0  0  0  0  0
  -33.0691  -17.2456   24.7598 F   0  0  0  0  0  0
  -31.4621  -12.3818   19.0956 H   0  0  0  0  0  0
  -30.3096  -11.2696   19.7758 H   0  0  0  0  0  0
  -29.7171  -11.8098   17.3977 H   0  0  0  0  0  0
  -29.6591  -13.5129   17.7755 H   0  0  0  0  0  0
  -27.8078  -11.3242   18.7787 H   0  0  0  0  0  0
  -27.3589  -12.6799   17.7818 H   0  0  0  0  0  0
  -27.7179  -14.2579   19.6048 H   0  0  0  0  0  0
  -28.6759  -11.9076   21.3094 H   0  0  0  0  0  0
  -28.4594  -13.5243   21.8863 H   0  0  0  0  0  0
  -25.2750   -9.5704   22.4733 H   0  0  0  0  0  0
  -23.9970   -7.4664   22.7499 H   0  0  0  0  0  0
  -21.0796   -8.8784   19.8974 H   0  0  0  0  0  0
  -22.3642  -10.9690   19.6158 H   0  0  0  0  0  0
  -21.2030   -7.6148   23.9696 H   0  0  0  0  0  0
  -21.1465   -6.0525   25.9062 H   0  0  0  0  0  0
  -22.0606   -2.7593   23.2859 H   0  0  0  0  0  0
  -22.4125  -11.9914   22.4764 H   0  0  0  0  0  0
  -21.1149  -13.1329   22.2632 H   0  0  0  0  0  0
  -24.6708  -15.8455   20.5142 H   0  0  0  0  0  0
  -26.2900  -15.6222   20.0849 H   0  0  0  0  0  0
  -26.7118  -32.5550   23.1193 H   0  0  0  0  0  0
  -25.0065  -33.9797   25.0499 H   0  0  0  0  0  0
  -22.6881  -31.3155   21.4211 H   0  0  0  0  0  0
  -23.3777  -35.9603   23.3134 H   0  0  0  0  0  0
  -24.3631  -36.9074   22.2065 H   0  0  0  0  0  0
  -23.7138  -37.6451   23.6703 H   0  0  0  0  0  0
  -26.0341  -31.6069   20.5939 H   0  0  0  0  0  0
  -26.8189  -30.8954   21.9757 H   0  0  0  0  0  0
  -28.0944  -29.1126   21.1506 H   0  0  0  0  0  0
  -26.0025  -26.0040   18.9778 H   0  0  0  0  0  0
  -23.9575  -27.3139   19.0370 H   0  0  0  0  0  0
  -23.7188  -30.6180   19.4122 H   0  0  0  0  0  0
  -22.7262  -29.2651   19.8645 H   0  0  0  0  0  0
  -25.1209  -36.1957   25.0823 H   0  0  0  0  0  0
  -20.9970  -28.3204   24.1426 H   0  0  0  0  0  0
  -20.5655  -26.2260   23.3585 H   0  0  0  0  0  0
  -21.6636  -26.7416   22.1202 H   0  0  0  0  0  0
  -19.6901  -25.6294   21.1206 H   0  0  0  0  0  0
  -19.6663  -27.3199   20.6738 H   0  0  0  0  0  0
  -17.4185  -26.6632   21.4053 H   0  0  0  0  0  0
  -18.0359  -26.0042   22.9032 H   0  0  0  0  0  0
  -19.7937  -30.7230   24.2302 H   0  0  0  0  0  0
  -17.5017  -31.6245   24.5174 H   0  0  0  0  0  0
  -15.5355  -30.2993   23.7603 H   0  0  0  0  0  0
  -15.8676  -28.0815   22.7035 H   0  0  0  0  0  0
  -24.5926  -30.7030   25.7855 H   0  0  0  0  0  0
  -24.8904  -32.2874   26.4919 H   0  0  0  0  0  0
  -25.8107  -30.8925   27.0269 H   0  0  0  0  0  0
  -26.2813  -29.6842   24.1118 H   0  0  0  0  0  0
  -27.4045  -29.7262   25.4516 H   0  0  0  0  0  0
  -27.8643  -30.4392   23.9223 H   0  0  0  0  0  0
  -27.2708  -33.3586   26.2111 H   0  0  0  0  0  0
  -28.3854  -32.6857   25.0308 H   0  0  0  0  0  0
  -28.0732  -31.8381   26.5374 H   0  0  0  0  0  0
  -28.2394  -38.0268   24.7836 H   0  0  0  0  0  0
  -28.1347  -36.2851   24.5719 H   0  0  0  0  0  0
  -27.2420  -37.0750   25.8794 H   0  0  0  0  0  0
  -20.9285  -29.8800   21.6995 H   0  0  0  0  0  0
  -26.0104  -38.2852   24.1746 H   0  0  0  0  0  0
  -29.9738  -17.8140   20.5467 H   0  0  0  0  0  0
  -28.5255  -22.7206   20.2804 H   0  0  0  0  0  0
  -29.4295  -22.9196   18.7984 H   0  0  0  0  0  0
  -30.4431  -25.0252   19.6259 H   0  0  0  0  0  0
  -29.7811  -24.7705   21.2253 H   0  0  0  0  0  0
  -27.4801  -24.8940   20.3079 H   0  0  0  0  0  0
  -28.1297  -25.2223   18.6988 H   0  0  0  0  0  0
  -31.7554  -20.8607   21.9342 H   0  0  0  0  0  0
  -29.2634  -15.0440   21.8279 H   0  0  0  0  0  0
  1 25  1  0  0  0
  1 30  2  0  0  0
  1 83  1  0  0  0
  2  3  1  0  0  0
  2 25  1  0  0  0
  2 89  1  0  0  0
  2 90  1  0  0  0
  3  4  1  0  0  0
  3 91  1  0  0  0
  3 92  1  0  0  0
  4  5  1  0  0  0
  4 93  1  0  0  0
  4 94  1  0  0  0
  5  6  1  0  0  0
  5 26  1  0  0  0
  5 95  1  0  0  0
  6 25  1  0  0  0
  6 96  1  0  0  0
  6 97  1  0  0  0
  7  8  2  0  0  0
  7 26  1  0  0  0
  7 29  1  0  0  0
  8  9  1  0  0  0
  8 22  1  0  0  0
  9 10  1  0  0  0
  9 27  2  0  0  0
 10 11  2  0  0  0
 10 15  1  0  0  0
 11 12  1  0  0  0
 11 98  1  0  0  0
 12 13  2  0  0  0
 12 99  1  0  0  0
 13 14  1  0  0  0
 13 31  1  0  0  0
 14 15  2  0  0  0
 14100  1  0  0  0
 15101  1  0  0  0
 16 17  2  0  0  0
 16 21  1  0  0  0
 16 31  1  0  0  0
 17 18  1  0  0  0
 17102  1  0  0  0
 18 19  2  0  0  0
 18103  1  0  0  0
 19 20  1  0  0  0
 19 24  1  0  0  0
 20 21  2  0  0  0
 20104  1  0  0  0
 21 23  1  0  0  0
 22 28  1  0  0  0
 22 32  2  0  0  0
 26 27  1  0  0  0
 28105  1  0  0  0
 28106  1  0  0  0
 29107  1  0  0  0
 29108  1  0  0  0
 33 34  1  0  0  0
 33 66  1  0  0  0
 33 70  2  0  0  0
 34 36  1  0  0  0
 34 59  1  0  0  0
 34109  1  0  0  0
 35 44  2  0  0  0
 35 45  1  0  0  0
 35 68  1  0  0  0
 36 56  1  0  0  0
 36110  1  0  0  0
 37 39  1  0  0  0
 37 47  1  0  0  0
 37 66  1  0  0  0
 37111  1  0  0  0
 38 43  2  0  0  0
 38 46  1  0  0  0
 38 47  1  0  0  0
 39 64  1  0  0  0
 39 67  2  0  0  0
 40 52  1  0  0  0
 40 53  2  0  0  0
 40 58  1  0  0  0
 41112  1  0  0  0
 41113  1  0  0  0
 41114  1  0  0  0
 41 48  1  0  0  0
 42 43  1  0  0  0
 42 66  1  0  0  0
 42115  1  0  0  0
 42116  1  0  0  0
 43 44  1  0  0  0
 44117  1  0  0  0
 45 46  2  0  0  0
 45118  1  0  0  0
 46119  1  0  0  0
 47120  1  0  0  0
 47121  1  0  0  0
 48 56  1  0  0  0
 48 65  1  0  0  0
 48122  1  0  0  0
 49 50  1  0  0  0
 49 53  1  0  0  0
 49 64  1  0  0  0
 49123  1  0  0  0
 50 51  1  0  0  0
 50124  1  0  0  0
 50125  1  0  0  0
 51 52  1  0  0  0
 51126  1  0  0  0
 51127  1  0  0  0
 52128  1  0  0  0
 52129  1  0  0  0
 53 54  1  0  0  0
 54 55  2  0  0  0
 54130  1  0  0  0
 55 57  1  0  0  0
 55131  1  0  0  0
 56 69  2  0  0  0
 57 58  2  0  0  0
 57132  1  0  0  0
 58133  1  0  0  0
 59 60  1  0  0  0
 59 61  1  0  0  0
 59 62  1  0  0  0
 60134  1  0  0  0
 60135  1  0  0  0
 60136  1  0  0  0
 61137  1  0  0  0
 61138  1  0  0  0
 61139  1  0  0  0
 62140  1  0  0  0
 62141  1  0  0  0
 62142  1  0  0  0
 63 65  1  0  0  0
 63143  1  0  0  0
 63144  1  0  0  0
 63145  1  0  0  0
 64146  1  0  0  0
 65147  1  0  0  0
 68 81  1  0  0  0
 71 72  2  0  0  0
 71 73  1  0  0  0
 71148  1  0  0  0
 72 74  1  0  0  0
 72 82  1  0  0  0
 73 75  2  0  0  0
 73 83  1  0  0  0
 74 76  2  0  0  0
 74 86  1  0  0  0
 75 76  1  0  0  0
 75 87  1  0  0  0
 76 88  1  0  0  0
 77 78  1  0  0  0
 77 79  1  0  0  0
 77 84  2  0  0  0
 78 82  1  0  0  0
 78 85  2  0  0  0
 79 80  1  0  0  0
 79149  1  0  0  0
 79150  1  0  0  0
 80 81  1  0  0  0
 80151  1  0  0  0
 80152  1  0  0  0
 81153  1  0  0  0
 81154  1  0  0  0
 82155  1  0  0  0
 83156  1  0  0  0
M  ISO  4   1 100  68 101  81 101  83 100
M  END
> <chiral flag>
0

> <version>
0

> <s_m_source_file>
/data/baiqing/PycharmProjects/Reinvent-master-3.2/result/LINK_invent/BTK/process_docking_weight1_custom_product_contain_oxygen_bond_distance_aromatic_linkinvent_7_9_3/rearranged_h_0177.sdf

> <i_m_source_file_index>
19

> <r_mmod_Potential_Energy-OPLS-2005>
-52.3643836975098

> <r_mmod_Stretch_Energy-OPLS-2005>
33.7138977050781

> <r_mmod_Bend_Energy-OPLS-2005>
100.880676269531

> <r_mmod_Torsional_Energy-OPLS-2005>
235.166809082031

> <r_mmod_Improper_Torsional_Energy-OPLS-2005>
2.71073007583618

> <r_mmod_Van_der_Waal_Energy-OPLS-2005>
165.874450683594

> <r_mmod_Electrostatic_Energy-OPLS-2005>
-380.329803466797

> <r_mmod_Solvation_Energy-OPLS-2005>
-219.255920410156

> <b_mmod_Minimization_Converged-OPLS-2005>
0

> <r_mmod_RMS_Derivative-OPLS-2005>
1.90920090675354

$$$$
19
                    3D
 Structure written by MMmdl.
155163  0  0  1  0            999 V2000
  -30.7573  -14.3764   20.6566 C   0  0  0  0  0  0
  -30.4161  -12.2784   19.4091 C   0  0  0  0  0  0
  -29.4884  -12.5216   18.2027 C   0  0  0  0  0  0
  -28.0122  -12.3777   18.6165 C   0  0  0  0  0  0
  -27.6684  -13.2002   19.8857 C   0  0  2  0  0  0
  -28.7060  -12.9434   21.0043 C   0  0  0  0  0  0
  -25.2613  -13.8148   20.5683 C   0  0  0  0  0  0
  -24.1845  -13.0437   20.9158 C   0  0  0  0  0  0
  -24.6377  -11.6900   20.8708 C   0  0  0  0  0  0
  -23.9035  -10.4293   21.0396 C   0  0  0  0  0  0
  -24.3585   -9.4220   21.9185 C   0  0  0  0  0  0
  -23.6270   -8.2249   22.0754 C   0  0  0  0  0  0
  -22.4260   -8.0275   21.3537 C   0  0  0  0  0  0
  -21.9891   -9.0244   20.4639 C   0  0  0  0  0  0
  -22.7208  -10.2129   20.3046 C   0  0  0  0  0  0
  -21.6849   -6.0733   22.5270 C   0  0  0  0  0  0
  -21.4024   -6.5638   23.8202 C   0  0  0  0  0  0
  -21.3659   -5.6791   24.9166 C   0  0  0  0  0  0
  -21.6044   -4.3054   24.7220 C   0  0  0  0  0  0
  -21.8821   -3.8143   23.4342 C   0  0  0  0  0  0
  -21.9192   -4.6961   22.3399 C   0  0  0  0  0  0
  -22.7877  -13.5262   21.1833 C   0  0  0  0  0  0
  -22.1659   -4.2149   21.0976 F   0  0  0  0  0  0
  -21.5628   -3.4541   25.7739 F   0  0  0  0  0  0
  -30.0517  -13.2299   20.4701 N   0  0  0  0  0  0
  -26.3047  -12.9307   20.3389 N   0  0  0  0  0  0
  -25.9308  -11.6474   20.5755 N   0  0  0  0  0  0
  -22.0509  -12.8240   22.0369 N   0  0  0  0  0  0
  -25.4362  -15.1861   20.4117 N   0  0  0  0  0  0
  -31.8045  -14.6244   20.0520 O   0  0  0  0  0  0
  -21.6628   -6.8873   21.4230 O   0  0  0  0  0  0
  -22.3582  -14.5589   20.6710 O   0  0  0  0  0  0
  -24.6121  -31.8691   23.2120 C   0  0  0  0  0  0
  -25.9035  -32.4823   23.8402 C   0  0  1  0  0  0
  -27.2390  -27.4585   20.0847 C   0  0  0  0  0  0
  -25.5911  -33.8623   24.2347 N   0  0  0  0  0  0
  -23.3973  -30.4933   21.5525 C   0  0  2  0  0  0
  -24.8425  -28.9614   20.1165 C   0  0  0  0  0  0
  -22.7388  -29.4661   22.5004 C   0  0  0  0  0  0
  -18.0267  -28.1367   22.8491 C   0  0  0  0  0  0
  -24.1487  -36.7314   23.2634 C   0  0  0  0  0  0
  -25.9227  -30.8413   21.3611 C   0  0  0  0  0  0
  -25.9998  -29.4761   20.7116 C   0  0  0  0  0  0
  -27.1970  -28.7298   20.6961 C   0  0  0  0  0  0
  -26.0587  -26.9508   19.4884 C   0  0  0  0  0  0
  -24.8649  -27.6960   19.5054 C   0  0  0  0  0  0
  -23.6036  -29.8252   20.1668 C   0  0  0  0  0  0
  -25.4107  -36.3112   24.0336 C   0  0  1  0  0  0
  -20.5852  -28.3651   23.1325 C   0  0  2  0  0  0
  -20.6765  -26.9392   22.5416 C   0  0  0  0  0  0
  -19.5746  -26.6378   21.5210 C   0  0  0  0  0  0
  -18.1916  -26.7915   22.1612 C   0  0  0  0  0  0
  -19.1514  -28.8828   23.2901 C   0  0  0  0  0  0
  -18.9445  -30.1441   23.8902 C   0  0  0  0  0  0
  -17.6447  -30.6580   24.0559 C   0  0  0  0  0  0
  -25.9034  -34.9476   23.5135 C   0  0  0  0  0  0
  -16.5341  -29.9077   23.6328 C   0  0  0  0  0  0
  -16.7260  -28.6495   23.0350 C   0  0  0  0  0  0
  -26.4481  -31.6574   25.0707 C   0  0  0  0  0  0
  -25.3777  -31.3647   26.1468 C   0  0  0  0  0  0
  -27.0297  -30.3024   24.6035 C   0  0  0  0  0  0
  -27.6064  -32.4265   25.7483 C   0  0  0  0  0  0
  -27.5588  -37.1805   24.8459 C   0  0  0  0  0  0
  -21.4122  -29.3030   22.3751 N   0  0  0  0  0  0
  -26.4288  -37.3801   23.9421 N   0  0  0  0  0  0
  -24.6622  -31.0816   22.1009 N   0  0  0  0  0  0
  -23.4173  -28.8197   23.3030 O   0  0  0  0  0  0
  -28.4344  -26.7725   20.0945 O   0  0  0  0  0  0
  -26.5593  -34.8919   22.4694 O   0  0  0  0  0  0
  -23.5324  -32.1431   23.7537 O   0  0  0  0  0  0
  -31.7806  -18.6456   21.2926 C   0  0  0  0  0  0
  -29.2558  -17.4152   21.0287 C   0  0  0  0  0  0
  -30.6735  -19.3975   20.8269 C   0  0  0  0  0  0
  -30.3762  -16.6438   21.3947 C   0  0  0  0  0  0
  -29.4101  -18.7812   20.7341 C   0  0  0  0  0  0
  -31.6303  -17.2729   21.5793 C   0  0  0  0  0  0
  -31.4143  -22.8626   19.4337 C   0  0  0  0  0  0
  -31.7525  -21.6035   20.2843 C   0  0  0  0  0  0
  -29.7569  -24.7311   19.9884 C   0  0  0  0  0  0
  -29.9527  -23.3388   19.3781 C   0  0  0  0  0  0
  -28.4288  -25.4161   19.6502 C   0  0  0  0  0  0
  -30.7271  -20.7402   20.3672 N   0  0  0  0  0  0
  -30.2185  -15.2423   21.5271 N   0  0  0  0  0  0
  -32.2900  -23.4447   18.7796 O   0  0  0  0  0  0
  -32.8645  -21.4438   20.7993 O   0  0  0  0  0  0
  -30.5810  -25.2590   20.7467 O   0  0  0  0  0  0
  -28.3443  -19.5056   20.3124 F   0  0  0  0  0  0
  -32.6982  -16.5615   22.0144 F   0  0  0  0  0  0
  -31.4617  -12.3673   19.1068 H   0  0  0  0  0  0
  -30.3031  -11.2567   19.7752 H   0  0  0  0  0  0
  -29.7202  -11.8193   17.4011 H   0  0  0  0  0  0
  -29.6608  -13.5198   17.7958 H   0  0  0  0  0  0
  -27.8195  -11.3196   18.7985 H   0  0  0  0  0  0
  -27.3582  -12.6674   17.7935 H   0  0  0  0  0  0
  -27.7272  -14.2532   19.6114 H   0  0  0  0  0  0
  -28.6662  -11.9001   21.3225 H   0  0  0  0  0  0
  -28.4573  -13.5206   21.8957 H   0  0  0  0  0  0
  -25.2727   -9.5708   22.4755 H   0  0  0  0  0  0
  -23.9980   -7.4660   22.7491 H   0  0  0  0  0  0
  -21.0816   -8.8744   19.8956 H   0  0  0  0  0  0
  -22.3652  -10.9654   19.6147 H   0  0  0  0  0  0
  -21.2023   -7.6144   23.9704 H   0  0  0  0  0  0
  -21.1479   -6.0524   25.9066 H   0  0  0  0  0  0
  -22.0599   -2.7604   23.2838 H   0  0  0  0  0  0
  -22.4095  -11.9867   22.4712 H   0  0  0  0  0  0
  -21.1145  -13.1294   22.2609 H   0  0  0  0  0  0
  -24.6731  -15.8431   20.5315 H   0  0  0  0  0  0
  -26.2887  -15.6236   20.0860 H   0  0  0  0  0  0
  -26.7098  -32.5551   23.1165 H   0  0  0  0  0  0
  -25.0095  -33.9791   25.0517 H   0  0  0  0  0  0
  -22.6853  -31.3093   21.4149 H   0  0  0  0  0  0
  -23.3768  -35.9622   23.3228 H   0  0  0  0  0  0
  -24.3603  -36.9003   22.2066 H   0  0  0  0  0  0
  -23.7193  -37.6476   23.6693 H   0  0  0  0  0  0
  -26.0288  -31.6056   20.5898 H   0  0  0  0  0  0
  -26.8139  -30.8974   21.9742 H   0  0  0  0  0  0
  -28.0935  -29.1267   21.1524 H   0  0  0  0  0  0
  -26.0363  -25.9901   18.9960 H   0  0  0  0  0  0
  -23.9737  -27.2938   19.0435 H   0  0  0  0  0  0
  -23.7092  -30.6003   19.4068 H   0  0  0  0  0  0
  -22.7279  -29.2439   19.8724 H   0  0  0  0  0  0
  -25.1277  -36.1973   25.0826 H   0  0  0  0  0  0
  -20.9941  -28.3203   24.1445 H   0  0  0  0  0  0
  -20.5694  -26.2249   23.3591 H   0  0  0  0  0  0
  -21.6632  -26.7448   22.1188 H   0  0  0  0  0  0
  -19.6907  -25.6294   21.1231 H   0  0  0  0  0  0
  -19.6691  -27.3202   20.6756 H   0  0  0  0  0  0
  -17.4194  -26.6692   21.3998 H   0  0  0  0  0  0
  -18.0292  -26.0042   22.8987 H   0  0  0  0  0  0
  -19.7921  -30.7272   24.2247 H   0  0  0  0  0  0
  -17.5000  -31.6265   24.5150 H   0  0  0  0  0  0
  -15.5342  -30.2984   23.7652 H   0  0  0  0  0  0
  -15.8658  -28.0834   22.7038 H   0  0  0  0  0  0
  -24.5927  -30.7027   25.7796 H   0  0  0  0  0  0
  -24.9012  -32.2794   26.5003 H   0  0  0  0  0  0
  -25.8159  -30.8741   27.0170 H   0  0  0  0  0  0
  -26.2807  -29.6775   24.1155 H   0  0  0  0  0  0
  -27.4155  -29.7258   25.4453 H   0  0  0  0  0  0
  -27.8604  -30.4345   23.9099 H   0  0  0  0  0  0
  -27.2720  -33.3605   26.2010 H   0  0  0  0  0  0
  -28.3934  -32.6736   25.0347 H   0  0  0  0  0  0
  -28.0644  -31.8388   26.5451 H   0  0  0  0  0  0
  -28.2552  -38.0154   24.7571 H   0  0  0  0  0  0
  -28.1135  -36.2683   24.6201 H   0  0  0  0  0  0
  -27.2314  -37.1356   25.8862 H   0  0  0  0  0  0
  -20.9272  -29.8777   21.7004 H   0  0  0  0  0  0
  -26.0166  -38.2864   24.1465 H   0  0  0  0  0  0
  -32.7607  -19.0814   21.4034 H   0  0  0  0  0  0
  -28.2851  -16.9575   20.9130 H   0  0  0  0  0  0
  -29.2798  -22.6554   19.8919 H   0  0  0  0  0  0
  -29.6406  -23.3633   18.3347 H   0  0  0  0  0  0
  -27.6296  -24.8576   20.1394 H   0  0  0  0  0  0
  -28.2614  -25.3755   18.5737 H   0  0  0  0  0  0
  -29.8636  -21.0567   19.9473 H   0  0  0  0  0  0
  -29.3664  -14.9195   21.9585 H   0  0  0  0  0  0
  1 25  1  0  0  0
  1 30  2  0  0  0
  1 83  1  0  0  0
  2  3  1  0  0  0
  2 25  1  0  0  0
  2 89  1  0  0  0
  2 90  1  0  0  0
  3  4  1  0  0  0
  3 91  1  0  0  0
  3 92  1  0  0  0
  4  5  1  0  0  0
  4 93  1  0  0  0
  4 94  1  0  0  0
  5  6  1  0  0  0
  5 26  1  0  0  0
  5 95  1  0  0  0
  6 25  1  0  0  0
  6 96  1  0  0  0
  6 97  1  0  0  0
  7  8  2  0  0  0
  7 26  1  0  0  0
  7 29  1  0  0  0
  8  9  1  0  0  0
  8 22  1  0  0  0
  9 10  1  0  0  0
  9 27  2  0  0  0
 10 11  2  0  0  0
 10 15  1  0  0  0
 11 12  1  0  0  0
 11 98  1  0  0  0
 12 13  2  0  0  0
 12 99  1  0  0  0
 13 14  1  0  0  0
 13 31  1  0  0  0
 14 15  2  0  0  0
 14100  1  0  0  0
 15101  1  0  0  0
 16 17  2  0  0  0
 16 21  1  0  0  0
 16 31  1  0  0  0
 17 18  1  0  0  0
 17102  1  0  0  0
 18 19  2  0  0  0
 18103  1  0  0  0
 19 20  1  0  0  0
 19 24  1  0  0  0
 20 21  2  0  0  0
 20104  1  0  0  0
 21 23  1  0  0  0
 22 28  1  0  0  0
 22 32  2  0  0  0
 26 27  1  0  0  0
 28105  1  0  0  0
 28106  1  0  0  0
 29107  1  0  0  0
 29108  1  0  0  0
 33 34  1  0  0  0
 33 66  1  0  0  0
 33 70  2  0  0  0
 34 36  1  0  0  0
 34 59  1  0  0  0
 34109  1  0  0  0
 35 44  2  0  0  0
 35 45  1  0  0  0
 35 68  1  0  0  0
 36 56  1  0  0  0
 36110  1  0  0  0
 37 39  1  0  0  0
 37 47  1  0  0  0
 37 66  1  0  0  0
 37111  1  0  0  0
 38 43  2  0  0  0
 38 46  1  0  0  0
 38 47  1  0  0  0
 39 64  1  0  0  0
 39 67  2  0  0  0
 40 52  1  0  0  0
 40 53  2  0  0  0
 40 58  1  0  0  0
 41112  1  0  0  0
 41113  1  0  0  0
 41114  1  0  0  0
 41 48  1  0  0  0
 42 43  1  0  0  0
 42 66  1  0  0  0
 42115  1  0  0  0
 42116  1  0  0  0
 43 44  1  0  0  0
 44117  1  0  0  0
 45 46  2  0  0  0
 45118  1  0  0  0
 46119  1  0  0  0
 47120  1  0  0  0
 47121  1  0  0  0
 48 56  1  0  0  0
 48 65  1  0  0  0
 48122  1  0  0  0
 49 50  1  0  0  0
 49 53  1  0  0  0
 49 64  1  0  0  0
 49123  1  0  0  0
 50 51  1  0  0  0
 50124  1  0  0  0
 50125  1  0  0  0
 51 52  1  0  0  0
 51126  1  0  0  0
 51127  1  0  0  0
 52128  1  0  0  0
 52129  1  0  0  0
 53 54  1  0  0  0
 54 55  2  0  0  0
 54130  1  0  0  0
 55 57  1  0  0  0
 55131  1  0  0  0
 56 69  2  0  0  0
 57 58  2  0  0  0
 57132  1  0  0  0
 58133  1  0  0  0
 59 60  1  0  0  0
 59 61  1  0  0  0
 59 62  1  0  0  0
 60134  1  0  0  0
 60135  1  0  0  0
 60136  1  0  0  0
 61137  1  0  0  0
 61138  1  0  0  0
 61139  1  0  0  0
 62140  1  0  0  0
 62141  1  0  0  0
 62142  1  0  0  0
 63 65  1  0  0  0
 63143  1  0  0  0
 63144  1  0  0  0
 63145  1  0  0  0
 64146  1  0  0  0
 65147  1  0  0  0
 68 81  1  0  0  0
 71 73  2  0  0  0
 71 76  1  0  0  0
 71148  1  0  0  0
 72 74  1  0  0  0
 72 75  2  0  0  0
 72149  1  0  0  0
 73 75  1  0  0  0
 73 82  1  0  0  0
 74 76  2  0  0  0
 74 83  1  0  0  0
 75 87  1  0  0  0
 76 88  1  0  0  0
 77 78  1  0  0  0
 77 80  1  0  0  0
 77 84  2  0  0  0
 78 82  1  0  0  0
 78 85  2  0  0  0
 79 80  1  0  0  0
 79 81  1  0  0  0
 79 86  2  0  0  0
 80150  1  0  0  0
 80151  1  0  0  0
 81152  1  0  0  0
 81153  1  0  0  0
 82154  1  0  0  0
 83155  1  0  0  0
M  ISO  4   1 100  68 101  81 101  83 100
M  END
> <chiral flag>
0

> <version>
0

> <s_m_source_file>
/data/baiqing/PycharmProjects/Reinvent-master-3.2/result/LINK_invent/BTK/process_docking_weight1_custom_product_contain_oxygen_bond_distance_aromatic_linkinvent_7_9_3/rearranged_h_0177.sdf

> <i_m_source_file_index>
20

> <r_mmod_Potential_Energy-OPLS-2005>
-157.805877685547

> <r_mmod_Stretch_Energy-OPLS-2005>
34.2224617004395

> <r_mmod_Bend_Energy-OPLS-2005>
105.513038635254

> <r_mmod_Torsional_Energy-OPLS-2005>
242.033004760742

> <r_mmod_Improper_Torsional_Energy-OPLS-2005>
4.66309690475464

> <r_mmod_Van_der_Waal_Energy-OPLS-2005>
165.931137084961

> <r_mmod_Electrostatic_Energy-OPLS-2005>
-422.93798828125

> <r_mmod_Solvation_Energy-OPLS-2005>
-294.957244873047

> <b_mmod_Minimization_Converged-OPLS-2005>
0

> <r_mmod_RMS_Derivative-OPLS-2005>
1.50155425071716

$$$$
20
                    3D
 Structure written by MMmdl.
157165  0  0  1  0            999 V2000
  -30.5936  -14.7494   20.4517 C   0  0  0  0  0  0
  -30.4312  -12.4522   19.4878 C   0  0  0  0  0  0
  -29.5094  -12.4947   18.2473 C   0  0  0  0  0  0
  -28.0370  -12.3176   18.6612 C   0  0  0  0  0  0
  -27.6406  -13.2267   19.8550 C   0  0  2  0  0  0
  -28.6813  -13.1611   20.9946 C   0  0  0  0  0  0
  -25.2495  -13.8186   20.5680 C   0  0  0  0  0  0
  -24.1792  -13.0436   20.9196 C   0  0  0  0  0  0
  -24.6367  -11.6905   20.8772 C   0  0  0  0  0  0
  -23.9058  -10.4288   21.0427 C   0  0  0  0  0  0
  -24.3618   -9.4204   21.9198 C   0  0  0  0  0  0
  -23.6288   -8.2246   22.0756 C   0  0  0  0  0  0
  -22.4273   -8.0280   21.3540 C   0  0  0  0  0  0
  -21.9917   -9.0257   20.4649 C   0  0  0  0  0  0
  -22.7242  -10.2137   20.3062 C   0  0  0  0  0  0
  -21.6851   -6.0740   22.5278 C   0  0  0  0  0  0
  -21.4013   -6.5639   23.8211 C   0  0  0  0  0  0
  -21.3659   -5.6791   24.9166 C   0  0  0  0  0  0
  -21.6040   -4.3052   24.7222 C   0  0  0  0  0  0
  -21.8822   -3.8148   23.4340 C   0  0  0  0  0  0
  -21.9190   -4.6962   22.3398 C   0  0  0  0  0  0
  -22.7822  -13.5220   21.1851 C   0  0  0  0  0  0
  -22.1661   -4.2144   21.0977 F   0  0  0  0  0  0
  -21.5627   -3.4535   25.7740 F   0  0  0  0  0  0
  -29.9838  -13.5152   20.4195 N   0  0  0  0  0  0
  -26.2909  -12.9389   20.3280 N   0  0  0  0  0  0
  -25.9292  -11.6526   20.5777 N   0  0  0  0  0  0
  -22.0472  -12.8224   22.0414 N   0  0  0  0  0  0
  -25.4210  -15.1912   20.4065 N   0  0  0  0  0  0
  -31.7734  -14.8524   20.1033 O   0  0  0  0  0  0
  -21.6635   -6.8882   21.4238 O   0  0  0  0  0  0
  -22.3521  -14.5534   20.6688 O   0  0  0  0  0  0
  -24.6282  -31.8565   23.2011 C   0  0  0  0  0  0
  -25.9117  -32.4764   23.8354 C   0  0  1  0  0  0
  -27.2107  -27.2668   20.1406 C   0  0  0  0  0  0
  -25.5928  -33.8564   24.2248 N   0  0  0  0  0  0
  -23.4265  -30.4767   21.5415 C   0  0  2  0  0  0
  -24.8787  -28.9281   20.1044 C   0  0  0  0  0  0
  -22.7491  -29.4594   22.4918 C   0  0  0  0  0  0
  -18.0285  -28.1368   22.8478 C   0  0  0  0  0  0
  -24.1492  -36.7291   23.2646 C   0  0  0  0  0  0
  -25.9726  -30.7708   21.3847 C   0  0  0  0  0  0
  -26.0467  -29.3948   20.7220 C   0  0  0  0  0  0
  -27.2213  -28.5765   20.7277 C   0  0  0  0  0  0
  -26.0331  -26.8716   19.4763 C   0  0  0  0  0  0
  -24.8767  -27.6763   19.4652 C   0  0  0  0  0  0
  -23.6457  -29.8110   20.1564 C   0  0  0  0  0  0
  -25.4117  -36.3079   24.0328 C   0  0  1  0  0  0
  -20.5885  -28.3695   23.1263 C   0  0  2  0  0  0
  -20.6776  -26.9411   22.5403 C   0  0  0  0  0  0
  -19.5750  -26.6378   21.5197 C   0  0  0  0  0  0
  -18.1935  -26.7919   22.1607 C   0  0  0  0  0  0
  -19.1542  -28.8843   23.2874 C   0  0  0  0  0  0
  -18.9470  -30.1444   23.8890 C   0  0  0  0  0  0
  -17.6462  -30.6581   24.0549 C   0  0  0  0  0  0
  -25.9052  -34.9440   23.5089 C   0  0  0  0  0  0
  -16.5352  -29.9077   23.6333 C   0  0  0  0  0  0
  -16.7283  -28.6493   23.0366 C   0  0  0  0  0  0
  -26.4481  -31.6590   25.0740 C   0  0  0  0  0  0
  -25.3694  -31.3732   26.1454 C   0  0  0  0  0  0
  -27.0374  -30.3023   24.6247 C   0  0  0  0  0  0
  -27.6056  -32.4355   25.7508 C   0  0  0  0  0  0
  -27.5587  -37.1783   24.8460 C   0  0  0  0  0  0
  -21.4206  -29.3049   22.3667 N   0  0  0  0  0  0
  -26.4296  -37.3752   23.9401 N   0  0  0  0  0  0
  -24.6945  -31.0509   22.0995 N   0  0  0  0  0  0
  -23.4202  -28.8137   23.3011 O   0  0  0  0  0  0
  -28.2698  -26.3370   20.1999 O   0  0  0  0  0  0
  -26.5642  -34.8945   22.4675 O   0  0  0  0  0  0
  -23.5435  -32.1433   23.7295 O   0  0  0  0  0  0
  -29.3017  -20.4451   22.1762 C   0  0  0  0  0  0
  -29.5240  -19.0221   21.9761 C   0  0  0  0  0  0
  -29.5973  -18.6451   20.6498 C   0  0  0  0  0  0
  -29.1240  -21.2436   21.0605 C   0  0  0  0  0  0
  -28.3602  -23.6388   20.3779 C   0  0  0  0  0  0
  -26.9017  -24.1730   23.1848 C   0  0  0  0  0  0
  -30.0431  -17.2647   20.0113 C   0  0  0  0  0  0
  -26.8720  -25.0964   21.9545 C   0  0  0  0  0  0
  -28.1498  -25.0928   21.0565 C   0  0  2  0  0  0
  -29.7025  -18.0521   23.1165 C   0  0  0  0  0  0
  -28.9564  -22.6404   21.1306 N   0  0  0  0  0  0
  -29.8053  -15.8805   20.6218 N   0  0  0  0  0  0
  -27.9537  -23.4335   19.2308 O   0  0  0  0  0  0
  -29.7406  -18.6721   24.2972 F   0  0  0  0  0  0
  -28.6912  -17.1812   23.1599 F   0  0  0  0  0  0
  -30.8355  -17.3581   22.9973 F   0  0  0  0  0  0
  -29.2529  -20.1262   19.6702 S   0  0  0  0  0  0
  -31.4729  -12.5781   19.1866 H   0  0  0  0  0  0
  -30.3791  -11.4786   19.9778 H   0  0  0  0  0  0
  -29.7955  -11.7151   17.5395 H   0  0  0  0  0  0
  -29.6324  -13.4452   17.7251 H   0  0  0  0  0  0
  -27.8994  -11.2713   18.9354 H   0  0  0  0  0  0
  -27.3786  -12.4939   17.8100 H   0  0  0  0  0  0
  -27.6370  -14.2440   19.4654 H   0  0  0  0  0  0
  -28.7167  -12.1604   21.4285 H   0  0  0  0  0  0
  -28.4129  -13.8389   21.8057 H   0  0  0  0  0  0
  -25.2746   -9.5680   22.4769 H   0  0  0  0  0  0
  -23.9980   -7.4646   22.7483 H   0  0  0  0  0  0
  -21.0841   -8.8782   19.8960 H   0  0  0  0  0  0
  -22.3698  -10.9675   19.6174 H   0  0  0  0  0  0
  -21.2014   -7.6143   23.9708 H   0  0  0  0  0  0
  -21.1476   -6.0522   25.9074 H   0  0  0  0  0  0
  -22.0605   -2.7600   23.2843 H   0  0  0  0  0  0
  -22.4079  -11.9871   22.4790 H   0  0  0  0  0  0
  -21.1086  -13.1269   22.2625 H   0  0  0  0  0  0
  -24.6502  -15.8420   20.5111 H   0  0  0  0  0  0
  -26.2570  -15.6274   20.0412 H   0  0  0  0  0  0
  -26.7195  -32.5435   23.1116 H   0  0  0  0  0  0
  -25.0005  -33.9703   25.0351 H   0  0  0  0  0  0
  -22.7225  -31.3005   21.3973 H   0  0  0  0  0  0
  -23.3759  -35.9619   23.3288 H   0  0  0  0  0  0
  -24.3550  -36.8938   22.2059 H   0  0  0  0  0  0
  -23.7266  -37.6490   23.6693 H   0  0  0  0  0  0
  -26.1134  -31.5381   20.6214 H   0  0  0  0  0  0
  -26.8472  -30.8178   22.0212 H   0  0  0  0  0  0
  -28.1157  -28.9194   21.2282 H   0  0  0  0  0  0
  -25.9988  -25.9009   18.9982 H   0  0  0  0  0  0
  -23.9822  -27.3191   18.9719 H   0  0  0  0  0  0
  -23.7656  -30.5904   19.4038 H   0  0  0  0  0  0
  -22.7648  -29.2422   19.8511 H   0  0  0  0  0  0
  -25.1291  -36.1924   25.0819 H   0  0  0  0  0  0
  -20.9968  -28.3289   24.1381 H   0  0  0  0  0  0
  -20.5657  -26.2310   23.3623 H   0  0  0  0  0  0
  -21.6656  -26.7443   22.1189 H   0  0  0  0  0  0
  -19.6919  -25.6286   21.1253 H   0  0  0  0  0  0
  -19.6677  -27.3176   20.6718 H   0  0  0  0  0  0
  -17.4194  -26.6675   21.4021 H   0  0  0  0  0  0
  -18.0323  -26.0059   22.8999 H   0  0  0  0  0  0
  -19.7946  -30.7248   24.2271 H   0  0  0  0  0  0
  -17.5033  -31.6262   24.5156 H   0  0  0  0  0  0
  -15.5358  -30.2973   23.7671 H   0  0  0  0  0  0
  -15.8686  -28.0808   22.7091 H   0  0  0  0  0  0
  -24.5884  -30.7091   25.7737 H   0  0  0  0  0  0
  -24.8884  -32.2905   26.4882 H   0  0  0  0  0  0
  -25.7997  -30.8892   27.0244 H   0  0  0  0  0  0
  -26.2999  -29.6713   24.1288 H   0  0  0  0  0  0
  -27.4074  -29.7339   25.4792 H   0  0  0  0  0  0
  -27.8849  -30.4285   23.9505 H   0  0  0  0  0  0
  -27.2667  -33.3687   26.2026 H   0  0  0  0  0  0
  -28.3864  -32.6859   25.0307 H   0  0  0  0  0  0
  -28.0718  -31.8528   26.5455 H   0  0  0  0  0  0
  -28.2570  -38.0110   24.7514 H   0  0  0  0  0  0
  -28.1111  -36.2637   24.6264 H   0  0  0  0  0  0
  -27.2286  -37.1392   25.8855 H   0  0  0  0  0  0
  -20.9423  -29.8804   21.6889 H   0  0  0  0  0  0
  -26.0182  -38.2831   24.1419 H   0  0  0  0  0  0
  -29.2847  -20.8456   23.1796 H   0  0  0  0  0  0
  -26.0128  -24.3317   23.7965 H   0  0  0  0  0  0
  -27.7675  -24.3763   23.8159 H   0  0  0  0  0  0
  -26.9159  -23.1180   22.9141 H   0  0  0  0  0  0
  -31.1149  -17.3468   19.8313 H   0  0  0  0  0  0
  -29.6063  -17.2133   19.0139 H   0  0  0  0  0  0
  -26.6975  -26.0979   22.3453 H   0  0  0  0  0  0
  -25.9979  -24.8479   21.3500 H   0  0  0  0  0  0
  -28.9944  -25.1951   21.7363 H   0  0  0  0  0  0
  -29.2592  -23.0187   22.0186 H   0  0  0  0  0  0
  -28.8619  -15.6957   20.9254 H   0  0  0  0  0  0
  1 25  1  0  0  0
  1 30  2  0  0  0
  1 82  1  0  0  0
  2  3  1  0  0  0
  2 25  1  0  0  0
  2 88  1  0  0  0
  2 89  1  0  0  0
  3  4  1  0  0  0
  3 90  1  0  0  0
  3 91  1  0  0  0
  4  5  1  0  0  0
  4 92  1  0  0  0
  4 93  1  0  0  0
  5  6  1  0  0  0
  5 26  1  0  0  0
  5 94  1  0  0  0
  6 25  1  0  0  0
  6 95  1  0  0  0
  6 96  1  0  0  0
  7  8  2  0  0  0
  7 26  1  0  0  0
  7 29  1  0  0  0
  8  9  1  0  0  0
  8 22  1  0  0  0
  9 10  1  0  0  0
  9 27  2  0  0  0
 10 11  2  0  0  0
 10 15  1  0  0  0
 11 12  1  0  0  0
 11 97  1  0  0  0
 12 13  2  0  0  0
 12 98  1  0  0  0
 13 14  1  0  0  0
 13 31  1  0  0  0
 14 15  2  0  0  0
 14 99  1  0  0  0
 15100  1  0  0  0
 16 17  2  0  0  0
 16 21  1  0  0  0
 16 31  1  0  0  0
 17 18  1  0  0  0
 17101  1  0  0  0
 18 19  2  0  0  0
 18102  1  0  0  0
 19 20  1  0  0  0
 19 24  1  0  0  0
 20 21  2  0  0  0
 20103  1  0  0  0
 21 23  1  0  0  0
 22 28  1  0  0  0
 22 32  2  0  0  0
 26 27  1  0  0  0
 28104  1  0  0  0
 28105  1  0  0  0
 29106  1  0  0  0
 29107  1  0  0  0
 33 34  1  0  0  0
 33 66  1  0  0  0
 33 70  2  0  0  0
 34 36  1  0  0  0
 34 59  1  0  0  0
 34108  1  0  0  0
 35 44  2  0  0  0
 35 45  1  0  0  0
 35 68  1  0  0  0
 36 56  1  0  0  0
 36109  1  0  0  0
 37 39  1  0  0  0
 37 47  1  0  0  0
 37 66  1  0  0  0
 37110  1  0  0  0
 38 43  2  0  0  0
 38 46  1  0  0  0
 38 47  1  0  0  0
 39 64  1  0  0  0
 39 67  2  0  0  0
 40 52  1  0  0  0
 40 53  2  0  0  0
 40 58  1  0  0  0
 41111  1  0  0  0
 41112  1  0  0  0
 41113  1  0  0  0
 41 48  1  0  0  0
 42 43  1  0  0  0
 42 66  1  0  0  0
 42114  1  0  0  0
 42115  1  0  0  0
 43 44  1  0  0  0
 44116  1  0  0  0
 45 46  2  0  0  0
 45117  1  0  0  0
 46118  1  0  0  0
 47119  1  0  0  0
 47120  1  0  0  0
 48 56  1  0  0  0
 48 65  1  0  0  0
 48121  1  0  0  0
 49 50  1  0  0  0
 49 53  1  0  0  0
 49 64  1  0  0  0
 49122  1  0  0  0
 50 51  1  0  0  0
 50123  1  0  0  0
 50124  1  0  0  0
 51 52  1  0  0  0
 51125  1  0  0  0
 51126  1  0  0  0
 52127  1  0  0  0
 52128  1  0  0  0
 53 54  1  0  0  0
 54 55  2  0  0  0
 54129  1  0  0  0
 55 57  1  0  0  0
 55130  1  0  0  0
 56 69  2  0  0  0
 57 58  2  0  0  0
 57131  1  0  0  0
 58132  1  0  0  0
 59 60  1  0  0  0
 59 61  1  0  0  0
 59 62  1  0  0  0
 60133  1  0  0  0
 60134  1  0  0  0
 60135  1  0  0  0
 61136  1  0  0  0
 61137  1  0  0  0
 61138  1  0  0  0
 62139  1  0  0  0
 62140  1  0  0  0
 62141  1  0  0  0
 63 65  1  0  0  0
 63142  1  0  0  0
 63143  1  0  0  0
 63144  1  0  0  0
 64145  1  0  0  0
 65146  1  0  0  0
 68 79  1  0  0  0
 71 72  1  0  0  0
 71 74  2  0  0  0
 71147  1  0  0  0
 72 73  2  0  0  0
 72 80  1  0  0  0
 73 77  1  0  0  0
 73 87  1  0  0  0
 74 81  1  0  0  0
 74 87  1  0  0  0
 75 79  1  0  0  0
 75 81  1  0  0  0
 75 83  2  0  0  0
 76 78  1  0  0  0
 76148  1  0  0  0
 76149  1  0  0  0
 76150  1  0  0  0
 77 82  1  0  0  0
 77151  1  0  0  0
 77152  1  0  0  0
 78153  1  0  0  0
 78154  1  0  0  0
 78 79  1  0  0  0
 79155  1  0  0  0
 80 84  1  0  0  0
 80 85  1  0  0  0
 80 86  1  0  0  0
 81156  1  0  0  0
 82157  1  0  0  0
M  ISO  4   1 100  68 101  79 101  82 100
M  END
> <chiral flag>
0

> <version>
0

> <s_m_source_file>
/data/baiqing/PycharmProjects/Reinvent-master-3.2/result/LINK_invent/BTK/process_docking_weight1_custom_product_contain_oxygen_bond_distance_aromatic_linkinvent_7_9_3/rearranged_h_0177.sdf

> <i_m_source_file_index>
21

> <r_mmod_Potential_Energy-OPLS-2005>
161.833389282227

> <r_mmod_Stretch_Energy-OPLS-2005>
119.233207702637

> <r_mmod_Bend_Energy-OPLS-2005>
201.053863525391

> <r_mmod_Torsional_Energy-OPLS-2005>
244.578674316406

> <r_mmod_Improper_Torsional_Energy-OPLS-2005>
8.07644462585449

> <r_mmod_Van_der_Waal_Energy-OPLS-2005>
112.13191986084

> <r_mmod_Electrostatic_Energy-OPLS-2005>
-386.241973876953

> <r_mmod_Solvation_Energy-OPLS-2005>
-226.742156982422

> <b_mmod_Minimization_Converged-OPLS-2005>
0

> <r_mmod_RMS_Derivative-OPLS-2005>
4.31831169128418

$$$$
21
                    3D
 Structure written by MMmdl.
155163  0  0  1  0            999 V2000
  -30.7256  -14.4732   20.5563 C   0  0  0  0  0  0
  -30.4207  -12.3028   19.4227 C   0  0  0  0  0  0
  -29.4949  -12.5154   18.2072 C   0  0  0  0  0  0
  -28.0141  -12.3912   18.6163 C   0  0  0  0  0  0
  -27.6668  -13.2180   19.8842 C   0  0  2  0  0  0
  -28.7142  -13.0033   21.0013 C   0  0  0  0  0  0
  -25.2597  -13.8185   20.5661 C   0  0  0  0  0  0
  -24.1850  -13.0433   20.9171 C   0  0  0  0  0  0
  -24.6433  -11.6919   20.8746 C   0  0  0  0  0  0
  -23.9097  -10.4286   21.0419 C   0  0  0  0  0  0
  -24.3643   -9.4205   21.9199 C   0  0  0  0  0  0
  -23.6307   -8.2246   22.0767 C   0  0  0  0  0  0
  -22.4292   -8.0285   21.3561 C   0  0  0  0  0  0
  -21.9934   -9.0256   20.4661 C   0  0  0  0  0  0
  -22.7268  -10.2130   20.3070 C   0  0  0  0  0  0
  -21.6862   -6.0746   22.5288 C   0  0  0  0  0  0
  -21.4010   -6.5651   23.8229 C   0  0  0  0  0  0
  -21.3655   -5.6802   24.9191 C   0  0  0  0  0  0
  -21.6035   -4.3065   24.7239 C   0  0  0  0  0  0
  -21.8818   -3.8157   23.4364 C   0  0  0  0  0  0
  -21.9185   -4.6966   22.3424 C   0  0  0  0  0  0
  -22.7872  -13.5231   21.1831 C   0  0  0  0  0  0
  -22.1658   -4.2158   21.0991 F   0  0  0  0  0  0
  -21.5629   -3.4553   25.7753 F   0  0  0  0  0  0
  -30.0443  -13.2968   20.4443 N   0  0  0  0  0  0
  -26.3074  -12.9373   20.3439 N   0  0  0  0  0  0
  -25.9378  -11.6517   20.5819 N   0  0  0  0  0  0
  -22.0520  -12.8205   22.0379 N   0  0  0  0  0  0
  -25.4260  -15.1880   20.4007 N   0  0  0  0  0  0
  -31.8519  -14.6214   20.0711 O   0  0  0  0  0  0
  -21.6649   -6.8882   21.4254 O   0  0  0  0  0  0
  -22.3567  -14.5554   20.6710 O   0  0  0  0  0  0
  -24.6169  -31.8663   23.2155 C   0  0  0  0  0  0
  -25.9043  -32.4796   23.8472 C   0  0  1  0  0  0
  -27.2248  -27.3759   20.1178 C   0  0  0  0  0  0
  -25.5895  -33.8610   24.2358 N   0  0  0  0  0  0
  -23.4114  -30.4946   21.5524 C   0  0  2  0  0  0
  -24.8583  -28.9608   20.1263 C   0  0  0  0  0  0
  -22.7411  -29.4686   22.4952 C   0  0  0  0  0  0
  -18.0285  -28.1406   22.8505 C   0  0  0  0  0  0
  -24.1458  -36.7233   23.2658 C   0  0  0  0  0  0
  -25.9520  -30.8061   21.4001 C   0  0  0  0  0  0
  -26.0233  -29.4437   20.7345 C   0  0  0  0  0  0
  -27.2061  -28.6588   20.7345 C   0  0  0  0  0  0
  -26.0323  -26.9428   19.4785 C   0  0  0  0  0  0
  -24.8602  -27.7094   19.5024 C   0  0  0  0  0  0
  -23.6287  -29.8352   20.1672 C   0  0  0  0  0  0
  -25.4092  -36.3084   24.0360 C   0  0  1  0  0  0
  -20.5881  -28.3712   23.1257 C   0  0  2  0  0  0
  -20.6780  -26.9435   22.5404 C   0  0  0  0  0  0
  -19.5742  -26.6390   21.5224 C   0  0  0  0  0  0
  -18.1919  -26.7946   22.1631 C   0  0  0  0  0  0
  -19.1538  -28.8870   23.2891 C   0  0  0  0  0  0
  -18.9478  -30.1464   23.8916 C   0  0  0  0  0  0
  -17.6486  -30.6619   24.0569 C   0  0  0  0  0  0
  -25.9043  -34.9454   23.5155 C   0  0  0  0  0  0
  -16.5368  -29.9111   23.6365 C   0  0  0  0  0  0
  -16.7275  -28.6519   23.0398 C   0  0  0  0  0  0
  -26.4488  -31.6603   25.0814 C   0  0  0  0  0  0
  -25.3727  -31.3720   26.1528 C   0  0  0  0  0  0
  -27.0396  -30.3030   24.6344 C   0  0  0  0  0  0
  -27.6071  -32.4368   25.7509 C   0  0  0  0  0  0
  -27.5562  -37.1769   24.8476 C   0  0  0  0  0  0
  -21.4148  -29.3041   22.3614 N   0  0  0  0  0  0
  -26.4264  -37.3771   23.9438 N   0  0  0  0  0  0
  -24.6757  -31.0720   22.1115 N   0  0  0  0  0  0
  -23.4128  -28.8258   23.3063 O   0  0  0  0  0  0
  -28.3557  -26.5602   20.1532 O   0  0  0  0  0  0
  -26.5600  -34.8883   22.4718 O   0  0  0  0  0  0
  -23.5332  -32.1480   23.7451 O   0  0  0  0  0  0
  -30.5627  -19.3020   20.3601 C   0  0  0  0  0  0
  -31.6755  -18.7630   20.9756 C   0  0  0  0  0  0
  -30.3706  -16.8869   20.9212 C   0  0  0  0  0  0
  -30.3575  -20.6003   19.6594 C   0  0  0  0  0  0
  -29.2766  -24.1606   20.1607 C   0  0  0  0  0  0
  -32.9775  -19.4395   21.2796 C   0  0  0  0  0  0
  -28.0648  -25.1300   20.2238 C   0  0  0  0  0  0
  -29.0923  -22.7496   19.4795 C   0  0  2  0  0  0
  -27.6833  -22.4155   18.9209 C   0  0  0  0  0  0
  -31.5393  -17.4058   21.3121 N   0  0  0  0  0  0
  -30.0523  -15.5064   21.1019 N   0  0  0  0  0  0
  -29.6311  -21.5801   20.2362 N   0  0  0  0  0  0
  -30.8599  -20.7411   18.5433 O   0  0  0  0  0  0
  -30.3634  -24.5164   20.6354 O   0  0  0  0  0  0
  -27.3653  -23.2264   17.9127 F   0  0  0  0  0  0
  -26.7670  -22.5372   19.8825 F   0  0  0  0  0  0
  -27.6272  -21.1658   18.4537 F   0  0  0  0  0  0
  -29.2989  -18.0897   20.1886 S   0  0  0  0  0  0
  -31.4666  -12.3828   19.1177 H   0  0  0  0  0  0
  -30.3133  -11.2895   19.8136 H   0  0  0  0  0  0
  -29.7267  -11.7971   17.4206 H   0  0  0  0  0  0
  -29.6767  -13.5026   17.7808 H   0  0  0  0  0  0
  -27.8009  -11.3353   18.7862 H   0  0  0  0  0  0
  -27.3713  -12.7010   17.7906 H   0  0  0  0  0  0
  -27.7097  -14.2693   19.5972 H   0  0  0  0  0  0
  -28.6819  -11.9720   21.3549 H   0  0  0  0  0  0
  -28.4888  -13.6191   21.8733 H   0  0  0  0  0  0
  -25.2793   -9.5681   22.4775 H   0  0  0  0  0  0
  -24.0022   -7.4642   22.7494 H   0  0  0  0  0  0
  -21.0869   -8.8769   19.8973 H   0  0  0  0  0  0
  -22.3731  -10.9669   19.6177 H   0  0  0  0  0  0
  -21.2007   -7.6160   23.9737 H   0  0  0  0  0  0
  -21.1470   -6.0536   25.9090 H   0  0  0  0  0  0
  -22.0592   -2.7616   23.2870 H   0  0  0  0  0  0
  -22.4123  -11.9840   22.4733 H   0  0  0  0  0  0
  -21.1131  -13.1211   22.2595 H   0  0  0  0  0  0
  -24.6427  -15.8299   20.4645 H   0  0  0  0  0  0
  -26.2664  -15.6242   20.0439 H   0  0  0  0  0  0
  -26.7105  -32.5456   23.1224 H   0  0  0  0  0  0
  -25.0042  -33.9821   25.0500 H   0  0  0  0  0  0
  -22.7050  -31.3159   21.4087 H   0  0  0  0  0  0
  -23.3763  -35.9516   23.3310 H   0  0  0  0  0  0
  -24.3559  -36.8869   22.2079 H   0  0  0  0  0  0
  -23.7140  -37.6408   23.6669 H   0  0  0  0  0  0
  -26.1104  -31.5841   20.6526 H   0  0  0  0  0  0
  -26.8181  -30.8257   22.0513 H   0  0  0  0  0  0
  -28.0882  -29.0222   21.2450 H   0  0  0  0  0  0
  -25.9512  -26.0143   18.9375 H   0  0  0  0  0  0
  -23.9670  -27.3297   19.0295 H   0  0  0  0  0  0
  -23.7514  -30.6110   19.4106 H   0  0  0  0  0  0
  -22.7548  -29.2614   19.8572 H   0  0  0  0  0  0
  -25.1276  -36.1960   25.0856 H   0  0  0  0  0  0
  -21.0013  -28.3321   24.1362 H   0  0  0  0  0  0
  -20.5704  -26.2360   23.3637 H   0  0  0  0  0  0
  -21.6639  -26.7473   22.1170 H   0  0  0  0  0  0
  -19.6921  -25.6299   21.1262 H   0  0  0  0  0  0
  -19.6670  -27.3194   20.6744 H   0  0  0  0  0  0
  -17.4201  -26.6718   21.4023 H   0  0  0  0  0  0
  -18.0311  -26.0081   22.9013 H   0  0  0  0  0  0
  -19.7964  -30.7269   24.2277 H   0  0  0  0  0  0
  -17.5056  -31.6305   24.5148 H   0  0  0  0  0  0
  -15.5376  -30.3031   23.7691 H   0  0  0  0  0  0
  -15.8659  -28.0823   22.7157 H   0  0  0  0  0  0
  -24.5878  -30.7131   25.7796 H   0  0  0  0  0  0
  -24.8934  -32.2872   26.5006 H   0  0  0  0  0  0
  -25.8013  -30.8804   27.0265 H   0  0  0  0  0  0
  -26.3028  -29.6721   24.1349 H   0  0  0  0  0  0
  -27.4085  -29.7365   25.4908 H   0  0  0  0  0  0
  -27.8892  -30.4350   23.9637 H   0  0  0  0  0  0
  -27.2746  -33.3739   26.1984 H   0  0  0  0  0  0
  -28.3858  -32.6825   25.0273 H   0  0  0  0  0  0
  -28.0754  -31.8565   26.5477 H   0  0  0  0  0  0
  -28.2568  -38.0074   24.7530 H   0  0  0  0  0  0
  -28.1078  -36.2611   24.6282 H   0  0  0  0  0  0
  -27.2286  -37.1374   25.8880 H   0  0  0  0  0  0
  -20.9348  -29.8670   21.6723 H   0  0  0  0  0  0
  -26.0159  -38.2850   24.1456 H   0  0  0  0  0  0
  -32.8614  -20.1545   22.0919 H   0  0  0  0  0  0
  -33.3800  -19.9709   20.4169 H   0  0  0  0  0  0
  -33.7315  -18.7173   21.5945 H   0  0  0  0  0  0
  -27.5262  -24.9191   21.1480 H   0  0  0  0  0  0
  -27.4191  -24.8532   19.4050 H   0  0  0  0  0  0
  -29.6897  -22.8413   18.5752 H   0  0  0  0  0  0
  -29.1269  -15.2995   21.4413 H   0  0  0  0  0  0
  -29.2381  -21.3987   21.1496 H   0  0  0  0  0  0
  1 25  1  0  0  0
  1 30  2  0  0  0
  1 81  1  0  0  0
  2  3  1  0  0  0
  2 25  1  0  0  0
  2 89  1  0  0  0
  2 90  1  0  0  0
  3  4  1  0  0  0
  3 91  1  0  0  0
  3 92  1  0  0  0
  4  5  1  0  0  0
  4 93  1  0  0  0
  4 94  1  0  0  0
  5  6  1  0  0  0
  5 26  1  0  0  0
  5 95  1  0  0  0
  6 25  1  0  0  0
  6 96  1  0  0  0
  6 97  1  0  0  0
  7  8  2  0  0  0
  7 26  1  0  0  0
  7 29  1  0  0  0
  8  9  1  0  0  0
  8 22  1  0  0  0
  9 10  1  0  0  0
  9 27  2  0  0  0
 10 11  2  0  0  0
 10 15  1  0  0  0
 11 12  1  0  0  0
 11 98  1  0  0  0
 12 13  2  0  0  0
 12 99  1  0  0  0
 13 14  1  0  0  0
 13 31  1  0  0  0
 14 15  2  0  0  0
 14100  1  0  0  0
 15101  1  0  0  0
 16 17  2  0  0  0
 16 21  1  0  0  0
 16 31  1  0  0  0
 17 18  1  0  0  0
 17102  1  0  0  0
 18 19  2  0  0  0
 18103  1  0  0  0
 19 20  1  0  0  0
 19 24  1  0  0  0
 20 21  2  0  0  0
 20104  1  0  0  0
 21 23  1  0  0  0
 22 28  1  0  0  0
 22 32  2  0  0  0
 26 27  1  0  0  0
 28105  1  0  0  0
 28106  1  0  0  0
 29107  1  0  0  0
 29108  1  0  0  0
 33 34  1  0  0  0
 33 66  1  0  0  0
 33 70  2  0  0  0
 34 36  1  0  0  0
 34 59  1  0  0  0
 34109  1  0  0  0
 35 44  2  0  0  0
 35 45  1  0  0  0
 35 68  1  0  0  0
 36 56  1  0  0  0
 36110  1  0  0  0
 37 39  1  0  0  0
 37 47  1  0  0  0
 37 66  1  0  0  0
 37111  1  0  0  0
 38 43  2  0  0  0
 38 46  1  0  0  0
 38 47  1  0  0  0
 39 64  1  0  0  0
 39 67  2  0  0  0
 40 52  1  0  0  0
 40 53  2  0  0  0
 40 58  1  0  0  0
 41112  1  0  0  0
 41113  1  0  0  0
 41114  1  0  0  0
 41 48  1  0  0  0
 42 43  1  0  0  0
 42 66  1  0  0  0
 42115  1  0  0  0
 42116  1  0  0  0
 43 44  1  0  0  0
 44117  1  0  0  0
 45 46  2  0  0  0
 45118  1  0  0  0
 46119  1  0  0  0
 47120  1  0  0  0
 47121  1  0  0  0
 48 56  1  0  0  0
 48 65  1  0  0  0
 48122  1  0  0  0
 49 50  1  0  0  0
 49 53  1  0  0  0
 49 64  1  0  0  0
 49123  1  0  0  0
 50 51  1  0  0  0
 50124  1  0  0  0
 50125  1  0  0  0
 51 52  1  0  0  0
 51126  1  0  0  0
 51127  1  0  0  0
 52128  1  0  0  0
 52129  1  0  0  0
 53 54  1  0  0  0
 54 55  2  0  0  0
 54130  1  0  0  0
 55 57  1  0  0  0
 55131  1  0  0  0
 56 69  2  0  0  0
 57 58  2  0  0  0
 57132  1  0  0  0
 58133  1  0  0  0
 59 60  1  0  0  0
 59 61  1  0  0  0
 59 62  1  0  0  0
 60134  1  0  0  0
 60135  1  0  0  0
 60136  1  0  0  0
 61137  1  0  0  0
 61138  1  0  0  0
 61139  1  0  0  0
 62140  1  0  0  0
 62141  1  0  0  0
 62142  1  0  0  0
 63 65  1  0  0  0
 63143  1  0  0  0
 63144  1  0  0  0
 63145  1  0  0  0
 64146  1  0  0  0
 65147  1  0  0  0
 68 77  1  0  0  0
 71 72  2  0  0  0
 71 74  1  0  0  0
 71 88  1  0  0  0
 72 76  1  0  0  0
 72 80  1  0  0  0
 73 80  2  0  0  0
 73 81  1  0  0  0
 73 88  1  0  0  0
 74 82  1  0  0  0
 74 83  2  0  0  0
 75 77  1  0  0  0
 75 78  1  0  0  0
 75 84  2  0  0  0
 76148  1  0  0  0
 76149  1  0  0  0
 76150  1  0  0  0
 77151  1  0  0  0
 77152  1  0  0  0
 78 79  1  0  0  0
 78 82  1  0  0  0
 78153  1  0  0  0
 79 85  1  0  0  0
 79 86  1  0  0  0
 79 87  1  0  0  0
 81154  1  0  0  0
 82155  1  0  0  0
M  ISO  4   1 100  68 101  77 101  81 100
M  END
> <chiral flag>
0

> <version>
0

> <s_m_source_file>
/data/baiqing/PycharmProjects/Reinvent-master-3.2/result/LINK_invent/BTK/process_docking_weight1_custom_product_contain_oxygen_bond_distance_aromatic_linkinvent_7_9_3/rearranged_h_0177.sdf

> <i_m_source_file_index>
22

> <r_mmod_Potential_Energy-OPLS-2005>
-219.978942871094

> <r_mmod_Stretch_Energy-OPLS-2005>
47.8186225891113

> <r_mmod_Bend_Energy-OPLS-2005>
113.269073486328

> <r_mmod_Torsional_Energy-OPLS-2005>
262.691009521484

> <r_mmod_Improper_Torsional_Energy-OPLS-2005>
5.70819854736328

> <r_mmod_Van_der_Waal_Energy-OPLS-2005>
142.293487548828

> <r_mmod_Electrostatic_Energy-OPLS-2005>
-549.87109375

> <r_mmod_Solvation_Energy-OPLS-2005>
-263.027038574219

> <b_mmod_Minimization_Converged-OPLS-2005>
0

> <r_mmod_RMS_Derivative-OPLS-2005>
4.59168529510498

$$$$
22
                    3D
 Structure written by MMmdl.
159167  0  0  1  0            999 V2000
  -30.7265  -14.5227   20.5286 C   0  0  0  0  0  0
  -30.4049  -12.3291   19.4480 C   0  0  0  0  0  0
  -29.4926  -12.4935   18.2173 C   0  0  0  0  0  0
  -28.0156  -12.3535   18.6293 C   0  0  0  0  0  0
  -27.6502  -13.2229   19.8631 C   0  0  2  0  0  0
  -28.6928  -13.0835   20.9948 C   0  0  0  0  0  0
  -25.2536  -13.8194   20.5692 C   0  0  0  0  0  0
  -24.1811  -13.0445   20.9192 C   0  0  0  0  0  0
  -24.6391  -11.6919   20.8745 C   0  0  0  0  0  0
  -23.9067  -10.4295   21.0402 C   0  0  0  0  0  0
  -24.3618   -9.4210   21.9182 C   0  0  0  0  0  0
  -23.6293   -8.2246   22.0755 C   0  0  0  0  0  0
  -22.4274   -8.0281   21.3545 C   0  0  0  0  0  0
  -21.9910   -9.0256   20.4646 C   0  0  0  0  0  0
  -22.7239  -10.2134   20.3053 C   0  0  0  0  0  0
  -21.6858   -6.0734   22.5280 C   0  0  0  0  0  0
  -21.4017   -6.5639   23.8212 C   0  0  0  0  0  0
  -21.3661   -5.6791   24.9176 C   0  0  0  0  0  0
  -21.6042   -4.3054   24.7226 C   0  0  0  0  0  0
  -21.8821   -3.8145   23.4349 C   0  0  0  0  0  0
  -21.9191   -4.6961   22.3402 C   0  0  0  0  0  0
  -22.7833  -13.5230   21.1855 C   0  0  0  0  0  0
  -22.1662   -4.2147   21.0981 F   0  0  0  0  0  0
  -21.5627   -3.4539   25.7741 F   0  0  0  0  0  0
  -30.0155  -13.3646   20.4227 N   0  0  0  0  0  0
  -26.2970  -12.9394   20.3330 N   0  0  0  0  0  0
  -25.9319  -11.6539   20.5766 N   0  0  0  0  0  0
  -22.0477  -12.8216   22.0407 N   0  0  0  0  0  0
  -25.4233  -15.1917   20.4109 N   0  0  0  0  0  0
  -31.8892  -14.5980   20.1245 O   0  0  0  0  0  0
  -21.6641   -6.8877   21.4240 O   0  0  0  0  0  0
  -22.3517  -14.5540   20.6706 O   0  0  0  0  0  0
  -24.6167  -31.8655   23.2073 C   0  0  0  0  0  0
  -25.9053  -32.4807   23.8379 C   0  0  1  0  0  0
  -27.2327  -27.4085   20.1103 C   0  0  0  0  0  0
  -25.5902  -33.8605   24.2317 N   0  0  0  0  0  0
  -23.4070  -30.4882   21.5469 C   0  0  2  0  0  0
  -24.8582  -28.9537   20.1088 C   0  0  0  0  0  0
  -22.7433  -29.4646   22.4966 C   0  0  0  0  0  0
  -18.0283  -28.1383   22.8504 C   0  0  0  0  0  0
  -24.1488  -36.7313   23.2638 C   0  0  0  0  0  0
  -25.9372  -30.8267   21.3632 C   0  0  0  0  0  0
  -26.0182  -29.4586   20.7123 C   0  0  0  0  0  0
  -27.2103  -28.6934   20.7125 C   0  0  0  0  0  0
  -26.0636  -26.9308   19.4886 C   0  0  0  0  0  0
  -24.8780  -27.6911   19.4898 C   0  0  0  0  0  0
  -23.6184  -29.8206   20.1610 C   0  0  0  0  0  0
  -25.4108  -36.3104   24.0338 C   0  0  1  0  0  0
  -20.5876  -28.3675   23.1313 C   0  0  2  0  0  0
  -20.6773  -26.9408   22.5414 C   0  0  0  0  0  0
  -19.5747  -26.6391   21.5216 C   0  0  0  0  0  0
  -18.1927  -26.7933   22.1630 C   0  0  0  0  0  0
  -19.1533  -28.8846   23.2906 C   0  0  0  0  0  0
  -18.9453  -30.1454   23.8915 C   0  0  0  0  0  0
  -17.6453  -30.6584   24.0575 C   0  0  0  0  0  0
  -25.9039  -34.9469   23.5129 C   0  0  0  0  0  0
  -16.5348  -29.9090   23.6326 C   0  0  0  0  0  0
  -16.7271  -28.6510   23.0344 C   0  0  0  0  0  0
  -26.4471  -31.6585   25.0710 C   0  0  0  0  0  0
  -25.3737  -31.3696   26.1461 C   0  0  0  0  0  0
  -27.0293  -30.3030   24.6075 C   0  0  0  0  0  0
  -27.6047  -32.4300   25.7475 C   0  0  0  0  0  0
  -27.5582  -37.1810   24.8468 C   0  0  0  0  0  0
  -21.4158  -29.3036   22.3704 N   0  0  0  0  0  0
  -26.4294  -37.3786   23.9410 N   0  0  0  0  0  0
  -24.6719  -31.0741   22.0980 N   0  0  0  0  0  0
  -23.4198  -28.8204   23.3026 O   0  0  0  0  0  0
  -28.3264  -26.5656   20.1513 O   0  0  0  0  0  0
  -26.5591  -34.8926   22.4687 O   0  0  0  0  0  0
  -23.5350  -32.1416   23.7450 O   0  0  0  0  0  0
  -30.1555  -19.2210   19.9962 C   0  0  0  0  0  0
  -30.0491  -18.3050   21.0750 C   0  0  0  0  0  0
  -29.4687  -18.7777   22.2820 C   0  0  0  0  0  0
  -29.2911  -21.0749   21.3527 C   0  0  0  0  0  0
  -29.7972  -20.5864   20.1245 C   0  0  0  0  0  0
  -29.1070  -20.1475   22.4060 C   0  0  0  0  0  0
  -28.6187  -26.0725   21.4043 C   0  0  0  0  0  0
  -28.8069  -24.7891   21.8203 C   0  0  0  0  0  0
  -28.7626  -23.5692   20.9764 C   0  0  0  0  0  0
  -30.4587  -17.9889   24.4922 C   0  0  0  0  0  0
  -29.3009  -17.8681   23.4928 C   0  0  0  0  0  0
  -30.7983  -16.9523   20.9748 C   0  0  0  0  0  0
  -29.1147  -22.4643   21.6837 N   0  0  0  0  0  0
  -30.0851  -15.6498   20.9286 N   0  0  0  0  0  0
  -28.4177  -23.5341   19.7952 O   0  0  0  0  0  0
  -29.0154  -24.6423   23.1418 O   0  0  0  0  0  0
  -30.0457  -21.4253   19.0910 F   0  0  0  0  0  0
  -28.6361  -20.6053   23.5928 F   0  0  0  0  0  0
  -31.4534  -12.3933   19.1513 H   0  0  0  0  0  0
  -30.2827  -11.3370   19.8860 H   0  0  0  0  0  0
  -29.7414  -11.7492   17.4596 H   0  0  0  0  0  0
  -29.6597  -13.4687   17.7569 H   0  0  0  0  0  0
  -27.8370  -11.3011   18.8519 H   0  0  0  0  0  0
  -27.3647  -12.5988   17.7896 H   0  0  0  0  0  0
  -27.6718  -14.2590   19.5252 H   0  0  0  0  0  0
  -28.6755  -12.0763   21.4137 H   0  0  0  0  0  0
  -28.4596  -13.7576   21.8200 H   0  0  0  0  0  0
  -25.2762   -9.5690   22.4757 H   0  0  0  0  0  0
  -24.0006   -7.4637   22.7476 H   0  0  0  0  0  0
  -21.0842   -8.8770   19.8953 H   0  0  0  0  0  0
  -22.3695  -10.9670   19.6161 H   0  0  0  0  0  0
  -21.2011   -7.6149   23.9716 H   0  0  0  0  0  0
  -21.1483   -6.0523   25.9078 H   0  0  0  0  0  0
  -22.0595   -2.7607   23.2850 H   0  0  0  0  0  0
  -22.4096  -11.9873   22.4789 H   0  0  0  0  0  0
  -21.1093  -13.1237   22.2613 H   0  0  0  0  0  0
  -24.6555  -15.8456   20.5190 H   0  0  0  0  0  0
  -26.2741  -15.6317   20.0829 H   0  0  0  0  0  0
  -26.7129  -32.5529   23.1145 H   0  0  0  0  0  0
  -25.0054  -33.9763   25.0463 H   0  0  0  0  0  0
  -22.6966  -31.3055   21.4056 H   0  0  0  0  0  0
  -23.3740  -35.9655   23.3311 H   0  0  0  0  0  0
  -24.3583  -36.8909   22.2048 H   0  0  0  0  0  0
  -23.7251  -37.6529   23.6643 H   0  0  0  0  0  0
  -26.0473  -31.5901   20.5915 H   0  0  0  0  0  0
  -26.8249  -30.8843   21.9809 H   0  0  0  0  0  0
  -28.1020  -29.0732   21.1906 H   0  0  0  0  0  0
  -26.0676  -25.9515   19.0304 H   0  0  0  0  0  0
  -23.9877  -27.2948   19.0208 H   0  0  0  0  0  0
  -23.7263  -30.5953   19.4009 H   0  0  0  0  0  0
  -22.7428  -29.2400   19.8652 H   0  0  0  0  0  0
  -25.1282  -36.1968   25.0828 H   0  0  0  0  0  0
  -20.9978  -28.3247   24.1432 H   0  0  0  0  0  0
  -20.5675  -26.2285   23.3603 H   0  0  0  0  0  0
  -21.6644  -26.7448   22.1206 H   0  0  0  0  0  0
  -19.6902  -25.6308   21.1229 H   0  0  0  0  0  0
  -19.6678  -27.3215   20.6754 H   0  0  0  0  0  0
  -17.4195  -26.6693   21.4031 H   0  0  0  0  0  0
  -18.0328  -26.0063   22.9014 H   0  0  0  0  0  0
  -19.7924  -30.7271   24.2286 H   0  0  0  0  0  0
  -17.5003  -31.6264   24.5174 H   0  0  0  0  0  0
  -15.5350  -30.2991   23.7631 H   0  0  0  0  0  0
  -15.8680  -28.0832   22.7037 H   0  0  0  0  0  0
  -24.5920  -30.7030   25.7807 H   0  0  0  0  0  0
  -24.8916  -32.2848   26.4910 H   0  0  0  0  0  0
  -25.8096  -30.8876   27.0221 H   0  0  0  0  0  0
  -26.2834  -29.6807   24.1119 H   0  0  0  0  0  0
  -27.4058  -29.7251   25.4520 H   0  0  0  0  0  0
  -27.8672  -30.4346   23.9224 H   0  0  0  0  0  0
  -27.2674  -33.3593   26.2077 H   0  0  0  0  0  0
  -28.3850  -32.6863   25.0299 H   0  0  0  0  0  0
  -28.0724  -31.8406   26.5369 H   0  0  0  0  0  0
  -28.2604  -38.0100   24.7497 H   0  0  0  0  0  0
  -28.1064  -36.2628   24.6305 H   0  0  0  0  0  0
  -27.2299  -37.1486   25.8870 H   0  0  0  0  0  0
  -20.9320  -29.8762   21.6929 H   0  0  0  0  0  0
  -26.0184  -38.2866   24.1396 H   0  0  0  0  0  0
  -30.6154  -18.9058   19.0706 H   0  0  0  0  0  0
  -28.6784  -26.8813   22.1206 H   0  0  0  0  0  0
  -30.3009  -17.3301   25.3459 H   0  0  0  0  0  0
  -30.5459  -19.0063   24.8739 H   0  0  0  0  0  0
  -31.4120  -17.7198   24.0392 H   0  0  0  0  0  0
  -29.1870  -16.8308   23.1813 H   0  0  0  0  0  0
  -28.3641  -18.1210   23.9915 H   0  0  0  0  0  0
  -31.4965  -16.9068   21.8114 H   0  0  0  0  0  0
  -31.4413  -17.0278   20.0956 H   0  0  0  0  0  0
  -29.3136  -22.6484   22.6528 H   0  0  0  0  0  0
  -29.1144  -15.6039   21.1958 H   0  0  0  0  0  0
  -28.6101  -23.8292   23.4096 H   0  0  0  0  0  0
  1 25  1  0  0  0
  1 30  2  0  0  0
  1 84  1  0  0  0
  2  3  1  0  0  0
  2 25  1  0  0  0
  2 89  1  0  0  0
  2 90  1  0  0  0
  3  4  1  0  0  0
  3 91  1  0  0  0
  3 92  1  0  0  0
  4  5  1  0  0  0
  4 93  1  0  0  0
  4 94  1  0  0  0
  5  6  1  0  0  0
  5 26  1  0  0  0
  5 95  1  0  0  0
  6 25  1  0  0  0
  6 96  1  0  0  0
  6 97  1  0  0  0
  7  8  2  0  0  0
  7 26  1  0  0  0
  7 29  1  0  0  0
  8  9  1  0  0  0
  8 22  1  0  0  0
  9 10  1  0  0  0
  9 27  2  0  0  0
 10 11  2  0  0  0
 10 15  1  0  0  0
 11 12  1  0  0  0
 11 98  1  0  0  0
 12 13  2  0  0  0
 12 99  1  0  0  0
 13 14  1  0  0  0
 13 31  1  0  0  0
 14 15  2  0  0  0
 14100  1  0  0  0
 15101  1  0  0  0
 16 17  2  0  0  0
 16 21  1  0  0  0
 16 31  1  0  0  0
 17 18  1  0  0  0
 17102  1  0  0  0
 18 19  2  0  0  0
 18103  1  0  0  0
 19 20  1  0  0  0
 19 24  1  0  0  0
 20 21  2  0  0  0
 20104  1  0  0  0
 21 23  1  0  0  0
 22 28  1  0  0  0
 22 32  2  0  0  0
 26 27  1  0  0  0
 28105  1  0  0  0
 28106  1  0  0  0
 29107  1  0  0  0
 29108  1  0  0  0
 33 34  1  0  0  0
 33 66  1  0  0  0
 33 70  2  0  0  0
 34 36  1  0  0  0
 34 59  1  0  0  0
 34109  1  0  0  0
 35 44  2  0  0  0
 35 45  1  0  0  0
 35 68  1  0  0  0
 36 56  1  0  0  0
 36110  1  0  0  0
 37 39  1  0  0  0
 37 47  1  0  0  0
 37 66  1  0  0  0
 37111  1  0  0  0
 38 43  2  0  0  0
 38 46  1  0  0  0
 38 47  1  0  0  0
 39 64  1  0  0  0
 39 67  2  0  0  0
 40 52  1  0  0  0
 40 53  2  0  0  0
 40 58  1  0  0  0
 41112  1  0  0  0
 41113  1  0  0  0
 41114  1  0  0  0
 41 48  1  0  0  0
 42 43  1  0  0  0
 42 66  1  0  0  0
 42115  1  0  0  0
 42116  1  0  0  0
 43 44  1  0  0  0
 44117  1  0  0  0
 45 46  2  0  0  0
 45118  1  0  0  0
 46119  1  0  0  0
 47120  1  0  0  0
 47121  1  0  0  0
 48 56  1  0  0  0
 48 65  1  0  0  0
 48122  1  0  0  0
 49 50  1  0  0  0
 49 53  1  0  0  0
 49 64  1  0  0  0
 49123  1  0  0  0
 50 51  1  0  0  0
 50124  1  0  0  0
 50125  1  0  0  0
 51 52  1  0  0  0
 51126  1  0  0  0
 51127  1  0  0  0
 52128  1  0  0  0
 52129  1  0  0  0
 53 54  1  0  0  0
 54 55  2  0  0  0
 54130  1  0  0  0
 55 57  1  0  0  0
 55131  1  0  0  0
 56 69  2  0  0  0
 57 58  2  0  0  0
 57132  1  0  0  0
 58133  1  0  0  0
 59 60  1  0  0  0
 59 61  1  0  0  0
 59 62  1  0  0  0
 60134  1  0  0  0
 60135  1  0  0  0
 60136  1  0  0  0
 61137  1  0  0  0
 61138  1  0  0  0
 61139  1  0  0  0
 62140  1  0  0  0
 62141  1  0  0  0
 62142  1  0  0  0
 63 65  1  0  0  0
 63143  1  0  0  0
 63144  1  0  0  0
 63145  1  0  0  0
 64146  1  0  0  0
 65147  1  0  0  0
 68 77  1  0  0  0
 71 72  2  0  0  0
 71 75  1  0  0  0
 71148  1  0  0  0
 72 73  1  0  0  0
 72 82  1  0  0  0
 73 76  2  0  0  0
 73 81  1  0  0  0
 74 75  2  0  0  0
 74 76  1  0  0  0
 74 83  1  0  0  0
 75 87  1  0  0  0
 76 88  1  0  0  0
 77 78  2  0  0  0
 77149  1  0  0  0
 78 79  1  0  0  0
 78 86  1  0  0  0
 79 83  1  0  0  0
 79 85  2  0  0  0
 80 81  1  0  0  0
 80150  1  0  0  0
 80151  1  0  0  0
 80152  1  0  0  0
 81153  1  0  0  0
 81154  1  0  0  0
 82 84  1  0  0  0
 82155  1  0  0  0
 82156  1  0  0  0
 83157  1  0  0  0
 84158  1  0  0  0
 86159  1  0  0  0
M  ISO  4   1 100  68 101  77 101  84 100
M  END
> <chiral flag>
0

> <version>
0

> <s_m_source_file>
/data/baiqing/PycharmProjects/Reinvent-master-3.2/result/LINK_invent/BTK/process_docking_weight1_custom_product_contain_oxygen_bond_distance_aromatic_linkinvent_7_9_3/rearranged_h_0177.sdf

> <i_m_source_file_index>
23

> <r_mmod_Potential_Energy-OPLS-2005>
-91.1093139648438

> <r_mmod_Stretch_Energy-OPLS-2005>
47.3667259216309

> <r_mmod_Bend_Energy-OPLS-2005>
140.746292114258

> <r_mmod_Torsional_Energy-OPLS-2005>
248.351211547852

> <r_mmod_Improper_Torsional_Energy-OPLS-2005>
6.69297885894775

> <r_mmod_Van_der_Waal_Energy-OPLS-2005>
153.942031860352

> <r_mmod_Electrostatic_Energy-OPLS-2005>
-478.631561279297

> <r_mmod_Solvation_Energy-OPLS-2005>
-235.598937988281

> <b_mmod_Minimization_Converged-OPLS-2005>
0

> <r_mmod_RMS_Derivative-OPLS-2005>
1.09293651580811

$$$$
23
                    3D
 Structure written by MMmdl.
159167  0  0  1  0            999 V2000
  -30.6645  -14.5521   20.4658 C   0  0  0  0  0  0
  -30.4265  -12.3292   19.4490 C   0  0  0  0  0  0
  -29.5055  -12.4850   18.2191 C   0  0  0  0  0  0
  -28.0249  -12.3427   18.6268 C   0  0  0  0  0  0
  -27.6535  -13.2116   19.8594 C   0  0  2  0  0  0
  -28.6966  -13.0610   20.9897 C   0  0  0  0  0  0
  -25.2572  -13.8162   20.5675 C   0  0  0  0  0  0
  -24.1830  -13.0437   20.9178 C   0  0  0  0  0  0
  -24.6387  -11.6901   20.8730 C   0  0  0  0  0  0
  -23.9054  -10.4286   21.0395 C   0  0  0  0  0  0
  -24.3609   -9.4209   21.9173 C   0  0  0  0  0  0
  -23.6290   -8.2242   22.0746 C   0  0  0  0  0  0
  -22.4274   -8.0270   21.3541 C   0  0  0  0  0  0
  -21.9906   -9.0236   20.4640 C   0  0  0  0  0  0
  -22.7226  -10.2118   20.3048 C   0  0  0  0  0  0
  -21.6859   -6.0733   22.5279 C   0  0  0  0  0  0
  -21.4012   -6.5634   23.8212 C   0  0  0  0  0  0
  -21.3666   -5.6785   24.9173 C   0  0  0  0  0  0
  -21.6049   -4.3051   24.7226 C   0  0  0  0  0  0
  -21.8822   -3.8145   23.4349 C   0  0  0  0  0  0
  -21.9194   -4.6960   22.3406 C   0  0  0  0  0  0
  -22.7855  -13.5232   21.1845 C   0  0  0  0  0  0
  -22.1663   -4.2144   21.0985 F   0  0  0  0  0  0
  -21.5635   -3.4543   25.7743 F   0  0  0  0  0  0
  -30.0205  -13.3531   20.4247 N   0  0  0  0  0  0
  -26.2991  -12.9331   20.3297 N   0  0  0  0  0  0
  -25.9316  -11.6496   20.5748 N   0  0  0  0  0  0
  -22.0500  -12.8209   22.0397 N   0  0  0  0  0  0
  -25.4288  -15.1884   20.4085 N   0  0  0  0  0  0
  -31.8690  -14.6554   20.2221 O   0  0  0  0  0  0
  -21.6643   -6.8865   21.4235 O   0  0  0  0  0  0
  -22.3536  -14.5545   20.6703 O   0  0  0  0  0  0
  -24.6194  -31.8644   23.2080 C   0  0  0  0  0  0
  -25.9072  -32.4800   23.8384 C   0  0  1  0  0  0
  -27.2280  -27.3882   20.0961 C   0  0  0  0  0  0
  -25.5912  -33.8602   24.2313 N   0  0  0  0  0  0
  -23.4080  -30.4902   21.5492 C   0  0  2  0  0  0
  -24.8507  -28.9498   20.1156 C   0  0  0  0  0  0
  -22.7431  -29.4648   22.4967 C   0  0  0  0  0  0
  -18.0273  -28.1383   22.8484 C   0  0  0  0  0  0
  -24.1487  -36.7316   23.2639 C   0  0  0  0  0  0
  -25.9416  -30.8173   21.3651 C   0  0  0  0  0  0
  -26.0148  -29.4483   20.7109 C   0  0  0  0  0  0
  -27.2039  -28.6771   20.6930 C   0  0  0  0  0  0
  -26.0333  -26.9092   19.5082 C   0  0  0  0  0  0
  -24.8571  -27.6821   19.5116 C   0  0  0  0  0  0
  -23.6182  -29.8258   20.1628 C   0  0  0  0  0  0
  -25.4106  -36.3102   24.0334 C   0  0  1  0  0  0
  -20.5869  -28.3674   23.1302 C   0  0  2  0  0  0
  -20.6763  -26.9406   22.5410 C   0  0  0  0  0  0
  -19.5740  -26.6386   21.5206 C   0  0  0  0  0  0
  -18.1918  -26.7930   22.1616 C   0  0  0  0  0  0
  -19.1525  -28.8844   23.2893 C   0  0  0  0  0  0
  -18.9453  -30.1449   23.8907 C   0  0  0  0  0  0
  -17.6450  -30.6582   24.0567 C   0  0  0  0  0  0
  -25.9038  -34.9467   23.5121 C   0  0  0  0  0  0
  -16.5343  -29.9086   23.6323 C   0  0  0  0  0  0
  -16.7260  -28.6507   23.0339 C   0  0  0  0  0  0
  -26.4480  -31.6590   25.0731 C   0  0  0  0  0  0
  -25.3741  -31.3702   26.1475 C   0  0  0  0  0  0
  -27.0302  -30.3025   24.6124 C   0  0  0  0  0  0
  -27.6055  -32.4303   25.7499 C   0  0  0  0  0  0
  -27.5581  -37.1813   24.8460 C   0  0  0  0  0  0
  -21.4153  -29.3044   22.3714 N   0  0  0  0  0  0
  -26.4288  -37.3791   23.9409 N   0  0  0  0  0  0
  -24.6752  -31.0724   22.0990 N   0  0  0  0  0  0
  -23.4191  -28.8176   23.3009 O   0  0  0  0  0  0
  -28.4102  -26.6574   20.1077 O   0  0  0  0  0  0
  -26.5598  -34.8921   22.4684 O   0  0  0  0  0  0
  -23.5376  -32.1407   23.7458 O   0  0  0  0  0  0
  -29.3382  -18.0858   20.2905 C   0  0  0  0  0  0
  -29.9813  -19.3115   18.2473 C   0  0  0  0  0  0
  -30.7056  -18.1550   17.8401 C   0  0  0  0  0  0
  -29.3428  -19.2989   19.5312 C   0  0  0  0  0  0
  -29.9781  -16.8949   19.8337 C   0  0  0  0  0  0
  -30.6490  -16.9617   18.5859 C   0  0  0  0  0  0
  -27.9172  -22.7774   20.3060 C   0  0  0  0  0  0
  -29.0671  -21.7018   20.2288 C   0  0  0  0  0  0
  -31.5503  -18.1289   16.5694 C   0  0  0  0  0  0
  -28.2311  -24.2202   20.7850 C   0  0  0  0  0  0
  -28.4603  -25.2745   19.6604 C   0  0  0  0  0  0
  -29.8652  -20.5006   17.2629 C   0  0  0  0  0  0
  -28.6104  -20.4384   20.0303 N   0  0  0  0  0  0
  -29.8692  -15.6500   20.5751 N   0  0  0  0  0  0
  -26.7557  -22.4826   20.0003 O   0  0  0  0  0  0
  -30.2616  -21.9932   20.3351 O   0  0  0  0  0  0
  -31.1959  -15.8567   18.0256 F   0  0  0  0  0  0
  -29.7715  -20.0870   15.9983 F   0  0  0  0  0  0
  -28.7764  -21.2475   17.4354 F   0  0  0  0  0  0
  -30.9383  -21.2840   17.3671 F   0  0  0  0  0  0
  -31.4732  -12.4279   19.1538 H   0  0  0  0  0  0
  -30.3309  -11.3323   19.8830 H   0  0  0  0  0  0
  -29.7591  -11.7404   17.4633 H   0  0  0  0  0  0
  -29.6706  -13.4595   17.7555 H   0  0  0  0  0  0
  -27.8458  -11.2899   18.8488 H   0  0  0  0  0  0
  -27.3769  -12.5879   17.7844 H   0  0  0  0  0  0
  -27.6733  -14.2467   19.5201 H   0  0  0  0  0  0
  -28.6809  -12.0476   21.3940 H   0  0  0  0  0  0
  -28.4655  -13.7239   21.8253 H   0  0  0  0  0  0
  -25.2753   -9.5702   22.4738 H   0  0  0  0  0  0
  -24.0016   -7.4644   22.7468 H   0  0  0  0  0  0
  -21.0840   -8.8742   19.8944 H   0  0  0  0  0  0
  -22.3679  -10.9648   19.6154 H   0  0  0  0  0  0
  -21.1994   -7.6139   23.9718 H   0  0  0  0  0  0
  -21.1488   -6.0513   25.9074 H   0  0  0  0  0  0
  -22.0595   -2.7609   23.2859 H   0  0  0  0  0  0
  -22.4107  -11.9866   22.4781 H   0  0  0  0  0  0
  -21.1118  -13.1231   22.2601 H   0  0  0  0  0  0
  -24.6585  -15.8403   20.5099 H   0  0  0  0  0  0
  -26.2722  -15.6274   20.0633 H   0  0  0  0  0  0
  -26.7146  -32.5488   23.1146 H   0  0  0  0  0  0
  -25.0072  -33.9754   25.0465 H   0  0  0  0  0  0
  -22.6986  -31.3089   21.4108 H   0  0  0  0  0  0
  -23.3741  -35.9656   23.3290 H   0  0  0  0  0  0
  -24.3589  -36.8942   22.2056 H   0  0  0  0  0  0
  -23.7243  -37.6518   23.6662 H   0  0  0  0  0  0
  -26.0593  -31.5814   20.5954 H   0  0  0  0  0  0
  -26.8282  -30.8705   21.9850 H   0  0  0  0  0  0
  -28.1048  -29.0640   21.1489 H   0  0  0  0  0  0
  -25.9704  -25.9386   19.0430 H   0  0  0  0  0  0
  -23.9595  -27.2919   19.0514 H   0  0  0  0  0  0
  -23.7369  -30.6037   19.4073 H   0  0  0  0  0  0
  -22.7383  -29.2550   19.8603 H   0  0  0  0  0  0
  -25.1285  -36.1963   25.0826 H   0  0  0  0  0  0
  -20.9960  -28.3239   24.1424 H   0  0  0  0  0  0
  -20.5652  -26.2284   23.3604 H   0  0  0  0  0  0
  -21.6634  -26.7436   22.1205 H   0  0  0  0  0  0
  -19.6896  -25.6296   21.1235 H   0  0  0  0  0  0
  -19.6682  -27.3202   20.6742 H   0  0  0  0  0  0
  -17.4189  -26.6682   21.4018 H   0  0  0  0  0  0
  -18.0315  -26.0067   22.9008 H   0  0  0  0  0  0
  -19.7926  -30.7272   24.2281 H   0  0  0  0  0  0
  -17.5001  -31.6264   24.5164 H   0  0  0  0  0  0
  -15.5345  -30.2995   23.7638 H   0  0  0  0  0  0
  -15.8657  -28.0838   22.7039 H   0  0  0  0  0  0
  -24.5928  -30.7027   25.7820 H   0  0  0  0  0  0
  -24.8917  -32.2855   26.4916 H   0  0  0  0  0  0
  -25.8096  -30.8886   27.0241 H   0  0  0  0  0  0
  -26.2850  -29.6794   24.1165 H   0  0  0  0  0  0
  -27.4044  -29.7254   25.4592 H   0  0  0  0  0  0
  -27.8702  -30.4326   23.9296 H   0  0  0  0  0  0
  -27.2682  -33.3602   26.2090 H   0  0  0  0  0  0
  -28.3871  -32.6855   25.0333 H   0  0  0  0  0  0
  -28.0716  -31.8414   26.5409 H   0  0  0  0  0  0
  -28.2588  -38.0119   24.7510 H   0  0  0  0  0  0
  -28.1086  -36.2651   24.6274 H   0  0  0  0  0  0
  -27.2305  -37.1444   25.8863 H   0  0  0  0  0  0
  -20.9311  -29.8810   21.6974 H   0  0  0  0  0  0
  -26.0173  -38.2865   24.1410 H   0  0  0  0  0  0
  -28.8137  -18.0643   21.2355 H   0  0  0  0  0  0
  -31.9906  -19.1005   16.3494 H   0  0  0  0  0  0
  -30.9505  -17.8066   15.7179 H   0  0  0  0  0  0
  -32.3874  -17.4371   16.6674 H   0  0  0  0  0  0
  -29.0883  -24.1974   21.4571 H   0  0  0  0  0  0
  -27.3817  -24.5347   21.3904 H   0  0  0  0  0  0
  -27.8335  -25.0860   18.7906 H   0  0  0  0  0  0
  -29.4719  -25.1226   19.2833 H   0  0  0  0  0  0
  -27.6026  -20.3517   20.0812 H   0  0  0  0  0  0
  -28.9756  -15.4841   21.0101 H   0  0  0  0  0  0
  1 25  1  0  0  0
  1 30  2  0  0  0
  1 84  1  0  0  0
  2  3  1  0  0  0
  2 25  1  0  0  0
  2 91  1  0  0  0
  2 92  1  0  0  0
  3  4  1  0  0  0
  3 93  1  0  0  0
  3 94  1  0  0  0
  4  5  1  0  0  0
  4 95  1  0  0  0
  4 96  1  0  0  0
  5  6  1  0  0  0
  5 26  1  0  0  0
  5 97  1  0  0  0
  6 25  1  0  0  0
  6 98  1  0  0  0
  6 99  1  0  0  0
  7  8  2  0  0  0
  7 26  1  0  0  0
  7 29  1  0  0  0
  8  9  1  0  0  0
  8 22  1  0  0  0
  9 10  1  0  0  0
  9 27  2  0  0  0
 10 11  2  0  0  0
 10 15  1  0  0  0
 11 12  1  0  0  0
 11100  1  0  0  0
 12 13  2  0  0  0
 12101  1  0  0  0
 13 14  1  0  0  0
 13 31  1  0  0  0
 14 15  2  0  0  0
 14102  1  0  0  0
 15103  1  0  0  0
 16 17  2  0  0  0
 16 21  1  0  0  0
 16 31  1  0  0  0
 17 18  1  0  0  0
 17104  1  0  0  0
 18 19  2  0  0  0
 18105  1  0  0  0
 19 20  1  0  0  0
 19 24  1  0  0  0
 20 21  2  0  0  0
 20106  1  0  0  0
 21 23  1  0  0  0
 22 28  1  0  0  0
 22 32  2  0  0  0
 26 27  1  0  0  0
 28107  1  0  0  0
 28108  1  0  0  0
 29109  1  0  0  0
 29110  1  0  0  0
 33 34  1  0  0  0
 33 66  1  0  0  0
 33 70  2  0  0  0
 34 36  1  0  0  0
 34 59  1  0  0  0
 34111  1  0  0  0
 35 44  2  0  0  0
 35 45  1  0  0  0
 35 68  1  0  0  0
 36 56  1  0  0  0
 36112  1  0  0  0
 37 39  1  0  0  0
 37 47  1  0  0  0
 37 66  1  0  0  0
 37113  1  0  0  0
 38 43  2  0  0  0
 38 46  1  0  0  0
 38 47  1  0  0  0
 39 64  1  0  0  0
 39 67  2  0  0  0
 40 52  1  0  0  0
 40 53  2  0  0  0
 40 58  1  0  0  0
 41114  1  0  0  0
 41115  1  0  0  0
 41116  1  0  0  0
 41 48  1  0  0  0
 42 43  1  0  0  0
 42 66  1  0  0  0
 42117  1  0  0  0
 42118  1  0  0  0
 43 44  1  0  0  0
 44119  1  0  0  0
 45 46  2  0  0  0
 45120  1  0  0  0
 46121  1  0  0  0
 47122  1  0  0  0
 47123  1  0  0  0
 48 56  1  0  0  0
 48 65  1  0  0  0
 48124  1  0  0  0
 49 50  1  0  0  0
 49 53  1  0  0  0
 49 64  1  0  0  0
 49125  1  0  0  0
 50 51  1  0  0  0
 50126  1  0  0  0
 50127  1  0  0  0
 51 52  1  0  0  0
 51128  1  0  0  0
 51129  1  0  0  0
 52130  1  0  0  0
 52131  1  0  0  0
 53 54  1  0  0  0
 54 55  2  0  0  0
 54132  1  0  0  0
 55 57  1  0  0  0
 55133  1  0  0  0
 56 69  2  0  0  0
 57 58  2  0  0  0
 57134  1  0  0  0
 58135  1  0  0  0
 59 60  1  0  0  0
 59 61  1  0  0  0
 59 62  1  0  0  0
 60136  1  0  0  0
 60137  1  0  0  0
 60138  1  0  0  0
 61139  1  0  0  0
 61140  1  0  0  0
 61141  1  0  0  0
 62142  1  0  0  0
 62143  1  0  0  0
 62144  1  0  0  0
 63 65  1  0  0  0
 63145  1  0  0  0
 63146  1  0  0  0
 63147  1  0  0  0
 64148  1  0  0  0
 65149  1  0  0  0
 68 81  1  0  0  0
 71 74  2  0  0  0
 71 75  1  0  0  0
 71150  1  0  0  0
 72 73  2  0  0  0
 72 74  1  0  0  0
 72 82  1  0  0  0
 73 76  1  0  0  0
 73 79  1  0  0  0
 74 83  1  0  0  0
 75 76  2  0  0  0
 75 84  1  0  0  0
 76 87  1  0  0  0
 77 78  1  0  0  0
 77 80  1  0  0  0
 77 85  2  0  0  0
 78 83  1  0  0  0
 78 86  2  0  0  0
 79151  1  0  0  0
 79152  1  0  0  0
 79153  1  0  0  0
 80 81  1  0  0  0
 80154  1  0  0  0
 80155  1  0  0  0
 81156  1  0  0  0
 81157  1  0  0  0
 82 88  1  0  0  0
 82 89  1  0  0  0
 82 90  1  0  0  0
 83158  1  0  0  0
 84159  1  0  0  0
M  ISO  4   1 100  68 101  81 101  84 100
M  END
> <chiral flag>
0

> <version>
0

> <s_m_source_file>
/data/baiqing/PycharmProjects/Reinvent-master-3.2/result/LINK_invent/BTK/process_docking_weight1_custom_product_contain_oxygen_bond_distance_aromatic_linkinvent_7_9_3/rearranged_h_0177.sdf

> <i_m_source_file_index>
24

> <r_mmod_Potential_Energy-OPLS-2005>
45.3901062011719

> <r_mmod_Stretch_Energy-OPLS-2005>
57.6400489807129

> <r_mmod_Bend_Energy-OPLS-2005>
121.561180114746

> <r_mmod_Torsional_Energy-OPLS-2005>
276.911834716797

> <r_mmod_Improper_Torsional_Energy-OPLS-2005>
6.84935283660889

> <r_mmod_Van_der_Waal_Energy-OPLS-2005>
166.493408203125

> <r_mmod_Electrostatic_Energy-OPLS-2005>
-377.781860351562

> <r_mmod_Solvation_Energy-OPLS-2005>
-234.947692871094

> <b_mmod_Minimization_Converged-OPLS-2005>
0

> <r_mmod_RMS_Derivative-OPLS-2005>
1.28606963157654

$$$$
24
                    3D
 Structure written by MMmdl.
156164  0  0  1  0            999 V2000
  -30.6843  -14.4796   20.5758 C   0  0  0  0  0  0
  -30.4322  -12.3123   19.4145 C   0  0  0  0  0  0
  -29.4952  -12.5074   18.2026 C   0  0  0  0  0  0
  -28.0146  -12.3704   18.6165 C   0  0  0  0  0  0
  -27.6653  -13.2036   19.8775 C   0  0  2  0  0  0
  -28.7075  -12.9635   20.9923 C   0  0  0  0  0  0
  -25.2620  -13.8150   20.5739 C   0  0  0  0  0  0
  -24.1847  -13.0432   20.9194 C   0  0  0  0  0  0
  -24.6390  -11.6897   20.8736 C   0  0  0  0  0  0
  -23.9060  -10.4283   21.0410 C   0  0  0  0  0  0
  -24.3612   -9.4212   21.9196 C   0  0  0  0  0  0
  -23.6301   -8.2244   22.0758 C   0  0  0  0  0  0
  -22.4276   -8.0291   21.3552 C   0  0  0  0  0  0
  -21.9911   -9.0266   20.4646 C   0  0  0  0  0  0
  -22.7238  -10.2139   20.3060 C   0  0  0  0  0  0
  -21.6846   -6.0762   22.5298 C   0  0  0  0  0  0
  -21.3999   -6.5655   23.8242 C   0  0  0  0  0  0
  -21.3648   -5.6803   24.9187 C   0  0  0  0  0  0
  -21.6037   -4.3069   24.7226 C   0  0  0  0  0  0
  -21.8817   -3.8166   23.4342 C   0  0  0  0  0  0
  -21.9188   -4.6992   22.3412 C   0  0  0  0  0  0
  -22.7876  -13.5243   21.1855 C   0  0  0  0  0  0
  -22.1668   -4.2194   21.0987 F   0  0  0  0  0  0
  -21.5616   -3.4540   25.7730 F   0  0  0  0  0  0
  -30.0425  -13.2834   20.4495 N   0  0  0  0  0  0
  -26.3050  -12.9315   20.3378 N   0  0  0  0  0  0
  -25.9320  -11.6473   20.5738 N   0  0  0  0  0  0
  -22.0476  -12.8252   22.0385 N   0  0  0  0  0  0
  -25.4363  -15.1866   20.4207 N   0  0  0  0  0  0
  -31.8009  -14.6883   20.0880 O   0  0  0  0  0  0
  -21.6622   -6.8901   21.4261 O   0  0  0  0  0  0
  -22.3581  -14.5573   20.6716 O   0  0  0  0  0  0
  -24.6165  -31.8676   23.2080 C   0  0  0  0  0  0
  -25.9060  -32.4798   23.8392 C   0  0  1  0  0  0
  -27.2366  -27.4379   20.0966 C   0  0  0  0  0  0
  -25.5929  -33.8601   24.2317 N   0  0  0  0  0  0
  -23.4053  -30.4900   21.5479 C   0  0  2  0  0  0
  -24.8542  -28.9574   20.1116 C   0  0  0  0  0  0
  -22.7418  -29.4656   22.4990 C   0  0  0  0  0  0
  -18.0260  -28.1373   22.8488 C   0  0  0  0  0  0
  -24.1484  -36.7291   23.2646 C   0  0  0  0  0  0
  -25.9332  -30.8362   21.3595 C   0  0  0  0  0  0
  -26.0138  -29.4710   20.7056 C   0  0  0  0  0  0
  -27.2124  -28.7187   20.6950 C   0  0  0  0  0  0
  -26.0642  -26.9410   19.4895 C   0  0  0  0  0  0
  -24.8730  -27.6908   19.5009 C   0  0  0  0  0  0
  -23.6145  -29.8214   20.1626 C   0  0  0  0  0  0
  -25.4097  -36.3092   24.0350 C   0  0  1  0  0  0
  -20.5856  -28.3658   23.1319 C   0  0  2  0  0  0
  -20.6752  -26.9399   22.5418 C   0  0  0  0  0  0
  -19.5729  -26.6392   21.5208 C   0  0  0  0  0  0
  -18.1901  -26.7931   22.1609 C   0  0  0  0  0  0
  -19.1515  -28.8831   23.2900 C   0  0  0  0  0  0
  -18.9444  -30.1446   23.8903 C   0  0  0  0  0  0
  -17.6450  -30.6589   24.0562 C   0  0  0  0  0  0
  -25.9039  -34.9460   23.5121 C   0  0  0  0  0  0
  -16.5337  -29.9083   23.6344 C   0  0  0  0  0  0
  -16.7253  -28.6501   23.0354 C   0  0  0  0  0  0
  -26.4498  -31.6567   25.0718 C   0  0  0  0  0  0
  -25.3785  -31.3691   26.1493 C   0  0  0  0  0  0
  -27.0280  -30.2993   24.6079 C   0  0  0  0  0  0
  -27.6089  -32.4279   25.7480 C   0  0  0  0  0  0
  -27.5566  -37.1806   24.8482 C   0  0  0  0  0  0
  -21.4147  -29.3025   22.3730 N   0  0  0  0  0  0
  -26.4289  -37.3775   23.9421 N   0  0  0  0  0  0
  -24.6699  -31.0790   22.0966 N   0  0  0  0  0  0
  -23.4188  -28.8202   23.3035 O   0  0  0  0  0  0
  -28.3634  -26.6468   20.1226 O   0  0  0  0  0  0
  -26.5597  -34.8931   22.4680 O   0  0  0  0  0  0
  -23.5365  -32.1432   23.7480 O   0  0  0  0  0  0
  -29.1613  -19.1988   20.6771 C   0  0  0  0  0  0
  -30.3654  -18.8886   20.0692 C   0  0  0  0  0  0
  -29.8797  -16.8288   20.9432 C   0  0  0  0  0  0
  -28.3855  -20.4388   20.7471 C   0  0  0  0  0  0
  -28.8553  -24.2228   20.5810 C   0  0  0  0  0  0
  -28.0395  -23.0216   22.6889 C   0  0  0  0  0  0
  -28.2207  -25.5553   21.0543 C   0  0  0  0  0  0
  -28.2169  -22.9287   21.1561 C   0  0  2  0  0  0
  -30.7630  -17.5516   20.2384 N   0  0  0  0  0  0
  -31.1937  -19.7447   19.3356 N   0  0  0  0  0  0
  -29.9701  -15.4279   21.2108 N   0  0  0  0  0  0
  -28.9476  -21.6746   20.8134 N   0  0  0  0  0  0
  -27.0423  -20.3450   20.7797 N   0  3  0  0  0  0
  -29.8123  -24.2152   19.7995 O   0  0  0  0  0  0
  -28.5092  -17.7827   21.4907 S   0  0  0  0  0  0
  -31.4732  -12.4256   19.1069 H   0  0  0  0  0  0
  -30.3457  -11.2971   19.8049 H   0  0  0  0  0  0
  -29.7356  -11.7821   17.4238 H   0  0  0  0  0  0
  -29.6631  -13.4919   17.7643 H   0  0  0  0  0  0
  -27.8183  -11.3132   18.8039 H   0  0  0  0  0  0
  -27.3671  -12.6608   17.7883 H   0  0  0  0  0  0
  -27.7153  -14.2545   19.5918 H   0  0  0  0  0  0
  -28.6879  -11.9175   21.3045 H   0  0  0  0  0  0
  -28.4572  -13.5375   21.8855 H   0  0  0  0  0  0
  -25.2746   -9.5706   22.4777 H   0  0  0  0  0  0
  -24.0022   -7.4622   22.7454 H   0  0  0  0  0  0
  -21.0860   -8.8785   19.8935 H   0  0  0  0  0  0
  -22.3711  -10.9686   19.6172 H   0  0  0  0  0  0
  -21.1991   -7.6159   23.9760 H   0  0  0  0  0  0
  -21.1466   -6.0516   25.9101 H   0  0  0  0  0  0
  -22.0598   -2.7639   23.2822 H   0  0  0  0  0  0
  -22.4033  -11.9882   22.4776 H   0  0  0  0  0  0
  -21.1107  -13.1322   22.2562 H   0  0  0  0  0  0
  -24.6724  -15.8421   20.5450 H   0  0  0  0  0  0
  -26.2876  -15.6244   20.0941 H   0  0  0  0  0  0
  -26.7119  -32.5522   23.1153 H   0  0  0  0  0  0
  -25.0148  -33.9754   25.0512 H   0  0  0  0  0  0
  -22.6927  -31.3065   21.4084 H   0  0  0  0  0  0
  -23.3755  -35.9618   23.3303 H   0  0  0  0  0  0
  -24.3589  -36.8908   22.2066 H   0  0  0  0  0  0
  -23.7221  -37.6493   23.6649 H   0  0  0  0  0  0
  -26.0464  -31.6057   20.5941 H   0  0  0  0  0  0
  -26.8209  -30.8882   21.9778 H   0  0  0  0  0  0
  -28.1065  -29.1071   21.1624 H   0  0  0  0  0  0
  -26.0712  -25.9665   19.0206 H   0  0  0  0  0  0
  -23.9798  -27.2883   19.0423 H   0  0  0  0  0  0
  -23.7230  -30.5950   19.4012 H   0  0  0  0  0  0
  -22.7399  -29.2400   19.8689 H   0  0  0  0  0  0
  -25.1265  -36.1961   25.0845 H   0  0  0  0  0  0
  -20.9950  -28.3221   24.1437 H   0  0  0  0  0  0
  -20.5635  -26.2260   23.3587 H   0  0  0  0  0  0
  -21.6618  -26.7444   22.1215 H   0  0  0  0  0  0
  -19.6886  -25.6305   21.1227 H   0  0  0  0  0  0
  -19.6675  -27.3212   20.6739 H   0  0  0  0  0  0
  -17.4179  -26.6683   21.3999 H   0  0  0  0  0  0
  -18.0297  -26.0064   22.8996 H   0  0  0  0  0  0
  -19.7928  -30.7256   24.2254 H   0  0  0  0  0  0
  -17.5015  -31.6263   24.5160 H   0  0  0  0  0  0
  -15.5337  -30.2981   23.7683 H   0  0  0  0  0  0
  -15.8641  -28.0836   22.7056 H   0  0  0  0  0  0
  -24.5915  -30.7084   25.7851 H   0  0  0  0  0  0
  -24.9049  -32.2854   26.5015 H   0  0  0  0  0  0
  -25.8166  -30.8805   27.0202 H   0  0  0  0  0  0
  -26.2765  -29.6781   24.1183 H   0  0  0  0  0  0
  -27.4083  -29.7219   25.4517 H   0  0  0  0  0  0
  -27.8616  -30.4292   23.9173 H   0  0  0  0  0  0
  -27.2725  -33.3617   26.2001 H   0  0  0  0  0  0
  -28.3924  -32.6751   25.0303 H   0  0  0  0  0  0
  -28.0708  -31.8423   26.5439 H   0  0  0  0  0  0
  -28.2615  -38.0071   24.7461 H   0  0  0  0  0  0
  -28.1014  -36.2588   24.6361 H   0  0  0  0  0  0
  -27.2284  -37.1561   25.8893 H   0  0  0  0  0  0
  -20.9296  -29.8758   21.6980 H   0  0  0  0  0  0
  -26.0174  -38.2869   24.1377 H   0  0  0  0  0  0
  -27.0841  -23.4817   22.9426 H   0  0  0  0  0  0
  -28.8256  -23.6110   23.1654 H   0  0  0  0  0  0
  -28.0496  -22.0383   23.1590 H   0  0  0  0  0  0
  -28.6887  -25.8440   21.9958 H   0  0  0  0  0  0
  -27.1705  -25.3634   21.2806 H   0  0  0  0  0  0
  -27.2283  -22.8470   20.7070 H   0  0  0  0  0  0
  -30.7727  -20.5071   18.8182 H   0  0  0  0  0  0
  -31.9467  -19.3038   18.8169 H   0  0  0  0  0  0
  -29.1743  -15.0550   21.7023 H   0  0  0  0  0  0
  -29.9533  -21.7512   20.7284 H   0  0  0  0  0  0
  -26.5932  -19.4441   20.7261 H   0  0  0  0  0  0
  -26.4487  -21.1571   20.8175 H   0  0  0  0  0  0
  1 25  1  0  0  0
  1 30  2  0  0  0
  1 81  1  0  0  0
  2  3  1  0  0  0
  2 25  1  0  0  0
  2 86  1  0  0  0
  2 87  1  0  0  0
  3  4  1  0  0  0
  3 88  1  0  0  0
  3 89  1  0  0  0
  4  5  1  0  0  0
  4 90  1  0  0  0
  4 91  1  0  0  0
  5  6  1  0  0  0
  5 26  1  0  0  0
  5 92  1  0  0  0
  6 25  1  0  0  0
  6 93  1  0  0  0
  6 94  1  0  0  0
  7  8  2  0  0  0
  7 26  1  0  0  0
  7 29  1  0  0  0
  8  9  1  0  0  0
  8 22  1  0  0  0
  9 10  1  0  0  0
  9 27  2  0  0  0
 10 11  2  0  0  0
 10 15  1  0  0  0
 11 12  1  0  0  0
 11 95  1  0  0  0
 12 13  2  0  0  0
 12 96  1  0  0  0
 13 14  1  0  0  0
 13 31  1  0  0  0
 14 15  2  0  0  0
 14 97  1  0  0  0
 15 98  1  0  0  0
 16 17  2  0  0  0
 16 21  1  0  0  0
 16 31  1  0  0  0
 17 18  1  0  0  0
 17 99  1  0  0  0
 18 19  2  0  0  0
 18100  1  0  0  0
 19 20  1  0  0  0
 19 24  1  0  0  0
 20 21  2  0  0  0
 20101  1  0  0  0
 21 23  1  0  0  0
 22 28  1  0  0  0
 22 32  2  0  0  0
 26 27  1  0  0  0
 28102  1  0  0  0
 28103  1  0  0  0
 29104  1  0  0  0
 29105  1  0  0  0
 33 34  1  0  0  0
 33 66  1  0  0  0
 33 70  2  0  0  0
 34 36  1  0  0  0
 34 59  1  0  0  0
 34106  1  0  0  0
 35 44  2  0  0  0
 35 45  1  0  0  0
 35 68  1  0  0  0
 36 56  1  0  0  0
 36107  1  0  0  0
 37 39  1  0  0  0
 37 47  1  0  0  0
 37 66  1  0  0  0
 37108  1  0  0  0
 38 43  2  0  0  0
 38 46  1  0  0  0
 38 47  1  0  0  0
 39 64  1  0  0  0
 39 67  2  0  0  0
 40 52  1  0  0  0
 40 53  2  0  0  0
 40 58  1  0  0  0
 41109  1  0  0  0
 41110  1  0  0  0
 41111  1  0  0  0
 41 48  1  0  0  0
 42 43  1  0  0  0
 42 66  1  0  0  0
 42112  1  0  0  0
 42113  1  0  0  0
 43 44  1  0  0  0
 44114  1  0  0  0
 45 46  2  0  0  0
 45115  1  0  0  0
 46116  1  0  0  0
 47117  1  0  0  0
 47118  1  0  0  0
 48 56  1  0  0  0
 48 65  1  0  0  0
 48119  1  0  0  0
 49 50  1  0  0  0
 49 53  1  0  0  0
 49 64  1  0  0  0
 49120  1  0  0  0
 50 51  1  0  0  0
 50121  1  0  0  0
 50122  1  0  0  0
 51 52  1  0  0  0
 51123  1  0  0  0
 51124  1  0  0  0
 52125  1  0  0  0
 52126  1  0  0  0
 53 54  1  0  0  0
 54 55  2  0  0  0
 54127  1  0  0  0
 55 57  1  0  0  0
 55128  1  0  0  0
 56 69  2  0  0  0
 57 58  2  0  0  0
 57129  1  0  0  0
 58130  1  0  0  0
 59 60  1  0  0  0
 59 61  1  0  0  0
 59 62  1  0  0  0
 60131  1  0  0  0
 60132  1  0  0  0
 60133  1  0  0  0
 61134  1  0  0  0
 61135  1  0  0  0
 61136  1  0  0  0
 62137  1  0  0  0
 62138  1  0  0  0
 62139  1  0  0  0
 63 65  1  0  0  0
 63140  1  0  0  0
 63141  1  0  0  0
 63142  1  0  0  0
 64143  1  0  0  0
 65144  1  0  0  0
 68 77  1  0  0  0
 71 72  2  0  0  0
 71 74  1  0  0  0
 71 85  1  0  0  0
 72 79  1  0  0  0
 72 80  1  0  0  0
 73 79  2  0  0  0
 73 81  1  0  0  0
 73 85  1  0  0  0
 74 82  1  0  0  0
 74 83  2  0  0  0
 75 77  1  0  0  0
 75 78  1  0  0  0
 75 84  2  0  0  0
 76145  1  0  0  0
 76146  1  0  0  0
 76147  1  0  0  0
 76 78  1  0  0  0
 77148  1  0  0  0
 77149  1  0  0  0
 78 82  1  0  0  0
 78150  1  0  0  0
 80151  1  0  0  0
 80152  1  0  0  0
 81153  1  0  0  0
 82154  1  0  0  0
 83155  1  0  0  0
 83156  1  0  0  0
M  CHG  1  83   1
M  ISO  4   1 100  68 101  77 101  81 100
M  END
> <chiral flag>
0

> <version>
0

> <s_m_source_file>
/data/baiqing/PycharmProjects/Reinvent-master-3.2/result/LINK_invent/BTK/process_docking_weight1_custom_product_contain_oxygen_bond_distance_aromatic_linkinvent_7_9_3/rearranged_h_0177.sdf

> <i_m_source_file_index>
25

> <r_mmod_Potential_Energy-OPLS-2005>
-265.560791015625

> <r_mmod_Stretch_Energy-OPLS-2005>
39.9741249084473

> <r_mmod_Bend_Energy-OPLS-2005>
104.927062988281

> <r_mmod_Torsional_Energy-OPLS-2005>
241.672332763672

> <r_mmod_Improper_Torsional_Energy-OPLS-2005>
7.70156621932983

> <r_mmod_Van_der_Waal_Energy-OPLS-2005>
129.346710205078

> <r_mmod_Electrostatic_Energy-OPLS-2005>
-284.008880615234

> <r_mmod_Solvation_Energy-OPLS-2005>
-518.4921875

> <b_mmod_Minimization_Converged-OPLS-2005>
0

> <r_mmod_RMS_Derivative-OPLS-2005>
2.1825475692749

$$$$
25
                    3D
 Structure written by MMmdl.
156164  0  0  1  0            999 V2000
  -30.6849  -14.4387   20.6359 C   0  0  0  0  0  0
  -30.4406  -12.2916   19.4301 C   0  0  0  0  0  0
  -29.5104  -12.4768   18.2121 C   0  0  0  0  0  0
  -28.0318  -12.3431   18.6224 C   0  0  0  0  0  0
  -27.6698  -13.1924   19.8704 C   0  0  2  0  0  0
  -28.6967  -12.9420   20.9951 C   0  0  0  0  0  0
  -25.2684  -13.8185   20.5696 C   0  0  0  0  0  0
  -24.1886  -13.0495   20.9210 C   0  0  0  0  0  0
  -24.6387  -11.6926   20.8701 C   0  0  0  0  0  0
  -23.9045  -10.4313   21.0390 C   0  0  0  0  0  0
  -24.3604   -9.4231   21.9180 C   0  0  0  0  0  0
  -23.6276   -8.2280   22.0771 C   0  0  0  0  0  0
  -22.4274   -8.0302   21.3556 C   0  0  0  0  0  0
  -21.9870   -9.0273   20.4680 C   0  0  0  0  0  0
  -22.7208  -10.2145   20.3059 C   0  0  0  0  0  0
  -21.6883   -6.0727   22.5265 C   0  0  0  0  0  0
  -21.4007   -6.5636   23.8180 C   0  0  0  0  0  0
  -21.3633   -5.6784   24.9146 C   0  0  0  0  0  0
  -21.6041   -4.3055   24.7212 C   0  0  0  0  0  0
  -21.8825   -3.8135   23.4333 C   0  0  0  0  0  0
  -21.9194   -4.6941   22.3386 C   0  0  0  0  0  0
  -22.7914  -13.5307   21.1849 C   0  0  0  0  0  0
  -22.1680   -4.2115   21.0971 F   0  0  0  0  0  0
  -21.5602   -3.4545   25.7729 F   0  0  0  0  0  0
  -30.0429  -13.2515   20.4718 N   0  0  0  0  0  0
  -26.3057  -12.9290   20.3273 N   0  0  0  0  0  0
  -25.9292  -11.6475   20.5644 N   0  0  0  0  0  0
  -22.0544  -12.8357   22.0423 N   0  0  0  0  0  0
  -25.4558  -15.1892   20.4165 N   0  0  0  0  0  0
  -31.7501  -14.7155   20.0753 O   0  0  0  0  0  0
  -21.6686   -6.8873   21.4228 O   0  0  0  0  0  0
  -22.3606  -14.5601   20.6645 O   0  0  0  0  0  0
  -24.6124  -31.8716   23.2103 C   0  0  0  0  0  0
  -25.9040  -32.4824   23.8380 C   0  0  1  0  0  0
  -27.2330  -27.4517   20.0895 C   0  0  0  0  0  0
  -25.5920  -33.8623   24.2349 N   0  0  0  0  0  0
  -23.3948  -30.4956   21.5521 C   0  0  2  0  0  0
  -24.8409  -28.9610   20.1110 C   0  0  0  0  0  0
  -22.7370  -29.4689   22.5016 C   0  0  0  0  0  0
  -18.0274  -28.1394   22.8511 C   0  0  0  0  0  0
  -24.1493  -36.7317   23.2622 C   0  0  0  0  0  0
  -25.9182  -30.8440   21.3518 C   0  0  0  0  0  0
  -25.9961  -29.4753   20.7081 C   0  0  0  0  0  0
  -27.1932  -28.7265   20.6974 C   0  0  0  0  0  0
  -26.0613  -26.9512   19.4795 C   0  0  0  0  0  0
  -24.8654  -27.6969   19.4977 C   0  0  0  0  0  0
  -23.5995  -29.8232   20.1668 C   0  0  0  0  0  0
  -25.4097  -36.3111   24.0352 C   0  0  1  0  0  0
  -20.5848  -28.3675   23.1343 C   0  0  2  0  0  0
  -20.6759  -26.9427   22.5408 C   0  0  0  0  0  0
  -19.5720  -26.6423   21.5212 C   0  0  0  0  0  0
  -18.1910  -26.7947   22.1638 C   0  0  0  0  0  0
  -19.1520  -28.8846   23.2928 C   0  0  0  0  0  0
  -18.9442  -30.1454   23.8941 C   0  0  0  0  0  0
  -17.6443  -30.6593   24.0584 C   0  0  0  0  0  0
  -25.9026  -34.9487   23.5141 C   0  0  0  0  0  0
  -16.5339  -29.9094   23.6326 C   0  0  0  0  0  0
  -16.7266  -28.6511   23.0353 C   0  0  0  0  0  0
  -26.4500  -31.6572   25.0676 C   0  0  0  0  0  0
  -25.3796  -31.3682   26.1445 C   0  0  0  0  0  0
  -27.0278  -30.3007   24.5990 C   0  0  0  0  0  0
  -27.6107  -32.4267   25.7405 C   0  0  0  0  0  0
  -27.5600  -37.1781   24.8463 C   0  0  0  0  0  0
  -21.4107  -29.3057   22.3756 N   0  0  0  0  0  0
  -26.4281  -37.3805   23.9452 N   0  0  0  0  0  0
  -24.6603  -31.0829   22.0991 N   0  0  0  0  0  0
  -23.4167  -28.8236   23.3038 O   0  0  0  0  0  0
  -28.4287  -26.7647   20.1097 O   0  0  0  0  0  0
  -26.5570  -34.8953   22.4693 O   0  0  0  0  0  0
  -23.5327  -32.1477   23.7533 O   0  0  0  0  0  0
  -29.1367  -19.3931   21.6241 C   0  0  0  0  0  0
  -28.8189  -18.5262   22.6835 C   0  0  0  0  0  0
  -29.8004  -18.9074   20.4735 C   0  0  0  0  0  0
  -29.8432  -16.6596   21.4749 C   0  0  0  0  0  0
  -29.1825  -17.1714   22.6104 C   0  0  0  0  0  0
  -30.1226  -17.5259   20.3826 C   0  0  0  0  0  0
  -30.3299  -23.5914   20.0717 C   0  0  0  0  0  0
  -29.5781  -22.2595   19.8052 C   0  0  0  0  0  0
  -30.1447  -19.8476   19.3132 C   0  0  0  0  0  0
  -29.5663  -24.7541   20.7155 C   0  0  0  0  0  0
  -28.4473  -25.3581   19.8494 C   0  0  0  0  0  0
  -30.0870  -15.2568   21.5114 N   0  0  0  0  0  0
  -30.4336  -21.2322   19.6937 N   0  0  0  0  0  0
  -31.5363  -23.7084   19.8217 O   0  0  0  0  0  0
  -28.3503  -22.1680   19.7052 O   0  0  0  0  0  0
  -28.8664  -16.3386   23.6345 F   0  0  0  0  0  0
  -30.6521  -17.0486   19.2300 F   0  0  0  0  0  0
  -31.4863  -12.4110   19.1354 H   0  0  0  0  0  0
  -30.3629  -11.2731   19.8168 H   0  0  0  0  0  0
  -29.7477  -11.7346   17.4496 H   0  0  0  0  0  0
  -29.6856  -13.4490   17.7479 H   0  0  0  0  0  0
  -27.8487  -11.2879   18.8347 H   0  0  0  0  0  0
  -27.3864  -12.6039   17.7854 H   0  0  0  0  0  0
  -27.7210  -14.2424   19.5805 H   0  0  0  0  0  0
  -28.6691  -11.9007   21.3185 H   0  0  0  0  0  0
  -28.4179  -13.5061   21.8877 H   0  0  0  0  0  0
  -25.2762   -9.5695   22.4733 H   0  0  0  0  0  0
  -23.9970   -7.4685   22.7520 H   0  0  0  0  0  0
  -21.0774   -8.8800   19.9025 H   0  0  0  0  0  0
  -22.3666  -10.9665   19.6139 H   0  0  0  0  0  0
  -21.2024   -7.6144   23.9685 H   0  0  0  0  0  0
  -21.1446   -6.0515   25.9045 H   0  0  0  0  0  0
  -22.0634   -2.7594   23.2849 H   0  0  0  0  0  0
  -22.4113  -11.9979   22.4787 H   0  0  0  0  0  0
  -21.1192  -13.1426   22.2686 H   0  0  0  0  0  0
  -24.7019  -15.8606   20.5200 H   0  0  0  0  0  0
  -26.3163  -15.6118   20.0860 H   0  0  0  0  0  0
  -26.7115  -32.5562   23.1153 H   0  0  0  0  0  0
  -25.0110  -33.9776   25.0513 H   0  0  0  0  0  0
  -22.6806  -31.3111   21.4133 H   0  0  0  0  0  0
  -23.3760  -35.9640   23.3273 H   0  0  0  0  0  0
  -24.3588  -36.8923   22.2035 H   0  0  0  0  0  0
  -23.7259  -37.6535   23.6619 H   0  0  0  0  0  0
  -26.0025  -31.6036   20.5733 H   0  0  0  0  0  0
  -26.8147  -30.9160   21.9549 H   0  0  0  0  0  0
  -28.0844  -29.1210   21.1657 H   0  0  0  0  0  0
  -26.0485  -25.9951   18.9778 H   0  0  0  0  0  0
  -23.9737  -27.3014   19.0343 H   0  0  0  0  0  0
  -23.6951  -30.5975   19.4051 H   0  0  0  0  0  0
  -22.7240  -29.2370   19.8804 H   0  0  0  0  0  0
  -25.1258  -36.1956   25.0839 H   0  0  0  0  0  0
  -20.9930  -28.3251   24.1467 H   0  0  0  0  0  0
  -20.5678  -26.2286   23.3586 H   0  0  0  0  0  0
  -21.6627  -26.7497   22.1177 H   0  0  0  0  0  0
  -19.6873  -25.6347   21.1202 H   0  0  0  0  0  0
  -19.6644  -27.3282   20.6779 H   0  0  0  0  0  0
  -17.4173  -26.6737   21.4061 H   0  0  0  0  0  0
  -18.0309  -26.0073   22.9010 H   0  0  0  0  0  0
  -19.7917  -30.7272   24.2331 H   0  0  0  0  0  0
  -17.4993  -31.6271   24.5201 H   0  0  0  0  0  0
  -15.5337  -30.3000   23.7629 H   0  0  0  0  0  0
  -15.8676  -28.0843   22.7037 H   0  0  0  0  0  0
  -24.5957  -30.7034   25.7818 H   0  0  0  0  0  0
  -24.8998  -32.2829   26.4925 H   0  0  0  0  0  0
  -25.8168  -30.8843   27.0181 H   0  0  0  0  0  0
  -26.2754  -29.6750   24.1166 H   0  0  0  0  0  0
  -27.4199  -29.7271   25.4403 H   0  0  0  0  0  0
  -27.8538  -30.4332   23.8993 H   0  0  0  0  0  0
  -27.2765  -33.3563   26.2035 H   0  0  0  0  0  0
  -28.3866  -32.6830   25.0174 H   0  0  0  0  0  0
  -28.0821  -31.8340   26.5258 H   0  0  0  0  0  0
  -28.2586  -38.0114   24.7573 H   0  0  0  0  0  0
  -28.1127  -36.2658   24.6176 H   0  0  0  0  0  0
  -27.2333  -37.1295   25.8864 H   0  0  0  0  0  0
  -20.9257  -29.8763   21.6970 H   0  0  0  0  0  0
  -26.0173  -38.2874   24.1495 H   0  0  0  0  0  0
  -28.8438  -20.4298   21.7128 H   0  0  0  0  0  0
  -28.2960  -18.9078   23.5515 H   0  0  0  0  0  0
  -29.3525  -19.8154   18.5648 H   0  0  0  0  0  0
  -31.0436  -19.4717   18.8201 H   0  0  0  0  0  0
  -30.3075  -25.5250   20.9218 H   0  0  0  0  0  0
  -29.1696  -24.4466   21.6831 H   0  0  0  0  0  0
  -27.5152  -24.8650   20.1300 H   0  0  0  0  0  0
  -28.6125  -25.1904   18.7829 H   0  0  0  0  0  0
  -29.4710  -14.7820   22.1529 H   0  0  0  0  0  0
  -31.4094  -21.4899   19.7871 H   0  0  0  0  0  0
  1 25  1  0  0  0
  1 30  2  0  0  0
  1 82  1  0  0  0
  2  3  1  0  0  0
  2 25  1  0  0  0
  2 88  1  0  0  0
  2 89  1  0  0  0
  3  4  1  0  0  0
  3 90  1  0  0  0
  3 91  1  0  0  0
  4  5  1  0  0  0
  4 92  1  0  0  0
  4 93  1  0  0  0
  5  6  1  0  0  0
  5 26  1  0  0  0
  5 94  1  0  0  0
  6 25  1  0  0  0
  6 95  1  0  0  0
  6 96  1  0  0  0
  7  8  2  0  0  0
  7 26  1  0  0  0
  7 29  1  0  0  0
  8  9  1  0  0  0
  8 22  1  0  0  0
  9 10  1  0  0  0
  9 27  2  0  0  0
 10 11  2  0  0  0
 10 15  1  0  0  0
 11 12  1  0  0  0
 11 97  1  0  0  0
 12 13  2  0  0  0
 12 98  1  0  0  0
 13 14  1  0  0  0
 13 31  1  0  0  0
 14 15  2  0  0  0
 14 99  1  0  0  0
 15100  1  0  0  0
 16 17  2  0  0  0
 16 21  1  0  0  0
 16 31  1  0  0  0
 17 18  1  0  0  0
 17101  1  0  0  0
 18 19  2  0  0  0
 18102  1  0  0  0
 19 20  1  0  0  0
 19 24  1  0  0  0
 20 21  2  0  0  0
 20103  1  0  0  0
 21 23  1  0  0  0
 22 28  1  0  0  0
 22 32  2  0  0  0
 26 27  1  0  0  0
 28104  1  0  0  0
 28105  1  0  0  0
 29106  1  0  0  0
 29107  1  0  0  0
 33 34  1  0  0  0
 33 66  1  0  0  0
 33 70  2  0  0  0
 34 36  1  0  0  0
 34 59  1  0  0  0
 34108  1  0  0  0
 35 44  2  0  0  0
 35 45  1  0  0  0
 35 68  1  0  0  0
 36 56  1  0  0  0
 36109  1  0  0  0
 37 39  1  0  0  0
 37 47  1  0  0  0
 37 66  1  0  0  0
 37110  1  0  0  0
 38 43  2  0  0  0
 38 46  1  0  0  0
 38 47  1  0  0  0
 39 64  1  0  0  0
 39 67  2  0  0  0
 40 52  1  0  0  0
 40 53  2  0  0  0
 40 58  1  0  0  0
 41111  1  0  0  0
 41112  1  0  0  0
 41113  1  0  0  0
 41 48  1  0  0  0
 42 43  1  0  0  0
 42 66  1  0  0  0
 42114  1  0  0  0
 42115  1  0  0  0
 43 44  1  0  0  0
 44116  1  0  0  0
 45 46  2  0  0  0
 45117  1  0  0  0
 46118  1  0  0  0
 47119  1  0  0  0
 47120  1  0  0  0
 48 56  1  0  0  0
 48 65  1  0  0  0
 48121  1  0  0  0
 49 50  1  0  0  0
 49 53  1  0  0  0
 49 64  1  0  0  0
 49122  1  0  0  0
 50 51  1  0  0  0
 50123  1  0  0  0
 50124  1  0  0  0
 51 52  1  0  0  0
 51125  1  0  0  0
 51126  1  0  0  0
 52127  1  0  0  0
 52128  1  0  0  0
 53 54  1  0  0  0
 54 55  2  0  0  0
 54129  1  0  0  0
 55 57  1  0  0  0
 55130  1  0  0  0
 56 69  2  0  0  0
 57 58  2  0  0  0
 57131  1  0  0  0
 58132  1  0  0  0
 59 60  1  0  0  0
 59 61  1  0  0  0
 59 62  1  0  0  0
 60133  1  0  0  0
 60134  1  0  0  0
 60135  1  0  0  0
 61136  1  0  0  0
 61137  1  0  0  0
 61138  1  0  0  0
 62139  1  0  0  0
 62140  1  0  0  0
 62141  1  0  0  0
 63 65  1  0  0  0
 63142  1  0  0  0
 63143  1  0  0  0
 63144  1  0  0  0
 64145  1  0  0  0
 65146  1  0  0  0
 68 81  1  0  0  0
 71 72  2  0  0  0
 71 73  1  0  0  0
 71147  1  0  0  0
 72 75  1  0  0  0
 72148  1  0  0  0
 73 76  2  0  0  0
 73 79  1  0  0  0
 74 75  2  0  0  0
 74 76  1  0  0  0
 74 82  1  0  0  0
 75 86  1  0  0  0
 76 87  1  0  0  0
 77 78  1  0  0  0
 77 80  1  0  0  0
 77 84  2  0  0  0
 78 83  1  0  0  0
 78 85  2  0  0  0
 79 83  1  0  0  0
 79149  1  0  0  0
 79150  1  0  0  0
 80 81  1  0  0  0
 80151  1  0  0  0
 80152  1  0  0  0
 81153  1  0  0  0
 81154  1  0  0  0
 82155  1  0  0  0
 83156  1  0  0  0
M  ISO  4   1 100  68 101  81 101  82 100
M  END
> <chiral flag>
0

> <version>
0

> <s_m_source_file>
/data/baiqing/PycharmProjects/Reinvent-master-3.2/result/LINK_invent/BTK/process_docking_weight1_custom_product_contain_oxygen_bond_distance_aromatic_linkinvent_7_9_3/rearranged_h_0177.sdf

> <i_m_source_file_index>
26

> <r_mmod_Potential_Energy-OPLS-2005>
-170.162643432617

> <r_mmod_Stretch_Energy-OPLS-2005>
36.0087242126465

> <r_mmod_Bend_Energy-OPLS-2005>
114.446601867676

> <r_mmod_Torsional_Energy-OPLS-2005>
220.173980712891

> <r_mmod_Improper_Torsional_Energy-OPLS-2005>
4.12323570251465

> <r_mmod_Van_der_Waal_Energy-OPLS-2005>
160.707580566406

> <r_mmod_Electrostatic_Energy-OPLS-2005>
-485.205413818359

> <r_mmod_Solvation_Energy-OPLS-2005>
-231.522369384766

> <b_mmod_Minimization_Converged-OPLS-2005>
0

> <r_mmod_RMS_Derivative-OPLS-2005>
4.95785999298096

$$$$
26
                    3D
 Structure written by MMmdl.
165173  0  0  1  0            999 V2000
  -30.7022  -14.6616   20.2363 C   0  0  0  0  0  0
  -30.4004  -12.3523   19.4414 C   0  0  0  0  0  0
  -29.4774  -12.3928   18.2095 C   0  0  0  0  0  0
  -28.0057  -12.2736   18.6490 C   0  0  0  0  0  0
  -27.6349  -13.1904   19.8480 C   0  0  2  0  0  0
  -28.7149  -13.2156   20.9477 C   0  0  0  0  0  0
  -25.2556  -13.8077   20.5833 C   0  0  0  0  0  0
  -24.1796  -13.0376   20.9279 C   0  0  0  0  0  0
  -24.6358  -11.6851   20.8844 C   0  0  0  0  0  0
  -23.9032  -10.4253   21.0445 C   0  0  0  0  0  0
  -24.3591   -9.4170   21.9205 C   0  0  0  0  0  0
  -23.6268   -8.2207   22.0752 C   0  0  0  0  0  0
  -22.4256   -8.0260   21.3538 C   0  0  0  0  0  0
  -21.9898   -9.0240   20.4643 C   0  0  0  0  0  0
  -22.7223  -10.2118   20.3070 C   0  0  0  0  0  0
  -21.6845   -6.0725   22.5274 C   0  0  0  0  0  0
  -21.4008   -6.5628   23.8206 C   0  0  0  0  0  0
  -21.3659   -5.6782   24.9169 C   0  0  0  0  0  0
  -21.6043   -4.3047   24.7223 C   0  0  0  0  0  0
  -21.8820   -3.8141   23.4346 C   0  0  0  0  0  0
  -21.9192   -4.6955   22.3403 C   0  0  0  0  0  0
  -22.7828  -13.5211   21.1892 C   0  0  0  0  0  0
  -22.1662   -4.2142   21.0981 F   0  0  0  0  0  0
  -21.5628   -3.4528   25.7734 F   0  0  0  0  0  0
  -29.9936  -13.4887   20.2770 N   0  0  0  0  0  0
  -26.2954  -12.9214   20.3490 N   0  0  0  0  0  0
  -25.9290  -11.6406   20.5947 N   0  0  0  0  0  0
  -22.0432  -12.8219   22.0426 N   0  0  0  0  0  0
  -25.4245  -15.1775   20.4299 N   0  0  0  0  0  0
  -31.9043  -14.6553   20.4833 O   0  0  0  0  0  0
  -21.6624   -6.8859   21.4232 O   0  0  0  0  0  0
  -22.3538  -14.5511   20.6720 O   0  0  0  0  0  0
  -24.6196  -31.8644   23.2048 C   0  0  0  0  0  0
  -25.9073  -32.4800   23.8366 C   0  0  1  0  0  0
  -27.2290  -27.3800   20.1028 C   0  0  0  0  0  0
  -25.5917  -33.8607   24.2286 N   0  0  0  0  0  0
  -23.4091  -30.4883   21.5455 C   0  0  2  0  0  0
  -24.8533  -28.9464   20.1079 C   0  0  0  0  0  0
  -22.7432  -29.4648   22.4953 C   0  0  0  0  0  0
  -18.0273  -28.1383   22.8480 C   0  0  0  0  0  0
  -24.1475  -36.7303   23.2634 C   0  0  0  0  0  0
  -25.9421  -30.8119   21.3659 C   0  0  0  0  0  0
  -26.0140  -29.4421   20.7131 C   0  0  0  0  0  0
  -27.1990  -28.6639   20.7109 C   0  0  0  0  0  0
  -26.0477  -26.9160   19.4815 C   0  0  0  0  0  0
  -24.8668  -27.6833   19.4919 C   0  0  0  0  0  0
  -23.6182  -29.8194   20.1594 C   0  0  0  0  0  0
  -25.4103  -36.3101   24.0319 C   0  0  1  0  0  0
  -20.5868  -28.3682   23.1284 C   0  0  2  0  0  0
  -20.6757  -26.9408   22.5412 C   0  0  0  0  0  0
  -19.5739  -26.6381   21.5208 C   0  0  0  0  0  0
  -18.1916  -26.7927   22.1621 C   0  0  0  0  0  0
  -19.1527  -28.8849   23.2876 C   0  0  0  0  0  0
  -18.9469  -30.1453   23.8888 C   0  0  0  0  0  0
  -17.6467  -30.6579   24.0573 C   0  0  0  0  0  0
  -25.9043  -34.9473   23.5098 C   0  0  0  0  0  0
  -16.5351  -29.9092   23.6334 C   0  0  0  0  0  0
  -16.7264  -28.6515   23.0338 C   0  0  0  0  0  0
  -26.4469  -31.6613   25.0730 C   0  0  0  0  0  0
  -25.3711  -31.3746   26.1466 C   0  0  0  0  0  0
  -27.0321  -30.3047   24.6167 C   0  0  0  0  0  0
  -27.6041  -32.4347   25.7499 C   0  0  0  0  0  0
  -27.5563  -37.1804   24.8460 C   0  0  0  0  0  0
  -21.4156  -29.3044   22.3688 N   0  0  0  0  0  0
  -26.4274  -37.3803   23.9410 N   0  0  0  0  0  0
  -24.6752  -31.0711   22.0967 N   0  0  0  0  0  0
  -23.4181  -28.8192   23.3011 O   0  0  0  0  0  0
  -28.3911  -26.6178   20.1710 O   0  0  0  0  0  0
  -26.5614  -34.8946   22.4663 O   0  0  0  0  0  0
  -23.5374  -32.1406   23.7408 O   0  0  0  0  0  0
  -27.4730  -18.8994   19.4378 C   0  0  0  0  0  0
  -28.0836  -16.6127   18.9087 C   0  0  0  0  0  0
  -29.6308  -17.9991   20.1823 C   0  0  0  0  0  0
  -28.7320  -19.1198   20.0426 C   0  0  0  0  0  0
  -29.3046  -16.7080   19.6151 C   0  0  0  0  0  0
  -27.1570  -17.6621   18.8679 C   0  0  0  0  0  0
  -28.8019  -22.8504   20.0072 C   0  0  0  0  0  0
  -28.1398  -24.0459   20.1134 C   0  0  0  0  0  0
  -28.3137  -21.5611   20.5368 C   0  0  0  0  0  0
  -30.9803  -18.2399   20.8420 C   0  0  0  0  0  0
  -31.1414  -17.2466   17.5185 C   0  0  0  0  0  0
  -32.2046  -15.0043   17.6784 C   0  0  0  0  0  0
  -28.5549  -25.3765   19.4286 C   0  0  0  0  0  0
  -30.8997  -15.7853   17.9780 C   0  0  0  0  0  0
  -29.1281  -20.4942   20.3026 N   0  0  0  0  0  0
  -30.2617  -15.6373   19.3441 N   0  0  0  0  0  0
  -27.2450  -21.4372   21.1437 O   0  0  0  0  0  0
  -26.9980  -24.2086   20.8022 O   0  0  0  0  0  0
  -25.9898  -17.5048   18.2020 F   0  0  0  0  0  0
  -31.4521  -12.3949   19.1597 H   0  0  0  0  0  0
  -30.2805  -11.4109   19.9807 H   0  0  0  0  0  0
  -29.7277  -11.5830   17.5245 H   0  0  0  0  0  0
  -29.6167  -13.3095   17.6451 H   0  0  0  0  0  0
  -27.8426  -11.2329   18.9282 H   0  0  0  0  0  0
  -27.3421  -12.4661   17.8044 H   0  0  0  0  0  0
  -27.5959  -14.1841   19.4504 H   0  0  0  0  0  0
  -28.7506  -12.2712   21.4924 H   0  0  0  0  0  0
  -28.4956  -13.9955   21.6782 H   0  0  0  0  0  0
  -25.2725   -9.5627   22.4805 H   0  0  0  0  0  0
  -23.9959   -7.4587   22.7469 H   0  0  0  0  0  0
  -21.0832   -8.8786   19.8943 H   0  0  0  0  0  0
  -22.3701  -10.9683   19.6196 H   0  0  0  0  0  0
  -21.2000   -7.6133   23.9707 H   0  0  0  0  0  0
  -21.1479   -6.0510   25.9070 H   0  0  0  0  0  0
  -22.0607   -2.7605   23.2848 H   0  0  0  0  0  0
  -22.4025  -11.9887   22.4846 H   0  0  0  0  0  0
  -21.1052  -13.1270   22.2603 H   0  0  0  0  0  0
  -24.6479  -15.8233   20.5160 H   0  0  0  0  0  0
  -26.2765  -15.6221   20.1205 H   0  0  0  0  0  0
  -26.7138  -32.5479   23.1121 H   0  0  0  0  0  0
  -25.0088  -33.9776   25.0440 H   0  0  0  0  0  0
  -22.6983  -31.3058   21.4019 H   0  0  0  0  0  0
  -23.3744  -35.9627   23.3306 H   0  0  0  0  0  0
  -24.3545  -36.8916   22.2042 H   0  0  0  0  0  0
  -23.7247  -37.6507   23.6664 H   0  0  0  0  0  0
  -26.0638  -31.5780   20.5978 H   0  0  0  0  0  0
  -26.8272  -30.8625   21.9897 H   0  0  0  0  0  0
  -28.0901  -29.0413   21.1925 H   0  0  0  0  0  0
  -26.0075  -25.9440   19.0125 H   0  0  0  0  0  0
  -23.9721  -27.2907   19.0290 H   0  0  0  0  0  0
  -23.7284  -30.5939   19.3993 H   0  0  0  0  0  0
  -22.7399  -29.2423   19.8646 H   0  0  0  0  0  0
  -25.1291  -36.1936   25.0812 H   0  0  0  0  0  0
  -20.9955  -28.3258   24.1408 H   0  0  0  0  0  0
  -20.5632  -26.2313   23.3615 H   0  0  0  0  0  0
  -21.6630  -26.7424   22.1219 H   0  0  0  0  0  0
  -19.6904  -25.6295   21.1236 H   0  0  0  0  0  0
  -19.6668  -27.3202   20.6742 H   0  0  0  0  0  0
  -17.4183  -26.6670   21.4019 H   0  0  0  0  0  0
  -18.0299  -26.0065   22.9018 H   0  0  0  0  0  0
  -19.7950  -30.7277   24.2218 H   0  0  0  0  0  0
  -17.5036  -31.6251   24.5206 H   0  0  0  0  0  0
  -15.5358  -30.3007   23.7659 H   0  0  0  0  0  0
  -15.8660  -28.0853   22.7030 H   0  0  0  0  0  0
  -24.5868  -30.7117   25.7787 H   0  0  0  0  0  0
  -24.8917  -32.2914   26.4912 H   0  0  0  0  0  0
  -25.8024  -30.8897   27.0235 H   0  0  0  0  0  0
  -26.2885  -29.6799   24.1206 H   0  0  0  0  0  0
  -27.4045  -29.7313   25.4673 H   0  0  0  0  0  0
  -27.8746  -30.4339   23.9369 H   0  0  0  0  0  0
  -27.2641  -33.3639   26.2092 H   0  0  0  0  0  0
  -28.3840  -32.6927   25.0319 H   0  0  0  0  0  0
  -28.0737  -31.8472   26.5403 H   0  0  0  0  0  0
  -28.2600  -38.0086   24.7509 H   0  0  0  0  0  0
  -28.1042  -36.2624   24.6279 H   0  0  0  0  0  0
  -27.2272  -37.1440   25.8860 H   0  0  0  0  0  0
  -20.9312  -29.8812   21.6950 H   0  0  0  0  0  0
  -26.0147  -38.2867   24.1447 H   0  0  0  0  0  0
  -26.7624  -19.7004   19.3010 H   0  0  0  0  0  0
  -27.8723  -15.7607   18.2854 H   0  0  0  0  0  0
  -29.7287  -22.8440   19.4495 H   0  0  0  0  0  0
  -31.5664  -18.9606   20.2720 H   0  0  0  0  0  0
  -31.5731  -17.3335   20.9372 H   0  0  0  0  0  0
  -30.8357  -18.6432   21.8438 H   0  0  0  0  0  0
  -31.5724  -17.2746   16.5177 H   0  0  0  0  0  0
  -31.8399  -17.7671   18.1725 H   0  0  0  0  0  0
  -30.2250  -17.8343   17.4547 H   0  0  0  0  0  0
  -32.4976  -15.1297   16.6358 H   0  0  0  0  0  0
  -32.1079  -13.9339   17.8245 H   0  0  0  0  0  0
  -33.0403  -15.3614   18.2821 H   0  0  0  0  0  0
  -28.0804  -25.4405   18.4490 H   0  0  0  0  0  0
  -29.6201  -25.3003   19.2089 H   0  0  0  0  0  0
  -30.1571  -15.3942   17.2826 H   0  0  0  0  0  0
  -30.0811  -20.7219   20.0563 H   0  0  0  0  0  0
  -26.7584  -23.3579   21.1591 H   0  0  0  0  0  0
  1 25  1  0  0  0
  1 30  2  0  0  0
  1 86  1  0  0  0
  2  3  1  0  0  0
  2 25  1  0  0  0
  2 90  1  0  0  0
  2 91  1  0  0  0
  3  4  1  0  0  0
  3 92  1  0  0  0
  3 93  1  0  0  0
  4  5  1  0  0  0
  4 94  1  0  0  0
  4 95  1  0  0  0
  5  6  1  0  0  0
  5 26  1  0  0  0
  5 96  1  0  0  0
  6 25  1  0  0  0
  6 97  1  0  0  0
  6 98  1  0  0  0
  7  8  2  0  0  0
  7 26  1  0  0  0
  7 29  1  0  0  0
  8  9  1  0  0  0
  8 22  1  0  0  0
  9 10  1  0  0  0
  9 27  2  0  0  0
 10 11  2  0  0  0
 10 15  1  0  0  0
 11 12  1  0  0  0
 11 99  1  0  0  0
 12 13  2  0  0  0
 12100  1  0  0  0
 13 14  1  0  0  0
 13 31  1  0  0  0
 14 15  2  0  0  0
 14101  1  0  0  0
 15102  1  0  0  0
 16 17  2  0  0  0
 16 21  1  0  0  0
 16 31  1  0  0  0
 17 18  1  0  0  0
 17103  1  0  0  0
 18 19  2  0  0  0
 18104  1  0  0  0
 19 20  1  0  0  0
 19 24  1  0  0  0
 20 21  2  0  0  0
 20105  1  0  0  0
 21 23  1  0  0  0
 22 28  1  0  0  0
 22 32  2  0  0  0
 26 27  1  0  0  0
 28106  1  0  0  0
 28107  1  0  0  0
 29108  1  0  0  0
 29109  1  0  0  0
 33 34  1  0  0  0
 33 66  1  0  0  0
 33 70  2  0  0  0
 34 36  1  0  0  0
 34 59  1  0  0  0
 34110  1  0  0  0
 35 44  2  0  0  0
 35 45  1  0  0  0
 35 68  1  0  0  0
 36 56  1  0  0  0
 36111  1  0  0  0
 37 39  1  0  0  0
 37 47  1  0  0  0
 37 66  1  0  0  0
 37112  1  0  0  0
 38 43  2  0  0  0
 38 46  1  0  0  0
 38 47  1  0  0  0
 39 64  1  0  0  0
 39 67  2  0  0  0
 40 52  1  0  0  0
 40 53  2  0  0  0
 40 58  1  0  0  0
 41113  1  0  0  0
 41114  1  0  0  0
 41115  1  0  0  0
 41 48  1  0  0  0
 42 43  1  0  0  0
 42 66  1  0  0  0
 42116  1  0  0  0
 42117  1  0  0  0
 43 44  1  0  0  0
 44118  1  0  0  0
 45 46  2  0  0  0
 45119  1  0  0  0
 46120  1  0  0  0
 47121  1  0  0  0
 47122  1  0  0  0
 48 56  1  0  0  0
 48 65  1  0  0  0
 48123  1  0  0  0
 49 50  1  0  0  0
 49 53  1  0  0  0
 49 64  1  0  0  0
 49124  1  0  0  0
 50 51  1  0  0  0
 50125  1  0  0  0
 50126  1  0  0  0
 51 52  1  0  0  0
 51127  1  0  0  0
 51128  1  0  0  0
 52129  1  0  0  0
 52130  1  0  0  0
 53 54  1  0  0  0
 54 55  2  0  0  0
 54131  1  0  0  0
 55 57  1  0  0  0
 55132  1  0  0  0
 56 69  2  0  0  0
 57 58  2  0  0  0
 57133  1  0  0  0
 58134  1  0  0  0
 59 60  1  0  0  0
 59 61  1  0  0  0
 59 62  1  0  0  0
 60135  1  0  0  0
 60136  1  0  0  0
 60137  1  0  0  0
 61138  1  0  0  0
 61139  1  0  0  0
 61140  1  0  0  0
 62141  1  0  0  0
 62142  1  0  0  0
 62143  1  0  0  0
 63 65  1  0  0  0
 63144  1  0  0  0
 63145  1  0  0  0
 63146  1  0  0  0
 64147  1  0  0  0
 65148  1  0  0  0
 68 83  1  0  0  0
 71 74  2  0  0  0
 71 76  1  0  0  0
 71149  1  0  0  0
 72 75  1  0  0  0
 72 76  2  0  0  0
 72150  1  0  0  0
 73 74  1  0  0  0
 73 75  2  0  0  0
 73 80  1  0  0  0
 74 85  1  0  0  0
 75 86  1  0  0  0
 76 89  1  0  0  0
 77 78  2  0  0  0
 77 79  1  0  0  0
 77151  1  0  0  0
 78 83  1  0  0  0
 78 88  1  0  0  0
 79 85  1  0  0  0
 79 87  2  0  0  0
 80152  1  0  0  0
 80153  1  0  0  0
 80154  1  0  0  0
 81155  1  0  0  0
 81156  1  0  0  0
 81157  1  0  0  0
 81 84  1  0  0  0
 82 84  1  0  0  0
 82158  1  0  0  0
 82159  1  0  0  0
 82160  1  0  0  0
 83161  1  0  0  0
 83162  1  0  0  0
 84 86  1  0  0  0
 84163  1  0  0  0
 85164  1  0  0  0
 88165  1  0  0  0
M  ISO  4   1 100  68 101  83 101  86 100
M  END
> <chiral flag>
0

> <version>
0

> <s_m_source_file>
/data/baiqing/PycharmProjects/Reinvent-master-3.2/result/LINK_invent/BTK/process_docking_weight1_custom_product_contain_oxygen_bond_distance_aromatic_linkinvent_7_9_3/rearranged_h_0177.sdf

> <i_m_source_file_index>
27

> <r_mmod_Potential_Energy-OPLS-2005>
399.006683349609

> <r_mmod_Stretch_Energy-OPLS-2005>
75.564453125

> <r_mmod_Bend_Energy-OPLS-2005>
157.405258178711

> <r_mmod_Torsional_Energy-OPLS-2005>
366.185028076172

> <r_mmod_Improper_Torsional_Energy-OPLS-2005>
29.2256965637207

> <r_mmod_Van_der_Waal_Energy-OPLS-2005>
162.910415649414

> <r_mmod_Electrostatic_Energy-OPLS-2005>
-268.471282958984

> <r_mmod_Solvation_Energy-OPLS-2005>
-210.173858642578

> <b_mmod_Minimization_Converged-OPLS-2005>
0

> <r_mmod_RMS_Derivative-OPLS-2005>
2.08255791664124

$$$$
27
                    3D
 Structure written by MMmdl.
167175  0  0  1  0            999 V2000
  -30.7329  -14.4078   20.6827 C   0  0  0  0  0  0
  -30.4334  -12.3075   19.3996 C   0  0  0  0  0  0
  -29.4939  -12.5287   18.1974 C   0  0  0  0  0  0
  -28.0192  -12.3738   18.6132 C   0  0  0  0  0  0
  -27.6716  -13.1976   19.8797 C   0  0  2  0  0  0
  -28.7098  -12.9316   20.9933 C   0  0  0  0  0  0
  -25.2651  -13.8148   20.5682 C   0  0  0  0  0  0
  -24.1872  -13.0453   20.9177 C   0  0  0  0  0  0
  -24.6393  -11.6916   20.8718 C   0  0  0  0  0  0
  -23.9043  -10.4308   21.0394 C   0  0  0  0  0  0
  -24.3594   -9.4227   21.9177 C   0  0  0  0  0  0
  -23.6275   -8.2258   22.0753 C   0  0  0  0  0  0
  -22.4261   -8.0290   21.3548 C   0  0  0  0  0  0
  -21.9892   -9.0264   20.4650 C   0  0  0  0  0  0
  -22.7215  -10.2144   20.3052 C   0  0  0  0  0  0
  -21.6855   -6.0736   22.5275 C   0  0  0  0  0  0
  -21.4010   -6.5634   23.8209 C   0  0  0  0  0  0
  -21.3663   -5.6784   24.9171 C   0  0  0  0  0  0
  -21.6049   -4.3048   24.7223 C   0  0  0  0  0  0
  -21.8817   -3.8147   23.4343 C   0  0  0  0  0  0
  -21.9194   -4.6962   22.3401 C   0  0  0  0  0  0
  -22.7894  -13.5275   21.1839 C   0  0  0  0  0  0
  -22.1664   -4.2149   21.0977 F   0  0  0  0  0  0
  -21.5630   -3.4534   25.7736 F   0  0  0  0  0  0
  -30.0582  -13.2432   20.4710 N   0  0  0  0  0  0
  -26.3077  -12.9295   20.3350 N   0  0  0  0  0  0
  -25.9315  -11.6468   20.5723 N   0  0  0  0  0  0
  -22.0509  -12.8280   22.0381 N   0  0  0  0  0  0
  -25.4414  -15.1860   20.4105 N   0  0  0  0  0  0
  -31.7336  -14.7402   20.0381 O   0  0  0  0  0  0
  -21.6642   -6.8879   21.4240 O   0  0  0  0  0  0
  -22.3590  -14.5600   20.6704 O   0  0  0  0  0  0
  -24.6150  -31.8677   23.2114 C   0  0  0  0  0  0
  -25.9044  -32.4816   23.8406 C   0  0  1  0  0  0
  -27.2343  -27.4206   20.0774 C   0  0  0  0  0  0
  -25.5887  -33.8618   24.2326 N   0  0  0  0  0  0
  -23.4026  -30.4933   21.5522 C   0  0  2  0  0  0
  -24.8479  -28.9620   20.1153 C   0  0  0  0  0  0
  -22.7415  -29.4647   22.4984 C   0  0  0  0  0  0
  -18.0272  -28.1376   22.8494 C   0  0  0  0  0  0
  -24.1465  -36.7306   23.2639 C   0  0  0  0  0  0
  -25.9348  -30.8247   21.3699 C   0  0  0  0  0  0
  -26.0092  -29.4579   20.7181 C   0  0  0  0  0  0
  -27.1999  -28.6904   20.7066 C   0  0  0  0  0  0
  -26.0457  -26.9527   19.4626 C   0  0  0  0  0  0
  -24.8610  -27.7074   19.4898 C   0  0  0  0  0  0
  -23.6113  -29.8297   20.1661 C   0  0  0  0  0  0
  -25.4089  -36.3098   24.0333 C   0  0  1  0  0  0
  -20.5863  -28.3651   23.1317 C   0  0  2  0  0  0
  -20.6750  -26.9385   22.5419 C   0  0  0  0  0  0
  -19.5729  -26.6383   21.5206 C   0  0  0  0  0  0
  -18.1914  -26.7923   22.1626 C   0  0  0  0  0  0
  -19.1525  -28.8831   23.2905 C   0  0  0  0  0  0
  -18.9456  -30.1437   23.8919 C   0  0  0  0  0  0
  -17.6459  -30.6581   24.0566 C   0  0  0  0  0  0
  -25.9025  -34.9467   23.5124 C   0  0  0  0  0  0
  -16.5348  -29.9088   23.6325 C   0  0  0  0  0  0
  -16.7263  -28.6502   23.0350 C   0  0  0  0  0  0
  -26.4474  -31.6606   25.0740 C   0  0  0  0  0  0
  -25.3744  -31.3721   26.1491 C   0  0  0  0  0  0
  -27.0303  -30.3046   24.6124 C   0  0  0  0  0  0
  -27.6040  -32.4332   25.7507 C   0  0  0  0  0  0
  -27.5561  -37.1800   24.8467 C   0  0  0  0  0  0
  -21.4142  -29.3019   22.3725 N   0  0  0  0  0  0
  -26.4268  -37.3790   23.9416 N   0  0  0  0  0  0
  -24.6688  -31.0770   22.1021 N   0  0  0  0  0  0
  -23.4190  -28.8178   23.3013 O   0  0  0  0  0  0
  -28.4105  -26.6831   20.0939 O   0  0  0  0  0  0
  -26.5596  -34.8921   22.4690 O   0  0  0  0  0  0
  -23.5339  -32.1433   23.7504 O   0  0  0  0  0  0
  -28.6570  -18.5349   22.3469 C   0  0  0  0  0  0
  -29.8357  -18.7164   21.6459 C   0  0  0  0  0  0
  -29.8478  -16.4452   21.7775 C   0  0  0  0  0  0
  -30.4683  -22.3488   20.8783 C   0  0  0  0  0  0
  -29.9387  -20.9242   20.5461 C   0  0  0  0  0  0
  -26.1778  -19.3169   20.8609 C   0  0  0  0  0  0
  -28.3481  -20.4939   23.9437 C   0  0  0  0  0  0
  -30.9650  -25.3899   19.8038 C   0  0  0  0  0  0
  -29.4653  -23.5189   20.7879 C   0  0  0  0  0  0
  -26.7620  -20.2344   21.9462 C   0  0  0  0  0  0
  -28.4415  -25.4293   19.3825 C   0  0  0  0  0  0
  -27.6890  -19.5211   22.9523 C   0  0  1  0  0  0
  -29.6933  -24.5397   19.6360 C   0  0  1  0  0  0
  -30.5257  -17.5222   21.3454 N   0  0  0  0  0  0
  -30.3872  -20.0028   21.4169 N   0  0  0  0  0  0
  -30.2893  -15.0984   21.7414 N   0  0  0  0  0  0
  -31.6241  -22.5327   21.2775 O   0  0  0  0  0  0
  -29.2017  -20.6909   19.5824 O   0  0  0  0  0  0
  -29.8700  -23.8342   18.5160 F   0  0  0  0  0  0
  -28.3368  -16.8346   22.5763 S   0  0  0  0  0  0
  -31.4746  -12.4260   19.0939 H   0  0  0  0  0  0
  -30.3477  -11.2822   19.7617 H   0  0  0  0  0  0
  -29.7305  -11.8235   17.4000 H   0  0  0  0  0  0
  -29.6569  -13.5241   17.7823 H   0  0  0  0  0  0
  -27.8342  -11.3152   18.8006 H   0  0  0  0  0  0
  -27.3640  -12.6545   17.7875 H   0  0  0  0  0  0
  -27.7325  -14.2511   19.6068 H   0  0  0  0  0  0
  -28.6785  -11.8825   21.2909 H   0  0  0  0  0  0
  -28.4374  -13.4853   21.8919 H   0  0  0  0  0  0
  -25.2732   -9.5712   22.4753 H   0  0  0  0  0  0
  -23.9997   -7.4653   22.7470 H   0  0  0  0  0  0
  -21.0825   -8.8776   19.8955 H   0  0  0  0  0  0
  -22.3667  -10.9679   19.6162 H   0  0  0  0  0  0
  -21.1994   -7.6140   23.9708 H   0  0  0  0  0  0
  -21.1484   -6.0515   25.9069 H   0  0  0  0  0  0
  -22.0591   -2.7609   23.2841 H   0  0  0  0  0  0
  -22.4098  -11.9938   22.4782 H   0  0  0  0  0  0
  -21.1130  -13.1333   22.2564 H   0  0  0  0  0  0
  -24.6840  -15.8474   20.5346 H   0  0  0  0  0  0
  -26.2944  -15.6190   20.0806 H   0  0  0  0  0  0
  -26.7112  -32.5524   23.1168 H   0  0  0  0  0  0
  -25.0009  -33.9791   25.0450 H   0  0  0  0  0  0
  -22.6896  -31.3085   21.4148 H   0  0  0  0  0  0
  -23.3718  -35.9648   23.3317 H   0  0  0  0  0  0
  -24.3556  -36.8915   22.2052 H   0  0  0  0  0  0
  -23.7234  -37.6516   23.6658 H   0  0  0  0  0  0
  -26.0486  -31.5872   20.5983 H   0  0  0  0  0  0
  -26.8229  -30.8813   21.9872 H   0  0  0  0  0  0
  -28.0939  -29.0681   21.1826 H   0  0  0  0  0  0
  -25.9898  -26.0080   18.9449 H   0  0  0  0  0  0
  -23.9685  -27.3229   19.0163 H   0  0  0  0  0  0
  -23.7213  -30.6042   19.4067 H   0  0  0  0  0  0
  -22.7358  -29.2497   19.8690 H   0  0  0  0  0  0
  -25.1261  -36.1948   25.0825 H   0  0  0  0  0  0
  -20.9966  -28.3212   24.1430 H   0  0  0  0  0  0
  -20.5632  -26.2253   23.3603 H   0  0  0  0  0  0
  -21.6621  -26.7410   22.1220 H   0  0  0  0  0  0
  -19.6880  -25.6299   21.1219 H   0  0  0  0  0  0
  -19.6670  -27.3205   20.6746 H   0  0  0  0  0  0
  -17.4175  -26.6670   21.4038 H   0  0  0  0  0  0
  -18.0325  -26.0070   22.9030 H   0  0  0  0  0  0
  -19.7933  -30.7242   24.2306 H   0  0  0  0  0  0
  -17.5019  -31.6266   24.5161 H   0  0  0  0  0  0
  -15.5355  -30.2996   23.7644 H   0  0  0  0  0  0
  -15.8659  -28.0830   22.7061 H   0  0  0  0  0  0
  -24.5910  -30.7070   25.7844 H   0  0  0  0  0  0
  -24.8944  -32.2883   26.4944 H   0  0  0  0  0  0
  -25.8103  -30.8898   27.0250 H   0  0  0  0  0  0
  -26.2850  -29.6817   24.1166 H   0  0  0  0  0  0
  -27.4053  -29.7275   25.4588 H   0  0  0  0  0  0
  -27.8695  -30.4362   23.9288 H   0  0  0  0  0  0
  -27.2646  -33.3616   26.2117 H   0  0  0  0  0  0
  -28.3840  -32.6926   25.0335 H   0  0  0  0  0  0
  -28.0722  -31.8445   26.5409 H   0  0  0  0  0  0
  -28.2584  -38.0089   24.7498 H   0  0  0  0  0  0
  -28.1041  -36.2619   24.6292 H   0  0  0  0  0  0
  -27.2288  -37.1460   25.8874 H   0  0  0  0  0  0
  -20.9290  -29.8756   21.6968 H   0  0  0  0  0  0
  -26.0143  -38.2853   24.1449 H   0  0  0  0  0  0
  -25.4972  -19.8695   20.2128 H   0  0  0  0  0  0
  -25.6201  -18.4896   21.3009 H   0  0  0  0  0  0
  -26.9560  -18.8948   20.2233 H   0  0  0  0  0  0
  -28.8941  -19.9519   24.7169 H   0  0  0  0  0  0
  -27.6010  -21.1067   24.4486 H   0  0  0  0  0  0
  -29.0482  -21.1725   23.4582 H   0  0  0  0  0  0
  -30.9362  -25.9641   20.7308 H   0  0  0  0  0  0
  -31.0719  -26.0965   18.9806 H   0  0  0  0  0  0
  -31.8644  -24.7743   19.8211 H   0  0  0  0  0  0
  -29.4565  -24.0412   21.7439 H   0  0  0  0  0  0
  -28.4727  -23.0809   20.6843 H   0  0  0  0  0  0
  -25.9452  -20.7124   22.4894 H   0  0  0  0  0  0
  -27.2951  -21.0476   21.4591 H   0  0  0  0  0  0
  -27.5672  -24.8200   19.6121 H   0  0  0  0  0  0
  -28.3879  -25.6703   18.3191 H   0  0  0  0  0  0
  -27.0085  -18.9296   23.5674 H   0  0  0  0  0  0
  -31.0609  -20.3400   22.0901 H   0  0  0  0  0  0
  -29.7200  -14.5047   22.3233 H   0  0  0  0  0  0
  1 25  1  0  0  0
  1 30  2  0  0  0
  1 86  1  0  0  0
  2  3  1  0  0  0
  2 25  1  0  0  0
  2 91  1  0  0  0
  2 92  1  0  0  0
  3  4  1  0  0  0
  3 93  1  0  0  0
  3 94  1  0  0  0
  4  5  1  0  0  0
  4 95  1  0  0  0
  4 96  1  0  0  0
  5  6  1  0  0  0
  5 26  1  0  0  0
  5 97  1  0  0  0
  6 25  1  0  0  0
  6 98  1  0  0  0
  6 99  1  0  0  0
  7  8  2  0  0  0
  7 26  1  0  0  0
  7 29  1  0  0  0
  8  9  1  0  0  0
  8 22  1  0  0  0
  9 10  1  0  0  0
  9 27  2  0  0  0
 10 11  2  0  0  0
 10 15  1  0  0  0
 11 12  1  0  0  0
 11100  1  0  0  0
 12 13  2  0  0  0
 12101  1  0  0  0
 13 14  1  0  0  0
 13 31  1  0  0  0
 14 15  2  0  0  0
 14102  1  0  0  0
 15103  1  0  0  0
 16 17  2  0  0  0
 16 21  1  0  0  0
 16 31  1  0  0  0
 17 18  1  0  0  0
 17104  1  0  0  0
 18 19  2  0  0  0
 18105  1  0  0  0
 19 20  1  0  0  0
 19 24  1  0  0  0
 20 21  2  0  0  0
 20106  1  0  0  0
 21 23  1  0  0  0
 22 28  1  0  0  0
 22 32  2  0  0  0
 26 27  1  0  0  0
 28107  1  0  0  0
 28108  1  0  0  0
 29109  1  0  0  0
 29110  1  0  0  0
 33 34  1  0  0  0
 33 66  1  0  0  0
 33 70  2  0  0  0
 34 36  1  0  0  0
 34 59  1  0  0  0
 34111  1  0  0  0
 35 44  2  0  0  0
 35 45  1  0  0  0
 35 68  1  0  0  0
 36 56  1  0  0  0
 36112  1  0  0  0
 37 39  1  0  0  0
 37 47  1  0  0  0
 37 66  1  0  0  0
 37113  1  0  0  0
 38 43  2  0  0  0
 38 46  1  0  0  0
 38 47  1  0  0  0
 39 64  1  0  0  0
 39 67  2  0  0  0
 40 52  1  0  0  0
 40 53  2  0  0  0
 40 58  1  0  0  0
 41114  1  0  0  0
 41115  1  0  0  0
 41116  1  0  0  0
 41 48  1  0  0  0
 42 43  1  0  0  0
 42 66  1  0  0  0
 42117  1  0  0  0
 42118  1  0  0  0
 43 44  1  0  0  0
 44119  1  0  0  0
 45 46  2  0  0  0
 45120  1  0  0  0
 46121  1  0  0  0
 47122  1  0  0  0
 47123  1  0  0  0
 48 56  1  0  0  0
 48 65  1  0  0  0
 48124  1  0  0  0
 49 50  1  0  0  0
 49 53  1  0  0  0
 49 64  1  0  0  0
 49125  1  0  0  0
 50 51  1  0  0  0
 50126  1  0  0  0
 50127  1  0  0  0
 51 52  1  0  0  0
 51128  1  0  0  0
 51129  1  0  0  0
 52130  1  0  0  0
 52131  1  0  0  0
 53 54  1  0  0  0
 54 55  2  0  0  0
 54132  1  0  0  0
 55 57  1  0  0  0
 55133  1  0  0  0
 56 69  2  0  0  0
 57 58  2  0  0  0
 57134  1  0  0  0
 58135  1  0  0  0
 59 60  1  0  0  0
 59 61  1  0  0  0
 59 62  1  0  0  0
 60136  1  0  0  0
 60137  1  0  0  0
 60138  1  0  0  0
 61139  1  0  0  0
 61140  1  0  0  0
 61141  1  0  0  0
 62142  1  0  0  0
 62143  1  0  0  0
 62144  1  0  0  0
 63 65  1  0  0  0
 63145  1  0  0  0
 63146  1  0  0  0
 63147  1  0  0  0
 64148  1  0  0  0
 65149  1  0  0  0
 68 81  1  0  0  0
 71 72  2  0  0  0
 71 82  1  0  0  0
 71 90  1  0  0  0
 72 84  1  0  0  0
 72 85  1  0  0  0
 73 84  2  0  0  0
 73 86  1  0  0  0
 73 90  1  0  0  0
 74 75  1  0  0  0
 74 79  1  0  0  0
 74 87  2  0  0  0
 75 85  1  0  0  0
 75 88  2  0  0  0
 76 80  1  0  0  0
 76150  1  0  0  0
 76151  1  0  0  0
 76152  1  0  0  0
 77153  1  0  0  0
 77154  1  0  0  0
 77155  1  0  0  0
 77 82  1  0  0  0
 78156  1  0  0  0
 78157  1  0  0  0
 78158  1  0  0  0
 78 83  1  0  0  0
 79 83  1  0  0  0
 79159  1  0  0  0
 79160  1  0  0  0
 80 82  1  0  0  0
 80161  1  0  0  0
 80162  1  0  0  0
 81 83  1  0  0  0
 81163  1  0  0  0
 81164  1  0  0  0
 82165  1  0  0  0
 83 89  1  0  0  0
 85166  1  0  0  0
 86167  1  0  0  0
M  ISO  4   1 100  68 101  81 101  86 100
M  END
> <chiral flag>
0

> <version>
0

> <s_m_source_file>
/data/baiqing/PycharmProjects/Reinvent-master-3.2/result/LINK_invent/BTK/process_docking_weight1_custom_product_contain_oxygen_bond_distance_aromatic_linkinvent_7_9_3/rearranged_h_0177.sdf

> <i_m_source_file_index>
28

> <r_mmod_Potential_Energy-OPLS-2005>
-145.333953857422

> <r_mmod_Stretch_Energy-OPLS-2005>
39.4635734558105

> <r_mmod_Bend_Energy-OPLS-2005>
123.163146972656

> <r_mmod_Torsional_Energy-OPLS-2005>
238.163238525391

> <r_mmod_Improper_Torsional_Energy-OPLS-2005>
8.25959300994873

> <r_mmod_Van_der_Waal_Energy-OPLS-2005>
117.200790405273

> <r_mmod_Electrostatic_Energy-OPLS-2005>
-443.146392822266

> <r_mmod_Solvation_Energy-OPLS-2005>
-239.590942382812

> <b_mmod_Minimization_Converged-OPLS-2005>
0

> <r_mmod_RMS_Derivative-OPLS-2005>
1.67894947528839

$$$$
28
                    3D
 Structure written by MMmdl.
168177  0  0  1  0            999 V2000
  -30.6651  -14.5288   20.5531 C   0  0  0  0  0  0
  -30.4320  -12.3330   19.4358 C   0  0  0  0  0  0
  -29.5021  -12.5062   18.2153 C   0  0  0  0  0  0
  -28.0228  -12.3582   18.6247 C   0  0  0  0  0  0
  -27.6600  -13.2067   19.8720 C   0  0  2  0  0  0
  -28.7009  -13.0027   20.9969 C   0  0  0  0  0  0
  -25.2586  -13.8155   20.5677 C   0  0  0  0  0  0
  -24.1837  -13.0437   20.9185 C   0  0  0  0  0  0
  -24.6386  -11.6902   20.8731 C   0  0  0  0  0  0
  -23.9054  -10.4288   21.0399 C   0  0  0  0  0  0
  -24.3605   -9.4205   21.9178 C   0  0  0  0  0  0
  -23.6280   -8.2243   22.0755 C   0  0  0  0  0  0
  -22.4263   -8.0278   21.3549 C   0  0  0  0  0  0
  -21.9895   -9.0251   20.4653 C   0  0  0  0  0  0
  -22.7223  -10.2129   20.3054 C   0  0  0  0  0  0
  -21.6852   -6.0728   22.5277 C   0  0  0  0  0  0
  -21.4016   -6.5634   23.8209 C   0  0  0  0  0  0
  -21.3659   -5.6787   24.9173 C   0  0  0  0  0  0
  -21.6044   -4.3050   24.7225 C   0  0  0  0  0  0
  -21.8820   -3.8142   23.4346 C   0  0  0  0  0  0
  -21.9192   -4.6957   22.3402 C   0  0  0  0  0  0
  -22.7861  -13.5239   21.1842 C   0  0  0  0  0  0
  -22.1662   -4.2142   21.0980 F   0  0  0  0  0  0
  -21.5625   -3.4536   25.7739 F   0  0  0  0  0  0
  -30.0304  -13.3249   20.4481 N   0  0  0  0  0  0
  -26.3010  -12.9322   20.3336 N   0  0  0  0  0  0
  -25.9310  -11.6484   20.5746 N   0  0  0  0  0  0
  -22.0498  -12.8243   22.0404 N   0  0  0  0  0  0
  -25.4317  -15.1873   20.4081 N   0  0  0  0  0  0
  -31.8052  -14.7062   20.1112 O   0  0  0  0  0  0
  -21.6637   -6.8869   21.4239 O   0  0  0  0  0  0
  -22.3553  -14.5544   20.6683 O   0  0  0  0  0  0
  -24.6177  -31.8655   23.2084 C   0  0  0  0  0  0
  -25.9060  -32.4806   23.8386 C   0  0  1  0  0  0
  -27.2329  -27.3934   20.0890 C   0  0  0  0  0  0
  -25.5909  -33.8609   24.2315 N   0  0  0  0  0  0
  -23.4077  -30.4902   21.5498 C   0  0  2  0  0  0
  -24.8525  -28.9533   20.1137 C   0  0  0  0  0  0
  -22.7424  -29.4650   22.4975 C   0  0  0  0  0  0
  -18.0273  -28.1371   22.8486 C   0  0  0  0  0  0
  -24.1494  -36.7321   23.2638 C   0  0  0  0  0  0
  -25.9417  -30.8148   21.3711 C   0  0  0  0  0  0
  -26.0148  -29.4467   20.7171 C   0  0  0  0  0  0
  -27.2026  -28.6713   20.7078 C   0  0  0  0  0  0
  -26.0421  -26.9259   19.4848 C   0  0  0  0  0  0
  -24.8628  -27.6928   19.4966 C   0  0  0  0  0  0
  -23.6172  -29.8254   20.1638 C   0  0  0  0  0  0
  -25.4111  -36.3106   24.0335 C   0  0  1  0  0  0
  -20.5866  -28.3671   23.1302 C   0  0  2  0  0  0
  -20.6768  -26.9407   22.5408 C   0  0  0  0  0  0
  -19.5748  -26.6382   21.5204 C   0  0  0  0  0  0
  -18.1924  -26.7916   22.1616 C   0  0  0  0  0  0
  -19.1523  -28.8836   23.2894 C   0  0  0  0  0  0
  -18.9452  -30.1439   23.8909 C   0  0  0  0  0  0
  -17.6455  -30.6580   24.0561 C   0  0  0  0  0  0
  -25.9041  -34.9469   23.5122 C   0  0  0  0  0  0
  -16.5344  -29.9079   23.6327 C   0  0  0  0  0  0
  -16.7261  -28.6497   23.0348 C   0  0  0  0  0  0
  -26.4475  -31.6591   25.0729 C   0  0  0  0  0  0
  -25.3727  -31.3716   26.1471 C   0  0  0  0  0  0
  -27.0307  -30.3020   24.6138 C   0  0  0  0  0  0
  -27.6047  -32.4314   25.7492 C   0  0  0  0  0  0
  -27.5582  -37.1819   24.8466 C   0  0  0  0  0  0
  -21.4150  -29.3038   22.3712 N   0  0  0  0  0  0
  -26.4299  -37.3787   23.9403 N   0  0  0  0  0  0
  -24.6740  -31.0725   22.1003 N   0  0  0  0  0  0
  -23.4179  -28.8188   23.3030 O   0  0  0  0  0  0
  -28.4047  -26.6444   20.1174 O   0  0  0  0  0  0
  -26.5609  -34.8922   22.4687 O   0  0  0  0  0  0
  -23.5363  -32.1430   23.7454 O   0  0  0  0  0  0
  -28.8004  -17.6896   21.1274 C   0  0  0  0  0  0
  -29.8160  -19.7082   20.5542 C   0  0  0  0  0  0
  -31.0295  -18.9839   20.3426 C   0  0  0  0  0  0
  -29.9873  -16.9508   20.8808 C   0  0  0  0  0  0
  -28.6000  -21.5282   19.1873 C   0  0  0  0  0  0
  -28.6237  -23.0029   18.7180 C   0  0  0  0  0  0
  -29.3937  -23.7140   21.0081 C   0  0  0  0  0  0
  -29.6658  -21.2379   20.2664 C   0  0  1  0  0  0
  -29.4936  -22.2128   21.4909 C   0  0  0  0  0  0
  -28.4054  -24.0433   19.8476 C   0  0  1  0  0  0
  -28.2707  -21.8503   22.3659 C   0  0  0  0  0  0
  -30.7343  -22.1077   22.4054 C   0  0  0  0  0  0
  -28.5671  -25.4951   19.2483 C   0  0  0  0  0  0
  -32.3163  -19.6650   19.8887 C   0  0  0  0  0  0
  -28.7061  -19.0358   20.9586 N   0  0  0  0  0  0
  -31.1012  -17.6279   20.4951 N   0  0  0  0  0  0
  -29.9011  -15.5271   21.0556 N   0  0  0  0  0  0
  -27.0645  -23.8925   20.2776 O   0  0  0  0  0  0
  -32.2532  -19.9586   18.5892 F   0  0  0  0  0  0
  -33.3907  -18.9036   20.1094 F   0  0  0  0  0  0
  -31.4757  -12.4424   19.1357 H   0  0  0  0  0  0
  -30.3461  -11.3247   19.8437 H   0  0  0  0  0  0
  -29.7504  -11.7753   17.4450 H   0  0  0  0  0  0
  -29.6636  -13.4875   17.7668 H   0  0  0  0  0  0
  -27.8404  -11.3028   18.8310 H   0  0  0  0  0  0
  -27.3733  -12.6197   17.7887 H   0  0  0  0  0  0
  -27.6973  -14.2511   19.5613 H   0  0  0  0  0  0
  -28.6873  -11.9672   21.3409 H   0  0  0  0  0  0
  -28.4526  -13.6006   21.8751 H   0  0  0  0  0  0
  -25.2748   -9.5682   22.4752 H   0  0  0  0  0  0
  -23.9990   -7.4633   22.7471 H   0  0  0  0  0  0
  -21.0826   -8.8767   19.8958 H   0  0  0  0  0  0
  -22.3677  -10.9666   19.6164 H   0  0  0  0  0  0
  -21.2014   -7.6142   23.9709 H   0  0  0  0  0  0
  -21.1481   -6.0521   25.9073 H   0  0  0  0  0  0
  -22.0600   -2.7604   23.2851 H   0  0  0  0  0  0
  -22.4105  -11.9904   22.4801 H   0  0  0  0  0  0
  -21.1122  -13.1288   22.2608 H   0  0  0  0  0  0
  -24.6596  -15.8379   20.5038 H   0  0  0  0  0  0
  -26.2647  -15.6183   20.0297 H   0  0  0  0  0  0
  -26.7123  -32.5502   23.1137 H   0  0  0  0  0  0
  -25.0052  -33.9770   25.0454 H   0  0  0  0  0  0
  -22.6982  -31.3087   21.4110 H   0  0  0  0  0  0
  -23.3741  -35.9671   23.3318 H   0  0  0  0  0  0
  -24.3586  -36.8921   22.2050 H   0  0  0  0  0  0
  -23.7269  -37.6541   23.6643 H   0  0  0  0  0  0
  -26.0645  -31.5788   20.6022 H   0  0  0  0  0  0
  -26.8255  -30.8637   21.9954 H   0  0  0  0  0  0
  -28.0996  -29.0471   21.1800 H   0  0  0  0  0  0
  -25.9878  -25.9593   19.0106 H   0  0  0  0  0  0
  -23.9675  -27.3053   19.0299 H   0  0  0  0  0  0
  -23.7292  -30.6015   19.4056 H   0  0  0  0  0  0
  -22.7395  -29.2489   19.8659 H   0  0  0  0  0  0
  -25.1286  -36.1971   25.0828 H   0  0  0  0  0  0
  -20.9955  -28.3242   24.1423 H   0  0  0  0  0  0
  -20.5671  -26.2283   23.3598 H   0  0  0  0  0  0
  -21.6640  -26.7443   22.1208 H   0  0  0  0  0  0
  -19.6922  -25.6292   21.1238 H   0  0  0  0  0  0
  -19.6686  -27.3191   20.6732 H   0  0  0  0  0  0
  -17.4194  -26.6652   21.4020 H   0  0  0  0  0  0
  -18.0338  -26.0047   22.9004 H   0  0  0  0  0  0
  -19.7929  -30.7247   24.2290 H   0  0  0  0  0  0
  -17.5010  -31.6264   24.5153 H   0  0  0  0  0  0
  -15.5346  -30.2985   23.7645 H   0  0  0  0  0  0
  -15.8659  -28.0817   22.7060 H   0  0  0  0  0  0
  -24.5893  -30.7076   25.7809 H   0  0  0  0  0  0
  -24.8926  -32.2876   26.4918 H   0  0  0  0  0  0
  -25.8059  -30.8880   27.0233 H   0  0  0  0  0  0
  -26.2860  -29.6791   24.1168 H   0  0  0  0  0  0
  -27.4032  -29.7255   25.4616 H   0  0  0  0  0  0
  -27.8722  -30.4321   23.9327 H   0  0  0  0  0  0
  -27.2657  -33.3598   26.2098 H   0  0  0  0  0  0
  -28.3836  -32.6895   25.0306 H   0  0  0  0  0  0
  -28.0738  -31.8423   26.5384 H   0  0  0  0  0  0
  -28.2609  -38.0106   24.7487 H   0  0  0  0  0  0
  -28.1065  -36.2635   24.6309 H   0  0  0  0  0  0
  -27.2308  -37.1499   25.8873 H   0  0  0  0  0  0
  -20.9318  -29.8760   21.6927 H   0  0  0  0  0  0
  -26.0194  -38.2879   24.1353 H   0  0  0  0  0  0
  -27.8951  -17.1903   21.4416 H   0  0  0  0  0  0
  -28.7807  -20.8852   18.3253 H   0  0  0  0  0  0
  -27.6080  -21.2628   19.5516 H   0  0  0  0  0  0
  -27.8855  -23.1410   17.9263 H   0  0  0  0  0  0
  -29.5881  -23.1941   18.2445 H   0  0  0  0  0  0
  -30.3842  -24.0176   20.6654 H   0  0  0  0  0  0
  -29.1820  -24.3664   21.8565 H   0  0  0  0  0  0
  -30.5959  -21.5412   19.7904 H   0  0  0  0  0  0
  -27.3526  -21.7763   21.7851 H   0  0  0  0  0  0
  -28.1017  -22.6000   23.1393 H   0  0  0  0  0  0
  -28.4046  -20.8964   22.8758 H   0  0  0  0  0  0
  -31.6506  -22.3720   21.8769 H   0  0  0  0  0  0
  -30.8638  -21.1003   22.8034 H   0  0  0  0  0  0
  -30.6538  -22.7820   23.2591 H   0  0  0  0  0  0
  -29.5956  -25.5735   18.8948 H   0  0  0  0  0  0
  -27.9880  -25.6045   18.3312 H   0  0  0  0  0  0
  -32.4905  -20.5889   20.4387 H   0  0  0  0  0  0
  -29.0194  -15.2055   21.4223 H   0  0  0  0  0  0
  -26.5011  -23.9602   19.5171 H   0  0  0  0  0  0
  1 25  1  0  0  0
  1 30  2  0  0  0
  1 87  1  0  0  0
  2  3  1  0  0  0
  2 25  1  0  0  0
  2 91  1  0  0  0
  2 92  1  0  0  0
  3  4  1  0  0  0
  3 93  1  0  0  0
  3 94  1  0  0  0
  4  5  1  0  0  0
  4 95  1  0  0  0
  4 96  1  0  0  0
  5  6  1  0  0  0
  5 26  1  0  0  0
  5 97  1  0  0  0
  6 25  1  0  0  0
  6 98  1  0  0  0
  6 99  1  0  0  0
  7  8  2  0  0  0
  7 26  1  0  0  0
  7 29  1  0  0  0
  8  9  1  0  0  0
  8 22  1  0  0  0
  9 10  1  0  0  0
  9 27  2  0  0  0
 10 11  2  0  0  0
 10 15  1  0  0  0
 11 12  1  0  0  0
 11100  1  0  0  0
 12 13  2  0  0  0
 12101  1  0  0  0
 13 14  1  0  0  0
 13 31  1  0  0  0
 14 15  2  0  0  0
 14102  1  0  0  0
 15103  1  0  0  0
 16 17  2  0  0  0
 16 21  1  0  0  0
 16 31  1  0  0  0
 17 18  1  0  0  0
 17104  1  0  0  0
 18 19  2  0  0  0
 18105  1  0  0  0
 19 20  1  0  0  0
 19 24  1  0  0  0
 20 21  2  0  0  0
 20106  1  0  0  0
 21 23  1  0  0  0
 22 28  1  0  0  0
 22 32  2  0  0  0
 26 27  1  0  0  0
 28107  1  0  0  0
 28108  1  0  0  0
 29109  1  0  0  0
 29110  1  0  0  0
 33 34  1  0  0  0
 33 66  1  0  0  0
 33 70  2  0  0  0
 34 36  1  0  0  0
 34 59  1  0  0  0
 34111  1  0  0  0
 35 44  2  0  0  0
 35 45  1  0  0  0
 35 68  1  0  0  0
 36 56  1  0  0  0
 36112  1  0  0  0
 37 39  1  0  0  0
 37 47  1  0  0  0
 37 66  1  0  0  0
 37113  1  0  0  0
 38 43  2  0  0  0
 38 46  1  0  0  0
 38 47  1  0  0  0
 39 64  1  0  0  0
 39 67  2  0  0  0
 40 52  1  0  0  0
 40 53  2  0  0  0
 40 58  1  0  0  0
 41114  1  0  0  0
 41115  1  0  0  0
 41116  1  0  0  0
 41 48  1  0  0  0
 42 43  1  0  0  0
 42 66  1  0  0  0
 42117  1  0  0  0
 42118  1  0  0  0
 43 44  1  0  0  0
 44119  1  0  0  0
 45 46  2  0  0  0
 45120  1  0  0  0
 46121  1  0  0  0
 47122  1  0  0  0
 47123  1  0  0  0
 48 56  1  0  0  0
 48 65  1  0  0  0
 48124  1  0  0  0
 49 50  1  0  0  0
 49 53  1  0  0  0
 49 64  1  0  0  0
 49125  1  0  0  0
 50 51  1  0  0  0
 50126  1  0  0  0
 50127  1  0  0  0
 51 52  1  0  0  0
 51128  1  0  0  0
 51129  1  0  0  0
 52130  1  0  0  0
 52131  1  0  0  0
 53 54  1  0  0  0
 54 55  2  0  0  0
 54132  1  0  0  0
 55 57  1  0  0  0
 55133  1  0  0  0
 56 69  2  0  0  0
 57 58  2  0  0  0
 57134  1  0  0  0
 58135  1  0  0  0
 59 60  1  0  0  0
 59 61  1  0  0  0
 59 62  1  0  0  0
 60136  1  0  0  0
 60137  1  0  0  0
 60138  1  0  0  0
 61139  1  0  0  0
 61140  1  0  0  0
 61141  1  0  0  0
 62142  1  0  0  0
 62143  1  0  0  0
 62144  1  0  0  0
 63 65  1  0  0  0
 63145  1  0  0  0
 63146  1  0  0  0
 63147  1  0  0  0
 64148  1  0  0  0
 65149  1  0  0  0
 68 83  1  0  0  0
 71 74  2  0  0  0
 71 85  1  0  0  0
 71150  1  0  0  0
 72 73  1  0  0  0
 72 85  2  0  0  0
 72 78  1  0  0  0
 73 84  1  0  0  0
 73 86  2  0  0  0
 74 86  1  0  0  0
 74 87  1  0  0  0
 75 76  1  0  0  0
 75 78  1  0  0  0
 75151  1  0  0  0
 75152  1  0  0  0
 76 80  1  0  0  0
 76153  1  0  0  0
 76154  1  0  0  0
 77 79  1  0  0  0
 77 80  1  0  0  0
 77155  1  0  0  0
 77156  1  0  0  0
 78 79  1  0  0  0
 78157  1  0  0  0
 79 81  1  0  0  0
 79 82  1  0  0  0
 80 83  1  0  0  0
 80 88  1  0  0  0
 81158  1  0  0  0
 81159  1  0  0  0
 81160  1  0  0  0
 82161  1  0  0  0
 82162  1  0  0  0
 82163  1  0  0  0
 83164  1  0  0  0
 83165  1  0  0  0
 84 89  1  0  0  0
 84 90  1  0  0  0
 84166  1  0  0  0
 87167  1  0  0  0
 88168  1  0  0  0
M  ISO  4   1 100  68 101  83 101  87 100
M  END
> <chiral flag>
0

> <version>
0

> <s_m_source_file>
/data/baiqing/PycharmProjects/Reinvent-master-3.2/result/LINK_invent/BTK/process_docking_weight1_custom_product_contain_oxygen_bond_distance_aromatic_linkinvent_7_9_3/rearranged_h_0177.sdf

> <i_m_source_file_index>
29

> <r_mmod_Potential_Energy-OPLS-2005>
84.6492233276367

> <r_mmod_Stretch_Energy-OPLS-2005>
58.559928894043

> <r_mmod_Bend_Energy-OPLS-2005>
137.834564208984

> <r_mmod_Torsional_Energy-OPLS-2005>
235.94856262207

> <r_mmod_Improper_Torsional_Energy-OPLS-2005>
4.13241100311279

> <r_mmod_Van_der_Waal_Energy-OPLS-2005>
157.623031616211

> <r_mmod_Electrostatic_Energy-OPLS-2005>
-286.314300537109

> <r_mmod_Solvation_Energy-OPLS-2005>
-243.039886474609

> <b_mmod_Minimization_Converged-OPLS-2005>
0

> <r_mmod_RMS_Derivative-OPLS-2005>
0.770886063575745

$$$$
29
                    3D
 Structure written by MMmdl.
159167  0  0  1  0            999 V2000
  -30.6346  -14.5816   20.4694 C   0  0  0  0  0  0
  -30.4343  -12.3488   19.4637 C   0  0  0  0  0  0
  -29.5139  -12.5150   18.2348 C   0  0  0  0  0  0
  -28.0294  -12.3666   18.6269 C   0  0  0  0  0  0
  -27.6515  -13.2240   19.8665 C   0  0  2  0  0  0
  -28.6911  -13.0520   20.9949 C   0  0  0  0  0  0
  -25.2513  -13.8178   20.5670 C   0  0  0  0  0  0
  -24.1788  -13.0402   20.9141 C   0  0  0  0  0  0
  -24.6368  -11.6893   20.8674 C   0  0  0  0  0  0
  -23.9034  -10.4264   21.0390 C   0  0  0  0  0  0
  -24.3592   -9.4219   21.9195 C   0  0  0  0  0  0
  -23.6283   -8.2259   22.0767 C   0  0  0  0  0  0
  -22.4282   -8.0260   21.3563 C   0  0  0  0  0  0
  -21.9894   -9.0221   20.4687 C   0  0  0  0  0  0
  -22.7193  -10.2106   20.3071 C   0  0  0  0  0  0
  -21.6848   -6.0710   22.5293 C   0  0  0  0  0  0
  -21.4015   -6.5630   23.8211 C   0  0  0  0  0  0
  -21.3662   -5.6793   24.9189 C   0  0  0  0  0  0
  -21.6033   -4.3051   24.7239 C   0  0  0  0  0  0
  -21.8818   -3.8126   23.4358 C   0  0  0  0  0  0
  -21.9204   -4.6936   22.3414 C   0  0  0  0  0  0
  -22.7821  -13.5227   21.1771 C   0  0  0  0  0  0
  -22.1682   -4.2124   21.0990 F   0  0  0  0  0  0
  -21.5638   -3.4547   25.7752 F   0  0  0  0  0  0
  -30.0193  -13.3626   20.4450 N   0  0  0  0  0  0
  -26.2940  -12.9374   20.3279 N   0  0  0  0  0  0
  -25.9304  -11.6525   20.5708 N   0  0  0  0  0  0
  -22.0487  -12.8252   22.0390 N   0  0  0  0  0  0
  -25.4176  -15.1876   20.4057 N   0  0  0  0  0  0
  -31.7858  -14.7442   20.0566 O   0  0  0  0  0  0
  -21.6649   -6.8854   21.4268 O   0  0  0  0  0  0
  -22.3482  -14.5497   20.6557 O   0  0  0  0  0  0
  -24.6249  -31.8671   23.1998 C   0  0  0  0  0  0
  -25.9106  -32.4826   23.8357 C   0  0  1  0  0  0
  -27.2322  -27.3350   20.0780 C   0  0  0  0  0  0
  -25.5949  -33.8619   24.2289 N   0  0  0  0  0  0
  -23.4172  -30.4855   21.5437 C   0  0  2  0  0  0
  -24.8582  -28.9355   20.1125 C   0  0  0  0  0  0
  -22.7523  -29.4631   22.4965 C   0  0  0  0  0  0
  -18.0302  -28.1417   22.8472 C   0  0  0  0  0  0
  -24.1483  -36.7283   23.2646 C   0  0  0  0  0  0
  -25.9552  -30.7968   21.3697 C   0  0  0  0  0  0
  -26.0272  -29.4189   20.7132 C   0  0  0  0  0  0
  -27.2103  -28.6269   20.6895 C   0  0  0  0  0  0
  -26.0333  -26.8896   19.4819 C   0  0  0  0  0  0
  -24.8620  -27.6737   19.4980 C   0  0  0  0  0  0
  -23.6279  -29.8203   20.1567 C   0  0  0  0  0  0
  -25.4117  -36.3097   24.0351 C   0  0  1  0  0  0
  -20.5918  -28.3700   23.1302 C   0  0  2  0  0  0
  -20.6761  -26.9437   22.5395 C   0  0  0  0  0  0
  -19.5707  -26.6406   21.5211 C   0  0  0  0  0  0
  -18.1904  -26.7958   22.1626 C   0  0  0  0  0  0
  -19.1559  -28.8886   23.2874 C   0  0  0  0  0  0
  -18.9477  -30.1505   23.8878 C   0  0  0  0  0  0
  -17.6470  -30.6587   24.0584 C   0  0  0  0  0  0
  -25.9062  -34.9466   23.5098 C   0  0  0  0  0  0
  -16.5363  -29.9087   23.6330 C   0  0  0  0  0  0
  -16.7295  -28.6540   23.0312 C   0  0  0  0  0  0
  -26.4444  -31.6673   25.0755 C   0  0  0  0  0  0
  -25.3722  -31.3788   26.1532 C   0  0  0  0  0  0
  -27.0293  -30.3137   24.6185 C   0  0  0  0  0  0
  -27.6021  -32.4416   25.7521 C   0  0  0  0  0  0
  -27.5581  -37.1796   24.8487 C   0  0  0  0  0  0
  -21.4250  -29.3060   22.3741 N   0  0  0  0  0  0
  -26.4284  -37.3803   23.9410 N   0  0  0  0  0  0
  -24.6843  -31.0697   22.0929 N   0  0  0  0  0  0
  -23.4275  -28.8244   23.3081 O   0  0  0  0  0  0
  -28.3945  -26.5476   20.0852 O   0  0  0  0  0  0
  -26.5609  -34.8922   22.4663 O   0  0  0  0  0  0
  -23.5404  -32.1433   23.7323 O   0  0  0  0  0  0
  -29.7027  -19.1777   19.7310 C   0  0  0  0  0  0
  -29.1233  -18.7232   18.5495 C   0  0  0  0  0  0
  -29.7089  -16.8576   20.0882 C   0  0  0  0  0  0
  -28.6327  -22.6787   20.5503 C   0  0  0  0  0  0
  -28.2715  -24.0067   20.5433 C   0  0  0  0  0  0
  -29.4381  -21.8365   19.5881 C   0  0  0  0  0  0
  -30.4425  -20.6875   21.6776 C   0  0  0  0  0  0
  -32.5238  -19.6894   19.6056 C   0  0  0  0  0  0
  -28.4697  -25.1742   19.5285 C   0  0  0  0  0  0
  -30.2699  -20.5840   20.1378 C   0  0  1  0  0  0
  -29.9626  -18.0713   20.6001 N   0  0  0  0  0  0
  -28.6921  -19.4203   17.4226 N   0  0  0  0  0  0
  -29.8603  -15.6350   20.8345 N   0  0  0  0  0  0
  -29.5686  -22.1700   18.4033 O   0  0  0  0  0  0
  -27.6477  -24.4861   21.6285 O   0  0  0  0  0  0
  -31.6086  -20.7870   19.6375 O   0  0  0  0  0  0
  -29.0117  -16.9644   18.4787 S   0  0  0  0  0  0
  -31.4834  -12.4512   19.1709 H   0  0  0  0  0  0
  -30.3441  -11.3531   19.9010 H   0  0  0  0  0  0
  -29.7769  -11.7965   17.4584 H   0  0  0  0  0  0
  -29.6680  -13.5043   17.8022 H   0  0  0  0  0  0
  -27.8389  -11.3126   18.8290 H   0  0  0  0  0  0
  -27.3895  -12.6341   17.7835 H   0  0  0  0  0  0
  -27.6729  -14.2613   19.5338 H   0  0  0  0  0  0
  -28.6764  -12.0224   21.3558 H   0  0  0  0  0  0
  -28.4387  -13.6760   21.8559 H   0  0  0  0  0  0
  -25.2756   -9.5702   22.4727 H   0  0  0  0  0  0
  -23.9996   -7.4671   22.7480 H   0  0  0  0  0  0
  -21.0815   -8.8679   19.9012 H   0  0  0  0  0  0
  -22.3613  -10.9600   19.6140 H   0  0  0  0  0  0
  -21.1997   -7.6136   23.9702 H   0  0  0  0  0  0
  -21.1505   -6.0538   25.9086 H   0  0  0  0  0  0
  -22.0589   -2.7585   23.2868 H   0  0  0  0  0  0
  -22.4088  -11.9912   22.4756 H   0  0  0  0  0  0
  -21.1126  -13.1287   22.2648 H   0  0  0  0  0  0
  -24.6310  -15.8259   20.4849 H   0  0  0  0  0  0
  -26.2548  -15.6315   20.0514 H   0  0  0  0  0  0
  -26.7244  -32.5450   23.1147 H   0  0  0  0  0  0
  -25.0164  -33.9814   25.0481 H   0  0  0  0  0  0
  -22.7042  -31.3001   21.4012 H   0  0  0  0  0  0
  -23.3754  -35.9613   23.3345 H   0  0  0  0  0  0
  -24.3538  -36.8848   22.2049 H   0  0  0  0  0  0
  -23.7227  -37.6494   23.6637 H   0  0  0  0  0  0
  -26.0899  -31.5685   20.6102 H   0  0  0  0  0  0
  -26.8340  -30.8342   22.0034 H   0  0  0  0  0  0
  -28.1129  -28.9988   21.1565 H   0  0  0  0  0  0
  -25.9645  -25.9250   19.0060 H   0  0  0  0  0  0
  -23.9689  -27.2853   19.0229 H   0  0  0  0  0  0
  -23.7539  -30.5975   19.4015 H   0  0  0  0  0  0
  -22.7432  -29.2607   19.8443 H   0  0  0  0  0  0
  -25.1282  -36.1929   25.0853 H   0  0  0  0  0  0
  -20.9968  -28.3243   24.1446 H   0  0  0  0  0  0
  -20.5629  -26.2353   23.3605 H   0  0  0  0  0  0
  -21.6628  -26.7427   22.1221 H   0  0  0  0  0  0
  -19.6847  -25.6321   21.1243 H   0  0  0  0  0  0
  -19.6609  -27.3225   20.6759 H   0  0  0  0  0  0
  -17.4173  -26.6753   21.4036 H   0  0  0  0  0  0
  -18.0280  -26.0110   22.9044 H   0  0  0  0  0  0
  -19.7966  -30.7344   24.2189 H   0  0  0  0  0  0
  -17.5013  -31.6225   24.5246 H   0  0  0  0  0  0
  -15.5353  -30.2945   23.7659 H   0  0  0  0  0  0
  -15.8736  -28.0838   22.6956 H   0  0  0  0  0  0
  -24.5878  -30.7142   25.7895 H   0  0  0  0  0  0
  -24.8930  -32.2941   26.5038 H   0  0  0  0  0  0
  -25.8112  -30.8940   27.0278 H   0  0  0  0  0  0
  -26.2870  -29.6926   24.1193 H   0  0  0  0  0  0
  -27.4013  -29.7334   25.4634 H   0  0  0  0  0  0
  -27.8716  -30.4459   23.9391 H   0  0  0  0  0  0
  -27.2653  -33.3716   26.2118 H   0  0  0  0  0  0
  -28.3830  -32.7025   25.0369 H   0  0  0  0  0  0
  -28.0736  -31.8571   26.5422 H   0  0  0  0  0  0
  -28.2621  -38.0071   24.7498 H   0  0  0  0  0  0
  -28.1027  -36.2591   24.6330 H   0  0  0  0  0  0
  -27.2299  -37.1504   25.8894 H   0  0  0  0  0  0
  -20.9466  -29.8877   21.7020 H   0  0  0  0  0  0
  -26.0157  -38.2884   24.1381 H   0  0  0  0  0  0
  -28.3048  -22.1305   21.4188 H   0  0  0  0  0  0
  -29.5164  -20.4634   22.2109 H   0  0  0  0  0  0
  -30.7705  -21.6847   21.9696 H   0  0  0  0  0  0
  -31.1909  -19.9930   22.0583 H   0  0  0  0  0  0
  -33.5408  -20.0910   19.6047 H   0  0  0  0  0  0
  -32.3959  -19.1016   18.6901 H   0  0  0  0  0  0
  -32.4338  -19.0067   20.4527 H   0  0  0  0  0  0
  -27.8243  -25.0299   18.6632 H   0  0  0  0  0  0
  -29.4738  -25.0537   19.1259 H   0  0  0  0  0  0
  -28.7775  -20.4325   17.3061 H   0  0  0  0  0  0
  -28.1315  -18.9898   16.6900 H   0  0  0  0  0  0
  -29.0319  -15.3682   21.3396 H   0  0  0  0  0  0
  -27.6882  -23.8162   22.3021 H   0  0  0  0  0  0
  1 25  1  0  0  0
  1 30  2  0  0  0
  1 83  1  0  0  0
  2  3  1  0  0  0
  2 25  1  0  0  0
  2 88  1  0  0  0
  2 89  1  0  0  0
  3  4  1  0  0  0
  3 90  1  0  0  0
  3 91  1  0  0  0
  4  5  1  0  0  0
  4 92  1  0  0  0
  4 93  1  0  0  0
  5  6  1  0  0  0
  5 26  1  0  0  0
  5 94  1  0  0  0
  6 25  1  0  0  0
  6 95  1  0  0  0
  6 96  1  0  0  0
  7  8  2  0  0  0
  7 26  1  0  0  0
  7 29  1  0  0  0
  8  9  1  0  0  0
  8 22  1  0  0  0
  9 10  1  0  0  0
  9 27  2  0  0  0
 10 11  2  0  0  0
 10 15  1  0  0  0
 11 12  1  0  0  0
 11 97  1  0  0  0
 12 13  2  0  0  0
 12 98  1  0  0  0
 13 14  1  0  0  0
 13 31  1  0  0  0
 14 15  2  0  0  0
 14 99  1  0  0  0
 15100  1  0  0  0
 16 17  2  0  0  0
 16 21  1  0  0  0
 16 31  1  0  0  0
 17 18  1  0  0  0
 17101  1  0  0  0
 18 19  2  0  0  0
 18102  1  0  0  0
 19 20  1  0  0  0
 19 24  1  0  0  0
 20 21  2  0  0  0
 20103  1  0  0  0
 21 23  1  0  0  0
 22 28  1  0  0  0
 22 32  2  0  0  0
 26 27  1  0  0  0
 28104  1  0  0  0
 28105  1  0  0  0
 29106  1  0  0  0
 29107  1  0  0  0
 33 34  1  0  0  0
 33 66  1  0  0  0
 33 70  2  0  0  0
 34 36  1  0  0  0
 34 59  1  0  0  0
 34108  1  0  0  0
 35 44  2  0  0  0
 35 45  1  0  0  0
 35 68  1  0  0  0
 36 56  1  0  0  0
 36109  1  0  0  0
 37 39  1  0  0  0
 37 47  1  0  0  0
 37 66  1  0  0  0
 37110  1  0  0  0
 38 43  2  0  0  0
 38 46  1  0  0  0
 38 47  1  0  0  0
 39 64  1  0  0  0
 39 67  2  0  0  0
 40 52  1  0  0  0
 40 53  2  0  0  0
 40 58  1  0  0  0
 41111  1  0  0  0
 41112  1  0  0  0
 41113  1  0  0  0
 41 48  1  0  0  0
 42 43  1  0  0  0
 42 66  1  0  0  0
 42114  1  0  0  0
 42115  1  0  0  0
 43 44  1  0  0  0
 44116  1  0  0  0
 45 46  2  0  0  0
 45117  1  0  0  0
 46118  1  0  0  0
 47119  1  0  0  0
 47120  1  0  0  0
 48 56  1  0  0  0
 48 65  1  0  0  0
 48121  1  0  0  0
 49 50  1  0  0  0
 49 53  1  0  0  0
 49 64  1  0  0  0
 49122  1  0  0  0
 50 51  1  0  0  0
 50123  1  0  0  0
 50124  1  0  0  0
 51 52  1  0  0  0
 51125  1  0  0  0
 51126  1  0  0  0
 52127  1  0  0  0
 52128  1  0  0  0
 53 54  1  0  0  0
 54 55  2  0  0  0
 54129  1  0  0  0
 55 57  1  0  0  0
 55130  1  0  0  0
 56 69  2  0  0  0
 57 58  2  0  0  0
 57131  1  0  0  0
 58132  1  0  0  0
 59 60  1  0  0  0
 59 61  1  0  0  0
 59 62  1  0  0  0
 60133  1  0  0  0
 60134  1  0  0  0
 60135  1  0  0  0
 61136  1  0  0  0
 61137  1  0  0  0
 61138  1  0  0  0
 62139  1  0  0  0
 62140  1  0  0  0
 62141  1  0  0  0
 63 65  1  0  0  0
 63142  1  0  0  0
 63143  1  0  0  0
 63144  1  0  0  0
 64145  1  0  0  0
 65146  1  0  0  0
 68 79  1  0  0  0
 71 72  2  0  0  0
 71 80  1  0  0  0
 71 81  1  0  0  0
 72 82  1  0  0  0
 72 87  1  0  0  0
 73 81  2  0  0  0
 73 83  1  0  0  0
 73 87  1  0  0  0
 74 75  2  0  0  0
 74 76  1  0  0  0
 74147  1  0  0  0
 75 79  1  0  0  0
 75 85  1  0  0  0
 76 84  2  0  0  0
 76 80  1  0  0  0
 77148  1  0  0  0
 77149  1  0  0  0
 77150  1  0  0  0
 77 80  1  0  0  0
 78 86  1  0  0  0
 78151  1  0  0  0
 78152  1  0  0  0
 78153  1  0  0  0
 79154  1  0  0  0
 79155  1  0  0  0
 80 86  1  0  0  0
 82156  1  0  0  0
 82157  1  0  0  0
 83158  1  0  0  0
 85159  1  0  0  0
M  ISO  4   1 100  68 101  79 101  83 100
M  END
> <chiral flag>
0

> <version>
0

> <s_m_source_file>
/data/baiqing/PycharmProjects/Reinvent-master-3.2/result/LINK_invent/BTK/process_docking_weight1_custom_product_contain_oxygen_bond_distance_aromatic_linkinvent_7_9_3/rearranged_h_0177.sdf

> <i_m_source_file_index>
30

> <r_mmod_Potential_Energy-OPLS-2005>
181.439636230469

> <r_mmod_Stretch_Energy-OPLS-2005>
78.8194732666016

> <r_mmod_Bend_Energy-OPLS-2005>
173.05485534668

> <r_mmod_Torsional_Energy-OPLS-2005>
262.680053710938

> <r_mmod_Improper_Torsional_Energy-OPLS-2005>
8.99922657012939

> <r_mmod_Van_der_Waal_Energy-OPLS-2005>
127.085983276367

> <r_mmod_Electrostatic_Energy-OPLS-2005>
-252.941467285156

> <r_mmod_Solvation_Energy-OPLS-2005>
-251.622131347656

> <b_mmod_Minimization_Converged-OPLS-2005>
0

> <r_mmod_RMS_Derivative-OPLS-2005>
7.74762868881226

$$$$
30
                    3D
 Structure written by MMmdl.
155163  0  0  1  0            999 V2000
  -30.6689  -14.5631   20.4821 C   0  0  0  0  0  0
  -30.4390  -12.3250   19.4587 C   0  0  0  0  0  0
  -29.5156  -12.4190   18.2233 C   0  0  0  0  0  0
  -28.0256  -12.3592   18.6229 C   0  0  0  0  0  0
  -27.6618  -13.2185   19.8634 C   0  0  2  0  0  0
  -28.7042  -13.0562   20.9920 C   0  0  0  0  0  0
  -25.2648  -13.8167   20.5759 C   0  0  0  0  0  0
  -24.1877  -13.0427   20.9171 C   0  0  0  0  0  0
  -24.6415  -11.6889   20.8686 C   0  0  0  0  0  0
  -23.9075  -10.4268   21.0339 C   0  0  0  0  0  0
  -24.3600   -9.4202   21.9143 C   0  0  0  0  0  0
  -23.6266   -8.2244   22.0768 C   0  0  0  0  0  0
  -22.4246   -8.0265   21.3547 C   0  0  0  0  0  0
  -21.9875   -9.0252   20.4662 C   0  0  0  0  0  0
  -22.7219  -10.2102   20.3038 C   0  0  0  0  0  0
  -21.6844   -6.0701   22.5236 C   0  0  0  0  0  0
  -21.4031   -6.5609   23.8163 C   0  0  0  0  0  0
  -21.3677   -5.6781   24.9135 C   0  0  0  0  0  0
  -21.6031   -4.3040   24.7199 C   0  0  0  0  0  0
  -21.8839   -3.8125   23.4324 C   0  0  0  0  0  0
  -21.9219   -4.6933   22.3375 C   0  0  0  0  0  0
  -22.7894  -13.5241   21.1817 C   0  0  0  0  0  0
  -22.1694   -4.2120   21.0960 F   0  0  0  0  0  0
  -21.5609   -3.4533   25.7713 F   0  0  0  0  0  0
  -30.0301  -13.3555   20.4330 N   0  0  0  0  0  0
  -26.3063  -12.9346   20.3307 N   0  0  0  0  0  0
  -25.9346  -11.6489   20.5657 N   0  0  0  0  0  0
  -22.0509  -12.8255   22.0338 N   0  0  0  0  0  0
  -25.4423  -15.1909   20.4372 N   0  0  0  0  0  0
  -31.8361  -14.7038   20.1022 O   0  0  0  0  0  0
  -21.6637   -6.8837   21.4199 O   0  0  0  0  0  0
  -22.3614  -14.5544   20.6621 O   0  0  0  0  0  0
  -24.6169  -31.8642   23.2061 C   0  0  0  0  0  0
  -25.9053  -32.4803   23.8358 C   0  0  1  0  0  0
  -27.2396  -27.4052   20.0981 C   0  0  0  0  0  0
  -25.5903  -33.8600   24.2287 N   0  0  0  0  0  0
  -23.4064  -30.4850   21.5479 C   0  0  2  0  0  0
  -24.8529  -28.9377   20.1223 C   0  0  0  0  0  0
  -22.7419  -29.4619   22.4980 C   0  0  0  0  0  0
  -18.0276  -28.1390   22.8489 C   0  0  0  0  0  0
  -24.1493  -36.7302   23.2635 C   0  0  0  0  0  0
  -25.9369  -30.8207   21.3590 C   0  0  0  0  0  0
  -26.0151  -29.4480   20.7155 C   0  0  0  0  0  0
  -27.2123  -28.6910   20.6956 C   0  0  0  0  0  0
  -26.0592  -26.9073   19.5122 C   0  0  0  0  0  0
  -24.8703  -27.6659   19.5191 C   0  0  0  0  0  0
  -23.6170  -29.8111   20.1655 C   0  0  0  0  0  0
  -25.4114  -36.3092   24.0327 C   0  0  1  0  0  0
  -20.5867  -28.3661   23.1331 C   0  0  2  0  0  0
  -20.6771  -26.9394   22.5424 C   0  0  0  0  0  0
  -19.5746  -26.6392   21.5218 C   0  0  0  0  0  0
  -18.1917  -26.7947   22.1621 C   0  0  0  0  0  0
  -19.1525  -28.8840   23.2913 C   0  0  0  0  0  0
  -18.9449  -30.1453   23.8923 C   0  0  0  0  0  0
  -17.6444  -30.6596   24.0569 C   0  0  0  0  0  0
  -25.9039  -34.9470   23.5100 C   0  0  0  0  0  0
  -16.5335  -29.9097   23.6329 C   0  0  0  0  0  0
  -16.7256  -28.6517   23.0338 C   0  0  0  0  0  0
  -26.4476  -31.6597   25.0695 C   0  0  0  0  0  0
  -25.3739  -31.3712   26.1439 C   0  0  0  0  0  0
  -27.0292  -30.3042   24.6057 C   0  0  0  0  0  0
  -27.6040  -32.4322   25.7469 C   0  0  0  0  0  0
  -27.5579  -37.1799   24.8454 C   0  0  0  0  0  0
  -21.4130  -29.3028   22.3730 N   0  0  0  0  0  0
  -26.4285  -37.3780   23.9408 N   0  0  0  0  0  0
  -24.6723  -31.0721   22.0965 N   0  0  0  0  0  0
  -23.4182  -28.8147   23.3010 O   0  0  0  0  0  0
  -28.4165  -26.6880   19.9937 O   0  0  0  0  0  0
  -26.5603  -34.8921   22.4661 O   0  0  0  0  0  0
  -23.5353  -32.1397   23.7441 O   0  0  0  0  0  0
  -29.4305  -17.7943   17.8191 C   0  0  0  0  0  0
  -29.4894  -19.0858   18.3614 C   0  0  0  0  0  0
  -29.5515  -16.6748   18.6445 C   0  0  0  0  0  0
  -29.5916  -19.2184   19.7782 C   0  0  0  0  0  0
  -29.7874  -16.8393   20.0268 C   0  0  0  0  0  0
  -29.0163  -22.8879   20.7557 C   0  0  0  0  0  0
  -28.5874  -21.4545   20.2785 C   0  0  0  0  0  0
  -28.3672  -24.1155   20.0502 C   0  0  0  0  0  0
  -28.5671  -25.4874   20.7805 C   0  0  0  0  0  0
  -29.4330  -20.2416   17.3553 C   0  0  0  0  0  0
  -29.7732  -18.1013   20.5659 N   0  0  0  0  0  0
  -29.5732  -20.5259   20.3662 N   0  0  0  0  0  0
  -29.9082  -15.6389   20.8161 N   0  0  0  0  0  0
  -29.8657  -23.0346   21.6441 O   0  0  0  0  0  0
  -27.4448  -21.2199   19.8739 O   0  0  0  0  0  0
  -29.4070  -15.4581   18.0854 F   0  0  0  0  0  0
  -29.9759  -19.8618   16.1950 F   0  0  0  0  0  0
  -28.1652  -20.5794   17.1219 F   0  0  0  0  0  0
  -30.1109  -21.3178   17.7537 F   0  0  0  0  0  0
  -31.4815  -12.4316   19.1537 H   0  0  0  0  0  0
  -30.3601  -11.3330   19.9052 H   0  0  0  0  0  0
  -29.7336  -11.5980   17.5388 H   0  0  0  0  0  0
  -29.7331  -13.3118   17.6461 H   0  0  0  0  0  0
  -27.7983  -11.3127   18.8269 H   0  0  0  0  0  0
  -27.3996  -12.6496   17.7790 H   0  0  0  0  0  0
  -27.6874  -14.2606   19.5439 H   0  0  0  0  0  0
  -28.6897  -12.0407   21.3927 H   0  0  0  0  0  0
  -28.4692  -13.7117   21.8336 H   0  0  0  0  0  0
  -25.2739   -9.5695   22.4746 H   0  0  0  0  0  0
  -23.9988   -7.4664   22.7521 H   0  0  0  0  0  0
  -21.0799   -8.8749   19.8996 H   0  0  0  0  0  0
  -22.3643  -10.9645   19.6182 H   0  0  0  0  0  0
  -21.2009   -7.6112   23.9643 H   0  0  0  0  0  0
  -21.1507   -6.0503   25.9031 H   0  0  0  0  0  0
  -22.0626   -2.7585   23.2802 H   0  0  0  0  0  0
  -22.4095  -11.9930   22.4746 H   0  0  0  0  0  0
  -21.1147  -13.1337   22.2541 H   0  0  0  0  0  0
  -24.6987  -15.8522   20.6255 H   0  0  0  0  0  0
  -26.2909  -15.6346   20.1096 H   0  0  0  0  0  0
  -26.7111  -32.5512   23.1109 H   0  0  0  0  0  0
  -25.0080  -33.9754   25.0453 H   0  0  0  0  0  0
  -22.6944  -31.3003   21.4067 H   0  0  0  0  0  0
  -23.3751  -35.9635   23.3296 H   0  0  0  0  0  0
  -24.3577  -36.8926   22.2044 H   0  0  0  0  0  0
  -23.7261  -37.6511   23.6657 H   0  0  0  0  0  0
  -26.0396  -31.5770   20.5800 H   0  0  0  0  0  0
  -26.8311  -30.8872   21.9684 H   0  0  0  0  0  0
  -28.1154  -29.0890   21.1352 H   0  0  0  0  0  0
  -26.0643  -25.9371   19.0361 H   0  0  0  0  0  0
  -23.9785  -27.2658   19.0565 H   0  0  0  0  0  0
  -23.7225  -30.5837   19.4021 H   0  0  0  0  0  0
  -22.7419  -29.2281   19.8727 H   0  0  0  0  0  0
  -25.1298  -36.1926   25.0817 H   0  0  0  0  0  0
  -20.9952  -28.3226   24.1457 H   0  0  0  0  0  0
  -20.5687  -26.2246   23.3601 H   0  0  0  0  0  0
  -21.6637  -26.7442   22.1209 H   0  0  0  0  0  0
  -19.6892  -25.6303   21.1247 H   0  0  0  0  0  0
  -19.6712  -27.3213   20.6755 H   0  0  0  0  0  0
  -17.4188  -26.6688   21.4018 H   0  0  0  0  0  0
  -18.0305  -26.0110   22.9036 H   0  0  0  0  0  0
  -19.7912  -30.7265   24.2305 H   0  0  0  0  0  0
  -17.4993  -31.6272   24.5160 H   0  0  0  0  0  0
  -15.5335  -30.2990   23.7653 H   0  0  0  0  0  0
  -15.8664  -28.0849   22.7032 H   0  0  0  0  0  0
  -24.5894  -30.7081   25.7774 H   0  0  0  0  0  0
  -24.8954  -32.2876   26.4896 H   0  0  0  0  0  0
  -25.8093  -30.8860   27.0182 H   0  0  0  0  0  0
  -26.2817  -29.6815   24.1124 H   0  0  0  0  0  0
  -27.4088  -29.7259   25.4490 H   0  0  0  0  0  0
  -27.8640  -30.4371   23.9171 H   0  0  0  0  0  0
  -27.2649  -33.3613   26.2056 H   0  0  0  0  0  0
  -28.3848  -32.6896   25.0306 H   0  0  0  0  0  0
  -28.0706  -31.8443   26.5381 H   0  0  0  0  0  0
  -28.2575  -38.0115   24.7524 H   0  0  0  0  0  0
  -28.1099  -36.2646   24.6254 H   0  0  0  0  0  0
  -27.2295  -37.1421   25.8855 H   0  0  0  0  0  0
  -20.9275  -29.8737   21.6963 H   0  0  0  0  0  0
  -26.0164  -38.2842   24.1448 H   0  0  0  0  0  0
  -29.2819  -17.6420   16.7590 H   0  0  0  0  0  0
  -27.3042  -23.9242   19.8999 H   0  0  0  0  0  0
  -28.8058  -24.1664   19.0538 H   0  0  0  0  0  0
  -29.5941  -25.5426   21.1450 H   0  0  0  0  0  0
  -27.9367  -25.5364   21.6678 H   0  0  0  0  0  0
  -30.4035  -20.8182   20.8644 H   0  0  0  0  0  0
  -29.0809  -15.4209   21.3444 H   0  0  0  0  0  0
  1 25  1  0  0  0
  1 30  2  0  0  0
  1 83  1  0  0  0
  2  3  1  0  0  0
  2 25  1  0  0  0
  2 90  1  0  0  0
  2 91  1  0  0  0
  3  4  1  0  0  0
  3 92  1  0  0  0
  3 93  1  0  0  0
  4  5  1  0  0  0
  4 94  1  0  0  0
  4 95  1  0  0  0
  5  6  1  0  0  0
  5 26  1  0  0  0
  5 96  1  0  0  0
  6 25  1  0  0  0
  6 97  1  0  0  0
  6 98  1  0  0  0
  7  8  2  0  0  0
  7 26  1  0  0  0
  7 29  1  0  0  0
  8  9  1  0  0  0
  8 22  1  0  0  0
  9 10  1  0  0  0
  9 27  2  0  0  0
 10 11  2  0  0  0
 10 15  1  0  0  0
 11 12  1  0  0  0
 11 99  1  0  0  0
 12 13  2  0  0  0
 12100  1  0  0  0
 13 14  1  0  0  0
 13 31  1  0  0  0
 14 15  2  0  0  0
 14101  1  0  0  0
 15102  1  0  0  0
 16 17  2  0  0  0
 16 21  1  0  0  0
 16 31  1  0  0  0
 17 18  1  0  0  0
 17103  1  0  0  0
 18 19  2  0  0  0
 18104  1  0  0  0
 19 20  1  0  0  0
 19 24  1  0  0  0
 20 21  2  0  0  0
 20105  1  0  0  0
 21 23  1  0  0  0
 22 28  1  0  0  0
 22 32  2  0  0  0
 26 27  1  0  0  0
 28106  1  0  0  0
 28107  1  0  0  0
 29108  1  0  0  0
 29109  1  0  0  0
 33 34  1  0  0  0
 33 66  1  0  0  0
 33 70  2  0  0  0
 34 36  1  0  0  0
 34 59  1  0  0  0
 34110  1  0  0  0
 35 44  2  0  0  0
 35 45  1  0  0  0
 35 68  1  0  0  0
 36 56  1  0  0  0
 36111  1  0  0  0
 37 39  1  0  0  0
 37 47  1  0  0  0
 37 66  1  0  0  0
 37112  1  0  0  0
 38 43  2  0  0  0
 38 46  1  0  0  0
 38 47  1  0  0  0
 39 64  1  0  0  0
 39 67  2  0  0  0
 40 52  1  0  0  0
 40 53  2  0  0  0
 40 58  1  0  0  0
 41113  1  0  0  0
 41114  1  0  0  0
 41115  1  0  0  0
 41 48  1  0  0  0
 42 43  1  0  0  0
 42 66  1  0  0  0
 42116  1  0  0  0
 42117  1  0  0  0
 43 44  1  0  0  0
 44118  1  0  0  0
 45 46  2  0  0  0
 45119  1  0  0  0
 46120  1  0  0  0
 47121  1  0  0  0
 47122  1  0  0  0
 48 56  1  0  0  0
 48 65  1  0  0  0
 48123  1  0  0  0
 49 50  1  0  0  0
 49 53  1  0  0  0
 49 64  1  0  0  0
 49124  1  0  0  0
 50 51  1  0  0  0
 50125  1  0  0  0
 50126  1  0  0  0
 51 52  1  0  0  0
 51127  1  0  0  0
 51128  1  0  0  0
 52129  1  0  0  0
 52130  1  0  0  0
 53 54  1  0  0  0
 54 55  2  0  0  0
 54131  1  0  0  0
 55 57  1  0  0  0
 55132  1  0  0  0
 56 69  2  0  0  0
 57 58  2  0  0  0
 57133  1  0  0  0
 58134  1  0  0  0
 59 60  1  0  0  0
 59 61  1  0  0  0
 59 62  1  0  0  0
 60135  1  0  0  0
 60136  1  0  0  0
 60137  1  0  0  0
 61138  1  0  0  0
 61139  1  0  0  0
 61140  1  0  0  0
 62141  1  0  0  0
 62142  1  0  0  0
 62143  1  0  0  0
 63 65  1  0  0  0
 63144  1  0  0  0
 63145  1  0  0  0
 63146  1  0  0  0
 64147  1  0  0  0
 65148  1  0  0  0
 68 79  1  0  0  0
 71 72  2  0  0  0
 71 73  1  0  0  0
 71149  1  0  0  0
 72 74  1  0  0  0
 72 80  1  0  0  0
 73 75  2  0  0  0
 73 86  1  0  0  0
 74 81  2  0  0  0
 74 82  1  0  0  0
 75 81  1  0  0  0
 75 83  1  0  0  0
 76 77  1  0  0  0
 76 78  1  0  0  0
 76 84  2  0  0  0
 77 82  1  0  0  0
 77 85  2  0  0  0
 78 79  1  0  0  0
 78150  1  0  0  0
 78151  1  0  0  0
 79152  1  0  0  0
 79153  1  0  0  0
 80 87  1  0  0  0
 80 88  1  0  0  0
 80 89  1  0  0  0
 82154  1  0  0  0
 83155  1  0  0  0
M  ISO  4   1 100  68 101  79 101  83 100
M  END
> <chiral flag>
0

> <version>
0

> <s_m_source_file>
/data/baiqing/PycharmProjects/Reinvent-master-3.2/result/LINK_invent/BTK/process_docking_weight1_custom_product_contain_oxygen_bond_distance_aromatic_linkinvent_7_9_3/rearranged_h_0177.sdf

> <i_m_source_file_index>
31

> <r_mmod_Potential_Energy-OPLS-2005>
-143.351379394531

> <r_mmod_Stretch_Energy-OPLS-2005>
53.0362205505371

> <r_mmod_Bend_Energy-OPLS-2005>
113.845497131348

> <r_mmod_Torsional_Energy-OPLS-2005>
307.181884765625

> <r_mmod_Improper_Torsional_Energy-OPLS-2005>
6.53611326217651

> <r_mmod_Van_der_Waal_Energy-OPLS-2005>
155.370147705078

> <r_mmod_Electrostatic_Energy-OPLS-2005>
-575.411437988281

> <r_mmod_Solvation_Energy-OPLS-2005>
-228.092651367188

> <b_mmod_Minimization_Converged-OPLS-2005>
0

> <r_mmod_RMS_Derivative-OPLS-2005>
4.66597318649292

$$$$
31
                    3D
 Structure written by MMmdl.
154162  0  0  1  0            999 V2000
  -30.7156  -14.4797   20.5263 C   0  0  0  0  0  0
  -30.4070  -12.2897   19.4298 C   0  0  0  0  0  0
  -29.4914  -12.4990   18.2058 C   0  0  0  0  0  0
  -28.0072  -12.3760   18.6031 C   0  0  0  0  0  0
  -27.6520  -13.2193   19.8589 C   0  0  2  0  0  0
  -28.6963  -13.0296   20.9827 C   0  0  0  0  0  0
  -25.2513  -13.8188   20.5677 C   0  0  0  0  0  0
  -24.1776  -13.0434   20.9153 C   0  0  0  0  0  0
  -24.6371  -11.6920   20.8708 C   0  0  0  0  0  0
  -23.9053  -10.4297   21.0386 C   0  0  0  0  0  0
  -24.3609   -9.4216   21.9173 C   0  0  0  0  0  0
  -23.6298   -8.2241   22.0747 C   0  0  0  0  0  0
  -22.4284   -8.0271   21.3536 C   0  0  0  0  0  0
  -21.9906   -9.0235   20.4636 C   0  0  0  0  0  0
  -22.7227  -10.2118   20.3043 C   0  0  0  0  0  0
  -21.6856   -6.0754   22.5288 C   0  0  0  0  0  0
  -21.4019   -6.5650   23.8224 C   0  0  0  0  0  0
  -21.3652   -5.6794   24.9178 C   0  0  0  0  0  0
  -21.6036   -4.3058   24.7225 C   0  0  0  0  0  0
  -21.8818   -3.8159   23.4345 C   0  0  0  0  0  0
  -21.9189   -4.6982   22.3405 C   0  0  0  0  0  0
  -22.7798  -13.5207   21.1828 C   0  0  0  0  0  0
  -22.1658   -4.2170   21.0980 F   0  0  0  0  0  0
  -21.5622   -3.4537   25.7731 F   0  0  0  0  0  0
  -30.0308  -13.3042   20.4297 N   0  0  0  0  0  0
  -26.2967  -12.9397   20.3298 N   0  0  0  0  0  0
  -25.9292  -11.6542   20.5694 N   0  0  0  0  0  0
  -22.0454  -12.8200   22.0407 N   0  0  0  0  0  0
  -25.4145  -15.1924   20.4142 N   0  0  0  0  0  0
  -31.8632  -14.6185   20.1005 O   0  0  0  0  0  0
  -21.6631   -6.8889   21.4256 O   0  0  0  0  0  0
  -22.3461  -14.5511   20.6686 O   0  0  0  0  0  0
  -24.6160  -31.8660   23.2049 C   0  0  0  0  0  0
  -25.9030  -32.4794   23.8389 C   0  0  1  0  0  0
  -27.2465  -27.3832   20.1322 C   0  0  0  0  0  0
  -25.5862  -33.8602   24.2287 N   0  0  0  0  0  0
  -23.4121  -30.4854   21.5424 C   0  0  2  0  0  0
  -24.8719  -28.9436   20.1179 C   0  0  0  0  0  0
  -22.7395  -29.4676   22.4938 C   0  0  0  0  0  0
  -18.0297  -28.1412   22.8392 C   0  0  0  0  0  0
  -24.1482  -36.7325   23.2640 C   0  0  0  0  0  0
  -25.9463  -30.8142   21.3718 C   0  0  0  0  0  0
  -26.0328  -29.4416   20.7278 C   0  0  0  0  0  0
  -27.2236  -28.6685   20.7339 C   0  0  0  0  0  0
  -26.0783  -26.9315   19.4814 C   0  0  0  0  0  0
  -24.8937  -27.6882   19.4897 C   0  0  0  0  0  0
  -23.6333  -29.8122   20.1610 C   0  0  0  0  0  0
  -25.4106  -36.3097   24.0329 C   0  0  1  0  0  0
  -20.5879  -28.3706   23.1376 C   0  0  2  0  0  0
  -20.6728  -26.9362   22.5657 C   0  0  0  0  0  0
  -19.5914  -26.6434   21.5212 C   0  0  0  0  0  0
  -18.2012  -26.7998   22.1443 C   0  0  0  0  0  0
  -19.1509  -28.8838   23.2947 C   0  0  0  0  0  0
  -18.9389  -30.1393   23.9023 C   0  0  0  0  0  0
  -17.6398  -30.6531   24.0632 C   0  0  0  0  0  0
  -25.9039  -34.9451   23.5119 C   0  0  0  0  0  0
  -16.5319  -29.9052   23.6286 C   0  0  0  0  0  0
  -16.7280  -28.6518   23.0186 C   0  0  0  0  0  0
  -26.4449  -31.6593   25.0729 C   0  0  0  0  0  0
  -25.3688  -31.3734   26.1461 C   0  0  0  0  0  0
  -27.0287  -30.3023   24.6107 C   0  0  0  0  0  0
  -27.6008  -32.4335   25.7506 C   0  0  0  0  0  0
  -27.5582  -37.1804   24.8457 C   0  0  0  0  0  0
  -21.4125  -29.3005   22.3635 N   0  0  0  0  0  0
  -26.4291  -37.3773   23.9398 N   0  0  0  0  0  0
  -24.6758  -31.0705   22.0979 N   0  0  0  0  0  0
  -23.4132  -28.8316   23.3078 O   0  0  0  0  0  0
  -28.3504  -26.5392   20.1575 O   0  0  0  0  0  0
  -26.5641  -34.8906   22.4688 O   0  0  0  0  0  0
  -23.5330  -32.1459   23.7379 O   0  0  0  0  0  0
  -27.9269  -18.8505   22.9755 C   0  0  0  0  0  0
  -28.6163  -17.7755   22.3877 C   0  0  0  0  0  0
  -28.2361  -20.1718   22.6027 C   0  0  0  0  0  0
  -29.6203  -18.0616   21.4358 C   0  0  0  0  0  0
  -29.2295  -20.3886   21.6092 C   0  0  0  0  0  0
  -30.4922  -16.9507   20.8132 C   0  0  0  0  0  0
  -28.9557  -22.9351   21.5610 C   0  0  0  0  0  0
  -29.1735  -24.2065   20.6525 C   0  0  1  0  0  0
  -28.3341  -25.4844   21.0606 C   0  0  0  0  0  0
  -29.9057  -19.3439   21.0562 N   0  0  0  0  0  0
  -29.5982  -21.6694   21.1256 N   0  0  0  0  0  0
  -30.0161  -15.5541   20.9330 N   0  0  0  0  0  0
  -28.3217  -16.5066   22.7641 F   0  0  0  0  0  0
  -27.5795  -21.1920   23.2114 F   0  0  0  0  0  0
  -30.4773  -24.4990   20.6109 F   0  0  0  0  0  0
  -27.0754  -24.9972   21.2132 F   0  0  0  0  0  0
  -28.7362  -25.9180   22.2827 F   0  0  0  0  0  0
  -31.4531  -12.3567   19.1270 H   0  0  0  0  0  0
  -30.2777  -11.2864   19.8390 H   0  0  0  0  0  0
  -29.7321  -11.7873   17.4148 H   0  0  0  0  0  0
  -29.6685  -13.4889   17.7864 H   0  0  0  0  0  0
  -27.7869  -11.3222   18.7796 H   0  0  0  0  0  0
  -27.3767  -12.6783   17.7650 H   0  0  0  0  0  0
  -27.6821  -14.2631   19.5455 H   0  0  0  0  0  0
  -28.6595  -12.0057   21.3533 H   0  0  0  0  0  0
  -28.4630  -13.6680   21.8359 H   0  0  0  0  0  0
  -25.2767   -9.5691   22.4726 H   0  0  0  0  0  0
  -24.0011   -7.4643   22.7464 H   0  0  0  0  0  0
  -21.0843   -8.8742   19.8948 H   0  0  0  0  0  0
  -22.3692  -10.9633   19.6124 H   0  0  0  0  0  0
  -21.2020   -7.6156   23.9747 H   0  0  0  0  0  0
  -21.1474   -6.0511   25.9082 H   0  0  0  0  0  0
  -22.0607   -2.7625   23.2828 H   0  0  0  0  0  0
  -22.4092  -11.9859   22.4765 H   0  0  0  0  0  0
  -21.1065  -13.1189   22.2650 H   0  0  0  0  0  0
  -24.6448  -15.8401   20.5478 H   0  0  0  0  0  0
  -26.2821  -15.6508   20.1690 H   0  0  0  0  0  0
  -26.7129  -32.5509   23.1193 H   0  0  0  0  0  0
  -24.9934  -33.9758   25.0388 H   0  0  0  0  0  0
  -22.7094  -31.3063   21.3887 H   0  0  0  0  0  0
  -23.3717  -35.9688   23.3316 H   0  0  0  0  0  0
  -24.3557  -36.8930   22.2046 H   0  0  0  0  0  0
  -23.7270  -37.6542   23.6667 H   0  0  0  0  0  0
  -26.0586  -31.5696   20.5932 H   0  0  0  0  0  0
  -26.8292  -30.8772   21.9959 H   0  0  0  0  0  0
  -28.1129  -29.0432   21.2214 H   0  0  0  0  0  0
  -26.0756  -25.9667   18.9958 H   0  0  0  0  0  0
  -24.0067  -27.2971   19.0100 H   0  0  0  0  0  0
  -23.7621  -30.5798   19.3983 H   0  0  0  0  0  0
  -22.7580  -29.2344   19.8556 H   0  0  0  0  0  0
  -25.1273  -36.1980   25.0826 H   0  0  0  0  0  0
  -21.0001  -28.3396   24.1511 H   0  0  0  0  0  0
  -20.5200  -26.2361   23.3904 H   0  0  0  0  0  0
  -21.6689  -26.7157   22.1795 H   0  0  0  0  0  0
  -19.7091  -25.6375   21.1161 H   0  0  0  0  0  0
  -19.6999  -27.3344   20.6847 H   0  0  0  0  0  0
  -17.4370  -26.6746   21.3741 H   0  0  0  0  0  0
  -18.0341  -26.0148   22.8809 H   0  0  0  0  0  0
  -19.7855  -30.7132   24.2538 H   0  0  0  0  0  0
  -17.4920  -31.6194   24.5272 H   0  0  0  0  0  0
  -15.5319  -30.2939   23.7562 H   0  0  0  0  0  0
  -15.8693  -28.0915   22.6712 H   0  0  0  0  0  0
  -24.5854  -30.7101   25.7767 H   0  0  0  0  0  0
  -24.8903  -32.2926   26.4854 H   0  0  0  0  0  0
  -25.7986  -30.8919   27.0266 H   0  0  0  0  0  0
  -26.2852  -29.6816   24.1080 H   0  0  0  0  0  0
  -27.3991  -29.7185   25.4552 H   0  0  0  0  0  0
  -27.8723  -30.4314   23.9316 H   0  0  0  0  0  0
  -27.2584  -33.3622   26.2094 H   0  0  0  0  0  0
  -28.3808  -32.6930   25.0333 H   0  0  0  0  0  0
  -28.0718  -31.8490   26.5423 H   0  0  0  0  0  0
  -28.2580  -38.0113   24.7473 H   0  0  0  0  0  0
  -28.1094  -36.2628   24.6323 H   0  0  0  0  0  0
  -27.2292  -37.1493   25.8857 H   0  0  0  0  0  0
  -20.9333  -29.8528   21.6673 H   0  0  0  0  0  0
  -26.0188  -38.2860   24.1386 H   0  0  0  0  0  0
  -27.1678  -18.6525   23.7180 H   0  0  0  0  0  0
  -31.4701  -17.0191   21.2894 H   0  0  0  0  0  0
  -30.6575  -17.1838   19.7575 H   0  0  0  0  0  0
  -29.2936  -23.1460   22.5747 H   0  0  0  0  0  0
  -27.8833  -22.7628   21.6194 H   0  0  0  0  0  0
  -28.8908  -23.9416   19.6356 H   0  0  0  0  0  0
  -30.4226  -21.7326   20.5409 H   0  0  0  0  0  0
  -29.0765  -15.4239   21.2781 H   0  0  0  0  0  0
  1 25  1  0  0  0
  1 30  2  0  0  0
  1 82  1  0  0  0
  2  3  1  0  0  0
  2 25  1  0  0  0
  2 88  1  0  0  0
  2 89  1  0  0  0
  3  4  1  0  0  0
  3 90  1  0  0  0
  3 91  1  0  0  0
  4  5  1  0  0  0
  4 92  1  0  0  0
  4 93  1  0  0  0
  5  6  1  0  0  0
  5 26  1  0  0  0
  5 94  1  0  0  0
  6 25  1  0  0  0
  6 95  1  0  0  0
  6 96  1  0  0  0
  7  8  2  0  0  0
  7 26  1  0  0  0
  7 29  1  0  0  0
  8  9  1  0  0  0
  8 22  1  0  0  0
  9 10  1  0  0  0
  9 27  2  0  0  0
 10 11  2  0  0  0
 10 15  1  0  0  0
 11 12  1  0  0  0
 11 97  1  0  0  0
 12 13  2  0  0  0
 12 98  1  0  0  0
 13 14  1  0  0  0
 13 31  1  0  0  0
 14 15  2  0  0  0
 14 99  1  0  0  0
 15100  1  0  0  0
 16 17  2  0  0  0
 16 21  1  0  0  0
 16 31  1  0  0  0
 17 18  1  0  0  0
 17101  1  0  0  0
 18 19  2  0  0  0
 18102  1  0  0  0
 19 20  1  0  0  0
 19 24  1  0  0  0
 20 21  2  0  0  0
 20103  1  0  0  0
 21 23  1  0  0  0
 22 28  1  0  0  0
 22 32  2  0  0  0
 26 27  1  0  0  0
 28104  1  0  0  0
 28105  1  0  0  0
 29106  1  0  0  0
 29107  1  0  0  0
 33 34  1  0  0  0
 33 66  1  0  0  0
 33 70  2  0  0  0
 34 36  1  0  0  0
 34 59  1  0  0  0
 34108  1  0  0  0
 35 44  2  0  0  0
 35 45  1  0  0  0
 35 68  1  0  0  0
 36 56  1  0  0  0
 36109  1  0  0  0
 37 39  1  0  0  0
 37 47  1  0  0  0
 37 66  1  0  0  0
 37110  1  0  0  0
 38 43  2  0  0  0
 38 46  1  0  0  0
 38 47  1  0  0  0
 39 64  1  0  0  0
 39 67  2  0  0  0
 40 52  1  0  0  0
 40 53  2  0  0  0
 40 58  1  0  0  0
 41111  1  0  0  0
 41112  1  0  0  0
 41113  1  0  0  0
 41 48  1  0  0  0
 42 43  1  0  0  0
 42 66  1  0  0  0
 42114  1  0  0  0
 42115  1  0  0  0
 43 44  1  0  0  0
 44116  1  0  0  0
 45 46  2  0  0  0
 45117  1  0  0  0
 46118  1  0  0  0
 47119  1  0  0  0
 47120  1  0  0  0
 48 56  1  0  0  0
 48 65  1  0  0  0
 48121  1  0  0  0
 49 50  1  0  0  0
 49 53  1  0  0  0
 49 64  1  0  0  0
 49122  1  0  0  0
 50 51  1  0  0  0
 50123  1  0  0  0
 50124  1  0  0  0
 51 52  1  0  0  0
 51125  1  0  0  0
 51126  1  0  0  0
 52127  1  0  0  0
 52128  1  0  0  0
 53 54  1  0  0  0
 54 55  2  0  0  0
 54129  1  0  0  0
 55 57  1  0  0  0
 55130  1  0  0  0
 56 69  2  0  0  0
 57 58  2  0  0  0
 57131  1  0  0  0
 58132  1  0  0  0
 59 60  1  0  0  0
 59 61  1  0  0  0
 59 62  1  0  0  0
 60133  1  0  0  0
 60134  1  0  0  0
 60135  1  0  0  0
 61136  1  0  0  0
 61137  1  0  0  0
 61138  1  0  0  0
 62139  1  0  0  0
 62140  1  0  0  0
 62141  1  0  0  0
 63 65  1  0  0  0
 63142  1  0  0  0
 63143  1  0  0  0
 63144  1  0  0  0
 64145  1  0  0  0
 65146  1  0  0  0
 68 79  1  0  0  0
 71 72  2  0  0  0
 71 73  1  0  0  0
 71147  1  0  0  0
 72 74  1  0  0  0
 72 83  1  0  0  0
 73 75  2  0  0  0
 73 84  1  0  0  0
 74 76  1  0  0  0
 74 80  2  0  0  0
 75 80  1  0  0  0
 75 81  1  0  0  0
 76 82  1  0  0  0
 76148  1  0  0  0
 76149  1  0  0  0
 77 78  1  0  0  0
 77 81  1  0  0  0
 77150  1  0  0  0
 77151  1  0  0  0
 78 79  1  0  0  0
 78 85  1  0  0  0
 78152  1  0  0  0
 79 86  1  0  0  0
 79 87  1  0  0  0
 81153  1  0  0  0
 82154  1  0  0  0
M  ISO  4   1 100  68 101  79 101  82 100
M  END
> <chiral flag>
0

> <version>
0

> <s_m_source_file>
/data/baiqing/PycharmProjects/Reinvent-master-3.2/result/LINK_invent/BTK/process_docking_weight1_custom_product_contain_oxygen_bond_distance_aromatic_linkinvent_7_9_3/rearranged_h_0177.sdf

> <i_m_source_file_index>
32

> <r_mmod_Potential_Energy-OPLS-2005>
-196.717788696289

> <r_mmod_Stretch_Energy-OPLS-2005>
51.5907554626465

> <r_mmod_Bend_Energy-OPLS-2005>
117.744575500488

> <r_mmod_Torsional_Energy-OPLS-2005>
186.775756835938

> <r_mmod_Improper_Torsional_Energy-OPLS-2005>
4.43599653244019

> <r_mmod_Van_der_Waal_Energy-OPLS-2005>
159.699691772461

> <r_mmod_Electrostatic_Energy-OPLS-2005>
-530.396057128906

> <r_mmod_Solvation_Energy-OPLS-2005>
-209.956665039062

> <b_mmod_Minimization_Converged-OPLS-2005>
0

> <r_mmod_RMS_Derivative-OPLS-2005>
4.67904853820801

$$$$
32
                    3D
 Structure written by MMmdl.
158166  0  0  1  0            999 V2000
  -30.6705  -14.4858   20.5658 C   0  0  0  0  0  0
  -30.4336  -12.3169   19.4158 C   0  0  0  0  0  0
  -29.4936  -12.5130   18.2072 C   0  0  0  0  0  0
  -28.0165  -12.3563   18.6232 C   0  0  0  0  0  0
  -27.6612  -13.1914   19.8815 C   0  0  2  0  0  0
  -28.7064  -12.9652   20.9976 C   0  0  0  0  0  0
  -25.2590  -13.8106   20.5679 C   0  0  0  0  0  0
  -24.1831  -13.0410   20.9191 C   0  0  0  0  0  0
  -24.6370  -11.6869   20.8745 C   0  0  0  0  0  0
  -23.9035  -10.4273   21.0409 C   0  0  0  0  0  0
  -24.3600   -9.4199   21.9188 C   0  0  0  0  0  0
  -23.6280   -8.2232   22.0745 C   0  0  0  0  0  0
  -22.4264   -8.0268   21.3542 C   0  0  0  0  0  0
  -21.9887   -9.0241   20.4649 C   0  0  0  0  0  0
  -22.7208  -10.2125   20.3059 C   0  0  0  0  0  0
  -21.6853   -6.0728   22.5274 C   0  0  0  0  0  0
  -21.4016   -6.5636   23.8204 C   0  0  0  0  0  0
  -21.3657   -5.6793   24.9161 C   0  0  0  0  0  0
  -21.6040   -4.3056   24.7216 C   0  0  0  0  0  0
  -21.8820   -3.8144   23.4338 C   0  0  0  0  0  0
  -21.9198   -4.6960   22.3400 C   0  0  0  0  0  0
  -22.7862  -13.5237   21.1858 C   0  0  0  0  0  0
  -22.1663   -4.2147   21.0977 F   0  0  0  0  0  0
  -21.5629   -3.4543   25.7730 F   0  0  0  0  0  0
  -30.0358  -13.2873   20.4463 N   0  0  0  0  0  0
  -26.3015  -12.9246   20.3401 N   0  0  0  0  0  0
  -25.9302  -11.6428   20.5794 N   0  0  0  0  0  0
  -22.0501  -12.8225   22.0410 N   0  0  0  0  0  0
  -25.4297  -15.1823   20.4028 N   0  0  0  0  0  0
  -31.8002  -14.7080   20.1230 O   0  0  0  0  0  0
  -21.6635   -6.8866   21.4231 O   0  0  0  0  0  0
  -22.3557  -14.5559   20.6726 O   0  0  0  0  0  0
  -24.6131  -31.8669   23.2109 C   0  0  0  0  0  0
  -25.9025  -32.4836   23.8402 C   0  0  1  0  0  0
  -27.2460  -27.4359   20.1024 C   0  0  0  0  0  0
  -25.5879  -33.8636   24.2323 N   0  0  0  0  0  0
  -23.4017  -30.4865   21.5512 C   0  0  2  0  0  0
  -24.8523  -28.9476   20.1218 C   0  0  0  0  0  0
  -22.7401  -29.4631   22.5015 C   0  0  0  0  0  0
  -18.0264  -28.1352   22.8500 C   0  0  0  0  0  0
  -24.1483  -36.7315   23.2634 C   0  0  0  0  0  0
  -25.9286  -30.8325   21.3635 C   0  0  0  0  0  0
  -26.0105  -29.4657   20.7133 C   0  0  0  0  0  0
  -27.2107  -28.7193   20.6947 C   0  0  0  0  0  0
  -26.0704  -26.9300   19.5053 C   0  0  0  0  0  0
  -24.8770  -27.6785   19.5150 C   0  0  0  0  0  0
  -23.6108  -29.8098   20.1692 C   0  0  0  0  0  0
  -25.4101  -36.3116   24.0337 C   0  0  1  0  0  0
  -20.5855  -28.3622   23.1344 C   0  0  2  0  0  0
  -20.6752  -26.9348   22.5454 C   0  0  0  0  0  0
  -19.5742  -26.6354   21.5231 C   0  0  0  0  0  0
  -18.1904  -26.7917   22.1598 C   0  0  0  0  0  0
  -19.1510  -28.8800   23.2923 C   0  0  0  0  0  0
  -18.9450  -30.1418   23.8920 C   0  0  0  0  0  0
  -17.6447  -30.6569   24.0564 C   0  0  0  0  0  0
  -25.9037  -34.9487   23.5133 C   0  0  0  0  0  0
  -16.5333  -29.9070   23.6325 C   0  0  0  0  0  0
  -16.7253  -28.6483   23.0351 C   0  0  0  0  0  0
  -26.4465  -31.6627   25.0732 C   0  0  0  0  0  0
  -25.3738  -31.3726   26.1491 C   0  0  0  0  0  0
  -27.0278  -30.3076   24.6098 C   0  0  0  0  0  0
  -27.6067  -32.4337   25.7460 C   0  0  0  0  0  0
  -27.5613  -37.1765   24.8421 C   0  0  0  0  0  0
  -21.4126  -29.3010   22.3767 N   0  0  0  0  0  0
  -26.4273  -37.3817   23.9449 N   0  0  0  0  0  0
  -24.6660  -31.0753   22.1014 N   0  0  0  0  0  0
  -23.4178  -28.8190   23.3058 O   0  0  0  0  0  0
  -28.4341  -26.7357   20.0665 O   0  0  0  0  0  0
  -26.5603  -34.8938   22.4700 O   0  0  0  0  0  0
  -23.5322  -32.1426   23.7501 O   0  0  0  0  0  0
  -29.5297  -19.0390   19.8833 C   0  0  0  0  0  0
  -30.9102  -17.5934   21.7505 C   0  0  0  0  0  0
  -29.3876  -17.6318   19.8778 C   0  0  0  0  0  0
  -30.0852  -16.8813   20.8609 C   0  0  0  0  0  0
  -30.3578  -19.6756   20.8303 C   0  0  0  0  0  0
  -28.5290  -17.0016   18.8458 C   0  0  0  0  0  0
  -29.4932  -24.5670   19.6763 C   0  0  0  0  0  0
  -29.7341  -22.0929   20.4150 C   0  0  0  0  0  0
  -31.8087  -23.5225   19.9096 C   0  0  0  0  0  0
  -28.4091  -25.3468   20.4460 C   0  0  0  0  0  0
  -30.3503  -23.5202   20.4391 C   0  0  1  0  0  0
  -31.0498  -18.9388   21.7286 N   0  0  0  0  0  0
  -27.6228  -17.5948   18.1905 N   0  0  0  0  0  0
  -29.8927  -15.4739   21.0470 N   0  0  0  0  0  0
  -30.5536  -21.0881   20.8064 N   0  0  0  0  0  0
  -29.6949  -24.8016   18.4768 O   0  0  0  0  0  0
  -28.5494  -21.9201   20.1115 O   0  0  0  0  0  0
  -31.4735  -12.4431   19.1100 H   0  0  0  0  0  0
  -30.3580  -11.3000   19.8050 H   0  0  0  0  0  0
  -29.7354  -11.7983   17.4201 H   0  0  0  0  0  0
  -29.6485  -13.5037   17.7770 H   0  0  0  0  0  0
  -27.8378  -11.2986   18.8221 H   0  0  0  0  0  0
  -27.3591  -12.6253   17.7959 H   0  0  0  0  0  0
  -27.6990  -14.2373   19.5900 H   0  0  0  0  0  0
  -28.6878  -11.9249   21.3270 H   0  0  0  0  0  0
  -28.4654  -13.5516   21.8861 H   0  0  0  0  0  0
  -25.2741   -9.5688   22.4768 H   0  0  0  0  0  0
  -23.9996   -7.4623   22.7460 H   0  0  0  0  0  0
  -21.0813   -8.8760   19.8964 H   0  0  0  0  0  0
  -22.3657  -10.9668   19.6179 H   0  0  0  0  0  0
  -21.2005   -7.6142   23.9706 H   0  0  0  0  0  0
  -21.1474   -6.0519   25.9065 H   0  0  0  0  0  0
  -22.0605   -2.7608   23.2835 H   0  0  0  0  0  0
  -22.4107  -11.9863   22.4757 H   0  0  0  0  0  0
  -21.1139  -13.1272   22.2665 H   0  0  0  0  0  0
  -24.6449  -15.8207   20.4699 H   0  0  0  0  0  0
  -26.2504  -15.6146   19.9982 H   0  0  0  0  0  0
  -26.7089  -32.5541   23.1158 H   0  0  0  0  0  0
  -25.0030  -33.9821   25.0465 H   0  0  0  0  0  0
  -22.6897  -31.3022   21.4077 H   0  0  0  0  0  0
  -23.3805  -35.9584   23.3189 H   0  0  0  0  0  0
  -24.3596  -36.9042   22.2072 H   0  0  0  0  0  0
  -23.7157  -37.6450   23.6724 H   0  0  0  0  0  0
  -26.0366  -31.5985   20.5952 H   0  0  0  0  0  0
  -26.8167  -30.8886   21.9809 H   0  0  0  0  0  0
  -28.1107  -29.1228   21.1394 H   0  0  0  0  0  0
  -26.0731  -25.9695   19.0099 H   0  0  0  0  0  0
  -23.9878  -27.2764   19.0499 H   0  0  0  0  0  0
  -23.7103  -30.5801   19.4033 H   0  0  0  0  0  0
  -22.7380  -29.2219   19.8788 H   0  0  0  0  0  0
  -25.1263  -36.1955   25.0824 H   0  0  0  0  0  0
  -20.9922  -28.3173   24.1473 H   0  0  0  0  0  0
  -20.5610  -26.2226   23.3641 H   0  0  0  0  0  0
  -21.6627  -26.7364   22.1264 H   0  0  0  0  0  0
  -19.6898  -25.6272   21.1242 H   0  0  0  0  0  0
  -19.6723  -27.3189   20.6785 H   0  0  0  0  0  0
  -17.4204  -26.6732   21.3957 H   0  0  0  0  0  0
  -18.0224  -26.0014   22.8922 H   0  0  0  0  0  0
  -19.7924  -30.7235   24.2280 H   0  0  0  0  0  0
  -17.5003  -31.6255   24.5158 H   0  0  0  0  0  0
  -15.5335  -30.2982   23.7652 H   0  0  0  0  0  0
  -15.8642  -28.0818   22.7044 H   0  0  0  0  0  0
  -24.5941  -30.7028   25.7840 H   0  0  0  0  0  0
  -24.8899  -32.2868   26.4938 H   0  0  0  0  0  0
  -25.8108  -30.8924   27.0255 H   0  0  0  0  0  0
  -26.2793  -29.6838   24.1205 H   0  0  0  0  0  0
  -27.4097  -29.7319   25.4539 H   0  0  0  0  0  0
  -27.8609  -30.4389   23.9192 H   0  0  0  0  0  0
  -27.2723  -33.3629   26.2078 H   0  0  0  0  0  0
  -28.3855  -32.6906   25.0263 H   0  0  0  0  0  0
  -28.0778  -31.8442   26.5333 H   0  0  0  0  0  0
  -28.2509  -38.0189   24.7667 H   0  0  0  0  0  0
  -28.1235  -36.2741   24.5964 H   0  0  0  0  0  0
  -27.2377  -37.1048   25.8823 H   0  0  0  0  0  0
  -20.9264  -29.8759   21.7027 H   0  0  0  0  0  0
  -26.0161  -38.2858   24.1608 H   0  0  0  0  0  0
  -29.0186  -19.6306   19.1376 H   0  0  0  0  0  0
  -31.4481  -17.0743   22.5310 H   0  0  0  0  0  0
  -28.7193  -15.9453   18.6443 H   0  0  0  0  0  0
  -32.1488  -24.5296   19.6670 H   0  0  0  0  0  0
  -31.9153  -22.9231   19.0035 H   0  0  0  0  0  0
  -32.5044  -23.1352   20.6536 H   0  0  0  0  0  0
  -28.6033  -25.2736   21.5162 H   0  0  0  0  0  0
  -27.4447  -24.8765   20.2634 H   0  0  0  0  0  0
  -30.3722  -23.8377   21.4818 H   0  0  0  0  0  0
  -27.5558  -18.5655   18.4760 H   0  0  0  0  0  0
  -28.9773  -15.1768   21.3521 H   0  0  0  0  0  0
  -31.4457  -21.3915   21.1665 H   0  0  0  0  0  0
  1 25  1  0  0  0
  1 30  2  0  0  0
  1 84  1  0  0  0
  2  3  1  0  0  0
  2 25  1  0  0  0
  2 88  1  0  0  0
  2 89  1  0  0  0
  3  4  1  0  0  0
  3 90  1  0  0  0
  3 91  1  0  0  0
  4  5  1  0  0  0
  4 92  1  0  0  0
  4 93  1  0  0  0
  5  6  1  0  0  0
  5 26  1  0  0  0
  5 94  1  0  0  0
  6 25  1  0  0  0
  6 95  1  0  0  0
  6 96  1  0  0  0
  7  8  2  0  0  0
  7 26  1  0  0  0
  7 29  1  0  0  0
  8  9  1  0  0  0
  8 22  1  0  0  0
  9 10  1  0  0  0
  9 27  2  0  0  0
 10 11  2  0  0  0
 10 15  1  0  0  0
 11 12  1  0  0  0
 11 97  1  0  0  0
 12 13  2  0  0  0
 12 98  1  0  0  0
 13 14  1  0  0  0
 13 31  1  0  0  0
 14 15  2  0  0  0
 14 99  1  0  0  0
 15100  1  0  0  0
 16 17  2  0  0  0
 16 21  1  0  0  0
 16 31  1  0  0  0
 17 18  1  0  0  0
 17101  1  0  0  0
 18 19  2  0  0  0
 18102  1  0  0  0
 19 20  1  0  0  0
 19 24  1  0  0  0
 20 21  2  0  0  0
 20103  1  0  0  0
 21 23  1  0  0  0
 22 28  1  0  0  0
 22 32  2  0  0  0
 26 27  1  0  0  0
 28104  1  0  0  0
 28105  1  0  0  0
 29106  1  0  0  0
 29107  1  0  0  0
 33 34  1  0  0  0
 33 66  1  0  0  0
 33 70  2  0  0  0
 34 36  1  0  0  0
 34 59  1  0  0  0
 34108  1  0  0  0
 35 44  2  0  0  0
 35 45  1  0  0  0
 35 68  1  0  0  0
 36 56  1  0  0  0
 36109  1  0  0  0
 37 39  1  0  0  0
 37 47  1  0  0  0
 37 66  1  0  0  0
 37110  1  0  0  0
 38 43  2  0  0  0
 38 46  1  0  0  0
 38 47  1  0  0  0
 39 64  1  0  0  0
 39 67  2  0  0  0
 40 52  1  0  0  0
 40 53  2  0  0  0
 40 58  1  0  0  0
 41111  1  0  0  0
 41112  1  0  0  0
 41113  1  0  0  0
 41 48  1  0  0  0
 42 43  1  0  0  0
 42 66  1  0  0  0
 42114  1  0  0  0
 42115  1  0  0  0
 43 44  1  0  0  0
 44116  1  0  0  0
 45 46  2  0  0  0
 45117  1  0  0  0
 46118  1  0  0  0
 47119  1  0  0  0
 47120  1  0  0  0
 48 56  1  0  0  0
 48 65  1  0  0  0
 48121  1  0  0  0
 49 50  1  0  0  0
 49 53  1  0  0  0
 49 64  1  0  0  0
 49122  1  0  0  0
 50 51  1  0  0  0
 50123  1  0  0  0
 50124  1  0  0  0
 51 52  1  0  0  0
 51125  1  0  0  0
 51126  1  0  0  0
 52127  1  0  0  0
 52128  1  0  0  0
 53 54  1  0  0  0
 54 55  2  0  0  0
 54129  1  0  0  0
 55 57  1  0  0  0
 55130  1  0  0  0
 56 69  2  0  0  0
 57 58  2  0  0  0
 57131  1  0  0  0
 58132  1  0  0  0
 59 60  1  0  0  0
 59 61  1  0  0  0
 59 62  1  0  0  0
 60133  1  0  0  0
 60134  1  0  0  0
 60135  1  0  0  0
 61136  1  0  0  0
 61137  1  0  0  0
 61138  1  0  0  0
 62139  1  0  0  0
 62140  1  0  0  0
 62141  1  0  0  0
 63 65  1  0  0  0
 63142  1  0  0  0
 63143  1  0  0  0
 63144  1  0  0  0
 64145  1  0  0  0
 65146  1  0  0  0
 68 80  1  0  0  0
 71 73  2  0  0  0
 71 75  1  0  0  0
 71147  1  0  0  0
 72 74  2  0  0  0
 72 82  1  0  0  0
 72148  1  0  0  0
 73 74  1  0  0  0
 73 76  1  0  0  0
 74 84  1  0  0  0
 75 82  2  0  0  0
 75 85  1  0  0  0
 76 83  2  0  0  0
 76149  1  0  0  0
 77 80  1  0  0  0
 77 81  1  0  0  0
 77 86  2  0  0  0
 78 81  1  0  0  0
 78 85  1  0  0  0
 78 87  2  0  0  0
 79150  1  0  0  0
 79151  1  0  0  0
 79152  1  0  0  0
 79 81  1  0  0  0
 80153  1  0  0  0
 80154  1  0  0  0
 81155  1  0  0  0
 83156  1  0  0  0
 84157  1  0  0  0
 85158  1  0  0  0
M  ISO  4   1 100  68 101  80 101  84 100
M  END
> <chiral flag>
0

> <version>
0

> <s_m_source_file>
/data/baiqing/PycharmProjects/Reinvent-master-3.2/result/LINK_invent/BTK/process_docking_weight1_custom_product_contain_oxygen_bond_distance_aromatic_linkinvent_7_9_3/rearranged_h_0177.sdf

> <i_m_source_file_index>
33

> <r_mmod_Potential_Energy-OPLS-2005>
-253.246109008789

> <r_mmod_Stretch_Energy-OPLS-2005>
40.7002067565918

> <r_mmod_Bend_Energy-OPLS-2005>
104.699371337891

> <r_mmod_Torsional_Energy-OPLS-2005>
291.066619873047

> <r_mmod_Improper_Torsional_Energy-OPLS-2005>
6.16852617263794

> <r_mmod_Van_der_Waal_Energy-OPLS-2005>
158.626586914062

> <r_mmod_Electrostatic_Energy-OPLS-2005>
-605.485229492188

> <r_mmod_Solvation_Energy-OPLS-2005>
-261.968780517578

> <b_mmod_Minimization_Converged-OPLS-2005>
0

> <r_mmod_RMS_Derivative-OPLS-2005>
2.11792469024658

$$$$
33
                    3D
 Structure written by MMmdl.
159167  0  0  1  0            999 V2000
  -30.6958  -14.4328   20.5963 C   0  0  0  0  0  0
  -30.4235  -12.2923   19.4098 C   0  0  0  0  0  0
  -29.4893  -12.5213   18.2030 C   0  0  0  0  0  0
  -28.0095  -12.3921   18.6135 C   0  0  0  0  0  0
  -27.6678  -13.2041   19.8913 C   0  0  2  0  0  0
  -28.7085  -12.9379   21.0041 C   0  0  0  0  0  0
  -25.2607  -13.8168   20.5700 C   0  0  0  0  0  0
  -24.1844  -13.0439   20.9161 C   0  0  0  0  0  0
  -24.6394  -11.6908   20.8740 C   0  0  0  0  0  0
  -23.9049  -10.4297   21.0409 C   0  0  0  0  0  0
  -24.3605   -9.4212   21.9185 C   0  0  0  0  0  0
  -23.6287   -8.2244   22.0757 C   0  0  0  0  0  0
  -22.4272   -8.0277   21.3543 C   0  0  0  0  0  0
  -21.9907   -9.0250   20.4643 C   0  0  0  0  0  0
  -22.7226  -10.2135   20.3053 C   0  0  0  0  0  0
  -21.6851   -6.0734   22.5278 C   0  0  0  0  0  0
  -21.4013   -6.5642   23.8209 C   0  0  0  0  0  0
  -21.3661   -5.6795   24.9171 C   0  0  0  0  0  0
  -21.6043   -4.3057   24.7223 C   0  0  0  0  0  0
  -21.8821   -3.8144   23.4347 C   0  0  0  0  0  0
  -21.9194   -4.6962   22.3404 C   0  0  0  0  0  0
  -22.7870  -13.5238   21.1834 C   0  0  0  0  0  0
  -22.1663   -4.2148   21.0982 F   0  0  0  0  0  0
  -21.5631   -3.4538   25.7734 F   0  0  0  0  0  0
  -30.0458  -13.2458   20.4646 N   0  0  0  0  0  0
  -26.3053  -12.9337   20.3444 N   0  0  0  0  0  0
  -25.9323  -11.6497   20.5790 N   0  0  0  0  0  0
  -22.0514  -12.8212   22.0388 N   0  0  0  0  0  0
  -25.4343  -15.1882   20.4134 N   0  0  0  0  0  0
  -31.7896  -14.6756   20.0782 O   0  0  0  0  0  0
  -21.6637   -6.8876   21.4240 O   0  0  0  0  0  0
  -22.3560  -14.5554   20.6704 O   0  0  0  0  0  0
  -24.6116  -31.8690   23.2103 C   0  0  0  0  0  0
  -25.9012  -32.4836   23.8397 C   0  0  1  0  0  0
  -27.2385  -27.4459   20.0879 C   0  0  0  0  0  0
  -25.5873  -33.8637   24.2325 N   0  0  0  0  0  0
  -23.3978  -30.4923   21.5510 C   0  0  2  0  0  0
  -24.8433  -28.9574   20.1155 C   0  0  0  0  0  0
  -22.7383  -29.4662   22.5003 C   0  0  0  0  0  0
  -18.0267  -28.1374   22.8511 C   0  0  0  0  0  0
  -24.1481  -36.7314   23.2639 C   0  0  0  0  0  0
  -25.9245  -30.8368   21.3608 C   0  0  0  0  0  0
  -26.0008  -29.4700   20.7122 C   0  0  0  0  0  0
  -27.1960  -28.7190   20.6994 C   0  0  0  0  0  0
  -26.0561  -26.9396   19.4964 C   0  0  0  0  0  0
  -24.8651  -27.6902   19.5080 C   0  0  0  0  0  0
  -23.6035  -29.8214   20.1664 C   0  0  0  0  0  0
  -25.4105  -36.3122   24.0336 C   0  0  1  0  0  0
  -20.5853  -28.3658   23.1343 C   0  0  2  0  0  0
  -20.6750  -26.9403   22.5435 C   0  0  0  0  0  0
  -19.5732  -26.6383   21.5228 C   0  0  0  0  0  0
  -18.1910  -26.7924   22.1630 C   0  0  0  0  0  0
  -19.1514  -28.8835   23.2924 C   0  0  0  0  0  0
  -18.9445  -30.1441   23.8934 C   0  0  0  0  0  0
  -17.6446  -30.6592   24.0567 C   0  0  0  0  0  0
  -25.9037  -34.9490   23.5134 C   0  0  0  0  0  0
  -16.5339  -29.9093   23.6323 C   0  0  0  0  0  0
  -16.7255  -28.6501   23.0365 C   0  0  0  0  0  0
  -26.4450  -31.6611   25.0723 C   0  0  0  0  0  0
  -25.3723  -31.3671   26.1468 C   0  0  0  0  0  0
  -27.0288  -30.3073   24.6070 C   0  0  0  0  0  0
  -27.6036  -32.4318   25.7484 C   0  0  0  0  0  0
  -27.5591  -37.1796   24.8459 C   0  0  0  0  0  0
  -21.4116  -29.3019   22.3739 N   0  0  0  0  0  0
  -26.4288  -37.3815   23.9427 N   0  0  0  0  0  0
  -24.6630  -31.0801   22.0997 N   0  0  0  0  0  0
  -23.4165  -28.8216   23.3049 O   0  0  0  0  0  0
  -28.4407  -26.7668   20.1005 O   0  0  0  0  0  0
  -26.5613  -34.8936   22.4706 O   0  0  0  0  0  0
  -23.5312  -32.1447   23.7504 O   0  0  0  0  0  0
  -29.8479  -17.8103   21.6568 C   0  0  0  0  0  0
  -29.2939  -18.2951   19.0064 C   0  0  0  0  0  0
  -29.8391  -16.7128   20.7750 C   0  0  0  0  0  0
  -29.5477  -16.9738   19.4195 C   0  0  0  0  0  0
  -29.3349  -19.3243   19.9677 C   0  0  0  0  0  0
  -28.2216  -24.3203   20.3619 C   0  0  0  0  0  0
  -28.9602  -18.5873   17.5486 C   0  0  0  0  0  0
  -30.5215  -22.2688   20.6931 C   0  0  0  0  0  0
  -28.2264  -22.9299   19.7092 C   0  0  0  0  0  0
  -28.5635  -25.5021   19.4369 C   0  0  0  0  0  0
  -29.0716  -21.8282   20.4057 C   0  0  1  0  0  0
  -29.6046  -19.0852   21.2671 N   0  0  0  0  0  0
  -30.0195  -15.3836   21.2606 N   0  0  0  0  0  0
  -29.0664  -20.6374   19.5537 N   0  0  0  0  0  0
  -27.9535  -24.4715   21.5587 O   0  0  0  0  0  0
  -29.4508  -15.9611   18.5231 F   0  0  0  0  0  0
  -31.4658  -12.3998   19.1045 H   0  0  0  0  0  0
  -30.3242  -11.2710   19.7789 H   0  0  0  0  0  0
  -29.7165  -11.8106   17.4074 H   0  0  0  0  0  0
  -29.6655  -13.5120   17.7828 H   0  0  0  0  0  0
  -27.7988  -11.3345   18.7763 H   0  0  0  0  0  0
  -27.3651  -12.7064   17.7919 H   0  0  0  0  0  0
  -27.7243  -14.2601   19.6281 H   0  0  0  0  0  0
  -28.6760  -11.8904   21.3068 H   0  0  0  0  0  0
  -28.4717  -13.5021   21.9066 H   0  0  0  0  0  0
  -25.2754   -9.5688   22.4753 H   0  0  0  0  0  0
  -24.0002   -7.4641   22.7478 H   0  0  0  0  0  0
  -21.0846   -8.8765   19.8944 H   0  0  0  0  0  0
  -22.3689  -10.9674   19.6160 H   0  0  0  0  0  0
  -21.2003   -7.6152   23.9706 H   0  0  0  0  0  0
  -21.1484   -6.0530   25.9074 H   0  0  0  0  0  0
  -22.0598   -2.7601   23.2849 H   0  0  0  0  0  0
  -22.4147  -11.9863   22.4740 H   0  0  0  0  0  0
  -21.1133  -13.1231   22.2613 H   0  0  0  0  0  0
  -24.6689  -15.8454   20.5167 H   0  0  0  0  0  0
  -26.2938  -15.6244   20.1059 H   0  0  0  0  0  0
  -26.7086  -32.5562   23.1166 H   0  0  0  0  0  0
  -24.9988  -33.9809   25.0445 H   0  0  0  0  0  0
  -22.6857  -31.3087   21.4118 H   0  0  0  0  0  0
  -23.3766  -35.9620   23.3270 H   0  0  0  0  0  0
  -24.3579  -36.8977   22.2062 H   0  0  0  0  0  0
  -23.7196  -37.6488   23.6687 H   0  0  0  0  0  0
  -26.0306  -31.6004   20.5892 H   0  0  0  0  0  0
  -26.8149  -30.8955   21.9752 H   0  0  0  0  0  0
  -28.0916  -29.1150   21.1574 H   0  0  0  0  0  0
  -26.0235  -25.9687   19.0258 H   0  0  0  0  0  0
  -23.9725  -27.2857   19.0501 H   0  0  0  0  0  0
  -23.7031  -30.5934   19.4027 H   0  0  0  0  0  0
  -22.7286  -29.2352   19.8777 H   0  0  0  0  0  0
  -25.1269  -36.1991   25.0828 H   0  0  0  0  0  0
  -20.9957  -28.3230   24.1459 H   0  0  0  0  0  0
  -20.5659  -26.2274   23.3612 H   0  0  0  0  0  0
  -21.6625  -26.7439   22.1245 H   0  0  0  0  0  0
  -19.6896  -25.6301   21.1248 H   0  0  0  0  0  0
  -19.6680  -27.3200   20.6768 H   0  0  0  0  0  0
  -17.4192  -26.6708   21.4019 H   0  0  0  0  0  0
  -18.0281  -26.0049   22.9005 H   0  0  0  0  0  0
  -19.7920  -30.7239   24.2332 H   0  0  0  0  0  0
  -17.5007  -31.6281   24.5157 H   0  0  0  0  0  0
  -15.5343  -30.3007   23.7625 H   0  0  0  0  0  0
  -15.8657  -28.0822   22.7075 H   0  0  0  0  0  0
  -24.5906  -30.7023   25.7770 H   0  0  0  0  0  0
  -24.8897  -32.2809   26.4948 H   0  0  0  0  0  0
  -25.8085  -30.8803   27.0204 H   0  0  0  0  0  0
  -26.2822  -29.6832   24.1152 H   0  0  0  0  0  0
  -27.4111  -29.7307   25.4500 H   0  0  0  0  0  0
  -27.8626  -30.4413   23.9177 H   0  0  0  0  0  0
  -27.2680  -33.3615   26.2082 H   0  0  0  0  0  0
  -28.3835  -32.6876   25.0303 H   0  0  0  0  0  0
  -28.0715  -31.8427   26.5381 H   0  0  0  0  0  0
  -28.2568  -38.0134   24.7593 H   0  0  0  0  0  0
  -28.1124  -36.2673   24.6180 H   0  0  0  0  0  0
  -27.2322  -37.1332   25.8861 H   0  0  0  0  0  0
  -20.9265  -29.8739   21.6968 H   0  0  0  0  0  0
  -26.0174  -38.2883   24.1486 H   0  0  0  0  0  0
  -30.0428  -17.6658   22.7098 H   0  0  0  0  0  0
  -28.9683  -17.6869   16.9340 H   0  0  0  0  0  0
  -29.6835  -19.2830   17.1218 H   0  0  0  0  0  0
  -27.9664  -19.0282   17.4672 H   0  0  0  0  0  0
  -30.5567  -23.1324   21.3572 H   0  0  0  0  0  0
  -31.0512  -22.5333   19.7776 H   0  0  0  0  0  0
  -31.0848  -21.4773   21.1887 H   0  0  0  0  0  0
  -28.5747  -23.0579   18.6843 H   0  0  0  0  0  0
  -27.1882  -22.6032   19.6375 H   0  0  0  0  0  0
  -27.9849  -25.4558   18.5147 H   0  0  0  0  0  0
  -29.6060  -25.3842   19.1393 H   0  0  0  0  0  0
  -28.5912  -21.5790   21.3533 H   0  0  0  0  0  0
  -29.2910  -15.0464   21.8723 H   0  0  0  0  0  0
  -28.8819  -20.7760   18.5673 H   0  0  0  0  0  0
  1 25  1  0  0  0
  1 30  2  0  0  0
  1 83  1  0  0  0
  2  3  1  0  0  0
  2 25  1  0  0  0
  2 87  1  0  0  0
  2 88  1  0  0  0
  3  4  1  0  0  0
  3 89  1  0  0  0
  3 90  1  0  0  0
  4  5  1  0  0  0
  4 91  1  0  0  0
  4 92  1  0  0  0
  5  6  1  0  0  0
  5 26  1  0  0  0
  5 93  1  0  0  0
  6 25  1  0  0  0
  6 94  1  0  0  0
  6 95  1  0  0  0
  7  8  2  0  0  0
  7 26  1  0  0  0
  7 29  1  0  0  0
  8  9  1  0  0  0
  8 22  1  0  0  0
  9 10  1  0  0  0
  9 27  2  0  0  0
 10 11  2  0  0  0
 10 15  1  0  0  0
 11 12  1  0  0  0
 11 96  1  0  0  0
 12 13  2  0  0  0
 12 97  1  0  0  0
 13 14  1  0  0  0
 13 31  1  0  0  0
 14 15  2  0  0  0
 14 98  1  0  0  0
 15 99  1  0  0  0
 16 17  2  0  0  0
 16 21  1  0  0  0
 16 31  1  0  0  0
 17 18  1  0  0  0
 17100  1  0  0  0
 18 19  2  0  0  0
 18101  1  0  0  0
 19 20  1  0  0  0
 19 24  1  0  0  0
 20 21  2  0  0  0
 20102  1  0  0  0
 21 23  1  0  0  0
 22 28  1  0  0  0
 22 32  2  0  0  0
 26 27  1  0  0  0
 28103  1  0  0  0
 28104  1  0  0  0
 29105  1  0  0  0
 29106  1  0  0  0
 33 34  1  0  0  0
 33 66  1  0  0  0
 33 70  2  0  0  0
 34 36  1  0  0  0
 34 59  1  0  0  0
 34107  1  0  0  0
 35 44  2  0  0  0
 35 45  1  0  0  0
 35 68  1  0  0  0
 36 56  1  0  0  0
 36108  1  0  0  0
 37 39  1  0  0  0
 37 47  1  0  0  0
 37 66  1  0  0  0
 37109  1  0  0  0
 38 43  2  0  0  0
 38 46  1  0  0  0
 38 47  1  0  0  0
 39 64  1  0  0  0
 39 67  2  0  0  0
 40 52  1  0  0  0
 40 53  2  0  0  0
 40 58  1  0  0  0
 41110  1  0  0  0
 41111  1  0  0  0
 41112  1  0  0  0
 41 48  1  0  0  0
 42 43  1  0  0  0
 42 66  1  0  0  0
 42113  1  0  0  0
 42114  1  0  0  0
 43 44  1  0  0  0
 44115  1  0  0  0
 45 46  2  0  0  0
 45116  1  0  0  0
 46117  1  0  0  0
 47118  1  0  0  0
 47119  1  0  0  0
 48 56  1  0  0  0
 48 65  1  0  0  0
 48120  1  0  0  0
 49 50  1  0  0  0
 49 53  1  0  0  0
 49 64  1  0  0  0
 49121  1  0  0  0
 50 51  1  0  0  0
 50122  1  0  0  0
 50123  1  0  0  0
 51 52  1  0  0  0
 51124  1  0  0  0
 51125  1  0  0  0
 52126  1  0  0  0
 52127  1  0  0  0
 53 54  1  0  0  0
 54 55  2  0  0  0
 54128  1  0  0  0
 55 57  1  0  0  0
 55129  1  0  0  0
 56 69  2  0  0  0
 57 58  2  0  0  0
 57130  1  0  0  0
 58131  1  0  0  0
 59 60  1  0  0  0
 59 61  1  0  0  0
 59 62  1  0  0  0
 60132  1  0  0  0
 60133  1  0  0  0
 60134  1  0  0  0
 61135  1  0  0  0
 61136  1  0  0  0
 61137  1  0  0  0
 62138  1  0  0  0
 62139  1  0  0  0
 62140  1  0  0  0
 63 65  1  0  0  0
 63141  1  0  0  0
 63142  1  0  0  0
 63143  1  0  0  0
 64144  1  0  0  0
 65145  1  0  0  0
 68 80  1  0  0  0
 71 73  2  0  0  0
 71 82  1  0  0  0
 71146  1  0  0  0
 72 74  2  0  0  0
 72 75  1  0  0  0
 72 77  1  0  0  0
 73 74  1  0  0  0
 73 83  1  0  0  0
 74 86  1  0  0  0
 75 82  2  0  0  0
 75 84  1  0  0  0
 76 79  1  0  0  0
 76 80  1  0  0  0
 76 85  2  0  0  0
 77147  1  0  0  0
 77148  1  0  0  0
 77149  1  0  0  0
 78150  1  0  0  0
 78151  1  0  0  0
 78152  1  0  0  0
 78 81  1  0  0  0
 79 81  1  0  0  0
 79153  1  0  0  0
 79154  1  0  0  0
 80155  1  0  0  0
 80156  1  0  0  0
 81 84  1  0  0  0
 81157  1  0  0  0
 83158  1  0  0  0
 84159  1  0  0  0
M  ISO  4   1 100  68 101  80 101  83 100
M  END
> <chiral flag>
0

> <version>
0

> <s_m_source_file>
/data/baiqing/PycharmProjects/Reinvent-master-3.2/result/LINK_invent/BTK/process_docking_weight1_custom_product_contain_oxygen_bond_distance_aromatic_linkinvent_7_9_3/rearranged_h_0177.sdf

> <i_m_source_file_index>
34

> <r_mmod_Potential_Energy-OPLS-2005>
-330.554656982422

> <r_mmod_Stretch_Energy-OPLS-2005>
35.0627555847168

> <r_mmod_Bend_Energy-OPLS-2005>
117.885871887207

> <r_mmod_Torsional_Energy-OPLS-2005>
212.294021606445

> <r_mmod_Improper_Torsional_Energy-OPLS-2005>
4.86021518707275

> <r_mmod_Van_der_Waal_Energy-OPLS-2005>
161.17121887207

> <r_mmod_Electrostatic_Energy-OPLS-2005>
-619.292785644531

> <r_mmod_Solvation_Energy-OPLS-2005>
-252.114166259766

> <b_mmod_Minimization_Converged-OPLS-2005>
0

> <r_mmod_RMS_Derivative-OPLS-2005>
1.5254682302475

$$$$
34
                    3D
 Structure written by MMmdl.
153161  0  0  1  0            999 V2000
  -30.6578  -14.5554   20.5297 C   0  0  0  0  0  0
  -30.4264  -12.3412   19.4518 C   0  0  0  0  0  0
  -29.5063  -12.5075   18.2235 C   0  0  0  0  0  0
  -28.0265  -12.3583   18.6271 C   0  0  0  0  0  0
  -27.6580  -13.2130   19.8692 C   0  0  2  0  0  0
  -28.6956  -13.0326   21.0019 C   0  0  0  0  0  0
  -25.2572  -13.8173   20.5664 C   0  0  0  0  0  0
  -24.1834  -13.0448   20.9173 C   0  0  0  0  0  0
  -24.6385  -11.6913   20.8728 C   0  0  0  0  0  0
  -23.9049  -10.4302   21.0396 C   0  0  0  0  0  0
  -24.3607   -9.4222   21.9179 C   0  0  0  0  0  0
  -23.6289   -8.2256   22.0756 C   0  0  0  0  0  0
  -22.4276   -8.0284   21.3544 C   0  0  0  0  0  0
  -21.9902   -9.0253   20.4645 C   0  0  0  0  0  0
  -22.7223  -10.2133   20.3047 C   0  0  0  0  0  0
  -21.6861   -6.0730   22.5272 C   0  0  0  0  0  0
  -21.4017   -6.5632   23.8206 C   0  0  0  0  0  0
  -21.3674   -5.6791   24.9172 C   0  0  0  0  0  0
  -21.6055   -4.3051   24.7223 C   0  0  0  0  0  0
  -21.8821   -3.8140   23.4346 C   0  0  0  0  0  0
  -21.9196   -4.6959   22.3399 C   0  0  0  0  0  0
  -22.7858  -13.5241   21.1847 C   0  0  0  0  0  0
  -22.1657   -4.2140   21.0978 F   0  0  0  0  0  0
  -21.5641   -3.4538   25.7739 F   0  0  0  0  0  0
  -30.0253  -13.3461   20.4539 N   0  0  0  0  0  0
  -26.2998  -12.9344   20.3312 N   0  0  0  0  0  0
  -25.9313  -11.6501   20.5745 N   0  0  0  0  0  0
  -22.0503  -12.8232   22.0402 N   0  0  0  0  0  0
  -25.4321  -15.1893   20.4066 N   0  0  0  0  0  0
  -31.7956  -14.7247   20.0773 O   0  0  0  0  0  0
  -21.6650   -6.8875   21.4232 O   0  0  0  0  0  0
  -22.3537  -14.5547   20.6701 O   0  0  0  0  0  0
  -24.6203  -31.8639   23.2058 C   0  0  0  0  0  0
  -25.9080  -32.4799   23.8370 C   0  0  1  0  0  0
  -27.2355  -27.3831   20.1020 C   0  0  0  0  0  0
  -25.5919  -33.8598   24.2304 N   0  0  0  0  0  0
  -23.4109  -30.4885   21.5444 C   0  0  2  0  0  0
  -24.8584  -28.9484   20.1078 C   0  0  0  0  0  0
  -22.7442  -29.4650   22.4926 C   0  0  0  0  0  0
  -18.0287  -28.1395   22.8479 C   0  0  0  0  0  0
  -24.1498  -36.7321   23.2637 C   0  0  0  0  0  0
  -25.9451  -30.8132   21.3673 C   0  0  0  0  0  0
  -26.0199  -29.4445   20.7119 C   0  0  0  0  0  0
  -27.2074  -28.6688   20.7062 C   0  0  0  0  0  0
  -26.0505  -26.9140   19.4886 C   0  0  0  0  0  0
  -24.8714  -27.6851   19.4918 C   0  0  0  0  0  0
  -23.6242  -29.8239   20.1576 C   0  0  0  0  0  0
  -25.4119  -36.3102   24.0331 C   0  0  1  0  0  0
  -20.5884  -28.3698   23.1286 C   0  0  2  0  0  0
  -20.6786  -26.9425   22.5405 C   0  0  0  0  0  0
  -19.5761  -26.6393   21.5210 C   0  0  0  0  0  0
  -18.1937  -26.7938   22.1617 C   0  0  0  0  0  0
  -19.1538  -28.8858   23.2884 C   0  0  0  0  0  0
  -18.9461  -30.1460   23.8902 C   0  0  0  0  0  0
  -17.6459  -30.6589   24.0574 C   0  0  0  0  0  0
  -25.9044  -34.9464   23.5116 C   0  0  0  0  0  0
  -16.5353  -29.9093   23.6328 C   0  0  0  0  0  0
  -16.7276  -28.6521   23.0331 C   0  0  0  0  0  0
  -26.4487  -31.6583   25.0712 C   0  0  0  0  0  0
  -25.3739  -31.3706   26.1452 C   0  0  0  0  0  0
  -27.0320  -30.3014   24.6127 C   0  0  0  0  0  0
  -27.6056  -32.4304   25.7488 C   0  0  0  0  0  0
  -27.5588  -37.1821   24.8462 C   0  0  0  0  0  0
  -21.4163  -29.3056   22.3674 N   0  0  0  0  0  0
  -26.4307  -37.3785   23.9396 N   0  0  0  0  0  0
  -24.6770  -31.0707   22.0971 N   0  0  0  0  0  0
  -23.4189  -28.8196   23.2990 O   0  0  0  0  0  0
  -28.3870  -26.6053   20.1760 O   0  0  0  0  0  0
  -26.5596  -34.8924   22.4675 O   0  0  0  0  0  0
  -23.5381  -32.1414   23.7420 O   0  0  0  0  0  0
  -29.0853  -18.3924   19.0386 C   0  0  0  0  0  0
  -29.5775  -19.0382   20.1483 C   0  0  0  0  0  0
  -29.7619  -16.8562   20.4209 C   0  0  0  0  0  0
  -28.4554  -25.3488   19.5839 C   0  0  0  0  0  0
  -28.7381  -24.1867   20.2375 C   0  0  0  0  0  0
  -28.8807  -22.8812   19.5018 C   0  0  0  0  0  0
  -28.5596  -18.9731   17.7623 C   0  0  0  0  0  0
  -28.6185  -21.4962   20.1761 C   0  0  0  0  0  0
  -29.8372  -20.5244   20.4204 C   0  0  0  0  0  0
  -29.1742  -17.0141   19.2329 N   0  0  0  0  0  0
  -29.9389  -15.5809   21.0444 N   0  0  0  0  0  0
  -29.1374  -22.8720   18.2934 O   0  0  0  0  0  0
  -30.0086  -18.0585   21.0440 O   0  0  0  0  0  0
  -28.9275  -24.1714   21.5640 O   0  0  0  0  0  0
  -30.8553  -20.9247   19.6582 F   0  0  0  0  0  0
  -30.2270  -20.7187   21.6805 F   0  0  0  0  0  0
  -31.4727  -12.4400   19.1571 H   0  0  0  0  0  0
  -30.3294  -11.3378   19.8689 H   0  0  0  0  0  0
  -29.7610  -11.7707   17.4596 H   0  0  0  0  0  0
  -29.6677  -13.4881   17.7721 H   0  0  0  0  0  0
  -27.8479  -11.3038   18.8385 H   0  0  0  0  0  0
  -27.3795  -12.6132   17.7868 H   0  0  0  0  0  0
  -27.6899  -14.2554   19.5510 H   0  0  0  0  0  0
  -28.6809  -12.0069   21.3727 H   0  0  0  0  0  0
  -28.4443  -13.6562   21.8610 H   0  0  0  0  0  0
  -25.2756   -9.5703   22.4742 H   0  0  0  0  0  0
  -24.0012   -7.4652   22.7472 H   0  0  0  0  0  0
  -21.0840   -8.8750   19.8943 H   0  0  0  0  0  0
  -22.3676  -10.9661   19.6146 H   0  0  0  0  0  0
  -21.1989   -7.6139   23.9702 H   0  0  0  0  0  0
  -21.1505   -6.0522   25.9074 H   0  0  0  0  0  0
  -22.0585   -2.7603   23.2845 H   0  0  0  0  0  0
  -22.4117  -11.9882   22.4777 H   0  0  0  0  0  0
  -21.1119  -13.1247   22.2600 H   0  0  0  0  0  0
  -24.6653  -15.8467   20.5000 H   0  0  0  0  0  0
  -26.2798  -15.6196   20.0571 H   0  0  0  0  0  0
  -26.7149  -32.5487   23.1128 H   0  0  0  0  0  0
  -25.0096  -33.9756   25.0467 H   0  0  0  0  0  0
  -22.7032  -31.3084   21.4032 H   0  0  0  0  0  0
  -23.3744  -35.9671   23.3308 H   0  0  0  0  0  0
  -24.3595  -36.8928   22.2051 H   0  0  0  0  0  0
  -23.7273  -37.6539   23.6647 H   0  0  0  0  0  0
  -26.0675  -31.5772   20.5984 H   0  0  0  0  0  0
  -26.8299  -30.8633   21.9907 H   0  0  0  0  0  0
  -28.1005  -29.0434   21.1866 H   0  0  0  0  0  0
  -26.0143  -25.9417   19.0194 H   0  0  0  0  0  0
  -23.9779  -27.2974   19.0222 H   0  0  0  0  0  0
  -23.7449  -30.6028   19.4033 H   0  0  0  0  0  0
  -22.7455  -29.2537   19.8512 H   0  0  0  0  0  0
  -25.1300  -36.1966   25.0824 H   0  0  0  0  0  0
  -20.9987  -28.3284   24.1403 H   0  0  0  0  0  0
  -20.5709  -26.2308   23.3606 H   0  0  0  0  0  0
  -21.6654  -26.7477   22.1188 H   0  0  0  0  0  0
  -19.6926  -25.6305   21.1245 H   0  0  0  0  0  0
  -19.6700  -27.3205   20.6742 H   0  0  0  0  0  0
  -17.4211  -26.6685   21.4015 H   0  0  0  0  0  0
  -18.0335  -26.0083   22.9016 H   0  0  0  0  0  0
  -19.7939  -30.7278   24.2272 H   0  0  0  0  0  0
  -17.5017  -31.6265   24.5185 H   0  0  0  0  0  0
  -15.5356  -30.2997   23.7650 H   0  0  0  0  0  0
  -15.8678  -28.0854   22.7016 H   0  0  0  0  0  0
  -24.5907  -30.7064   25.7783 H   0  0  0  0  0  0
  -24.8941  -32.2865   26.4906 H   0  0  0  0  0  0
  -25.8078  -30.8862   27.0207 H   0  0  0  0  0  0
  -26.2872  -29.6766   24.1185 H   0  0  0  0  0  0
  -27.4070  -29.7268   25.4607 H   0  0  0  0  0  0
  -27.8720  -30.4314   23.9303 H   0  0  0  0  0  0
  -27.2670  -33.3591   26.2100 H   0  0  0  0  0  0
  -28.3858  -32.6881   25.0311 H   0  0  0  0  0  0
  -28.0736  -31.8401   26.5379 H   0  0  0  0  0  0
  -28.2606  -38.0116   24.7491 H   0  0  0  0  0  0
  -28.1082  -36.2643   24.6306 H   0  0  0  0  0  0
  -27.2302  -37.1498   25.8865 H   0  0  0  0  0  0
  -20.9329  -29.8774   21.6890 H   0  0  0  0  0  0
  -26.0192  -38.2870   24.1361 H   0  0  0  0  0  0
  -28.2868  -25.3979   18.5162 H   0  0  0  0  0  0
  -29.0164  -19.9397   17.5470 H   0  0  0  0  0  0
  -27.4816  -19.1217   17.8117 H   0  0  0  0  0  0
  -28.7671  -18.3247   16.9113 H   0  0  0  0  0  0
  -27.9191  -20.9985   19.5066 H   0  0  0  0  0  0
  -28.0622  -21.6372   21.1018 H   0  0  0  0  0  0
  -29.1343  -15.2837   21.5696 H   0  0  0  0  0  0
  -28.8417  -25.0686   21.8620 H   0  0  0  0  0  0
  1 25  1  0  0  0
  1 30  2  0  0  0
  1 81  1  0  0  0
  2  3  1  0  0  0
  2 25  1  0  0  0
  2 87  1  0  0  0
  2 88  1  0  0  0
  3  4  1  0  0  0
  3 89  1  0  0  0
  3 90  1  0  0  0
  4  5  1  0  0  0
  4 91  1  0  0  0
  4 92  1  0  0  0
  5  6  1  0  0  0
  5 26  1  0  0  0
  5 93  1  0  0  0
  6 25  1  0  0  0
  6 94  1  0  0  0
  6 95  1  0  0  0
  7  8  2  0  0  0
  7 26  1  0  0  0
  7 29  1  0  0  0
  8  9  1  0  0  0
  8 22  1  0  0  0
  9 10  1  0  0  0
  9 27  2  0  0  0
 10 11  2  0  0  0
 10 15  1  0  0  0
 11 12  1  0  0  0
 11 96  1  0  0  0
 12 13  2  0  0  0
 12 97  1  0  0  0
 13 14  1  0  0  0
 13 31  1  0  0  0
 14 15  2  0  0  0
 14 98  1  0  0  0
 15 99  1  0  0  0
 16 17  2  0  0  0
 16 21  1  0  0  0
 16 31  1  0  0  0
 17 18  1  0  0  0
 17100  1  0  0  0
 18 19  2  0  0  0
 18101  1  0  0  0
 19 20  1  0  0  0
 19 24  1  0  0  0
 20 21  2  0  0  0
 20102  1  0  0  0
 21 23  1  0  0  0
 22 28  1  0  0  0
 22 32  2  0  0  0
 26 27  1  0  0  0
 28103  1  0  0  0
 28104  1  0  0  0
 29105  1  0  0  0
 29106  1  0  0  0
 33 34  1  0  0  0
 33 66  1  0  0  0
 33 70  2  0  0  0
 34 36  1  0  0  0
 34 59  1  0  0  0
 34107  1  0  0  0
 35 44  2  0  0  0
 35 45  1  0  0  0
 35 68  1  0  0  0
 36 56  1  0  0  0
 36108  1  0  0  0
 37 39  1  0  0  0
 37 47  1  0  0  0
 37 66  1  0  0  0
 37109  1  0  0  0
 38 43  2  0  0  0
 38 46  1  0  0  0
 38 47  1  0  0  0
 39 64  1  0  0  0
 39 67  2  0  0  0
 40 52  1  0  0  0
 40 53  2  0  0  0
 40 58  1  0  0  0
 41110  1  0  0  0
 41111  1  0  0  0
 41112  1  0  0  0
 41 48  1  0  0  0
 42 43  1  0  0  0
 42 66  1  0  0  0
 42113  1  0  0  0
 42114  1  0  0  0
 43 44  1  0  0  0
 44115  1  0  0  0
 45 46  2  0  0  0
 45116  1  0  0  0
 46117  1  0  0  0
 47118  1  0  0  0
 47119  1  0  0  0
 48 56  1  0  0  0
 48 65  1  0  0  0
 48120  1  0  0  0
 49 50  1  0  0  0
 49 53  1  0  0  0
 49 64  1  0  0  0
 49121  1  0  0  0
 50 51  1  0  0  0
 50122  1  0  0  0
 50123  1  0  0  0
 51 52  1  0  0  0
 51124  1  0  0  0
 51125  1  0  0  0
 52126  1  0  0  0
 52127  1  0  0  0
 53 54  1  0  0  0
 54 55  2  0  0  0
 54128  1  0  0  0
 55 57  1  0  0  0
 55129  1  0  0  0
 56 69  2  0  0  0
 57 58  2  0  0  0
 57130  1  0  0  0
 58131  1  0  0  0
 59 60  1  0  0  0
 59 61  1  0  0  0
 59 62  1  0  0  0
 60132  1  0  0  0
 60133  1  0  0  0
 60134  1  0  0  0
 61135  1  0  0  0
 61136  1  0  0  0
 61137  1  0  0  0
 62138  1  0  0  0
 62139  1  0  0  0
 62140  1  0  0  0
 63 65  1  0  0  0
 63141  1  0  0  0
 63142  1  0  0  0
 63143  1  0  0  0
 64144  1  0  0  0
 65145  1  0  0  0
 68 74  1  0  0  0
 71 72  2  0  0  0
 71 77  1  0  0  0
 71 80  1  0  0  0
 72 79  1  0  0  0
 72 83  1  0  0  0
 73 80  2  0  0  0
 73 81  1  0  0  0
 73 83  1  0  0  0
 74 75  2  0  0  0
 74146  1  0  0  0
 75 76  1  0  0  0
 75 84  1  0  0  0
 76 78  1  0  0  0
 76 82  2  0  0  0
 77147  1  0  0  0
 77148  1  0  0  0
 77149  1  0  0  0
 78 79  1  0  0  0
 78150  1  0  0  0
 78151  1  0  0  0
 79 85  1  0  0  0
 79 86  1  0  0  0
 81152  1  0  0  0
 84153  1  0  0  0
M  ISO  4   1 100  68 101  74 101  81 100
M  END
> <chiral flag>
0

> <version>
0

> <s_m_source_file>
/data/baiqing/PycharmProjects/Reinvent-master-3.2/result/LINK_invent/BTK/process_docking_weight1_custom_product_contain_oxygen_bond_distance_aromatic_linkinvent_7_9_3/rearranged_h_0177.sdf

> <i_m_source_file_index>
35

> <r_mmod_Potential_Energy-OPLS-2005>
-105.821815490723

> <r_mmod_Stretch_Energy-OPLS-2005>
50.4929389953613

> <r_mmod_Bend_Energy-OPLS-2005>
117.735763549805

> <r_mmod_Torsional_Energy-OPLS-2005>
241.213623046875

> <r_mmod_Improper_Torsional_Energy-OPLS-2005>
7.27607107162476

> <r_mmod_Van_der_Waal_Energy-OPLS-2005>
120.552749633789

> <r_mmod_Electrostatic_Energy-OPLS-2005>
-445.764373779297

> <r_mmod_Solvation_Energy-OPLS-2005>
-223.161834716797

> <b_mmod_Minimization_Converged-OPLS-2005>
0

> <r_mmod_RMS_Derivative-OPLS-2005>
1.3039813041687

$$$$
35
                    3D
 Structure written by MMmdl.
157165  0  0  1  0            999 V2000
  -30.7285  -14.4271   20.5217 C   0  0  0  0  0  0
  -30.4078  -12.2598   19.4365 C   0  0  0  0  0  0
  -29.4971  -12.4828   18.2124 C   0  0  0  0  0  0
  -28.0148  -12.3616   18.6176 C   0  0  0  0  0  0
  -27.6601  -13.2087   19.8699 C   0  0  2  0  0  0
  -28.6985  -13.0074   20.9979 C   0  0  0  0  0  0
  -25.2581  -13.8167   20.5672 C   0  0  0  0  0  0
  -24.1829  -13.0443   20.9170 C   0  0  0  0  0  0
  -24.6377  -11.6905   20.8710 C   0  0  0  0  0  0
  -23.9034  -10.4291   21.0380 C   0  0  0  0  0  0
  -24.3589   -9.4218   21.9168 C   0  0  0  0  0  0
  -23.6279   -8.2244   22.0746 C   0  0  0  0  0  0
  -22.4262   -8.0268   21.3538 C   0  0  0  0  0  0
  -21.9887   -9.0234   20.4637 C   0  0  0  0  0  0
  -22.7202  -10.2122   20.3036 C   0  0  0  0  0  0
  -21.6853   -6.0724   22.5276 C   0  0  0  0  0  0
  -21.4014   -6.5628   23.8208 C   0  0  0  0  0  0
  -21.3662   -5.6785   24.9171 C   0  0  0  0  0  0
  -21.6047   -4.3049   24.7222 C   0  0  0  0  0  0
  -21.8820   -3.8137   23.4344 C   0  0  0  0  0  0
  -21.9196   -4.6953   22.3401 C   0  0  0  0  0  0
  -22.7851  -13.5251   21.1847 C   0  0  0  0  0  0
  -22.1666   -4.2136   21.0977 F   0  0  0  0  0  0
  -21.5631   -3.4537   25.7742 F   0  0  0  0  0  0
  -30.0359  -13.2632   20.4429 N   0  0  0  0  0  0
  -26.3012  -12.9343   20.3328 N   0  0  0  0  0  0
  -25.9303  -11.6497   20.5721 N   0  0  0  0  0  0
  -22.0479  -12.8235   22.0388 N   0  0  0  0  0  0
  -25.4331  -15.1881   20.4107 N   0  0  0  0  0  0
  -31.9027  -14.5314   20.1569 O   0  0  0  0  0  0
  -21.6635   -6.8862   21.4235 O   0  0  0  0  0  0
  -22.3542  -14.5568   20.6712 O   0  0  0  0  0  0
  -24.6125  -31.8707   23.2135 C   0  0  0  0  0  0
  -25.9030  -32.4842   23.8414 C   0  0  1  0  0  0
  -27.2323  -27.4547   20.0794 C   0  0  0  0  0  0
  -25.5898  -33.8641   24.2340 N   0  0  0  0  0  0
  -23.3990  -30.4974   21.5523 C   0  0  2  0  0  0
  -24.8421  -28.9671   20.1163 C   0  0  0  0  0  0
  -22.7397  -29.4684   22.4982 C   0  0  0  0  0  0
  -18.0279  -28.1392   22.8496 C   0  0  0  0  0  0
  -24.1483  -36.7317   23.2636 C   0  0  0  0  0  0
  -25.9266  -30.8400   21.3653 C   0  0  0  0  0  0
  -26.0001  -29.4745   20.7165 C   0  0  0  0  0  0
  -27.1926  -28.7191   20.7072 C   0  0  0  0  0  0
  -26.0489  -26.9580   19.4790 C   0  0  0  0  0  0
  -24.8587  -27.7052   19.5023 C   0  0  0  0  0  0
  -23.6074  -29.8355   20.1647 C   0  0  0  0  0  0
  -25.4107  -36.3125   24.0339 C   0  0  1  0  0  0
  -20.5867  -28.3671   23.1328 C   0  0  2  0  0  0
  -20.6775  -26.9412   22.5421 C   0  0  0  0  0  0
  -19.5752  -26.6401   21.5217 C   0  0  0  0  0  0
  -18.1930  -26.7943   22.1623 C   0  0  0  0  0  0
  -19.1527  -28.8843   23.2918 C   0  0  0  0  0  0
  -18.9458  -30.1448   23.8930 C   0  0  0  0  0  0
  -17.6462  -30.6599   24.0573 C   0  0  0  0  0  0
  -25.9031  -34.9486   23.5133 C   0  0  0  0  0  0
  -16.5353  -29.9108   23.6325 C   0  0  0  0  0  0
  -16.7270  -28.6524   23.0349 C   0  0  0  0  0  0
  -26.4465  -31.6618   25.0729 C   0  0  0  0  0  0
  -25.3739  -31.3724   26.1481 C   0  0  0  0  0  0
  -27.0293  -30.3072   24.6079 C   0  0  0  0  0  0
  -27.6042  -32.4331   25.7496 C   0  0  0  0  0  0
  -27.5580  -37.1821   24.8465 C   0  0  0  0  0  0
  -21.4125  -29.3046   22.3728 N   0  0  0  0  0  0
  -26.4292  -37.3809   23.9407 N   0  0  0  0  0  0
  -24.6646  -31.0829   22.1026 N   0  0  0  0  0  0
  -23.4180  -28.8209   23.3006 O   0  0  0  0  0  0
  -28.4229  -26.7587   20.0979 O   0  0  0  0  0  0
  -26.5587  -34.8928   22.4690 O   0  0  0  0  0  0
  -23.5323  -32.1445   23.7539 O   0  0  0  0  0  0
  -29.5599  -18.0058   20.5596 C   0  0  0  0  0  0
  -30.8654  -16.9816   18.9943 C   0  0  0  0  0  0
  -30.1624  -16.7769   20.1565 C   0  0  0  0  0  0
  -29.9383  -18.9124   19.6015 C   0  0  0  0  0  0
  -29.1449  -22.5120   19.7746 C   0  0  0  0  0  0
  -29.4014  -21.1392   20.4396 C   0  0  0  0  0  0
  -31.3055  -18.9266   17.4604 C   0  0  0  0  0  0
  -29.7820  -23.7469   20.4307 C   0  0  0  0  0  0
  -29.9226  -24.9582   19.4742 C   0  0  0  0  0  0
  -28.6038  -25.6921   19.1704 C   0  0  0  0  0  0
  -30.7245  -18.3060   18.6382 N   0  0  0  0  0  0
  -30.0022  -15.5202   20.8143 N   0  0  0  0  0  0
  -29.5798  -20.2130   19.4888 N   0  0  0  0  0  0
  -28.5021  -22.6011   18.7202 O   0  0  0  0  0  0
  -29.4419  -20.9561   21.6622 O   0  0  0  0  0  0
  -31.4583  -12.3188   19.1450 H   0  0  0  0  0  0
  -30.2668  -11.2556   19.8401 H   0  0  0  0  0  0
  -29.7321  -11.7568   17.4330 H   0  0  0  0  0  0
  -29.6857  -13.4666   17.7796 H   0  0  0  0  0  0
  -27.8115  -11.3084   18.8145 H   0  0  0  0  0  0
  -27.3722  -12.6421   17.7816 H   0  0  0  0  0  0
  -27.7022  -14.2528   19.5607 H   0  0  0  0  0  0
  -28.6520  -11.9869   21.3808 H   0  0  0  0  0  0
  -28.4784  -13.6544   21.8478 H   0  0  0  0  0  0
  -25.2725   -9.5725   22.4746 H   0  0  0  0  0  0
  -24.0000   -7.4643   22.7459 H   0  0  0  0  0  0
  -21.0825   -8.8734   19.8942 H   0  0  0  0  0  0
  -22.3637  -10.9652   19.6142 H   0  0  0  0  0  0
  -21.1998   -7.6138   23.9712 H   0  0  0  0  0  0
  -21.1490   -6.0510   25.9078 H   0  0  0  0  0  0
  -22.0600   -2.7597   23.2846 H   0  0  0  0  0  0
  -22.4081  -11.9894   22.4783 H   0  0  0  0  0  0
  -21.1091  -13.1261   22.2581 H   0  0  0  0  0  0
  -24.6677  -15.8460   20.5133 H   0  0  0  0  0  0
  -26.2902  -15.6254   20.0966 H   0  0  0  0  0  0
  -26.7100  -32.5559   23.1178 H   0  0  0  0  0  0
  -25.0075  -33.9815   25.0504 H   0  0  0  0  0  0
  -22.6875  -31.3148   21.4167 H   0  0  0  0  0  0
  -23.3743  -35.9653   23.3320 H   0  0  0  0  0  0
  -24.3573  -36.8908   22.2045 H   0  0  0  0  0  0
  -23.7233  -37.6531   23.6629 H   0  0  0  0  0  0
  -26.0345  -31.6040   20.5939 H   0  0  0  0  0  0
  -26.8185  -30.8964   21.9781 H   0  0  0  0  0  0
  -28.0874  -29.1072   21.1731 H   0  0  0  0  0  0
  -26.0040  -25.9978   18.9899 H   0  0  0  0  0  0
  -23.9652  -27.3074   19.0405 H   0  0  0  0  0  0
  -23.7244  -30.6136   19.4089 H   0  0  0  0  0  0
  -22.7302  -29.2603   19.8621 H   0  0  0  0  0  0
  -25.1285  -36.1993   25.0834 H   0  0  0  0  0  0
  -20.9978  -28.3237   24.1439 H   0  0  0  0  0  0
  -20.5692  -26.2273   23.3601 H   0  0  0  0  0  0
  -21.6647  -26.7474   22.1203 H   0  0  0  0  0  0
  -19.6913  -25.6315   21.1241 H   0  0  0  0  0  0
  -19.6698  -27.3220   20.6753 H   0  0  0  0  0  0
  -17.4202  -26.6695   21.4023 H   0  0  0  0  0  0
  -18.0329  -26.0086   22.9019 H   0  0  0  0  0  0
  -19.7932  -30.7255   24.2321 H   0  0  0  0  0  0
  -17.5021  -31.6280   24.5175 H   0  0  0  0  0  0
  -15.5357  -30.3027   23.7633 H   0  0  0  0  0  0
  -15.8667  -28.0858   22.7052 H   0  0  0  0  0  0
  -24.5903  -30.7081   25.7817 H   0  0  0  0  0  0
  -24.8938  -32.2886   26.4935 H   0  0  0  0  0  0
  -25.8100  -30.8887   27.0230 H   0  0  0  0  0  0
  -26.2832  -29.6851   24.1118 H   0  0  0  0  0  0
  -27.4070  -29.7287   25.4519 H   0  0  0  0  0  0
  -27.8662  -30.4411   23.9218 H   0  0  0  0  0  0
  -27.2663  -33.3618   26.2105 H   0  0  0  0  0  0
  -28.3846  -32.6914   25.0326 H   0  0  0  0  0  0
  -28.0714  -31.8433   26.5391 H   0  0  0  0  0  0
  -28.2614  -38.0104   24.7513 H   0  0  0  0  0  0
  -28.1064  -36.2641   24.6301 H   0  0  0  0  0  0
  -27.2296  -37.1488   25.8868 H   0  0  0  0  0  0
  -20.9265  -29.8765   21.6964 H   0  0  0  0  0  0
  -26.0184  -38.2887   24.1415 H   0  0  0  0  0  0
  -28.9268  -18.1969   21.4161 H   0  0  0  0  0  0
  -31.4428  -16.3093   18.3729 H   0  0  0  0  0  0
  -31.9684  -18.2288   16.9486 H   0  0  0  0  0  0
  -31.8823  -19.8048   17.7518 H   0  0  0  0  0  0
  -30.5146  -19.2290   16.7733 H   0  0  0  0  0  0
  -30.7701  -23.4525   20.7861 H   0  0  0  0  0  0
  -29.2041  -24.0175   21.3147 H   0  0  0  0  0  0
  -30.3490  -24.6070   18.5328 H   0  0  0  0  0  0
  -30.6530  -25.6651   19.8690 H   0  0  0  0  0  0
  -27.7839  -24.9787   19.2029 H   0  0  0  0  0  0
  -28.6357  -26.1107   18.1630 H   0  0  0  0  0  0
  -29.1271  -15.3666   21.2922 H   0  0  0  0  0  0
  -29.5389  -20.5991   18.5545 H   0  0  0  0  0  0
  1 25  1  0  0  0
  1 30  2  0  0  0
  1 82  1  0  0  0
  2  3  1  0  0  0
  2 25  1  0  0  0
  2 86  1  0  0  0
  2 87  1  0  0  0
  3  4  1  0  0  0
  3 88  1  0  0  0
  3 89  1  0  0  0
  4  5  1  0  0  0
  4 90  1  0  0  0
  4 91  1  0  0  0
  5  6  1  0  0  0
  5 26  1  0  0  0
  5 92  1  0  0  0
  6 25  1  0  0  0
  6 93  1  0  0  0
  6 94  1  0  0  0
  7  8  2  0  0  0
  7 26  1  0  0  0
  7 29  1  0  0  0
  8  9  1  0  0  0
  8 22  1  0  0  0
  9 10  1  0  0  0
  9 27  2  0  0  0
 10 11  2  0  0  0
 10 15  1  0  0  0
 11 12  1  0  0  0
 11 95  1  0  0  0
 12 13  2  0  0  0
 12 96  1  0  0  0
 13 14  1  0  0  0
 13 31  1  0  0  0
 14 15  2  0  0  0
 14 97  1  0  0  0
 15 98  1  0  0  0
 16 17  2  0  0  0
 16 21  1  0  0  0
 16 31  1  0  0  0
 17 18  1  0  0  0
 17 99  1  0  0  0
 18 19  2  0  0  0
 18100  1  0  0  0
 19 20  1  0  0  0
 19 24  1  0  0  0
 20 21  2  0  0  0
 20101  1  0  0  0
 21 23  1  0  0  0
 22 28  1  0  0  0
 22 32  2  0  0  0
 26 27  1  0  0  0
 28102  1  0  0  0
 28103  1  0  0  0
 29104  1  0  0  0
 29105  1  0  0  0
 33 34  1  0  0  0
 33 66  1  0  0  0
 33 70  2  0  0  0
 34 36  1  0  0  0
 34 59  1  0  0  0
 34106  1  0  0  0
 35 44  2  0  0  0
 35 45  1  0  0  0
 35 68  1  0  0  0
 36 56  1  0  0  0
 36107  1  0  0  0
 37 39  1  0  0  0
 37 47  1  0  0  0
 37 66  1  0  0  0
 37108  1  0  0  0
 38 43  2  0  0  0
 38 46  1  0  0  0
 38 47  1  0  0  0
 39 64  1  0  0  0
 39 67  2  0  0  0
 40 52  1  0  0  0
 40 53  2  0  0  0
 40 58  1  0  0  0
 41109  1  0  0  0
 41110  1  0  0  0
 41111  1  0  0  0
 41 48  1  0  0  0
 42 43  1  0  0  0
 42 66  1  0  0  0
 42112  1  0  0  0
 42113  1  0  0  0
 43 44  1  0  0  0
 44114  1  0  0  0
 45 46  2  0  0  0
 45115  1  0  0  0
 46116  1  0  0  0
 47117  1  0  0  0
 47118  1  0  0  0
 48 56  1  0  0  0
 48 65  1  0  0  0
 48119  1  0  0  0
 49 50  1  0  0  0
 49 53  1  0  0  0
 49 64  1  0  0  0
 49120  1  0  0  0
 50 51  1  0  0  0
 50121  1  0  0  0
 50122  1  0  0  0
 51 52  1  0  0  0
 51123  1  0  0  0
 51124  1  0  0  0
 52125  1  0  0  0
 52126  1  0  0  0
 53 54  1  0  0  0
 54 55  2  0  0  0
 54127  1  0  0  0
 55 57  1  0  0  0
 55128  1  0  0  0
 56 69  2  0  0  0
 57 58  2  0  0  0
 57129  1  0  0  0
 58130  1  0  0  0
 59 60  1  0  0  0
 59 61  1  0  0  0
 59 62  1  0  0  0
 60131  1  0  0  0
 60132  1  0  0  0
 60133  1  0  0  0
 61134  1  0  0  0
 61135  1  0  0  0
 61136  1  0  0  0
 62137  1  0  0  0
 62138  1  0  0  0
 62139  1  0  0  0
 63 65  1  0  0  0
 63140  1  0  0  0
 63141  1  0  0  0
 63142  1  0  0  0
 64143  1  0  0  0
 65144  1  0  0  0
 68 80  1  0  0  0
 71 73  1  0  0  0
 71 74  2  0  0  0
 71145  1  0  0  0
 72 73  2  0  0  0
 72 81  1  0  0  0
 72146  1  0  0  0
 73 82  1  0  0  0
 74 81  1  0  0  0
 74 83  1  0  0  0
 75 76  1  0  0  0
 75 78  1  0  0  0
 75 84  2  0  0  0
 76 83  1  0  0  0
 76 85  2  0  0  0
 77 81  1  0  0  0
 77147  1  0  0  0
 77148  1  0  0  0
 77149  1  0  0  0
 78 79  1  0  0  0
 78150  1  0  0  0
 78151  1  0  0  0
 79 80  1  0  0  0
 79152  1  0  0  0
 79153  1  0  0  0
 80154  1  0  0  0
 80155  1  0  0  0
 82156  1  0  0  0
 83157  1  0  0  0
M  ISO  4   1 100  68 101  80 101  82 100
M  END
> <chiral flag>
0

> <version>
0

> <s_m_source_file>
/data/baiqing/PycharmProjects/Reinvent-master-3.2/result/LINK_invent/BTK/process_docking_weight1_custom_product_contain_oxygen_bond_distance_aromatic_linkinvent_7_9_3/rearranged_h_0177.sdf

> <i_m_source_file_index>
36

> <r_mmod_Potential_Energy-OPLS-2005>
-38.0845031738281

> <r_mmod_Stretch_Energy-OPLS-2005>
32.1752815246582

> <r_mmod_Bend_Energy-OPLS-2005>
117.538139343262

> <r_mmod_Torsional_Energy-OPLS-2005>
242.075454711914

> <r_mmod_Improper_Torsional_Energy-OPLS-2005>
6.59395217895508

> <r_mmod_Van_der_Waal_Energy-OPLS-2005>
145.98844909668

> <r_mmod_Electrostatic_Energy-OPLS-2005>
-361.556945800781

> <r_mmod_Solvation_Energy-OPLS-2005>
-236.934341430664

> <b_mmod_Minimization_Converged-OPLS-2005>
0

> <r_mmod_RMS_Derivative-OPLS-2005>
1.35558104515076

$$$$
36
                    3D
 Structure written by MMmdl.
161169  0  0  1  0            999 V2000
  -30.6501  -14.5122   20.5514 C   0  0  0  0  0  0
  -30.4345  -12.3175   19.4304 C   0  0  0  0  0  0
  -29.5015  -12.4796   18.2099 C   0  0  0  0  0  0
  -28.0166  -12.3674   18.6174 C   0  0  0  0  0  0
  -27.6612  -13.1963   19.8823 C   0  0  2  0  0  0
  -28.7048  -12.9697   20.9989 C   0  0  0  0  0  0
  -25.2577  -13.8132   20.5658 C   0  0  0  0  0  0
  -24.1835  -13.0412   20.9174 C   0  0  0  0  0  0
  -24.6381  -11.6882   20.8741 C   0  0  0  0  0  0
  -23.9039  -10.4281   21.0403 C   0  0  0  0  0  0
  -24.3593   -9.4199   21.9178 C   0  0  0  0  0  0
  -23.6270   -8.2235   22.0748 C   0  0  0  0  0  0
  -22.4252   -8.0273   21.3547 C   0  0  0  0  0  0
  -21.9893   -9.0248   20.4651 C   0  0  0  0  0  0
  -22.7216  -10.2126   20.3054 C   0  0  0  0  0  0
  -21.6840   -6.0727   22.5279 C   0  0  0  0  0  0
  -21.4013   -6.5639   23.8214 C   0  0  0  0  0  0
  -21.3655   -5.6794   24.9176 C   0  0  0  0  0  0
  -21.6045   -4.3058   24.7223 C   0  0  0  0  0  0
  -21.8820   -3.8141   23.4346 C   0  0  0  0  0  0
  -21.9188   -4.6957   22.3402 C   0  0  0  0  0  0
  -22.7872  -13.5220   21.1853 C   0  0  0  0  0  0
  -22.1659   -4.2141   21.0978 F   0  0  0  0  0  0
  -21.5627   -3.4539   25.7726 F   0  0  0  0  0  0
  -30.0332  -13.3006   20.4498 N   0  0  0  0  0  0
  -26.3014  -12.9270   20.3394 N   0  0  0  0  0  0
  -25.9305  -11.6446   20.5789 N   0  0  0  0  0  0
  -22.0514  -12.8217   22.0415 N   0  0  0  0  0  0
  -25.4283  -15.1853   20.4024 N   0  0  0  0  0  0
  -31.7723  -14.7354   20.0820 O   0  0  0  0  0  0
  -21.6630   -6.8859   21.4235 O   0  0  0  0  0  0
  -22.3567  -14.5533   20.6706 O   0  0  0  0  0  0
  -24.6176  -31.8653   23.2076 C   0  0  0  0  0  0
  -25.9061  -32.4808   23.8382 C   0  0  1  0  0  0
  -27.2343  -27.4085   20.1125 C   0  0  0  0  0  0
  -25.5898  -33.8607   24.2306 N   0  0  0  0  0  0
  -23.4065  -30.4894   21.5478 C   0  0  2  0  0  0
  -24.8542  -28.9541   20.1128 C   0  0  0  0  0  0
  -22.7422  -29.4649   22.4963 C   0  0  0  0  0  0
  -18.0279  -28.1368   22.8487 C   0  0  0  0  0  0
  -24.1479  -36.7321   23.2640 C   0  0  0  0  0  0
  -25.9374  -30.8280   21.3592 C   0  0  0  0  0  0
  -26.0159  -29.4595   20.7096 C   0  0  0  0  0  0
  -27.2099  -28.6975   20.7006 C   0  0  0  0  0  0
  -26.0535  -26.9290   19.4978 C   0  0  0  0  0  0
  -24.8700  -27.6907   19.4995 C   0  0  0  0  0  0
  -23.6160  -29.8216   20.1630 C   0  0  0  0  0  0
  -25.4101  -36.3106   24.0333 C   0  0  1  0  0  0
  -20.5870  -28.3661   23.1300 C   0  0  2  0  0  0
  -20.6758  -26.9389   22.5413 C   0  0  0  0  0  0
  -19.5747  -26.6375   21.5198 C   0  0  0  0  0  0
  -18.1928  -26.7916   22.1618 C   0  0  0  0  0  0
  -19.1530  -28.8826   23.2897 C   0  0  0  0  0  0
  -18.9458  -30.1427   23.8918 C   0  0  0  0  0  0
  -17.6460  -30.6574   24.0561 C   0  0  0  0  0  0
  -25.9033  -34.9472   23.5116 C   0  0  0  0  0  0
  -16.5351  -29.9076   23.6315 C   0  0  0  0  0  0
  -16.7268  -28.6490   23.0342 C   0  0  0  0  0  0
  -26.4477  -31.6594   25.0720 C   0  0  0  0  0  0
  -25.3747  -31.3728   26.1474 C   0  0  0  0  0  0
  -27.0295  -30.3039   24.6090 C   0  0  0  0  0  0
  -27.6049  -32.4313   25.7484 C   0  0  0  0  0  0
  -27.5573  -37.1815   24.8463 C   0  0  0  0  0  0
  -21.4145  -29.3033   22.3705 N   0  0  0  0  0  0
  -26.4283  -37.3789   23.9410 N   0  0  0  0  0  0
  -24.6729  -31.0747   22.0973 N   0  0  0  0  0  0
  -23.4182  -28.8185   23.3011 O   0  0  0  0  0  0
  -28.3885  -26.6419   20.1477 O   0  0  0  0  0  0
  -26.5596  -34.8923   22.4679 O   0  0  0  0  0  0
  -23.5361  -32.1401   23.7462 O   0  0  0  0  0  0
  -28.9471  -18.7267   19.6320 C   0  0  0  0  0  0
  -29.2055  -17.3047   19.5683 C   0  0  0  0  0  0
  -29.4302  -19.3375   20.7813 C   0  0  0  0  0  0
  -29.7647  -16.7931   20.7259 C   0  0  0  0  0  0
  -28.1909  -19.4320   18.5889 C   0  0  0  0  0  0
  -29.2970  -23.0745   21.3610 C   0  0  0  0  0  0
  -29.6157  -21.7861   20.5258 C   0  0  0  0  0  0
  -28.7927  -16.4535   18.3946 C   0  0  0  0  0  0
  -25.7693  -20.1278   18.0584 C   0  0  0  0  0  0
  -26.9165  -20.1333   19.0822 C   0  0  0  0  0  0
  -29.5130  -24.4624   20.7110 C   0  0  0  0  0  0
  -28.1972  -25.2370   20.4411 C   0  0  0  0  0  0
  -29.3684  -20.6418   21.2066 N   0  0  0  0  0  0
  -29.8944  -15.4833   21.1076 N   0  0  0  0  0  0
  -28.4647  -19.4411   17.3850 O   0  0  0  0  0  0
  -28.8827  -22.9972   22.5249 O   0  0  0  0  0  0
  -30.0370  -21.8303   19.3661 O   0  0  0  0  0  0
  -30.0855  -18.1027   21.8455 S   0  0  0  0  0  0
  -31.4760  -12.4379   19.1276 H   0  0  0  0  0  0
  -30.3565  -11.3069   19.8351 H   0  0  0  0  0  0
  -29.7340  -11.7206   17.4608 H   0  0  0  0  0  0
  -29.6878  -13.4352   17.7223 H   0  0  0  0  0  0
  -27.8098  -11.3126   18.8010 H   0  0  0  0  0  0
  -27.3747  -12.6588   17.7849 H   0  0  0  0  0  0
  -27.6981  -14.2438   19.6005 H   0  0  0  0  0  0
  -28.6917  -11.9270   21.3189 H   0  0  0  0  0  0
  -28.4580  -13.5462   21.8915 H   0  0  0  0  0  0
  -25.2742   -9.5658   22.4748 H   0  0  0  0  0  0
  -23.9981   -7.4614   22.7462 H   0  0  0  0  0  0
  -21.0828   -8.8761   19.8961 H   0  0  0  0  0  0
  -22.3676  -10.9656   19.6161 H   0  0  0  0  0  0
  -21.2025   -7.6153   23.9715 H   0  0  0  0  0  0
  -21.1459   -6.0527   25.9075 H   0  0  0  0  0  0
  -22.0596   -2.7600   23.2852 H   0  0  0  0  0  0
  -22.4108  -11.9867   22.4807 H   0  0  0  0  0  0
  -21.1132  -13.1253   22.2606 H   0  0  0  0  0  0
  -24.6545  -15.8347   20.4930 H   0  0  0  0  0  0
  -26.2848  -15.6272   20.0950 H   0  0  0  0  0  0
  -26.7133  -32.5520   23.1149 H   0  0  0  0  0  0
  -25.0047  -33.9749   25.0450 H   0  0  0  0  0  0
  -22.6963  -31.3074   21.4078 H   0  0  0  0  0  0
  -23.3716  -35.9680   23.3318 H   0  0  0  0  0  0
  -24.3577  -36.8916   22.2051 H   0  0  0  0  0  0
  -23.7252  -37.6543   23.6636 H   0  0  0  0  0  0
  -26.0459  -31.5887   20.5840 H   0  0  0  0  0  0
  -26.8267  -30.8873   21.9753 H   0  0  0  0  0  0
  -28.1047  -29.0852   21.1674 H   0  0  0  0  0  0
  -26.0287  -25.9672   19.0067 H   0  0  0  0  0  0
  -23.9801  -27.2981   19.0268 H   0  0  0  0  0  0
  -23.7257  -30.5971   19.4047 H   0  0  0  0  0  0
  -22.7398  -29.2431   19.8643 H   0  0  0  0  0  0
  -25.1277  -36.1970   25.0823 H   0  0  0  0  0  0
  -20.9978  -28.3233   24.1413 H   0  0  0  0  0  0
  -20.5634  -26.2273   23.3608 H   0  0  0  0  0  0
  -21.6629  -26.7408   22.1223 H   0  0  0  0  0  0
  -19.6909  -25.6287   21.1214 H   0  0  0  0  0  0
  -19.6696  -27.3190   20.6730 H   0  0  0  0  0  0
  -17.4196  -26.6648   21.4023 H   0  0  0  0  0  0
  -18.0358  -26.0054   22.9019 H   0  0  0  0  0  0
  -19.7936  -30.7227   24.2316 H   0  0  0  0  0  0
  -17.5018  -31.6261   24.5160 H   0  0  0  0  0  0
  -15.5354  -30.2988   23.7626 H   0  0  0  0  0  0
  -15.8670  -28.0814   22.7048 H   0  0  0  0  0  0
  -24.5906  -30.7080   25.7837 H   0  0  0  0  0  0
  -24.8958  -32.2893   26.4929 H   0  0  0  0  0  0
  -25.8103  -30.8908   27.0233 H   0  0  0  0  0  0
  -26.2834  -29.6821   24.1130 H   0  0  0  0  0  0
  -27.4051  -29.7261   25.4542 H   0  0  0  0  0  0
  -27.8672  -30.4366   23.9241 H   0  0  0  0  0  0
  -27.2666  -33.3599   26.2097 H   0  0  0  0  0  0
  -28.3847  -32.6897   25.0308 H   0  0  0  0  0  0
  -28.0729  -31.8419   26.5377 H   0  0  0  0  0  0
  -28.2605  -38.0099   24.7474 H   0  0  0  0  0  0
  -28.1043  -36.2622   24.6311 H   0  0  0  0  0  0
  -27.2292  -37.1503   25.8869 H   0  0  0  0  0  0
  -20.9298  -29.8795   21.6966 H   0  0  0  0  0  0
  -26.0169  -38.2867   24.1401 H   0  0  0  0  0  0
  -29.0650  -16.9102   17.4441 H   0  0  0  0  0  0
  -27.7156  -16.2857   18.3816 H   0  0  0  0  0  0
  -29.2784  -15.4847   18.3946 H   0  0  0  0  0  0
  -24.8541  -20.5100   18.5105 H   0  0  0  0  0  0
  -25.5612  -19.1186   17.7009 H   0  0  0  0  0  0
  -26.0012  -20.7516   17.1938 H   0  0  0  0  0  0
  -27.1545  -21.1594   19.3566 H   0  0  0  0  0  0
  -26.5875  -19.6359   19.9952 H   0  0  0  0  0  0
  -30.0868  -24.3584   19.7916 H   0  0  0  0  0  0
  -30.1366  -25.0371   21.3944 H   0  0  0  0  0  0
  -27.5470  -25.1512   21.3149 H   0  0  0  0  0  0
  -27.6890  -24.7402   19.6146 H   0  0  0  0  0  0
  -29.1600  -20.8020   22.1852 H   0  0  0  0  0  0
  -29.1010  -15.1210   21.6172 H   0  0  0  0  0  0
  1 25  1  0  0  0
  1 30  2  0  0  0
  1 84  1  0  0  0
  2  3  1  0  0  0
  2 25  1  0  0  0
  2 89  1  0  0  0
  2 90  1  0  0  0
  3  4  1  0  0  0
  3 91  1  0  0  0
  3 92  1  0  0  0
  4  5  1  0  0  0
  4 93  1  0  0  0
  4 94  1  0  0  0
  5  6  1  0  0  0
  5 26  1  0  0  0
  5 95  1  0  0  0
  6 25  1  0  0  0
  6 96  1  0  0  0
  6 97  1  0  0  0
  7  8  2  0  0  0
  7 26  1  0  0  0
  7 29  1  0  0  0
  8  9  1  0  0  0
  8 22  1  0  0  0
  9 10  1  0  0  0
  9 27  2  0  0  0
 10 11  2  0  0  0
 10 15  1  0  0  0
 11 12  1  0  0  0
 11 98  1  0  0  0
 12 13  2  0  0  0
 12 99  1  0  0  0
 13 14  1  0  0  0
 13 31  1  0  0  0
 14 15  2  0  0  0
 14100  1  0  0  0
 15101  1  0  0  0
 16 17  2  0  0  0
 16 21  1  0  0  0
 16 31  1  0  0  0
 17 18  1  0  0  0
 17102  1  0  0  0
 18 19  2  0  0  0
 18103  1  0  0  0
 19 20  1  0  0  0
 19 24  1  0  0  0
 20 21  2  0  0  0
 20104  1  0  0  0
 21 23  1  0  0  0
 22 28  1  0  0  0
 22 32  2  0  0  0
 26 27  1  0  0  0
 28105  1  0  0  0
 28106  1  0  0  0
 29107  1  0  0  0
 29108  1  0  0  0
 33 34  1  0  0  0
 33 66  1  0  0  0
 33 70  2  0  0  0
 34 36  1  0  0  0
 34 59  1  0  0  0
 34109  1  0  0  0
 35 44  2  0  0  0
 35 45  1  0  0  0
 35 68  1  0  0  0
 36 56  1  0  0  0
 36110  1  0  0  0
 37 39  1  0  0  0
 37 47  1  0  0  0
 37 66  1  0  0  0
 37111  1  0  0  0
 38 43  2  0  0  0
 38 46  1  0  0  0
 38 47  1  0  0  0
 39 64  1  0  0  0
 39 67  2  0  0  0
 40 52  1  0  0  0
 40 53  2  0  0  0
 40 58  1  0  0  0
 41112  1  0  0  0
 41113  1  0  0  0
 41114  1  0  0  0
 41 48  1  0  0  0
 42 43  1  0  0  0
 42 66  1  0  0  0
 42115  1  0  0  0
 42116  1  0  0  0
 43 44  1  0  0  0
 44117  1  0  0  0
 45 46  2  0  0  0
 45118  1  0  0  0
 46119  1  0  0  0
 47120  1  0  0  0
 47121  1  0  0  0
 48 56  1  0  0  0
 48 65  1  0  0  0
 48122  1  0  0  0
 49 50  1  0  0  0
 49 53  1  0  0  0
 49 64  1  0  0  0
 49123  1  0  0  0
 50 51  1  0  0  0
 50124  1  0  0  0
 50125  1  0  0  0
 51 52  1  0  0  0
 51126  1  0  0  0
 51127  1  0  0  0
 52128  1  0  0  0
 52129  1  0  0  0
 53 54  1  0  0  0
 54 55  2  0  0  0
 54130  1  0  0  0
 55 57  1  0  0  0
 55131  1  0  0  0
 56 69  2  0  0  0
 57 58  2  0  0  0
 57132  1  0  0  0
 58133  1  0  0  0
 59 60  1  0  0  0
 59 61  1  0  0  0
 59 62  1  0  0  0
 60134  1  0  0  0
 60135  1  0  0  0
 60136  1  0  0  0
 61137  1  0  0  0
 61138  1  0  0  0
 61139  1  0  0  0
 62140  1  0  0  0
 62141  1  0  0  0
 62142  1  0  0  0
 63 65  1  0  0  0
 63143  1  0  0  0
 63144  1  0  0  0
 63145  1  0  0  0
 64146  1  0  0  0
 65147  1  0  0  0
 68 82  1  0  0  0
 71 72  1  0  0  0
 71 73  2  0  0  0
 71 75  1  0  0  0
 72 74  2  0  0  0
 72 78  1  0  0  0
 73 83  1  0  0  0
 73 88  1  0  0  0
 74 84  1  0  0  0
 74 88  1  0  0  0
 75 80  1  0  0  0
 75 85  2  0  0  0
 76 77  1  0  0  0
 76 81  1  0  0  0
 76 86  2  0  0  0
 77 83  1  0  0  0
 77 87  2  0  0  0
 78148  1  0  0  0
 78149  1  0  0  0
 78150  1  0  0  0
 79 80  1  0  0  0
 79151  1  0  0  0
 79152  1  0  0  0
 79153  1  0  0  0
 80154  1  0  0  0
 80155  1  0  0  0
 81 82  1  0  0  0
 81156  1  0  0  0
 81157  1  0  0  0
 82158  1  0  0  0
 82159  1  0  0  0
 83160  1  0  0  0
 84161  1  0  0  0
M  ISO  4   1 100  68 101  82 101  84 100
M  END
> <chiral flag>
0

> <version>
0

> <s_m_source_file>
/data/baiqing/PycharmProjects/Reinvent-master-3.2/result/LINK_invent/BTK/process_docking_weight1_custom_product_contain_oxygen_bond_distance_aromatic_linkinvent_7_9_3/rearranged_h_0177.sdf

> <i_m_source_file_index>
37

> <r_mmod_Potential_Energy-OPLS-2005>
42.5065040588379

> <r_mmod_Stretch_Energy-OPLS-2005>
44.6740036010742

> <r_mmod_Bend_Energy-OPLS-2005>
111.372749328613

> <r_mmod_Torsional_Energy-OPLS-2005>
324.610473632812

> <r_mmod_Improper_Torsional_Energy-OPLS-2005>
6.05391073226929

> <r_mmod_Van_der_Waal_Energy-OPLS-2005>
128.545166015625

> <r_mmod_Electrostatic_Energy-OPLS-2005>
-343.896423339844

> <r_mmod_Solvation_Energy-OPLS-2005>
-247.038497924805

> <b_mmod_Minimization_Converged-OPLS-2005>
0

> <r_mmod_RMS_Derivative-OPLS-2005>
2.14238619804382

$$$$
37
                    3D
 Structure written by MMmdl.
166174  0  0  1  0            999 V2000
  -30.6862  -14.5835   20.4883 C   0  0  0  0  0  0
  -30.4207  -12.3573   19.4588 C   0  0  0  0  0  0
  -29.5090  -12.5129   18.2231 C   0  0  0  0  0  0
  -28.0289  -12.3620   18.6257 C   0  0  0  0  0  0
  -27.6543  -13.2272   19.8597 C   0  0  2  0  0  0
  -28.6935  -13.1014   20.9972 C   0  0  0  0  0  0
  -25.2557  -13.8200   20.5677 C   0  0  0  0  0  0
  -24.1821  -13.0456   20.9141 C   0  0  0  0  0  0
  -24.6380  -11.6922   20.8700 C   0  0  0  0  0  0
  -23.9043  -10.4320   21.0379 C   0  0  0  0  0  0
  -24.3606   -9.4237   21.9160 C   0  0  0  0  0  0
  -23.6290   -8.2260   22.0740 C   0  0  0  0  0  0
  -22.4275   -8.0287   21.3527 C   0  0  0  0  0  0
  -21.9904   -9.0252   20.4643 C   0  0  0  0  0  0
  -22.7207  -10.2142   20.3038 C   0  0  0  0  0  0
  -21.6873   -6.0731   22.5274 C   0  0  0  0  0  0
  -21.4021   -6.5635   23.8209 C   0  0  0  0  0  0
  -21.3667   -5.6763   24.9160 C   0  0  0  0  0  0
  -21.6062   -4.3025   24.7212 C   0  0  0  0  0  0
  -21.8823   -3.8122   23.4320 C   0  0  0  0  0  0
  -21.9207   -4.6951   22.3386 C   0  0  0  0  0  0
  -22.7867  -13.5277   21.1802 C   0  0  0  0  0  0
  -22.1680   -4.2133   21.0966 F   0  0  0  0  0  0
  -21.5638   -3.4516   25.7730 F   0  0  0  0  0  0
  -30.0212  -13.3899   20.4370 N   0  0  0  0  0  0
  -26.3001  -12.9400   20.3275 N   0  0  0  0  0  0
  -25.9322  -11.6547   20.5693 N   0  0  0  0  0  0
  -22.0467  -12.8325   22.0375 N   0  0  0  0  0  0
  -25.4260  -15.1921   20.4171 N   0  0  0  0  0  0
  -31.8554  -14.6816   20.1093 O   0  0  0  0  0  0
  -21.6632   -6.8876   21.4245 O   0  0  0  0  0  0
  -22.3588  -14.5605   20.6623 O   0  0  0  0  0  0
  -24.6207  -31.8645   23.2048 C   0  0  0  0  0  0
  -25.9078  -32.4791   23.8364 C   0  0  1  0  0  0
  -27.2238  -27.3677   20.1083 C   0  0  0  0  0  0
  -25.5914  -33.8589   24.2296 N   0  0  0  0  0  0
  -23.4103  -30.4879   21.5472 C   0  0  2  0  0  0
  -24.8541  -28.9516   20.1084 C   0  0  0  0  0  0
  -22.7456  -29.4642   22.4970 C   0  0  0  0  0  0
  -18.0272  -28.1393   22.8483 C   0  0  0  0  0  0
  -24.1490  -36.7305   23.2633 C   0  0  0  0  0  0
  -25.9460  -30.8096   21.3676 C   0  0  0  0  0  0
  -26.0180  -29.4409   20.7122 C   0  0  0  0  0  0
  -27.2015  -28.6559   20.7112 C   0  0  0  0  0  0
  -26.0274  -26.9059   19.5083 C   0  0  0  0  0  0
  -24.8586  -27.6865   19.5015 C   0  0  0  0  0  0
  -23.6192  -29.8228   20.1612 C   0  0  0  0  0  0
  -25.4111  -36.3095   24.0334 C   0  0  1  0  0  0
  -20.5873  -28.3687   23.1307 C   0  0  2  0  0  0
  -20.6764  -26.9419   22.5417 C   0  0  0  0  0  0
  -19.5746  -26.6395   21.5211 C   0  0  0  0  0  0
  -18.1925  -26.7939   22.1615 C   0  0  0  0  0  0
  -19.1529  -28.8856   23.2884 C   0  0  0  0  0  0
  -18.9449  -30.1464   23.8893 C   0  0  0  0  0  0
  -17.6443  -30.6588   24.0570 C   0  0  0  0  0  0
  -25.9043  -34.9463   23.5113 C   0  0  0  0  0  0
  -16.5343  -29.9084   23.6319 C   0  0  0  0  0  0
  -16.7268  -28.6515   23.0335 C   0  0  0  0  0  0
  -26.4471  -31.6596   25.0728 C   0  0  0  0  0  0
  -25.3714  -31.3759   26.1477 C   0  0  0  0  0  0
  -27.0256  -30.3004   24.6153 C   0  0  0  0  0  0
  -27.6048  -32.4324   25.7472 C   0  0  0  0  0  0
  -27.5598  -37.1783   24.8449 C   0  0  0  0  0  0
  -21.4182  -29.3036   22.3715 N   0  0  0  0  0  0
  -26.4289  -37.3796   23.9426 N   0  0  0  0  0  0
  -24.6774  -31.0700   22.0968 N   0  0  0  0  0  0
  -23.4212  -28.8197   23.3029 O   0  0  0  0  0  0
  -28.3740  -26.5836   20.1758 O   0  0  0  0  0  0
  -26.5613  -34.8920   22.4678 O   0  0  0  0  0  0
  -23.5386  -32.1423   23.7403 O   0  0  0  0  0  0
  -29.7248  -19.2458   19.7111 C   0  0  0  0  0  0
  -30.1926  -18.8132   18.4759 C   0  0  0  0  0  0
  -30.0728  -16.9658   20.1253 C   0  0  0  0  0  0
  -29.2872  -20.6958   20.0172 C   0  0  0  0  0  0
  -29.0214  -24.1046   19.9765 C   0  0  0  0  0  0
  -31.5306  -22.5492   16.3741 C   0  0  0  0  0  0
  -30.5873  -24.8772   16.3880 C   0  0  0  0  0  0
  -32.9557  -24.4928   17.0140 C   0  0  0  0  0  0
  -28.5413  -25.4321   19.2973 C   0  0  0  0  0  0
  -31.1985  -23.7384   18.6277 C   0  0  0  0  0  0
  -29.8213  -23.1211   19.0380 C   0  0  1  0  0  0
  -31.5379  -23.8991   17.1128 C   0  0  0  0  0  0
  -29.6107  -18.1428   20.6181 N   0  0  0  0  0  0
  -30.2938  -19.4919   17.2630 N   0  0  0  0  0  0
  -29.9726  -15.6977   20.8118 N   0  0  0  0  0  0
  -29.9661  -21.6500   19.3273 N   0  0  0  0  0  0
  -28.3885  -20.9587   20.8208 O   0  0  0  0  0  0
  -28.8110  -23.9000   21.1758 O   0  0  0  0  0  0
  -30.6763  -17.1334   18.4808 S   0  0  0  0  0  0
  -31.4694  -12.4443   19.1640 H   0  0  0  0  0  0
  -30.3147  -11.3624   19.8938 H   0  0  0  0  0  0
  -29.7691  -11.7724   17.4647 H   0  0  0  0  0  0
  -29.6709  -13.4893   17.7643 H   0  0  0  0  0  0
  -27.8482  -11.3076   18.8385 H   0  0  0  0  0  0
  -27.3825  -12.6206   17.7853 H   0  0  0  0  0  0
  -27.6721  -14.2636   19.5153 H   0  0  0  0  0  0
  -28.6810  -12.0978   21.4274 H   0  0  0  0  0  0
  -28.4453  -13.7832   21.8126 H   0  0  0  0  0  0
  -25.2740   -9.5744   22.4726 H   0  0  0  0  0  0
  -24.0000   -7.4674   22.7467 H   0  0  0  0  0  0
  -21.0826   -8.8754   19.8986 H   0  0  0  0  0  0
  -22.3620  -10.9665   19.6143 H   0  0  0  0  0  0
  -21.1997   -7.6144   23.9717 H   0  0  0  0  0  0
  -21.1509   -6.0476   25.9065 H   0  0  0  0  0  0
  -22.0605   -2.7585   23.2787 H   0  0  0  0  0  0
  -22.3989  -11.9982   22.4823 H   0  0  0  0  0  0
  -21.1100  -13.1430   22.2533 H   0  0  0  0  0  0
  -24.6523  -15.8386   20.5297 H   0  0  0  0  0  0
  -26.2836  -15.6469   20.1316 H   0  0  0  0  0  0
  -26.7156  -32.5470   23.1122 H   0  0  0  0  0  0
  -25.0072  -33.9745   25.0448 H   0  0  0  0  0  0
  -22.7007  -31.3063   21.4093 H   0  0  0  0  0  0
  -23.3761  -35.9625   23.3266 H   0  0  0  0  0  0
  -24.3612  -36.8949   22.2057 H   0  0  0  0  0  0
  -23.7214  -37.6489   23.6670 H   0  0  0  0  0  0
  -26.0700  -31.5722   20.5981 H   0  0  0  0  0  0
  -26.8303  -30.8583   21.9914 H   0  0  0  0  0  0
  -28.0946  -29.0292   21.1940 H   0  0  0  0  0  0
  -25.9345  -25.9231   19.0760 H   0  0  0  0  0  0
  -23.9614  -27.2935   19.0432 H   0  0  0  0  0  0
  -23.7285  -30.5960   19.4004 H   0  0  0  0  0  0
  -22.7418  -29.2433   19.8684 H   0  0  0  0  0  0
  -25.1279  -36.1950   25.0826 H   0  0  0  0  0  0
  -20.9952  -28.3244   24.1436 H   0  0  0  0  0  0
  -20.5662  -26.2304   23.3614 H   0  0  0  0  0  0
  -21.6640  -26.7467   22.1214 H   0  0  0  0  0  0
  -19.6908  -25.6307   21.1240 H   0  0  0  0  0  0
  -19.6678  -27.3206   20.6738 H   0  0  0  0  0  0
  -17.4210  -26.6699   21.3999 H   0  0  0  0  0  0
  -18.0307  -26.0081   22.9010 H   0  0  0  0  0  0
  -19.7923  -30.7272   24.2258 H   0  0  0  0  0  0
  -17.5002  -31.6251   24.5197 H   0  0  0  0  0  0
  -15.5336  -30.2983   23.7640 H   0  0  0  0  0  0
  -15.8676  -28.0825   22.7032 H   0  0  0  0  0  0
  -24.5888  -30.7096   25.7849 H   0  0  0  0  0  0
  -24.8893  -32.2923   26.4885 H   0  0  0  0  0  0
  -25.8047  -30.8976   27.0266 H   0  0  0  0  0  0
  -26.2786  -29.6808   24.1172 H   0  0  0  0  0  0
  -27.3934  -29.7227   25.4643 H   0  0  0  0  0  0
  -27.8689  -30.4275   23.9357 H   0  0  0  0  0  0
  -27.2676  -33.3637   26.2038 H   0  0  0  0  0  0
  -28.3839  -32.6865   25.0275 H   0  0  0  0  0  0
  -28.0737  -31.8460   26.5382 H   0  0  0  0  0  0
  -28.2576  -38.0121   24.7567 H   0  0  0  0  0  0
  -28.1126  -36.2656   24.6161 H   0  0  0  0  0  0
  -27.2341  -37.1307   25.8856 H   0  0  0  0  0  0
  -20.9377  -29.8756   21.6915 H   0  0  0  0  0  0
  -26.0170  -38.2868   24.1452 H   0  0  0  0  0  0
  -31.8678  -22.6614   15.3426 H   0  0  0  0  0  0
  -30.5332  -22.1142   16.3281 H   0  0  0  0  0  0
  -32.1900  -21.8235   16.8500 H   0  0  0  0  0  0
  -30.8990  -25.0350   15.3538 H   0  0  0  0  0  0
  -30.5827  -25.8618   16.8562 H   0  0  0  0  0  0
  -29.5596  -24.5168   16.3492 H   0  0  0  0  0  0
  -33.2512  -24.6520   15.9756 H   0  0  0  0  0  0
  -33.6985  -23.8354   17.4677 H   0  0  0  0  0  0
  -33.0187  -25.4571   17.5222 H   0  0  0  0  0  0
  -27.6770  -25.1839   18.6935 H   0  0  0  0  0  0
  -29.3021  -25.7349   18.5850 H   0  0  0  0  0  0
  -31.9978  -23.1887   19.1273 H   0  0  0  0  0  0
  -31.2893  -24.7377   19.0597 H   0  0  0  0  0  0
  -29.2270  -23.0973   18.1275 H   0  0  0  0  0  0
  -29.4865  -20.0546   17.0045 H   0  0  0  0  0  0
  -30.5624  -18.9231   16.4649 H   0  0  0  0  0  0
  -29.1344  -15.5625   21.3534 H   0  0  0  0  0  0
  -30.6219  -21.1921   18.7027 H   0  0  0  0  0  0
  1 25  1  0  0  0
  1 30  2  0  0  0
  1 85  1  0  0  0
  2  3  1  0  0  0
  2 25  1  0  0  0
  2 90  1  0  0  0
  2 91  1  0  0  0
  3  4  1  0  0  0
  3 92  1  0  0  0
  3 93  1  0  0  0
  4  5  1  0  0  0
  4 94  1  0  0  0
  4 95  1  0  0  0
  5  6  1  0  0  0
  5 26  1  0  0  0
  5 96  1  0  0  0
  6 25  1  0  0  0
  6 97  1  0  0  0
  6 98  1  0  0  0
  7  8  2  0  0  0
  7 26  1  0  0  0
  7 29  1  0  0  0
  8  9  1  0  0  0
  8 22  1  0  0  0
  9 10  1  0  0  0
  9 27  2  0  0  0
 10 11  2  0  0  0
 10 15  1  0  0  0
 11 12  1  0  0  0
 11 99  1  0  0  0
 12 13  2  0  0  0
 12100  1  0  0  0
 13 14  1  0  0  0
 13 31  1  0  0  0
 14 15  2  0  0  0
 14101  1  0  0  0
 15102  1  0  0  0
 16 17  2  0  0  0
 16 21  1  0  0  0
 16 31  1  0  0  0
 17 18  1  0  0  0
 17103  1  0  0  0
 18 19  2  0  0  0
 18104  1  0  0  0
 19 20  1  0  0  0
 19 24  1  0  0  0
 20 21  2  0  0  0
 20105  1  0  0  0
 21 23  1  0  0  0
 22 28  1  0  0  0
 22 32  2  0  0  0
 26 27  1  0  0  0
 28106  1  0  0  0
 28107  1  0  0  0
 29108  1  0  0  0
 29109  1  0  0  0
 33 34  1  0  0  0
 33 66  1  0  0  0
 33 70  2  0  0  0
 34 36  1  0  0  0
 34 59  1  0  0  0
 34110  1  0  0  0
 35 44  2  0  0  0
 35 45  1  0  0  0
 35 68  1  0  0  0
 36 56  1  0  0  0
 36111  1  0  0  0
 37 39  1  0  0  0
 37 47  1  0  0  0
 37 66  1  0  0  0
 37112  1  0  0  0
 38 43  2  0  0  0
 38 46  1  0  0  0
 38 47  1  0  0  0
 39 64  1  0  0  0
 39 67  2  0  0  0
 40 52  1  0  0  0
 40 53  2  0  0  0
 40 58  1  0  0  0
 41113  1  0  0  0
 41114  1  0  0  0
 41115  1  0  0  0
 41 48  1  0  0  0
 42 43  1  0  0  0
 42 66  1  0  0  0
 42116  1  0  0  0
 42117  1  0  0  0
 43 44  1  0  0  0
 44118  1  0  0  0
 45 46  2  0  0  0
 45119  1  0  0  0
 46120  1  0  0  0
 47121  1  0  0  0
 47122  1  0  0  0
 48 56  1  0  0  0
 48 65  1  0  0  0
 48123  1  0  0  0
 49 50  1  0  0  0
 49 53  1  0  0  0
 49 64  1  0  0  0
 49124  1  0  0  0
 50 51  1  0  0  0
 50125  1  0  0  0
 50126  1  0  0  0
 51 52  1  0  0  0
 51127  1  0  0  0
 51128  1  0  0  0
 52129  1  0  0  0
 52130  1  0  0  0
 53 54  1  0  0  0
 54 55  2  0  0  0
 54131  1  0  0  0
 55 57  1  0  0  0
 55132  1  0  0  0
 56 69  2  0  0  0
 57 58  2  0  0  0
 57133  1  0  0  0
 58134  1  0  0  0
 59 60  1  0  0  0
 59 61  1  0  0  0
 59 62  1  0  0  0
 60135  1  0  0  0
 60136  1  0  0  0
 60137  1  0  0  0
 61138  1  0  0  0
 61139  1  0  0  0
 61140  1  0  0  0
 62141  1  0  0  0
 62142  1  0  0  0
 62143  1  0  0  0
 63 65  1  0  0  0
 63144  1  0  0  0
 63145  1  0  0  0
 63146  1  0  0  0
 64147  1  0  0  0
 65148  1  0  0  0
 68 79  1  0  0  0
 71 72  2  0  0  0
 71 74  1  0  0  0
 71 83  1  0  0  0
 72 84  1  0  0  0
 72 89  1  0  0  0
 73 83  2  0  0  0
 73 85  1  0  0  0
 73 89  1  0  0  0
 74 86  1  0  0  0
 74 87  2  0  0  0
 75 79  1  0  0  0
 75 81  1  0  0  0
 75 88  2  0  0  0
 76149  1  0  0  0
 76150  1  0  0  0
 76151  1  0  0  0
 76 82  1  0  0  0
 77 82  1  0  0  0
 77152  1  0  0  0
 77153  1  0  0  0
 77154  1  0  0  0
 78 82  1  0  0  0
 78155  1  0  0  0
 78156  1  0  0  0
 78157  1  0  0  0
 79158  1  0  0  0
 79159  1  0  0  0
 80 82  1  0  0  0
 80160  1  0  0  0
 80161  1  0  0  0
 80 81  1  0  0  0
 81 86  1  0  0  0
 81162  1  0  0  0
 84163  1  0  0  0
 84164  1  0  0  0
 85165  1  0  0  0
 86166  1  0  0  0
M  ISO  4   1 100  68 101  79 101  85 100
M  END
> <chiral flag>
0

> <version>
0

> <s_m_source_file>
/data/baiqing/PycharmProjects/Reinvent-master-3.2/result/LINK_invent/BTK/process_docking_weight1_custom_product_contain_oxygen_bond_distance_aromatic_linkinvent_7_9_3/rearranged_h_0177.sdf

> <i_m_source_file_index>
38

> <r_mmod_Potential_Energy-OPLS-2005>
102.345329284668

> <r_mmod_Stretch_Energy-OPLS-2005>
66.7851791381836

> <r_mmod_Bend_Energy-OPLS-2005>
168.999328613281

> <r_mmod_Torsional_Energy-OPLS-2005>
248.385345458984

> <r_mmod_Improper_Torsional_Energy-OPLS-2005>
11.1636590957642

> <r_mmod_Van_der_Waal_Energy-OPLS-2005>
127.773902893066

> <r_mmod_Electrostatic_Energy-OPLS-2005>
-285.1904296875

> <r_mmod_Solvation_Energy-OPLS-2005>
-269.22265625

> <b_mmod_Minimization_Converged-OPLS-2005>
0

> <r_mmod_RMS_Derivative-OPLS-2005>
3.93064880371094

$$$$
38
                    3D
 Structure written by MMmdl.
153161  0  0  1  0            999 V2000
  -30.6712  -14.4889   20.5874 C   0  0  0  0  0  0
  -30.4346  -12.3225   19.4185 C   0  0  0  0  0  0
  -29.4976  -12.5162   18.2067 C   0  0  0  0  0  0
  -28.0187  -12.3697   18.6189 C   0  0  0  0  0  0
  -27.6650  -13.2017   19.8801 C   0  0  2  0  0  0
  -28.7062  -12.9604   20.9967 C   0  0  0  0  0  0
  -25.2599  -13.8142   20.5667 C   0  0  0  0  0  0
  -24.1841  -13.0429   20.9156 C   0  0  0  0  0  0
  -24.6388  -11.6893   20.8723 C   0  0  0  0  0  0
  -23.9050  -10.4285   21.0397 C   0  0  0  0  0  0
  -24.3605   -9.4204   21.9178 C   0  0  0  0  0  0
  -23.6284   -8.2238   22.0749 C   0  0  0  0  0  0
  -22.4269   -8.0273   21.3539 C   0  0  0  0  0  0
  -21.9899   -9.0245   20.4643 C   0  0  0  0  0  0
  -22.7222  -10.2126   20.3049 C   0  0  0  0  0  0
  -21.6855   -6.0729   22.5277 C   0  0  0  0  0  0
  -21.4014   -6.5634   23.8209 C   0  0  0  0  0  0
  -21.3659   -5.6788   24.9173 C   0  0  0  0  0  0
  -21.6045   -4.3051   24.7225 C   0  0  0  0  0  0
  -21.8822   -3.8141   23.4348 C   0  0  0  0  0  0
  -21.9192   -4.6956   22.3402 C   0  0  0  0  0  0
  -22.7867  -13.5235   21.1830 C   0  0  0  0  0  0
  -22.1663   -4.2142   21.0981 F   0  0  0  0  0  0
  -21.5628   -3.4535   25.7738 F   0  0  0  0  0  0
  -30.0385  -13.2895   20.4549 N   0  0  0  0  0  0
  -26.3040  -12.9303   20.3383 N   0  0  0  0  0  0
  -25.9316  -11.6469   20.5766 N   0  0  0  0  0  0
  -22.0511  -12.8228   22.0393 N   0  0  0  0  0  0
  -25.4330  -15.1853   20.4073 N   0  0  0  0  0  0
  -31.7764  -14.7231   20.0918 O   0  0  0  0  0  0
  -21.6636   -6.8870   21.4238 O   0  0  0  0  0  0
  -22.3549  -14.5546   20.6690 O   0  0  0  0  0  0
  -24.6132  -31.8673   23.2095 C   0  0  0  0  0  0
  -25.9020  -32.4825   23.8399 C   0  0  1  0  0  0
  -27.2398  -27.4259   20.1075 C   0  0  0  0  0  0
  -25.5885  -33.8623   24.2336 N   0  0  0  0  0  0
  -23.4043  -30.4900   21.5471 C   0  0  2  0  0  0
  -24.8562  -28.9488   20.1204 C   0  0  0  0  0  0
  -22.7404  -29.4663   22.4963 C   0  0  0  0  0  0
  -18.0281  -28.1381   22.8502 C   0  0  0  0  0  0
  -24.1486  -36.7315   23.2639 C   0  0  0  0  0  0
  -25.9333  -30.8286   21.3667 C   0  0  0  0  0  0
  -26.0138  -29.4579   20.7242 C   0  0  0  0  0  0
  -27.2102  -28.7013   20.7223 C   0  0  0  0  0  0
  -26.0716  -26.9353   19.4932 C   0  0  0  0  0  0
  -24.8789  -27.6850   19.5048 C   0  0  0  0  0  0
  -23.6177  -29.8173   20.1644 C   0  0  0  0  0  0
  -25.4106  -36.3115   24.0345 C   0  0  1  0  0  0
  -20.5870  -28.3668   23.1314 C   0  0  2  0  0  0
  -20.6767  -26.9400   22.5419 C   0  0  0  0  0  0
  -19.5744  -26.6391   21.5212 C   0  0  0  0  0  0
  -18.1926  -26.7931   22.1629 C   0  0  0  0  0  0
  -19.1531  -28.8837   23.2914 C   0  0  0  0  0  0
  -18.9459  -30.1451   23.8918 C   0  0  0  0  0  0
  -17.6459  -30.6587   24.0572 C   0  0  0  0  0  0
  -25.9030  -34.9475   23.5142 C   0  0  0  0  0  0
  -16.5351  -29.9094   23.6326 C   0  0  0  0  0  0
  -16.7272  -28.6510   23.0349 C   0  0  0  0  0  0
  -26.4452  -31.6598   25.0719 C   0  0  0  0  0  0
  -25.3728  -31.3709   26.1480 C   0  0  0  0  0  0
  -27.0280  -30.3043   24.6087 C   0  0  0  0  0  0
  -27.6039  -32.4303   25.7479 C   0  0  0  0  0  0
  -27.5585  -37.1816   24.8468 C   0  0  0  0  0  0
  -21.4129  -29.3042   22.3708 N   0  0  0  0  0  0
  -26.4294  -37.3797   23.9414 N   0  0  0  0  0  0
  -24.6684  -31.0771   22.0997 N   0  0  0  0  0  0
  -23.4168  -28.8206   23.3009 O   0  0  0  0  0  0
  -28.3855  -26.6630   20.0266 O   0  0  0  0  0  0
  -26.5590  -34.8918   22.4701 O   0  0  0  0  0  0
  -23.5320  -32.1427   23.7479 O   0  0  0  0  0  0
  -28.8175  -18.9673   21.5140 C   0  0  0  0  0  0
  -31.0121  -17.6314   20.5474 C   0  0  0  0  0  0
  -29.9752  -16.8585   21.1141 C   0  0  0  0  0  0
  -28.8652  -17.5648   21.6060 C   0  0  0  0  0  0
  -29.8916  -19.6711   20.9268 C   0  0  0  0  0  0
  -29.3894  -23.4762   20.9282 C   0  0  0  0  0  0
  -28.8813  -21.9924   20.8367 C   0  0  0  0  0  0
  -28.8501  -26.0607   21.2423 C   0  0  0  0  0  0
  -28.4030  -24.5694   21.4492 C   0  0  2  0  0  0
  -30.9705  -18.9874   20.4690 N   0  0  0  0  0  0
  -29.9501  -15.4283   21.2308 N   0  0  0  0  0  0
  -29.8997  -21.1004   20.8775 N   0  0  0  0  0  0
  -30.5622  -23.7580   20.6496 O   0  0  0  0  0  0
  -27.6832  -21.7052   20.7189 O   0  0  0  0  0  0
  -28.2011  -24.4041   22.8531 O   0  0  0  0  0  0
  -27.8374  -16.8847   22.1707 F   0  0  0  0  0  0
  -31.4759  -12.4443   19.1145 H   0  0  0  0  0  0
  -30.3551  -11.3060   19.8066 H   0  0  0  0  0  0
  -29.7402  -11.7956   17.4244 H   0  0  0  0  0  0
  -29.6593  -13.5038   17.7716 H   0  0  0  0  0  0
  -27.8311  -11.3125   18.8101 H   0  0  0  0  0  0
  -27.3665  -12.6476   17.7902 H   0  0  0  0  0  0
  -27.7145  -14.2526   19.5945 H   0  0  0  0  0  0
  -28.6884  -11.9148   21.3076 H   0  0  0  0  0  0
  -28.4559  -13.5262   21.8950 H   0  0  0  0  0  0
  -25.2754   -9.5683   22.4748 H   0  0  0  0  0  0
  -23.9997   -7.4631   22.7466 H   0  0  0  0  0  0
  -21.0831   -8.8761   19.8950 H   0  0  0  0  0  0
  -22.3682  -10.9661   19.6154 H   0  0  0  0  0  0
  -21.2009   -7.6142   23.9712 H   0  0  0  0  0  0
  -21.1479   -6.0517   25.9075 H   0  0  0  0  0  0
  -22.0603   -2.7603   23.2849 H   0  0  0  0  0  0
  -22.4129  -11.9887   22.4776 H   0  0  0  0  0  0
  -21.1131  -13.1252   22.2606 H   0  0  0  0  0  0
  -24.6758  -15.8466   20.5392 H   0  0  0  0  0  0
  -26.3031  -15.6279   20.1413 H   0  0  0  0  0  0
  -26.7089  -32.5551   23.1167 H   0  0  0  0  0  0
  -25.0040  -33.9793   25.0485 H   0  0  0  0  0  0
  -22.6945  -31.3073   21.4038 H   0  0  0  0  0  0
  -23.3746  -35.9652   23.3311 H   0  0  0  0  0  0
  -24.3580  -36.8911   22.2050 H   0  0  0  0  0  0
  -23.7232  -37.6524   23.6639 H   0  0  0  0  0  0
  -26.0449  -31.5885   20.5915 H   0  0  0  0  0  0
  -26.8211  -30.8890   21.9841 H   0  0  0  0  0  0
  -28.1069  -29.0972   21.1788 H   0  0  0  0  0  0
  -26.0852  -25.9706   19.0051 H   0  0  0  0  0  0
  -23.9910  -27.2890   19.0316 H   0  0  0  0  0  0
  -23.7284  -30.5885   19.4012 H   0  0  0  0  0  0
  -22.7428  -29.2358   19.8666 H   0  0  0  0  0  0
  -25.1280  -36.1989   25.0839 H   0  0  0  0  0  0
  -20.9992  -28.3235   24.1422 H   0  0  0  0  0  0
  -20.5655  -26.2273   23.3606 H   0  0  0  0  0  0
  -21.6642  -26.7435   22.1221 H   0  0  0  0  0  0
  -19.6895  -25.6307   21.1229 H   0  0  0  0  0  0
  -19.6681  -27.3212   20.6748 H   0  0  0  0  0  0
  -17.4197  -26.6692   21.4027 H   0  0  0  0  0  0
  -18.0330  -26.0062   22.9017 H   0  0  0  0  0  0
  -19.7934  -30.7273   24.2279 H   0  0  0  0  0  0
  -17.5015  -31.6263   24.5183 H   0  0  0  0  0  0
  -15.5356  -30.3005   23.7629 H   0  0  0  0  0  0
  -15.8675  -28.0839   22.7040 H   0  0  0  0  0  0
  -24.5890  -30.7061   25.7833 H   0  0  0  0  0  0
  -24.8929  -32.2864   26.4952 H   0  0  0  0  0  0
  -25.8089  -30.8870   27.0228 H   0  0  0  0  0  0
  -26.2826  -29.6818   24.1123 H   0  0  0  0  0  0
  -27.4038  -29.7266   25.4543 H   0  0  0  0  0  0
  -27.8666  -30.4377   23.9247 H   0  0  0  0  0  0
  -27.2681  -33.3605   26.2079 H   0  0  0  0  0  0
  -28.3841  -32.6853   25.0292 H   0  0  0  0  0  0
  -28.0706  -31.8398   26.5374 H   0  0  0  0  0  0
  -28.2617  -38.0104   24.7515 H   0  0  0  0  0  0
  -28.1066  -36.2637   24.6296 H   0  0  0  0  0  0
  -27.2303  -37.1469   25.8871 H   0  0  0  0  0  0
  -20.9270  -29.8769   21.6951 H   0  0  0  0  0  0
  -26.0187  -38.2879   24.1409 H   0  0  0  0  0  0
  -27.9567  -19.4807   21.9141 H   0  0  0  0  0  0
  -31.9087  -17.1808   20.1518 H   0  0  0  0  0  0
  -29.9376  -26.1452   21.2575 H   0  0  0  0  0  0
  -28.5203  -26.6710   22.0865 H   0  0  0  0  0  0
  -27.4397  -24.4163   20.9608 H   0  0  0  0  0  0
  -29.1146  -15.0679   21.6693 H   0  0  0  0  0  0
  -30.8101  -21.5384   20.8401 H   0  0  0  0  0  0
  -29.0328  -24.5862   23.2815 H   0  0  0  0  0  0
  1 25  1  0  0  0
  1 30  2  0  0  0
  1 81  1  0  0  0
  2  3  1  0  0  0
  2 25  1  0  0  0
  2 87  1  0  0  0
  2 88  1  0  0  0
  3  4  1  0  0  0
  3 89  1  0  0  0
  3 90  1  0  0  0
  4  5  1  0  0  0
  4 91  1  0  0  0
  4 92  1  0  0  0
  5  6  1  0  0  0
  5 26  1  0  0  0
  5 93  1  0  0  0
  6 25  1  0  0  0
  6 94  1  0  0  0
  6 95  1  0  0  0
  7  8  2  0  0  0
  7 26  1  0  0  0
  7 29  1  0  0  0
  8  9  1  0  0  0
  8 22  1  0  0  0
  9 10  1  0  0  0
  9 27  2  0  0  0
 10 11  2  0  0  0
 10 15  1  0  0  0
 11 12  1  0  0  0
 11 96  1  0  0  0
 12 13  2  0  0  0
 12 97  1  0  0  0
 13 14  1  0  0  0
 13 31  1  0  0  0
 14 15  2  0  0  0
 14 98  1  0  0  0
 15 99  1  0  0  0
 16 17  2  0  0  0
 16 21  1  0  0  0
 16 31  1  0  0  0
 17 18  1  0  0  0
 17100  1  0  0  0
 18 19  2  0  0  0
 18101  1  0  0  0
 19 20  1  0  0  0
 19 24  1  0  0  0
 20 21  2  0  0  0
 20102  1  0  0  0
 21 23  1  0  0  0
 22 28  1  0  0  0
 22 32  2  0  0  0
 26 27  1  0  0  0
 28103  1  0  0  0
 28104  1  0  0  0
 29105  1  0  0  0
 29106  1  0  0  0
 33 34  1  0  0  0
 33 66  1  0  0  0
 33 70  2  0  0  0
 34 36  1  0  0  0
 34 59  1  0  0  0
 34107  1  0  0  0
 35 44  2  0  0  0
 35 45  1  0  0  0
 35 68  1  0  0  0
 36 56  1  0  0  0
 36108  1  0  0  0
 37 39  1  0  0  0
 37 47  1  0  0  0
 37 66  1  0  0  0
 37109  1  0  0  0
 38 43  2  0  0  0
 38 46  1  0  0  0
 38 47  1  0  0  0
 39 64  1  0  0  0
 39 67  2  0  0  0
 40 52  1  0  0  0
 40 53  2  0  0  0
 40 58  1  0  0  0
 41110  1  0  0  0
 41111  1  0  0  0
 41112  1  0  0  0
 41 48  1  0  0  0
 42 43  1  0  0  0
 42 66  1  0  0  0
 42113  1  0  0  0
 42114  1  0  0  0
 43 44  1  0  0  0
 44115  1  0  0  0
 45 46  2  0  0  0
 45116  1  0  0  0
 46117  1  0  0  0
 47118  1  0  0  0
 47119  1  0  0  0
 48 56  1  0  0  0
 48 65  1  0  0  0
 48120  1  0  0  0
 49 50  1  0  0  0
 49 53  1  0  0  0
 49 64  1  0  0  0
 49121  1  0  0  0
 50 51  1  0  0  0
 50122  1  0  0  0
 50123  1  0  0  0
 51 52  1  0  0  0
 51124  1  0  0  0
 51125  1  0  0  0
 52126  1  0  0  0
 52127  1  0  0  0
 53 54  1  0  0  0
 54 55  2  0  0  0
 54128  1  0  0  0
 55 57  1  0  0  0
 55129  1  0  0  0
 56 69  2  0  0  0
 57 58  2  0  0  0
 57130  1  0  0  0
 58131  1  0  0  0
 59 60  1  0  0  0
 59 61  1  0  0  0
 59 62  1  0  0  0
 60132  1  0  0  0
 60133  1  0  0  0
 60134  1  0  0  0
 61135  1  0  0  0
 61136  1  0  0  0
 61137  1  0  0  0
 62138  1  0  0  0
 62139  1  0  0  0
 62140  1  0  0  0
 63 65  1  0  0  0
 63141  1  0  0  0
 63142  1  0  0  0
 63143  1  0  0  0
 64144  1  0  0  0
 65145  1  0  0  0
 68 78  1  0  0  0
 71 74  2  0  0  0
 71 75  1  0  0  0
 71146  1  0  0  0
 72 73  2  0  0  0
 72 80  1  0  0  0
 72147  1  0  0  0
 73 74  1  0  0  0
 73 81  1  0  0  0
 74 86  1  0  0  0
 75 80  2  0  0  0
 75 82  1  0  0  0
 76 77  1  0  0  0
 76 79  1  0  0  0
 76 83  2  0  0  0
 77 82  1  0  0  0
 77 84  2  0  0  0
 78 79  1  0  0  0
 78148  1  0  0  0
 78149  1  0  0  0
 79 85  1  0  0  0
 79150  1  0  0  0
 81151  1  0  0  0
 82152  1  0  0  0
 85153  1  0  0  0
M  ISO  4   1 100  68 101  78 101  81 100
M  END
> <chiral flag>
0

> <version>
0

> <s_m_source_file>
/data/baiqing/PycharmProjects/Reinvent-master-3.2/result/LINK_invent/BTK/process_docking_weight1_custom_product_contain_oxygen_bond_distance_aromatic_linkinvent_7_9_3/rearranged_h_0177.sdf

> <i_m_source_file_index>
39

> <r_mmod_Potential_Energy-OPLS-2005>
-248.188705444336

> <r_mmod_Stretch_Energy-OPLS-2005>
44.0070724487305

> <r_mmod_Bend_Energy-OPLS-2005>
116.196067810059

> <r_mmod_Torsional_Energy-OPLS-2005>
247.952713012695

> <r_mmod_Improper_Torsional_Energy-OPLS-2005>
3.7541778087616

> <r_mmod_Van_der_Waal_Energy-OPLS-2005>
155.078842163086

> <r_mmod_Electrostatic_Energy-OPLS-2005>
-581.764221191406

> <r_mmod_Solvation_Energy-OPLS-2005>
-246.198455810547

> <b_mmod_Minimization_Converged-OPLS-2005>
0

> <r_mmod_RMS_Derivative-OPLS-2005>
0.994226694107056

$$$$
39
                    3D
 Structure written by MMmdl.
155163  0  0  1  0            999 V2000
  -30.7591  -14.4322   20.6151 C   0  0  0  0  0  0
  -30.4134  -12.3135   19.3776 C   0  0  0  0  0  0
  -29.4768  -12.5470   18.1774 C   0  0  0  0  0  0
  -28.0011  -12.4131   18.5987 C   0  0  0  0  0  0
  -27.6661  -13.2146   19.8879 C   0  0  2  0  0  0
  -28.7197  -12.9420   20.9832 C   0  0  0  0  0  0
  -25.2592  -13.8167   20.5717 C   0  0  0  0  0  0
  -24.1855  -13.0441   20.9199 C   0  0  0  0  0  0
  -24.6406  -11.6903   20.8755 C   0  0  0  0  0  0
  -23.9074  -10.4277   21.0398 C   0  0  0  0  0  0
  -24.3638   -9.4192   21.9165 C   0  0  0  0  0  0
  -23.6336   -8.2227   22.0752 C   0  0  0  0  0  0
  -22.4294   -8.0254   21.3567 C   0  0  0  0  0  0
  -21.9915   -9.0219   20.4682 C   0  0  0  0  0  0
  -22.7247  -10.2116   20.3071 C   0  0  0  0  0  0
  -21.6847   -6.0743   22.5298 C   0  0  0  0  0  0
  -21.3976   -6.5644   23.8221 C   0  0  0  0  0  0
  -21.3663   -5.6802   24.9188 C   0  0  0  0  0  0
  -21.6065   -4.3069   24.7233 C   0  0  0  0  0  0
  -21.8811   -3.8150   23.4367 C   0  0  0  0  0  0
  -21.9167   -4.6965   22.3416 C   0  0  0  0  0  0
  -22.7859  -13.5225   21.1823 C   0  0  0  0  0  0
  -22.1653   -4.2150   21.0994 F   0  0  0  0  0  0
  -21.5667   -3.4534   25.7751 F   0  0  0  0  0  0
  -30.0462  -13.2776   20.4357 N   0  0  0  0  0  0
  -26.3067  -12.9364   20.3488 N   0  0  0  0  0  0
  -25.9345  -11.6515   20.5782 N   0  0  0  0  0  0
  -22.0487  -12.8256   22.0409 N   0  0  0  0  0  0
  -25.4260  -15.1871   20.4050 N   0  0  0  0  0  0
  -31.8431  -14.6013   20.0465 O   0  0  0  0  0  0
  -21.6660   -6.8873   21.4262 O   0  0  0  0  0  0
  -22.3530  -14.5529   20.6672 O   0  0  0  0  0  0
  -24.6132  -31.8662   23.2092 C   0  0  0  0  0  0
  -25.9014  -32.4824   23.8414 C   0  0  1  0  0  0
  -27.2313  -27.4368   20.0812 C   0  0  0  0  0  0
  -25.5905  -33.8635   24.2304 N   0  0  0  0  0  0
  -23.4056  -30.4849   21.5493 C   0  0  2  0  0  0
  -24.8528  -28.9501   20.1154 C   0  0  0  0  0  0
  -22.7429  -29.4612   22.4987 C   0  0  0  0  0  0
  -18.0264  -28.1384   22.8476 C   0  0  0  0  0  0
  -24.1484  -36.7315   23.2620 C   0  0  0  0  0  0
  -25.9395  -30.8218   21.3786 C   0  0  0  0  0  0
  -26.0116  -29.4606   20.7167 C   0  0  0  0  0  0
  -27.2073  -28.7097   20.6962 C   0  0  0  0  0  0
  -26.0607  -26.9351   19.4833 C   0  0  0  0  0  0
  -24.8690  -27.6874   19.4982 C   0  0  0  0  0  0
  -23.6161  -29.8154   20.1642 C   0  0  0  0  0  0
  -25.4098  -36.3126   24.0338 C   0  0  1  0  0  0
  -20.5850  -28.3663   23.1338 C   0  0  2  0  0  0
  -20.6753  -26.9392   22.5466 C   0  0  0  0  0  0
  -19.5777  -26.6358   21.5222 C   0  0  0  0  0  0
  -18.1904  -26.7974   22.1528 C   0  0  0  0  0  0
  -19.1513  -28.8843   23.2905 C   0  0  0  0  0  0
  -18.9432  -30.1455   23.8902 C   0  0  0  0  0  0
  -17.6440  -30.6596   24.0528 C   0  0  0  0  0  0
  -25.9044  -34.9488   23.5105 C   0  0  0  0  0  0
  -16.5329  -29.9080   23.6330 C   0  0  0  0  0  0
  -16.7244  -28.6492   23.0356 C   0  0  0  0  0  0
  -26.4382  -31.6660   25.0804 C   0  0  0  0  0  0
  -25.3585  -31.3957   26.1550 C   0  0  0  0  0  0
  -27.0136  -30.3026   24.6325 C   0  0  0  0  0  0
  -27.6020  -32.4348   25.7502 C   0  0  0  0  0  0
  -27.5644  -37.1717   24.8360 C   0  0  0  0  0  0
  -21.4150  -29.3017   22.3747 N   0  0  0  0  0  0
  -26.4261  -37.3835   23.9474 N   0  0  0  0  0  0
  -24.6696  -31.0744   22.1006 N   0  0  0  0  0  0
  -23.4197  -28.8133   23.3019 O   0  0  0  0  0  0
  -28.3850  -26.6949   20.0297 O   0  0  0  0  0  0
  -26.5593  -34.8933   22.4660 O   0  0  0  0  0  0
  -23.5322  -32.1404   23.7489 O   0  0  0  0  0  0
  -29.9015  -19.4036   23.8694 C   0  0  0  0  0  0
  -30.4854  -18.1115   23.7181 C   0  0  0  0  0  0
  -30.3664  -17.8045   22.3803 C   0  0  0  0  0  0
  -29.5687  -19.8167   22.6104 C   0  0  0  0  0  0
  -30.7998  -16.6764   21.6084 C   0  0  0  0  0  0
  -30.1624  -15.4922   21.4368 C   0  0  0  0  0  0
  -28.3223  -23.1563   21.5630 C   0  0  0  0  0  0
  -28.8755  -21.7324   21.2265 C   0  0  0  0  0  0
  -28.2176  -24.2154   20.4513 C   0  0  0  0  0  0
  -28.4639  -25.6456   21.0001 C   0  0  0  0  0  0
  -31.1198  -17.2871   24.8162 C   0  0  0  0  0  0
  -29.0343  -21.0391   22.3670 N   0  0  0  0  0  0
  -27.9738  -23.4395   22.7180 O   0  0  0  0  0  0
  -29.1236  -21.3313   20.0799 O   0  0  0  0  0  0
  -29.8563  -18.8694   21.6767 O   0  0  0  0  0  0
  -32.3816  -16.9871   24.5053 F   0  0  0  0  0  0
  -30.4301  -16.1665   25.0270 F   0  0  0  0  0  0
  -31.4528  -12.4025   19.0580 H   0  0  0  0  0  0
  -30.3083  -11.2870   19.7369 H   0  0  0  0  0  0
  -29.7037  -11.8415   17.3801 H   0  0  0  0  0  0
  -29.6435  -13.5436   17.7596 H   0  0  0  0  0  0
  -27.7918  -11.3527   18.7605 H   0  0  0  0  0  0
  -27.3467  -12.7299   17.7854 H   0  0  0  0  0  0
  -27.7194  -14.2751   19.6418 H   0  0  0  0  0  0
  -28.6997  -11.8843   21.2498 H   0  0  0  0  0  0
  -28.4805  -13.4520   21.9150 H   0  0  0  0  0  0
  -25.2772   -9.5687   22.4733 H   0  0  0  0  0  0
  -24.0084   -7.4584   22.7434 H   0  0  0  0  0  0
  -21.0855   -8.8724   19.8962 H   0  0  0  0  0  0
  -22.3678  -10.9656   19.6200 H   0  0  0  0  0  0
  -21.1931   -7.6134   23.9741 H   0  0  0  0  0  0
  -21.1524   -6.0524   25.9116 H   0  0  0  0  0  0
  -22.0577   -2.7624   23.2835 H   0  0  0  0  0  0
  -22.4078  -12.0019   22.4966 H   0  0  0  0  0  0
  -21.1103  -13.1259   22.2528 H   0  0  0  0  0  0
  -24.6621  -15.8434   20.5155 H   0  0  0  0  0  0
  -26.2890  -15.6291   20.1079 H   0  0  0  0  0  0
  -26.7116  -32.5485   23.1218 H   0  0  0  0  0  0
  -25.0106  -33.9835   25.0483 H   0  0  0  0  0  0
  -22.6956  -31.3018   21.4089 H   0  0  0  0  0  0
  -23.3839  -35.9535   23.3081 H   0  0  0  0  0  0
  -24.3645  -36.9124   22.2077 H   0  0  0  0  0  0
  -23.7073  -37.6395   23.6746 H   0  0  0  0  0  0
  -26.0789  -31.5962   20.6250 H   0  0  0  0  0  0
  -26.8157  -30.8516   22.0132 H   0  0  0  0  0  0
  -28.1091  -29.0941   21.1505 H   0  0  0  0  0  0
  -26.0760  -25.9691   18.9969 H   0  0  0  0  0  0
  -23.9790  -27.2938   19.0256 H   0  0  0  0  0  0
  -23.7208  -30.5864   19.4014 H   0  0  0  0  0  0
  -22.7451  -29.2265   19.8707 H   0  0  0  0  0  0
  -25.1241  -36.1959   25.0819 H   0  0  0  0  0  0
  -20.9917  -28.3227   24.1469 H   0  0  0  0  0  0
  -20.5581  -26.2274   23.3656 H   0  0  0  0  0  0
  -21.6635  -26.7402   22.1303 H   0  0  0  0  0  0
  -19.6921  -25.6239   21.1310 H   0  0  0  0  0  0
  -19.6823  -27.3124   20.6726 H   0  0  0  0  0  0
  -17.4252  -26.6847   21.3828 H   0  0  0  0  0  0
  -18.0170  -26.0063   22.8832 H   0  0  0  0  0  0
  -19.7899  -30.7274   24.2269 H   0  0  0  0  0  0
  -17.4979  -31.6301   24.5083 H   0  0  0  0  0  0
  -15.5323  -30.2976   23.7665 H   0  0  0  0  0  0
  -15.8639  -28.0824   22.7080 H   0  0  0  0  0  0
  -24.5913  -30.7055   25.8024 H   0  0  0  0  0  0
  -24.8571  -32.3166   26.4554 H   0  0  0  0  0  0
  -25.7916  -30.9588   27.0561 H   0  0  0  0  0  0
  -26.2762  -29.6953   24.1081 H   0  0  0  0  0  0
  -27.3416  -29.7161   25.4915 H   0  0  0  0  0  0
  -27.8802  -30.4231   23.9827 H   0  0  0  0  0  0
  -27.2707  -33.3644   26.2143 H   0  0  0  0  0  0
  -28.3765  -32.6916   25.0264 H   0  0  0  0  0  0
  -28.0745  -31.8419   26.5341 H   0  0  0  0  0  0
  -28.2459  -38.0213   24.7765 H   0  0  0  0  0  0
  -28.1342  -36.2805   24.5681 H   0  0  0  0  0  0
  -27.2498  -37.0729   25.8763 H   0  0  0  0  0  0
  -20.9281  -29.8815   21.7059 H   0  0  0  0  0  0
  -26.0153  -38.2861   24.1706 H   0  0  0  0  0  0
  -29.7836  -19.9695   24.7839 H   0  0  0  0  0  0
  -31.7652  -16.8294   21.1349 H   0  0  0  0  0  0
  -29.2035  -15.3746   21.9156 H   0  0  0  0  0  0
  -27.2182  -24.1349   20.0213 H   0  0  0  0  0  0
  -28.9269  -23.9841   19.6544 H   0  0  0  0  0  0
  -29.4690  -25.6885   21.4185 H   0  0  0  0  0  0
  -27.7849  -25.8607   21.8294 H   0  0  0  0  0  0
  -31.1500  -17.8319   25.7622 H   0  0  0  0  0  0
  -28.7478  -21.5795   23.1757 H   0  0  0  0  0  0
  1 25  1  0  0  0
  1 30  2  0  0  0
  1 76  1  0  0  0
  2  3  1  0  0  0
  2 25  1  0  0  0
  2 88  1  0  0  0
  2 89  1  0  0  0
  3  4  1  0  0  0
  3 90  1  0  0  0
  3 91  1  0  0  0
  4  5  1  0  0  0
  4 92  1  0  0  0
  4 93  1  0  0  0
  5  6  1  0  0  0
  5 26  1  0  0  0
  5 94  1  0  0  0
  6 25  1  0  0  0
  6 95  1  0  0  0
  6 96  1  0  0  0
  7  8  2  0  0  0
  7 26  1  0  0  0
  7 29  1  0  0  0
  8  9  1  0  0  0
  8 22  1  0  0  0
  9 10  1  0  0  0
  9 27  2  0  0  0
 10 11  2  0  0  0
 10 15  1  0  0  0
 11 12  1  0  0  0
 11 97  1  0  0  0
 12 13  2  0  0  0
 12 98  1  0  0  0
 13 14  1  0  0  0
 13 31  1  0  0  0
 14 15  2  0  0  0
 14 99  1  0  0  0
 15100  1  0  0  0
 16 17  2  0  0  0
 16 21  1  0  0  0
 16 31  1  0  0  0
 17 18  1  0  0  0
 17101  1  0  0  0
 18 19  2  0  0  0
 18102  1  0  0  0
 19 20  1  0  0  0
 19 24  1  0  0  0
 20 21  2  0  0  0
 20103  1  0  0  0
 21 23  1  0  0  0
 22 28  1  0  0  0
 22 32  2  0  0  0
 26 27  1  0  0  0
 28104  1  0  0  0
 28105  1  0  0  0
 29106  1  0  0  0
 29107  1  0  0  0
 33 34  1  0  0  0
 33 66  1  0  0  0
 33 70  2  0  0  0
 34 36  1  0  0  0
 34 59  1  0  0  0
 34108  1  0  0  0
 35 44  2  0  0  0
 35 45  1  0  0  0
 35 68  1  0  0  0
 36 56  1  0  0  0
 36109  1  0  0  0
 37 39  1  0  0  0
 37 47  1  0  0  0
 37 66  1  0  0  0
 37110  1  0  0  0
 38 43  2  0  0  0
 38 46  1  0  0  0
 38 47  1  0  0  0
 39 64  1  0  0  0
 39 67  2  0  0  0
 40 52  1  0  0  0
 40 53  2  0  0  0
 40 58  1  0  0  0
 41111  1  0  0  0
 41112  1  0  0  0
 41113  1  0  0  0
 41 48  1  0  0  0
 42 43  1  0  0  0
 42 66  1  0  0  0
 42114  1  0  0  0
 42115  1  0  0  0
 43 44  1  0  0  0
 44116  1  0  0  0
 45 46  2  0  0  0
 45117  1  0  0  0
 46118  1  0  0  0
 47119  1  0  0  0
 47120  1  0  0  0
 48 56  1  0  0  0
 48 65  1  0  0  0
 48121  1  0  0  0
 49 50  1  0  0  0
 49 53  1  0  0  0
 49 64  1  0  0  0
 49122  1  0  0  0
 50 51  1  0  0  0
 50123  1  0  0  0
 50124  1  0  0  0
 51 52  1  0  0  0
 51125  1  0  0  0
 51126  1  0  0  0
 52127  1  0  0  0
 52128  1  0  0  0
 53 54  1  0  0  0
 54 55  2  0  0  0
 54129  1  0  0  0
 55 57  1  0  0  0
 55130  1  0  0  0
 56 69  2  0  0  0
 57 58  2  0  0  0
 57131  1  0  0  0
 58132  1  0  0  0
 59 60  1  0  0  0
 59 61  1  0  0  0
 59 62  1  0  0  0
 60133  1  0  0  0
 60134  1  0  0  0
 60135  1  0  0  0
 61136  1  0  0  0
 61137  1  0  0  0
 61138  1  0  0  0
 62139  1  0  0  0
 62140  1  0  0  0
 62141  1  0  0  0
 63 65  1  0  0  0
 63142  1  0  0  0
 63143  1  0  0  0
 63144  1  0  0  0
 64145  1  0  0  0
 65146  1  0  0  0
 68 80  1  0  0  0
 71 72  1  0  0  0
 71 74  2  0  0  0
 71147  1  0  0  0
 72 73  2  0  0  0
 72 81  1  0  0  0
 73 75  1  0  0  0
 73 85  1  0  0  0
 74 82  1  0  0  0
 74 85  1  0  0  0
 75 76  2  0  0  0
 75148  1  0  0  0
 76149  1  0  0  0
 77 78  1  0  0  0
 77 79  1  0  0  0
 77 83  2  0  0  0
 78 82  1  0  0  0
 78 84  2  0  0  0
 79 80  1  0  0  0
 79150  1  0  0  0
 79151  1  0  0  0
 80152  1  0  0  0
 80153  1  0  0  0
 81 86  1  0  0  0
 81 87  1  0  0  0
 81154  1  0  0  0
 82155  1  0  0  0
M  ISO  4   1 100  68 101  76 100  80 101
M  END
> <chiral flag>
0

> <version>
0

> <s_m_source_file>
/data/baiqing/PycharmProjects/Reinvent-master-3.2/result/LINK_invent/BTK/process_docking_weight1_custom_product_contain_oxygen_bond_distance_aromatic_linkinvent_7_9_3/rearranged_h_0177.sdf

> <i_m_source_file_index>
40

> <r_mmod_Potential_Energy-OPLS-2005>
-92.1137542724609

> <r_mmod_Stretch_Energy-OPLS-2005>
37.5470962524414

> <r_mmod_Bend_Energy-OPLS-2005>
117.273712158203

> <r_mmod_Torsional_Energy-OPLS-2005>
225.1884765625

> <r_mmod_Improper_Torsional_Energy-OPLS-2005>
2.66887617111206

> <r_mmod_Van_der_Waal_Energy-OPLS-2005>
132.176239013672

> <r_mmod_Electrostatic_Energy-OPLS-2005>
-392.389709472656

> <r_mmod_Solvation_Energy-OPLS-2005>
-226.102401733398

> <b_mmod_Minimization_Converged-OPLS-2005>
0

> <r_mmod_RMS_Derivative-OPLS-2005>
5.68010139465332

$$$$
40
                    3D
 Structure written by MMmdl.
157165  0  0  1  0            999 V2000
  -30.6844  -14.6038   20.5330 C   0  0  0  0  0  0
  -30.4332  -12.3695   19.4685 C   0  0  0  0  0  0
  -29.5164  -12.4920   18.2318 C   0  0  0  0  0  0
  -28.0426  -12.3238   18.6454 C   0  0  0  0  0  0
  -27.6605  -13.2105   19.8589 C   0  0  2  0  0  0
  -28.6987  -13.0830   20.9955 C   0  0  0  0  0  0
  -25.2597  -13.8175   20.5695 C   0  0  0  0  0  0
  -24.1877  -13.0471   20.9197 C   0  0  0  0  0  0
  -24.6404  -11.6915   20.8675 C   0  0  0  0  0  0
  -23.9060  -10.4309   21.0342 C   0  0  0  0  0  0
  -24.3607   -9.4227   21.9133 C   0  0  0  0  0  0
  -23.6295   -8.2260   22.0748 C   0  0  0  0  0  0
  -22.4259   -8.0278   21.3565 C   0  0  0  0  0  0
  -21.9875   -9.0229   20.4653 C   0  0  0  0  0  0
  -22.7196  -10.2123   20.3021 C   0  0  0  0  0  0
  -21.6847   -6.0710   22.5297 C   0  0  0  0  0  0
  -21.4006   -6.5623   23.8232 C   0  0  0  0  0  0
  -21.3672   -5.6771   24.9204 C   0  0  0  0  0  0
  -21.6033   -4.3028   24.7230 C   0  0  0  0  0  0
  -21.8832   -3.8137   23.4353 C   0  0  0  0  0  0
  -21.9198   -4.6949   22.3422 C   0  0  0  0  0  0
  -22.7881  -13.5268   21.1854 C   0  0  0  0  0  0
  -22.1664   -4.2129   21.0995 F   0  0  0  0  0  0
  -21.5639   -3.4528   25.7758 F   0  0  0  0  0  0
  -30.0198  -13.4063   20.4385 N   0  0  0  0  0  0
  -26.3031  -12.9367   20.3271 N   0  0  0  0  0  0
  -25.9346  -11.6525   20.5724 N   0  0  0  0  0  0
  -22.0506  -12.8273   22.0382 N   0  0  0  0  0  0
  -25.4310  -15.1916   20.4139 N   0  0  0  0  0  0
  -31.8082  -14.7279   20.0365 O   0  0  0  0  0  0
  -21.6631   -6.8847   21.4261 O   0  0  0  0  0  0
  -22.3596  -14.5570   20.6686 O   0  0  0  0  0  0
  -24.6164  -31.8617   23.2026 C   0  0  0  0  0  0
  -25.9018  -32.4805   23.8408 C   0  0  1  0  0  0
  -27.2744  -27.3724   20.1370 C   0  0  0  0  0  0
  -25.5903  -33.8612   24.2349 N   0  0  0  0  0  0
  -23.4192  -30.4756   21.5336 C   0  0  2  0  0  0
  -24.8921  -28.9269   20.1227 C   0  0  0  0  0  0
  -22.7429  -29.4662   22.4874 C   0  0  0  0  0  0
  -18.0280  -28.1376   22.8491 C   0  0  0  0  0  0
  -24.1504  -36.7326   23.2638 C   0  0  0  0  0  0
  -25.9540  -30.8229   21.3659 C   0  0  0  0  0  0
  -26.0495  -29.4454   20.7178 C   0  0  0  0  0  0
  -27.2470  -28.6764   20.7146 C   0  0  0  0  0  0
  -26.0984  -26.8892   19.5301 C   0  0  0  0  0  0
  -24.9121  -27.6502   19.5306 C   0  0  0  0  0  0
  -23.6516  -29.7949   20.1554 C   0  0  0  0  0  0
  -25.4107  -36.3103   24.0341 C   0  0  1  0  0  0
  -20.5875  -28.3669   23.1283 C   0  0  2  0  0  0
  -20.6773  -26.9394   22.5414 C   0  0  0  0  0  0
  -19.5759  -26.6389   21.5216 C   0  0  0  0  0  0
  -18.1931  -26.7932   22.1635 C   0  0  0  0  0  0
  -19.1527  -28.8837   23.2898 C   0  0  0  0  0  0
  -18.9469  -30.1448   23.8902 C   0  0  0  0  0  0
  -17.6471  -30.6570   24.0563 C   0  0  0  0  0  0
  -25.9020  -34.9468   23.5137 C   0  0  0  0  0  0
  -16.5354  -29.9094   23.6325 C   0  0  0  0  0  0
  -16.7282  -28.6518   23.0338 C   0  0  0  0  0  0
  -26.4448  -31.6593   25.0737 C   0  0  0  0  0  0
  -25.3749  -31.3726   26.1505 C   0  0  0  0  0  0
  -27.0266  -30.3022   24.6161 C   0  0  0  0  0  0
  -27.6017  -32.4313   25.7511 C   0  0  0  0  0  0
  -27.5562  -37.1803   24.8435 C   0  0  0  0  0  0
  -21.4137  -29.3044   22.3650 N   0  0  0  0  0  0
  -26.4265  -37.3780   23.9407 N   0  0  0  0  0  0
  -24.6799  -31.0670   22.0952 N   0  0  0  0  0  0
  -23.4156  -28.8154   23.2902 O   0  0  0  0  0  0
  -28.4310  -26.6029   20.0506 O   0  0  0  0  0  0
  -26.5550  -34.8892   22.4677 O   0  0  0  0  0  0
  -23.5340  -32.1419   23.7358 O   0  0  0  0  0  0
  -29.8792  -18.1830   20.1892 C   0  0  0  0  0  0
  -31.1761  -18.6401   20.0967 C   0  0  0  0  0  0
  -29.5378  -20.4884   20.2856 C   0  0  0  0  0  0
  -28.5429  -25.3583   20.6848 C   0  0  0  0  0  0
  -28.6654  -24.1401   20.0593 C   0  0  0  0  0  0
  -28.9964  -22.8888   20.7996 C   0  0  0  0  0  0
  -30.0796  -15.9190   22.4052 C   0  0  0  0  0  0
  -32.3899  -17.8285   19.7994 C   0  0  0  0  0  0
  -29.1704  -16.9924   23.0154 C   0  0  0  0  0  0
  -29.3949  -16.7133   20.1571 C   0  0  0  0  0  0
  -28.9591  -19.2648   20.2256 N   0  0  0  0  0  0
  -28.8234  -21.7296   20.1056 N   0  0  0  0  0  0
  -30.0273  -15.6866   21.0632 N   0  0  0  0  0  0
  -29.4042  -22.8714   21.9629 O   0  0  0  0  0  0
  -30.8058  -15.2858   23.1837 O   0  0  0  0  0  0
  -28.5509  -24.0702   18.7218 O   0  0  0  0  0  0
  -31.2925  -20.3765   20.3483 S   0  0  0  0  0  0
  -31.4817  -12.4542   19.1753 H   0  0  0  0  0  0
  -30.3395  -11.3804   19.9192 H   0  0  0  0  0  0
  -29.7885  -11.7341   17.4963 H   0  0  0  0  0  0
  -29.6614  -13.4554   17.7383 H   0  0  0  0  0  0
  -27.8983  -11.2752   18.9045 H   0  0  0  0  0  0
  -27.3910  -12.5307   17.7962 H   0  0  0  0  0  0
  -27.6758  -14.2403   19.5023 H   0  0  0  0  0  0
  -28.7209  -12.0715   21.4024 H   0  0  0  0  0  0
  -28.4239  -13.7327   21.8269 H   0  0  0  0  0  0
  -25.2764   -9.5734   22.4676 H   0  0  0  0  0  0
  -24.0014   -7.4672   22.7492 H   0  0  0  0  0  0
  -21.0787   -8.8730   19.8966 H   0  0  0  0  0  0
  -22.3632  -10.9635   19.6108 H   0  0  0  0  0  0
  -21.1981   -7.6125   23.9748 H   0  0  0  0  0  0
  -21.1474   -6.0486   25.9102 H   0  0  0  0  0  0
  -22.0591   -2.7592   23.2873 H   0  0  0  0  0  0
  -22.4072  -11.9930   22.4806 H   0  0  0  0  0  0
  -21.1125  -13.1348   22.2540 H   0  0  0  0  0  0
  -24.6654  -15.8450   20.5399 H   0  0  0  0  0  0
  -26.2678  -15.6312   20.0578 H   0  0  0  0  0  0
  -26.7092  -32.5499   23.1194 H   0  0  0  0  0  0
  -25.0080  -33.9834   25.0513 H   0  0  0  0  0  0
  -22.7126  -31.2877   21.3644 H   0  0  0  0  0  0
  -23.3750  -35.9662   23.3282 H   0  0  0  0  0  0
  -24.3583  -36.8965   22.2042 H   0  0  0  0  0  0
  -23.7263  -37.6540   23.6651 H   0  0  0  0  0  0
  -26.0626  -31.6011   20.6056 H   0  0  0  0  0  0
  -26.8401  -30.8883   21.9867 H   0  0  0  0  0  0
  -28.1485  -29.0790   21.1542 H   0  0  0  0  0  0
  -26.1208  -25.9190   19.0531 H   0  0  0  0  0  0
  -24.0209  -27.2384   19.0820 H   0  0  0  0  0  0
  -23.7766  -30.5667   19.3940 H   0  0  0  0  0  0
  -22.7873  -29.2065   19.8378 H   0  0  0  0  0  0
  -25.1278  -36.1977   25.0820 H   0  0  0  0  0  0
  -21.0004  -28.3257   24.1391 H   0  0  0  0  0  0
  -20.5672  -26.2275   23.3591 H   0  0  0  0  0  0
  -21.6629  -26.7423   22.1187 H   0  0  0  0  0  0
  -19.6903  -25.6309   21.1228 H   0  0  0  0  0  0
  -19.6699  -27.3204   20.6738 H   0  0  0  0  0  0
  -17.4195  -26.6696   21.4046 H   0  0  0  0  0  0
  -18.0318  -26.0078   22.9025 H   0  0  0  0  0  0
  -19.7932  -30.7255   24.2295 H   0  0  0  0  0  0
  -17.5012  -31.6232   24.5164 H   0  0  0  0  0  0
  -15.5352  -30.2981   23.7616 H   0  0  0  0  0  0
  -15.8693  -28.0807   22.7064 H   0  0  0  0  0  0
  -24.5946  -30.7033   25.7888 H   0  0  0  0  0  0
  -24.8920  -32.2885   26.4902 H   0  0  0  0  0  0
  -25.8142  -30.8971   27.0289 H   0  0  0  0  0  0
  -26.2847  -29.6796   24.1161 H   0  0  0  0  0  0
  -27.3953  -29.7206   25.4619 H   0  0  0  0  0  0
  -27.8695  -30.4304   23.9375 H   0  0  0  0  0  0
  -27.2652  -33.3618   26.2078 H   0  0  0  0  0  0
  -28.3839  -32.6872   25.0359 H   0  0  0  0  0  0
  -28.0673  -31.8460   26.5453 H   0  0  0  0  0  0
  -28.2549  -38.0140   24.7485 H   0  0  0  0  0  0
  -28.1117  -36.2652   24.6260 H   0  0  0  0  0  0
  -27.2272  -37.1412   25.8842 H   0  0  0  0  0  0
  -20.9262  -29.8793   21.6895 H   0  0  0  0  0  0
  -26.0174  -38.2854   24.1443 H   0  0  0  0  0  0
  -28.6035  -25.4836   21.7594 H   0  0  0  0  0  0
  -32.7805  -17.3766   20.7092 H   0  0  0  0  0  0
  -33.1736  -18.4320   19.3370 H   0  0  0  0  0  0
  -32.1452  -17.0278   19.0974 H   0  0  0  0  0  0
  -28.1550  -16.9200   22.6293 H   0  0  0  0  0  0
  -29.5551  -17.9906   22.8148 H   0  0  0  0  0  0
  -29.1142  -16.8807   24.1006 H   0  0  0  0  0  0
  -28.3301  -16.6910   20.3873 H   0  0  0  0  0  0
  -29.4349  -16.3609   19.1260 H   0  0  0  0  0  0
  -28.2319  -21.7667   19.2907 H   0  0  0  0  0  0
  -28.8201  -23.2003   18.4607 H   0  0  0  0  0  0
  1 25  1  0  0  0
  1 30  2  0  0  0
  1 83  1  0  0  0
  2  3  1  0  0  0
  2 25  1  0  0  0
  2 88  1  0  0  0
  2 89  1  0  0  0
  3  4  1  0  0  0
  3 90  1  0  0  0
  3 91  1  0  0  0
  4  5  1  0  0  0
  4 92  1  0  0  0
  4 93  1  0  0  0
  5  6  1  0  0  0
  5 26  1  0  0  0
  5 94  1  0  0  0
  6 25  1  0  0  0
  6 95  1  0  0  0
  6 96  1  0  0  0
  7  8  2  0  0  0
  7 26  1  0  0  0
  7 29  1  0  0  0
  8  9  1  0  0  0
  8 22  1  0  0  0
  9 10  1  0  0  0
  9 27  2  0  0  0
 10 11  2  0  0  0
 10 15  1  0  0  0
 11 12  1  0  0  0
 11 97  1  0  0  0
 12 13  2  0  0  0
 12 98  1  0  0  0
 13 14  1  0  0  0
 13 31  1  0  0  0
 14 15  2  0  0  0
 14 99  1  0  0  0
 15100  1  0  0  0
 16 17  2  0  0  0
 16 21  1  0  0  0
 16 31  1  0  0  0
 17 18  1  0  0  0
 17101  1  0  0  0
 18 19  2  0  0  0
 18102  1  0  0  0
 19 20  1  0  0  0
 19 24  1  0  0  0
 20 21  2  0  0  0
 20103  1  0  0  0
 21 23  1  0  0  0
 22 28  1  0  0  0
 22 32  2  0  0  0
 26 27  1  0  0  0
 28104  1  0  0  0
 28105  1  0  0  0
 29106  1  0  0  0
 29107  1  0  0  0
 33 34  1  0  0  0
 33 66  1  0  0  0
 33 70  2  0  0  0
 34 36  1  0  0  0
 34 59  1  0  0  0
 34108  1  0  0  0
 35 44  2  0  0  0
 35 45  1  0  0  0
 35 68  1  0  0  0
 36 56  1  0  0  0
 36109  1  0  0  0
 37 39  1  0  0  0
 37 47  1  0  0  0
 37 66  1  0  0  0
 37110  1  0  0  0
 38 43  2  0  0  0
 38 46  1  0  0  0
 38 47  1  0  0  0
 39 64  1  0  0  0
 39 67  2  0  0  0
 40 52  1  0  0  0
 40 53  2  0  0  0
 40 58  1  0  0  0
 41111  1  0  0  0
 41112  1  0  0  0
 41113  1  0  0  0
 41 48  1  0  0  0
 42 43  1  0  0  0
 42 66  1  0  0  0
 42114  1  0  0  0
 42115  1  0  0  0
 43 44  1  0  0  0
 44116  1  0  0  0
 45 46  2  0  0  0
 45117  1  0  0  0
 46118  1  0  0  0
 47119  1  0  0  0
 47120  1  0  0  0
 48 56  1  0  0  0
 48 65  1  0  0  0
 48121  1  0  0  0
 49 50  1  0  0  0
 49 53  1  0  0  0
 49 64  1  0  0  0
 49122  1  0  0  0
 50 51  1  0  0  0
 50123  1  0  0  0
 50124  1  0  0  0
 51 52  1  0  0  0
 51125  1  0  0  0
 51126  1  0  0  0
 52127  1  0  0  0
 52128  1  0  0  0
 53 54  1  0  0  0
 54 55  2  0  0  0
 54129  1  0  0  0
 55 57  1  0  0  0
 55130  1  0  0  0
 56 69  2  0  0  0
 57 58  2  0  0  0
 57131  1  0  0  0
 58132  1  0  0  0
 59 60  1  0  0  0
 59 61  1  0  0  0
 59 62  1  0  0  0
 60133  1  0  0  0
 60134  1  0  0  0
 60135  1  0  0  0
 61136  1  0  0  0
 61137  1  0  0  0
 61138  1  0  0  0
 62139  1  0  0  0
 62140  1  0  0  0
 62141  1  0  0  0
 63 65  1  0  0  0
 63142  1  0  0  0
 63143  1  0  0  0
 63144  1  0  0  0
 64145  1  0  0  0
 65146  1  0  0  0
 68 74  1  0  0  0
 71 72  2  0  0  0
 71 80  1  0  0  0
 71 81  1  0  0  0
 72 78  1  0  0  0
 72 87  1  0  0  0
 73 81  2  0  0  0
 73 82  1  0  0  0
 73 87  1  0  0  0
 74 75  2  0  0  0
 74147  1  0  0  0
 75 76  1  0  0  0
 75 86  1  0  0  0
 76 82  1  0  0  0
 76 84  2  0  0  0
 77 79  1  0  0  0
 77 83  1  0  0  0
 77 85  2  0  0  0
 78148  1  0  0  0
 78149  1  0  0  0
 78150  1  0  0  0
 79151  1  0  0  0
 79152  1  0  0  0
 79153  1  0  0  0
 80 83  1  0  0  0
 80154  1  0  0  0
 80155  1  0  0  0
 82156  1  0  0  0
 86157  1  0  0  0
M  ISO  4   1 100  68 101  74 101  83 100
M  END
> <chiral flag>
0

> <version>
0

> <s_m_source_file>
/data/baiqing/PycharmProjects/Reinvent-master-3.2/result/LINK_invent/BTK/process_docking_weight1_custom_product_contain_oxygen_bond_distance_aromatic_linkinvent_7_9_3/rearranged_h_0177.sdf

> <i_m_source_file_index>
41

> <r_mmod_Potential_Energy-OPLS-2005>
-62.5332107543945

> <r_mmod_Stretch_Energy-OPLS-2005>
65.6418685913086

> <r_mmod_Bend_Energy-OPLS-2005>
121.591674804688

> <r_mmod_Torsional_Energy-OPLS-2005>
345.914886474609

> <r_mmod_Improper_Torsional_Energy-OPLS-2005>
6.06263160705566

> <r_mmod_Van_der_Waal_Energy-OPLS-2005>
121.711029052734

> <r_mmod_Electrostatic_Energy-OPLS-2005>
-520.578918457031

> <r_mmod_Solvation_Energy-OPLS-2005>
-234.310577392578

> <b_mmod_Minimization_Converged-OPLS-2005>
0

> <r_mmod_RMS_Derivative-OPLS-2005>
7.88932704925537

$$$$
41
                    3D
 Structure written by MMmdl.
154162  0  0  1  0            999 V2000
  -30.7369  -14.5423   20.4760 C   0  0  0  0  0  0
  -30.3947  -12.3260   19.4581 C   0  0  0  0  0  0
  -29.4907  -12.4816   18.2206 C   0  0  0  0  0  0
  -28.0136  -12.3479   18.6317 C   0  0  0  0  0  0
  -27.6458  -13.2292   19.8569 C   0  0  2  0  0  0
  -28.6908  -13.1197   20.9910 C   0  0  0  0  0  0
  -25.2514  -13.8210   20.5698 C   0  0  0  0  0  0
  -24.1802  -13.0452   20.9201 C   0  0  0  0  0  0
  -24.6391  -11.6930   20.8749 C   0  0  0  0  0  0
  -23.9071  -10.4301   21.0403 C   0  0  0  0  0  0
  -24.3621   -9.4215   21.9179 C   0  0  0  0  0  0
  -23.6298   -8.2249   22.0751 C   0  0  0  0  0  0
  -22.4278   -8.0283   21.3543 C   0  0  0  0  0  0
  -21.9913   -9.0259   20.4648 C   0  0  0  0  0  0
  -22.7241  -10.2138   20.3057 C   0  0  0  0  0  0
  -21.6857   -6.0737   22.5280 C   0  0  0  0  0  0
  -21.4015   -6.5639   23.8215 C   0  0  0  0  0  0
  -21.3661   -5.6792   24.9176 C   0  0  0  0  0  0
  -21.6042   -4.3055   24.7225 C   0  0  0  0  0  0
  -21.8821   -3.8147   23.4347 C   0  0  0  0  0  0
  -21.9193   -4.6964   22.3402 C   0  0  0  0  0  0
  -22.7822  -13.5229   21.1860 C   0  0  0  0  0  0
  -22.1664   -4.2149   21.0979 F   0  0  0  0  0  0
  -21.5628   -3.4539   25.7737 F   0  0  0  0  0  0
  -30.0120  -13.3861   20.4120 N   0  0  0  0  0  0
  -26.2955  -12.9421   20.3326 N   0  0  0  0  0  0
  -25.9324  -11.6560   20.5778 N   0  0  0  0  0  0
  -22.0473  -12.8218   22.0419 N   0  0  0  0  0  0
  -25.4200  -15.1931   20.4093 N   0  0  0  0  0  0
  -31.9234  -14.5222   20.1449 O   0  0  0  0  0  0
  -21.6644   -6.8878   21.4240 O   0  0  0  0  0  0
  -22.3506  -14.5537   20.6714 O   0  0  0  0  0  0
  -24.6167  -31.8658   23.2078 C   0  0  0  0  0  0
  -25.9051  -32.4811   23.8379 C   0  0  1  0  0  0
  -27.2258  -27.4073   20.1054 C   0  0  0  0  0  0
  -25.5902  -33.8609   24.2317 N   0  0  0  0  0  0
  -23.4072  -30.4887   21.5476 C   0  0  2  0  0  0
  -24.8565  -28.9562   20.1053 C   0  0  0  0  0  0
  -22.7433  -29.4638   22.4960 C   0  0  0  0  0  0
  -18.0279  -28.1376   22.8495 C   0  0  0  0  0  0
  -24.1487  -36.7310   23.2635 C   0  0  0  0  0  0
  -25.9383  -30.8252   21.3649 C   0  0  0  0  0  0
  -26.0174  -29.4595   20.7082 C   0  0  0  0  0  0
  -27.2087  -28.6917   20.7082 C   0  0  0  0  0  0
  -26.0572  -26.9325   19.4819 C   0  0  0  0  0  0
  -24.8732  -27.6948   19.4848 C   0  0  0  0  0  0
  -23.6176  -29.8232   20.1606 C   0  0  0  0  0  0
  -25.4108  -36.3105   24.0337 C   0  0  1  0  0  0
  -20.5873  -28.3664   23.1311 C   0  0  2  0  0  0
  -20.6767  -26.9395   22.5419 C   0  0  0  0  0  0
  -19.5746  -26.6382   21.5214 C   0  0  0  0  0  0
  -18.1924  -26.7925   22.1623 C   0  0  0  0  0  0
  -19.1531  -28.8838   23.2899 C   0  0  0  0  0  0
  -18.9453  -30.1446   23.8905 C   0  0  0  0  0  0
  -17.6454  -30.6581   24.0564 C   0  0  0  0  0  0
  -25.9037  -34.9473   23.5127 C   0  0  0  0  0  0
  -16.5347  -29.9080   23.6323 C   0  0  0  0  0  0
  -16.7268  -28.6499   23.0344 C   0  0  0  0  0  0
  -26.4472  -31.6594   25.0715 C   0  0  0  0  0  0
  -25.3733  -31.3715   26.1465 C   0  0  0  0  0  0
  -27.0296  -30.3029   24.6103 C   0  0  0  0  0  0
  -27.6050  -32.4308   25.7476 C   0  0  0  0  0  0
  -27.5584  -37.1809   24.8465 C   0  0  0  0  0  0
  -21.4155  -29.3029   22.3712 N   0  0  0  0  0  0
  -26.4296  -37.3790   23.9408 N   0  0  0  0  0  0
  -24.6722  -31.0743   22.0985 N   0  0  0  0  0  0
  -23.4202  -28.8177   23.3004 O   0  0  0  0  0  0
  -28.3079  -26.5519   20.1726 O   0  0  0  0  0  0
  -26.5597  -34.8930   22.4687 O   0  0  0  0  0  0
  -23.5353  -32.1414   23.7461 O   0  0  0  0  0  0
  -28.5653  -19.9109   22.0666 C   0  0  0  0  0  0
  -29.9993  -19.3172   19.7991 C   0  0  0  0  0  0
  -29.7908  -18.2571   20.7245 C   0  0  0  0  0  0
  -29.0113  -18.5716   21.8761 C   0  0  0  0  0  0
  -28.8823  -20.9533   21.1520 C   0  0  0  0  0  0
  -28.4633  -25.9616   21.4100 C   0  0  0  0  0  0
  -30.5978  -16.9737   20.5100 C   0  0  0  0  0  0
  -28.6097  -24.6477   21.7467 C   0  0  0  0  0  0
  -28.6892  -23.4997   20.8152 C   0  0  0  0  0  0
  -29.5529  -20.5837   20.0298 N   0  3  0  0  0  0
  -28.6968  -17.6283   22.8661 N   0  0  0  0  0  0
  -28.5851  -22.3253   21.4931 N   0  0  0  0  0  0
  -30.0731  -15.7188   20.7019 N   0  0  0  0  0  0
  -31.7534  -17.1686   20.1059 O   0  0  0  0  0  0
  -28.8234  -23.5829   19.5867 O   0  0  0  0  0  0
  -28.6900  -24.3788   23.0640 O   0  0  0  0  0  0
  -31.4440  -12.3649   19.1606 H   0  0  0  0  0  0
  -30.2576  -11.3434   19.9123 H   0  0  0  0  0  0
  -29.7396  -11.7272   17.4729 H   0  0  0  0  0  0
  -29.6624  -13.4507   17.7493 H   0  0  0  0  0  0
  -27.8344  -11.2972   18.8631 H   0  0  0  0  0  0
  -27.3647  -12.5861   17.7881 H   0  0  0  0  0  0
  -27.6572  -14.2599   19.5021 H   0  0  0  0  0  0
  -28.6742  -12.1243   21.4379 H   0  0  0  0  0  0
  -28.4623  -13.8194   21.7961 H   0  0  0  0  0  0
  -25.2764   -9.5694   22.4756 H   0  0  0  0  0  0
  -24.0011   -7.4639   22.7468 H   0  0  0  0  0  0
  -21.0846   -8.8778   19.8954 H   0  0  0  0  0  0
  -22.3697  -10.9678   19.6170 H   0  0  0  0  0  0
  -21.2011   -7.6148   23.9717 H   0  0  0  0  0  0
  -21.1481   -6.0520   25.9076 H   0  0  0  0  0  0
  -22.0597   -2.7609   23.2848 H   0  0  0  0  0  0
  -22.4089  -11.9881   22.4808 H   0  0  0  0  0  0
  -21.1094  -13.1243   22.2630 H   0  0  0  0  0  0
  -24.6522  -15.8462   20.5225 H   0  0  0  0  0  0
  -26.2713  -15.6369   20.0901 H   0  0  0  0  0  0
  -26.7121  -32.5525   23.1139 H   0  0  0  0  0  0
  -25.0065  -33.9762   25.0472 H   0  0  0  0  0  0
  -22.6962  -31.3059   21.4090 H   0  0  0  0  0  0
  -23.3746  -35.9647   23.3307 H   0  0  0  0  0  0
  -24.3577  -36.8913   22.2047 H   0  0  0  0  0  0
  -23.7249  -37.6523   23.6641 H   0  0  0  0  0  0
  -26.0552  -31.5927   20.5985 H   0  0  0  0  0  0
  -26.8236  -30.8767   21.9867 H   0  0  0  0  0  0
  -28.0992  -29.0645   21.1938 H   0  0  0  0  0  0
  -26.0572  -25.9531   19.0242 H   0  0  0  0  0  0
  -23.9816  -27.3016   19.0163 H   0  0  0  0  0  0
  -23.7250  -30.5999   19.4027 H   0  0  0  0  0  0
  -22.7416  -29.2437   19.8634 H   0  0  0  0  0  0
  -25.1284  -36.1964   25.0829 H   0  0  0  0  0  0
  -20.9975  -28.3239   24.1426 H   0  0  0  0  0  0
  -20.5666  -26.2266   23.3606 H   0  0  0  0  0  0
  -21.6637  -26.7436   22.1210 H   0  0  0  0  0  0
  -19.6901  -25.6297   21.1230 H   0  0  0  0  0  0
  -19.6684  -27.3201   20.6751 H   0  0  0  0  0  0
  -17.4194  -26.6674   21.4023 H   0  0  0  0  0  0
  -18.0323  -26.0064   22.9015 H   0  0  0  0  0  0
  -19.7930  -30.7264   24.2272 H   0  0  0  0  0  0
  -17.5004  -31.6262   24.5163 H   0  0  0  0  0  0
  -15.5346  -30.2979   23.7645 H   0  0  0  0  0  0
  -15.8669  -28.0820   22.7046 H   0  0  0  0  0  0
  -24.5907  -30.7057   25.7806 H   0  0  0  0  0  0
  -24.8923  -32.2876   26.4905 H   0  0  0  0  0  0
  -25.8082  -30.8895   27.0228 H   0  0  0  0  0  0
  -26.2844  -29.6803   24.1142 H   0  0  0  0  0  0
  -27.4038  -29.7257   25.4567 H   0  0  0  0  0  0
  -27.8692  -30.4337   23.9272 H   0  0  0  0  0  0
  -27.2673  -33.3594   26.2086 H   0  0  0  0  0  0
  -28.3844  -32.6884   25.0293 H   0  0  0  0  0  0
  -28.0731  -31.8408   26.5365 H   0  0  0  0  0  0
  -28.2610  -38.0099   24.7511 H   0  0  0  0  0  0
  -28.1074  -36.2635   24.6290 H   0  0  0  0  0  0
  -27.2301  -37.1465   25.8867 H   0  0  0  0  0  0
  -20.9312  -29.8753   21.6939 H   0  0  0  0  0  0
  -26.0187  -38.2868   24.1406 H   0  0  0  0  0  0
  -28.0138  -20.1586   22.9618 H   0  0  0  0  0  0
  -30.5963  -19.1894   18.9036 H   0  0  0  0  0  0
  -28.4367  -26.7192   22.1826 H   0  0  0  0  0  0
  -29.7899  -21.3136   19.3464 H   0  0  0  0  0  0
  -28.3031  -17.9804   23.7310 H   0  0  0  0  0  0
  -29.3564  -16.8812   23.0424 H   0  0  0  0  0  0
  -28.3815  -22.5025   22.4643 H   0  0  0  0  0  0
  -29.1042  -15.6627   20.9673 H   0  0  0  0  0  0
  -28.6408  -25.2040   23.5318 H   0  0  0  0  0  0
  1 25  1  0  0  0
  1 30  2  0  0  0
  1 83  1  0  0  0
  2  3  1  0  0  0
  2 25  1  0  0  0
  2 87  1  0  0  0
  2 88  1  0  0  0
  3  4  1  0  0  0
  3 89  1  0  0  0
  3 90  1  0  0  0
  4  5  1  0  0  0
  4 91  1  0  0  0
  4 92  1  0  0  0
  5  6  1  0  0  0
  5 26  1  0  0  0
  5 93  1  0  0  0
  6 25  1  0  0  0
  6 94  1  0  0  0
  6 95  1  0  0  0
  7  8  2  0  0  0
  7 26  1  0  0  0
  7 29  1  0  0  0
  8  9  1  0  0  0
  8 22  1  0  0  0
  9 10  1  0  0  0
  9 27  2  0  0  0
 10 11  2  0  0  0
 10 15  1  0  0  0
 11 12  1  0  0  0
 11 96  1  0  0  0
 12 13  2  0  0  0
 12 97  1  0  0  0
 13 14  1  0  0  0
 13 31  1  0  0  0
 14 15  2  0  0  0
 14 98  1  0  0  0
 15 99  1  0  0  0
 16 17  2  0  0  0
 16 21  1  0  0  0
 16 31  1  0  0  0
 17 18  1  0  0  0
 17100  1  0  0  0
 18 19  2  0  0  0
 18101  1  0  0  0
 19 20  1  0  0  0
 19 24  1  0  0  0
 20 21  2  0  0  0
 20102  1  0  0  0
 21 23  1  0  0  0
 22 28  1  0  0  0
 22 32  2  0  0  0
 26 27  1  0  0  0
 28103  1  0  0  0
 28104  1  0  0  0
 29105  1  0  0  0
 29106  1  0  0  0
 33 34  1  0  0  0
 33 66  1  0  0  0
 33 70  2  0  0  0
 34 36  1  0  0  0
 34 59  1  0  0  0
 34107  1  0  0  0
 35 44  2  0  0  0
 35 45  1  0  0  0
 35 68  1  0  0  0
 36 56  1  0  0  0
 36108  1  0  0  0
 37 39  1  0  0  0
 37 47  1  0  0  0
 37 66  1  0  0  0
 37109  1  0  0  0
 38 43  2  0  0  0
 38 46  1  0  0  0
 38 47  1  0  0  0
 39 64  1  0  0  0
 39 67  2  0  0  0
 40 52  1  0  0  0
 40 53  2  0  0  0
 40 58  1  0  0  0
 41110  1  0  0  0
 41111  1  0  0  0
 41112  1  0  0  0
 41 48  1  0  0  0
 42 43  1  0  0  0
 42 66  1  0  0  0
 42113  1  0  0  0
 42114  1  0  0  0
 43 44  1  0  0  0
 44115  1  0  0  0
 45 46  2  0  0  0
 45116  1  0  0  0
 46117  1  0  0  0
 47118  1  0  0  0
 47119  1  0  0  0
 48 56  1  0  0  0
 48 65  1  0  0  0
 48120  1  0  0  0
 49 50  1  0  0  0
 49 53  1  0  0  0
 49 64  1  0  0  0
 49121  1  0  0  0
 50 51  1  0  0  0
 50122  1  0  0  0
 50123  1  0  0  0
 51 52  1  0  0  0
 51124  1  0  0  0
 51125  1  0  0  0
 52126  1  0  0  0
 52127  1  0  0  0
 53 54  1  0  0  0
 54 55  2  0  0  0
 54128  1  0  0  0
 55 57  1  0  0  0
 55129  1  0  0  0
 56 69  2  0  0  0
 57 58  2  0  0  0
 57130  1  0  0  0
 58131  1  0  0  0
 59 60  1  0  0  0
 59 61  1  0  0  0
 59 62  1  0  0  0
 60132  1  0  0  0
 60133  1  0  0  0
 60134  1  0  0  0
 61135  1  0  0  0
 61136  1  0  0  0
 61137  1  0  0  0
 62138  1  0  0  0
 62139  1  0  0  0
 62140  1  0  0  0
 63 65  1  0  0  0
 63141  1  0  0  0
 63142  1  0  0  0
 63143  1  0  0  0
 64144  1  0  0  0
 65145  1  0  0  0
 68 76  1  0  0  0
 71 74  2  0  0  0
 71 75  1  0  0  0
 71146  1  0  0  0
 72 73  2  0  0  0
 72 80  1  0  0  0
 72147  1  0  0  0
 73 74  1  0  0  0
 73 77  1  0  0  0
 74 81  1  0  0  0
 75 80  2  0  0  0
 75 82  1  0  0  0
 76 78  2  0  0  0
 76148  1  0  0  0
 77 83  1  0  0  0
 77 84  2  0  0  0
 78 79  1  0  0  0
 78 86  1  0  0  0
 79 82  1  0  0  0
 79 85  2  0  0  0
 80149  1  0  0  0
 81150  1  0  0  0
 81151  1  0  0  0
 82152  1  0  0  0
 83153  1  0  0  0
 86154  1  0  0  0
M  CHG  1  80   1
M  ISO  4   1 100  68 101  76 101  83 100
M  END
> <chiral flag>
0

> <version>
0

> <s_m_source_file>
/data/baiqing/PycharmProjects/Reinvent-master-3.2/result/LINK_invent/BTK/process_docking_weight1_custom_product_contain_oxygen_bond_distance_aromatic_linkinvent_7_9_3/rearranged_h_0177.sdf

> <i_m_source_file_index>
42

> <r_mmod_Potential_Energy-OPLS-2005>
39.764533996582

> <r_mmod_Stretch_Energy-OPLS-2005>
54.4064712524414

> <r_mmod_Bend_Energy-OPLS-2005>
148.497009277344

> <r_mmod_Torsional_Energy-OPLS-2005>
241.338119506836

> <r_mmod_Improper_Torsional_Energy-OPLS-2005>
10.7198657989502

> <r_mmod_Van_der_Waal_Energy-OPLS-2005>
167.913940429688

> <r_mmod_Electrostatic_Energy-OPLS-2005>
-132.621887207031

> <r_mmod_Solvation_Energy-OPLS-2005>
-485.769927978516

> <b_mmod_Minimization_Converged-OPLS-2005>
0

> <r_mmod_RMS_Derivative-OPLS-2005>
0.794530391693115

$$$$
42
                    3D
 Structure written by MMmdl.
154162  0  0  1  0            999 V2000
  -30.6521  -14.5909   20.5044 C   0  0  0  0  0  0
  -30.4314  -12.3651   19.4386 C   0  0  0  0  0  0
  -29.5035  -12.5016   18.2127 C   0  0  0  0  0  0
  -28.0222  -12.3573   18.6191 C   0  0  0  0  0  0
  -27.6511  -13.2175   19.8583 C   0  0  2  0  0  0
  -28.6985  -13.0632   20.9844 C   0  0  0  0  0  0
  -25.2553  -13.8166   20.5686 C   0  0  0  0  0  0
  -24.1833  -13.0431   20.9199 C   0  0  0  0  0  0
  -24.6410  -11.6908   20.8732 C   0  0  0  0  0  0
  -23.9093  -10.4285   21.0409 C   0  0  0  0  0  0
  -24.3639   -9.4203   21.9186 C   0  0  0  0  0  0
  -23.6310   -8.2247   22.0750 C   0  0  0  0  0  0
  -22.4298   -8.0287   21.3540 C   0  0  0  0  0  0
  -21.9935   -9.0262   20.4643 C   0  0  0  0  0  0
  -22.7270  -10.2134   20.3055 C   0  0  0  0  0  0
  -21.6851   -6.0743   22.5282 C   0  0  0  0  0  0
  -21.4016   -6.5652   23.8221 C   0  0  0  0  0  0
  -21.3653   -5.6800   24.9179 C   0  0  0  0  0  0
  -21.6041   -4.3063   24.7226 C   0  0  0  0  0  0
  -21.8817   -3.8159   23.4352 C   0  0  0  0  0  0
  -21.9199   -4.6973   22.3409 C   0  0  0  0  0  0
  -22.7857  -13.5217   21.1872 C   0  0  0  0  0  0
  -22.1659   -4.2173   21.0978 F   0  0  0  0  0  0
  -21.5630   -3.4543   25.7726 F   0  0  0  0  0  0
  -30.0131  -13.3866   20.4115 N   0  0  0  0  0  0
  -26.2984  -12.9353   20.3300 N   0  0  0  0  0  0
  -25.9339  -11.6510   20.5753 N   0  0  0  0  0  0
  -22.0496  -12.8186   22.0409 N   0  0  0  0  0  0
  -25.4239  -15.1896   20.4103 N   0  0  0  0  0  0
  -31.8364  -14.7183   20.1733 O   0  0  0  0  0  0
  -21.6639   -6.8892   21.4253 O   0  0  0  0  0  0
  -22.3539  -14.5526   20.6726 O   0  0  0  0  0  0
  -24.6189  -31.8654   23.2082 C   0  0  0  0  0  0
  -25.9071  -32.4814   23.8380 C   0  0  1  0  0  0
  -27.2357  -27.3905   20.1192 C   0  0  0  0  0  0
  -25.5942  -33.8609   24.2318 N   0  0  0  0  0  0
  -23.4096  -30.4851   21.5508 C   0  0  2  0  0  0
  -24.8579  -28.9386   20.1254 C   0  0  0  0  0  0
  -22.7427  -29.4656   22.5026 C   0  0  0  0  0  0
  -18.0261  -28.1384   22.8496 C   0  0  0  0  0  0
  -24.1486  -36.7283   23.2643 C   0  0  0  0  0  0
  -25.9380  -30.8212   21.3631 C   0  0  0  0  0  0
  -26.0192  -29.4436   20.7254 C   0  0  0  0  0  0
  -27.2120  -28.6754   20.7226 C   0  0  0  0  0  0
  -26.0601  -26.9114   19.5103 C   0  0  0  0  0  0
  -24.8742  -27.6726   19.5154 C   0  0  0  0  0  0
  -23.6198  -29.8082   20.1688 C   0  0  0  0  0  0
  -25.4106  -36.3083   24.0338 C   0  0  1  0  0  0
  -20.5861  -28.3671   23.1313 C   0  0  2  0  0  0
  -20.6768  -26.9414   22.5408 C   0  0  0  0  0  0
  -19.5744  -26.6378   21.5215 C   0  0  0  0  0  0
  -18.1910  -26.7921   22.1620 C   0  0  0  0  0  0
  -19.1515  -28.8839   23.2905 C   0  0  0  0  0  0
  -18.9445  -30.1438   23.8925 C   0  0  0  0  0  0
  -17.6451  -30.6595   24.0556 C   0  0  0  0  0  0
  -25.9040  -34.9458   23.5106 C   0  0  0  0  0  0
  -16.5343  -29.9094   23.6334 C   0  0  0  0  0  0
  -16.7257  -28.6501   23.0376 C   0  0  0  0  0  0
  -26.4491  -31.6595   25.0718 C   0  0  0  0  0  0
  -25.3741  -31.3714   26.1459 C   0  0  0  0  0  0
  -27.0330  -30.3043   24.6081 C   0  0  0  0  0  0
  -27.6064  -32.4306   25.7478 C   0  0  0  0  0  0
  -27.5560  -37.1797   24.8457 C   0  0  0  0  0  0
  -21.4157  -29.3043   22.3734 N   0  0  0  0  0  0
  -26.4274  -37.3773   23.9410 N   0  0  0  0  0  0
  -24.6743  -31.0722   22.1003 N   0  0  0  0  0  0
  -23.4161  -28.8196   23.3091 O   0  0  0  0  0  0
  -28.3873  -26.6289   20.0240 O   0  0  0  0  0  0
  -26.5559  -34.8896   22.4648 O   0  0  0  0  0  0
  -23.5376  -32.1440   23.7456 O   0  0  0  0  0  0
  -30.4459  -19.5818   20.8477 C   0  0  0  0  0  0
  -31.4052  -18.8723   21.5578 C   0  0  0  0  0  0
  -30.1933  -17.0664   20.8375 C   0  0  0  0  0  0
  -30.4223  -21.0451   20.4499 C   0  0  0  0  0  0
  -28.2542  -24.1822   20.7279 C   0  0  0  0  0  0
  -28.6497  -25.6576   21.0666 C   0  0  0  0  0  0
  -29.2805  -23.2491   19.9994 C   0  0  2  0  0  0
  -29.1281  -23.3142   18.4609 C   0  0  0  0  0  0
  -31.2435  -17.4797   21.5539 N   0  0  0  0  0  0
  -32.5052  -19.3899   22.2487 N   0  0  0  0  0  0
  -29.8467  -15.6689   20.7157 N   0  0  0  0  0  0
  -29.3058  -21.8169   20.4660 N   0  0  0  0  0  0
  -31.4992  -21.5573   20.1396 O   0  0  0  0  0  0
  -27.1469  -23.7670   21.0885 O   0  0  0  0  0  0
  -30.1375  -22.6993   17.8429 F   0  0  0  0  0  0
  -29.1051  -24.5792   18.0381 F   0  0  0  0  0  0
  -27.9867  -22.7329   18.0862 F   0  0  0  0  0  0
  -29.2670  -18.4459   20.1758 S   0  0  0  0  0  0
  -31.4761  -12.4743   19.1414 H   0  0  0  0  0  0
  -30.3493  -11.3694   19.8763 H   0  0  0  0  0  0
  -29.7626  -11.7551   17.4602 H   0  0  0  0  0  0
  -29.6600  -13.4728   17.7428 H   0  0  0  0  0  0
  -27.8378  -11.3024   18.8296 H   0  0  0  0  0  0
  -27.3767  -12.6149   17.7789 H   0  0  0  0  0  0
  -27.6676  -14.2541   19.5229 H   0  0  0  0  0  0
  -28.7006  -12.0431   21.3684 H   0  0  0  0  0  0
  -28.4611  -13.7051   21.8346 H   0  0  0  0  0  0
  -25.2783   -9.5670   22.4761 H   0  0  0  0  0  0
  -24.0018   -7.4631   22.7465 H   0  0  0  0  0  0
  -21.0867   -8.8779   19.8941 H   0  0  0  0  0  0
  -22.3739  -10.9671   19.6156 H   0  0  0  0  0  0
  -21.2000   -7.6164   23.9734 H   0  0  0  0  0  0
  -21.1475   -6.0524   25.9077 H   0  0  0  0  0  0
  -22.0603   -2.7634   23.2838 H   0  0  0  0  0  0
  -22.4115  -11.9831   22.4755 H   0  0  0  0  0  0
  -21.1108  -13.1190   22.2614 H   0  0  0  0  0  0
  -24.6515  -15.8368   20.5262 H   0  0  0  0  0  0
  -26.2579  -15.6349   20.0521 H   0  0  0  0  0  0
  -26.7154  -32.5513   23.1152 H   0  0  0  0  0  0
  -25.0146  -33.9782   25.0505 H   0  0  0  0  0  0
  -22.7007  -31.3023   21.4029 H   0  0  0  0  0  0
  -23.3756  -35.9612   23.3284 H   0  0  0  0  0  0
  -24.3575  -36.8927   22.2063 H   0  0  0  0  0  0
  -23.7217  -37.6476   23.6661 H   0  0  0  0  0  0
  -26.0341  -31.5762   20.5826 H   0  0  0  0  0  0
  -26.8328  -30.8950   21.9704 H   0  0  0  0  0  0
  -28.1115  -29.0669   21.1757 H   0  0  0  0  0  0
  -26.0645  -25.9461   19.0229 H   0  0  0  0  0  0
  -23.9814  -27.2817   19.0453 H   0  0  0  0  0  0
  -23.7214  -30.5762   19.4013 H   0  0  0  0  0  0
  -22.7484  -29.2204   19.8780 H   0  0  0  0  0  0
  -25.1291  -36.1929   25.0831 H   0  0  0  0  0  0
  -20.9932  -28.3219   24.1442 H   0  0  0  0  0  0
  -20.5670  -26.2291   23.3612 H   0  0  0  0  0  0
  -21.6633  -26.7462   22.1188 H   0  0  0  0  0  0
  -19.6910  -25.6278   21.1260 H   0  0  0  0  0  0
  -19.6682  -27.3189   20.6740 H   0  0  0  0  0  0
  -17.4189  -26.6694   21.4004 H   0  0  0  0  0  0
  -18.0302  -26.0055   22.8999 H   0  0  0  0  0  0
  -19.7924  -30.7239   24.2326 H   0  0  0  0  0  0
  -17.5009  -31.6289   24.5129 H   0  0  0  0  0  0
  -15.5344  -30.3013   23.7635 H   0  0  0  0  0  0
  -15.8650  -28.0811   22.7130 H   0  0  0  0  0  0
  -24.5877  -30.7123   25.7750 H   0  0  0  0  0  0
  -24.8991  -32.2902   26.4912 H   0  0  0  0  0  0
  -25.8068  -30.8825   27.0199 H   0  0  0  0  0  0
  -26.2881  -29.6804   24.1121 H   0  0  0  0  0  0
  -27.4128  -29.7260   25.4509 H   0  0  0  0  0  0
  -27.8688  -30.4386   23.9205 H   0  0  0  0  0  0
  -27.2710  -33.3633   26.2010 H   0  0  0  0  0  0
  -28.3897  -32.6823   25.0313 H   0  0  0  0  0  0
  -28.0699  -31.8454   26.5434 H   0  0  0  0  0  0
  -28.2560  -38.0104   24.7509 H   0  0  0  0  0  0
  -28.1076  -36.2635   24.6281 H   0  0  0  0  0  0
  -27.2278  -37.1435   25.8859 H   0  0  0  0  0  0
  -20.9329  -29.8766   21.6945 H   0  0  0  0  0  0
  -26.0157  -38.2847   24.1436 H   0  0  0  0  0  0
  -29.7156  -25.6895   21.2924 H   0  0  0  0  0  0
  -28.1427  -25.9621   21.9827 H   0  0  0  0  0  0
  -30.2549  -23.6846   20.2203 H   0  0  0  0  0  0
  -32.8070  -20.3401   22.0535 H   0  0  0  0  0  0
  -33.2496  -18.7639   22.5392 H   0  0  0  0  0  0
  -28.8605  -15.4672   20.7141 H   0  0  0  0  0  0
  -28.4227  -21.4095   20.7404 H   0  0  0  0  0  0
  1 25  1  0  0  0
  1 30  2  0  0  0
  1 81  1  0  0  0
  2  3  1  0  0  0
  2 25  1  0  0  0
  2 89  1  0  0  0
  2 90  1  0  0  0
  3  4  1  0  0  0
  3 91  1  0  0  0
  3 92  1  0  0  0
  4  5  1  0  0  0
  4 93  1  0  0  0
  4 94  1  0  0  0
  5  6  1  0  0  0
  5 26  1  0  0  0
  5 95  1  0  0  0
  6 25  1  0  0  0
  6 96  1  0  0  0
  6 97  1  0  0  0
  7  8  2  0  0  0
  7 26  1  0  0  0
  7 29  1  0  0  0
  8  9  1  0  0  0
  8 22  1  0  0  0
  9 10  1  0  0  0
  9 27  2  0  0  0
 10 11  2  0  0  0
 10 15  1  0  0  0
 11 12  1  0  0  0
 11 98  1  0  0  0
 12 13  2  0  0  0
 12 99  1  0  0  0
 13 14  1  0  0  0
 13 31  1  0  0  0
 14 15  2  0  0  0
 14100  1  0  0  0
 15101  1  0  0  0
 16 17  2  0  0  0
 16 21  1  0  0  0
 16 31  1  0  0  0
 17 18  1  0  0  0
 17102  1  0  0  0
 18 19  2  0  0  0
 18103  1  0  0  0
 19 20  1  0  0  0
 19 24  1  0  0  0
 20 21  2  0  0  0
 20104  1  0  0  0
 21 23  1  0  0  0
 22 28  1  0  0  0
 22 32  2  0  0  0
 26 27  1  0  0  0
 28105  1  0  0  0
 28106  1  0  0  0
 29107  1  0  0  0
 29108  1  0  0  0
 33 34  1  0  0  0
 33 66  1  0  0  0
 33 70  2  0  0  0
 34 36  1  0  0  0
 34 59  1  0  0  0
 34109  1  0  0  0
 35 44  2  0  0  0
 35 45  1  0  0  0
 35 68  1  0  0  0
 36 56  1  0  0  0
 36110  1  0  0  0
 37 39  1  0  0  0
 37 47  1  0  0  0
 37 66  1  0  0  0
 37111  1  0  0  0
 38 43  2  0  0  0
 38 46  1  0  0  0
 38 47  1  0  0  0
 39 64  1  0  0  0
 39 67  2  0  0  0
 40 52  1  0  0  0
 40 53  2  0  0  0
 40 58  1  0  0  0
 41112  1  0  0  0
 41113  1  0  0  0
 41114  1  0  0  0
 41 48  1  0  0  0
 42 43  1  0  0  0
 42 66  1  0  0  0
 42115  1  0  0  0
 42116  1  0  0  0
 43 44  1  0  0  0
 44117  1  0  0  0
 45 46  2  0  0  0
 45118  1  0  0  0
 46119  1  0  0  0
 47120  1  0  0  0
 47121  1  0  0  0
 48 56  1  0  0  0
 48 65  1  0  0  0
 48122  1  0  0  0
 49 50  1  0  0  0
 49 53  1  0  0  0
 49 64  1  0  0  0
 49123  1  0  0  0
 50 51  1  0  0  0
 50124  1  0  0  0
 50125  1  0  0  0
 51 52  1  0  0  0
 51126  1  0  0  0
 51127  1  0  0  0
 52128  1  0  0  0
 52129  1  0  0  0
 53 54  1  0  0  0
 54 55  2  0  0  0
 54130  1  0  0  0
 55 57  1  0  0  0
 55131  1  0  0  0
 56 69  2  0  0  0
 57 58  2  0  0  0
 57132  1  0  0  0
 58133  1  0  0  0
 59 60  1  0  0  0
 59 61  1  0  0  0
 59 62  1  0  0  0
 60134  1  0  0  0
 60135  1  0  0  0
 60136  1  0  0  0
 61137  1  0  0  0
 61138  1  0  0  0
 61139  1  0  0  0
 62140  1  0  0  0
 62141  1  0  0  0
 62142  1  0  0  0
 63 65  1  0  0  0
 63143  1  0  0  0
 63144  1  0  0  0
 63145  1  0  0  0
 64146  1  0  0  0
 65147  1  0  0  0
 68 76  1  0  0  0
 71 72  2  0  0  0
 71 74  1  0  0  0
 71 88  1  0  0  0
 72 79  1  0  0  0
 72 80  1  0  0  0
 73 79  2  0  0  0
 73 81  1  0  0  0
 73 88  1  0  0  0
 74 82  1  0  0  0
 74 83  2  0  0  0
 75 76  1  0  0  0
 75 77  1  0  0  0
 75 84  2  0  0  0
 76148  1  0  0  0
 76149  1  0  0  0
 77 78  1  0  0  0
 77 82  1  0  0  0
 77150  1  0  0  0
 78 85  1  0  0  0
 78 86  1  0  0  0
 78 87  1  0  0  0
 80151  1  0  0  0
 80152  1  0  0  0
 81153  1  0  0  0
 82154  1  0  0  0
M  ISO  4   1 100  68 101  76 101  81 100
M  END
> <chiral flag>
0

> <version>
0

> <s_m_source_file>
/data/baiqing/PycharmProjects/Reinvent-master-3.2/result/LINK_invent/BTK/process_docking_weight1_custom_product_contain_oxygen_bond_distance_aromatic_linkinvent_7_9_3/rearranged_h_0177.sdf

> <i_m_source_file_index>
43

> <r_mmod_Potential_Energy-OPLS-2005>
-176.446136474609

> <r_mmod_Stretch_Energy-OPLS-2005>
53.8226127624512

> <r_mmod_Bend_Energy-OPLS-2005>
127.393798828125

> <r_mmod_Torsional_Energy-OPLS-2005>
277.12109375

> <r_mmod_Improper_Torsional_Energy-OPLS-2005>
10.0776195526123

> <r_mmod_Van_der_Waal_Energy-OPLS-2005>
119.554473876953

> <r_mmod_Electrostatic_Energy-OPLS-2005>
-536.341125488281

> <r_mmod_Solvation_Energy-OPLS-2005>
-256.054595947266

> <b_mmod_Minimization_Converged-OPLS-2005>
0

> <r_mmod_RMS_Derivative-OPLS-2005>
2.93704843521118

$$$$
43
                    3D
 Structure written by MMmdl.
164172  0  0  1  0            999 V2000
  -30.6674  -14.4870   20.5996 C   0  0  0  0  0  0
  -30.4409  -12.3284   19.4003 C   0  0  0  0  0  0
  -29.4940  -12.5133   18.1946 C   0  0  0  0  0  0
  -28.0150  -12.3689   18.6127 C   0  0  0  0  0  0
  -27.6658  -13.1967   19.8769 C   0  0  2  0  0  0
  -28.7094  -12.9430   20.9865 C   0  0  0  0  0  0
  -25.2622  -13.8132   20.5659 C   0  0  0  0  0  0
  -24.1856  -13.0423   20.9162 C   0  0  0  0  0  0
  -24.6398  -11.6886   20.8731 C   0  0  0  0  0  0
  -23.9064  -10.4278   21.0404 C   0  0  0  0  0  0
  -24.3616   -9.4198   21.9186 C   0  0  0  0  0  0
  -23.6287   -8.2241   22.0764 C   0  0  0  0  0  0
  -22.4273   -8.0276   21.3545 C   0  0  0  0  0  0
  -21.9901   -9.0254   20.4654 C   0  0  0  0  0  0
  -22.7236  -10.2126   20.3058 C   0  0  0  0  0  0
  -21.6854   -6.0726   22.5270 C   0  0  0  0  0  0
  -21.4016   -6.5630   23.8206 C   0  0  0  0  0  0
  -21.3654   -5.6783   24.9167 C   0  0  0  0  0  0
  -21.6044   -4.3049   24.7218 C   0  0  0  0  0  0
  -21.8824   -3.8138   23.4344 C   0  0  0  0  0  0
  -21.9193   -4.6950   22.3395 C   0  0  0  0  0  0
  -22.7884  -13.5236   21.1824 C   0  0  0  0  0  0
  -22.1665   -4.2139   21.0975 F   0  0  0  0  0  0
  -21.5628   -3.4535   25.7732 F   0  0  0  0  0  0
  -30.0373  -13.2876   20.4392 N   0  0  0  0  0  0
  -26.3054  -12.9281   20.3369 N   0  0  0  0  0  0
  -25.9323  -11.6452   20.5778 N   0  0  0  0  0  0
  -22.0529  -12.8232   22.0383 N   0  0  0  0  0  0
  -25.4362  -15.1846   20.4034 N   0  0  0  0  0  0
  -31.7794  -14.7290   20.1152 O   0  0  0  0  0  0
  -21.6636   -6.8870   21.4234 O   0  0  0  0  0  0
  -22.3570  -14.5538   20.6667 O   0  0  0  0  0  0
  -24.6141  -31.8703   23.2121 C   0  0  0  0  0  0
  -25.9046  -32.4826   23.8393 C   0  0  1  0  0  0
  -27.2235  -27.4182   20.0696 C   0  0  0  0  0  0
  -25.5930  -33.8628   24.2336 N   0  0  0  0  0  0
  -23.3998  -30.4999   21.5546 C   0  0  2  0  0  0
  -24.8419  -28.9692   20.1131 C   0  0  0  0  0  0
  -22.7405  -29.4681   22.4975 C   0  0  0  0  0  0
  -18.0284  -28.1379   22.8487 C   0  0  0  0  0  0
  -24.1495  -36.7297   23.2633 C   0  0  0  0  0  0
  -25.9332  -30.8246   21.3707 C   0  0  0  0  0  0
  -26.0061  -29.4602   20.7135 C   0  0  0  0  0  0
  -27.1941  -28.6897   20.6976 C   0  0  0  0  0  0
  -26.0298  -26.9556   19.4594 C   0  0  0  0  0  0
  -24.8495  -27.7137   19.4874 C   0  0  0  0  0  0
  -23.6083  -29.8423   20.1666 C   0  0  0  0  0  0
  -25.4115  -36.3113   24.0339 C   0  0  1  0  0  0
  -20.5872  -28.3677   23.1323 C   0  0  2  0  0  0
  -20.6785  -26.9420   22.5410 C   0  0  0  0  0  0
  -19.5764  -26.6392   21.5206 C   0  0  0  0  0  0
  -18.1936  -26.7922   22.1616 C   0  0  0  0  0  0
  -19.1534  -28.8842   23.2891 C   0  0  0  0  0  0
  -18.9467  -30.1443   23.8911 C   0  0  0  0  0  0
  -17.6479  -30.6586   24.0577 C   0  0  0  0  0  0
  -25.9049  -34.9487   23.5126 C   0  0  0  0  0  0
  -16.5367  -29.9098   23.6323 C   0  0  0  0  0  0
  -16.7282  -28.6512   23.0339 C   0  0  0  0  0  0
  -26.4468  -31.6599   25.0721 C   0  0  0  0  0  0
  -25.3734  -31.3709   26.1466 C   0  0  0  0  0  0
  -27.0282  -30.3045   24.6073 C   0  0  0  0  0  0
  -27.6052  -32.4308   25.7484 C   0  0  0  0  0  0
  -27.5592  -37.1793   24.8471 C   0  0  0  0  0  0
  -21.4139  -29.3043   22.3727 N   0  0  0  0  0  0
  -26.4308  -37.3797   23.9416 N   0  0  0  0  0  0
  -24.6679  -31.0777   22.1043 N   0  0  0  0  0  0
  -23.4180  -28.8205   23.3001 O   0  0  0  0  0  0
  -28.3973  -26.6758   20.0882 O   0  0  0  0  0  0
  -26.5592  -34.8940   22.4679 O   0  0  0  0  0  0
  -23.5345  -32.1492   23.7512 O   0  0  0  0  0  0
  -29.5979  -16.9971   22.9460 C   0  0  0  0  0  0
  -29.7550  -18.2641   23.5309 C   0  0  0  0  0  0
  -30.4547  -19.2767   22.8207 C   0  0  0  0  0  0
  -30.1441  -16.7233   21.6867 C   0  0  0  0  0  0
  -30.8518  -18.9827   21.4763 C   0  0  0  0  0  0
  -29.3823  -24.3914   20.0805 C   0  0  0  0  0  0
  -31.1283  -21.1323   20.1372 C   0  0  0  0  0  0
  -29.1692  -18.4746   24.9211 C   0  0  0  0  0  0
  -28.8600  -25.6653   17.9313 C   0  0  0  0  0  0
  -29.3365  -22.9389   19.5527 C   0  0  0  0  0  0
  -29.8080  -21.8240   20.5415 C   0  0  0  0  0  0
  -28.4430  -25.4080   19.3902 C   0  0  2  0  0  0
  -30.7716  -20.5923   23.5600 C   0  0  0  0  0  0
  -30.7279  -17.7180   20.9707 N   0  0  0  0  0  0
  -31.5070  -19.9299   20.6322 N   0  0  0  0  0  0
  -29.9076  -15.3951   21.2429 N   0  0  0  0  0  0
  -30.1368  -24.7222   20.9998 O   0  0  0  0  0  0
  -31.8685  -21.7026   19.3324 O   0  0  0  0  0  0
  -31.2643  -20.3334   24.7712 F   0  0  0  0  0  0
  -31.6836  -21.3601   22.9713 F   0  0  0  0  0  0
  -29.6482  -21.2934   23.7093 F   0  0  0  0  0  0
  -31.4775  -12.4664   19.0883 H   0  0  0  0  0  0
  -30.3808  -11.3097   19.7856 H   0  0  0  0  0  0
  -29.7298  -11.7876   17.4154 H   0  0  0  0  0  0
  -29.6538  -13.4974   17.7510 H   0  0  0  0  0  0
  -27.8241  -11.3116   18.8026 H   0  0  0  0  0  0
  -27.3610  -12.6518   17.7863 H   0  0  0  0  0  0
  -27.7178  -14.2483   19.5939 H   0  0  0  0  0  0
  -28.7008  -11.8926   21.2825 H   0  0  0  0  0  0
  -28.4572  -13.4894   21.8949 H   0  0  0  0  0  0
  -25.2770   -9.5657   22.4759 H   0  0  0  0  0  0
  -23.9985   -7.4624   22.7484 H   0  0  0  0  0  0
  -21.0836   -8.8776   19.8963 H   0  0  0  0  0  0
  -22.3710  -10.9663   19.6163 H   0  0  0  0  0  0
  -21.2020   -7.6144   23.9701 H   0  0  0  0  0  0
  -21.1471   -6.0522   25.9068 H   0  0  0  0  0  0
  -22.0611   -2.7606   23.2847 H   0  0  0  0  0  0
  -22.4150  -11.9881   22.4740 H   0  0  0  0  0  0
  -21.1156  -13.1270   22.2614 H   0  0  0  0  0  0
  -24.6704  -15.8419   20.5064 H   0  0  0  0  0  0
  -26.2830  -15.6175   20.0564 H   0  0  0  0  0  0
  -26.7094  -32.5530   23.1129 H   0  0  0  0  0  0
  -25.0107  -33.9804   25.0503 H   0  0  0  0  0  0
  -22.6890  -31.3174   21.4200 H   0  0  0  0  0  0
  -23.3777  -35.9614   23.3318 H   0  0  0  0  0  0
  -24.3595  -36.8885   22.2044 H   0  0  0  0  0  0
  -23.7244  -37.6509   23.6631 H   0  0  0  0  0  0
  -26.0519  -31.5937   20.6071 H   0  0  0  0  0  0
  -26.8181  -30.8710   21.9907 H   0  0  0  0  0  0
  -28.0913  -29.0675   21.1691 H   0  0  0  0  0  0
  -25.9574  -26.0125   18.9425 H   0  0  0  0  0  0
  -23.9529  -27.3321   19.0166 H   0  0  0  0  0  0
  -23.7255  -30.6263   19.4165 H   0  0  0  0  0  0
  -22.7274  -29.2749   19.8611 H   0  0  0  0  0  0
  -25.1286  -36.1964   25.0836 H   0  0  0  0  0  0
  -20.9941  -28.3241   24.1448 H   0  0  0  0  0  0
  -20.5701  -26.2281   23.3581 H   0  0  0  0  0  0
  -21.6659  -26.7473   22.1196 H   0  0  0  0  0  0
  -19.6942  -25.6304   21.1233 H   0  0  0  0  0  0
  -19.6724  -27.3213   20.6746 H   0  0  0  0  0  0
  -17.4207  -26.6678   21.4017 H   0  0  0  0  0  0
  -18.0348  -26.0056   22.9009 H   0  0  0  0  0  0
  -19.7956  -30.7240   24.2286 H   0  0  0  0  0  0
  -17.5058  -31.6267   24.5176 H   0  0  0  0  0  0
  -15.5378  -30.3020   23.7646 H   0  0  0  0  0  0
  -15.8665  -28.0853   22.7036 H   0  0  0  0  0  0
  -24.5934  -30.7013   25.7820 H   0  0  0  0  0  0
  -24.8881  -32.2868   26.4876 H   0  0  0  0  0  0
  -25.8095  -30.8932   27.0252 H   0  0  0  0  0  0
  -26.2815  -29.6821   24.1120 H   0  0  0  0  0  0
  -27.4079  -29.7249   25.4495 H   0  0  0  0  0  0
  -27.8652  -30.4370   23.9199 H   0  0  0  0  0  0
  -27.2688  -33.3616   26.2061 H   0  0  0  0  0  0
  -28.3871  -32.6842   25.0314 H   0  0  0  0  0  0
  -28.0703  -31.8421   26.5406 H   0  0  0  0  0  0
  -28.2588  -38.0101   24.7527 H   0  0  0  0  0  0
  -28.1098  -36.2638   24.6281 H   0  0  0  0  0  0
  -27.2305  -37.1415   25.8868 H   0  0  0  0  0  0
  -20.9290  -29.8780   21.6966 H   0  0  0  0  0  0
  -26.0197  -38.2874   24.1445 H   0  0  0  0  0  0
  -29.0859  -16.2166   23.4932 H   0  0  0  0  0  0
  -28.5074  -17.6545   25.2008 H   0  0  0  0  0  0
  -28.5747  -19.3852   24.9681 H   0  0  0  0  0  0
  -29.9492  -18.5259   25.6800 H   0  0  0  0  0  0
  -28.1642  -26.3421   17.4354 H   0  0  0  0  0  0
  -28.8852  -24.7435   17.3499 H   0  0  0  0  0  0
  -29.8513  -26.1179   17.8807 H   0  0  0  0  0  0
  -29.9031  -22.9088   18.6222 H   0  0  0  0  0  0
  -28.3087  -22.7274   19.2619 H   0  0  0  0  0  0
  -29.9173  -22.2439   21.5372 H   0  0  0  0  0  0
  -29.0285  -21.0656   20.6154 H   0  0  0  0  0  0
  -27.4817  -24.9050   19.4209 H   0  0  0  0  0  0
  -32.3472  -19.5778   20.1992 H   0  0  0  0  0  0
  -29.0537  -14.9927   21.5913 H   0  0  0  0  0  0
  1 25  1  0  0  0
  1 30  2  0  0  0
  1 86  1  0  0  0
  2  3  1  0  0  0
  2 25  1  0  0  0
  2 92  1  0  0  0
  2 93  1  0  0  0
  3  4  1  0  0  0
  3 94  1  0  0  0
  3 95  1  0  0  0
  4  5  1  0  0  0
  4 96  1  0  0  0
  4 97  1  0  0  0
  5  6  1  0  0  0
  5 26  1  0  0  0
  5 98  1  0  0  0
  6 25  1  0  0  0
  6 99  1  0  0  0
  6100  1  0  0  0
  7  8  2  0  0  0
  7 26  1  0  0  0
  7 29  1  0  0  0
  8  9  1  0  0  0
  8 22  1  0  0  0
  9 10  1  0  0  0
  9 27  2  0  0  0
 10 11  2  0  0  0
 10 15  1  0  0  0
 11 12  1  0  0  0
 11101  1  0  0  0
 12 13  2  0  0  0
 12102  1  0  0  0
 13 14  1  0  0  0
 13 31  1  0  0  0
 14 15  2  0  0  0
 14103  1  0  0  0
 15104  1  0  0  0
 16 17  2  0  0  0
 16 21  1  0  0  0
 16 31  1  0  0  0
 17 18  1  0  0  0
 17105  1  0  0  0
 18 19  2  0  0  0
 18106  1  0  0  0
 19 20  1  0  0  0
 19 24  1  0  0  0
 20 21  2  0  0  0
 20107  1  0  0  0
 21 23  1  0  0  0
 22 28  1  0  0  0
 22 32  2  0  0  0
 26 27  1  0  0  0
 28108  1  0  0  0
 28109  1  0  0  0
 29110  1  0  0  0
 29111  1  0  0  0
 33 34  1  0  0  0
 33 66  1  0  0  0
 33 70  2  0  0  0
 34 36  1  0  0  0
 34 59  1  0  0  0
 34112  1  0  0  0
 35 44  2  0  0  0
 35 45  1  0  0  0
 35 68  1  0  0  0
 36 56  1  0  0  0
 36113  1  0  0  0
 37 39  1  0  0  0
 37 47  1  0  0  0
 37 66  1  0  0  0
 37114  1  0  0  0
 38 43  2  0  0  0
 38 46  1  0  0  0
 38 47  1  0  0  0
 39 64  1  0  0  0
 39 67  2  0  0  0
 40 52  1  0  0  0
 40 53  2  0  0  0
 40 58  1  0  0  0
 41115  1  0  0  0
 41116  1  0  0  0
 41117  1  0  0  0
 41 48  1  0  0  0
 42 43  1  0  0  0
 42 66  1  0  0  0
 42118  1  0  0  0
 42119  1  0  0  0
 43 44  1  0  0  0
 44120  1  0  0  0
 45 46  2  0  0  0
 45121  1  0  0  0
 46122  1  0  0  0
 47123  1  0  0  0
 47124  1  0  0  0
 48 56  1  0  0  0
 48 65  1  0  0  0
 48125  1  0  0  0
 49 50  1  0  0  0
 49 53  1  0  0  0
 49 64  1  0  0  0
 49126  1  0  0  0
 50 51  1  0  0  0
 50127  1  0  0  0
 50128  1  0  0  0
 51 52  1  0  0  0
 51129  1  0  0  0
 51130  1  0  0  0
 52131  1  0  0  0
 52132  1  0  0  0
 53 54  1  0  0  0
 54 55  2  0  0  0
 54133  1  0  0  0
 55 57  1  0  0  0
 55134  1  0  0  0
 56 69  2  0  0  0
 57 58  2  0  0  0
 57135  1  0  0  0
 58136  1  0  0  0
 59 60  1  0  0  0
 59 61  1  0  0  0
 59 62  1  0  0  0
 60137  1  0  0  0
 60138  1  0  0  0
 60139  1  0  0  0
 61140  1  0  0  0
 61141  1  0  0  0
 61142  1  0  0  0
 62143  1  0  0  0
 62144  1  0  0  0
 62145  1  0  0  0
 63 65  1  0  0  0
 63146  1  0  0  0
 63147  1  0  0  0
 63148  1  0  0  0
 64149  1  0  0  0
 65150  1  0  0  0
 68 82  1  0  0  0
 71 72  2  0  0  0
 71 74  1  0  0  0
 71151  1  0  0  0
 72 73  1  0  0  0
 72 78  1  0  0  0
 73 75  2  0  0  0
 73 83  1  0  0  0
 74 84  2  0  0  0
 74 86  1  0  0  0
 75 84  1  0  0  0
 75 85  1  0  0  0
 76 80  1  0  0  0
 76 82  1  0  0  0
 76 87  2  0  0  0
 77 81  1  0  0  0
 77 85  1  0  0  0
 77 88  2  0  0  0
 78152  1  0  0  0
 78153  1  0  0  0
 78154  1  0  0  0
 79155  1  0  0  0
 79156  1  0  0  0
 79157  1  0  0  0
 79 82  1  0  0  0
 80 81  1  0  0  0
 80158  1  0  0  0
 80159  1  0  0  0
 81160  1  0  0  0
 81161  1  0  0  0
 82162  1  0  0  0
 83 89  1  0  0  0
 83 90  1  0  0  0
 83 91  1  0  0  0
 85163  1  0  0  0
 86164  1  0  0  0
M  ISO  4   1 100  68 101  82 101  86 100
M  END
> <chiral flag>
0

> <version>
0

> <s_m_source_file>
/data/baiqing/PycharmProjects/Reinvent-master-3.2/result/LINK_invent/BTK/process_docking_weight1_custom_product_contain_oxygen_bond_distance_aromatic_linkinvent_7_9_3/rearranged_h_0177.sdf

> <i_m_source_file_index>
44

> <r_mmod_Potential_Energy-OPLS-2005>
-141.100631713867

> <r_mmod_Stretch_Energy-OPLS-2005>
46.440544128418

> <r_mmod_Bend_Energy-OPLS-2005>
147.411575317383

> <r_mmod_Torsional_Energy-OPLS-2005>
237.674774169922

> <r_mmod_Improper_Torsional_Energy-OPLS-2005>
3.98332619667053

> <r_mmod_Van_der_Waal_Energy-OPLS-2005>
170.568252563477

> <r_mmod_Electrostatic_Energy-OPLS-2005>
-504.468414306641

> <r_mmod_Solvation_Energy-OPLS-2005>
-257.850463867188

> <b_mmod_Minimization_Converged-OPLS-2005>
0

> <r_mmod_RMS_Derivative-OPLS-2005>
2.58016681671143

$$$$
44
                    3D
 Structure written by MMmdl.
157165  0  0  1  0            999 V2000
  -30.6574  -14.4540   20.6604 C   0  0  0  0  0  0
  -30.4475  -12.3305   19.3914 C   0  0  0  0  0  0
  -29.4986  -12.5554   18.1942 C   0  0  0  0  0  0
  -28.0183  -12.4080   18.6068 C   0  0  0  0  0  0
  -27.6731  -13.1971   19.8965 C   0  0  2  0  0  0
  -28.7136  -12.8828   20.9929 C   0  0  0  0  0  0
  -25.2618  -13.8129   20.5706 C   0  0  0  0  0  0
  -24.1853  -13.0433   20.9196 C   0  0  0  0  0  0
  -24.6381  -11.6896   20.8734 C   0  0  0  0  0  0
  -23.9013  -10.4286   21.0397 C   0  0  0  0  0  0
  -24.3570   -9.4213   21.9174 C   0  0  0  0  0  0
  -23.6266   -8.2241   22.0746 C   0  0  0  0  0  0
  -22.4250   -8.0266   21.3540 C   0  0  0  0  0  0
  -21.9858   -9.0236   20.4637 C   0  0  0  0  0  0
  -22.7171  -10.2136   20.3053 C   0  0  0  0  0  0
  -21.6851   -6.0722   22.5284 C   0  0  0  0  0  0
  -21.3992   -6.5626   23.8211 C   0  0  0  0  0  0
  -21.3670   -5.6792   24.9182 C   0  0  0  0  0  0
  -21.6054   -4.3055   24.7238 C   0  0  0  0  0  0
  -21.8808   -3.8135   23.4356 C   0  0  0  0  0  0
  -21.9180   -4.6946   22.3409 C   0  0  0  0  0  0
  -22.7873  -13.5246   21.1864 C   0  0  0  0  0  0
  -22.1657   -4.2125   21.0991 F   0  0  0  0  0  0
  -21.5647   -3.4548   25.7755 F   0  0  0  0  0  0
  -30.0477  -13.2478   20.4715 N   0  0  0  0  0  0
  -26.3063  -12.9280   20.3441 N   0  0  0  0  0  0
  -25.9301  -11.6450   20.5748 N   0  0  0  0  0  0
  -22.0496  -12.8267   22.0426 N   0  0  0  0  0  0
  -25.4332  -15.1842   20.4089 N   0  0  0  0  0  0
  -31.7181  -14.7613   20.0997 O   0  0  0  0  0  0
  -21.6634   -6.8867   21.4242 O   0  0  0  0  0  0
  -22.3554  -14.5540   20.6688 O   0  0  0  0  0  0
  -24.6194  -31.8637   23.2090 C   0  0  0  0  0  0
  -25.9077  -32.4796   23.8401 C   0  0  1  0  0  0
  -27.2505  -27.4132   20.0630 C   0  0  0  0  0  0
  -25.5891  -33.8578   24.2332 N   0  0  0  0  0  0
  -23.4072  -30.4874   21.5512 C   0  0  2  0  0  0
  -24.8542  -28.9471   20.1256 C   0  0  0  0  0  0
  -22.7424  -29.4612   22.4965 C   0  0  0  0  0  0
  -18.0241  -28.1416   22.8542 C   0  0  0  0  0  0
  -24.1432  -36.7239   23.2627 C   0  0  0  0  0  0
  -25.9406  -30.8257   21.3607 C   0  0  0  0  0  0
  -26.0223  -29.4545   20.7103 C   0  0  0  0  0  0
  -27.2192  -28.6937   20.6777 C   0  0  0  0  0  0
  -26.0417  -26.9141   19.5215 C   0  0  0  0  0  0
  -24.8593  -27.6730   19.5388 C   0  0  0  0  0  0
  -23.6219  -29.8204   20.1679 C   0  0  0  0  0  0
  -25.4055  -36.3062   24.0334 C   0  0  1  0  0  0
  -20.5846  -28.3673   23.1319 C   0  0  2  0  0  0
  -20.6686  -26.9393   22.5429 C   0  0  0  0  0  0
  -19.5651  -26.6416   21.5228 C   0  0  0  0  0  0
  -18.1858  -26.7965   22.1677 C   0  0  0  0  0  0
  -19.1518  -28.8862   23.2938 C   0  0  0  0  0  0
  -18.9436  -30.1466   23.8957 C   0  0  0  0  0  0
  -17.6440  -30.6631   24.0580 C   0  0  0  0  0  0
  -25.9015  -34.9434   23.5123 C   0  0  0  0  0  0
  -16.5325  -29.9141   23.6337 C   0  0  0  0  0  0
  -16.7232  -28.6542   23.0394 C   0  0  0  0  0  0
  -26.4511  -31.6555   25.0706 C   0  0  0  0  0  0
  -25.3789  -31.3674   26.1464 C   0  0  0  0  0  0
  -27.0298  -30.2969   24.6075 C   0  0  0  0  0  0
  -27.6080  -32.4254   25.7507 C   0  0  0  0  0  0
  -27.5548  -37.1788   24.8501 C   0  0  0  0  0  0
  -21.4144  -29.3018   22.3713 N   0  0  0  0  0  0
  -26.4246  -37.3758   23.9463 N   0  0  0  0  0  0
  -24.6754  -31.0705   22.1009 N   0  0  0  0  0  0
  -23.4180  -28.8119   23.2997 O   0  0  0  0  0  0
  -28.4503  -26.7072   20.0016 O   0  0  0  0  0  0
  -26.5586  -34.8903   22.4691 O   0  0  0  0  0  0
  -23.5375  -32.1382   23.7451 O   0  0  0  0  0  0
  -28.7900  -19.2780   21.5032 C   0  0  0  0  0  0
  -28.3401  -16.9321   21.8313 C   0  0  0  0  0  0
  -27.8921  -18.2601   21.8382 C   0  0  0  0  0  0
  -30.1112  -18.9331   21.1722 C   0  0  0  0  0  0
  -29.6695  -16.6331   21.4613 C   0  0  0  0  0  0
  -30.6844  -21.1402   19.9362 C   0  0  0  0  0  0
  -30.0489  -23.2378   19.2484 C   0  0  0  0  0  0
  -28.3713  -25.5874   17.8028 C   0  0  0  0  0  0
  -31.1399  -20.0362   20.9010 C   0  0  0  0  0  0
  -29.8882  -24.7210   19.6887 C   0  0  0  0  0  0
  -28.5282  -25.4151   19.3375 C   0  0  1  0  0  0
  -30.5367  -17.6347   21.1469 N   0  0  0  0  0  0
  -30.4394  -22.3624   20.2655 N   0  0  0  0  0  0
  -29.9982  -15.2474   21.5308 N   0  0  0  0  0  0
  -29.8729  -22.9524   18.0600 O   0  0  0  0  0  0
  -26.6132  -18.5600   22.1676 F   0  0  0  0  0  0
  -31.4825  -12.4793   19.0822 H   0  0  0  0  0  0
  -30.3927  -11.2978   19.7360 H   0  0  0  0  0  0
  -29.7329  -11.8588   17.3886 H   0  0  0  0  0  0
  -29.6643  -13.5520   17.7845 H   0  0  0  0  0  0
  -27.8188  -11.3464   18.7581 H   0  0  0  0  0  0
  -27.3682  -12.7232   17.7889 H   0  0  0  0  0  0
  -27.7420  -14.2605   19.6667 H   0  0  0  0  0  0
  -28.6967  -11.8146   21.2136 H   0  0  0  0  0  0
  -28.4543  -13.3621   21.9351 H   0  0  0  0  0  0
  -25.2713   -9.5708   22.4756 H   0  0  0  0  0  0
  -23.9991   -7.4626   22.7453 H   0  0  0  0  0  0
  -21.0792   -8.8708   19.8943 H   0  0  0  0  0  0
  -22.3577  -10.9667   19.6174 H   0  0  0  0  0  0
  -21.1952   -7.6132   23.9703 H   0  0  0  0  0  0
  -21.1526   -6.0534   25.9091 H   0  0  0  0  0  0
  -22.0568   -2.7590   23.2866 H   0  0  0  0  0  0
  -22.4074  -11.9945   22.4873 H   0  0  0  0  0  0
  -21.1099  -13.1303   22.2606 H   0  0  0  0  0  0
  -24.6642  -15.8379   20.5048 H   0  0  0  0  0  0
  -26.2746  -15.6146   20.0490 H   0  0  0  0  0  0
  -26.7124  -32.5557   23.1149 H   0  0  0  0  0  0
  -25.0017  -33.9711   25.0466 H   0  0  0  0  0  0
  -22.6992  -31.3065   21.4093 H   0  0  0  0  0  0
  -23.3689  -35.9585   23.3331 H   0  0  0  0  0  0
  -24.3495  -36.8809   22.2033 H   0  0  0  0  0  0
  -23.7193  -37.6448   23.6626 H   0  0  0  0  0  0
  -26.0468  -31.5913   20.5921 H   0  0  0  0  0  0
  -26.8332  -30.8912   21.9711 H   0  0  0  0  0  0
  -28.1269  -29.0871   21.1194 H   0  0  0  0  0  0
  -25.9853  -25.9383   19.0654 H   0  0  0  0  0  0
  -23.9581  -27.2678   19.1006 H   0  0  0  0  0  0
  -23.7407  -30.6006   19.4159 H   0  0  0  0  0  0
  -22.7478  -29.2458   19.8592 H   0  0  0  0  0  0
  -25.1229  -36.1873   25.0825 H   0  0  0  0  0  0
  -20.9992  -28.3235   24.1417 H   0  0  0  0  0  0
  -20.5514  -26.2290   23.3625 H   0  0  0  0  0  0
  -21.6553  -26.7340   22.1260 H   0  0  0  0  0  0
  -19.6749  -25.6340   21.1210 H   0  0  0  0  0  0
  -19.6570  -27.3265   20.6792 H   0  0  0  0  0  0
  -17.4092  -26.6756   21.4116 H   0  0  0  0  0  0
  -18.0258  -26.0120   22.9085 H   0  0  0  0  0  0
  -19.7897  -30.7295   24.2393 H   0  0  0  0  0  0
  -17.4967  -31.6331   24.5158 H   0  0  0  0  0  0
  -15.5327  -30.3060   23.7621 H   0  0  0  0  0  0
  -15.8630  -28.0853   22.7118 H   0  0  0  0  0  0
  -24.5995  -30.6951   25.7853 H   0  0  0  0  0  0
  -24.8922  -32.2812   26.4883 H   0  0  0  0  0  0
  -25.8160  -30.8915   27.0243 H   0  0  0  0  0  0
  -26.2813  -29.6780   24.1102 H   0  0  0  0  0  0
  -27.3996  -29.7174   25.4552 H   0  0  0  0  0  0
  -27.8709  -30.4215   23.9242 H   0  0  0  0  0  0
  -27.2691  -33.3533   26.2118 H   0  0  0  0  0  0
  -28.3929  -32.6823   25.0388 H   0  0  0  0  0  0
  -28.0699  -31.8324   26.5422 H   0  0  0  0  0  0
  -28.2616  -38.0037   24.7494 H   0  0  0  0  0  0
  -28.0996  -36.2571   24.6379 H   0  0  0  0  0  0
  -27.2291  -37.1505   25.8916 H   0  0  0  0  0  0
  -20.9285  -29.8760   21.6953 H   0  0  0  0  0  0
  -26.0101  -38.2818   24.1501 H   0  0  0  0  0  0
  -28.4643  -20.3094   21.5175 H   0  0  0  0  0  0
  -27.6412  -16.1579   22.1125 H   0  0  0  0  0  0
  -30.5877  -20.7660   18.9119 H   0  0  0  0  0  0
  -28.1775  -24.6303   17.3200 H   0  0  0  0  0  0
  -29.2676  -26.0115   17.3502 H   0  0  0  0  0  0
  -27.5473  -26.2357   17.5152 H   0  0  0  0  0  0
  -32.0487  -19.5823   20.5036 H   0  0  0  0  0  0
  -31.4220  -20.4850   21.8544 H   0  0  0  0  0  0
  -30.6967  -25.2760   19.2083 H   0  0  0  0  0  0
  -30.0854  -24.8046   20.7562 H   0  0  0  0  0  0
  -27.7315  -24.7748   19.7235 H   0  0  0  0  0  0
  -29.2957  -14.7133   22.0151 H   0  0  0  0  0  0
  1 25  1  0  0  0
  1 30  2  0  0  0
  1 84  1  0  0  0
  2  3  1  0  0  0
  2 25  1  0  0  0
  2 87  1  0  0  0
  2 88  1  0  0  0
  3  4  1  0  0  0
  3 89  1  0  0  0
  3 90  1  0  0  0
  4  5  1  0  0  0
  4 91  1  0  0  0
  4 92  1  0  0  0
  5  6  1  0  0  0
  5 26  1  0  0  0
  5 93  1  0  0  0
  6 25  1  0  0  0
  6 94  1  0  0  0
  6 95  1  0  0  0
  7  8  2  0  0  0
  7 26  1  0  0  0
  7 29  1  0  0  0
  8  9  1  0  0  0
  8 22  1  0  0  0
  9 10  1  0  0  0
  9 27  2  0  0  0
 10 11  2  0  0  0
 10 15  1  0  0  0
 11 12  1  0  0  0
 11 96  1  0  0  0
 12 13  2  0  0  0
 12 97  1  0  0  0
 13 14  1  0  0  0
 13 31  1  0  0  0
 14 15  2  0  0  0
 14 98  1  0  0  0
 15 99  1  0  0  0
 16 17  2  0  0  0
 16 21  1  0  0  0
 16 31  1  0  0  0
 17 18  1  0  0  0
 17100  1  0  0  0
 18 19  2  0  0  0
 18101  1  0  0  0
 19 20  1  0  0  0
 19 24  1  0  0  0
 20 21  2  0  0  0
 20102  1  0  0  0
 21 23  1  0  0  0
 22 28  1  0  0  0
 22 32  2  0  0  0
 26 27  1  0  0  0
 28103  1  0  0  0
 28104  1  0  0  0
 29105  1  0  0  0
 29106  1  0  0  0
 33 34  1  0  0  0
 33 66  1  0  0  0
 33 70  2  0  0  0
 34 36  1  0  0  0
 34 59  1  0  0  0
 34107  1  0  0  0
 35 44  2  0  0  0
 35 45  1  0  0  0
 35 68  1  0  0  0
 36 56  1  0  0  0
 36108  1  0  0  0
 37 39  1  0  0  0
 37 47  1  0  0  0
 37 66  1  0  0  0
 37109  1  0  0  0
 38 43  2  0  0  0
 38 46  1  0  0  0
 38 47  1  0  0  0
 39 64  1  0  0  0
 39 67  2  0  0  0
 40 52  1  0  0  0
 40 53  2  0  0  0
 40 58  1  0  0  0
 41110  1  0  0  0
 41111  1  0  0  0
 41112  1  0  0  0
 41 48  1  0  0  0
 42 43  1  0  0  0
 42 66  1  0  0  0
 42113  1  0  0  0
 42114  1  0  0  0
 43 44  1  0  0  0
 44115  1  0  0  0
 45 46  2  0  0  0
 45116  1  0  0  0
 46117  1  0  0  0
 47118  1  0  0  0
 47119  1  0  0  0
 48 56  1  0  0  0
 48 65  1  0  0  0
 48120  1  0  0  0
 49 50  1  0  0  0
 49 53  1  0  0  0
 49 64  1  0  0  0
 49121  1  0  0  0
 50 51  1  0  0  0
 50122  1  0  0  0
 50123  1  0  0  0
 51 52  1  0  0  0
 51124  1  0  0  0
 51125  1  0  0  0
 52126  1  0  0  0
 52127  1  0  0  0
 53 54  1  0  0  0
 54 55  2  0  0  0
 54128  1  0  0  0
 55 57  1  0  0  0
 55129  1  0  0  0
 56 69  2  0  0  0
 57 58  2  0  0  0
 57130  1  0  0  0
 58131  1  0  0  0
 59 60  1  0  0  0
 59 61  1  0  0  0
 59 62  1  0  0  0
 60132  1  0  0  0
 60133  1  0  0  0
 60134  1  0  0  0
 61135  1  0  0  0
 61136  1  0  0  0
 61137  1  0  0  0
 62138  1  0  0  0
 62139  1  0  0  0
 62140  1  0  0  0
 63 65  1  0  0  0
 63141  1  0  0  0
 63142  1  0  0  0
 63143  1  0  0  0
 64144  1  0  0  0
 65145  1  0  0  0
 68 81  1  0  0  0
 71 73  2  0  0  0
 71 74  1  0  0  0
 71146  1  0  0  0
 72 73  1  0  0  0
 72 75  2  0  0  0
 72147  1  0  0  0
 73 86  1  0  0  0
 74 79  1  0  0  0
 74 82  2  0  0  0
 75 82  1  0  0  0
 75 84  1  0  0  0
 76 79  1  0  0  0
 76 83  2  0  0  0
 76148  1  0  0  0
 77 80  1  0  0  0
 77 83  1  0  0  0
 77 85  2  0  0  0
 78149  1  0  0  0
 78150  1  0  0  0
 78151  1  0  0  0
 78 81  1  0  0  0
 79152  1  0  0  0
 79153  1  0  0  0
 80 81  1  0  0  0
 80154  1  0  0  0
 80155  1  0  0  0
 81156  1  0  0  0
 84157  1  0  0  0
M  ISO  4   1 100  68 101  81 101  84 100
M  END
> <chiral flag>
0

> <version>
0

> <s_m_source_file>
/data/baiqing/PycharmProjects/Reinvent-master-3.2/result/LINK_invent/BTK/process_docking_weight1_custom_product_contain_oxygen_bond_distance_aromatic_linkinvent_7_9_3/rearranged_h_0177.sdf

> <i_m_source_file_index>
45

> <r_mmod_Potential_Energy-OPLS-2005>
-195.677261352539

> <r_mmod_Stretch_Energy-OPLS-2005>
48.8089447021484

> <r_mmod_Bend_Energy-OPLS-2005>
119.479774475098

> <r_mmod_Torsional_Energy-OPLS-2005>
197.595687866211

> <r_mmod_Improper_Torsional_Energy-OPLS-2005>
5.21040344238281

> <r_mmod_Van_der_Waal_Energy-OPLS-2005>
167.149200439453

> <r_mmod_Electrostatic_Energy-OPLS-2005>
-521.546081542969

> <r_mmod_Solvation_Energy-OPLS-2005>
-226.806503295898

> <b_mmod_Minimization_Converged-OPLS-2005>
0

> <r_mmod_RMS_Derivative-OPLS-2005>
4.36385345458984

$$$$
45
                    3D
 Structure written by MMmdl.
154162  0  0  1  0            999 V2000
  -30.6967  -14.4971   20.5790 C   0  0  0  0  0  0
  -30.4241  -12.3203   19.4410 C   0  0  0  0  0  0
  -29.4985  -12.5090   18.2208 C   0  0  0  0  0  0
  -28.0197  -12.3617   18.6288 C   0  0  0  0  0  0
  -27.6615  -13.2085   19.8792 C   0  0  2  0  0  0
  -28.7006  -13.0004   21.0053 C   0  0  0  0  0  0
  -25.2583  -13.8168   20.5703 C   0  0  0  0  0  0
  -24.1831  -13.0448   20.9202 C   0  0  0  0  0  0
  -24.6388  -11.6915   20.8753 C   0  0  0  0  0  0
  -23.9061  -10.4305   21.0406 C   0  0  0  0  0  0
  -24.3615   -9.4224   21.9181 C   0  0  0  0  0  0
  -23.6306   -8.2249   22.0746 C   0  0  0  0  0  0
  -22.4282   -8.0289   21.3542 C   0  0  0  0  0  0
  -21.9916   -9.0257   20.4636 C   0  0  0  0  0  0
  -22.7236  -10.2145   20.3057 C   0  0  0  0  0  0
  -21.6853   -6.0754   22.5291 C   0  0  0  0  0  0
  -21.4003   -6.5652   23.8226 C   0  0  0  0  0  0
  -21.3666   -5.6800   24.9185 C   0  0  0  0  0  0
  -21.6048   -4.3065   24.7229 C   0  0  0  0  0  0
  -21.8818   -3.8164   23.4350 C   0  0  0  0  0  0
  -21.9190   -4.6982   22.3409 C   0  0  0  0  0  0
  -22.7855  -13.5244   21.1882 C   0  0  0  0  0  0
  -22.1657   -4.2174   21.0983 F   0  0  0  0  0  0
  -21.5639   -3.4544   25.7738 F   0  0  0  0  0  0
  -30.0360  -13.3082   20.4641 N   0  0  0  0  0  0
  -26.3015  -12.9336   20.3383 N   0  0  0  0  0  0
  -25.9313  -11.6498   20.5784 N   0  0  0  0  0  0
  -22.0496  -12.8212   22.0426 N   0  0  0  0  0  0
  -25.4338  -15.1883   20.4109 N   0  0  0  0  0  0
  -31.8013  -14.6873   20.0599 O   0  0  0  0  0  0
  -21.6639   -6.8893   21.4250 O   0  0  0  0  0  0
  -22.3536  -14.5558   20.6757 O   0  0  0  0  0  0
  -24.6172  -31.8671   23.2115 C   0  0  0  0  0  0
  -25.9059  -32.4815   23.8408 C   0  0  1  0  0  0
  -27.2251  -27.3985   20.1035 C   0  0  0  0  0  0
  -25.5913  -33.8619   24.2325 N   0  0  0  0  0  0
  -23.4059  -30.4933   21.5522 C   0  0  2  0  0  0
  -24.8524  -28.9653   20.1088 C   0  0  0  0  0  0
  -22.7428  -29.4650   22.4975 C   0  0  0  0  0  0
  -18.0276  -28.1379   22.8481 C   0  0  0  0  0  0
  -24.1488  -36.7317   23.2637 C   0  0  0  0  0  0
  -25.9404  -30.8211   21.3725 C   0  0  0  0  0  0
  -26.0161  -29.4564   20.7136 C   0  0  0  0  0  0
  -27.2048  -28.6819   20.7081 C   0  0  0  0  0  0
  -26.0427  -26.9518   19.4610 C   0  0  0  0  0  0
  -24.8639  -27.7145   19.4759 C   0  0  0  0  0  0
  -23.6155  -29.8338   20.1641 C   0  0  0  0  0  0
  -25.4113  -36.3111   24.0329 C   0  0  1  0  0  0
  -20.5869  -28.3668   23.1310 C   0  0  2  0  0  0
  -20.6773  -26.9403   22.5413 C   0  0  0  0  0  0
  -19.5758  -26.6386   21.5207 C   0  0  0  0  0  0
  -18.1936  -26.7924   22.1614 C   0  0  0  0  0  0
  -19.1526  -28.8840   23.2887 C   0  0  0  0  0  0
  -18.9457  -30.1446   23.8900 C   0  0  0  0  0  0
  -17.6460  -30.6587   24.0560 C   0  0  0  0  0  0
  -25.9039  -34.9470   23.5121 C   0  0  0  0  0  0
  -16.5349  -29.9089   23.6329 C   0  0  0  0  0  0
  -16.7264  -28.6504   23.0349 C   0  0  0  0  0  0
  -26.4475  -31.6610   25.0752 C   0  0  0  0  0  0
  -25.3726  -31.3714   26.1491 C   0  0  0  0  0  0
  -27.0318  -30.3054   24.6154 C   0  0  0  0  0  0
  -27.6066  -32.4318   25.7506 C   0  0  0  0  0  0
  -27.5579  -37.1817   24.8463 C   0  0  0  0  0  0
  -21.4154  -29.3032   22.3721 N   0  0  0  0  0  0
  -26.4301  -37.3794   23.9399 N   0  0  0  0  0  0
  -24.6726  -31.0749   22.1032 N   0  0  0  0  0  0
  -23.4193  -28.8183   23.3016 O   0  0  0  0  0  0
  -28.3597  -26.5971   20.1745 O   0  0  0  0  0  0
  -26.5606  -34.8916   22.4680 O   0  0  0  0  0  0
  -23.5356  -32.1444   23.7487 O   0  0  0  0  0  0
  -30.0252  -19.3846   21.1593 C   0  0  0  0  0  0
  -30.3177  -18.8647   19.9125 C   0  0  0  0  0  0
  -30.1565  -16.8900   21.0676 C   0  0  0  0  0  0
  -29.8582  -20.7733   21.6985 C   0  0  0  0  0  0
  -29.0998  -24.2329   20.7592 C   0  0  0  0  0  0
  -28.0803  -23.0423   22.8219 C   0  0  0  0  0  0
  -28.1184  -25.1730   20.0134 C   0  0  0  0  0  0
  -28.4761  -22.9226   21.3333 C   0  0  2  0  0  0
  -30.3803  -17.4633   19.8747 N   0  0  0  0  0  0
  -30.5366  -19.5794   18.7308 N   0  0  0  0  0  0
  -30.0585  -15.4733   21.2612 N   0  0  0  0  0  0
  -29.1242  -21.6351   20.9635 N   0  0  0  0  0  0
  -30.3132  -21.0627   22.8084 O   0  0  0  0  0  0
  -30.2923  -24.5270   20.8840 O   0  0  0  0  0  0
  -29.8506  -18.0805   22.3341 S   0  0  0  0  0  0
  -31.4694  -12.4184   19.1419 H   0  0  0  0  0  0
  -30.3268  -11.3112   19.8436 H   0  0  0  0  0  0
  -29.7480  -11.7841   17.4451 H   0  0  0  0  0  0
  -29.6600  -13.4957   17.7840 H   0  0  0  0  0  0
  -27.8354  -11.3056   18.8306 H   0  0  0  0  0  0
  -27.3695  -12.6279   17.7936 H   0  0  0  0  0  0
  -27.7047  -14.2548   19.5752 H   0  0  0  0  0  0
  -28.6780  -11.9669   21.3524 H   0  0  0  0  0  0
  -28.4485  -13.6025   21.8791 H   0  0  0  0  0  0
  -25.2763   -9.5709   22.4748 H   0  0  0  0  0  0
  -24.0042   -7.4630   22.7440 H   0  0  0  0  0  0
  -21.0864   -8.8767   19.8915 H   0  0  0  0  0  0
  -22.3703  -10.9683   19.6165 H   0  0  0  0  0  0
  -21.1980   -7.6158   23.9742 H   0  0  0  0  0  0
  -21.1489   -6.0522   25.9091 H   0  0  0  0  0  0
  -22.0588   -2.7629   23.2837 H   0  0  0  0  0  0
  -22.4114  -11.9868   22.4794 H   0  0  0  0  0  0
  -21.1109  -13.1215   22.2629 H   0  0  0  0  0  0
  -24.6739  -15.8508   20.5208 H   0  0  0  0  0  0
  -26.2928  -15.6218   20.0958 H   0  0  0  0  0  0
  -26.7123  -32.5498   23.1164 H   0  0  0  0  0  0
  -25.0067  -33.9787   25.0475 H   0  0  0  0  0  0
  -22.6941  -31.3106   21.4155 H   0  0  0  0  0  0
  -23.3741  -35.9658   23.3321 H   0  0  0  0  0  0
  -24.3575  -36.8920   22.2046 H   0  0  0  0  0  0
  -23.7260  -37.6535   23.6641 H   0  0  0  0  0  0
  -26.0624  -31.5874   20.6060 H   0  0  0  0  0  0
  -26.8248  -30.8680   21.9961 H   0  0  0  0  0  0
  -28.0960  -29.0510   21.1955 H   0  0  0  0  0  0
  -25.9958  -26.0056   18.9416 H   0  0  0  0  0  0
  -23.9743  -27.3366   18.9916 H   0  0  0  0  0  0
  -23.7238  -30.6130   19.4088 H   0  0  0  0  0  0
  -22.7376  -29.2581   19.8643 H   0  0  0  0  0  0
  -25.1289  -36.1981   25.0824 H   0  0  0  0  0  0
  -20.9941  -28.3224   24.1438 H   0  0  0  0  0  0
  -20.5695  -26.2259   23.3590 H   0  0  0  0  0  0
  -21.6644  -26.7466   22.1193 H   0  0  0  0  0  0
  -19.6933  -25.6301   21.1233 H   0  0  0  0  0  0
  -19.6714  -27.3195   20.6736 H   0  0  0  0  0  0
  -17.4206  -26.6664   21.4017 H   0  0  0  0  0  0
  -18.0345  -26.0067   22.9012 H   0  0  0  0  0  0
  -19.7937  -30.7260   24.2269 H   0  0  0  0  0  0
  -17.5021  -31.6267   24.5165 H   0  0  0  0  0  0
  -15.5354  -30.2996   23.7660 H   0  0  0  0  0  0
  -15.8659  -28.0830   22.7070 H   0  0  0  0  0  0
  -24.5902  -30.7063   25.7814 H   0  0  0  0  0  0
  -24.8905  -32.2859   26.4951 H   0  0  0  0  0  0
  -25.8063  -30.8872   27.0250 H   0  0  0  0  0  0
  -26.2880  -29.6812   24.1187 H   0  0  0  0  0  0
  -27.4066  -29.7302   25.4632 H   0  0  0  0  0  0
  -27.8719  -30.4384   23.9334 H   0  0  0  0  0  0
  -27.2721  -33.3616   26.2116 H   0  0  0  0  0  0
  -28.3857  -32.6882   25.0313 H   0  0  0  0  0  0
  -28.0752  -31.8416   26.5391 H   0  0  0  0  0  0
  -28.2609  -38.0102   24.7492 H   0  0  0  0  0  0
  -28.1065  -36.2635   24.6311 H   0  0  0  0  0  0
  -27.2286  -37.1488   25.8863 H   0  0  0  0  0  0
  -20.9322  -29.8738   21.6927 H   0  0  0  0  0  0
  -26.0189  -38.2872   24.1401 H   0  0  0  0  0  0
  -27.5482  -22.1555   23.1674 H   0  0  0  0  0  0
  -27.4213  -23.8956   22.9899 H   0  0  0  0  0  0
  -28.9495  -23.1848   23.4651 H   0  0  0  0  0  0
  -27.1309  -24.9205   20.4003 H   0  0  0  0  0  0
  -28.1313  -24.9228   18.9520 H   0  0  0  0  0  0
  -27.5207  -22.8137   20.8210 H   0  0  0  0  0  0
  -30.7862  -20.5607   18.7757 H   0  0  0  0  0  0
  -30.9281  -19.0973   17.9288 H   0  0  0  0  0  0
  -29.3147  -15.1698   21.8698 H   0  0  0  0  0  0
  -28.8521  -21.2829   20.0553 H   0  0  0  0  0  0
  1 25  1  0  0  0
  1 30  2  0  0  0
  1 81  1  0  0  0
  2  3  1  0  0  0
  2 25  1  0  0  0
  2 86  1  0  0  0
  2 87  1  0  0  0
  3  4  1  0  0  0
  3 88  1  0  0  0
  3 89  1  0  0  0
  4  5  1  0  0  0
  4 90  1  0  0  0
  4 91  1  0  0  0
  5  6  1  0  0  0
  5 26  1  0  0  0
  5 92  1  0  0  0
  6 25  1  0  0  0
  6 93  1  0  0  0
  6 94  1  0  0  0
  7  8  2  0  0  0
  7 26  1  0  0  0
  7 29  1  0  0  0
  8  9  1  0  0  0
  8 22  1  0  0  0
  9 10  1  0  0  0
  9 27  2  0  0  0
 10 11  2  0  0  0
 10 15  1  0  0  0
 11 12  1  0  0  0
 11 95  1  0  0  0
 12 13  2  0  0  0
 12 96  1  0  0  0
 13 14  1  0  0  0
 13 31  1  0  0  0
 14 15  2  0  0  0
 14 97  1  0  0  0
 15 98  1  0  0  0
 16 17  2  0  0  0
 16 21  1  0  0  0
 16 31  1  0  0  0
 17 18  1  0  0  0
 17 99  1  0  0  0
 18 19  2  0  0  0
 18100  1  0  0  0
 19 20  1  0  0  0
 19 24  1  0  0  0
 20 21  2  0  0  0
 20101  1  0  0  0
 21 23  1  0  0  0
 22 28  1  0  0  0
 22 32  2  0  0  0
 26 27  1  0  0  0
 28102  1  0  0  0
 28103  1  0  0  0
 29104  1  0  0  0
 29105  1  0  0  0
 33 34  1  0  0  0
 33 66  1  0  0  0
 33 70  2  0  0  0
 34 36  1  0  0  0
 34 59  1  0  0  0
 34106  1  0  0  0
 35 44  2  0  0  0
 35 45  1  0  0  0
 35 68  1  0  0  0
 36 56  1  0  0  0
 36107  1  0  0  0
 37 39  1  0  0  0
 37 47  1  0  0  0
 37 66  1  0  0  0
 37108  1  0  0  0
 38 43  2  0  0  0
 38 46  1  0  0  0
 38 47  1  0  0  0
 39 64  1  0  0  0
 39 67  2  0  0  0
 40 52  1  0  0  0
 40 53  2  0  0  0
 40 58  1  0  0  0
 41109  1  0  0  0
 41110  1  0  0  0
 41111  1  0  0  0
 41 48  1  0  0  0
 42 43  1  0  0  0
 42 66  1  0  0  0
 42112  1  0  0  0
 42113  1  0  0  0
 43 44  1  0  0  0
 44114  1  0  0  0
 45 46  2  0  0  0
 45115  1  0  0  0
 46116  1  0  0  0
 47117  1  0  0  0
 47118  1  0  0  0
 48 56  1  0  0  0
 48 65  1  0  0  0
 48119  1  0  0  0
 49 50  1  0  0  0
 49 53  1  0  0  0
 49 64  1  0  0  0
 49120  1  0  0  0
 50 51  1  0  0  0
 50121  1  0  0  0
 50122  1  0  0  0
 51 52  1  0  0  0
 51123  1  0  0  0
 51124  1  0  0  0
 52125  1  0  0  0
 52126  1  0  0  0
 53 54  1  0  0  0
 54 55  2  0  0  0
 54127  1  0  0  0
 55 57  1  0  0  0
 55128  1  0  0  0
 56 69  2  0  0  0
 57 58  2  0  0  0
 57129  1  0  0  0
 58130  1  0  0  0
 59 60  1  0  0  0
 59 61  1  0  0  0
 59 62  1  0  0  0
 60131  1  0  0  0
 60132  1  0  0  0
 60133  1  0  0  0
 61134  1  0  0  0
 61135  1  0  0  0
 61136  1  0  0  0
 62137  1  0  0  0
 62138  1  0  0  0
 62139  1  0  0  0
 63 65  1  0  0  0
 63140  1  0  0  0
 63141  1  0  0  0
 63142  1  0  0  0
 64143  1  0  0  0
 65144  1  0  0  0
 68 77  1  0  0  0
 71 72  2  0  0  0
 71 74  1  0  0  0
 71 85  1  0  0  0
 72 79  1  0  0  0
 72 80  1  0  0  0
 73 79  2  0  0  0
 73 81  1  0  0  0
 73 85  1  0  0  0
 74 82  1  0  0  0
 74 83  2  0  0  0
 75 77  1  0  0  0
 75 78  1  0  0  0
 75 84  2  0  0  0
 76145  1  0  0  0
 76146  1  0  0  0
 76147  1  0  0  0
 76 78  1  0  0  0
 77148  1  0  0  0
 77149  1  0  0  0
 78 82  1  0  0  0
 78150  1  0  0  0
 80151  1  0  0  0
 80152  1  0  0  0
 81153  1  0  0  0
 82154  1  0  0  0
M  ISO  4   1 100  68 101  77 101  81 100
M  END
> <chiral flag>
0

> <version>
0

> <s_m_source_file>
/data/baiqing/PycharmProjects/Reinvent-master-3.2/result/LINK_invent/BTK/process_docking_weight1_custom_product_contain_oxygen_bond_distance_aromatic_linkinvent_7_9_3/rearranged_h_0177.sdf

> <i_m_source_file_index>
46

> <r_mmod_Potential_Energy-OPLS-2005>
-127.914855957031

> <r_mmod_Stretch_Energy-OPLS-2005>
44.7804985046387

> <r_mmod_Bend_Energy-OPLS-2005>
124.336387634277

> <r_mmod_Torsional_Energy-OPLS-2005>
245.054626464844

> <r_mmod_Improper_Torsional_Energy-OPLS-2005>
5.93376636505127

> <r_mmod_Van_der_Waal_Energy-OPLS-2005>
132.987609863281

> <r_mmod_Electrostatic_Energy-OPLS-2005>
-416.324066162109

> <r_mmod_Solvation_Energy-OPLS-2005>
-284.097412109375

> <b_mmod_Minimization_Converged-OPLS-2005>
0

> <r_mmod_RMS_Derivative-OPLS-2005>
1.60371732711792

$$$$
46
                    3D
 Structure written by MMmdl.
153161  0  0  1  0            999 V2000
  -30.7067  -14.4264   20.6102 C   0  0  0  0  0  0
  -30.4254  -12.2915   19.4103 C   0  0  0  0  0  0
  -29.4936  -12.5203   18.2017 C   0  0  0  0  0  0
  -28.0130  -12.3860   18.6105 C   0  0  0  0  0  0
  -27.6681  -13.2029   19.8837 C   0  0  2  0  0  0
  -28.7060  -12.9387   20.9971 C   0  0  0  0  0  0
  -25.2605  -13.8153   20.5665 C   0  0  0  0  0  0
  -24.1849  -13.0436   20.9162 C   0  0  0  0  0  0
  -24.6398  -11.6899   20.8732 C   0  0  0  0  0  0
  -23.9067  -10.4288   21.0404 C   0  0  0  0  0  0
  -24.3622   -9.4204   21.9181 C   0  0  0  0  0  0
  -23.6298   -8.2244   22.0758 C   0  0  0  0  0  0
  -22.4281   -8.0281   21.3552 C   0  0  0  0  0  0
  -21.9921   -9.0250   20.4650 C   0  0  0  0  0  0
  -22.7245  -10.2129   20.3053 C   0  0  0  0  0  0
  -21.6851   -6.0740   22.5284 C   0  0  0  0  0  0
  -21.4012   -6.5642   23.8222 C   0  0  0  0  0  0
  -21.3661   -5.6791   24.9181 C   0  0  0  0  0  0
  -21.6045   -4.3057   24.7228 C   0  0  0  0  0  0
  -21.8815   -3.8152   23.4348 C   0  0  0  0  0  0
  -21.9195   -4.6968   22.3402 C   0  0  0  0  0  0
  -22.7873  -13.5233   21.1832 C   0  0  0  0  0  0
  -22.1658   -4.2156   21.0976 F   0  0  0  0  0  0
  -21.5637   -3.4545   25.7739 F   0  0  0  0  0  0
  -30.0468  -13.2464   20.4616 N   0  0  0  0  0  0
  -26.3055  -12.9314   20.3391 N   0  0  0  0  0  0
  -25.9325  -11.6478   20.5768 N   0  0  0  0  0  0
  -22.0509  -12.8226   22.0389 N   0  0  0  0  0  0
  -25.4325  -15.1867   20.4051 N   0  0  0  0  0  0
  -31.7895  -14.6722   20.0680 O   0  0  0  0  0  0
  -21.6639   -6.8882   21.4246 O   0  0  0  0  0  0
  -22.3562  -14.5541   20.6688 O   0  0  0  0  0  0
  -24.6144  -31.8672   23.2117 C   0  0  0  0  0  0
  -25.9049  -32.4810   23.8390 C   0  0  1  0  0  0
  -27.2333  -27.4359   20.0869 C   0  0  0  0  0  0
  -25.5920  -33.8606   24.2332 N   0  0  0  0  0  0
  -23.4003  -30.4926   21.5523 C   0  0  2  0  0  0
  -24.8448  -28.9606   20.1143 C   0  0  0  0  0  0
  -22.7382  -29.4664   22.4995 C   0  0  0  0  0  0
  -18.0263  -28.1381   22.8498 C   0  0  0  0  0  0
  -24.1487  -36.7300   23.2640 C   0  0  0  0  0  0
  -25.9294  -30.8328   21.3645 C   0  0  0  0  0  0
  -26.0053  -29.4685   20.7096 C   0  0  0  0  0  0
  -27.2007  -28.7139   20.6919 C   0  0  0  0  0  0
  -26.0490  -26.9430   19.4879 C   0  0  0  0  0  0
  -24.8623  -27.6976   19.5000 C   0  0  0  0  0  0
  -23.6065  -29.8258   20.1663 C   0  0  0  0  0  0
  -25.4111  -36.3098   24.0338 C   0  0  1  0  0  0
  -20.5851  -28.3665   23.1323 C   0  0  2  0  0  0
  -20.6756  -26.9402   22.5421 C   0  0  0  0  0  0
  -19.5737  -26.6393   21.5211 C   0  0  0  0  0  0
  -18.1912  -26.7935   22.1618 C   0  0  0  0  0  0
  -19.1513  -28.8840   23.2912 C   0  0  0  0  0  0
  -18.9441  -30.1446   23.8921 C   0  0  0  0  0  0
  -17.6445  -30.6594   24.0566 C   0  0  0  0  0  0
  -25.9037  -34.9461   23.5129 C   0  0  0  0  0  0
  -16.5335  -29.9094   23.6336 C   0  0  0  0  0  0
  -16.7251  -28.6507   23.0359 C   0  0  0  0  0  0
  -26.4489  -31.6583   25.0715 C   0  0  0  0  0  0
  -25.3770  -31.3671   26.1467 C   0  0  0  0  0  0
  -27.0322  -30.3028   24.6084 C   0  0  0  0  0  0
  -27.6068  -32.4290   25.7475 C   0  0  0  0  0  0
  -27.5585  -37.1800   24.8459 C   0  0  0  0  0  0
  -21.4114  -29.3037   22.3725 N   0  0  0  0  0  0
  -26.4288  -37.3786   23.9415 N   0  0  0  0  0  0
  -24.6667  -31.0777   22.1017 N   0  0  0  0  0  0
  -23.4153  -28.8208   23.3040 O   0  0  0  0  0  0
  -28.4153  -26.7187   20.0918 O   0  0  0  0  0  0
  -26.5583  -34.8916   22.4682 O   0  0  0  0  0  0
  -23.5344  -32.1418   23.7525 O   0  0  0  0  0  0
  -30.0438  -18.8408   20.0255 C   0  0  0  0  0  0
  -30.0940  -17.4881   22.4958 C   0  0  0  0  0  0
  -29.9982  -19.5854   21.2302 C   0  0  0  0  0  0
  -30.1343  -16.7402   21.3014 C   0  0  0  0  0  0
  -30.0318  -18.8942   22.4586 C   0  0  0  0  0  0
  -30.1028  -17.4280   20.0596 C   0  0  0  0  0  0
  -29.6069  -23.3633   21.0677 C   0  0  0  0  0  0
  -29.7795  -21.9679   20.3919 C   0  0  0  0  0  0
  -29.6950  -24.6224   20.1928 C   0  0  0  0  0  0
  -28.3277  -25.2934   19.9412 C   0  0  0  0  0  0
  -29.8912  -21.0040   21.3236 N   0  0  0  0  0  0
  -30.0882  -15.3191   21.3974 N   0  0  0  0  0  0
  -29.4184  -23.4724   22.2867 O   0  0  0  0  0  0
  -29.8117  -21.8022   19.1676 O   0  0  0  0  0  0
  -29.9824  -19.5945   23.6173 F   0  0  0  0  0  0
  -30.0707  -16.7416   18.8912 F   0  0  0  0  0  0
  -31.4697  -12.3949   19.1108 H   0  0  0  0  0  0
  -30.3245  -11.2709   19.7826 H   0  0  0  0  0  0
  -29.7274  -11.8114   17.4062 H   0  0  0  0  0  0
  -29.6706  -13.5139   17.7866 H   0  0  0  0  0  0
  -27.8102  -11.3287   18.7805 H   0  0  0  0  0  0
  -27.3688  -12.6875   17.7842 H   0  0  0  0  0  0
  -27.7260  -14.2588   19.6170 H   0  0  0  0  0  0
  -28.6707  -11.8904   21.2976 H   0  0  0  0  0  0
  -28.4567  -13.4981   21.8994 H   0  0  0  0  0  0
  -25.2767   -9.5679   22.4752 H   0  0  0  0  0  0
  -24.0007   -7.4640   22.7474 H   0  0  0  0  0  0
  -21.0860   -8.8769   19.8942 H   0  0  0  0  0  0
  -22.3714  -10.9671   19.6162 H   0  0  0  0  0  0
  -21.1989   -7.6148   23.9723 H   0  0  0  0  0  0
  -21.1493   -6.0525   25.9083 H   0  0  0  0  0  0
  -22.0592   -2.7617   23.2851 H   0  0  0  0  0  0
  -22.4126  -11.9883   22.4762 H   0  0  0  0  0  0
  -21.1127  -13.1254   22.2575 H   0  0  0  0  0  0
  -24.6656  -15.8430   20.5015 H   0  0  0  0  0  0
  -26.2862  -15.6228   20.0800 H   0  0  0  0  0  0
  -26.7117  -32.5517   23.1150 H   0  0  0  0  0  0
  -25.0102  -33.9769   25.0500 H   0  0  0  0  0  0
  -22.6904  -31.3103   21.4149 H   0  0  0  0  0  0
  -23.3757  -35.9622   23.3278 H   0  0  0  0  0  0
  -24.3596  -36.8941   22.2059 H   0  0  0  0  0  0
  -23.7219  -37.6496   23.6666 H   0  0  0  0  0  0
  -26.0420  -31.6008   20.5981 H   0  0  0  0  0  0
  -26.8180  -30.8844   21.9815 H   0  0  0  0  0  0
  -28.0969  -29.1049   21.1529 H   0  0  0  0  0  0
  -26.0191  -25.9831   18.9944 H   0  0  0  0  0  0
  -23.9715  -27.3035   19.0299 H   0  0  0  0  0  0
  -23.7074  -30.5999   19.4047 H   0  0  0  0  0  0
  -22.7311  -29.2429   19.8753 H   0  0  0  0  0  0
  -25.1288  -36.1963   25.0832 H   0  0  0  0  0  0
  -20.9947  -28.3233   24.1439 H   0  0  0  0  0  0
  -20.5665  -26.2265   23.3597 H   0  0  0  0  0  0
  -21.6627  -26.7450   22.1211 H   0  0  0  0  0  0
  -19.6902  -25.6310   21.1225 H   0  0  0  0  0  0
  -19.6691  -27.3215   20.6751 H   0  0  0  0  0  0
  -17.4186  -26.6690   21.4014 H   0  0  0  0  0  0
  -18.0307  -26.0067   22.9001 H   0  0  0  0  0  0
  -19.7912  -30.7259   24.2300 H   0  0  0  0  0  0
  -17.4997  -31.6277   24.5155 H   0  0  0  0  0  0
  -15.5339  -30.3002   23.7653 H   0  0  0  0  0  0
  -15.8643  -28.0832   22.7080 H   0  0  0  0  0  0
  -24.5936  -30.7029   25.7798 H   0  0  0  0  0  0
  -24.8978  -32.2822   26.4952 H   0  0  0  0  0  0
  -25.8141  -30.8804   27.0196 H   0  0  0  0  0  0
  -26.2855  -29.6765   24.1184 H   0  0  0  0  0  0
  -27.4150  -29.7283   25.4534 H   0  0  0  0  0  0
  -27.8665  -30.4348   23.9187 H   0  0  0  0  0  0
  -27.2702  -33.3579   26.2080 H   0  0  0  0  0  0
  -28.3871  -32.6854   25.0302 H   0  0  0  0  0  0
  -28.0737  -31.8385   26.5370 H   0  0  0  0  0  0
  -28.2577  -38.0120   24.7553 H   0  0  0  0  0  0
  -28.1107  -36.2659   24.6230 H   0  0  0  0  0  0
  -27.2304  -37.1383   25.8859 H   0  0  0  0  0  0
  -20.9259  -29.8745   21.6944 H   0  0  0  0  0  0
  -26.0173  -38.2854   24.1464 H   0  0  0  0  0  0
  -30.0062  -19.3275   19.0637 H   0  0  0  0  0  0
  -30.1019  -16.9914   23.4544 H   0  0  0  0  0  0
  -30.1850  -24.3911   19.2470 H   0  0  0  0  0  0
  -30.3483  -25.3197   20.7159 H   0  0  0  0  0  0
  -27.5749  -24.9059   20.6317 H   0  0  0  0  0  0
  -28.0019  -25.0416   18.9312 H   0  0  0  0  0  0
  -29.8476  -21.3699   22.2679 H   0  0  0  0  0  0
  -29.3555  -14.9422   21.9784 H   0  0  0  0  0  0
  1 25  1  0  0  0
  1 30  2  0  0  0
  1 82  1  0  0  0
  2  3  1  0  0  0
  2 25  1  0  0  0
  2 87  1  0  0  0
  2 88  1  0  0  0
  3  4  1  0  0  0
  3 89  1  0  0  0
  3 90  1  0  0  0
  4  5  1  0  0  0
  4 91  1  0  0  0
  4 92  1  0  0  0
  5  6  1  0  0  0
  5 26  1  0  0  0
  5 93  1  0  0  0
  6 25  1  0  0  0
  6 94  1  0  0  0
  6 95  1  0  0  0
  7  8  2  0  0  0
  7 26  1  0  0  0
  7 29  1  0  0  0
  8  9  1  0  0  0
  8 22  1  0  0  0
  9 10  1  0  0  0
  9 27  2  0  0  0
 10 11  2  0  0  0
 10 15  1  0  0  0
 11 12  1  0  0  0
 11 96  1  0  0  0
 12 13  2  0  0  0
 12 97  1  0  0  0
 13 14  1  0  0  0
 13 31  1  0  0  0
 14 15  2  0  0  0
 14 98  1  0  0  0
 15 99  1  0  0  0
 16 17  2  0  0  0
 16 21  1  0  0  0
 16 31  1  0  0  0
 17 18  1  0  0  0
 17100  1  0  0  0
 18 19  2  0  0  0
 18101  1  0  0  0
 19 20  1  0  0  0
 19 24  1  0  0  0
 20 21  2  0  0  0
 20102  1  0  0  0
 21 23  1  0  0  0
 22 28  1  0  0  0
 22 32  2  0  0  0
 26 27  1  0  0  0
 28103  1  0  0  0
 28104  1  0  0  0
 29105  1  0  0  0
 29106  1  0  0  0
 33 34  1  0  0  0
 33 66  1  0  0  0
 33 70  2  0  0  0
 34 36  1  0  0  0
 34 59  1  0  0  0
 34107  1  0  0  0
 35 44  2  0  0  0
 35 45  1  0  0  0
 35 68  1  0  0  0
 36 56  1  0  0  0
 36108  1  0  0  0
 37 39  1  0  0  0
 37 47  1  0  0  0
 37 66  1  0  0  0
 37109  1  0  0  0
 38 43  2  0  0  0
 38 46  1  0  0  0
 38 47  1  0  0  0
 39 64  1  0  0  0
 39 67  2  0  0  0
 40 52  1  0  0  0
 40 53  2  0  0  0
 40 58  1  0  0  0
 41110  1  0  0  0
 41111  1  0  0  0
 41112  1  0  0  0
 41 48  1  0  0  0
 42 43  1  0  0  0
 42 66  1  0  0  0
 42113  1  0  0  0
 42114  1  0  0  0
 43 44  1  0  0  0
 44115  1  0  0  0
 45 46  2  0  0  0
 45116  1  0  0  0
 46117  1  0  0  0
 47118  1  0  0  0
 47119  1  0  0  0
 48 56  1  0  0  0
 48 65  1  0  0  0
 48120  1  0  0  0
 49 50  1  0  0  0
 49 53  1  0  0  0
 49 64  1  0  0  0
 49121  1  0  0  0
 50 51  1  0  0  0
 50122  1  0  0  0
 50123  1  0  0  0
 51 52  1  0  0  0
 51124  1  0  0  0
 51125  1  0  0  0
 52126  1  0  0  0
 52127  1  0  0  0
 53 54  1  0  0  0
 54 55  2  0  0  0
 54128  1  0  0  0
 55 57  1  0  0  0
 55129  1  0  0  0
 56 69  2  0  0  0
 57 58  2  0  0  0
 57130  1  0  0  0
 58131  1  0  0  0
 59 60  1  0  0  0
 59 61  1  0  0  0
 59 62  1  0  0  0
 60132  1  0  0  0
 60133  1  0  0  0
 60134  1  0  0  0
 61135  1  0  0  0
 61136  1  0  0  0
 61137  1  0  0  0
 62138  1  0  0  0
 62139  1  0  0  0
 62140  1  0  0  0
 63 65  1  0  0  0
 63141  1  0  0  0
 63142  1  0  0  0
 63143  1  0  0  0
 64144  1  0  0  0
 65145  1  0  0  0
 68 80  1  0  0  0
 71 73  2  0  0  0
 71 76  1  0  0  0
 71146  1  0  0  0
 72 74  1  0  0  0
 72 75  2  0  0  0
 72147  1  0  0  0
 73 75  1  0  0  0
 73 81  1  0  0  0
 74 76  2  0  0  0
 74 82  1  0  0  0
 75 85  1  0  0  0
 76 86  1  0  0  0
 77 78  1  0  0  0
 77 79  1  0  0  0
 77 83  2  0  0  0
 78 81  1  0  0  0
 78 84  2  0  0  0
 79 80  1  0  0  0
 79148  1  0  0  0
 79149  1  0  0  0
 80150  1  0  0  0
 80151  1  0  0  0
 81152  1  0  0  0
 82153  1  0  0  0
M  ISO  4   1 100  68 101  80 101  82 100
M  END
> <chiral flag>
0

> <version>
0

> <s_m_source_file>
/data/baiqing/PycharmProjects/Reinvent-master-3.2/result/LINK_invent/BTK/process_docking_weight1_custom_product_contain_oxygen_bond_distance_aromatic_linkinvent_7_9_3/rearranged_h_0177.sdf

> <i_m_source_file_index>
47

> <r_mmod_Potential_Energy-OPLS-2005>
-124.923904418945

> <r_mmod_Stretch_Energy-OPLS-2005>
36.9503364562988

> <r_mmod_Bend_Energy-OPLS-2005>
107.900871276855

> <r_mmod_Torsional_Energy-OPLS-2005>
240.543563842773

> <r_mmod_Improper_Torsional_Energy-OPLS-2005>
3.11668539047241

> <r_mmod_Van_der_Waal_Energy-OPLS-2005>
161.754653930664

> <r_mmod_Electrostatic_Energy-OPLS-2005>
-453.028259277344

> <r_mmod_Solvation_Energy-OPLS-2005>
-231.46484375

> <b_mmod_Minimization_Converged-OPLS-2005>
0

> <r_mmod_RMS_Derivative-OPLS-2005>
1.59407246112823

$$$$
47
                    3D
 Structure written by MMmdl.
166174  0  0  1  0            999 V2000
  -30.6727  -14.5476   20.5232 C   0  0  0  0  0  0
  -30.4322  -12.3426   19.4288 C   0  0  0  0  0  0
  -29.4995  -12.4873   18.2070 C   0  0  0  0  0  0
  -28.0239  -12.3383   18.6251 C   0  0  0  0  0  0
  -27.6557  -13.2029   19.8597 C   0  0  2  0  0  0
  -28.7009  -13.0371   20.9857 C   0  0  0  0  0  0
  -25.2574  -13.8124   20.5658 C   0  0  0  0  0  0
  -24.1824  -13.0420   20.9190 C   0  0  0  0  0  0
  -24.6376  -11.6888   20.8714 C   0  0  0  0  0  0
  -23.9029  -10.4277   21.0387 C   0  0  0  0  0  0
  -24.3580   -9.4192   21.9161 C   0  0  0  0  0  0
  -23.6273   -8.2225   22.0725 C   0  0  0  0  0  0
  -22.4253   -8.0254   21.3530 C   0  0  0  0  0  0
  -21.9879   -9.0226   20.4632 C   0  0  0  0  0  0
  -22.7203  -10.2106   20.3050 C   0  0  0  0  0  0
  -21.6847   -6.0718   22.5286 C   0  0  0  0  0  0
  -21.4019   -6.5620   23.8214 C   0  0  0  0  0  0
  -21.3665   -5.6766   24.9175 C   0  0  0  0  0  0
  -21.6042   -4.3036   24.7220 C   0  0  0  0  0  0
  -21.8824   -3.8129   23.4348 C   0  0  0  0  0  0
  -21.9200   -4.6955   22.3401 C   0  0  0  0  0  0
  -22.7861  -13.5229   21.1864 C   0  0  0  0  0  0
  -22.1664   -4.2143   21.0980 F   0  0  0  0  0  0
  -21.5621   -3.4526   25.7729 F   0  0  0  0  0  0
  -30.0212  -13.3522   20.4171 N   0  0  0  0  0  0
  -26.2988  -12.9286   20.3275 N   0  0  0  0  0  0
  -25.9285  -11.6457   20.5699 N   0  0  0  0  0  0
  -22.0495  -12.8236   22.0430 N   0  0  0  0  0  0
  -25.4260  -15.1839   20.4058 N   0  0  0  0  0  0
  -31.8436  -14.6914   20.1564 O   0  0  0  0  0  0
  -21.6627   -6.8856   21.4238 O   0  0  0  0  0  0
  -22.3571  -14.5574   20.6763 O   0  0  0  0  0  0
  -24.6191  -31.8691   23.2076 C   0  0  0  0  0  0
  -25.9086  -32.4808   23.8375 C   0  0  1  0  0  0
  -27.2366  -27.3830   20.0758 C   0  0  0  0  0  0
  -25.5939  -33.8596   24.2342 N   0  0  0  0  0  0
  -23.4066  -30.4931   21.5499 C   0  0  2  0  0  0
  -24.8542  -28.9574   20.1053 C   0  0  0  0  0  0
  -22.7438  -29.4683   22.5001 C   0  0  0  0  0  0
  -18.0287  -28.1302   22.8527 C   0  0  0  0  0  0
  -24.1507  -36.7293   23.2642 C   0  0  0  0  0  0
  -25.9441  -30.8082   21.3796 C   0  0  0  0  0  0
  -26.0167  -29.4414   20.7181 C   0  0  0  0  0  0
  -27.2021  -28.6564   20.7106 C   0  0  0  0  0  0
  -26.0545  -26.9470   19.4363 C   0  0  0  0  0  0
  -24.8756  -27.7119   19.4584 C   0  0  0  0  0  0
  -23.6112  -29.8226   20.1646 C   0  0  0  0  0  0
  -25.4120  -36.3097   24.0361 C   0  0  1  0  0  0
  -20.5886  -28.3623   23.1331 C   0  0  2  0  0  0
  -20.6790  -26.9364   22.5421 C   0  0  0  0  0  0
  -19.5745  -26.6356   21.5228 C   0  0  0  0  0  0
  -18.1927  -26.7855   22.1641 C   0  0  0  0  0  0
  -19.1537  -28.8785   23.2919 C   0  0  0  0  0  0
  -18.9458  -30.1391   23.8926 C   0  0  0  0  0  0
  -17.6460  -30.6539   24.0535 C   0  0  0  0  0  0
  -25.9064  -34.9470   23.5164 C   0  0  0  0  0  0
  -16.5354  -29.9027   23.6310 C   0  0  0  0  0  0
  -16.7277  -28.6416   23.0399 C   0  0  0  0  0  0
  -26.4493  -31.6550   25.0690 C   0  0  0  0  0  0
  -25.3718  -31.3734   26.1410 C   0  0  0  0  0  0
  -27.0330  -30.2957   24.6147 C   0  0  0  0  0  0
  -27.6072  -32.4267   25.7443 C   0  0  0  0  0  0
  -27.5593  -37.1797   24.8470 C   0  0  0  0  0  0
  -21.4177  -29.3014   22.3737 N   0  0  0  0  0  0
  -26.4305  -37.3778   23.9417 N   0  0  0  0  0  0
  -24.6737  -31.0726   22.1008 N   0  0  0  0  0  0
  -23.4226  -28.8260   23.3051 O   0  0  0  0  0  0
  -28.4025  -26.6169   20.1030 O   0  0  0  0  0  0
  -26.5624  -34.8918   22.4712 O   0  0  0  0  0  0
  -23.5385  -32.1511   23.7421 O   0  0  0  0  0  0
  -31.1227  -17.2072   22.1654 C   0  0  0  0  0  0
  -30.9113  -19.6098   21.7979 C   0  0  0  0  0  0
  -31.4426  -18.5210   22.5180 C   0  0  0  0  0  0
  -30.0457  -19.3216   20.7021 C   0  0  0  0  0  0
  -30.2630  -16.9710   21.0799 C   0  0  0  0  0  0
  -29.4808  -20.4174   19.7895 C   0  0  0  0  0  0
  -28.4300  -24.0593   20.3432 C   0  0  0  0  0  0
  -26.4153  -20.9866   18.6816 C   0  0  0  0  0  0
  -25.7639  -23.3200   19.0423 C   0  0  0  0  0  0
  -26.0904  -21.8257   21.0175 C   0  0  0  0  0  0
  -28.4962  -25.3238   19.4156 C   0  0  0  0  0  0
  -28.1683  -22.6261   19.7031 C   0  0  2  0  0  0
  -26.6443  -22.1958   19.6212 C   0  0  0  0  0  0
  -29.7360  -18.0223   20.3863 N   0  0  0  0  0  0
  -31.3030  -20.8929   22.2072 N   0  0  0  0  0  0
  -29.8846  -15.6112   20.8238 N   0  0  0  0  0  0
  -28.9693  -21.5425   20.3518 N   0  0  0  0  0  0
  -29.4460  -20.2310   18.5682 O   0  0  0  0  0  0
  -28.5998  -24.1959   21.5598 O   0  0  0  0  0  0
  -32.2858  -18.7494   23.5559 F   0  0  0  0  0  0
  -31.4728  -12.4552   19.1187 H   0  0  0  0  0  0
  -30.3555  -11.3422   19.8576 H   0  0  0  0  0  0
  -29.7477  -11.7382   17.4548 H   0  0  0  0  0  0
  -29.6481  -13.4575   17.7304 H   0  0  0  0  0  0
  -27.8490  -11.2844   18.8451 H   0  0  0  0  0  0
  -27.3709  -12.5876   17.7885 H   0  0  0  0  0  0
  -27.6861  -14.2408   19.5275 H   0  0  0  0  0  0
  -28.6926  -12.0145   21.3657 H   0  0  0  0  0  0
  -28.4553  -13.6709   21.8402 H   0  0  0  0  0  0
  -25.2710   -9.5704   22.4742 H   0  0  0  0  0  0
  -24.0001   -7.4619   22.7436 H   0  0  0  0  0  0
  -21.0799   -8.8749   19.8930 H   0  0  0  0  0  0
  -22.3640  -10.9647   19.6170 H   0  0  0  0  0  0
  -21.2021   -7.6131   23.9733 H   0  0  0  0  0  0
  -21.1475   -6.0481   25.9073 H   0  0  0  0  0  0
  -22.0609   -2.7603   23.2849 H   0  0  0  0  0  0
  -22.4083  -11.9883   22.4807 H   0  0  0  0  0  0
  -21.1131  -13.1284   22.2648 H   0  0  0  0  0  0
  -24.6478  -15.8249   20.5086 H   0  0  0  0  0  0
  -26.2576  -15.6313   20.0443 H   0  0  0  0  0  0
  -26.7126  -32.5518   23.1101 H   0  0  0  0  0  0
  -25.0032  -33.9726   25.0459 H   0  0  0  0  0  0
  -22.6930  -31.3089   21.4158 H   0  0  0  0  0  0
  -23.3787  -35.9609   23.3309 H   0  0  0  0  0  0
  -24.3622  -36.8892   22.2059 H   0  0  0  0  0  0
  -23.7248  -37.6499   23.6638 H   0  0  0  0  0  0
  -26.0791  -31.5825   20.6221 H   0  0  0  0  0  0
  -26.8216  -30.8465   22.0141 H   0  0  0  0  0  0
  -28.0967  -29.0205   21.1962 H   0  0  0  0  0  0
  -26.0124  -26.0248   18.8873 H   0  0  0  0  0  0
  -23.9938  -27.3458   18.9495 H   0  0  0  0  0  0
  -23.6828  -30.5935   19.3956 H   0  0  0  0  0  0
  -22.7365  -29.2289   19.8909 H   0  0  0  0  0  0
  -25.1284  -36.1968   25.0858 H   0  0  0  0  0  0
  -20.9995  -28.3173   24.1441 H   0  0  0  0  0  0
  -20.5717  -26.2233   23.3604 H   0  0  0  0  0  0
  -21.6659  -26.7407   22.1199 H   0  0  0  0  0  0
  -19.6917  -25.6294   21.1199 H   0  0  0  0  0  0
  -19.6629  -27.3212   20.6787 H   0  0  0  0  0  0
  -17.4214  -26.6652   21.4015 H   0  0  0  0  0  0
  -18.0282  -25.9934   22.8963 H   0  0  0  0  0  0
  -19.7942  -30.7188   24.2323 H   0  0  0  0  0  0
  -17.5015  -31.6227   24.5100 H   0  0  0  0  0  0
  -15.5354  -30.2930   23.7604 H   0  0  0  0  0  0
  -15.8679  -28.0700   22.7167 H   0  0  0  0  0  0
  -24.5827  -30.7161   25.7747 H   0  0  0  0  0  0
  -24.8974  -32.2927   26.4843 H   0  0  0  0  0  0
  -25.7973  -30.8871   27.0186 H   0  0  0  0  0  0
  -26.2898  -29.6699   24.1184 H   0  0  0  0  0  0
  -27.4047  -29.7195   25.4640 H   0  0  0  0  0  0
  -27.8765  -30.4240   23.9353 H   0  0  0  0  0  0
  -27.2695  -33.3558   26.2049 H   0  0  0  0  0  0
  -28.3841  -32.6848   25.0230 H   0  0  0  0  0  0
  -28.0777  -31.8371   26.5325 H   0  0  0  0  0  0
  -28.2624  -38.0083   24.7519 H   0  0  0  0  0  0
  -28.1057  -36.2615   24.6263 H   0  0  0  0  0  0
  -27.2312  -37.1430   25.8871 H   0  0  0  0  0  0
  -20.9329  -29.8680   21.6919 H   0  0  0  0  0  0
  -26.0212  -38.2879   24.1322 H   0  0  0  0  0  0
  -31.5300  -16.3921   22.7455 H   0  0  0  0  0  0
  -25.3541  -20.7520   18.5882 H   0  0  0  0  0  0
  -26.8828  -20.0684   19.0324 H   0  0  0  0  0  0
  -26.7801  -21.1880   17.6735 H   0  0  0  0  0  0
  -24.7614  -22.9600   18.8069 H   0  0  0  0  0  0
  -26.1789  -23.7243   18.1166 H   0  0  0  0  0  0
  -25.6365  -24.1285   19.7600 H   0  0  0  0  0  0
  -25.0505  -21.4987   20.9613 H   0  0  0  0  0  0
  -26.1286  -22.6742   21.7009 H   0  0  0  0  0  0
  -26.6484  -21.0092   21.4771 H   0  0  0  0  0  0
  -27.8157  -25.2431   18.5733 H   0  0  0  0  0  0
  -29.4856  -25.2931   18.9590 H   0  0  0  0  0  0
  -28.5321  -22.7015   18.6775 H   0  0  0  0  0  0
  -32.0434  -20.8917   22.9045 H   0  0  0  0  0  0
  -31.4915  -21.5892   21.4930 H   0  0  0  0  0  0
  -28.8994  -15.4139   20.8834 H   0  0  0  0  0  0
  -29.1141  -21.6316   21.3486 H   0  0  0  0  0  0
  1 25  1  0  0  0
  1 30  2  0  0  0
  1 86  1  0  0  0
  2  3  1  0  0  0
  2 25  1  0  0  0
  2 91  1  0  0  0
  2 92  1  0  0  0
  3  4  1  0  0  0
  3 93  1  0  0  0
  3 94  1  0  0  0
  4  5  1  0  0  0
  4 95  1  0  0  0
  4 96  1  0  0  0
  5  6  1  0  0  0
  5 26  1  0  0  0
  5 97  1  0  0  0
  6 25  1  0  0  0
  6 98  1  0  0  0
  6 99  1  0  0  0
  7  8  2  0  0  0
  7 26  1  0  0  0
  7 29  1  0  0  0
  8  9  1  0  0  0
  8 22  1  0  0  0
  9 10  1  0  0  0
  9 27  2  0  0  0
 10 11  2  0  0  0
 10 15  1  0  0  0
 11 12  1  0  0  0
 11100  1  0  0  0
 12 13  2  0  0  0
 12101  1  0  0  0
 13 14  1  0  0  0
 13 31  1  0  0  0
 14 15  2  0  0  0
 14102  1  0  0  0
 15103  1  0  0  0
 16 17  2  0  0  0
 16 21  1  0  0  0
 16 31  1  0  0  0
 17 18  1  0  0  0
 17104  1  0  0  0
 18 19  2  0  0  0
 18105  1  0  0  0
 19 20  1  0  0  0
 19 24  1  0  0  0
 20 21  2  0  0  0
 20106  1  0  0  0
 21 23  1  0  0  0
 22 28  1  0  0  0
 22 32  2  0  0  0
 26 27  1  0  0  0
 28107  1  0  0  0
 28108  1  0  0  0
 29109  1  0  0  0
 29110  1  0  0  0
 33 34  1  0  0  0
 33 66  1  0  0  0
 33 70  2  0  0  0
 34 36  1  0  0  0
 34 59  1  0  0  0
 34111  1  0  0  0
 35 44  2  0  0  0
 35 45  1  0  0  0
 35 68  1  0  0  0
 36 56  1  0  0  0
 36112  1  0  0  0
 37 39  1  0  0  0
 37 47  1  0  0  0
 37 66  1  0  0  0
 37113  1  0  0  0
 38 43  2  0  0  0
 38 46  1  0  0  0
 38 47  1  0  0  0
 39 64  1  0  0  0
 39 67  2  0  0  0
 40 52  1  0  0  0
 40 53  2  0  0  0
 40 58  1  0  0  0
 41114  1  0  0  0
 41115  1  0  0  0
 41116  1  0  0  0
 41 48  1  0  0  0
 42 43  1  0  0  0
 42 66  1  0  0  0
 42117  1  0  0  0
 42118  1  0  0  0
 43 44  1  0  0  0
 44119  1  0  0  0
 45 46  2  0  0  0
 45120  1  0  0  0
 46121  1  0  0  0
 47122  1  0  0  0
 47123  1  0  0  0
 48 56  1  0  0  0
 48 65  1  0  0  0
 48124  1  0  0  0
 49 50  1  0  0  0
 49 53  1  0  0  0
 49 64  1  0  0  0
 49125  1  0  0  0
 50 51  1  0  0  0
 50126  1  0  0  0
 50127  1  0  0  0
 51 52  1  0  0  0
 51128  1  0  0  0
 51129  1  0  0  0
 52130  1  0  0  0
 52131  1  0  0  0
 53 54  1  0  0  0
 54 55  2  0  0  0
 54132  1  0  0  0
 55 57  1  0  0  0
 55133  1  0  0  0
 56 69  2  0  0  0
 57 58  2  0  0  0
 57134  1  0  0  0
 58135  1  0  0  0
 59 60  1  0  0  0
 59 61  1  0  0  0
 59 62  1  0  0  0
 60136  1  0  0  0
 60137  1  0  0  0
 60138  1  0  0  0
 61139  1  0  0  0
 61140  1  0  0  0
 61141  1  0  0  0
 62142  1  0  0  0
 62143  1  0  0  0
 62144  1  0  0  0
 63 65  1  0  0  0
 63145  1  0  0  0
 63146  1  0  0  0
 63147  1  0  0  0
 64148  1  0  0  0
 65149  1  0  0  0
 68 81  1  0  0  0
 71 73  2  0  0  0
 71 75  1  0  0  0
 71150  1  0  0  0
 72 73  1  0  0  0
 72 74  2  0  0  0
 72 85  1  0  0  0
 73 90  1  0  0  0
 74 76  1  0  0  0
 74 84  1  0  0  0
 75 84  2  0  0  0
 75 86  1  0  0  0
 76 87  1  0  0  0
 76 88  2  0  0  0
 77 81  1  0  0  0
 77 82  1  0  0  0
 77 89  2  0  0  0
 78151  1  0  0  0
 78152  1  0  0  0
 78153  1  0  0  0
 78 83  1  0  0  0
 79 83  1  0  0  0
 79154  1  0  0  0
 79155  1  0  0  0
 79156  1  0  0  0
 80 83  1  0  0  0
 80157  1  0  0  0
 80158  1  0  0  0
 80159  1  0  0  0
 81160  1  0  0  0
 81161  1  0  0  0
 82 83  1  0  0  0
 82 87  1  0  0  0
 82162  1  0  0  0
 85163  1  0  0  0
 85164  1  0  0  0
 86165  1  0  0  0
 87166  1  0  0  0
M  ISO  4   1 100  68 101  81 101  86 100
M  END
> <chiral flag>
0

> <version>
0

> <s_m_source_file>
/data/baiqing/PycharmProjects/Reinvent-master-3.2/result/LINK_invent/BTK/process_docking_weight1_custom_product_contain_oxygen_bond_distance_aromatic_linkinvent_7_9_3/rearranged_h_0177.sdf

> <i_m_source_file_index>
48

> <r_mmod_Potential_Energy-OPLS-2005>
-75.4399032592773

> <r_mmod_Stretch_Energy-OPLS-2005>
65.642951965332

> <r_mmod_Bend_Energy-OPLS-2005>
135.326263427734

> <r_mmod_Torsional_Energy-OPLS-2005>
239.044540405273

> <r_mmod_Improper_Torsional_Energy-OPLS-2005>
10.9313478469849

> <r_mmod_Van_der_Waal_Energy-OPLS-2005>
158.011123657227

> <r_mmod_Electrostatic_Energy-OPLS-2005>
-464.220153808594

> <r_mmod_Solvation_Energy-OPLS-2005>
-246.040069580078

> <b_mmod_Minimization_Converged-OPLS-2005>
0

> <r_mmod_RMS_Derivative-OPLS-2005>
3.9992299079895

$$$$
48
                    3D
 Structure written by MMmdl.
152160  0  0  1  0            999 V2000
  -30.6714  -14.5461   20.5231 C   0  0  0  0  0  0
  -30.4277  -12.3371   19.4444 C   0  0  0  0  0  0
  -29.5049  -12.5018   18.2180 C   0  0  0  0  0  0
  -28.0250  -12.3582   18.6260 C   0  0  0  0  0  0
  -27.6586  -13.2131   19.8696 C   0  0  2  0  0  0
  -28.7006  -13.0335   20.9979 C   0  0  0  0  0  0
  -25.2582  -13.8166   20.5685 C   0  0  0  0  0  0
  -24.1836  -13.0438   20.9185 C   0  0  0  0  0  0
  -24.6397  -11.6907   20.8729 C   0  0  0  0  0  0
  -23.9061  -10.4292   21.0398 C   0  0  0  0  0  0
  -24.3615   -9.4213   21.9177 C   0  0  0  0  0  0
  -23.6291   -8.2248   22.0752 C   0  0  0  0  0  0
  -22.4271   -8.0286   21.3547 C   0  0  0  0  0  0
  -21.9910   -9.0259   20.4645 C   0  0  0  0  0  0
  -22.7237  -10.2133   20.3047 C   0  0  0  0  0  0
  -21.6853   -6.0738   22.5282 C   0  0  0  0  0  0
  -21.4013   -6.5636   23.8216 C   0  0  0  0  0  0
  -21.3649   -5.6790   24.9176 C   0  0  0  0  0  0
  -21.6038   -4.3054   24.7227 C   0  0  0  0  0  0
  -21.8825   -3.8149   23.4348 C   0  0  0  0  0  0
  -21.9198   -4.6968   22.3410 C   0  0  0  0  0  0
  -22.7856  -13.5239   21.1848 C   0  0  0  0  0  0
  -22.1666   -4.2158   21.0983 F   0  0  0  0  0  0
  -21.5624   -3.4538   25.7733 F   0  0  0  0  0  0
  -30.0261  -13.3457   20.4409 N   0  0  0  0  0  0
  -26.3011  -12.9343   20.3335 N   0  0  0  0  0  0
  -25.9321  -11.6497   20.5741 N   0  0  0  0  0  0
  -22.0494  -12.8232   22.0395 N   0  0  0  0  0  0
  -25.4297  -15.1892   20.4100 N   0  0  0  0  0  0
  -31.8203  -14.6984   20.0985 O   0  0  0  0  0  0
  -21.6635   -6.8882   21.4242 O   0  0  0  0  0  0
  -22.3545  -14.5547   20.6697 O   0  0  0  0  0  0
  -24.6198  -31.8639   23.2072 C   0  0  0  0  0  0
  -25.9076  -32.4796   23.8379 C   0  0  1  0  0  0
  -27.2297  -27.3894   20.1129 C   0  0  0  0  0  0
  -25.5915  -33.8590   24.2313 N   0  0  0  0  0  0
  -23.4108  -30.4879   21.5478 C   0  0  2  0  0  0
  -24.8601  -28.9512   20.1110 C   0  0  0  0  0  0
  -22.7447  -29.4638   22.4961 C   0  0  0  0  0  0
  -18.0279  -28.1380   22.8493 C   0  0  0  0  0  0
  -24.1473  -36.7278   23.2641 C   0  0  0  0  0  0
  -25.9448  -30.8177   21.3675 C   0  0  0  0  0  0
  -26.0236  -29.4497   20.7121 C   0  0  0  0  0  0
  -27.2153  -28.6790   20.7058 C   0  0  0  0  0  0
  -26.0524  -26.9225   19.4914 C   0  0  0  0  0  0
  -24.8721  -27.6896   19.4931 C   0  0  0  0  0  0
  -23.6237  -29.8229   20.1620 C   0  0  0  0  0  0
  -25.4097  -36.3085   24.0340 C   0  0  1  0  0  0
  -20.5880  -28.3668   23.1304 C   0  0  2  0  0  0
  -20.6765  -26.9394   22.5422 C   0  0  0  0  0  0
  -19.5744  -26.6389   21.5212 C   0  0  0  0  0  0
  -18.1921  -26.7931   22.1617 C   0  0  0  0  0  0
  -19.1534  -28.8839   23.2897 C   0  0  0  0  0  0
  -18.9468  -30.1449   23.8905 C   0  0  0  0  0  0
  -17.6463  -30.6579   24.0571 C   0  0  0  0  0  0
  -25.9033  -34.9456   23.5122 C   0  0  0  0  0  0
  -16.5354  -29.9080   23.6337 C   0  0  0  0  0  0
  -16.7270  -28.6502   23.0349 C   0  0  0  0  0  0
  -26.4481  -31.6574   25.0715 C   0  0  0  0  0  0
  -25.3746  -31.3704   26.1468 C   0  0  0  0  0  0
  -27.0304  -30.3007   24.6112 C   0  0  0  0  0  0
  -27.6072  -32.4280   25.7474 C   0  0  0  0  0  0
  -27.5565  -37.1790   24.8468 C   0  0  0  0  0  0
  -21.4168  -29.3022   22.3696 N   0  0  0  0  0  0
  -26.4272  -37.3781   23.9422 N   0  0  0  0  0  0
  -24.6769  -31.0716   22.0990 N   0  0  0  0  0  0
  -23.4200  -28.8177   23.3018 O   0  0  0  0  0  0
  -28.3447  -26.5670   20.1431 O   0  0  0  0  0  0
  -26.5598  -34.8913   22.4685 O   0  0  0  0  0  0
  -23.5383  -32.1403   23.7446 O   0  0  0  0  0  0
  -31.0940  -17.6257   19.9851 C   0  0  0  0  0  0
  -30.1526  -16.9342   20.7152 C   0  0  0  0  0  0
  -29.7311  -19.1169   20.8188 C   0  0  0  0  0  0
  -29.0000  -20.3687   21.2983 C   0  0  0  0  0  0
  -28.9719  -24.1061   20.4657 C   0  0  0  0  0  0
  -28.1319  -25.3465   20.9119 C   0  0  0  0  0  0
  -29.0656  -22.8931   21.4641 C   0  0  2  0  0  0
  -29.9884  -23.1866   22.6760 C   0  0  0  0  0  0
  -30.8208  -18.9950   20.0537 N   0  0  0  0  0  0
  -29.9281  -15.5989   20.9545 N   0  0  0  0  0  0
  -29.4362  -21.5747   20.8567 N   0  0  0  0  0  0
  -28.0633  -20.2691   22.0965 O   0  0  0  0  0  0
  -29.5093  -24.0903   19.3514 O   0  0  0  0  0  0
  -29.2878  -17.8826   21.2420 O   0  0  0  0  0  0
  -29.9752  -22.1786   23.5499 F   0  0  0  0  0  0
  -29.6103  -24.2859   23.3269 F   0  0  0  0  0  0
  -31.2432  -23.3655   22.2604 F   0  0  0  0  0  0
  -31.4736  -12.4356   19.1472 H   0  0  0  0  0  0
  -30.3309  -11.3348   19.8652 H   0  0  0  0  0  0
  -29.7566  -11.7632   17.4557 H   0  0  0  0  0  0
  -29.6707  -13.4790   17.7617 H   0  0  0  0  0  0
  -27.8425  -11.3035   18.8375 H   0  0  0  0  0  0
  -27.3782  -12.6186   17.7874 H   0  0  0  0  0  0
  -27.6909  -14.2549   19.5502 H   0  0  0  0  0  0
  -28.6875  -12.0071   21.3685 H   0  0  0  0  0  0
  -28.4568  -13.6606   21.8571 H   0  0  0  0  0  0
  -25.2764   -9.5692   22.4747 H   0  0  0  0  0  0
  -24.0009   -7.4638   22.7465 H   0  0  0  0  0  0
  -21.0850   -8.8780   19.8941 H   0  0  0  0  0  0
  -22.3710  -10.9673   19.6148 H   0  0  0  0  0  0
  -21.2002   -7.6145   23.9718 H   0  0  0  0  0  0
  -21.1453   -6.0516   25.9077 H   0  0  0  0  0  0
  -22.0610   -2.7613   23.2848 H   0  0  0  0  0  0
  -22.4090  -11.9891   22.4791 H   0  0  0  0  0  0
  -21.1100  -13.1255   22.2571 H   0  0  0  0  0  0
  -24.6644  -15.8453   20.5212 H   0  0  0  0  0  0
  -26.2805  -15.6284   20.0828 H   0  0  0  0  0  0
  -26.7145  -32.5497   23.1135 H   0  0  0  0  0  0
  -25.0079  -33.9739   25.0472 H   0  0  0  0  0  0
  -22.7013  -31.3063   21.4082 H   0  0  0  0  0  0
  -23.3745  -35.9600   23.3307 H   0  0  0  0  0  0
  -24.3577  -36.8889   22.2058 H   0  0  0  0  0  0
  -23.7202  -37.6472   23.6658 H   0  0  0  0  0  0
  -26.0652  -31.5844   20.6007 H   0  0  0  0  0  0
  -26.8296  -30.8695   21.9904 H   0  0  0  0  0  0
  -28.1102  -29.0564   21.1810 H   0  0  0  0  0  0
  -26.0419  -25.9522   19.0147 H   0  0  0  0  0  0
  -23.9802  -27.3017   19.0206 H   0  0  0  0  0  0
  -23.7387  -30.5986   19.4043 H   0  0  0  0  0  0
  -22.7462  -29.2475   19.8623 H   0  0  0  0  0  0
  -25.1268  -36.1939   25.0831 H   0  0  0  0  0  0
  -20.9980  -28.3236   24.1423 H   0  0  0  0  0  0
  -20.5659  -26.2267   23.3610 H   0  0  0  0  0  0
  -21.6636  -26.7426   22.1218 H   0  0  0  0  0  0
  -19.6897  -25.6304   21.1229 H   0  0  0  0  0  0
  -19.6684  -27.3211   20.6751 H   0  0  0  0  0  0
  -17.4196  -26.6698   21.4010 H   0  0  0  0  0  0
  -18.0306  -26.0068   22.9004 H   0  0  0  0  0  0
  -19.7941  -30.7268   24.2267 H   0  0  0  0  0  0
  -17.5020  -31.6257   24.5179 H   0  0  0  0  0  0
  -15.5354  -30.2979   23.7662 H   0  0  0  0  0  0
  -15.8669  -28.0823   22.7055 H   0  0  0  0  0  0
  -24.5898  -30.7068   25.7809 H   0  0  0  0  0  0
  -24.8964  -32.2873   26.4928 H   0  0  0  0  0  0
  -25.8096  -30.8856   27.0215 H   0  0  0  0  0  0
  -26.2836  -29.6765   24.1186 H   0  0  0  0  0  0
  -27.4081  -29.7247   25.4568 H   0  0  0  0  0  0
  -27.8676  -30.4307   23.9252 H   0  0  0  0  0  0
  -27.2716  -33.3593   26.2043 H   0  0  0  0  0  0
  -28.3883  -32.6798   25.0291 H   0  0  0  0  0  0
  -28.0723  -31.8394   26.5389 H   0  0  0  0  0  0
  -28.2595  -38.0075   24.7514 H   0  0  0  0  0  0
  -28.1041  -36.2610   24.6283 H   0  0  0  0  0  0
  -27.2297  -37.1442   25.8876 H   0  0  0  0  0  0
  -20.9336  -29.8722   21.6893 H   0  0  0  0  0  0
  -26.0152  -38.2849   24.1452 H   0  0  0  0  0  0
  -31.9286  -17.2492   19.4090 H   0  0  0  0  0  0
  -28.3431  -25.5831   21.9522 H   0  0  0  0  0  0
  -27.0854  -25.0428   20.8860 H   0  0  0  0  0  0
  -28.0610  -22.7839   21.8736 H   0  0  0  0  0  0
  -29.0374  -15.3617   21.3628 H   0  0  0  0  0  0
  -30.2032  -21.5655   20.1986 H   0  0  0  0  0  0
  1 25  1  0  0  0
  1 30  2  0  0  0
  1 80  1  0  0  0
  2  3  1  0  0  0
  2 25  1  0  0  0
  2 88  1  0  0  0
  2 89  1  0  0  0
  3  4  1  0  0  0
  3 90  1  0  0  0
  3 91  1  0  0  0
  4  5  1  0  0  0
  4 92  1  0  0  0
  4 93  1  0  0  0
  5  6  1  0  0  0
  5 26  1  0  0  0
  5 94  1  0  0  0
  6 25  1  0  0  0
  6 95  1  0  0  0
  6 96  1  0  0  0
  7  8  2  0  0  0
  7 26  1  0  0  0
  7 29  1  0  0  0
  8  9  1  0  0  0
  8 22  1  0  0  0
  9 10  1  0  0  0
  9 27  2  0  0  0
 10 11  2  0  0  0
 10 15  1  0  0  0
 11 12  1  0  0  0
 11 97  1  0  0  0
 12 13  2  0  0  0
 12 98  1  0  0  0
 13 14  1  0  0  0
 13 31  1  0  0  0
 14 15  2  0  0  0
 14 99  1  0  0  0
 15100  1  0  0  0
 16 17  2  0  0  0
 16 21  1  0  0  0
 16 31  1  0  0  0
 17 18  1  0  0  0
 17101  1  0  0  0
 18 19  2  0  0  0
 18102  1  0  0  0
 19 20  1  0  0  0
 19 24  1  0  0  0
 20 21  2  0  0  0
 20103  1  0  0  0
 21 23  1  0  0  0
 22 28  1  0  0  0
 22 32  2  0  0  0
 26 27  1  0  0  0
 28104  1  0  0  0
 28105  1  0  0  0
 29106  1  0  0  0
 29107  1  0  0  0
 33 34  1  0  0  0
 33 66  1  0  0  0
 33 70  2  0  0  0
 34 36  1  0  0  0
 34 59  1  0  0  0
 34108  1  0  0  0
 35 44  2  0  0  0
 35 45  1  0  0  0
 35 68  1  0  0  0
 36 56  1  0  0  0
 36109  1  0  0  0
 37 39  1  0  0  0
 37 47  1  0  0  0
 37 66  1  0  0  0
 37110  1  0  0  0
 38 43  2  0  0  0
 38 46  1  0  0  0
 38 47  1  0  0  0
 39 64  1  0  0  0
 39 67  2  0  0  0
 40 52  1  0  0  0
 40 53  2  0  0  0
 40 58  1  0  0  0
 41111  1  0  0  0
 41112  1  0  0  0
 41113  1  0  0  0
 41 48  1  0  0  0
 42 43  1  0  0  0
 42 66  1  0  0  0
 42114  1  0  0  0
 42115  1  0  0  0
 43 44  1  0  0  0
 44116  1  0  0  0
 45 46  2  0  0  0
 45117  1  0  0  0
 46118  1  0  0  0
 47119  1  0  0  0
 47120  1  0  0  0
 48 56  1  0  0  0
 48 65  1  0  0  0
 48121  1  0  0  0
 49 50  1  0  0  0
 49 53  1  0  0  0
 49 64  1  0  0  0
 49122  1  0  0  0
 50 51  1  0  0  0
 50123  1  0  0  0
 50124  1  0  0  0
 51 52  1  0  0  0
 51125  1  0  0  0
 51126  1  0  0  0
 52127  1  0  0  0
 52128  1  0  0  0
 53 54  1  0  0  0
 54 55  2  0  0  0
 54129  1  0  0  0
 55 57  1  0  0  0
 55130  1  0  0  0
 56 69  2  0  0  0
 57 58  2  0  0  0
 57131  1  0  0  0
 58132  1  0  0  0
 59 60  1  0  0  0
 59 61  1  0  0  0
 59 62  1  0  0  0
 60133  1  0  0  0
 60134  1  0  0  0
 60135  1  0  0  0
 61136  1  0  0  0
 61137  1  0  0  0
 61138  1  0  0  0
 62139  1  0  0  0
 62140  1  0  0  0
 62141  1  0  0  0
 63 65  1  0  0  0
 63142  1  0  0  0
 63143  1  0  0  0
 63144  1  0  0  0
 64145  1  0  0  0
 65146  1  0  0  0
 68 76  1  0  0  0
 71 72  2  0  0  0
 71 79  1  0  0  0
 71147  1  0  0  0
 72 80  1  0  0  0
 72 84  1  0  0  0
 73 74  1  0  0  0
 73 79  2  0  0  0
 73 84  1  0  0  0
 74 81  1  0  0  0
 74 82  2  0  0  0
 75 76  1  0  0  0
 75 77  1  0  0  0
 75 83  2  0  0  0
 76148  1  0  0  0
 76149  1  0  0  0
 77 78  1  0  0  0
 77 81  1  0  0  0
 77150  1  0  0  0
 78 85  1  0  0  0
 78 86  1  0  0  0
 78 87  1  0  0  0
 80151  1  0  0  0
 81152  1  0  0  0
M  ISO  4   1 100  68 101  76 101  80 100
M  END
> <chiral flag>
0

> <version>
0

> <s_m_source_file>
/data/baiqing/PycharmProjects/Reinvent-master-3.2/result/LINK_invent/BTK/process_docking_weight1_custom_product_contain_oxygen_bond_distance_aromatic_linkinvent_7_9_3/rearranged_h_0177.sdf

> <i_m_source_file_index>
49

> <r_mmod_Potential_Energy-OPLS-2005>
-140.075897216797

> <r_mmod_Stretch_Energy-OPLS-2005>
53.3739395141602

> <r_mmod_Bend_Energy-OPLS-2005>
105.855171203613

> <r_mmod_Torsional_Energy-OPLS-2005>
236.893539428711

> <r_mmod_Improper_Torsional_Energy-OPLS-2005>
4.42984390258789

> <r_mmod_Van_der_Waal_Energy-OPLS-2005>
132.771987915039

> <r_mmod_Electrostatic_Energy-OPLS-2005>
-459.824096679688

> <r_mmod_Solvation_Energy-OPLS-2005>
-238.663543701172

> <b_mmod_Minimization_Converged-OPLS-2005>
0

> <r_mmod_RMS_Derivative-OPLS-2005>
1.30312633514404

$$$$
49
                    3D
 Structure written by MMmdl.
156164  0  0  1  0            999 V2000
  -30.6106  -14.6036   20.5664 C   0  0  0  0  0  0
  -30.4494  -12.3870   19.4351 C   0  0  0  0  0  0
  -29.5102  -12.5327   18.2159 C   0  0  0  0  0  0
  -28.0303  -12.3715   18.6222 C   0  0  0  0  0  0
  -27.6622  -13.2097   19.8753 C   0  0  2  0  0  0
  -28.7053  -12.9965   20.9954 C   0  0  0  0  0  0
  -25.2562  -13.8141   20.5576 C   0  0  0  0  0  0
  -24.1845  -13.0426   20.9172 C   0  0  0  0  0  0
  -24.6414  -11.6898   20.8739 C   0  0  0  0  0  0
  -23.9066  -10.4286   21.0410 C   0  0  0  0  0  0
  -24.3610   -9.4202   21.9190 C   0  0  0  0  0  0
  -23.6293   -8.2233   22.0758 C   0  0  0  0  0  0
  -22.4277   -8.0275   21.3540 C   0  0  0  0  0  0
  -21.9910   -9.0255   20.4647 C   0  0  0  0  0  0
  -22.7237  -10.2137   20.3063 C   0  0  0  0  0  0
  -21.6847   -6.0732   22.5278 C   0  0  0  0  0  0
  -21.4016   -6.5637   23.8213 C   0  0  0  0  0  0
  -21.3657   -5.6788   24.9175 C   0  0  0  0  0  0
  -21.6050   -4.3052   24.7224 C   0  0  0  0  0  0
  -21.8822   -3.8149   23.4341 C   0  0  0  0  0  0
  -21.9193   -4.6965   22.3399 C   0  0  0  0  0  0
  -22.7862  -13.5225   21.1829 C   0  0  0  0  0  0
  -22.1662   -4.2152   21.0979 F   0  0  0  0  0  0
  -21.5622   -3.4534   25.7737 F   0  0  0  0  0  0
  -30.0271  -13.3672   20.4545 N   0  0  0  0  0  0
  -26.3029  -12.9333   20.3336 N   0  0  0  0  0  0
  -25.9350  -11.6495   20.5772 N   0  0  0  0  0  0
  -22.0488  -12.8238   22.0392 N   0  0  0  0  0  0
  -25.4172  -15.1838   20.3788 N   0  0  0  0  0  0
  -31.7248  -14.8460   20.0893 O   0  0  0  0  0  0
  -21.6636   -6.8876   21.4240 O   0  0  0  0  0  0
  -22.3552  -14.5527   20.6673 O   0  0  0  0  0  0
  -24.6223  -31.8617   23.2039 C   0  0  0  0  0  0
  -25.9087  -32.4787   23.8361 C   0  0  1  0  0  0
  -27.2359  -27.3524   20.1279 C   0  0  0  0  0  0
  -25.5913  -33.8586   24.2299 N   0  0  0  0  0  0
  -23.4156  -30.4821   21.5462 C   0  0  2  0  0  0
  -24.8650  -28.9287   20.1248 C   0  0  0  0  0  0
  -22.7454  -29.4628   22.4967 C   0  0  0  0  0  0
  -18.0278  -28.1365   22.8487 C   0  0  0  0  0  0
  -24.1491  -36.7302   23.2641 C   0  0  0  0  0  0
  -25.9518  -30.8015   21.3706 C   0  0  0  0  0  0
  -26.0295  -29.4258   20.7250 C   0  0  0  0  0  0
  -27.2212  -28.6487   20.7164 C   0  0  0  0  0  0
  -26.0531  -26.8866   19.5199 C   0  0  0  0  0  0
  -24.8741  -27.6605   19.5180 C   0  0  0  0  0  0
  -23.6318  -29.8078   20.1652 C   0  0  0  0  0  0
  -25.4110  -36.3092   24.0336 C   0  0  1  0  0  0
  -20.5876  -28.3668   23.1294 C   0  0  2  0  0  0
  -20.6770  -26.9392   22.5417 C   0  0  0  0  0  0
  -19.5753  -26.6371   21.5208 C   0  0  0  0  0  0
  -18.1927  -26.7910   22.1613 C   0  0  0  0  0  0
  -19.1528  -28.8834   23.2887 C   0  0  0  0  0  0
  -18.9454  -30.1441   23.8897 C   0  0  0  0  0  0
  -17.6456  -30.6577   24.0552 C   0  0  0  0  0  0
  -25.9042  -34.9457   23.5117 C   0  0  0  0  0  0
  -16.5347  -29.9074   23.6325 C   0  0  0  0  0  0
  -16.7265  -28.6486   23.0352 C   0  0  0  0  0  0
  -26.4485  -31.6581   25.0717 C   0  0  0  0  0  0
  -25.3739  -31.3708   26.1460 C   0  0  0  0  0  0
  -27.0312  -30.3006   24.6148 C   0  0  0  0  0  0
  -27.6064  -32.4298   25.7478 C   0  0  0  0  0  0
  -27.5584  -37.1804   24.8464 C   0  0  0  0  0  0
  -21.4173  -29.3028   22.3697 N   0  0  0  0  0  0
  -26.4294  -37.3784   23.9407 N   0  0  0  0  0  0
  -24.6815  -31.0649   22.0974 N   0  0  0  0  0  0
  -23.4190  -28.8176   23.3044 O   0  0  0  0  0  0
  -28.3828  -26.5709   20.0352 O   0  0  0  0  0  0
  -26.5615  -34.8923   22.4686 O   0  0  0  0  0  0
  -23.5394  -32.1399   23.7386 O   0  0  0  0  0  0
  -30.3948  -17.9235   20.5405 C   0  0  0  0  0  0
  -29.6452  -19.1316   20.8471 C   0  0  0  0  0  0
  -29.6619  -16.9018   21.1138 C   0  0  0  0  0  0
  -30.1393  -20.5481   20.5188 C   0  0  0  0  0  0
  -28.3151  -24.0115   20.4359 C   0  0  0  0  0  0
  -27.5203  -16.8810   22.5175 C   0  0  0  0  0  0
  -28.5788  -25.4677   20.9763 C   0  0  0  0  0  0
  -29.5228  -23.0249   20.1529 C   0  0  2  0  0  0
  -30.0207  -23.2428   18.6988 C   0  0  0  0  0  0
  -28.5478  -18.8369   21.5401 N   0  0  0  0  0  0
  -28.5680  -17.4932   21.7214 N   0  0  0  0  0  0
  -29.8318  -15.5304   21.1897 N   0  0  0  0  0  0
  -29.2354  -21.5656   20.4212 N   0  0  0  0  0  0
  -31.3469  -20.7379   20.3688 O   0  0  0  0  0  0
  -27.1447  -23.6433   20.2820 O   0  0  0  0  0  0
  -31.1443  -22.5816   18.4256 F   0  0  0  0  0  0
  -30.2671  -24.5360   18.4825 F   0  0  0  0  0  0
  -29.0846  -22.8523   17.8311 F   0  0  0  0  0  0
  -31.4881  -12.5354   19.1323 H   0  0  0  0  0  0
  -30.4004  -11.3746   19.8398 H   0  0  0  0  0  0
  -29.7701  -11.8003   17.4508 H   0  0  0  0  0  0
  -29.6562  -13.5135   17.7604 H   0  0  0  0  0  0
  -27.8515  -11.3139   18.8200 H   0  0  0  0  0  0
  -27.3802  -12.6386   17.7883 H   0  0  0  0  0  0
  -27.7001  -14.2573   19.5754 H   0  0  0  0  0  0
  -28.7137  -11.9510   21.3081 H   0  0  0  0  0  0
  -28.4395  -13.5551   21.8927 H   0  0  0  0  0  0
  -25.2756   -9.5677   22.4759 H   0  0  0  0  0  0
  -24.0004   -7.4626   22.7478 H   0  0  0  0  0  0
  -21.0839   -8.8773   19.8957 H   0  0  0  0  0  0
  -22.3696  -10.9674   19.6166 H   0  0  0  0  0  0
  -21.2011   -7.6147   23.9725 H   0  0  0  0  0  0
  -21.1470   -6.0508   25.9078 H   0  0  0  0  0  0
  -22.0605   -2.7614   23.2837 H   0  0  0  0  0  0
  -22.4089  -11.9905   22.4802 H   0  0  0  0  0  0
  -21.1117  -13.1308   22.2593 H   0  0  0  0  0  0
  -24.6254  -15.8150   20.4341 H   0  0  0  0  0  0
  -26.2349  -15.6144   19.9671 H   0  0  0  0  0  0
  -26.7156  -32.5470   23.1110 H   0  0  0  0  0  0
  -25.0052  -33.9733   25.0439 H   0  0  0  0  0  0
  -22.7084  -31.3011   21.4005 H   0  0  0  0  0  0
  -23.3750  -35.9637   23.3302 H   0  0  0  0  0  0
  -24.3585  -36.8918   22.2054 H   0  0  0  0  0  0
  -23.7250  -37.6506   23.6661 H   0  0  0  0  0  0
  -26.0760  -31.5613   20.5974 H   0  0  0  0  0  0
  -26.8348  -30.8574   21.9956 H   0  0  0  0  0  0
  -28.1252  -29.0381   21.1633 H   0  0  0  0  0  0
  -26.0457  -25.9177   19.0404 H   0  0  0  0  0  0
  -23.9804  -27.2723   19.0483 H   0  0  0  0  0  0
  -23.7525  -30.5803   19.4042 H   0  0  0  0  0  0
  -22.7529  -29.2344   19.8648 H   0  0  0  0  0  0
  -25.1294  -36.1942   25.0827 H   0  0  0  0  0  0
  -20.9965  -28.3231   24.1419 H   0  0  0  0  0  0
  -20.5651  -26.2277   23.3609 H   0  0  0  0  0  0
  -21.6640  -26.7416   22.1223 H   0  0  0  0  0  0
  -19.6917  -25.6284   21.1236 H   0  0  0  0  0  0
  -19.6697  -27.3183   20.6735 H   0  0  0  0  0  0
  -17.4205  -26.6659   21.4011 H   0  0  0  0  0  0
  -18.0326  -26.0046   22.9002 H   0  0  0  0  0  0
  -19.7931  -30.7249   24.2268 H   0  0  0  0  0  0
  -17.5011  -31.6261   24.5142 H   0  0  0  0  0  0
  -15.5345  -30.2972   23.7651 H   0  0  0  0  0  0
  -15.8664  -28.0801   22.7071 H   0  0  0  0  0  0
  -24.5913  -30.7055   25.7797 H   0  0  0  0  0  0
  -24.8928  -32.2868   26.4899 H   0  0  0  0  0  0
  -25.8079  -30.8881   27.0227 H   0  0  0  0  0  0
  -26.2872  -29.6762   24.1192 H   0  0  0  0  0  0
  -27.4036  -29.7252   25.4631 H   0  0  0  0  0  0
  -27.8733  -30.4286   23.9343 H   0  0  0  0  0  0
  -27.2694  -33.3592   26.2078 H   0  0  0  0  0  0
  -28.3860  -32.6860   25.0295 H   0  0  0  0  0  0
  -28.0753  -31.8407   26.5369 H   0  0  0  0  0  0
  -28.2604  -38.0099   24.7502 H   0  0  0  0  0  0
  -28.1074  -36.2629   24.6293 H   0  0  0  0  0  0
  -27.2304  -37.1458   25.8869 H   0  0  0  0  0  0
  -20.9349  -29.8735   21.6899 H   0  0  0  0  0  0
  -26.0175  -38.2861   24.1402 H   0  0  0  0  0  0
  -31.3308  -17.8424   20.0051 H   0  0  0  0  0  0
  -27.3333  -15.8619   22.1821 H   0  0  0  0  0  0
  -26.5935  -17.4496   22.4338 H   0  0  0  0  0  0
  -27.8271  -16.8532   23.5632 H   0  0  0  0  0  0
  -29.6075  -25.5166   21.3340 H   0  0  0  0  0  0
  -27.9479  -25.6270   21.8513 H   0  0  0  0  0  0
  -30.3349  -23.3136   20.8205 H   0  0  0  0  0  0
  -29.0545  -15.0783   21.6426 H   0  0  0  0  0  0
  -28.2658  -21.3168   20.5574 H   0  0  0  0  0  0
  1 25  1  0  0  0
  1 30  2  0  0  0
  1 82  1  0  0  0
  2  3  1  0  0  0
  2 25  1  0  0  0
  2 89  1  0  0  0
  2 90  1  0  0  0
  3  4  1  0  0  0
  3 91  1  0  0  0
  3 92  1  0  0  0
  4  5  1  0  0  0
  4 93  1  0  0  0
  4 94  1  0  0  0
  5  6  1  0  0  0
  5 26  1  0  0  0
  5 95  1  0  0  0
  6 25  1  0  0  0
  6 96  1  0  0  0
  6 97  1  0  0  0
  7  8  2  0  0  0
  7 26  1  0  0  0
  7 29  1  0  0  0
  8  9  1  0  0  0
  8 22  1  0  0  0
  9 10  1  0  0  0
  9 27  2  0  0  0
 10 11  2  0  0  0
 10 15  1  0  0  0
 11 12  1  0  0  0
 11 98  1  0  0  0
 12 13  2  0  0  0
 12 99  1  0  0  0
 13 14  1  0  0  0
 13 31  1  0  0  0
 14 15  2  0  0  0
 14100  1  0  0  0
 15101  1  0  0  0
 16 17  2  0  0  0
 16 21  1  0  0  0
 16 31  1  0  0  0
 17 18  1  0  0  0
 17102  1  0  0  0
 18 19  2  0  0  0
 18103  1  0  0  0
 19 20  1  0  0  0
 19 24  1  0  0  0
 20 21  2  0  0  0
 20104  1  0  0  0
 21 23  1  0  0  0
 22 28  1  0  0  0
 22 32  2  0  0  0
 26 27  1  0  0  0
 28105  1  0  0  0
 28106  1  0  0  0
 29107  1  0  0  0
 29108  1  0  0  0
 33 34  1  0  0  0
 33 66  1  0  0  0
 33 70  2  0  0  0
 34 36  1  0  0  0
 34 59  1  0  0  0
 34109  1  0  0  0
 35 44  2  0  0  0
 35 45  1  0  0  0
 35 68  1  0  0  0
 36 56  1  0  0  0
 36110  1  0  0  0
 37 39  1  0  0  0
 37 47  1  0  0  0
 37 66  1  0  0  0
 37111  1  0  0  0
 38 43  2  0  0  0
 38 46  1  0  0  0
 38 47  1  0  0  0
 39 64  1  0  0  0
 39 67  2  0  0  0
 40 52  1  0  0  0
 40 53  2  0  0  0
 40 58  1  0  0  0
 41112  1  0  0  0
 41113  1  0  0  0
 41114  1  0  0  0
 41 48  1  0  0  0
 42 43  1  0  0  0
 42 66  1  0  0  0
 42115  1  0  0  0
 42116  1  0  0  0
 43 44  1  0  0  0
 44117  1  0  0  0
 45 46  2  0  0  0
 45118  1  0  0  0
 46119  1  0  0  0
 47120  1  0  0  0
 47121  1  0  0  0
 48 56  1  0  0  0
 48 65  1  0  0  0
 48122  1  0  0  0
 49 50  1  0  0  0
 49 53  1  0  0  0
 49 64  1  0  0  0
 49123  1  0  0  0
 50 51  1  0  0  0
 50124  1  0  0  0
 50125  1  0  0  0
 51 52  1  0  0  0
 51126  1  0  0  0
 51127  1  0  0  0
 52128  1  0  0  0
 52129  1  0  0  0
 53 54  1  0  0  0
 54 55  2  0  0  0
 54130  1  0  0  0
 55 57  1  0  0  0
 55131  1  0  0  0
 56 69  2  0  0  0
 57 58  2  0  0  0
 57132  1  0  0  0
 58133  1  0  0  0
 59 60  1  0  0  0
 59 61  1  0  0  0
 59 62  1  0  0  0
 60134  1  0  0  0
 60135  1  0  0  0
 60136  1  0  0  0
 61137  1  0  0  0
 61138  1  0  0  0
 61139  1  0  0  0
 62140  1  0  0  0
 62141  1  0  0  0
 62142  1  0  0  0
 63 65  1  0  0  0
 63143  1  0  0  0
 63144  1  0  0  0
 63145  1  0  0  0
 64146  1  0  0  0
 65147  1  0  0  0
 68 77  1  0  0  0
 71 72  1  0  0  0
 71 73  2  0  0  0
 71148  1  0  0  0
 72 74  1  0  0  0
 72 80  2  0  0  0
 73 81  1  0  0  0
 73 82  1  0  0  0
 74 83  1  0  0  0
 74 84  2  0  0  0
 75 77  1  0  0  0
 75 78  1  0  0  0
 75 85  2  0  0  0
 76 81  1  0  0  0
 76149  1  0  0  0
 76150  1  0  0  0
 76151  1  0  0  0
 77152  1  0  0  0
 77153  1  0  0  0
 78 79  1  0  0  0
 78 83  1  0  0  0
 78154  1  0  0  0
 79 86  1  0  0  0
 79 87  1  0  0  0
 79 88  1  0  0  0
 80 81  1  0  0  0
 82155  1  0  0  0
 83156  1  0  0  0
M  ISO  4   1 100  68 101  77 101  82 100
M  END
> <chiral flag>
0

> <version>
0

> <s_m_source_file>
/data/baiqing/PycharmProjects/Reinvent-master-3.2/result/LINK_invent/BTK/process_docking_weight1_custom_product_contain_oxygen_bond_distance_aromatic_linkinvent_7_9_3/rearranged_h_0177.sdf

> <i_m_source_file_index>
50

> <r_mmod_Potential_Energy-OPLS-2005>
-169.656265258789

> <r_mmod_Stretch_Energy-OPLS-2005>
65.8040466308594

> <r_mmod_Bend_Energy-OPLS-2005>
151.208923339844

> <r_mmod_Torsional_Energy-OPLS-2005>
256.940490722656

> <r_mmod_Improper_Torsional_Energy-OPLS-2005>
4.48776197433472

> <r_mmod_Van_der_Waal_Energy-OPLS-2005>
115.446464538574

> <r_mmod_Electrostatic_Energy-OPLS-2005>
-555.962463378906

> <r_mmod_Solvation_Energy-OPLS-2005>
-240.780746459961

> <b_mmod_Minimization_Converged-OPLS-2005>
0

> <r_mmod_RMS_Derivative-OPLS-2005>
1.41452050209045

$$$$
50
                    3D
 Structure written by MMmdl.
156164  0  0  1  0            999 V2000
  -30.6802  -14.5243   20.5209 C   0  0  0  0  0  0
  -30.4204  -12.3230   19.4368 C   0  0  0  0  0  0
  -29.4979  -12.4984   18.2122 C   0  0  0  0  0  0
  -28.0182  -12.3573   18.6217 C   0  0  0  0  0  0
  -27.6558  -13.2123   19.8663 C   0  0  2  0  0  0
  -28.6964  -13.0303   20.9939 C   0  0  0  0  0  0
  -25.2567  -13.8175   20.5677 C   0  0  0  0  0  0
  -24.1831  -13.0447   20.9194 C   0  0  0  0  0  0
  -24.6393  -11.6919   20.8749 C   0  0  0  0  0  0
  -23.9075  -10.4293   21.0411 C   0  0  0  0  0  0
  -24.3630   -9.4208   21.9185 C   0  0  0  0  0  0
  -23.6304   -8.2243   22.0752 C   0  0  0  0  0  0
  -22.4284   -8.0281   21.3545 C   0  0  0  0  0  0
  -21.9919   -9.0257   20.4649 C   0  0  0  0  0  0
  -22.7247  -10.2134   20.3058 C   0  0  0  0  0  0
  -21.6851   -6.0744   22.5288 C   0  0  0  0  0  0
  -21.4007   -6.5653   23.8225 C   0  0  0  0  0  0
  -21.3655   -5.6797   24.9182 C   0  0  0  0  0  0
  -21.6042   -4.3058   24.7228 C   0  0  0  0  0  0
  -21.8818   -3.8154   23.4352 C   0  0  0  0  0  0
  -21.9190   -4.6972   22.3411 C   0  0  0  0  0  0
  -22.7855  -13.5240   21.1856 C   0  0  0  0  0  0
  -22.1661   -4.2164   21.0989 F   0  0  0  0  0  0
  -21.5625   -3.4539   25.7736 F   0  0  0  0  0  0
  -30.0248  -13.3311   20.4369 N   0  0  0  0  0  0
  -26.2997  -12.9357   20.3323 N   0  0  0  0  0  0
  -25.9318  -11.6516   20.5766 N   0  0  0  0  0  0
  -22.0493  -12.8230   22.0410 N   0  0  0  0  0  0
  -25.4303  -15.1892   20.4075 N   0  0  0  0  0  0
  -31.8401  -14.6521   20.1153 O   0  0  0  0  0  0
  -21.6641   -6.8883   21.4243 O   0  0  0  0  0  0
  -22.3544  -14.5552   20.6713 O   0  0  0  0  0  0
  -24.6165  -31.8654   23.2074 C   0  0  0  0  0  0
  -25.9043  -32.4806   23.8381 C   0  0  1  0  0  0
  -27.2317  -27.4136   20.1070 C   0  0  0  0  0  0
  -25.5905  -33.8611   24.2322 N   0  0  0  0  0  0
  -23.4066  -30.4877   21.5472 C   0  0  2  0  0  0
  -24.8551  -28.9490   20.1146 C   0  0  0  0  0  0
  -22.7427  -29.4645   22.4972 C   0  0  0  0  0  0
  -18.0267  -28.1374   22.8483 C   0  0  0  0  0  0
  -24.1491  -36.7310   23.2644 C   0  0  0  0  0  0
  -25.9377  -30.8261   21.3618 C   0  0  0  0  0  0
  -26.0166  -29.4579   20.7108 C   0  0  0  0  0  0
  -27.2122  -28.6986   20.7007 C   0  0  0  0  0  0
  -26.0569  -26.9223   19.5023 C   0  0  0  0  0  0
  -24.8712  -27.6813   19.5054 C   0  0  0  0  0  0
  -23.6167  -29.8172   20.1632 C   0  0  0  0  0  0
  -25.4111  -36.3105   24.0349 C   0  0  1  0  0  0
  -20.5861  -28.3662   23.1316 C   0  0  2  0  0  0
  -20.6755  -26.9393   22.5428 C   0  0  0  0  0  0
  -19.5745  -26.6374   21.5211 C   0  0  0  0  0  0
  -18.1917  -26.7924   22.1608 C   0  0  0  0  0  0
  -19.1516  -28.8833   23.2894 C   0  0  0  0  0  0
  -18.9447  -30.1441   23.8900 C   0  0  0  0  0  0
  -17.6449  -30.6580   24.0562 C   0  0  0  0  0  0
  -25.9037  -34.9469   23.5128 C   0  0  0  0  0  0
  -16.5338  -29.9082   23.6332 C   0  0  0  0  0  0
  -16.7257  -28.6502   23.0344 C   0  0  0  0  0  0
  -26.4468  -31.6595   25.0716 C   0  0  0  0  0  0
  -25.3741  -31.3724   26.1478 C   0  0  0  0  0  0
  -27.0287  -30.3029   24.6099 C   0  0  0  0  0  0
  -27.6058  -32.4313   25.7463 C   0  0  0  0  0  0
  -27.5589  -37.1803   24.8459 C   0  0  0  0  0  0
  -21.4150  -29.3031   22.3723 N   0  0  0  0  0  0
  -26.4287  -37.3794   23.9419 N   0  0  0  0  0  0
  -24.6719  -31.0745   22.0972 N   0  0  0  0  0  0
  -23.4200  -28.8182   23.3006 O   0  0  0  0  0  0
  -28.3633  -26.6244   20.1147 O   0  0  0  0  0  0
  -26.5583  -34.8924   22.4679 O   0  0  0  0  0  0
  -23.5351  -32.1398   23.7465 O   0  0  0  0  0  0
  -30.2174  -19.4919   20.7440 C   0  0  0  0  0  0
  -31.1913  -18.8869   19.9718 C   0  0  0  0  0  0
  -30.1634  -16.9873   20.7455 C   0  0  0  0  0  0
  -30.0289  -20.9062   21.1946 C   0  0  0  0  0  0
  -27.0787  -22.6612   21.9387 C   0  0  0  0  0  0
  -28.5457  -24.1199   20.4221 C   0  0  0  0  0  0
  -26.6830  -23.3656   23.2322 C   0  0  0  0  0  0
  -28.2918  -25.5220   21.0502 C   0  0  0  0  0  0
  -28.4969  -22.8907   21.3900 C   0  0  2  0  0  0
  -31.1306  -17.4885   19.9653 N   0  0  0  0  0  0
  -32.2077  -19.5036   19.2365 N   0  0  0  0  0  0
  -29.9344  -15.5790   20.9356 N   0  0  0  0  0  0
  -28.9561  -21.6097   20.7861 N   0  0  0  0  0  0
  -30.8667  -21.4063   21.9474 O   0  0  0  0  0  0
  -26.2605  -21.9141   21.3915 O   0  0  0  0  0  0
  -28.7907  -24.0150   19.2135 O   0  0  0  0  0  0
  -29.1803  -18.2695   21.4780 S   0  0  0  0  0  0
  -31.4669  -12.4147   19.1389 H   0  0  0  0  0  0
  -30.3185  -11.3198   19.8538 H   0  0  0  0  0  0
  -29.7457  -11.7637   17.4451 H   0  0  0  0  0  0
  -29.6642  -13.4779   17.7609 H   0  0  0  0  0  0
  -27.8301  -11.3032   18.8296 H   0  0  0  0  0  0
  -27.3696  -12.6191   17.7853 H   0  0  0  0  0  0
  -27.6881  -14.2541   19.5466 H   0  0  0  0  0  0
  -28.6770  -12.0064   21.3701 H   0  0  0  0  0  0
  -28.4561  -13.6617   21.8508 H   0  0  0  0  0  0
  -25.2778   -9.5684   22.4762 H   0  0  0  0  0  0
  -24.0016   -7.4625   22.7468 H   0  0  0  0  0  0
  -21.0851   -8.8773   19.8958 H   0  0  0  0  0  0
  -22.3710  -10.9673   19.6171 H   0  0  0  0  0  0
  -21.2002   -7.6164   23.9730 H   0  0  0  0  0  0
  -21.1473   -6.0529   25.9085 H   0  0  0  0  0  0
  -22.0600   -2.7618   23.2839 H   0  0  0  0  0  0
  -22.4094  -11.9882   22.4789 H   0  0  0  0  0  0
  -21.1114  -13.1256   22.2619 H   0  0  0  0  0  0
  -24.6629  -15.8442   20.5093 H   0  0  0  0  0  0
  -26.2763  -15.6241   20.0622 H   0  0  0  0  0  0
  -26.7119  -32.5508   23.1154 H   0  0  0  0  0  0
  -25.0087  -33.9771   25.0486 H   0  0  0  0  0  0
  -22.6968  -31.3049   21.4056 H   0  0  0  0  0  0
  -23.3755  -35.9640   23.3299 H   0  0  0  0  0  0
  -24.3602  -36.8919   22.2062 H   0  0  0  0  0  0
  -23.7233  -37.6515   23.6647 H   0  0  0  0  0  0
  -26.0524  -31.5917   20.5927 H   0  0  0  0  0  0
  -26.8257  -30.8810   21.9802 H   0  0  0  0  0  0
  -28.1088  -29.0863   21.1638 H   0  0  0  0  0  0
  -26.0609  -25.9482   19.0332 H   0  0  0  0  0  0
  -23.9794  -27.2851   19.0401 H   0  0  0  0  0  0
  -23.7256  -30.5911   19.4027 H   0  0  0  0  0  0
  -22.7420  -29.2353   19.8670 H   0  0  0  0  0  0
  -25.1293  -36.1966   25.0840 H   0  0  0  0  0  0
  -20.9950  -28.3206   24.1438 H   0  0  0  0  0  0
  -20.5643  -26.2261   23.3606 H   0  0  0  0  0  0
  -21.6624  -26.7415   22.1224 H   0  0  0  0  0  0
  -19.6905  -25.6287   21.1235 H   0  0  0  0  0  0
  -19.6711  -27.3190   20.6750 H   0  0  0  0  0  0
  -17.4201  -26.6684   21.3992 H   0  0  0  0  0  0
  -18.0301  -26.0062   22.8996 H   0  0  0  0  0  0
  -19.7928  -30.7251   24.2271 H   0  0  0  0  0  0
  -17.5009  -31.6266   24.5155 H   0  0  0  0  0  0
  -15.5343  -30.2988   23.7664 H   0  0  0  0  0  0
  -15.8652  -28.0833   22.7047 H   0  0  0  0  0  0
  -24.5908  -30.7066   25.7841 H   0  0  0  0  0  0
  -24.8928  -32.2878   26.4931 H   0  0  0  0  0  0
  -25.8098  -30.8908   27.0240 H   0  0  0  0  0  0
  -26.2820  -29.6794   24.1163 H   0  0  0  0  0  0
  -27.4060  -29.7275   25.4564 H   0  0  0  0  0  0
  -27.8660  -30.4354   23.9244 H   0  0  0  0  0  0
  -27.2692  -33.3616   26.2055 H   0  0  0  0  0  0
  -28.3849  -32.6865   25.0267 H   0  0  0  0  0  0
  -28.0741  -31.8419   26.5357 H   0  0  0  0  0  0
  -28.2596  -38.0111   24.7518 H   0  0  0  0  0  0
  -28.1087  -36.2642   24.6253 H   0  0  0  0  0  0
  -27.2312  -37.1412   25.8860 H   0  0  0  0  0  0
  -20.9296  -29.8768   21.6967 H   0  0  0  0  0  0
  -26.0177  -38.2869   24.1425 H   0  0  0  0  0  0
  -27.4904  -23.9938   23.6070 H   0  0  0  0  0  0
  -26.4428  -22.6270   23.9971 H   0  0  0  0  0  0
  -25.8058  -23.9904   23.0682 H   0  0  0  0  0  0
  -29.0402  -25.6871   21.8259 H   0  0  0  0  0  0
  -27.3245  -25.5085   21.5543 H   0  0  0  0  0  0
  -29.1337  -23.1389   22.2400 H   0  0  0  0  0  0
  -32.4234  -20.4856   19.3712 H   0  0  0  0  0  0
  -32.9728  -18.9497   18.8657 H   0  0  0  0  0  0
  -29.0423  -15.3394   21.3385 H   0  0  0  0  0  0
  -28.3017  -21.1648   20.1573 H   0  0  0  0  0  0
  1 25  1  0  0  0
  1 30  2  0  0  0
  1 82  1  0  0  0
  2  3  1  0  0  0
  2 25  1  0  0  0
  2 88  1  0  0  0
  2 89  1  0  0  0
  3  4  1  0  0  0
  3 90  1  0  0  0
  3 91  1  0  0  0
  4  5  1  0  0  0
  4 92  1  0  0  0
  4 93  1  0  0  0
  5  6  1  0  0  0
  5 26  1  0  0  0
  5 94  1  0  0  0
  6 25  1  0  0  0
  6 95  1  0  0  0
  6 96  1  0  0  0
  7  8  2  0  0  0
  7 26  1  0  0  0
  7 29  1  0  0  0
  8  9  1  0  0  0
  8 22  1  0  0  0
  9 10  1  0  0  0
  9 27  2  0  0  0
 10 11  2  0  0  0
 10 15  1  0  0  0
 11 12  1  0  0  0
 11 97  1  0  0  0
 12 13  2  0  0  0
 12 98  1  0  0  0
 13 14  1  0  0  0
 13 31  1  0  0  0
 14 15  2  0  0  0
 14 99  1  0  0  0
 15100  1  0  0  0
 16 17  2  0  0  0
 16 21  1  0  0  0
 16 31  1  0  0  0
 17 18  1  0  0  0
 17101  1  0  0  0
 18 19  2  0  0  0
 18102  1  0  0  0
 19 20  1  0  0  0
 19 24  1  0  0  0
 20 21  2  0  0  0
 20103  1  0  0  0
 21 23  1  0  0  0
 22 28  1  0  0  0
 22 32  2  0  0  0
 26 27  1  0  0  0
 28104  1  0  0  0
 28105  1  0  0  0
 29106  1  0  0  0
 29107  1  0  0  0
 33 34  1  0  0  0
 33 66  1  0  0  0
 33 70  2  0  0  0
 34 36  1  0  0  0
 34 59  1  0  0  0
 34108  1  0  0  0
 35 44  2  0  0  0
 35 45  1  0  0  0
 35 68  1  0  0  0
 36 56  1  0  0  0
 36109  1  0  0  0
 37 39  1  0  0  0
 37 47  1  0  0  0
 37 66  1  0  0  0
 37110  1  0  0  0
 38 43  2  0  0  0
 38 46  1  0  0  0
 38 47  1  0  0  0
 39 64  1  0  0  0
 39 67  2  0  0  0
 40 52  1  0  0  0
 40 53  2  0  0  0
 40 58  1  0  0  0
 41111  1  0  0  0
 41112  1  0  0  0
 41113  1  0  0  0
 41 48  1  0  0  0
 42 43  1  0  0  0
 42 66  1  0  0  0
 42114  1  0  0  0
 42115  1  0  0  0
 43 44  1  0  0  0
 44116  1  0  0  0
 45 46  2  0  0  0
 45117  1  0  0  0
 46118  1  0  0  0
 47119  1  0  0  0
 47120  1  0  0  0
 48 56  1  0  0  0
 48 65  1  0  0  0
 48121  1  0  0  0
 49 50  1  0  0  0
 49 53  1  0  0  0
 49 64  1  0  0  0
 49122  1  0  0  0
 50 51  1  0  0  0
 50123  1  0  0  0
 50124  1  0  0  0
 51 52  1  0  0  0
 51125  1  0  0  0
 51126  1  0  0  0
 52127  1  0  0  0
 52128  1  0  0  0
 53 54  1  0  0  0
 54 55  2  0  0  0
 54129  1  0  0  0
 55 57  1  0  0  0
 55130  1  0  0  0
 56 69  2  0  0  0
 57 58  2  0  0  0
 57131  1  0  0  0
 58132  1  0  0  0
 59 60  1  0  0  0
 59 61  1  0  0  0
 59 62  1  0  0  0
 60133  1  0  0  0
 60134  1  0  0  0
 60135  1  0  0  0
 61136  1  0  0  0
 61137  1  0  0  0
 61138  1  0  0  0
 62139  1  0  0  0
 62140  1  0  0  0
 62141  1  0  0  0
 63 65  1  0  0  0
 63142  1  0  0  0
 63143  1  0  0  0
 63144  1  0  0  0
 64145  1  0  0  0
 65146  1  0  0  0
 68 78  1  0  0  0
 71 72  2  0  0  0
 71 74  1  0  0  0
 71 87  1  0  0  0
 72 80  1  0  0  0
 72 81  1  0  0  0
 73 80  2  0  0  0
 73 82  1  0  0  0
 73 87  1  0  0  0
 74 83  1  0  0  0
 74 84  2  0  0  0
 75 77  1  0  0  0
 75 79  1  0  0  0
 75 85  2  0  0  0
 76 78  1  0  0  0
 76 79  1  0  0  0
 76 86  2  0  0  0
 77147  1  0  0  0
 77148  1  0  0  0
 77149  1  0  0  0
 78150  1  0  0  0
 78151  1  0  0  0
 79 83  1  0  0  0
 79152  1  0  0  0
 81153  1  0  0  0
 81154  1  0  0  0
 82155  1  0  0  0
 83156  1  0  0  0
M  ISO  4   1 100  68 101  78 101  82 100
M  END
> <chiral flag>
0

> <version>
0

> <s_m_source_file>
/data/baiqing/PycharmProjects/Reinvent-master-3.2/result/LINK_invent/BTK/process_docking_weight1_custom_product_contain_oxygen_bond_distance_aromatic_linkinvent_7_9_3/rearranged_h_0177.sdf

> <i_m_source_file_index>
51

> <r_mmod_Potential_Energy-OPLS-2005>
-275.718536376953

> <r_mmod_Stretch_Energy-OPLS-2005>
44.4220924377441

> <r_mmod_Bend_Energy-OPLS-2005>
108.960342407227

> <r_mmod_Torsional_Energy-OPLS-2005>
242.106185913086

> <r_mmod_Improper_Torsional_Energy-OPLS-2005>
6.32902050018311

> <r_mmod_Van_der_Waal_Energy-OPLS-2005>
121.785690307617

> <r_mmod_Electrostatic_Energy-OPLS-2005>
-532.630187988281

> <r_mmod_Solvation_Energy-OPLS-2005>
-286.632415771484

> <b_mmod_Minimization_Converged-OPLS-2005>
0

> <r_mmod_RMS_Derivative-OPLS-2005>
1.52313029766083

$$$$
51
                    3D
 Structure written by MMmdl.
154162  0  0  1  0            999 V2000
  -30.5893  -14.7565   20.4702 C   0  0  0  0  0  0
  -30.4483  -12.4657   19.4684 C   0  0  0  0  0  0
  -29.5137  -12.4903   18.2366 C   0  0  0  0  0  0
  -28.0432  -12.2997   18.6612 C   0  0  0  0  0  0
  -27.6423  -13.2189   19.8460 C   0  0  2  0  0  0
  -28.6879  -13.1568   20.9814 C   0  0  0  0  0  0
  -25.2524  -13.8163   20.5667 C   0  0  0  0  0  0
  -24.1811  -13.0438   20.9196 C   0  0  0  0  0  0
  -24.6386  -11.6907   20.8751 C   0  0  0  0  0  0
  -23.9060  -10.4287   21.0418 C   0  0  0  0  0  0
  -24.3610   -9.4198   21.9189 C   0  0  0  0  0  0
  -23.6283   -8.2242   22.0762 C   0  0  0  0  0  0
  -22.4274   -8.0273   21.3546 C   0  0  0  0  0  0
  -21.9906   -9.0251   20.4654 C   0  0  0  0  0  0
  -22.7239  -10.2125   20.3063 C   0  0  0  0  0  0
  -21.6844   -6.0723   22.5270 C   0  0  0  0  0  0
  -21.4015   -6.5634   23.8200 C   0  0  0  0  0  0
  -21.3654   -5.6791   24.9165 C   0  0  0  0  0  0
  -21.6043   -4.3055   24.7229 C   0  0  0  0  0  0
  -21.8821   -3.8138   23.4356 C   0  0  0  0  0  0
  -21.9194   -4.6948   22.3403 C   0  0  0  0  0  0
  -22.7829  -13.5214   21.1869 C   0  0  0  0  0  0
  -22.1656   -4.2137   21.0980 F   0  0  0  0  0  0
  -21.5632   -3.4539   25.7743 F   0  0  0  0  0  0
  -29.9880  -13.5193   20.4017 N   0  0  0  0  0  0
  -26.2939  -12.9343   20.3258 N   0  0  0  0  0  0
  -25.9302  -11.6501   20.5758 N   0  0  0  0  0  0
  -22.0479  -12.8199   22.0418 N   0  0  0  0  0  0
  -25.4197  -15.1891   20.4029 N   0  0  0  0  0  0
  -31.7840  -14.8744   20.1782 O   0  0  0  0  0  0
  -21.6638   -6.8873   21.4243 O   0  0  0  0  0  0
  -22.3513  -14.5526   20.6719 O   0  0  0  0  0  0
  -24.6316  -31.8492   23.1978 C   0  0  0  0  0  0
  -25.9138  -32.4720   23.8304 C   0  0  1  0  0  0
  -27.2139  -27.2406   20.1279 C   0  0  0  0  0  0
  -25.5932  -33.8526   24.2223 N   0  0  0  0  0  0
  -23.4289  -30.4742   21.5378 C   0  0  2  0  0  0
  -24.8759  -28.9166   20.1075 C   0  0  0  0  0  0
  -22.7489  -29.4567   22.4875 C   0  0  0  0  0  0
  -18.0281  -28.1360   22.8456 C   0  0  0  0  0  0
  -24.1503  -36.7277   23.2634 C   0  0  0  0  0  0
  -25.9783  -30.7557   21.3828 C   0  0  0  0  0  0
  -26.0487  -29.3783   20.7198 C   0  0  0  0  0  0
  -27.2218  -28.5540   20.7148 C   0  0  0  0  0  0
  -26.0232  -26.8534   19.4803 C   0  0  0  0  0  0
  -24.8708  -27.6628   19.4752 C   0  0  0  0  0  0
  -23.6465  -29.8048   20.1548 C   0  0  0  0  0  0
  -25.4124  -36.3048   24.0327 C   0  0  1  0  0  0
  -20.5890  -28.3656   23.1263 C   0  0  2  0  0  0
  -20.6766  -26.9371   22.5399 C   0  0  0  0  0  0
  -19.5749  -26.6364   21.5185 C   0  0  0  0  0  0
  -18.1913  -26.7914   22.1587 C   0  0  0  0  0  0
  -19.1549  -28.8818   23.2844 C   0  0  0  0  0  0
  -18.9479  -30.1418   23.8879 C   0  0  0  0  0  0
  -17.6479  -30.6550   24.0533 C   0  0  0  0  0  0
  -25.9070  -34.9422   23.5083 C   0  0  0  0  0  0
  -16.5363  -29.9050   23.6329 C   0  0  0  0  0  0
  -16.7263  -28.6473   23.0337 C   0  0  0  0  0  0
  -26.4472  -31.6578   25.0735 C   0  0  0  0  0  0
  -25.3690  -31.3813   26.1483 C   0  0  0  0  0  0
  -27.0315  -30.2975   24.6300 C   0  0  0  0  0  0
  -27.6008  -32.4325   25.7503 C   0  0  0  0  0  0
  -27.5581  -37.1773   24.8451 C   0  0  0  0  0  0
  -21.4197  -29.3025   22.3651 N   0  0  0  0  0  0
  -26.4281  -37.3756   23.9419 N   0  0  0  0  0  0
  -24.6984  -31.0459   22.0940 N   0  0  0  0  0  0
  -23.4208  -28.8071   23.2937 O   0  0  0  0  0  0
  -28.3048  -26.3381   20.1366 O   0  0  0  0  0  0
  -26.5626  -34.8890   22.4640 O   0  0  0  0  0  0
  -23.5466  -32.1325   23.7268 O   0  0  0  0  0  0
  -31.1757  -17.9521   20.9078 C   0  0  0  0  0  0
  -29.9821  -17.3290   20.6293 C   0  0  0  0  0  0
  -28.9459  -18.3396   20.3758 C   0  0  0  0  0  0
  -29.3181  -19.7005   20.4370 C   0  0  0  0  0  0
  -28.5790  -21.0561   20.1688 C   0  0  0  0  0  0
  -28.3487  -23.5794   18.2853 C   0  0  0  0  0  0
  -28.4404  -24.8143   22.0120 C   0  0  0  0  0  0
  -28.8751  -23.6988   19.7265 C   0  0  1  0  0  0
  -28.0961  -24.8867   20.5230 C   0  0  2  0  0  0
  -29.7569  -15.8571   20.6397 N   0  0  0  0  0  0
  -29.1546  -22.3074   20.3468 N   0  0  0  0  0  0
  -27.4228  -21.0006   19.7468 O   0  0  0  0  0  0
  -27.7271  -17.9456   20.0826 F   0  0  0  0  0  0
  -31.0278  -19.7232   20.8522 S   0  0  0  0  0  0
  -31.4819  -12.6214   19.1521 H   0  0  0  0  0  0
  -30.4270  -11.4911   19.9557 H   0  0  0  0  0  0
  -29.8016  -11.7079   17.5320 H   0  0  0  0  0  0
  -29.6225  -13.4392   17.7064 H   0  0  0  0  0  0
  -27.9232  -11.2550   18.9527 H   0  0  0  0  0  0
  -27.3766  -12.4549   17.8116 H   0  0  0  0  0  0
  -27.6355  -14.2336   19.4483 H   0  0  0  0  0  0
  -28.7316  -12.1593   21.4192 H   0  0  0  0  0  0
  -28.4166  -13.8326   21.7931 H   0  0  0  0  0  0
  -25.2759   -9.5663   22.4766 H   0  0  0  0  0  0
  -23.9979   -7.4633   22.7481 H   0  0  0  0  0  0
  -21.0835   -8.8775   19.8960 H   0  0  0  0  0  0
  -22.3704  -10.9665   19.6171 H   0  0  0  0  0  0
  -21.2009   -7.6142   23.9702 H   0  0  0  0  0  0
  -21.1471   -6.0523   25.9066 H   0  0  0  0  0  0
  -22.0610   -2.7604   23.2860 H   0  0  0  0  0  0
  -22.4083  -11.9843   22.4791 H   0  0  0  0  0  0
  -21.1111  -13.1226   22.2655 H   0  0  0  0  0  0
  -24.6441  -15.8340   20.5060 H   0  0  0  0  0  0
  -26.2499  -15.6374   20.0383 H   0  0  0  0  0  0
  -26.7175  -32.5334   23.1003 H   0  0  0  0  0  0
  -25.0055  -33.9639   25.0359 H   0  0  0  0  0  0
  -22.7269  -31.2965   21.3878 H   0  0  0  0  0  0
  -23.3768  -35.9602   23.3272 H   0  0  0  0  0  0
  -24.3597  -36.8951   22.2060 H   0  0  0  0  0  0
  -23.7274  -37.6462   23.6702 H   0  0  0  0  0  0
  -26.1359  -31.5199   20.6197 H   0  0  0  0  0  0
  -26.8474  -30.7909   22.0290 H   0  0  0  0  0  0
  -28.1222  -28.8999   21.2026 H   0  0  0  0  0  0
  -25.9745  -25.8993   18.9747 H   0  0  0  0  0  0
  -23.9814  -27.3057   18.9773 H   0  0  0  0  0  0
  -23.7618  -30.5791   19.3947 H   0  0  0  0  0  0
  -22.7654  -29.2359   19.8507 H   0  0  0  0  0  0
  -25.1308  -36.1852   25.0818 H   0  0  0  0  0  0
  -20.9979  -28.3231   24.1391 H   0  0  0  0  0  0
  -20.5665  -26.2237   23.3584 H   0  0  0  0  0  0
  -21.6611  -26.7365   22.1184 H   0  0  0  0  0  0
  -19.6907  -25.6291   21.1166 H   0  0  0  0  0  0
  -19.6715  -27.3194   20.6745 H   0  0  0  0  0  0
  -17.4184  -26.6650   21.3978 H   0  0  0  0  0  0
  -18.0282  -26.0059   22.8998 H   0  0  0  0  0  0
  -19.7972  -30.7190   24.2262 H   0  0  0  0  0  0
  -17.5055  -31.6255   24.5093 H   0  0  0  0  0  0
  -15.5369  -30.2920   23.7722 H   0  0  0  0  0  0
  -15.8666  -28.0792   22.7078 H   0  0  0  0  0  0
  -24.5852  -30.7149   25.7879 H   0  0  0  0  0  0
  -24.8877  -32.3010   26.4813 H   0  0  0  0  0  0
  -25.7989  -30.9090   27.0328 H   0  0  0  0  0  0
  -26.2924  -29.6725   24.1278 H   0  0  0  0  0  0
  -27.3900  -29.7263   25.4866 H   0  0  0  0  0  0
  -27.8848  -30.4213   23.9632 H   0  0  0  0  0  0
  -27.2610  -33.3657   26.2003 H   0  0  0  0  0  0
  -28.3846  -32.6825   25.0348 H   0  0  0  0  0  0
  -28.0625  -31.8499   26.5484 H   0  0  0  0  0  0
  -28.2544  -38.0109   24.7482 H   0  0  0  0  0  0
  -28.1109  -36.2622   24.6258 H   0  0  0  0  0  0
  -27.2294  -37.1415   25.8848 H   0  0  0  0  0  0
  -20.9354  -29.8844   21.6962 H   0  0  0  0  0  0
  -26.0158  -38.2826   24.1424 H   0  0  0  0  0  0
  -32.1306  -17.5009   21.1537 H   0  0  0  0  0  0
  -27.2726  -23.4007   18.2658 H   0  0  0  0  0  0
  -28.8341  -22.7706   17.7387 H   0  0  0  0  0  0
  -28.5384  -24.4969   17.7258 H   0  0  0  0  0  0
  -27.9797  -25.6308   22.5688 H   0  0  0  0  0  0
  -29.5178  -24.8747   22.1626 H   0  0  0  0  0  0
  -28.0963  -23.8764   22.4479 H   0  0  0  0  0  0
  -29.8891  -24.0841   19.6209 H   0  0  0  0  0  0
  -27.0360  -24.6492   20.4487 H   0  0  0  0  0  0
  -28.7856  -15.6005   20.7190 H   0  0  0  0  0  0
  -30.0517  -22.2670   20.8134 H   0  0  0  0  0  0
  1 25  1  0  0  0
  1 30  2  0  0  0
  1 80  1  0  0  0
  2  3  1  0  0  0
  2 25  1  0  0  0
  2 85  1  0  0  0
  2 86  1  0  0  0
  3  4  1  0  0  0
  3 87  1  0  0  0
  3 88  1  0  0  0
  4  5  1  0  0  0
  4 89  1  0  0  0
  4 90  1  0  0  0
  5  6  1  0  0  0
  5 26  1  0  0  0
  5 91  1  0  0  0
  6 25  1  0  0  0
  6 92  1  0  0  0
  6 93  1  0  0  0
  7  8  2  0  0  0
  7 26  1  0  0  0
  7 29  1  0  0  0
  8  9  1  0  0  0
  8 22  1  0  0  0
  9 10  1  0  0  0
  9 27  2  0  0  0
 10 11  2  0  0  0
 10 15  1  0  0  0
 11 12  1  0  0  0
 11 94  1  0  0  0
 12 13  2  0  0  0
 12 95  1  0  0  0
 13 14  1  0  0  0
 13 31  1  0  0  0
 14 15  2  0  0  0
 14 96  1  0  0  0
 15 97  1  0  0  0
 16 17  2  0  0  0
 16 21  1  0  0  0
 16 31  1  0  0  0
 17 18  1  0  0  0
 17 98  1  0  0  0
 18 19  2  0  0  0
 18 99  1  0  0  0
 19 20  1  0  0  0
 19 24  1  0  0  0
 20 21  2  0  0  0
 20100  1  0  0  0
 21 23  1  0  0  0
 22 28  1  0  0  0
 22 32  2  0  0  0
 26 27  1  0  0  0
 28101  1  0  0  0
 28102  1  0  0  0
 29103  1  0  0  0
 29104  1  0  0  0
 33 34  1  0  0  0
 33 66  1  0  0  0
 33 70  2  0  0  0
 34 36  1  0  0  0
 34 59  1  0  0  0
 34105  1  0  0  0
 35 44  2  0  0  0
 35 45  1  0  0  0
 35 68  1  0  0  0
 36 56  1  0  0  0
 36106  1  0  0  0
 37 39  1  0  0  0
 37 47  1  0  0  0
 37 66  1  0  0  0
 37107  1  0  0  0
 38 43  2  0  0  0
 38 46  1  0  0  0
 38 47  1  0  0  0
 39 64  1  0  0  0
 39 67  2  0  0  0
 40 52  1  0  0  0
 40 53  2  0  0  0
 40 58  1  0  0  0
 41108  1  0  0  0
 41109  1  0  0  0
 41110  1  0  0  0
 41 48  1  0  0  0
 42 43  1  0  0  0
 42 66  1  0  0  0
 42111  1  0  0  0
 42112  1  0  0  0
 43 44  1  0  0  0
 44113  1  0  0  0
 45 46  2  0  0  0
 45114  1  0  0  0
 46115  1  0  0  0
 47116  1  0  0  0
 47117  1  0  0  0
 48 56  1  0  0  0
 48 65  1  0  0  0
 48118  1  0  0  0
 49 50  1  0  0  0
 49 53  1  0  0  0
 49 64  1  0  0  0
 49119  1  0  0  0
 50 51  1  0  0  0
 50120  1  0  0  0
 50121  1  0  0  0
 51 52  1  0  0  0
 51122  1  0  0  0
 51123  1  0  0  0
 52124  1  0  0  0
 52125  1  0  0  0
 53 54  1  0  0  0
 54 55  2  0  0  0
 54126  1  0  0  0
 55 57  1  0  0  0
 55127  1  0  0  0
 56 69  2  0  0  0
 57 58  2  0  0  0
 57128  1  0  0  0
 58129  1  0  0  0
 59 60  1  0  0  0
 59 61  1  0  0  0
 59 62  1  0  0  0
 60130  1  0  0  0
 60131  1  0  0  0
 60132  1  0  0  0
 61133  1  0  0  0
 61134  1  0  0  0
 61135  1  0  0  0
 62136  1  0  0  0
 62137  1  0  0  0
 62138  1  0  0  0
 63 65  1  0  0  0
 63139  1  0  0  0
 63140  1  0  0  0
 63141  1  0  0  0
 64142  1  0  0  0
 65143  1  0  0  0
 68 79  1  0  0  0
 71 72  2  0  0  0
 71 84  1  0  0  0
 71144  1  0  0  0
 72 73  1  0  0  0
 72 80  1  0  0  0
 73 74  2  0  0  0
 73 83  1  0  0  0
 74 75  1  0  0  0
 74 84  1  0  0  0
 75 81  1  0  0  0
 75 82  2  0  0  0
 76145  1  0  0  0
 76146  1  0  0  0
 76147  1  0  0  0
 76 78  1  0  0  0
 77148  1  0  0  0
 77149  1  0  0  0
 77150  1  0  0  0
 77 79  1  0  0  0
 78 79  1  0  0  0
 78 81  1  0  0  0
 78151  1  0  0  0
 79152  1  0  0  0
 80153  1  0  0  0
 81154  1  0  0  0
M  ISO  4   1 100  68 101  79 101  80 100
M  END
> <chiral flag>
0

> <version>
0

> <s_m_source_file>
/data/baiqing/PycharmProjects/Reinvent-master-3.2/result/LINK_invent/BTK/process_docking_weight1_custom_product_contain_oxygen_bond_distance_aromatic_linkinvent_7_9_3/rearranged_h_0177.sdf

> <i_m_source_file_index>
52

> <r_mmod_Potential_Energy-OPLS-2005>
127.294815063477

> <r_mmod_Stretch_Energy-OPLS-2005>
130.02522277832

> <r_mmod_Bend_Energy-OPLS-2005>
180.802703857422

> <r_mmod_Torsional_Energy-OPLS-2005>
254.431228637695

> <r_mmod_Improper_Torsional_Energy-OPLS-2005>
6.19917774200439

> <r_mmod_Van_der_Waal_Energy-OPLS-2005>
110.583908081055

> <r_mmod_Electrostatic_Energy-OPLS-2005>
-426.266326904297

> <r_mmod_Solvation_Energy-OPLS-2005>
-222.446563720703

> <b_mmod_Minimization_Converged-OPLS-2005>
0

> <r_mmod_RMS_Derivative-OPLS-2005>
3.53124666213989

$$$$
52
                    3D
 Structure written by MMmdl.
154162  0  0  1  0            999 V2000
  -30.6850  -14.6251   20.4086 C   0  0  0  0  0  0
  -30.4242  -12.3608   19.4730 C   0  0  0  0  0  0
  -29.5145  -12.4681   18.2317 C   0  0  0  0  0  0
  -28.0391  -12.3157   18.6418 C   0  0  0  0  0  0
  -27.6504  -13.2220   19.8406 C   0  0  2  0  0  0
  -28.6962  -13.1456   20.9794 C   0  0  0  0  0  0
  -25.2532  -13.8173   20.5619 C   0  0  0  0  0  0
  -24.1832  -13.0410   20.9171 C   0  0  0  0  0  0
  -24.6407  -11.6889   20.8694 C   0  0  0  0  0  0
  -23.9069  -10.4269   21.0343 C   0  0  0  0  0  0
  -24.3627   -9.4184   21.9130 C   0  0  0  0  0  0
  -23.6295   -8.2226   22.0728 C   0  0  0  0  0  0
  -22.4272   -8.0275   21.3535 C   0  0  0  0  0  0
  -21.9893   -9.0224   20.4627 C   0  0  0  0  0  0
  -22.7217  -10.2094   20.3011 C   0  0  0  0  0  0
  -21.6854   -6.0723   22.5284 C   0  0  0  0  0  0
  -21.4006   -6.5620   23.8224 C   0  0  0  0  0  0
  -21.3658   -5.6767   24.9179 C   0  0  0  0  0  0
  -21.6051   -4.3043   24.7223 C   0  0  0  0  0  0
  -21.8832   -3.8133   23.4355 C   0  0  0  0  0  0
  -21.9185   -4.6947   22.3396 C   0  0  0  0  0  0
  -22.7843  -13.5186   21.1851 C   0  0  0  0  0  0
  -22.1672   -4.2121   21.0982 F   0  0  0  0  0  0
  -21.5624   -3.4528   25.7738 F   0  0  0  0  0  0
  -30.0212  -13.4280   20.4098 N   0  0  0  0  0  0
  -26.2985  -12.9398   20.3195 N   0  0  0  0  0  0
  -25.9343  -11.6548   20.5701 N   0  0  0  0  0  0
  -22.0537  -12.8142   22.0439 N   0  0  0  0  0  0
  -25.4206  -15.1914   20.4067 N   0  0  0  0  0  0
  -31.8674  -14.6729   20.0581 O   0  0  0  0  0  0
  -21.6649   -6.8864   21.4246 O   0  0  0  0  0  0
  -22.3470  -14.5474   20.6718 O   0  0  0  0  0  0
  -24.6232  -31.8614   23.2014 C   0  0  0  0  0  0
  -25.9118  -32.4785   23.8327 C   0  0  1  0  0  0
  -27.2268  -27.3309   20.1344 C   0  0  0  0  0  0
  -25.5999  -33.8568   24.2325 N   0  0  0  0  0  0
  -23.4174  -30.4851   21.5394 C   0  0  2  0  0  0
  -24.8709  -28.9366   20.1089 C   0  0  0  0  0  0
  -22.7445  -29.4644   22.4872 C   0  0  0  0  0  0
  -18.0273  -28.1391   22.8441 C   0  0  0  0  0  0
  -24.1463  -36.7288   23.2589 C   0  0  0  0  0  0
  -25.9530  -30.7919   21.3695 C   0  0  0  0  0  0
  -26.0333  -29.4164   20.7245 C   0  0  0  0  0  0
  -27.2198  -28.6243   20.7349 C   0  0  0  0  0  0
  -26.0561  -26.9007   19.4843 C   0  0  0  0  0  0
  -24.8838  -27.6823   19.4791 C   0  0  0  0  0  0
  -23.6386  -29.8183   20.1559 C   0  0  0  0  0  0
  -25.4056  -36.3058   24.0327 C   0  0  1  0  0  0
  -20.5851  -28.3718   23.1237 C   0  0  2  0  0  0
  -20.6760  -26.9436   22.5372 C   0  0  0  0  0  0
  -19.5746  -26.6368   21.5169 C   0  0  0  0  0  0
  -18.1933  -26.7927   22.1595 C   0  0  0  0  0  0
  -19.1516  -28.8857   23.2846 C   0  0  0  0  0  0
  -18.9458  -30.1452   23.8875 C   0  0  0  0  0  0
  -17.6470  -30.6583   24.0557 C   0  0  0  0  0  0
  -25.9035  -34.9452   23.5106 C   0  0  0  0  0  0
  -16.5363  -29.9080   23.6339 C   0  0  0  0  0  0
  -16.7270  -28.6509   23.0332 C   0  0  0  0  0  0
  -26.4562  -31.6515   25.0630 C   0  0  0  0  0  0
  -25.3852  -31.3712   26.1424 C   0  0  0  0  0  0
  -27.0306  -30.2889   24.6034 C   0  0  0  0  0  0
  -27.6101  -32.4230   25.7460 C   0  0  0  0  0  0
  -27.5610  -37.1712   24.8414 C   0  0  0  0  0  0
  -21.4157  -29.3093   22.3632 N   0  0  0  0  0  0
  -26.4228  -37.3782   23.9488 N   0  0  0  0  0  0
  -24.6833  -31.0628   22.0961 N   0  0  0  0  0  0
  -23.4166  -28.8160   23.2950 O   0  0  0  0  0  0
  -28.2887  -26.4224   20.1570 O   0  0  0  0  0  0
  -26.5568  -34.8944   22.4651 O   0  0  0  0  0  0
  -23.5400  -32.1437   23.7337 O   0  0  0  0  0  0
  -30.0001  -20.0223   22.4968 C   0  0  0  0  0  0
  -30.2779  -18.6403   22.1956 C   0  0  0  0  0  0
  -29.9409  -18.2799   20.9070 C   0  0  0  0  0  0
  -29.5597  -20.8126   21.4550 C   0  0  0  0  0  0
  -28.5373  -25.7781   21.3669 C   0  0  0  0  0  0
  -30.9366  -17.7414   23.1457 C   0  0  0  0  0  0
  -30.2476  -17.0138   20.1228 C   0  0  0  0  0  0
  -28.7832  -24.4659   21.7204 C   0  0  0  0  0  0
  -28.8175  -23.2131   20.8921 C   0  0  0  0  0  0
  -32.1113  -18.3607   23.8937 C   0  0  0  0  0  0
  -29.3782  -22.1814   21.5995 N   0  0  0  0  0  0
  -29.9627  -15.7707   20.6232 N   0  0  0  0  0  0
  -30.6635  -16.5513   23.3421 O   0  0  0  0  0  0
  -30.7883  -17.1593   19.0199 O   0  0  0  0  0  0
  -28.3644  -23.0809   19.7562 O   0  0  0  0  0  0
  -29.0093  -24.2835   23.0364 O   0  0  0  0  0  0
  -29.3875  -19.7511   20.0424 S   0  0  0  0  0  0
  -31.4716  -12.4325   19.1773 H   0  0  0  0  0  0
  -30.3251  -11.3857   19.9522 H   0  0  0  0  0  0
  -29.7884  -11.7018   17.5052 H   0  0  0  0  0  0
  -29.6633  -13.4284   17.7355 H   0  0  0  0  0  0
  -27.8851  -11.2705   18.9108 H   0  0  0  0  0  0
  -27.3907  -12.5072   17.7872 H   0  0  0  0  0  0
  -27.6519  -14.2412   19.4580 H   0  0  0  0  0  0
  -28.6949  -12.1575   21.4418 H   0  0  0  0  0  0
  -28.4553  -13.8534   21.7736 H   0  0  0  0  0  0
  -25.2799   -9.5665   22.4662 H   0  0  0  0  0  0
  -24.0037   -7.4612   22.7436 H   0  0  0  0  0  0
  -21.0837   -8.8708   19.8923 H   0  0  0  0  0  0
  -22.3684  -10.9610   19.6110 H   0  0  0  0  0  0
  -21.2023   -7.6129   23.9711 H   0  0  0  0  0  0
  -21.1462   -6.0503   25.9072 H   0  0  0  0  0  0
  -22.0619   -2.7589   23.2856 H   0  0  0  0  0  0
  -22.4221  -11.9832   22.4823 H   0  0  0  0  0  0
  -21.1132  -13.1091   22.2677 H   0  0  0  0  0  0
  -24.6433  -15.8384   20.5052 H   0  0  0  0  0  0
  -26.2674  -15.6341   20.0734 H   0  0  0  0  0  0
  -26.7148  -32.5497   23.1027 H   0  0  0  0  0  0
  -25.0348  -33.9701   25.0616 H   0  0  0  0  0  0
  -22.7107  -31.3039   21.3923 H   0  0  0  0  0  0
  -23.3773  -35.9573   23.3123 H   0  0  0  0  0  0
  -24.3571  -36.9007   22.2023 H   0  0  0  0  0  0
  -23.7176  -37.6440   23.6678 H   0  0  0  0  0  0
  -26.0673  -31.5405   20.5812 H   0  0  0  0  0  0
  -26.8395  -30.8548   21.9914 H   0  0  0  0  0  0
  -28.1134  -28.9901   21.2207 H   0  0  0  0  0  0
  -26.0475  -25.9323   19.0027 H   0  0  0  0  0  0
  -23.9944  -27.3138   18.9924 H   0  0  0  0  0  0
  -23.7643  -30.5956   19.4021 H   0  0  0  0  0  0
  -22.7601  -29.2516   19.8477 H   0  0  0  0  0  0
  -25.1159  -36.1861   25.0807 H   0  0  0  0  0  0
  -20.9970  -28.3326   24.1339 H   0  0  0  0  0  0
  -20.5594  -26.2358   23.3580 H   0  0  0  0  0  0
  -21.6640  -26.7409   22.1189 H   0  0  0  0  0  0
  -19.6925  -25.6269   21.1193 H   0  0  0  0  0  0
  -19.6671  -27.3181   20.6692 H   0  0  0  0  0  0
  -17.4178  -26.6638   21.4034 H   0  0  0  0  0  0
  -18.0388  -26.0058   22.8983 H   0  0  0  0  0  0
  -19.7940  -30.7279   24.2216 H   0  0  0  0  0  0
  -17.5026  -31.6254   24.5173 H   0  0  0  0  0  0
  -15.5377  -30.2988   23.7639 H   0  0  0  0  0  0
  -15.8668  -28.0845   22.7013 H   0  0  0  0  0  0
  -24.6068  -30.6959   25.7912 H   0  0  0  0  0  0
  -24.9048  -32.2902   26.4769 H   0  0  0  0  0  0
  -25.8267  -30.9066   27.0235 H   0  0  0  0  0  0
  -26.2807  -29.6691   24.1123 H   0  0  0  0  0  0
  -27.4046  -29.7086   25.4470 H   0  0  0  0  0  0
  -27.8681  -30.4102   23.9161 H   0  0  0  0  0  0
  -27.2687  -33.3537   26.2015 H   0  0  0  0  0  0
  -28.4002  -32.6758   25.0375 H   0  0  0  0  0  0
  -28.0674  -31.8355   26.5428 H   0  0  0  0  0  0
  -28.2402  -38.0237   24.7751 H   0  0  0  0  0  0
  -28.1316  -36.2772   24.5792 H   0  0  0  0  0  0
  -27.2392  -37.0818   25.8821 H   0  0  0  0  0  0
  -20.9308  -29.8900   21.6918 H   0  0  0  0  0  0
  -26.0078  -38.2794   24.1738 H   0  0  0  0  0  0
  -30.2002  -20.4096   23.4866 H   0  0  0  0  0  0
  -28.5397  -26.5255   22.1459 H   0  0  0  0  0  0
  -32.3789  -19.3170   23.4431 H   0  0  0  0  0  0
  -32.9872  -17.7127   23.8455 H   0  0  0  0  0  0
  -31.8610  -18.5272   24.9409 H   0  0  0  0  0  0
  -29.7061  -22.5510   22.4853 H   0  0  0  0  0  0
  -29.1606  -15.6930   21.2243 H   0  0  0  0  0  0
  -28.8836  -25.1176   23.4741 H   0  0  0  0  0  0
  1 25  1  0  0  0
  1 30  2  0  0  0
  1 82  1  0  0  0
  2  3  1  0  0  0
  2 25  1  0  0  0
  2 88  1  0  0  0
  2 89  1  0  0  0
  3  4  1  0  0  0
  3 90  1  0  0  0
  3 91  1  0  0  0
  4  5  1  0  0  0
  4 92  1  0  0  0
  4 93  1  0  0  0
  5  6  1  0  0  0
  5 26  1  0  0  0
  5 94  1  0  0  0
  6 25  1  0  0  0
  6 95  1  0  0  0
  6 96  1  0  0  0
  7  8  2  0  0  0
  7 26  1  0  0  0
  7 29  1  0  0  0
  8  9  1  0  0  0
  8 22  1  0  0  0
  9 10  1  0  0  0
  9 27  2  0  0  0
 10 11  2  0  0  0
 10 15  1  0  0  0
 11 12  1  0  0  0
 11 97  1  0  0  0
 12 13  2  0  0  0
 12 98  1  0  0  0
 13 14  1  0  0  0
 13 31  1  0  0  0
 14 15  2  0  0  0
 14 99  1  0  0  0
 15100  1  0  0  0
 16 17  2  0  0  0
 16 21  1  0  0  0
 16 31  1  0  0  0
 17 18  1  0  0  0
 17101  1  0  0  0
 18 19  2  0  0  0
 18102  1  0  0  0
 19 20  1  0  0  0
 19 24  1  0  0  0
 20 21  2  0  0  0
 20103  1  0  0  0
 21 23  1  0  0  0
 22 28  1  0  0  0
 22 32  2  0  0  0
 26 27  1  0  0  0
 28104  1  0  0  0
 28105  1  0  0  0
 29106  1  0  0  0
 29107  1  0  0  0
 33 34  1  0  0  0
 33 66  1  0  0  0
 33 70  2  0  0  0
 34 36  1  0  0  0
 34 59  1  0  0  0
 34108  1  0  0  0
 35 44  2  0  0  0
 35 45  1  0  0  0
 35 68  1  0  0  0
 36 56  1  0  0  0
 36109  1  0  0  0
 37 39  1  0  0  0
 37 47  1  0  0  0
 37 66  1  0  0  0
 37110  1  0  0  0
 38 43  2  0  0  0
 38 46  1  0  0  0
 38 47  1  0  0  0
 39 64  1  0  0  0
 39 67  2  0  0  0
 40 52  1  0  0  0
 40 53  2  0  0  0
 40 58  1  0  0  0
 41111  1  0  0  0
 41112  1  0  0  0
 41113  1  0  0  0
 41 48  1  0  0  0
 42 43  1  0  0  0
 42 66  1  0  0  0
 42114  1  0  0  0
 42115  1  0  0  0
 43 44  1  0  0  0
 44116  1  0  0  0
 45 46  2  0  0  0
 45117  1  0  0  0
 46118  1  0  0  0
 47119  1  0  0  0
 47120  1  0  0  0
 48 56  1  0  0  0
 48 65  1  0  0  0
 48121  1  0  0  0
 49 50  1  0  0  0
 49 53  1  0  0  0
 49 64  1  0  0  0
 49122  1  0  0  0
 50 51  1  0  0  0
 50123  1  0  0  0
 50124  1  0  0  0
 51 52  1  0  0  0
 51125  1  0  0  0
 51126  1  0  0  0
 52127  1  0  0  0
 52128  1  0  0  0
 53 54  1  0  0  0
 54 55  2  0  0  0
 54129  1  0  0  0
 55 57  1  0  0  0
 55130  1  0  0  0
 56 69  2  0  0  0
 57 58  2  0  0  0
 57131  1  0  0  0
 58132  1  0  0  0
 59 60  1  0  0  0
 59 61  1  0  0  0
 59 62  1  0  0  0
 60133  1  0  0  0
 60134  1  0  0  0
 60135  1  0  0  0
 61136  1  0  0  0
 61137  1  0  0  0
 61138  1  0  0  0
 62139  1  0  0  0
 62140  1  0  0  0
 62141  1  0  0  0
 63 65  1  0  0  0
 63142  1  0  0  0
 63143  1  0  0  0
 63144  1  0  0  0
 64145  1  0  0  0
 65146  1  0  0  0
 68 75  1  0  0  0
 71 72  1  0  0  0
 71 74  2  0  0  0
 71147  1  0  0  0
 72 73  2  0  0  0
 72 76  1  0  0  0
 73 77  1  0  0  0
 73 87  1  0  0  0
 74 81  1  0  0  0
 74 87  1  0  0  0
 75 78  2  0  0  0
 75148  1  0  0  0
 76 80  1  0  0  0
 76 83  2  0  0  0
 77 82  1  0  0  0
 77 84  2  0  0  0
 78 79  1  0  0  0
 78 86  1  0  0  0
 79 81  1  0  0  0
 79 85  2  0  0  0
 80149  1  0  0  0
 80150  1  0  0  0
 80151  1  0  0  0
 81152  1  0  0  0
 82153  1  0  0  0
 86154  1  0  0  0
M  ISO  4   1 100  68 101  75 101  82 100
M  END
> <chiral flag>
0

> <version>
0

> <s_m_source_file>
/data/baiqing/PycharmProjects/Reinvent-master-3.2/result/LINK_invent/BTK/process_docking_weight1_custom_product_contain_oxygen_bond_distance_aromatic_linkinvent_7_9_3/rearranged_h_0177.sdf

> <i_m_source_file_index>
53

> <r_mmod_Potential_Energy-OPLS-2005>
-72.9775619506836

> <r_mmod_Stretch_Energy-OPLS-2005>
68.6435394287109

> <r_mmod_Bend_Energy-OPLS-2005>
187.251724243164

> <r_mmod_Torsional_Energy-OPLS-2005>
308.161773681641

> <r_mmod_Improper_Torsional_Energy-OPLS-2005>
6.74964237213135

> <r_mmod_Van_der_Waal_Energy-OPLS-2005>
131.836349487305

> <r_mmod_Electrostatic_Energy-OPLS-2005>
-571.246398925781

> <r_mmod_Solvation_Energy-OPLS-2005>
-259.572723388672

> <b_mmod_Minimization_Converged-OPLS-2005>
0

> <r_mmod_RMS_Derivative-OPLS-2005>
7.06940603256226

$$$$
53
                    3D
 Structure written by MMmdl.
149157  0  0  1  0            999 V2000
  -30.7022  -14.6453   20.4923 C   0  0  0  0  0  0
  -30.4210  -12.4055   19.4507 C   0  0  0  0  0  0
  -29.4974  -12.4944   18.2202 C   0  0  0  0  0  0
  -28.0239  -12.3405   18.6410 C   0  0  0  0  0  0
  -27.6451  -13.2344   19.8538 C   0  0  2  0  0  0
  -28.6968  -13.1558   20.9836 C   0  0  0  0  0  0
  -25.2523  -13.8207   20.5704 C   0  0  0  0  0  0
  -24.1815  -13.0440   20.9226 C   0  0  0  0  0  0
  -24.6416  -11.6916   20.8780 C   0  0  0  0  0  0
  -23.9101  -10.4293   21.0432 C   0  0  0  0  0  0
  -24.3636   -9.4203   21.9209 C   0  0  0  0  0  0
  -23.6293   -8.2247   22.0774 C   0  0  0  0  0  0
  -22.4288   -8.0288   21.3541 C   0  0  0  0  0  0
  -21.9943   -9.0267   20.4642 C   0  0  0  0  0  0
  -22.7286  -10.2142   20.3055 C   0  0  0  0  0  0
  -21.6866   -6.0733   22.5272 C   0  0  0  0  0  0
  -21.4013   -6.5637   23.8201 C   0  0  0  0  0  0
  -21.3662   -5.6794   24.9163 C   0  0  0  0  0  0
  -21.6054   -4.3063   24.7228 C   0  0  0  0  0  0
  -21.8819   -3.8148   23.4352 C   0  0  0  0  0  0
  -21.9195   -4.6957   22.3396 C   0  0  0  0  0  0
  -22.7827  -13.5207   21.1873 C   0  0  0  0  0  0
  -22.1678   -4.2138   21.0982 F   0  0  0  0  0  0
  -21.5622   -3.4543   25.7746 F   0  0  0  0  0  0
  -30.0021  -13.4700   20.3883 N   0  0  0  0  0  0
  -26.2968  -12.9428   20.3332 N   0  0  0  0  0  0
  -25.9355  -11.6571   20.5806 N   0  0  0  0  0  0
  -22.0437  -12.8185   22.0391 N   0  0  0  0  0  0
  -25.4179  -15.1933   20.4077 N   0  0  0  0  0  0
  -31.8961  -14.6572   20.1829 O   0  0  0  0  0  0
  -21.6652   -6.8881   21.4239 O   0  0  0  0  0  0
  -22.3527  -14.5511   20.6711 O   0  0  0  0  0  0
  -24.6222  -31.8627   23.2062 C   0  0  0  0  0  0
  -25.9076  -32.4799   23.8371 C   0  0  1  0  0  0
  -27.2166  -27.3402   20.1225 C   0  0  0  0  0  0
  -25.5903  -33.8600   24.2294 N   0  0  0  0  0  0
  -23.4147  -30.4865   21.5484 C   0  0  2  0  0  0
  -24.8615  -28.9391   20.1188 C   0  0  0  0  0  0
  -22.7442  -29.4637   22.4965 C   0  0  0  0  0  0
  -18.0277  -28.1383   22.8483 C   0  0  0  0  0  0
  -24.1491  -36.7301   23.2645 C   0  0  0  0  0  0
  -25.9537  -30.7963   21.3765 C   0  0  0  0  0  0
  -26.0283  -29.4210   20.7293 C   0  0  0  0  0  0
  -27.2121  -28.6276   20.7341 C   0  0  0  0  0  0
  -26.0370  -26.9024   19.4925 C   0  0  0  0  0  0
  -24.8635  -27.6796   19.4972 C   0  0  0  0  0  0
  -23.6292  -29.8204   20.1644 C   0  0  0  0  0  0
  -25.4115  -36.3098   24.0335 C   0  0  1  0  0  0
  -20.5873  -28.3680   23.1285 C   0  0  2  0  0  0
  -20.6771  -26.9410   22.5417 C   0  0  0  0  0  0
  -19.5748  -26.6381   21.5219 C   0  0  0  0  0  0
  -18.1925  -26.7922   22.1624 C   0  0  0  0  0  0
  -19.1532  -28.8848   23.2881 C   0  0  0  0  0  0
  -18.9458  -30.1450   23.8897 C   0  0  0  0  0  0
  -17.6464  -30.6587   24.0557 C   0  0  0  0  0  0
  -25.9044  -34.9465   23.5116 C   0  0  0  0  0  0
  -16.5351  -29.9089   23.6328 C   0  0  0  0  0  0
  -16.7273  -28.6504   23.0353 C   0  0  0  0  0  0
  -26.4477  -31.6597   25.0730 C   0  0  0  0  0  0
  -25.3713  -31.3730   26.1459 C   0  0  0  0  0  0
  -27.0325  -30.3031   24.6171 C   0  0  0  0  0  0
  -27.6043  -32.4322   25.7499 C   0  0  0  0  0  0
  -27.5576  -37.1819   24.8471 C   0  0  0  0  0  0
  -21.4161  -29.3030   22.3677 N   0  0  0  0  0  0
  -26.4302  -37.3781   23.9395 N   0  0  0  0  0  0
  -24.6824  -31.0647   22.1007 N   0  0  0  0  0  0
  -23.4182  -28.8183   23.3042 O   0  0  0  0  0  0
  -28.2972  -26.4633   20.0796 O   0  0  0  0  0  0
  -26.5620  -34.8917   22.4693 O   0  0  0  0  0  0
  -23.5383  -32.1428   23.7386 O   0  0  0  0  0  0
  -30.0718  -19.6794   21.0641 C   0  0  0  0  0  0
  -28.0726  -20.1395   19.9495 C   0  0  0  0  0  0
  -29.1288  -20.6941   20.6312 C   0  0  0  0  0  0
  -29.7463  -18.3712   20.7072 C   0  0  0  0  0  0
  -28.6041  -25.7475   21.2297 C   0  0  0  0  0  0
  -30.5449  -17.0773   20.8637 C   0  0  0  0  0  0
  -28.7947  -24.4012   21.4580 C   0  0  0  0  0  0
  -28.6301  -23.2463   20.5270 C   0  0  0  0  0  0
  -29.2757  -22.1101   20.9601 N   0  0  0  0  0  0
  -30.0056  -15.8194   20.6984 N   0  0  0  0  0  0
  -31.7289  -17.2414   21.1827 O   0  0  0  0  0  0
  -27.9693  -23.2751   19.4870 O   0  0  0  0  0  0
  -29.1268  -24.0822   22.7198 O   0  0  0  0  0  0
  -28.2308  -18.3831   19.8256 S   0  0  0  0  0  0
  -31.4635  -12.4929   19.1386 H   0  0  0  0  0  0
  -30.3353  -11.4278   19.9279 H   0  0  0  0  0  0
  -29.7624  -11.7203   17.4989 H   0  0  0  0  0  0
  -29.6395  -13.4512   17.7146 H   0  0  0  0  0  0
  -27.8669  -11.2895   18.8890 H   0  0  0  0  0  0
  -27.3653  -12.5547   17.7997 H   0  0  0  0  0  0
  -27.6446  -14.2605   19.4851 H   0  0  0  0  0  0
  -28.7196  -12.1621   21.4340 H   0  0  0  0  0  0
  -28.4535  -13.8521   21.7884 H   0  0  0  0  0  0
  -25.2776   -9.5673   22.4795 H   0  0  0  0  0  0
  -23.9982   -7.4654   22.7523 H   0  0  0  0  0  0
  -21.0876   -8.8803   19.8935 H   0  0  0  0  0  0
  -22.3769  -10.9683   19.6146 H   0  0  0  0  0  0
  -21.2005   -7.6149   23.9700 H   0  0  0  0  0  0
  -21.1487   -6.0527   25.9068 H   0  0  0  0  0  0
  -22.0603   -2.7613   23.2861 H   0  0  0  0  0  0
  -22.4046  -11.9860   22.4799 H   0  0  0  0  0  0
  -21.1003  -13.1153   22.2472 H   0  0  0  0  0  0
  -24.6447  -15.8423   20.5091 H   0  0  0  0  0  0
  -26.2558  -15.6337   20.0501 H   0  0  0  0  0  0
  -26.7136  -32.5486   23.1110 H   0  0  0  0  0  0
  -25.0018  -33.9759   25.0418 H   0  0  0  0  0  0
  -22.7070  -31.3060   21.4060 H   0  0  0  0  0  0
  -23.3745  -35.9644   23.3337 H   0  0  0  0  0  0
  -24.3574  -36.8893   22.2054 H   0  0  0  0  0  0
  -23.7257  -37.6518   23.6646 H   0  0  0  0  0  0
  -26.0792  -31.5544   20.6004 H   0  0  0  0  0  0
  -26.8365  -30.8512   22.0024 H   0  0  0  0  0  0
  -28.1085  -28.9904   21.2175 H   0  0  0  0  0  0
  -26.0236  -25.9349   19.0106 H   0  0  0  0  0  0
  -23.9682  -27.3044   19.0205 H   0  0  0  0  0  0
  -23.7458  -30.5965   19.4065 H   0  0  0  0  0  0
  -22.7494  -29.2486   19.8651 H   0  0  0  0  0  0
  -25.1299  -36.1965   25.0830 H   0  0  0  0  0  0
  -20.9962  -28.3267   24.1407 H   0  0  0  0  0  0
  -20.5675  -26.2296   23.3615 H   0  0  0  0  0  0
  -21.6641  -26.7445   22.1215 H   0  0  0  0  0  0
  -19.6923  -25.6294   21.1247 H   0  0  0  0  0  0
  -19.6698  -27.3185   20.6742 H   0  0  0  0  0  0
  -17.4200  -26.6656   21.4028 H   0  0  0  0  0  0
  -18.0337  -26.0076   22.9028 H   0  0  0  0  0  0
  -19.7945  -30.7258   24.2272 H   0  0  0  0  0  0
  -17.5028  -31.6272   24.5151 H   0  0  0  0  0  0
  -15.5355  -30.2991   23.7664 H   0  0  0  0  0  0
  -15.8664  -28.0824   22.7071 H   0  0  0  0  0  0
  -24.5879  -30.7098   25.7774 H   0  0  0  0  0  0
  -24.8920  -32.2906   26.4887 H   0  0  0  0  0  0
  -25.8035  -30.8895   27.0230 H   0  0  0  0  0  0
  -26.2912  -29.6783   24.1182 H   0  0  0  0  0  0
  -27.4024  -29.7277   25.4661 H   0  0  0  0  0  0
  -27.8772  -30.4328   23.9400 H   0  0  0  0  0  0
  -27.2662  -33.3615   26.2089 H   0  0  0  0  0  0
  -28.3850  -32.6894   25.0327 H   0  0  0  0  0  0
  -28.0711  -31.8444   26.5406 H   0  0  0  0  0  0
  -28.2621  -38.0084   24.7461 H   0  0  0  0  0  0
  -28.1044  -36.2616   24.6370 H   0  0  0  0  0  0
  -27.2286  -37.1551   25.8872 H   0  0  0  0  0  0
  -20.9338  -29.8742   21.6878 H   0  0  0  0  0  0
  -26.0193  -38.2872   24.1346 H   0  0  0  0  0  0
  -30.9749  -19.9361   21.6019 H   0  0  0  0  0  0
  -27.2093  -20.6358   19.5195 H   0  0  0  0  0  0
  -28.7228  -26.4406   22.0514 H   0  0  0  0  0  0
  -29.9769  -22.3049   21.6620 H   0  0  0  0  0  0
  -29.0031  -15.7650   20.6536 H   0  0  0  0  0  0
  -28.9480  -23.1550   22.8263 H   0  0  0  0  0  0
  1 25  1  0  0  0
  1 30  2  0  0  0
  1 80  1  0  0  0
  2  3  1  0  0  0
  2 25  1  0  0  0
  2 85  1  0  0  0
  2 86  1  0  0  0
  3  4  1  0  0  0
  3 87  1  0  0  0
  3 88  1  0  0  0
  4  5  1  0  0  0
  4 89  1  0  0  0
  4 90  1  0  0  0
  5  6  1  0  0  0
  5 26  1  0  0  0
  5 91  1  0  0  0
  6 25  1  0  0  0
  6 92  1  0  0  0
  6 93  1  0  0  0
  7  8  2  0  0  0
  7 26  1  0  0  0
  7 29  1  0  0  0
  8  9  1  0  0  0
  8 22  1  0  0  0
  9 10  1  0  0  0
  9 27  2  0  0  0
 10 11  2  0  0  0
 10 15  1  0  0  0
 11 12  1  0  0  0
 11 94  1  0  0  0
 12 13  2  0  0  0
 12 95  1  0  0  0
 13 14  1  0  0  0
 13 31  1  0  0  0
 14 15  2  0  0  0
 14 96  1  0  0  0
 15 97  1  0  0  0
 16 17  2  0  0  0
 16 21  1  0  0  0
 16 31  1  0  0  0
 17 18  1  0  0  0
 17 98  1  0  0  0
 18 19  2  0  0  0
 18 99  1  0  0  0
 19 20  1  0  0  0
 19 24  1  0  0  0
 20 21  2  0  0  0
 20100  1  0  0  0
 21 23  1  0  0  0
 22 28  1  0  0  0
 22 32  2  0  0  0
 26 27  1  0  0  0
 28101  1  0  0  0
 28102  1  0  0  0
 29103  1  0  0  0
 29104  1  0  0  0
 33 34  1  0  0  0
 33 66  1  0  0  0
 33 70  2  0  0  0
 34 36  1  0  0  0
 34 59  1  0  0  0
 34105  1  0  0  0
 35 44  2  0  0  0
 35 45  1  0  0  0
 35 68  1  0  0  0
 36 56  1  0  0  0
 36106  1  0  0  0
 37 39  1  0  0  0
 37 47  1  0  0  0
 37 66  1  0  0  0
 37107  1  0  0  0
 38 43  2  0  0  0
 38 46  1  0  0  0
 38 47  1  0  0  0
 39 64  1  0  0  0
 39 67  2  0  0  0
 40 52  1  0  0  0
 40 53  2  0  0  0
 40 58  1  0  0  0
 41108  1  0  0  0
 41109  1  0  0  0
 41110  1  0  0  0
 41 48  1  0  0  0
 42 43  1  0  0  0
 42 66  1  0  0  0
 42111  1  0  0  0
 42112  1  0  0  0
 43 44  1  0  0  0
 44113  1  0  0  0
 45 46  2  0  0  0
 45114  1  0  0  0
 46115  1  0  0  0
 47116  1  0  0  0
 47117  1  0  0  0
 48 56  1  0  0  0
 48 65  1  0  0  0
 48118  1  0  0  0
 49 50  1  0  0  0
 49 53  1  0  0  0
 49 64  1  0  0  0
 49119  1  0  0  0
 50 51  1  0  0  0
 50120  1  0  0  0
 50121  1  0  0  0
 51 52  1  0  0  0
 51122  1  0  0  0
 51123  1  0  0  0
 52124  1  0  0  0
 52125  1  0  0  0
 53 54  1  0  0  0
 54 55  2  0  0  0
 54126  1  0  0  0
 55 57  1  0  0  0
 55127  1  0  0  0
 56 69  2  0  0  0
 57 58  2  0  0  0
 57128  1  0  0  0
 58129  1  0  0  0
 59 60  1  0  0  0
 59 61  1  0  0  0
 59 62  1  0  0  0
 60130  1  0  0  0
 60131  1  0  0  0
 60132  1  0  0  0
 61133  1  0  0  0
 61134  1  0  0  0
 61135  1  0  0  0
 62136  1  0  0  0
 62137  1  0  0  0
 62138  1  0  0  0
 63 65  1  0  0  0
 63139  1  0  0  0
 63140  1  0  0  0
 63141  1  0  0  0
 64142  1  0  0  0
 65143  1  0  0  0
 68 75  1  0  0  0
 71 73  1  0  0  0
 71 74  2  0  0  0
 71144  1  0  0  0
 72 73  2  0  0  0
 72 84  1  0  0  0
 72145  1  0  0  0
 73 79  1  0  0  0
 74 76  1  0  0  0
 74 84  1  0  0  0
 75 77  2  0  0  0
 75146  1  0  0  0
 76 80  1  0  0  0
 76 81  2  0  0  0
 77 78  1  0  0  0
 77 83  1  0  0  0
 78 79  1  0  0  0
 78 82  2  0  0  0
 79147  1  0  0  0
 80148  1  0  0  0
 83149  1  0  0  0
M  ISO  4   1 100  68 101  75 101  80 100
M  END
> <chiral flag>
0

> <version>
0

> <s_m_source_file>
/data/baiqing/PycharmProjects/Reinvent-master-3.2/result/LINK_invent/BTK/process_docking_weight1_custom_product_contain_oxygen_bond_distance_aromatic_linkinvent_7_9_3/rearranged_h_0177.sdf

> <i_m_source_file_index>
54

> <r_mmod_Potential_Energy-OPLS-2005>
-30.2696380615234

> <r_mmod_Stretch_Energy-OPLS-2005>
69.1993408203125

> <r_mmod_Bend_Energy-OPLS-2005>
160.189682006836

> <r_mmod_Torsional_Energy-OPLS-2005>
266.148162841797

> <r_mmod_Improper_Torsional_Energy-OPLS-2005>
6.34482574462891

> <r_mmod_Van_der_Waal_Energy-OPLS-2005>
127.652053833008

> <r_mmod_Electrostatic_Energy-OPLS-2005>
-456.580474853516

> <r_mmod_Solvation_Energy-OPLS-2005>
-255.275314331055

> <b_mmod_Minimization_Converged-OPLS-2005>
0

> <r_mmod_RMS_Derivative-OPLS-2005>
2.39349865913391

$$$$
54
                    3D
 Structure written by MMmdl.
156164  0  0  1  0            999 V2000
  -30.7393  -14.3968   20.6405 C   0  0  0  0  0  0
  -30.4157  -12.2891   19.3990 C   0  0  0  0  0  0
  -29.4847  -12.5213   18.1922 C   0  0  0  0  0  0
  -28.0065  -12.3846   18.6056 C   0  0  0  0  0  0
  -27.6642  -13.2043   19.8785 C   0  0  2  0  0  0
  -28.7034  -12.9461   20.9922 C   0  0  0  0  0  0
  -25.2597  -13.8164   20.5654 C   0  0  0  0  0  0
  -24.1841  -13.0446   20.9154 C   0  0  0  0  0  0
  -24.6394  -11.6909   20.8728 C   0  0  0  0  0  0
  -23.9056  -10.4299   21.0409 C   0  0  0  0  0  0
  -24.3609   -9.4210   21.9183 C   0  0  0  0  0  0
  -23.6280   -8.2248   22.0759 C   0  0  0  0  0  0
  -22.4260   -8.0291   21.3543 C   0  0  0  0  0  0
  -21.9898   -9.0274   20.4650 C   0  0  0  0  0  0
  -22.7230  -10.2151   20.3059 C   0  0  0  0  0  0
  -21.6853   -6.0734   22.5273 C   0  0  0  0  0  0
  -21.4017   -6.5638   23.8207 C   0  0  0  0  0  0
  -21.3651   -5.6799   24.9166 C   0  0  0  0  0  0
  -21.6041   -4.3062   24.7220 C   0  0  0  0  0  0
  -21.8820   -3.8143   23.4346 C   0  0  0  0  0  0
  -21.9188   -4.6957   22.3405 C   0  0  0  0  0  0
  -22.7866  -13.5248   21.1817 C   0  0  0  0  0  0
  -22.1660   -4.2137   21.0979 F   0  0  0  0  0  0
  -21.5617   -3.4550   25.7736 F   0  0  0  0  0  0
  -30.0402  -13.2481   20.4470 N   0  0  0  0  0  0
  -26.3029  -12.9329   20.3366 N   0  0  0  0  0  0
  -25.9319  -11.6483   20.5754 N   0  0  0  0  0  0
  -22.0507  -12.8260   22.0386 N   0  0  0  0  0  0
  -25.4348  -15.1878   20.4059 N   0  0  0  0  0  0
  -31.8139  -14.6395   20.0802 O   0  0  0  0  0  0
  -21.6638   -6.8877   21.4234 O   0  0  0  0  0  0
  -22.3552  -14.5559   20.6667 O   0  0  0  0  0  0
  -24.6141  -31.8700   23.2139 C   0  0  0  0  0  0
  -25.9040  -32.4837   23.8421 C   0  0  1  0  0  0
  -27.2246  -27.4524   20.0768 C   0  0  0  0  0  0
  -25.5904  -33.8637   24.2347 N   0  0  0  0  0  0
  -23.3995  -30.4980   21.5548 C   0  0  2  0  0  0
  -24.8392  -28.9704   20.1140 C   0  0  0  0  0  0
  -22.7403  -29.4674   22.4992 C   0  0  0  0  0  0
  -18.0280  -28.1358   22.8497 C   0  0  0  0  0  0
  -24.1473  -36.7323   23.2613 C   0  0  0  0  0  0
  -25.9277  -30.8406   21.3628 C   0  0  0  0  0  0
  -26.0009  -29.4773   20.7088 C   0  0  0  0  0  0
  -27.1954  -28.7239   20.6902 C   0  0  0  0  0  0
  -26.0397  -26.9611   19.4752 C   0  0  0  0  0  0
  -24.8516  -27.7092   19.4989 C   0  0  0  0  0  0
  -23.6048  -29.8387   20.1659 C   0  0  0  0  0  0
  -25.4076  -36.3119   24.0347 C   0  0  1  0  0  0
  -20.5868  -28.3647   23.1310 C   0  0  2  0  0  0
  -20.6762  -26.9387   22.5401 C   0  0  0  0  0  0
  -19.5739  -26.6376   21.5200 C   0  0  0  0  0  0
  -18.1928  -26.7903   22.1633 C   0  0  0  0  0  0
  -19.1532  -28.8821   23.2905 C   0  0  0  0  0  0
  -18.9456  -30.1424   23.8918 C   0  0  0  0  0  0
  -17.6462  -30.6564   24.0569 C   0  0  0  0  0  0
  -25.9032  -34.9490   23.5145 C   0  0  0  0  0  0
  -16.5352  -29.9077   23.6309 C   0  0  0  0  0  0
  -16.7272  -28.6488   23.0338 C   0  0  0  0  0  0
  -26.4463  -31.6607   25.0738 C   0  0  0  0  0  0
  -25.3737  -31.3715   26.1493 C   0  0  0  0  0  0
  -27.0278  -30.3058   24.6080 C   0  0  0  0  0  0
  -27.6055  -32.4296   25.7493 C   0  0  0  0  0  0
  -27.5620  -37.1733   24.8402 C   0  0  0  0  0  0
  -21.4135  -29.3033   22.3726 N   0  0  0  0  0  0
  -26.4231  -37.3840   23.9503 N   0  0  0  0  0  0
  -24.6660  -31.0823   22.1029 N   0  0  0  0  0  0
  -23.4184  -28.8201   23.3016 O   0  0  0  0  0  0
  -28.4046  -26.7371   20.0862 O   0  0  0  0  0  0
  -26.5591  -34.8941   22.4703 O   0  0  0  0  0  0
  -23.5336  -32.1435   23.7547 O   0  0  0  0  0  0
  -30.5944  -17.7180   21.4135 C   0  0  0  0  0  0
  -32.2576  -17.3750   23.6703 C   0  0  0  0  0  0
  -31.2441  -18.8388   21.9917 C   0  0  0  0  0  0
  -30.7880  -16.4324   21.9691 C   0  0  0  0  0  0
  -32.0766  -18.6533   23.1144 C   0  0  0  0  0  0
  -31.6096  -16.2646   23.1032 C   0  0  0  0  0  0
  -30.5894  -22.2612   20.5207 C   0  0  0  0  0  0
  -30.3597  -20.7285   20.5849 C   0  0  0  0  0  0
  -29.4727  -23.0992   19.8941 C   0  0  0  0  0  0
  -29.5918  -24.6129   20.1743 C   0  0  0  0  0  0
  -28.3188  -25.3508   19.7577 C   0  0  0  0  0  0
  -31.1380  -20.1760   21.5255 N   0  0  0  0  0  0
  -30.1376  -15.3039   21.4202 N   0  0  0  0  0  0
  -31.6124  -22.7905   20.9763 O   0  0  0  0  0  0
  -29.5500  -20.1349   19.8639 O   0  0  0  0  0  0
  -32.7039  -19.7226   23.6642 F   0  0  0  0  0  0
  -31.7755  -15.0348   23.6487 F   0  0  0  0  0  0
  -31.4605  -12.3841   19.0971 H   0  0  0  0  0  0
  -30.3076  -11.2705   19.7738 H   0  0  0  0  0  0
  -29.7161  -11.8130   17.3962 H   0  0  0  0  0  0
  -29.6580  -13.5145   17.7742 H   0  0  0  0  0  0
  -27.8055  -11.3270   18.7768 H   0  0  0  0  0  0
  -27.3581  -12.6830   17.7809 H   0  0  0  0  0  0
  -27.7192  -14.2596   19.6076 H   0  0  0  0  0  0
  -28.6707  -11.9004   21.3019 H   0  0  0  0  0  0
  -28.4573  -13.5139   21.8902 H   0  0  0  0  0  0
  -25.2768   -9.5680   22.4744 H   0  0  0  0  0  0
  -23.9976   -7.4652   22.7500 H   0  0  0  0  0  0
  -21.0813   -8.8809   19.8978 H   0  0  0  0  0  0
  -22.3690  -10.9695   19.6166 H   0  0  0  0  0  0
  -21.2028   -7.6155   23.9707 H   0  0  0  0  0  0
  -21.1463   -6.0531   25.9068 H   0  0  0  0  0  0
  -22.0605   -2.7602   23.2860 H   0  0  0  0  0  0
  -22.4120  -11.9916   22.4764 H   0  0  0  0  0  0
  -21.1151  -13.1330   22.2637 H   0  0  0  0  0  0
  -24.6724  -15.8487   20.5135 H   0  0  0  0  0  0
  -26.2928  -15.6212   20.0874 H   0  0  0  0  0  0
  -26.7118  -32.5552   23.1193 H   0  0  0  0  0  0
  -25.0064  -33.9798   25.0500 H   0  0  0  0  0  0
  -22.6885  -31.3158   21.4206 H   0  0  0  0  0  0
  -23.3778  -35.9602   23.3125 H   0  0  0  0  0  0
  -24.3633  -36.9081   22.2066 H   0  0  0  0  0  0
  -23.7133  -37.6451   23.6702 H   0  0  0  0  0  0
  -26.0336  -31.6071   20.5942 H   0  0  0  0  0  0
  -26.8189  -30.8952   21.9760 H   0  0  0  0  0  0
  -28.0932  -29.1117   21.1506 H   0  0  0  0  0  0
  -26.0043  -26.0055   18.9729 H   0  0  0  0  0  0
  -23.9579  -27.3138   19.0346 H   0  0  0  0  0  0
  -23.7185  -30.6182   19.4121 H   0  0  0  0  0  0
  -22.7260  -29.2647   19.8643 H   0  0  0  0  0  0
  -25.1207  -36.1959   25.0826 H   0  0  0  0  0  0
  -20.9975  -28.3201   24.1426 H   0  0  0  0  0  0
  -20.5652  -26.2263   23.3588 H   0  0  0  0  0  0
  -21.6632  -26.7412   22.1200 H   0  0  0  0  0  0
  -19.6898  -25.6294   21.1212 H   0  0  0  0  0  0
  -19.6666  -27.3201   20.6742 H   0  0  0  0  0  0
  -17.4186  -26.6634   21.4050 H   0  0  0  0  0  0
  -18.0356  -26.0039   22.9032 H   0  0  0  0  0  0
  -19.7938  -30.7229   24.2299 H   0  0  0  0  0  0
  -17.5017  -31.6244   24.5174 H   0  0  0  0  0  0
  -15.5355  -30.2991   23.7598 H   0  0  0  0  0  0
  -15.8676  -28.0813   22.7033 H   0  0  0  0  0  0
  -24.5938  -30.7015   25.7854 H   0  0  0  0  0  0
  -24.8893  -32.2869   26.4902 H   0  0  0  0  0  0
  -25.8110  -30.8939   27.0271 H   0  0  0  0  0  0
  -26.2816  -29.6844   24.1114 H   0  0  0  0  0  0
  -27.4046  -29.7265   25.4518 H   0  0  0  0  0  0
  -27.8648  -30.4396   23.9225 H   0  0  0  0  0  0
  -27.2702  -33.3580   26.2120 H   0  0  0  0  0  0
  -28.3846  -32.6866   25.0307 H   0  0  0  0  0  0
  -28.0735  -31.8376   26.5366 H   0  0  0  0  0  0
  -28.2381  -38.0276   24.7857 H   0  0  0  0  0  0
  -28.1365  -36.2865   24.5683 H   0  0  0  0  0  0
  -27.2430  -37.0706   25.8788 H   0  0  0  0  0  0
  -20.9281  -29.8808   21.7002 H   0  0  0  0  0  0
  -26.0104  -38.2850   24.1763 H   0  0  0  0  0  0
  -29.9602  -17.8221   20.5468 H   0  0  0  0  0  0
  -32.8916  -17.2473   24.5330 H   0  0  0  0  0  0
  -28.5264  -22.7266   20.2860 H   0  0  0  0  0  0
  -29.4585  -22.9149   18.8200 H   0  0  0  0  0  0
  -30.4511  -25.0273   19.6472 H   0  0  0  0  0  0
  -29.7664  -24.7831   21.2376 H   0  0  0  0  0  0
  -27.4787  -24.8916   20.2826 H   0  0  0  0  0  0
  -28.1524  -25.2297   18.6859 H   0  0  0  0  0  0
  -31.7266  -20.8510   22.0019 H   0  0  0  0  0  0
  -29.2497  -15.0430   21.8209 H   0  0  0  0  0  0
  1 25  1  0  0  0
  1 30  2  0  0  0
  1 83  1  0  0  0
  2  3  1  0  0  0
  2 25  1  0  0  0
  2 88  1  0  0  0
  2 89  1  0  0  0
  3  4  1  0  0  0
  3 90  1  0  0  0
  3 91  1  0  0  0
  4  5  1  0  0  0
  4 92  1  0  0  0
  4 93  1  0  0  0
  5  6  1  0  0  0
  5 26  1  0  0  0
  5 94  1  0  0  0
  6 25  1  0  0  0
  6 95  1  0  0  0
  6 96  1  0  0  0
  7  8  2  0  0  0
  7 26  1  0  0  0
  7 29  1  0  0  0
  8  9  1  0  0  0
  8 22  1  0  0  0
  9 10  1  0  0  0
  9 27  2  0  0  0
 10 11  2  0  0  0
 10 15  1  0  0  0
 11 12  1  0  0  0
 11 97  1  0  0  0
 12 13  2  0  0  0
 12 98  1  0  0  0
 13 14  1  0  0  0
 13 31  1  0  0  0
 14 15  2  0  0  0
 14 99  1  0  0  0
 15100  1  0  0  0
 16 17  2  0  0  0
 16 21  1  0  0  0
 16 31  1  0  0  0
 17 18  1  0  0  0
 17101  1  0  0  0
 18 19  2  0  0  0
 18102  1  0  0  0
 19 20  1  0  0  0
 19 24  1  0  0  0
 20 21  2  0  0  0
 20103  1  0  0  0
 21 23  1  0  0  0
 22 28  1  0  0  0
 22 32  2  0  0  0
 26 27  1  0  0  0
 28104  1  0  0  0
 28105  1  0  0  0
 29106  1  0  0  0
 29107  1  0  0  0
 33 34  1  0  0  0
 33 66  1  0  0  0
 33 70  2  0  0  0
 34 36  1  0  0  0
 34 59  1  0  0  0
 34108  1  0  0  0
 35 44  2  0  0  0
 35 45  1  0  0  0
 35 68  1  0  0  0
 36 56  1  0  0  0
 36109  1  0  0  0
 37 39  1  0  0  0
 37 47  1  0  0  0
 37 66  1  0  0  0
 37110  1  0  0  0
 38 43  2  0  0  0
 38 46  1  0  0  0
 38 47  1  0  0  0
 39 64  1  0  0  0
 39 67  2  0  0  0
 40 52  1  0  0  0
 40 53  2  0  0  0
 40 58  1  0  0  0
 41111  1  0  0  0
 41112  1  0  0  0
 41113  1  0  0  0
 41 48  1  0  0  0
 42 43  1  0  0  0
 42 66  1  0  0  0
 42114  1  0  0  0
 42115  1  0  0  0
 43 44  1  0  0  0
 44116  1  0  0  0
 45 46  2  0  0  0
 45117  1  0  0  0
 46118  1  0  0  0
 47119  1  0  0  0
 47120  1  0  0  0
 48 56  1  0  0  0
 48 65  1  0  0  0
 48121  1  0  0  0
 49 50  1  0  0  0
 49 53  1  0  0  0
 49 64  1  0  0  0
 49122  1  0  0  0
 50 51  1  0  0  0
 50123  1  0  0  0
 50124  1  0  0  0
 51 52  1  0  0  0
 51125  1  0  0  0
 51126  1  0  0  0
 52127  1  0  0  0
 52128  1  0  0  0
 53 54  1  0  0  0
 54 55  2  0  0  0
 54129  1  0  0  0
 55 57  1  0  0  0
 55130  1  0  0  0
 56 69  2  0  0  0
 57 58  2  0  0  0
 57131  1  0  0  0
 58132  1  0  0  0
 59 60  1  0  0  0
 59 61  1  0  0  0
 59 62  1  0  0  0
 60133  1  0  0  0
 60134  1  0  0  0
 60135  1  0  0  0
 61136  1  0  0  0
 61137  1  0  0  0
 61138  1  0  0  0
 62139  1  0  0  0
 62140  1  0  0  0
 62141  1  0  0  0
 63 65  1  0  0  0
 63142  1  0  0  0
 63143  1  0  0  0
 63144  1  0  0  0
 64145  1  0  0  0
 65146  1  0  0  0
 68 81  1  0  0  0
 71 73  2  0  0  0
 71 74  1  0  0  0
 71147  1  0  0  0
 72 75  2  0  0  0
 72 76  1  0  0  0
 72148  1  0  0  0
 73 75  1  0  0  0
 73 82  1  0  0  0
 74 76  2  0  0  0
 74 83  1  0  0  0
 75 86  1  0  0  0
 76 87  1  0  0  0
 77 78  1  0  0  0
 77 79  1  0  0  0
 77 84  2  0  0  0
 78 82  1  0  0  0
 78 85  2  0  0  0
 79 80  1  0  0  0
 79149  1  0  0  0
 79150  1  0  0  0
 80 81  1  0  0  0
 80151  1  0  0  0
 80152  1  0  0  0
 81153  1  0  0  0
 81154  1  0  0  0
 82155  1  0  0  0
 83156  1  0  0  0
M  ISO  4   1 100  68 101  81 101  83 100
M  END
> <chiral flag>
0

> <version>
0

> <s_m_source_file>
/data/baiqing/PycharmProjects/Reinvent-master-3.2/result/LINK_invent/BTK/process_docking_weight1_custom_product_contain_oxygen_bond_distance_aromatic_linkinvent_7_9_3/rearranged_h_0177.sdf

> <i_m_source_file_index>
55

> <r_mmod_Potential_Energy-OPLS-2005>
-130.508514404297

> <r_mmod_Stretch_Energy-OPLS-2005>
33.1723556518555

> <r_mmod_Bend_Energy-OPLS-2005>
100.771629333496

> <r_mmod_Torsional_Energy-OPLS-2005>
234.786117553711

> <r_mmod_Improper_Torsional_Energy-OPLS-2005>
2.95235347747803

> <r_mmod_Van_der_Waal_Energy-OPLS-2005>
167.063705444336

> <r_mmod_Electrostatic_Energy-OPLS-2005>
-455.848846435547

> <r_mmod_Solvation_Energy-OPLS-2005>
-222.254272460938

> <b_mmod_Minimization_Converged-OPLS-2005>
0

> <r_mmod_RMS_Derivative-OPLS-2005>
1.93962824344635

$$$$
55
                    3D
 Structure written by MMmdl.
161169  0  0  1  0            999 V2000
  -30.7488  -14.4388   20.5774 C   0  0  0  0  0  0
  -30.4066  -12.2900   19.4238 C   0  0  0  0  0  0
  -29.4866  -12.5027   18.2059 C   0  0  0  0  0  0
  -28.0083  -12.3721   18.6187 C   0  0  0  0  0  0
  -27.6593  -13.2123   19.8766 C   0  0  2  0  0  0
  -28.7024  -13.0068   21.0000 C   0  0  0  0  0  0
  -25.2565  -13.8191   20.5689 C   0  0  0  0  0  0
  -24.1822  -13.0456   20.9193 C   0  0  0  0  0  0
  -24.6388  -11.6923   20.8743 C   0  0  0  0  0  0
  -23.9065  -10.4303   21.0405 C   0  0  0  0  0  0
  -24.3624   -9.4220   21.9186 C   0  0  0  0  0  0
  -23.6296   -8.2252   22.0760 C   0  0  0  0  0  0
  -22.4277   -8.0282   21.3544 C   0  0  0  0  0  0
  -21.9914   -9.0260   20.4648 C   0  0  0  0  0  0
  -22.7237  -10.2144   20.3056 C   0  0  0  0  0  0
  -21.6850   -6.0742   22.5278 C   0  0  0  0  0  0
  -21.4010   -6.5644   23.8211 C   0  0  0  0  0  0
  -21.3661   -5.6793   24.9173 C   0  0  0  0  0  0
  -21.6051   -4.3059   24.7225 C   0  0  0  0  0  0
  -21.8813   -3.8155   23.4341 C   0  0  0  0  0  0
  -21.9190   -4.6970   22.3396 C   0  0  0  0  0  0
  -22.7840  -13.5244   21.1863 C   0  0  0  0  0  0
  -22.1655   -4.2160   21.0968 F   0  0  0  0  0  0
  -21.5640   -3.4540   25.7738 F   0  0  0  0  0  0
  -30.0350  -13.2873   20.4408 N   0  0  0  0  0  0
  -26.3006  -12.9370   20.3389 N   0  0  0  0  0  0
  -25.9323  -11.6528   20.5813 N   0  0  0  0  0  0
  -22.0484  -12.8214   22.0404 N   0  0  0  0  0  0
  -25.4278  -15.1911   20.4089 N   0  0  0  0  0  0
  -31.8639  -14.5728   20.0651 O   0  0  0  0  0  0
  -21.6635   -6.8884   21.4242 O   0  0  0  0  0  0
  -22.3522  -14.5547   20.6715 O   0  0  0  0  0  0
  -24.6141  -31.8682   23.2131 C   0  0  0  0  0  0
  -25.9032  -32.4831   23.8420 C   0  0  1  0  0  0
  -27.2493  -27.4508   20.0951 C   0  0  0  0  0  0
  -25.5906  -33.8629   24.2368 N   0  0  0  0  0  0
  -23.4035  -30.4891   21.5532 C   0  0  2  0  0  0
  -24.8539  -28.9554   20.1184 C   0  0  0  0  0  0
  -22.7426  -29.4630   22.5012 C   0  0  0  0  0  0
  -18.0260  -28.1386   22.8459 C   0  0  0  0  0  0
  -24.1485  -36.7317   23.2642 C   0  0  0  0  0  0
  -25.9276  -30.8369   21.3645 C   0  0  0  0  0  0
  -26.0082  -29.4681   20.7224 C   0  0  0  0  0  0
  -27.2076  -28.7216   20.7195 C   0  0  0  0  0  0
  -26.0819  -26.9556   19.4798 C   0  0  0  0  0  0
  -24.8822  -27.6938   19.4993 C   0  0  0  0  0  0
  -23.6135  -29.8189   20.1677 C   0  0  0  0  0  0
  -25.4101  -36.3122   24.0352 C   0  0  1  0  0  0
  -20.5855  -28.3660   23.1334 C   0  0  2  0  0  0
  -20.6756  -26.9398   22.5420 C   0  0  0  0  0  0
  -19.5736  -26.6378   21.5207 C   0  0  0  0  0  0
  -18.1904  -26.7920   22.1610 C   0  0  0  0  0  0
  -19.1515  -28.8834   23.2887 C   0  0  0  0  0  0
  -18.9448  -30.1427   23.8925 C   0  0  0  0  0  0
  -17.6463  -30.6588   24.0555 C   0  0  0  0  0  0
  -25.9041  -34.9485   23.5153 C   0  0  0  0  0  0
  -16.5341  -29.9093   23.6333 C   0  0  0  0  0  0
  -16.7253  -28.6512   23.0338 C   0  0  0  0  0  0
  -26.4473  -31.6589   25.0721 C   0  0  0  0  0  0
  -25.3753  -31.3687   26.1481 C   0  0  0  0  0  0
  -27.0287  -30.3052   24.6028 C   0  0  0  0  0  0
  -27.6058  -32.4289   25.7490 C   0  0  0  0  0  0
  -27.5582  -37.1802   24.8462 C   0  0  0  0  0  0
  -21.4149  -29.3023   22.3748 N   0  0  0  0  0  0
  -26.4299  -37.3797   23.9409 N   0  0  0  0  0  0
  -24.6667  -31.0790   22.1033 N   0  0  0  0  0  0
  -23.4188  -28.8158   23.3061 O   0  0  0  0  0  0
  -28.3755  -26.6606   20.0249 O   0  0  0  0  0  0
  -26.5575  -34.8924   22.4702 O   0  0  0  0  0  0
  -23.5328  -32.1408   23.7521 O   0  0  0  0  0  0
  -32.1667  -18.4595   21.4747 C   0  0  0  0  0  0
  -31.0454  -19.2535   21.3435 C   0  0  0  0  0  0
  -30.6033  -16.8015   21.3030 C   0  0  0  0  0  0
  -30.6514  -22.9621   21.0755 C   0  0  0  0  0  0
  -30.1047  -21.5329   21.3787 C   0  0  0  0  0  0
  -34.4359  -18.5026   20.3743 C   0  0  0  0  0  0
  -34.2381  -18.4373   22.9132 C   0  0  0  0  0  0
  -29.6609  -24.1365   21.1697 C   0  0  0  0  0  0
  -29.2838  -26.7012   21.1209 C   0  0  0  0  0  0
  -33.6007  -18.9143   21.5991 C   0  0  0  0  0  0
  -30.2969  -25.5420   21.0151 C   0  0  1  0  0  0
  -31.8981  -17.0861   21.4685 N   0  0  0  0  0  0
  -31.0763  -20.6128   21.2493 N   0  0  0  0  0  0
  -30.1153  -15.4669   21.1755 N   0  0  0  0  0  0
  -31.8328  -23.1405   20.7461 O   0  0  0  0  0  0
  -28.9370  -21.3081   21.7127 O   0  0  0  0  0  0
  -31.2226  -25.7283   21.9606 F   0  0  0  0  0  0
  -29.5964  -18.2462   21.2557 S   0  0  0  0  0  0
  -31.4532  -12.3585   19.1213 H   0  0  0  0  0  0
  -30.2849  -11.2841   19.8286 H   0  0  0  0  0  0
  -29.7217  -11.7807   17.4229 H   0  0  0  0  0  0
  -29.6605  -13.4890   17.7733 H   0  0  0  0  0  0
  -27.8089  -11.3171   18.8104 H   0  0  0  0  0  0
  -27.3593  -12.6563   17.7893 H   0  0  0  0  0  0
  -27.7013  -14.2592   19.5769 H   0  0  0  0  0  0
  -28.6713  -11.9792   21.3655 H   0  0  0  0  0  0
  -28.4716  -13.6314   21.8643 H   0  0  0  0  0  0
  -25.2774   -9.5699   22.4750 H   0  0  0  0  0  0
  -24.0009   -7.4650   22.7475 H   0  0  0  0  0  0
  -21.0850   -8.8783   19.8944 H   0  0  0  0  0  0
  -22.3701  -10.9691   19.6165 H   0  0  0  0  0  0
  -21.1987   -7.6152   23.9720 H   0  0  0  0  0  0
  -21.1494   -6.0521   25.9077 H   0  0  0  0  0  0
  -22.0588   -2.7615   23.2834 H   0  0  0  0  0  0
  -22.4096  -11.9859   22.4762 H   0  0  0  0  0  0
  -21.1111  -13.1252   22.2653 H   0  0  0  0  0  0
  -24.6613  -15.8476   20.5121 H   0  0  0  0  0  0
  -26.2779  -15.6289   20.0760 H   0  0  0  0  0  0
  -26.7102  -32.5578   23.1203 H   0  0  0  0  0  0
  -25.0069  -33.9798   25.0519 H   0  0  0  0  0  0
  -22.6916  -31.3057   21.4129 H   0  0  0  0  0  0
  -23.3755  -35.9643   23.3300 H   0  0  0  0  0  0
  -24.3588  -36.8934   22.2057 H   0  0  0  0  0  0
  -23.7218  -37.6522   23.6640 H   0  0  0  0  0  0
  -26.0258  -31.5951   20.5865 H   0  0  0  0  0  0
  -26.8229  -30.9054   21.9707 H   0  0  0  0  0  0
  -28.0936  -29.1328   21.1810 H   0  0  0  0  0  0
  -26.0976  -25.9922   18.9921 H   0  0  0  0  0  0
  -23.9943  -27.2943   19.0293 H   0  0  0  0  0  0
  -23.7226  -30.5943   19.4089 H   0  0  0  0  0  0
  -22.7394  -29.2380   19.8697 H   0  0  0  0  0  0
  -25.1268  -36.2016   25.0848 H   0  0  0  0  0  0
  -20.9908  -28.3200   24.1472 H   0  0  0  0  0  0
  -20.5678  -26.2254   23.3600 H   0  0  0  0  0  0
  -21.6622  -26.7441   22.1200 H   0  0  0  0  0  0
  -19.6923  -25.6294   21.1221 H   0  0  0  0  0  0
  -19.6713  -27.3209   20.6754 H   0  0  0  0  0  0
  -17.4182  -26.6659   21.4004 H   0  0  0  0  0  0
  -18.0304  -26.0072   22.9027 H   0  0  0  0  0  0
  -19.7927  -30.7189   24.2346 H   0  0  0  0  0  0
  -17.5025  -31.6280   24.5117 H   0  0  0  0  0  0
  -15.5349  -30.3008   23.7648 H   0  0  0  0  0  0
  -15.8640  -28.0837   22.7072 H   0  0  0  0  0  0
  -24.5928  -30.7048   25.7805 H   0  0  0  0  0  0
  -24.8948  -32.2843   26.4945 H   0  0  0  0  0  0
  -25.8105  -30.8832   27.0226 H   0  0  0  0  0  0
  -26.2783  -29.6855   24.1105 H   0  0  0  0  0  0
  -27.4127  -29.7254   25.4432 H   0  0  0  0  0  0
  -27.8604  -30.4420   23.9105 H   0  0  0  0  0  0
  -27.2700  -33.3589   26.2084 H   0  0  0  0  0  0
  -28.3879  -32.6840   25.0330 H   0  0  0  0  0  0
  -28.0716  -31.8403   26.5407 H   0  0  0  0  0  0
  -28.2575  -38.0118   24.7513 H   0  0  0  0  0  0
  -28.1095  -36.2646   24.6273 H   0  0  0  0  0  0
  -27.2288  -37.1434   25.8861 H   0  0  0  0  0  0
  -20.9314  -29.8771   21.6992 H   0  0  0  0  0  0
  -26.0206  -38.2883   24.1431 H   0  0  0  0  0  0
  -34.0252  -18.9340   19.4605 H   0  0  0  0  0  0
  -34.4566  -17.4197   20.2470 H   0  0  0  0  0  0
  -35.4674  -18.8439   20.4643 H   0  0  0  0  0  0
  -33.6667  -18.7939   23.7715 H   0  0  0  0  0  0
  -35.2567  -18.8098   23.0180 H   0  0  0  0  0  0
  -34.2762  -17.3493   22.9688 H   0  0  0  0  0  0
  -29.1381  -24.0720   22.1233 H   0  0  0  0  0  0
  -28.9107  -23.9895   20.3936 H   0  0  0  0  0  0
  -29.8230  -27.6492   21.1134 H   0  0  0  0  0  0
  -28.7455  -26.6365   22.0683 H   0  0  0  0  0  0
  -33.6256  -20.0042   21.6322 H   0  0  0  0  0  0
  -30.8249  -25.6134   20.0620 H   0  0  0  0  0  0
  -31.9713  -21.0373   21.0330 H   0  0  0  0  0  0
  -29.1528  -15.3131   21.4261 H   0  0  0  0  0  0
  1 25  1  0  0  0
  1 30  2  0  0  0
  1 84  1  0  0  0
  2  3  1  0  0  0
  2 25  1  0  0  0
  2 89  1  0  0  0
  2 90  1  0  0  0
  3  4  1  0  0  0
  3 91  1  0  0  0
  3 92  1  0  0  0
  4  5  1  0  0  0
  4 93  1  0  0  0
  4 94  1  0  0  0
  5  6  1  0  0  0
  5 26  1  0  0  0
  5 95  1  0  0  0
  6 25  1  0  0  0
  6 96  1  0  0  0
  6 97  1  0  0  0
  7  8  2  0  0  0
  7 26  1  0  0  0
  7 29  1  0  0  0
  8  9  1  0  0  0
  8 22  1  0  0  0
  9 10  1  0  0  0
  9 27  2  0  0  0
 10 11  2  0  0  0
 10 15  1  0  0  0
 11 12  1  0  0  0
 11 98  1  0  0  0
 12 13  2  0  0  0
 12 99  1  0  0  0
 13 14  1  0  0  0
 13 31  1  0  0  0
 14 15  2  0  0  0
 14100  1  0  0  0
 15101  1  0  0  0
 16 17  2  0  0  0
 16 21  1  0  0  0
 16 31  1  0  0  0
 17 18  1  0  0  0
 17102  1  0  0  0
 18 19  2  0  0  0
 18103  1  0  0  0
 19 20  1  0  0  0
 19 24  1  0  0  0
 20 21  2  0  0  0
 20104  1  0  0  0
 21 23  1  0  0  0
 22 28  1  0  0  0
 22 32  2  0  0  0
 26 27  1  0  0  0
 28105  1  0  0  0
 28106  1  0  0  0
 29107  1  0  0  0
 29108  1  0  0  0
 33 34  1  0  0  0
 33 66  1  0  0  0
 33 70  2  0  0  0
 34 36  1  0  0  0
 34 59  1  0  0  0
 34109  1  0  0  0
 35 44  2  0  0  0
 35 45  1  0  0  0
 35 68  1  0  0  0
 36 56  1  0  0  0
 36110  1  0  0  0
 37 39  1  0  0  0
 37 47  1  0  0  0
 37 66  1  0  0  0
 37111  1  0  0  0
 38 43  2  0  0  0
 38 46  1  0  0  0
 38 47  1  0  0  0
 39 64  1  0  0  0
 39 67  2  0  0  0
 40 52  1  0  0  0
 40 53  2  0  0  0
 40 58  1  0  0  0
 41112  1  0  0  0
 41113  1  0  0  0
 41114  1  0  0  0
 41 48  1  0  0  0
 42 43  1  0  0  0
 42 66  1  0  0  0
 42115  1  0  0  0
 42116  1  0  0  0
 43 44  1  0  0  0
 44117  1  0  0  0
 45 46  2  0  0  0
 45118  1  0  0  0
 46119  1  0  0  0
 47120  1  0  0  0
 47121  1  0  0  0
 48 56  1  0  0  0
 48 65  1  0  0  0
 48122  1  0  0  0
 49 50  1  0  0  0
 49 53  1  0  0  0
 49 64  1  0  0  0
 49123  1  0  0  0
 50 51  1  0  0  0
 50124  1  0  0  0
 50125  1  0  0  0
 51 52  1  0  0  0
 51126  1  0  0  0
 51127  1  0  0  0
 52128  1  0  0  0
 52129  1  0  0  0
 53 54  1  0  0  0
 54 55  2  0  0  0
 54130  1  0  0  0
 55 57  1  0  0  0
 55131  1  0  0  0
 56 69  2  0  0  0
 57 58  2  0  0  0
 57132  1  0  0  0
 58133  1  0  0  0
 59 60  1  0  0  0
 59 61  1  0  0  0
 59 62  1  0  0  0
 60134  1  0  0  0
 60135  1  0  0  0
 60136  1  0  0  0
 61137  1  0  0  0
 61138  1  0  0  0
 61139  1  0  0  0
 62140  1  0  0  0
 62141  1  0  0  0
 62142  1  0  0  0
 63 65  1  0  0  0
 63143  1  0  0  0
 63144  1  0  0  0
 63145  1  0  0  0
 64146  1  0  0  0
 65147  1  0  0  0
 68 79  1  0  0  0
 71 72  2  0  0  0
 71 80  1  0  0  0
 71 82  1  0  0  0
 72 83  1  0  0  0
 72 88  1  0  0  0
 73 82  2  0  0  0
 73 84  1  0  0  0
 73 88  1  0  0  0
 74 75  1  0  0  0
 74 78  1  0  0  0
 74 85  2  0  0  0
 75 83  1  0  0  0
 75 86  2  0  0  0
 76148  1  0  0  0
 76149  1  0  0  0
 76150  1  0  0  0
 76 80  1  0  0  0
 77 80  1  0  0  0
 77151  1  0  0  0
 77152  1  0  0  0
 77153  1  0  0  0
 78 81  1  0  0  0
 78154  1  0  0  0
 78155  1  0  0  0
 79 81  1  0  0  0
 79156  1  0  0  0
 79157  1  0  0  0
 80158  1  0  0  0
 81 87  1  0  0  0
 81159  1  0  0  0
 83160  1  0  0  0
 84161  1  0  0  0
M  ISO  4   1 100  68 101  79 101  84 100
M  END
> <chiral flag>
0

> <version>
0

> <s_m_source_file>
/data/baiqing/PycharmProjects/Reinvent-master-3.2/result/LINK_invent/BTK/process_docking_weight1_custom_product_contain_oxygen_bond_distance_aromatic_linkinvent_7_9_3/rearranged_h_0177.sdf

> <i_m_source_file_index>
56

> <r_mmod_Potential_Energy-OPLS-2005>
-161.7978515625

> <r_mmod_Stretch_Energy-OPLS-2005>
35.7683563232422

> <r_mmod_Bend_Energy-OPLS-2005>
111.303207397461

> <r_mmod_Torsional_Energy-OPLS-2005>
188.343505859375

> <r_mmod_Improper_Torsional_Energy-OPLS-2005>
3.43043971061707

> <r_mmod_Van_der_Waal_Energy-OPLS-2005>
136.779800415039

> <r_mmod_Electrostatic_Energy-OPLS-2005>
-412.293395996094

> <r_mmod_Solvation_Energy-OPLS-2005>
-236.338363647461

> <b_mmod_Minimization_Converged-OPLS-2005>
0

> <r_mmod_RMS_Derivative-OPLS-2005>
2.62558078765869

$$$$
56
                    3D
 Structure written by MMmdl.
158166  0  0  1  0            999 V2000
  -30.6627  -14.5792   20.5459 C   0  0  0  0  0  0
  -30.4435  -12.3663   19.4312 C   0  0  0  0  0  0
  -29.5060  -12.5062   18.2128 C   0  0  0  0  0  0
  -28.0331  -12.3417   18.6339 C   0  0  0  0  0  0
  -27.6681  -13.1982   19.8717 C   0  0  2  0  0  0
  -28.7160  -13.0303   20.9962 C   0  0  0  0  0  0
  -25.2708  -13.7967   20.5732 C   0  0  0  0  0  0
  -24.1883  -13.0337   20.9142 C   0  0  0  0  0  0
  -24.6440  -11.6810   20.8730 C   0  0  0  0  0  0
  -23.9087  -10.4238   21.0426 C   0  0  0  0  0  0
  -24.3636   -9.4158   21.9197 C   0  0  0  0  0  0
  -23.6275   -8.2219   22.0783 C   0  0  0  0  0  0
  -22.4252   -8.0281   21.3570 C   0  0  0  0  0  0
  -21.9898   -9.0259   20.4677 C   0  0  0  0  0  0
  -22.7271  -10.2108   20.3081 C   0  0  0  0  0  0
  -21.6824   -6.0729   22.5280 C   0  0  0  0  0  0
  -21.4001   -6.5636   23.8219 C   0  0  0  0  0  0
  -21.3667   -5.6797   24.9182 C   0  0  0  0  0  0
  -21.6050   -4.3055   24.7226 C   0  0  0  0  0  0
  -21.8829   -3.8144   23.4344 C   0  0  0  0  0  0
  -21.9182   -4.6959   22.3403 C   0  0  0  0  0  0
  -22.7943  -13.5227   21.1780 C   0  0  0  0  0  0
  -22.1653   -4.2159   21.0974 F   0  0  0  0  0  0
  -21.5628   -3.4539   25.7728 F   0  0  0  0  0  0
  -30.0392  -13.3656   20.4428 N   0  0  0  0  0  0
  -26.3123  -12.9169   20.3400 N   0  0  0  0  0  0
  -25.9393  -11.6346   20.5806 N   0  0  0  0  0  0
  -22.0550  -12.8269   22.0345 N   0  0  0  0  0  0
  -25.4595  -15.1579   20.4281 N   0  0  0  0  0  0
  -31.7745  -14.7790   20.0437 O   0  0  0  0  0  0
  -21.6621   -6.8873   21.4247 O   0  0  0  0  0  0
  -22.3691  -14.5555   20.6634 O   0  0  0  0  0  0
  -24.6223  -31.8637   23.2025 C   0  0  0  0  0  0
  -25.9083  -32.4785   23.8387 C   0  0  1  0  0  0
  -27.2431  -27.3693   20.1274 C   0  0  0  0  0  0
  -25.5911  -33.8589   24.2286 N   0  0  0  0  0  0
  -23.4137  -30.4809   21.5417 C   0  0  2  0  0  0
  -24.8622  -28.9349   20.1108 C   0  0  0  0  0  0
  -22.7483  -29.4632   22.4936 C   0  0  0  0  0  0
  -18.0314  -28.1381   22.8487 C   0  0  0  0  0  0
  -24.1479  -36.7325   23.2632 C   0  0  0  0  0  0
  -25.9456  -30.8123   21.3569 C   0  0  0  0  0  0
  -26.0206  -29.4382   20.7131 C   0  0  0  0  0  0
  -27.2083  -28.6640   20.7143 C   0  0  0  0  0  0
  -26.0650  -26.8999   19.4976 C   0  0  0  0  0  0
  -24.8833  -27.6747   19.4855 C   0  0  0  0  0  0
  -23.6282  -29.8061   20.1591 C   0  0  0  0  0  0
  -25.4105  -36.3099   24.0329 C   0  0  1  0  0  0
  -20.5892  -28.3696   23.1339 C   0  0  2  0  0  0
  -20.6763  -26.9375   22.5658 C   0  0  0  0  0  0
  -19.5828  -26.6265   21.5386 C   0  0  0  0  0  0
  -18.1998  -26.7821   22.1778 C   0  0  0  0  0  0
  -19.1537  -28.8893   23.2893 C   0  0  0  0  0  0
  -18.9464  -30.1493   23.8918 C   0  0  0  0  0  0
  -17.6462  -30.6614   24.0505 C   0  0  0  0  0  0
  -25.9050  -34.9476   23.5126 C   0  0  0  0  0  0
  -16.5358  -29.9085   23.6224 C   0  0  0  0  0  0
  -16.7282  -28.6492   23.0290 C   0  0  0  0  0  0
  -26.4494  -31.6575   25.0721 C   0  0  0  0  0  0
  -25.3747  -31.3705   26.1446 C   0  0  0  0  0  0
  -27.0315  -30.3029   24.6076 C   0  0  0  0  0  0
  -27.6052  -32.4306   25.7471 C   0  0  0  0  0  0
  -27.5577  -37.1812   24.8460 C   0  0  0  0  0  0
  -21.4196  -29.2972   22.3636 N   0  0  0  0  0  0
  -26.4291  -37.3783   23.9406 N   0  0  0  0  0  0
  -24.6783  -31.0723   22.0904 N   0  0  0  0  0  0
  -23.4238  -28.8303   23.3093 O   0  0  0  0  0  0
  -28.4210  -26.6305   20.1864 O   0  0  0  0  0  0
  -26.5610  -34.8927   22.4676 O   0  0  0  0  0  0
  -23.5402  -32.1419   23.7375 O   0  0  0  0  0  0
  -28.2833  -19.2007   19.9330 C   0  0  0  0  0  0
  -30.0871  -18.0604   21.0528 C   0  0  0  0  0  0
  -29.4577  -19.2998   20.6885 C   0  0  0  0  0  0
  -27.7455  -17.9528   19.6253 C   0  0  0  0  0  0
  -29.4886  -16.8043   20.7021 C   0  0  0  0  0  0
  -29.1312  -24.4351   21.1556 C   0  0  0  0  0  0
  -29.2594  -21.7868   21.0833 C   0  0  0  0  0  0
  -25.2549  -18.3120   19.8466 C   0  0  0  0  0  0
  -29.9877  -23.1507   20.8902 C   0  0  0  0  0  0
  -28.4325  -25.1838   19.9821 C   0  0  0  0  0  0
  -26.4030  -17.9208   18.9034 C   0  0  1  0  0  0
  -28.3100  -16.7890   20.0271 N   0  0  0  0  0  0
  -29.9772  -20.6234   20.9790 N   0  0  0  0  0  0
  -29.9908  -15.5505   21.2172 N   0  0  0  0  0  0
  -29.0426  -24.8911   22.3030 O   0  0  0  0  0  0
  -28.0558  -21.7823   21.3655 O   0  0  0  0  0  0
  -26.4141  -18.8078   17.9010 F   0  0  0  0  0  0
  -31.4879  -12.4785   19.1250 H   0  0  0  0  0  0
  -30.3698  -11.3632   19.8528 H   0  0  0  0  0  0
  -29.7658  -11.7594   17.4574 H   0  0  0  0  0  0
  -29.6482  -13.4816   17.7457 H   0  0  0  0  0  0
  -27.8764  -11.2877   18.8585 H   0  0  0  0  0  0
  -27.3704  -12.5855   17.8018 H   0  0  0  0  0  0
  -27.6952  -14.2364   19.5431 H   0  0  0  0  0  0
  -28.7155  -12.0048   21.3660 H   0  0  0  0  0  0
  -28.4660  -13.6501   21.8593 H   0  0  0  0  0  0
  -25.2797   -9.5607   22.4765 H   0  0  0  0  0  0
  -23.9983   -7.4605   22.7498 H   0  0  0  0  0  0
  -21.0847   -8.8822   19.8964 H   0  0  0  0  0  0
  -22.3793  -10.9667   19.6192 H   0  0  0  0  0  0
  -21.2005   -7.6155   23.9722 H   0  0  0  0  0  0
  -21.1478   -6.0522   25.9085 H   0  0  0  0  0  0
  -22.0598   -2.7609   23.2843 H   0  0  0  0  0  0
  -22.4138  -11.9897   22.4704 H   0  0  0  0  0  0
  -21.1232  -13.1405   22.2636 H   0  0  0  0  0  0
  -24.7252  -15.8275   20.6230 H   0  0  0  0  0  0
  -26.3755  -15.5714   20.2735 H   0  0  0  0  0  0
  -26.7137  -32.5480   23.1140 H   0  0  0  0  0  0
  -25.0054  -33.9740   25.0436 H   0  0  0  0  0  0
  -22.7031  -31.2949   21.3946 H   0  0  0  0  0  0
  -23.3724  -35.9672   23.3298 H   0  0  0  0  0  0
  -24.3572  -36.8956   22.2043 H   0  0  0  0  0  0
  -23.7249  -37.6543   23.6656 H   0  0  0  0  0  0
  -26.0562  -31.5634   20.5757 H   0  0  0  0  0  0
  -26.8362  -30.8826   21.9694 H   0  0  0  0  0  0
  -28.0968  -29.0481   21.1894 H   0  0  0  0  0  0
  -26.0383  -25.9416   19.0040 H   0  0  0  0  0  0
  -23.9954  -27.2994   18.9928 H   0  0  0  0  0  0
  -23.7470  -30.5804   19.3992 H   0  0  0  0  0  0
  -22.7528  -29.2301   19.8513 H   0  0  0  0  0  0
  -25.1271  -36.1968   25.0825 H   0  0  0  0  0  0
  -20.9938  -28.3377   24.1494 H   0  0  0  0  0  0
  -21.6698  -26.7173   22.1693 H   0  0  0  0  0  0
  -20.5433  -26.2424   23.3977 H   0  0  0  0  0  0
  -19.6758  -27.3062   20.6878 H   0  0  0  0  0  0
  -19.7062  -25.6210   21.1379 H   0  0  0  0  0  0
  -17.4211  -26.6325   21.4250 H   0  0  0  0  0  0
  -18.0579  -26.0114   22.9367 H   0  0  0  0  0  0
  -19.7917  -30.7340   24.2334 H   0  0  0  0  0  0
  -17.4937  -31.6299   24.5053 H   0  0  0  0  0  0
  -15.5354  -30.3005   23.7503 H   0  0  0  0  0  0
  -15.8707  -28.0780   22.7037 H   0  0  0  0  0  0
  -24.5906  -30.7048   25.7795 H   0  0  0  0  0  0
  -24.8931  -32.2865   26.4897 H   0  0  0  0  0  0
  -25.8096  -30.8886   27.0204 H   0  0  0  0  0  0
  -26.2844  -29.6774   24.1139 H   0  0  0  0  0  0
  -27.4122  -29.7265   25.4516 H   0  0  0  0  0  0
  -27.8669  -30.4368   23.9184 H   0  0  0  0  0  0
  -27.2668  -33.3594   26.2071 H   0  0  0  0  0  0
  -28.3847  -32.6888   25.0288 H   0  0  0  0  0  0
  -28.0724  -31.8418   26.5372 H   0  0  0  0  0  0
  -28.2594  -38.0102   24.7500 H   0  0  0  0  0  0
  -28.1077  -36.2646   24.6292 H   0  0  0  0  0  0
  -27.2303  -37.1456   25.8862 H   0  0  0  0  0  0
  -20.9410  -29.8443   21.6606 H   0  0  0  0  0  0
  -26.0186  -38.2866   24.1397 H   0  0  0  0  0  0
  -27.7596  -20.0825   19.5929 H   0  0  0  0  0  0
  -31.0156  -18.0683   21.6079 H   0  0  0  0  0  0
  -25.2234  -17.6844   20.7354 H   0  0  0  0  0  0
  -24.2962  -18.2257   19.3420 H   0  0  0  0  0  0
  -25.3827  -19.3351   20.2000 H   0  0  0  0  0  0
  -30.8577  -23.1756   21.5477 H   0  0  0  0  0  0
  -30.3703  -23.1892   19.8712 H   0  0  0  0  0  0
  -28.9549  -24.9678   19.0500 H   0  0  0  0  0  0
  -27.4405  -24.7476   19.8974 H   0  0  0  0  0  0
  -26.2311  -16.9466   18.4438 H   0  0  0  0  0  0
  -30.9845  -20.7134   20.9948 H   0  0  0  0  0  0
  -29.2877  -15.0983   21.7747 H   0  0  0  0  0  0
  1 25  1  0  0  0
  1 30  2  0  0  0
  1 84  1  0  0  0
  2  3  1  0  0  0
  2 25  1  0  0  0
  2 88  1  0  0  0
  2 89  1  0  0  0
  3  4  1  0  0  0
  3 90  1  0  0  0
  3 91  1  0  0  0
  4  5  1  0  0  0
  4 92  1  0  0  0
  4 93  1  0  0  0
  5  6  1  0  0  0
  5 26  1  0  0  0
  5 94  1  0  0  0
  6 25  1  0  0  0
  6 95  1  0  0  0
  6 96  1  0  0  0
  7  8  2  0  0  0
  7 26  1  0  0  0
  7 29  1  0  0  0
  8  9  1  0  0  0
  8 22  1  0  0  0
  9 10  1  0  0  0
  9 27  2  0  0  0
 10 11  2  0  0  0
 10 15  1  0  0  0
 11 12  1  0  0  0
 11 97  1  0  0  0
 12 13  2  0  0  0
 12 98  1  0  0  0
 13 14  1  0  0  0
 13 31  1  0  0  0
 14 15  2  0  0  0
 14 99  1  0  0  0
 15100  1  0  0  0
 16 17  2  0  0  0
 16 21  1  0  0  0
 16 31  1  0  0  0
 17 18  1  0  0  0
 17101  1  0  0  0
 18 19  2  0  0  0
 18102  1  0  0  0
 19 20  1  0  0  0
 19 24  1  0  0  0
 20 21  2  0  0  0
 20103  1  0  0  0
 21 23  1  0  0  0
 22 28  1  0  0  0
 22 32  2  0  0  0
 26 27  1  0  0  0
 28104  1  0  0  0
 28105  1  0  0  0
 29106  1  0  0  0
 29107  1  0  0  0
 33 34  1  0  0  0
 33 66  1  0  0  0
 33 70  2  0  0  0
 34 36  1  0  0  0
 34 59  1  0  0  0
 34108  1  0  0  0
 35 44  2  0  0  0
 35 45  1  0  0  0
 35 68  1  0  0  0
 36 56  1  0  0  0
 36109  1  0  0  0
 37 39  1  0  0  0
 37 47  1  0  0  0
 37 66  1  0  0  0
 37110  1  0  0  0
 38 43  2  0  0  0
 38 46  1  0  0  0
 38 47  1  0  0  0
 39 64  1  0  0  0
 39 67  2  0  0  0
 40 52  1  0  0  0
 40 53  2  0  0  0
 40 58  1  0  0  0
 41111  1  0  0  0
 41112  1  0  0  0
 41113  1  0  0  0
 41 48  1  0  0  0
 42 43  1  0  0  0
 42 66  1  0  0  0
 42114  1  0  0  0
 42115  1  0  0  0
 43 44  1  0  0  0
 44116  1  0  0  0
 45 46  2  0  0  0
 45117  1  0  0  0
 46118  1  0  0  0
 47119  1  0  0  0
 47120  1  0  0  0
 48 56  1  0  0  0
 48 65  1  0  0  0
 48121  1  0  0  0
 49 50  1  0  0  0
 49 53  1  0  0  0
 49 64  1  0  0  0
 49122  1  0  0  0
 50 51  1  0  0  0
 50123  1  0  0  0
 50124  1  0  0  0
 51 52  1  0  0  0
 51125  1  0  0  0
 51126  1  0  0  0
 52127  1  0  0  0
 52128  1  0  0  0
 53 54  1  0  0  0
 54 55  2  0  0  0
 54129  1  0  0  0
 55 57  1  0  0  0
 55130  1  0  0  0
 56 69  2  0  0  0
 57 58  2  0  0  0
 57131  1  0  0  0
 58132  1  0  0  0
 59 60  1  0  0  0
 59 61  1  0  0  0
 59 62  1  0  0  0
 60133  1  0  0  0
 60134  1  0  0  0
 60135  1  0  0  0
 61136  1  0  0  0
 61137  1  0  0  0
 61138  1  0  0  0
 62139  1  0  0  0
 62140  1  0  0  0
 62141  1  0  0  0
 63 65  1  0  0  0
 63142  1  0  0  0
 63143  1  0  0  0
 63144  1  0  0  0
 64145  1  0  0  0
 65146  1  0  0  0
 68 80  1  0  0  0
 71 73  2  0  0  0
 71 74  1  0  0  0
 71147  1  0  0  0
 72 73  1  0  0  0
 72 75  2  0  0  0
 72148  1  0  0  0
 73 83  1  0  0  0
 74 81  1  0  0  0
 74 82  2  0  0  0
 75 82  1  0  0  0
 75 84  1  0  0  0
 76 79  1  0  0  0
 76 80  1  0  0  0
 76 85  2  0  0  0
 77 79  1  0  0  0
 77 83  1  0  0  0
 77 86  2  0  0  0
 78149  1  0  0  0
 78150  1  0  0  0
 78151  1  0  0  0
 78 81  1  0  0  0
 79152  1  0  0  0
 79153  1  0  0  0
 80154  1  0  0  0
 80155  1  0  0  0
 81 87  1  0  0  0
 81156  1  0  0  0
 83157  1  0  0  0
 84158  1  0  0  0
M  ISO  4   1 100  68 101  80 101  84 100
M  END
> <chiral flag>
0

> <version>
0

> <s_m_source_file>
/data/baiqing/PycharmProjects/Reinvent-master-3.2/result/LINK_invent/BTK/process_docking_weight1_custom_product_contain_oxygen_bond_distance_aromatic_linkinvent_7_9_3/rearranged_h_0177.sdf

> <i_m_source_file_index>
57

> <r_mmod_Potential_Energy-OPLS-2005>
-147.733749389648

> <r_mmod_Stretch_Energy-OPLS-2005>
60.7356224060059

> <r_mmod_Bend_Energy-OPLS-2005>
132.595672607422

> <r_mmod_Torsional_Energy-OPLS-2005>
269.936157226562

> <r_mmod_Improper_Torsional_Energy-OPLS-2005>
8.08538818359375

> <r_mmod_Van_der_Waal_Energy-OPLS-2005>
149.606597900391

> <r_mmod_Electrostatic_Energy-OPLS-2005>
-545.060241699219

> <r_mmod_Solvation_Energy-OPLS-2005>
-253.010528564453

> <b_mmod_Minimization_Converged-OPLS-2005>
0

> <r_mmod_RMS_Derivative-OPLS-2005>
6.5094165802002

$$$$
57
                    3D
 Structure written by MMmdl.
161169  0  0  1  0            999 V2000
  -30.6938  -14.4487   20.5512 C   0  0  0  0  0  0
  -30.4190  -12.2841   19.4299 C   0  0  0  0  0  0
  -29.5004  -12.5098   18.2115 C   0  0  0  0  0  0
  -28.0170  -12.3787   18.6140 C   0  0  0  0  0  0
  -27.6621  -13.1955   19.8849 C   0  0  2  0  0  0
  -28.7039  -12.9699   21.0053 C   0  0  0  0  0  0
  -25.2606  -13.8123   20.5684 C   0  0  0  0  0  0
  -24.1847  -13.0417   20.9182 C   0  0  0  0  0  0
  -24.6384  -11.6881   20.8742 C   0  0  0  0  0  0
  -23.9056  -10.4279   21.0410 C   0  0  0  0  0  0
  -24.3614   -9.4197   21.9193 C   0  0  0  0  0  0
  -23.6279   -8.2236   22.0765 C   0  0  0  0  0  0
  -22.4263   -8.0285   21.3547 C   0  0  0  0  0  0
  -21.9899   -9.0267   20.4654 C   0  0  0  0  0  0
  -22.7228  -10.2137   20.3056 C   0  0  0  0  0  0
  -21.6849   -6.0726   22.5274 C   0  0  0  0  0  0
  -21.4014   -6.5632   23.8208 C   0  0  0  0  0  0
  -21.3667   -5.6789   24.9169 C   0  0  0  0  0  0
  -21.6045   -4.3046   24.7224 C   0  0  0  0  0  0
  -21.8818   -3.8141   23.4344 C   0  0  0  0  0  0
  -21.9190   -4.6956   22.3398 C   0  0  0  0  0  0
  -22.7870  -13.5229   21.1828 C   0  0  0  0  0  0
  -22.1655   -4.2145   21.0971 F   0  0  0  0  0  0
  -21.5643   -3.4529   25.7733 F   0  0  0  0  0  0
  -30.0395  -13.2622   20.4585 N   0  0  0  0  0  0
  -26.3030  -12.9257   20.3409 N   0  0  0  0  0  0
  -25.9306  -11.6432   20.5791 N   0  0  0  0  0  0
  -22.0483  -12.8262   22.0392 N   0  0  0  0  0  0
  -25.4347  -15.1842   20.4077 N   0  0  0  0  0  0
  -31.8217  -14.6400   20.0867 O   0  0  0  0  0  0
  -21.6636   -6.8873   21.4232 O   0  0  0  0  0  0
  -22.3586  -14.5546   20.6661 O   0  0  0  0  0  0
  -24.6108  -31.8685   23.2132 C   0  0  0  0  0  0
  -25.9009  -32.4823   23.8412 C   0  0  1  0  0  0
  -27.2343  -27.4610   20.0898 C   0  0  0  0  0  0
  -25.5887  -33.8624   24.2347 N   0  0  0  0  0  0
  -23.3964  -30.4912   21.5546 C   0  0  2  0  0  0
  -24.8406  -28.9587   20.1165 C   0  0  0  0  0  0
  -22.7377  -29.4647   22.5040 C   0  0  0  0  0  0
  -18.0255  -28.1364   22.8514 C   0  0  0  0  0  0
  -24.1482  -36.7317   23.2640 C   0  0  0  0  0  0
  -25.9218  -30.8450   21.3577 C   0  0  0  0  0  0
  -25.9991  -29.4814   20.7044 C   0  0  0  0  0  0
  -27.1990  -28.7416   20.6817 C   0  0  0  0  0  0
  -26.0591  -26.9452   19.4968 C   0  0  0  0  0  0
  -24.8651  -27.6914   19.5069 C   0  0  0  0  0  0
  -23.5985  -29.8179   20.1701 C   0  0  0  0  0  0
  -25.4109  -36.3118   24.0345 C   0  0  1  0  0  0
  -20.5840  -28.3639   23.1346 C   0  0  2  0  0  0
  -20.6732  -26.9383   22.5424 C   0  0  0  0  0  0
  -19.5712  -26.6387   21.5208 C   0  0  0  0  0  0
  -18.1897  -26.7924   22.1624 C   0  0  0  0  0  0
  -19.1507  -28.8824   23.2926 C   0  0  0  0  0  0
  -18.9435  -30.1436   23.8926 C   0  0  0  0  0  0
  -17.6433  -30.6576   24.0566 C   0  0  0  0  0  0
  -25.9038  -34.9472   23.5143 C   0  0  0  0  0  0
  -16.5324  -29.9083   23.6320 C   0  0  0  0  0  0
  -16.7244  -28.6487   23.0369 C   0  0  0  0  0  0
  -26.4450  -31.6602   25.0726 C   0  0  0  0  0  0
  -25.3739  -31.3682   26.1484 C   0  0  0  0  0  0
  -27.0279  -30.3058   24.6070 C   0  0  0  0  0  0
  -27.6033  -32.4330   25.7477 C   0  0  0  0  0  0
  -27.5587  -37.1812   24.8461 C   0  0  0  0  0  0
  -21.4113  -29.3016   22.3781 N   0  0  0  0  0  0
  -26.4288  -37.3808   23.9416 N   0  0  0  0  0  0
  -24.6613  -31.0830   22.0999 N   0  0  0  0  0  0
  -23.4168  -28.8188   23.3066 O   0  0  0  0  0  0
  -28.4222  -26.7706   20.0914 O   0  0  0  0  0  0
  -26.5597  -34.8916   22.4702 O   0  0  0  0  0  0
  -23.5319  -32.1404   23.7565 O   0  0  0  0  0  0
  -28.8737  -18.1961   18.5459 C   0  0  0  0  0  0
  -29.4100  -18.7642   19.6822 C   0  0  0  0  0  0
  -29.6774  -16.5840   20.2291 C   0  0  0  0  0  0
  -29.4400  -24.8605   21.1788 C   0  0  0  0  0  0
  -29.8306  -20.9663   20.7971 C   0  0  0  0  0  0
  -29.2362  -19.6066   16.4660 C   0  0  0  0  0  0
  -27.0027  -19.6894   17.7153 C   0  0  0  0  0  0
  -29.4527  -23.3808   21.5637 C   0  0  0  0  0  0
  -28.3474  -25.3491   20.2184 C   0  0  0  0  0  0
  -28.2358  -18.8464   17.3483 C   0  0  0  0  0  0
  -29.9892  -22.4547   20.4513 C   0  0  1  0  0  0
  -29.8286  -17.8423   20.6601 N   0  0  0  0  0  0
  -29.5248  -20.1725   19.7614 N   0  0  0  0  0  0
  -29.9713  -15.4650   21.0401 N   0  0  0  0  0  0
  -30.2723  -25.6374   21.6603 O   0  0  0  0  0  0
  -29.9762  -20.5722   21.9585 O   0  0  0  0  0  0
  -28.9919  -16.4588   18.6104 S   0  0  0  0  0  0
  -31.7166  -22.7781   20.1170 Cl  0  0  0  0  0  0
  -31.4679  -12.3657   19.1401 H   0  0  0  0  0  0
  -30.2991  -11.2706   19.8155 H   0  0  0  0  0  0
  -29.7410  -11.7952   17.4235 H   0  0  0  0  0  0
  -29.6852  -13.4986   17.7881 H   0  0  0  0  0  0
  -27.8108  -11.3208   18.7819 H   0  0  0  0  0  0
  -27.3763  -12.6860   17.7869 H   0  0  0  0  0  0
  -27.6973  -14.2436   19.6060 H   0  0  0  0  0  0
  -28.6727  -11.9340   21.3466 H   0  0  0  0  0  0
  -28.4699  -13.5718   21.8845 H   0  0  0  0  0  0
  -25.2751   -9.5668   22.4790 H   0  0  0  0  0  0
  -23.9992   -7.4611   22.7466 H   0  0  0  0  0  0
  -21.0844   -8.8762   19.8961 H   0  0  0  0  0  0
  -22.3676  -10.9680   19.6181 H   0  0  0  0  0  0
  -21.2000   -7.6138   23.9706 H   0  0  0  0  0  0
  -21.1500   -6.0519   25.9075 H   0  0  0  0  0  0
  -22.0597   -2.7604   23.2833 H   0  0  0  0  0  0
  -22.4050  -11.9917   22.4809 H   0  0  0  0  0  0
  -21.1103  -13.1324   22.2553 H   0  0  0  0  0  0
  -24.6663  -15.8382   20.5113 H   0  0  0  0  0  0
  -26.2850  -15.6227   20.0803 H   0  0  0  0  0  0
  -26.7072  -32.5544   23.1177 H   0  0  0  0  0  0
  -25.0022  -33.9785   25.0476 H   0  0  0  0  0  0
  -22.6833  -31.3071   21.4177 H   0  0  0  0  0  0
  -23.3740  -35.9647   23.3295 H   0  0  0  0  0  0
  -24.3577  -36.8942   22.2052 H   0  0  0  0  0  0
  -23.7227  -37.6519   23.6656 H   0  0  0  0  0  0
  -26.0305  -31.6144   20.5921 H   0  0  0  0  0  0
  -26.8114  -30.8976   21.9731 H   0  0  0  0  0  0
  -28.0995  -29.1483   21.1201 H   0  0  0  0  0  0
  -26.0609  -25.9800   19.0086 H   0  0  0  0  0  0
  -23.9746  -27.2917   19.0415 H   0  0  0  0  0  0
  -23.6911  -30.5850   19.4016 H   0  0  0  0  0  0
  -22.7270  -29.2254   19.8871 H   0  0  0  0  0  0
  -25.1283  -36.1979   25.0837 H   0  0  0  0  0  0
  -20.9925  -28.3180   24.1466 H   0  0  0  0  0  0
  -20.5607  -26.2247   23.3603 H   0  0  0  0  0  0
  -21.6611  -26.7418   22.1231 H   0  0  0  0  0  0
  -19.6857  -25.6301   21.1236 H   0  0  0  0  0  0
  -19.6648  -27.3193   20.6731 H   0  0  0  0  0  0
  -17.4165  -26.6685   21.4023 H   0  0  0  0  0  0
  -18.0295  -26.0051   22.9001 H   0  0  0  0  0  0
  -19.7907  -30.7255   24.2306 H   0  0  0  0  0  0
  -17.4981  -31.6261   24.5159 H   0  0  0  0  0  0
  -15.5327  -30.2987   23.7631 H   0  0  0  0  0  0
  -15.8640  -28.0799   22.7097 H   0  0  0  0  0  0
  -24.5888  -30.7058   25.7813 H   0  0  0  0  0  0
  -24.8947  -32.2817   26.5014 H   0  0  0  0  0  0
  -25.8112  -30.8783   27.0190 H   0  0  0  0  0  0
  -26.2795  -29.6834   24.1147 H   0  0  0  0  0  0
  -27.4073  -29.7295   25.4519 H   0  0  0  0  0  0
  -27.8621  -30.4401   23.9182 H   0  0  0  0  0  0
  -27.2639  -33.3608   26.2110 H   0  0  0  0  0  0
  -28.3802  -32.6950   25.0273 H   0  0  0  0  0  0
  -28.0734  -31.8420   26.5350 H   0  0  0  0  0  0
  -28.2607  -38.0114   24.7540 H   0  0  0  0  0  0
  -28.1095  -36.2655   24.6251 H   0  0  0  0  0  0
  -27.2312  -37.1407   25.8865 H   0  0  0  0  0  0
  -20.9273  -29.8731   21.7000 H   0  0  0  0  0  0
  -26.0181  -38.2886   24.1417 H   0  0  0  0  0  0
  -30.0385  -18.9476   16.1335 H   0  0  0  0  0  0
  -29.6943  -20.4492   16.9827 H   0  0  0  0  0  0
  -28.7476  -19.9976   15.5722 H   0  0  0  0  0  0
  -26.2727  -19.0888   18.2606 H   0  0  0  0  0  0
  -26.5058  -20.0755   16.8244 H   0  0  0  0  0  0
  -27.2530  -20.5443   18.3420 H   0  0  0  0  0  0
  -28.4297  -23.0956   21.8098 H   0  0  0  0  0  0
  -30.0391  -23.2582   22.4748 H   0  0  0  0  0  0
  -28.4806  -24.8894   19.2400 H   0  0  0  0  0  0
  -27.3846  -25.0251   20.6152 H   0  0  0  0  0  0
  -27.8473  -18.0437   16.7187 H   0  0  0  0  0  0
  -29.4527  -22.6582   19.5233 H   0  0  0  0  0  0
  -29.3699  -20.6503   18.8871 H   0  0  0  0  0  0
  -29.1862  -15.1566   21.5909 H   0  0  0  0  0  0
  1 25  1  0  0  0
  1 30  2  0  0  0
  1 84  1  0  0  0
  2  3  1  0  0  0
  2 25  1  0  0  0
  2 89  1  0  0  0
  2 90  1  0  0  0
  3  4  1  0  0  0
  3 91  1  0  0  0
  3 92  1  0  0  0
  4  5  1  0  0  0
  4 93  1  0  0  0
  4 94  1  0  0  0
  5  6  1  0  0  0
  5 26  1  0  0  0
  5 95  1  0  0  0
  6 25  1  0  0  0
  6 96  1  0  0  0
  6 97  1  0  0  0
  7  8  2  0  0  0
  7 26  1  0  0  0
  7 29  1  0  0  0
  8  9  1  0  0  0
  8 22  1  0  0  0
  9 10  1  0  0  0
  9 27  2  0  0  0
 10 11  2  0  0  0
 10 15  1  0  0  0
 11 12  1  0  0  0
 11 98  1  0  0  0
 12 13  2  0  0  0
 12 99  1  0  0  0
 13 14  1  0  0  0
 13 31  1  0  0  0
 14 15  2  0  0  0
 14100  1  0  0  0
 15101  1  0  0  0
 16 17  2  0  0  0
 16 21  1  0  0  0
 16 31  1  0  0  0
 17 18  1  0  0  0
 17102  1  0  0  0
 18 19  2  0  0  0
 18103  1  0  0  0
 19 20  1  0  0  0
 19 24  1  0  0  0
 20 21  2  0  0  0
 20104  1  0  0  0
 21 23  1  0  0  0
 22 28  1  0  0  0
 22 32  2  0  0  0
 26 27  1  0  0  0
 28105  1  0  0  0
 28106  1  0  0  0
 29107  1  0  0  0
 29108  1  0  0  0
 33 34  1  0  0  0
 33 66  1  0  0  0
 33 70  2  0  0  0
 34 36  1  0  0  0
 34 59  1  0  0  0
 34109  1  0  0  0
 35 44  2  0  0  0
 35 45  1  0  0  0
 35 68  1  0  0  0
 36 56  1  0  0  0
 36110  1  0  0  0
 37 39  1  0  0  0
 37 47  1  0  0  0
 37 66  1  0  0  0
 37111  1  0  0  0
 38 43  2  0  0  0
 38 46  1  0  0  0
 38 47  1  0  0  0
 39 64  1  0  0  0
 39 67  2  0  0  0
 40 52  1  0  0  0
 40 53  2  0  0  0
 40 58  1  0  0  0
 41112  1  0  0  0
 41113  1  0  0  0
 41114  1  0  0  0
 41 48  1  0  0  0
 42 43  1  0  0  0
 42 66  1  0  0  0
 42115  1  0  0  0
 42116  1  0  0  0
 43 44  1  0  0  0
 44117  1  0  0  0
 45 46  2  0  0  0
 45118  1  0  0  0
 46119  1  0  0  0
 47120  1  0  0  0
 47121  1  0  0  0
 48 56  1  0  0  0
 48 65  1  0  0  0
 48122  1  0  0  0
 49 50  1  0  0  0
 49 53  1  0  0  0
 49 64  1  0  0  0
 49123  1  0  0  0
 50 51  1  0  0  0
 50124  1  0  0  0
 50125  1  0  0  0
 51 52  1  0  0  0
 51126  1  0  0  0
 51127  1  0  0  0
 52128  1  0  0  0
 52129  1  0  0  0
 53 54  1  0  0  0
 54 55  2  0  0  0
 54130  1  0  0  0
 55 57  1  0  0  0
 55131  1  0  0  0
 56 69  2  0  0  0
 57 58  2  0  0  0
 57132  1  0  0  0
 58133  1  0  0  0
 59 60  1  0  0  0
 59 61  1  0  0  0
 59 62  1  0  0  0
 60134  1  0  0  0
 60135  1  0  0  0
 60136  1  0  0  0
 61137  1  0  0  0
 61138  1  0  0  0
 61139  1  0  0  0
 62140  1  0  0  0
 62141  1  0  0  0
 62142  1  0  0  0
 63 65  1  0  0  0
 63143  1  0  0  0
 63144  1  0  0  0
 63145  1  0  0  0
 64146  1  0  0  0
 65147  1  0  0  0
 68 79  1  0  0  0
 71 72  2  0  0  0
 71 80  1  0  0  0
 71 87  1  0  0  0
 72 82  1  0  0  0
 72 83  1  0  0  0
 73 82  2  0  0  0
 73 84  1  0  0  0
 73 87  1  0  0  0
 74 78  1  0  0  0
 74 79  1  0  0  0
 74 85  2  0  0  0
 75 81  1  0  0  0
 75 83  1  0  0  0
 75 86  2  0  0  0
 76148  1  0  0  0
 76149  1  0  0  0
 76150  1  0  0  0
 76 80  1  0  0  0
 77 80  1  0  0  0
 77151  1  0  0  0
 77152  1  0  0  0
 77153  1  0  0  0
 78 81  1  0  0  0
 78154  1  0  0  0
 78155  1  0  0  0
 79156  1  0  0  0
 79157  1  0  0  0
 80158  1  0  0  0
 81 88  1  0  0  0
 81159  1  0  0  0
 83160  1  0  0  0
 84161  1  0  0  0
M  ISO  4   1 100  68 101  79 101  84 100
M  END
> <chiral flag>
0

> <version>
0

> <s_m_source_file>
/data/baiqing/PycharmProjects/Reinvent-master-3.2/result/LINK_invent/BTK/process_docking_weight1_custom_product_contain_oxygen_bond_distance_aromatic_linkinvent_7_9_3/rearranged_h_0177.sdf

> <i_m_source_file_index>
58

> <r_mmod_Potential_Energy-OPLS-2005>
-196.555313110352

> <r_mmod_Stretch_Energy-OPLS-2005>
31.4190330505371

> <r_mmod_Bend_Energy-OPLS-2005>
106.306648254395

> <r_mmod_Torsional_Energy-OPLS-2005>
244.090408325195

> <r_mmod_Improper_Torsional_Energy-OPLS-2005>
7.85478782653809

> <r_mmod_Van_der_Waal_Energy-OPLS-2005>
119.592445373535

> <r_mmod_Electrostatic_Energy-OPLS-2005>
-432.714050292969

> <r_mmod_Solvation_Energy-OPLS-2005>
-283.824829101562

> <b_mmod_Minimization_Converged-OPLS-2005>
0

> <r_mmod_RMS_Derivative-OPLS-2005>
2.4191415309906

$$$$
58
                    3D
 Structure written by MMmdl.
167175  0  0  1  0            999 V2000
  -30.6727  -14.5833   20.5169 C   0  0  0  0  0  0
  -30.4345  -12.3620   19.4410 C   0  0  0  0  0  0
  -29.5105  -12.5048   18.2123 C   0  0  0  0  0  0
  -28.0277  -12.3610   18.6163 C   0  0  0  0  0  0
  -27.6546  -13.2192   19.8568 C   0  0  2  0  0  0
  -28.7029  -13.0713   20.9841 C   0  0  0  0  0  0
  -25.2575  -13.8160   20.5642 C   0  0  0  0  0  0
  -24.1853  -13.0420   20.9151 C   0  0  0  0  0  0
  -24.6428  -11.6898   20.8697 C   0  0  0  0  0  0
  -23.9089  -10.4285   21.0347 C   0  0  0  0  0  0
  -24.3630   -9.4212   21.9145 C   0  0  0  0  0  0
  -23.6308   -8.2246   22.0735 C   0  0  0  0  0  0
  -22.4291   -8.0269   21.3526 C   0  0  0  0  0  0
  -21.9911   -9.0237   20.4630 C   0  0  0  0  0  0
  -22.7241  -10.2118   20.3015 C   0  0  0  0  0  0
  -21.6867   -6.0723   22.5266 C   0  0  0  0  0  0
  -21.4027   -6.5628   23.8198 C   0  0  0  0  0  0
  -21.3665   -5.6779   24.9161 C   0  0  0  0  0  0
  -21.6055   -4.3039   24.7211 C   0  0  0  0  0  0
  -21.8834   -3.8130   23.4331 C   0  0  0  0  0  0
  -21.9200   -4.6949   22.3388 C   0  0  0  0  0  0
  -22.7878  -13.5203   21.1822 C   0  0  0  0  0  0
  -22.1667   -4.2133   21.0966 F   0  0  0  0  0  0
  -21.5624   -3.4522   25.7722 F   0  0  0  0  0  0
  -30.0224  -13.3856   20.4168 N   0  0  0  0  0  0
  -26.3011  -12.9348   20.3271 N   0  0  0  0  0  0
  -25.9355  -11.6494   20.5709 N   0  0  0  0  0  0
  -22.0524  -12.8201   22.0393 N   0  0  0  0  0  0
  -25.4223  -15.1887   20.4040 N   0  0  0  0  0  0
  -31.8500  -14.7129   20.1644 O   0  0  0  0  0  0
  -21.6649   -6.8866   21.4231 O   0  0  0  0  0  0
  -22.3562  -14.5508   20.6661 O   0  0  0  0  0  0
  -24.6232  -31.8644   23.2053 C   0  0  0  0  0  0
  -25.9113  -32.4802   23.8358 C   0  0  1  0  0  0
  -27.2253  -27.3568   20.1122 C   0  0  0  0  0  0
  -25.5955  -33.8597   24.2301 N   0  0  0  0  0  0
  -23.4128  -30.4877   21.5503 C   0  0  2  0  0  0
  -24.8563  -28.9452   20.1112 C   0  0  0  0  0  0
  -22.7452  -29.4653   22.4993 C   0  0  0  0  0  0
  -18.0285  -28.1380   22.8490 C   0  0  0  0  0  0
  -24.1492  -36.7286   23.2638 C   0  0  0  0  0  0
  -25.9484  -30.8038   21.3714 C   0  0  0  0  0  0
  -26.0197  -29.4339   20.7160 C   0  0  0  0  0  0
  -27.2030  -28.6472   20.7142 C   0  0  0  0  0  0
  -26.0429  -26.9147   19.4753 C   0  0  0  0  0  0
  -24.8667  -27.6885   19.4841 C   0  0  0  0  0  0
  -23.6238  -29.8233   20.1630 C   0  0  0  0  0  0
  -25.4117  -36.3096   24.0339 C   0  0  1  0  0  0
  -20.5887  -28.3678   23.1320 C   0  0  2  0  0  0
  -20.6803  -26.9418   22.5425 C   0  0  0  0  0  0
  -19.5779  -26.6379   21.5229 C   0  0  0  0  0  0
  -18.1945  -26.7929   22.1616 C   0  0  0  0  0  0
  -19.1539  -28.8841   23.2897 C   0  0  0  0  0  0
  -18.9461  -30.1453   23.8900 C   0  0  0  0  0  0
  -17.6463  -30.6591   24.0553 C   0  0  0  0  0  0
  -25.9059  -34.9467   23.5112 C   0  0  0  0  0  0
  -16.5352  -29.9087   23.6338 C   0  0  0  0  0  0
  -16.7272  -28.6504   23.0355 C   0  0  0  0  0  0
  -26.4494  -31.6587   25.0710 C   0  0  0  0  0  0
  -25.3719  -31.3693   26.1425 C   0  0  0  0  0  0
  -27.0353  -30.3038   24.6104 C   0  0  0  0  0  0
  -27.6060  -32.4286   25.7490 C   0  0  0  0  0  0
  -27.5584  -37.1813   24.8466 C   0  0  0  0  0  0
  -21.4178  -29.3026   22.3716 N   0  0  0  0  0  0
  -26.4289  -37.3795   23.9419 N   0  0  0  0  0  0
  -24.6800  -31.0682   22.0997 N   0  0  0  0  0  0
  -23.4185  -28.8216   23.3090 O   0  0  0  0  0  0
  -28.3808  -26.5762   20.1761 O   0  0  0  0  0  0
  -26.5617  -34.8938   22.4672 O   0  0  0  0  0  0
  -23.5416  -32.1440   23.7417 O   0  0  0  0  0  0
  -31.1697  -19.2217   21.7305 C   0  0  0  0  0  0
  -29.9192  -19.3400   21.1680 C   0  0  0  0  0  0
  -30.2633  -17.0450   20.9613 C   0  0  0  0  0  0
  -32.9730  -20.9931   21.4867 C   0  0  0  0  0  0
  -29.0748  -20.8818   18.6807 C   0  0  0  0  0  0
  -33.7405  -22.1687   22.0761 C   0  0  0  0  0  0
  -27.8530  -20.8521   17.7748 C   0  0  0  0  0  0
  -30.3521  -24.9811   21.4286 C   0  0  0  0  0  0
  -31.9671  -20.2988   22.4064 C   0  0  0  0  0  0
  -29.7645  -22.8556   20.1652 C   0  0  0  0  0  0
  -28.3801  -25.1480   19.8235 C   0  0  0  0  0  0
  -28.9137  -21.5197   20.0778 C   0  0  2  0  0  0
  -29.1895  -24.1966   20.7919 C   0  0  2  0  0  0
  -29.4134  -18.0810   20.7428 N   0  0  0  0  0  0
  -29.1544  -20.5500   21.1851 N   0  0  0  0  0  0
  -29.8857  -15.6658   20.7717 N   0  0  0  0  0  0
  -33.1689  -20.6293   20.3241 O   0  0  0  0  0  0
  -30.1445  -20.4269   18.2710 O   0  0  0  0  0  0
  -28.4006  -23.8572   21.8129 F   0  0  0  0  0  0
  -31.7909  -17.5821   21.6517 S   0  0  0  0  0  0
  -31.4797  -12.4658   19.1434 H   0  0  0  0  0  0
  -30.3454  -11.3646   19.8769 H   0  0  0  0  0  0
  -29.7684  -11.7555   17.4636 H   0  0  0  0  0  0
  -29.6768  -13.4747   17.7420 H   0  0  0  0  0  0
  -27.8443  -11.3068   18.8207 H   0  0  0  0  0  0
  -27.3842  -12.6196   17.7730 H   0  0  0  0  0  0
  -27.6723  -14.2557   19.5222 H   0  0  0  0  0  0
  -28.7030  -12.0552   21.3813 H   0  0  0  0  0  0
  -28.4633  -13.7217   21.8268 H   0  0  0  0  0  0
  -25.2770   -9.5686   22.4718 H   0  0  0  0  0  0
  -24.0008   -7.4644   22.7461 H   0  0  0  0  0  0
  -21.0830   -8.8745   19.8953 H   0  0  0  0  0  0
  -22.3674  -10.9641   19.6120 H   0  0  0  0  0  0
  -21.2031   -7.6137   23.9697 H   0  0  0  0  0  0
  -21.1477   -6.0502   25.9065 H   0  0  0  0  0  0
  -22.0613   -2.7591   23.2829 H   0  0  0  0  0  0
  -22.4138  -11.9883   22.4820 H   0  0  0  0  0  0
  -21.1122  -13.1205   22.2535 H   0  0  0  0  0  0
  -24.6416  -15.8280   20.5077 H   0  0  0  0  0  0
  -26.2594  -15.6431   20.0604 H   0  0  0  0  0  0
  -26.7185  -32.5482   23.1111 H   0  0  0  0  0  0
  -25.0121  -33.9738   25.0458 H   0  0  0  0  0  0
  -22.7040  -31.3070   21.4138 H   0  0  0  0  0  0
  -23.3778  -35.9596   23.3281 H   0  0  0  0  0  0
  -24.3590  -36.8920   22.2058 H   0  0  0  0  0  0
  -23.7214  -37.6472   23.6661 H   0  0  0  0  0  0
  -26.0750  -31.5676   20.6028 H   0  0  0  0  0  0
  -26.8318  -30.8527   21.9955 H   0  0  0  0  0  0
  -28.0944  -29.0183   21.1992 H   0  0  0  0  0  0
  -25.9909  -25.9700   18.9591 H   0  0  0  0  0  0
  -23.9779  -27.3116   18.9987 H   0  0  0  0  0  0
  -23.7431  -30.6053   19.4118 H   0  0  0  0  0  0
  -22.7420  -29.2564   19.8591 H   0  0  0  0  0  0
  -25.1297  -36.1944   25.0831 H   0  0  0  0  0  0
  -20.9952  -28.3248   24.1451 H   0  0  0  0  0  0
  -20.5770  -26.2267   23.3608 H   0  0  0  0  0  0
  -21.6672  -26.7509   22.1182 H   0  0  0  0  0  0
  -19.6956  -25.6287   21.1266 H   0  0  0  0  0  0
  -19.6742  -27.3185   20.6759 H   0  0  0  0  0  0
  -17.4244  -26.6696   21.3993 H   0  0  0  0  0  0
  -18.0325  -26.0059   22.8991 H   0  0  0  0  0  0
  -19.7937  -30.7271   24.2263 H   0  0  0  0  0  0
  -17.5020  -31.6282   24.5138 H   0  0  0  0  0  0
  -15.5356  -30.2983   23.7670 H   0  0  0  0  0  0
  -15.8672  -28.0823   22.7066 H   0  0  0  0  0  0
  -24.5881  -30.7078   25.7719 H   0  0  0  0  0  0
  -24.8925  -32.2853   26.4889 H   0  0  0  0  0  0
  -25.8029  -30.8813   27.0174 H   0  0  0  0  0  0
  -26.2933  -29.6779   24.1135 H   0  0  0  0  0  0
  -27.4130  -29.7288   25.4568 H   0  0  0  0  0  0
  -27.8753  -30.4394   23.9284 H   0  0  0  0  0  0
  -27.2702  -33.3589   26.2076 H   0  0  0  0  0  0
  -28.3881  -32.6821   25.0321 H   0  0  0  0  0  0
  -28.0706  -31.8380   26.5395 H   0  0  0  0  0  0
  -28.2593  -38.0120   24.7541 H   0  0  0  0  0  0
  -28.1089  -36.2655   24.6253 H   0  0  0  0  0  0
  -27.2309  -37.1416   25.8869 H   0  0  0  0  0  0
  -20.9356  -29.8674   21.6865 H   0  0  0  0  0  0
  -26.0169  -38.2874   24.1413 H   0  0  0  0  0  0
  -33.0577  -22.8618   22.5685 H   0  0  0  0  0  0
  -34.2770  -22.7086   21.2964 H   0  0  0  0  0  0
  -34.4618  -21.8142   22.8127 H   0  0  0  0  0  0
  -26.9351  -20.8911   18.3593 H   0  0  0  0  0  0
  -27.8427  -19.9422   17.1763 H   0  0  0  0  0  0
  -27.8741  -21.7071   17.1007 H   0  0  0  0  0  0
  -31.0641  -25.3208   20.6754 H   0  0  0  0  0  0
  -30.8957  -24.3749   22.1540 H   0  0  0  0  0  0
  -29.9924  -25.8608   21.9635 H   0  0  0  0  0  0
  -32.5083  -19.8828   23.2559 H   0  0  0  0  0  0
  -31.2971  -21.0568   22.8137 H   0  0  0  0  0  0
  -30.1010  -23.1300   19.1639 H   0  0  0  0  0  0
  -30.6919  -22.5998   20.6736 H   0  0  0  0  0  0
  -27.3880  -24.7127   19.7411 H   0  0  0  0  0  0
  -28.8136  -25.0926   18.8247 H   0  0  0  0  0  0
  -27.8675  -21.8135   20.1673 H   0  0  0  0  0  0
  -29.3095  -21.0593   22.0454 H   0  0  0  0  0  0
  -28.9037  -15.4697   20.8635 H   0  0  0  0  0  0
  1 25  1  0  0  0
  1 30  2  0  0  0
  1 86  1  0  0  0
  2  3  1  0  0  0
  2 25  1  0  0  0
  2 91  1  0  0  0
  2 92  1  0  0  0
  3  4  1  0  0  0
  3 93  1  0  0  0
  3 94  1  0  0  0
  4  5  1  0  0  0
  4 95  1  0  0  0
  4 96  1  0  0  0
  5  6  1  0  0  0
  5 26  1  0  0  0
  5 97  1  0  0  0
  6 25  1  0  0  0
  6 98  1  0  0  0
  6 99  1  0  0  0
  7  8  2  0  0  0
  7 26  1  0  0  0
  7 29  1  0  0  0
  8  9  1  0  0  0
  8 22  1  0  0  0
  9 10  1  0  0  0
  9 27  2  0  0  0
 10 11  2  0  0  0
 10 15  1  0  0  0
 11 12  1  0  0  0
 11100  1  0  0  0
 12 13  2  0  0  0
 12101  1  0  0  0
 13 14  1  0  0  0
 13 31  1  0  0  0
 14 15  2  0  0  0
 14102  1  0  0  0
 15103  1  0  0  0
 16 17  2  0  0  0
 16 21  1  0  0  0
 16 31  1  0  0  0
 17 18  1  0  0  0
 17104  1  0  0  0
 18 19  2  0  0  0
 18105  1  0  0  0
 19 20  1  0  0  0
 19 24  1  0  0  0
 20 21  2  0  0  0
 20106  1  0  0  0
 21 23  1  0  0  0
 22 28  1  0  0  0
 22 32  2  0  0  0
 26 27  1  0  0  0
 28107  1  0  0  0
 28108  1  0  0  0
 29109  1  0  0  0
 29110  1  0  0  0
 33 34  1  0  0  0
 33 66  1  0  0  0
 33 70  2  0  0  0
 34 36  1  0  0  0
 34 59  1  0  0  0
 34111  1  0  0  0
 35 44  2  0  0  0
 35 45  1  0  0  0
 35 68  1  0  0  0
 36 56  1  0  0  0
 36112  1  0  0  0
 37 39  1  0  0  0
 37 47  1  0  0  0
 37 66  1  0  0  0
 37113  1  0  0  0
 38 43  2  0  0  0
 38 46  1  0  0  0
 38 47  1  0  0  0
 39 64  1  0  0  0
 39 67  2  0  0  0
 40 52  1  0  0  0
 40 53  2  0  0  0
 40 58  1  0  0  0
 41114  1  0  0  0
 41115  1  0  0  0
 41116  1  0  0  0
 41 48  1  0  0  0
 42 43  1  0  0  0
 42 66  1  0  0  0
 42117  1  0  0  0
 42118  1  0  0  0
 43 44  1  0  0  0
 44119  1  0  0  0
 45 46  2  0  0  0
 45120  1  0  0  0
 46121  1  0  0  0
 47122  1  0  0  0
 47123  1  0  0  0
 48 56  1  0  0  0
 48 65  1  0  0  0
 48124  1  0  0  0
 49 50  1  0  0  0
 49 53  1  0  0  0
 49 64  1  0  0  0
 49125  1  0  0  0
 50 51  1  0  0  0
 50126  1  0  0  0
 50127  1  0  0  0
 51 52  1  0  0  0
 51128  1  0  0  0
 51129  1  0  0  0
 52130  1  0  0  0
 52131  1  0  0  0
 53 54  1  0  0  0
 54 55  2  0  0  0
 54132  1  0  0  0
 55 57  1  0  0  0
 55133  1  0  0  0
 56 69  2  0  0  0
 57 58  2  0  0  0
 57134  1  0  0  0
 58135  1  0  0  0
 59 60  1  0  0  0
 59 61  1  0  0  0
 59 62  1  0  0  0
 60136  1  0  0  0
 60137  1  0  0  0
 60138  1  0  0  0
 61139  1  0  0  0
 61140  1  0  0  0
 61141  1  0  0  0
 62142  1  0  0  0
 62143  1  0  0  0
 62144  1  0  0  0
 63 65  1  0  0  0
 63145  1  0  0  0
 63146  1  0  0  0
 63147  1  0  0  0
 64148  1  0  0  0
 65149  1  0  0  0
 68 81  1  0  0  0
 71 72  2  0  0  0
 71 79  1  0  0  0
 71 90  1  0  0  0
 72 84  1  0  0  0
 72 85  1  0  0  0
 73 84  2  0  0  0
 73 86  1  0  0  0
 73 90  1  0  0  0
 74 76  1  0  0  0
 74 79  1  0  0  0
 74 87  2  0  0  0
 75 77  1  0  0  0
 75 82  1  0  0  0
 75 88  2  0  0  0
 76150  1  0  0  0
 76151  1  0  0  0
 76152  1  0  0  0
 77153  1  0  0  0
 77154  1  0  0  0
 77155  1  0  0  0
 78156  1  0  0  0
 78157  1  0  0  0
 78158  1  0  0  0
 78 83  1  0  0  0
 79159  1  0  0  0
 79160  1  0  0  0
 80 83  1  0  0  0
 80161  1  0  0  0
 80162  1  0  0  0
 80 82  1  0  0  0
 81 83  1  0  0  0
 81163  1  0  0  0
 81164  1  0  0  0
 82 85  1  0  0  0
 82165  1  0  0  0
 83 89  1  0  0  0
 85166  1  0  0  0
 86167  1  0  0  0
M  ISO  4   1 100  68 101  81 101  86 100
M  END
> <chiral flag>
0

> <version>
0

> <s_m_source_file>
/data/baiqing/PycharmProjects/Reinvent-master-3.2/result/LINK_invent/BTK/process_docking_weight1_custom_product_contain_oxygen_bond_distance_aromatic_linkinvent_7_9_3/rearranged_h_0177.sdf

> <i_m_source_file_index>
59

> <r_mmod_Potential_Energy-OPLS-2005>
-168.328842163086

> <r_mmod_Stretch_Energy-OPLS-2005>
61.6026878356934

> <r_mmod_Bend_Energy-OPLS-2005>
142.347442626953

> <r_mmod_Torsional_Energy-OPLS-2005>
264.540649414062

> <r_mmod_Improper_Torsional_Energy-OPLS-2005>
10.8553495407104

> <r_mmod_Van_der_Waal_Energy-OPLS-2005>
116.318794250488

> <r_mmod_Electrostatic_Energy-OPLS-2005>
-540.286254882812

> <r_mmod_Solvation_Energy-OPLS-2005>
-257.436065673828

> <b_mmod_Minimization_Converged-OPLS-2005>
0

> <r_mmod_RMS_Derivative-OPLS-2005>
2.95078039169312

$$$$
59
                    3D
 Structure written by MMmdl.
152160  0  0  1  0            999 V2000
  -30.7060  -14.5805   20.4890 C   0  0  0  0  0  0
  -30.4093  -12.3517   19.4574 C   0  0  0  0  0  0
  -29.4958  -12.4883   18.2229 C   0  0  0  0  0  0
  -28.0194  -12.3437   18.6354 C   0  0  0  0  0  0
  -27.6477  -13.2256   19.8582 C   0  0  2  0  0  0
  -28.6929  -13.1119   20.9914 C   0  0  0  0  0  0
  -25.2529  -13.8199   20.5696 C   0  0  0  0  0  0
  -24.1811  -13.0449   20.9206 C   0  0  0  0  0  0
  -24.6393  -11.6924   20.8753 C   0  0  0  0  0  0
  -23.9069  -10.4298   21.0409 C   0  0  0  0  0  0
  -24.3620   -9.4211   21.9185 C   0  0  0  0  0  0
  -23.6295   -8.2246   22.0754 C   0  0  0  0  0  0
  -22.4277   -8.0283   21.3544 C   0  0  0  0  0  0
  -21.9914   -9.0258   20.4647 C   0  0  0  0  0  0
  -22.7242  -10.2138   20.3057 C   0  0  0  0  0  0
  -21.6854   -6.0736   22.5278 C   0  0  0  0  0  0
  -21.4015   -6.5640   23.8212 C   0  0  0  0  0  0
  -21.3660   -5.6793   24.9174 C   0  0  0  0  0  0
  -21.6044   -4.3056   24.7225 C   0  0  0  0  0  0
  -21.8819   -3.8147   23.4346 C   0  0  0  0  0  0
  -21.9193   -4.6964   22.3402 C   0  0  0  0  0  0
  -22.7831  -13.5231   21.1863 C   0  0  0  0  0  0
  -22.1661   -4.2150   21.0980 F   0  0  0  0  0  0
  -21.5628   -3.4539   25.7737 F   0  0  0  0  0  0
  -30.0117  -13.4034   20.4153 N   0  0  0  0  0  0
  -26.2962  -12.9401   20.3321 N   0  0  0  0  0  0
  -25.9324  -11.6547   20.5776 N   0  0  0  0  0  0
  -22.0476  -12.8218   22.0416 N   0  0  0  0  0  0
  -25.4224  -15.1921   20.4095 N   0  0  0  0  0  0
  -31.8863  -14.6120   20.1320 O   0  0  0  0  0  0
  -21.6642   -6.8880   21.4240 O   0  0  0  0  0  0
  -22.3516  -14.5536   20.6710 O   0  0  0  0  0  0
  -24.6207  -31.8636   23.2063 C   0  0  0  0  0  0
  -25.9075  -32.4800   23.8378 C   0  0  1  0  0  0
  -27.2246  -27.3800   20.1080 C   0  0  0  0  0  0
  -25.5909  -33.8600   24.2305 N   0  0  0  0  0  0
  -23.4128  -30.4872   21.5470 C   0  0  2  0  0  0
  -24.8622  -28.9521   20.1067 C   0  0  0  0  0  0
  -22.7450  -29.4637   22.4951 C   0  0  0  0  0  0
  -18.0280  -28.1382   22.8490 C   0  0  0  0  0  0
  -24.1488  -36.7305   23.2639 C   0  0  0  0  0  0
  -25.9482  -30.8137   21.3688 C   0  0  0  0  0  0
  -26.0272  -29.4466   20.7099 C   0  0  0  0  0  0
  -27.2168  -28.6687   20.7068 C   0  0  0  0  0  0
  -26.0472  -26.9203   19.4854 C   0  0  0  0  0  0
  -24.8704  -27.6916   19.4863 C   0  0  0  0  0  0
  -23.6251  -29.8230   20.1607 C   0  0  0  0  0  0
  -25.4110  -36.3098   24.0333 C   0  0  1  0  0  0
  -20.5877  -28.3680   23.1297 C   0  0  2  0  0  0
  -20.6769  -26.9407   22.5415 C   0  0  0  0  0  0
  -19.5747  -26.6385   21.5214 C   0  0  0  0  0  0
  -18.1925  -26.7928   22.1623 C   0  0  0  0  0  0
  -19.1531  -28.8848   23.2889 C   0  0  0  0  0  0
  -18.9457  -30.1452   23.8903 C   0  0  0  0  0  0
  -17.6458  -30.6586   24.0566 C   0  0  0  0  0  0
  -25.9042  -34.9464   23.5119 C   0  0  0  0  0  0
  -16.5349  -29.9087   23.6330 C   0  0  0  0  0  0
  -16.7268  -28.6504   23.0352 C   0  0  0  0  0  0
  -26.4484  -31.6593   25.0725 C   0  0  0  0  0  0
  -25.3736  -31.3710   26.1464 C   0  0  0  0  0  0
  -27.0322  -30.3026   24.6137 C   0  0  0  0  0  0
  -27.6052  -32.4321   25.7489 C   0  0  0  0  0  0
  -27.5581  -37.1806   24.8464 C   0  0  0  0  0  0
  -21.4168  -29.3038   22.3695 N   0  0  0  0  0  0
  -26.4293  -37.3786   23.9408 N   0  0  0  0  0  0
  -24.6789  -31.0696   22.0986 N   0  0  0  0  0  0
  -23.4196  -28.8176   23.3013 O   0  0  0  0  0  0
  -28.2960  -26.5022   20.1781 O   0  0  0  0  0  0
  -26.5608  -34.8922   22.4683 O   0  0  0  0  0  0
  -23.5383  -32.1406   23.7424 O   0  0  0  0  0  0
  -29.5129  -18.1944   20.7963 C   0  0  0  0  0  0
  -29.9332  -19.5643   20.6695 C   0  0  0  0  0  0
  -31.2955  -19.7927   20.4073 C   0  0  0  0  0  0
  -30.4458  -17.1130   20.6463 C   0  0  0  0  0  0
  -32.1557  -18.6913   20.2723 C   0  0  0  0  0  0
  -28.1049  -25.4779   21.1017 C   0  0  0  0  0  0
  -28.3431  -24.1309   21.0199 C   0  0  0  0  0  0
  -28.9484  -23.3965   19.8542 C   0  0  0  0  0  0
  -28.8814  -21.8011   19.7018 C   0  0  0  0  0  0
  -29.0223  -20.8044   20.8965 C   0  0  0  0  0  0
  -31.7415  -17.4138   20.3922 N   0  0  0  0  0  0
  -30.0056  -15.7267   20.7674 N   0  0  0  0  0  0
  -29.4919  -24.0185   18.9323 O   0  0  0  0  0  0
  -28.7237  -21.3339   18.5643 O   0  0  0  0  0  0
  -27.9997  -23.3786   22.0770 O   0  0  0  0  0  0
  -31.7751  -21.0578   20.3071 F   0  0  0  0  0  0
  -33.4695  -18.9073   20.0214 F   0  0  0  0  0  0
  -31.4566  -12.4189   19.1577 H   0  0  0  0  0  0
  -30.2970  -11.3661   19.9121 H   0  0  0  0  0  0
  -29.7508  -11.7326   17.4786 H   0  0  0  0  0  0
  -29.6552  -13.4563   17.7452 H   0  0  0  0  0  0
  -27.8485  -11.2929   18.8723 H   0  0  0  0  0  0
  -27.3668  -12.5732   17.7923 H   0  0  0  0  0  0
  -27.6595  -14.2562   19.5033 H   0  0  0  0  0  0
  -28.6871  -12.1098   21.4227 H   0  0  0  0  0  0
  -28.4552  -13.7943   21.8088 H   0  0  0  0  0  0
  -25.2764   -9.5687   22.4761 H   0  0  0  0  0  0
  -24.0005   -7.4636   22.7472 H   0  0  0  0  0  0
  -21.0846   -8.8777   19.8951 H   0  0  0  0  0  0
  -22.3701  -10.9677   19.6167 H   0  0  0  0  0  0
  -21.2008   -7.6149   23.9716 H   0  0  0  0  0  0
  -21.1482   -6.0523   25.9077 H   0  0  0  0  0  0
  -22.0598   -2.7609   23.2846 H   0  0  0  0  0  0
  -22.4095  -11.9877   22.4799 H   0  0  0  0  0  0
  -21.1093  -13.1238   22.2623 H   0  0  0  0  0  0
  -24.6509  -15.8428   20.5116 H   0  0  0  0  0  0
  -26.2629  -15.6305   20.0559 H   0  0  0  0  0  0
  -26.7147  -32.5496   23.1139 H   0  0  0  0  0  0
  -25.0060  -33.9756   25.0451 H   0  0  0  0  0  0
  -22.7039  -31.3058   21.4066 H   0  0  0  0  0  0
  -23.3748  -35.9640   23.3306 H   0  0  0  0  0  0
  -24.3579  -36.8920   22.2052 H   0  0  0  0  0  0
  -23.7243  -37.6511   23.6655 H   0  0  0  0  0  0
  -26.0706  -31.5807   20.6028 H   0  0  0  0  0  0
  -26.8316  -30.8635   21.9936 H   0  0  0  0  0  0
  -28.1099  -29.0329   21.1951 H   0  0  0  0  0  0
  -26.0348  -25.9414   19.0269 H   0  0  0  0  0  0
  -23.9758  -27.3050   19.0176 H   0  0  0  0  0  0
  -23.7356  -30.6003   19.4038 H   0  0  0  0  0  0
  -22.7480  -29.2461   19.8621 H   0  0  0  0  0  0
  -25.1289  -36.1958   25.0826 H   0  0  0  0  0  0
  -20.9969  -28.3252   24.1417 H   0  0  0  0  0  0
  -20.5671  -26.2289   23.3610 H   0  0  0  0  0  0
  -21.6638  -26.7441   22.1209 H   0  0  0  0  0  0
  -19.6909  -25.6298   21.1239 H   0  0  0  0  0  0
  -19.6687  -27.3199   20.6747 H   0  0  0  0  0  0
  -17.4197  -26.6680   21.4023 H   0  0  0  0  0  0
  -18.0323  -26.0065   22.9015 H   0  0  0  0  0  0
  -19.7933  -30.7266   24.2275 H   0  0  0  0  0  0
  -17.5014  -31.6267   24.5167 H   0  0  0  0  0  0
  -15.5350  -30.2993   23.7650 H   0  0  0  0  0  0
  -15.8667  -28.0827   22.7063 H   0  0  0  0  0  0
  -24.5916  -30.7049   25.7798 H   0  0  0  0  0  0
  -24.8918  -32.2867   26.4901 H   0  0  0  0  0  0
  -25.8080  -30.8888   27.0230 H   0  0  0  0  0  0
  -26.2881  -29.6782   24.1177 H   0  0  0  0  0  0
  -27.4061  -29.7271   25.4616 H   0  0  0  0  0  0
  -27.8732  -30.4332   23.9322 H   0  0  0  0  0  0
  -27.2668  -33.3617   26.2078 H   0  0  0  0  0  0
  -28.3853  -32.6889   25.0310 H   0  0  0  0  0  0
  -28.0731  -31.8440   26.5395 H   0  0  0  0  0  0
  -28.2600  -38.0101   24.7511 H   0  0  0  0  0  0
  -28.1074  -36.2633   24.6289 H   0  0  0  0  0  0
  -27.2299  -37.1456   25.8867 H   0  0  0  0  0  0
  -20.9335  -29.8767   21.6918 H   0  0  0  0  0  0
  -26.0180  -38.2864   24.1409 H   0  0  0  0  0  0
  -28.4758  -17.9811   21.0164 H   0  0  0  0  0  0
  -27.6752  -25.8880   22.0068 H   0  0  0  0  0  0
  -29.4227  -21.3469   21.7517 H   0  0  0  0  0  0
  -28.0250  -20.4707   21.1794 H   0  0  0  0  0  0
  -29.0379  -15.5906   21.0089 H   0  0  0  0  0  0
  -27.6336  -23.9561   22.7344 H   0  0  0  0  0  0
  1 25  1  0  0  0
  1 30  2  0  0  0
  1 82  1  0  0  0
  2  3  1  0  0  0
  2 25  1  0  0  0
  2 88  1  0  0  0
  2 89  1  0  0  0
  3  4  1  0  0  0
  3 90  1  0  0  0
  3 91  1  0  0  0
  4  5  1  0  0  0
  4 92  1  0  0  0
  4 93  1  0  0  0
  5  6  1  0  0  0
  5 26  1  0  0  0
  5 94  1  0  0  0
  6 25  1  0  0  0
  6 95  1  0  0  0
  6 96  1  0  0  0
  7  8  2  0  0  0
  7 26  1  0  0  0
  7 29  1  0  0  0
  8  9  1  0  0  0
  8 22  1  0  0  0
  9 10  1  0  0  0
  9 27  2  0  0  0
 10 11  2  0  0  0
 10 15  1  0  0  0
 11 12  1  0  0  0
 11 97  1  0  0  0
 12 13  2  0  0  0
 12 98  1  0  0  0
 13 14  1  0  0  0
 13 31  1  0  0  0
 14 15  2  0  0  0
 14 99  1  0  0  0
 15100  1  0  0  0
 16 17  2  0  0  0
 16 21  1  0  0  0
 16 31  1  0  0  0
 17 18  1  0  0  0
 17101  1  0  0  0
 18 19  2  0  0  0
 18102  1  0  0  0
 19 20  1  0  0  0
 19 24  1  0  0  0
 20 21  2  0  0  0
 20103  1  0  0  0
 21 23  1  0  0  0
 22 28  1  0  0  0
 22 32  2  0  0  0
 26 27  1  0  0  0
 28104  1  0  0  0
 28105  1  0  0  0
 29106  1  0  0  0
 29107  1  0  0  0
 33 34  1  0  0  0
 33 66  1  0  0  0
 33 70  2  0  0  0
 34 36  1  0  0  0
 34 59  1  0  0  0
 34108  1  0  0  0
 35 44  2  0  0  0
 35 45  1  0  0  0
 35 68  1  0  0  0
 36 56  1  0  0  0
 36109  1  0  0  0
 37 39  1  0  0  0
 37 47  1  0  0  0
 37 66  1  0  0  0
 37110  1  0  0  0
 38 43  2  0  0  0
 38 46  1  0  0  0
 38 47  1  0  0  0
 39 64  1  0  0  0
 39 67  2  0  0  0
 40 52  1  0  0  0
 40 53  2  0  0  0
 40 58  1  0  0  0
 41111  1  0  0  0
 41112  1  0  0  0
 41113  1  0  0  0
 41 48  1  0  0  0
 42 43  1  0  0  0
 42 66  1  0  0  0
 42114  1  0  0  0
 42115  1  0  0  0
 43 44  1  0  0  0
 44116  1  0  0  0
 45 46  2  0  0  0
 45117  1  0  0  0
 46118  1  0  0  0
 47119  1  0  0  0
 47120  1  0  0  0
 48 56  1  0  0  0
 48 65  1  0  0  0
 48121  1  0  0  0
 49 50  1  0  0  0
 49 53  1  0  0  0
 49 64  1  0  0  0
 49122  1  0  0  0
 50 51  1  0  0  0
 50123  1  0  0  0
 50124  1  0  0  0
 51 52  1  0  0  0
 51125  1  0  0  0
 51126  1  0  0  0
 52127  1  0  0  0
 52128  1  0  0  0
 53 54  1  0  0  0
 54 55  2  0  0  0
 54129  1  0  0  0
 55 57  1  0  0  0
 55130  1  0  0  0
 56 69  2  0  0  0
 57 58  2  0  0  0
 57131  1  0  0  0
 58132  1  0  0  0
 59 60  1  0  0  0
 59 61  1  0  0  0
 59 62  1  0  0  0
 60133  1  0  0  0
 60134  1  0  0  0
 60135  1  0  0  0
 61136  1  0  0  0
 61137  1  0  0  0
 61138  1  0  0  0
 62139  1  0  0  0
 62140  1  0  0  0
 62141  1  0  0  0
 63 65  1  0  0  0
 63142  1  0  0  0
 63143  1  0  0  0
 63144  1  0  0  0
 64145  1  0  0  0
 65146  1  0  0  0
 68 76  1  0  0  0
 71 72  2  0  0  0
 71 74  1  0  0  0
 71147  1  0  0  0
 72 73  1  0  0  0
 72 80  1  0  0  0
 73 75  2  0  0  0
 73 86  1  0  0  0
 74 81  2  0  0  0
 74 82  1  0  0  0
 75 81  1  0  0  0
 75 87  1  0  0  0
 76 77  2  0  0  0
 76148  1  0  0  0
 77 78  1  0  0  0
 77 85  1  0  0  0
 78 79  1  0  0  0
 78 83  2  0  0  0
 79 80  1  0  0  0
 79 84  2  0  0  0
 80149  1  0  0  0
 80150  1  0  0  0
 82151  1  0  0  0
 85152  1  0  0  0
M  ISO  4   1 100  68 101  76 101  82 100
M  END
> <chiral flag>
0

> <version>
0

> <s_m_source_file>
/data/baiqing/PycharmProjects/Reinvent-master-3.2/result/LINK_invent/BTK/process_docking_weight1_custom_product_contain_oxygen_bond_distance_aromatic_linkinvent_7_9_3/rearranged_h_0177.sdf

> <i_m_source_file_index>
60

> <r_mmod_Potential_Energy-OPLS-2005>
31.3990688323975

> <r_mmod_Stretch_Energy-OPLS-2005>
65.0833206176758

> <r_mmod_Bend_Energy-OPLS-2005>
133.060806274414

> <r_mmod_Torsional_Energy-OPLS-2005>
217.081604003906

> <r_mmod_Improper_Torsional_Energy-OPLS-2005>
5.18137836456299

> <r_mmod_Van_der_Waal_Energy-OPLS-2005>
152.056686401367

> <r_mmod_Electrostatic_Energy-OPLS-2005>
-305.55078125

> <r_mmod_Solvation_Energy-OPLS-2005>
-274.219940185547

> <b_mmod_Minimization_Converged-OPLS-2005>
0

> <r_mmod_RMS_Derivative-OPLS-2005>
0.143583044409752

$$$$
60
                    3D
 Structure written by MMmdl.
155163  0  0  1  0            999 V2000
  -30.7527  -14.4718   20.4103 C   0  0  0  0  0  0
  -30.3865  -12.2664   19.4476 C   0  0  0  0  0  0
  -29.4935  -12.4653   18.2082 C   0  0  0  0  0  0
  -28.0084  -12.3494   18.6064 C   0  0  0  0  0  0
  -27.6455  -13.2213   19.8401 C   0  0  2  0  0  0
  -28.6895  -13.1040   20.9704 C   0  0  0  0  0  0
  -25.2534  -13.8192   20.5655 C   0  0  0  0  0  0
  -24.1813  -13.0431   20.9178 C   0  0  0  0  0  0
  -24.6403  -11.6913   20.8720 C   0  0  0  0  0  0
  -23.9067  -10.4304   21.0395 C   0  0  0  0  0  0
  -24.3616   -9.4227   21.9177 C   0  0  0  0  0  0
  -23.6294   -8.2251   22.0752 C   0  0  0  0  0  0
  -22.4281   -8.0295   21.3545 C   0  0  0  0  0  0
  -21.9913   -9.0269   20.4649 C   0  0  0  0  0  0
  -22.7242  -10.2149   20.3054 C   0  0  0  0  0  0
  -21.6873   -6.0741   22.5283 C   0  0  0  0  0  0
  -21.4020   -6.5638   23.8221 C   0  0  0  0  0  0
  -21.3650   -5.6786   24.9178 C   0  0  0  0  0  0
  -21.6046   -4.3055   24.7240 C   0  0  0  0  0  0
  -21.8821   -3.8157   23.4353 C   0  0  0  0  0  0
  -21.9193   -4.6965   22.3403 C   0  0  0  0  0  0
  -22.7833  -13.5217   21.1840 C   0  0  0  0  0  0
  -22.1659   -4.2144   21.0974 F   0  0  0  0  0  0
  -21.5623   -3.4537   25.7741 F   0  0  0  0  0  0
  -30.0233  -13.3251   20.4011 N   0  0  0  0  0  0
  -26.2947  -12.9385   20.3218 N   0  0  0  0  0  0
  -25.9316  -11.6528   20.5685 N   0  0  0  0  0  0
  -22.0467  -12.8230   22.0402 N   0  0  0  0  0  0
  -25.4218  -15.1916   20.4088 N   0  0  0  0  0  0
  -31.9694  -14.4349   20.2256 O   0  0  0  0  0  0
  -21.6639   -6.8887   21.4242 O   0  0  0  0  0  0
  -22.3490  -14.5518   20.6670 O   0  0  0  0  0  0
  -24.6115  -31.8681   23.2106 C   0  0  0  0  0  0
  -25.9039  -32.4807   23.8368 C   0  0  1  0  0  0
  -27.2311  -27.4600   20.0427 C   0  0  0  0  0  0
  -25.5923  -33.8597   24.2312 N   0  0  0  0  0  0
  -23.3937  -30.4929   21.5551 C   0  0  2  0  0  0
  -24.8343  -28.9590   20.1137 C   0  0  0  0  0  0
  -22.7370  -29.4650   22.5039 C   0  0  0  0  0  0
  -18.0256  -28.1361   22.8492 C   0  0  0  0  0  0
  -24.1481  -36.7276   23.2631 C   0  0  0  0  0  0
  -25.9222  -30.8326   21.3635 C   0  0  0  0  0  0
  -25.9947  -29.4698   20.7064 C   0  0  0  0  0  0
  -27.1916  -28.7209   20.6784 C   0  0  0  0  0  0
  -26.0390  -26.9437   19.4826 C   0  0  0  0  0  0
  -24.8492  -27.6932   19.5074 C   0  0  0  0  0  0
  -23.5945  -29.8220   20.1710 C   0  0  0  0  0  0
  -25.4097  -36.3071   24.0335 C   0  0  1  0  0  0
  -20.5841  -28.3624   23.1356 C   0  0  2  0  0  0
  -20.6734  -26.9364   22.5447 C   0  0  0  0  0  0
  -19.5725  -26.6376   21.5213 C   0  0  0  0  0  0
  -18.1901  -26.7915   22.1600 C   0  0  0  0  0  0
  -19.1505  -28.8805   23.2914 C   0  0  0  0  0  0
  -18.9432  -30.1421   23.8904 C   0  0  0  0  0  0
  -17.6432  -30.6565   24.0555 C   0  0  0  0  0  0
  -25.9046  -34.9453   23.5114 C   0  0  0  0  0  0
  -16.5322  -29.9059   23.6334 C   0  0  0  0  0  0
  -16.7252  -28.6486   23.0344 C   0  0  0  0  0  0
  -26.4469  -31.6561   25.0689 C   0  0  0  0  0  0
  -25.3726  -31.3700   26.1445 C   0  0  0  0  0  0
  -27.0260  -30.2973   24.6068 C   0  0  0  0  0  0
  -27.6065  -32.4262   25.7447 C   0  0  0  0  0  0
  -27.5593  -37.1760   24.8436 C   0  0  0  0  0  0
  -21.4102  -29.2988   22.3767 N   0  0  0  0  0  0
  -26.4261  -37.3792   23.9448 N   0  0  0  0  0  0
  -24.6607  -31.0791   22.0998 N   0  0  0  0  0  0
  -23.4164  -28.8199   23.3064 O   0  0  0  0  0  0
  -28.4377  -26.7959   19.9934 O   0  0  0  0  0  0
  -26.5596  -34.8928   22.4676 O   0  0  0  0  0  0
  -23.5339  -32.1444   23.7523 O   0  0  0  0  0  0
  -30.7012  -20.3603   19.0460 C   0  0  0  0  0  0
  -31.4408  -19.2039   19.3890 C   0  0  0  0  0  0
  -30.5107  -18.2088   19.5940 C   0  0  0  0  0  0
  -29.3887  -20.0221   19.1874 C   0  0  0  0  0  0
  -30.7553  -16.8302   19.9000 C   0  0  0  0  0  0
  -30.0327  -15.7516   20.3039 C   0  0  0  0  0  0
  -28.1814  -23.2749   19.2584 C   0  0  0  0  0  0
  -28.8119  -24.4127   19.6397 C   0  0  0  0  0  0
  -28.4378  -22.0099   19.9306 C   0  0  0  0  0  0
  -28.6518  -25.7833   19.0007 C   0  0  0  0  0  0
  -32.9466  -19.1295   19.5082 C   0  0  0  0  0  0
  -28.4011  -20.9470   19.1078 N   0  0  0  0  0  0
  -28.7328  -21.9048   21.1256 O   0  0  0  0  0  0
  -29.2261  -18.6972   19.4931 O   0  0  0  0  0  0
  -29.6990  -24.4939   20.6493 O   0  0  0  0  0  0
  -33.4781  -20.3454   19.3877 F   0  0  0  0  0  0
  -33.2814  -18.6387   20.7010 F   0  0  0  0  0  0
  -33.4448  -18.3460   18.5537 F   0  0  0  0  0  0
  -31.4409  -12.2798   19.1653 H   0  0  0  0  0  0
  -30.2111  -11.2834   19.8893 H   0  0  0  0  0  0
  -29.7348  -11.7232   17.4462 H   0  0  0  0  0  0
  -29.6907  -13.4410   17.7590 H   0  0  0  0  0  0
  -27.8079  -11.2988   18.8166 H   0  0  0  0  0  0
  -27.3702  -12.6133   17.7612 H   0  0  0  0  0  0
  -27.6569  -14.2509   19.4840 H   0  0  0  0  0  0
  -28.6466  -12.1163   21.4319 H   0  0  0  0  0  0
  -28.4748  -13.8203   21.7655 H   0  0  0  0  0  0
  -25.2775   -9.5710   22.4721 H   0  0  0  0  0  0
  -24.0030   -7.4640   22.7455 H   0  0  0  0  0  0
  -21.0853   -8.8785   19.8949 H   0  0  0  0  0  0
  -22.3701  -10.9676   19.6133 H   0  0  0  0  0  0
  -21.2026   -7.6146   23.9715 H   0  0  0  0  0  0
  -21.1448   -6.0521   25.9073 H   0  0  0  0  0  0
  -22.0606   -2.7625   23.2850 H   0  0  0  0  0  0
  -22.4038  -11.9906   22.4871 H   0  0  0  0  0  0
  -21.1059  -13.1249   22.2525 H   0  0  0  0  0  0
  -24.6537  -15.8456   20.5234 H   0  0  0  0  0  0
  -26.2812  -15.6416   20.1187 H   0  0  0  0  0  0
  -26.7087  -32.5502   23.1112 H   0  0  0  0  0  0
  -25.0075  -33.9747   25.0454 H   0  0  0  0  0  0
  -22.6789  -31.3074   21.4218 H   0  0  0  0  0  0
  -23.3778  -35.9572   23.3237 H   0  0  0  0  0  0
  -24.3592  -36.8938   22.2056 H   0  0  0  0  0  0
  -23.7186  -37.6452   23.6665 H   0  0  0  0  0  0
  -26.0417  -31.6032   20.6007 H   0  0  0  0  0  0
  -26.8083  -30.8747   21.9848 H   0  0  0  0  0  0
  -28.0930  -29.1177   21.1230 H   0  0  0  0  0  0
  -26.0005  -25.9679   19.0227 H   0  0  0  0  0  0
  -23.9525  -27.2891   19.0587 H   0  0  0  0  0  0
  -23.6827  -30.5920   19.4040 H   0  0  0  0  0  0
  -22.7202  -29.2311   19.8913 H   0  0  0  0  0  0
  -25.1260  -36.1907   25.0827 H   0  0  0  0  0  0
  -20.9923  -28.3188   24.1469 H   0  0  0  0  0  0
  -20.5595  -26.2226   23.3622 H   0  0  0  0  0  0
  -21.6615  -26.7376   22.1276 H   0  0  0  0  0  0
  -19.6883  -25.6291   21.1210 H   0  0  0  0  0  0
  -19.6697  -27.3207   20.6751 H   0  0  0  0  0  0
  -17.4190  -26.6703   21.3978 H   0  0  0  0  0  0
  -18.0265  -26.0044   22.8972 H   0  0  0  0  0  0
  -19.7915  -30.7233   24.2288 H   0  0  0  0  0  0
  -17.4991  -31.6247   24.5159 H   0  0  0  0  0  0
  -15.5314  -30.2938   23.7672 H   0  0  0  0  0  0
  -15.8659  -28.0789   22.7038 H   0  0  0  0  0  0
  -24.5965  -30.6953   25.7817 H   0  0  0  0  0  0
  -24.8838  -32.2856   26.4769 H   0  0  0  0  0  0
  -25.8106  -30.9001   27.0254 H   0  0  0  0  0  0
  -26.2776  -29.6774   24.1119 H   0  0  0  0  0  0
  -27.3985  -29.7185   25.4527 H   0  0  0  0  0  0
  -27.8642  -30.4242   23.9216 H   0  0  0  0  0  0
  -27.2699  -33.3581   26.1997 H   0  0  0  0  0  0
  -28.3885  -32.6769   25.0267 H   0  0  0  0  0  0
  -28.0701  -31.8377   26.5373 H   0  0  0  0  0  0
  -28.2526  -38.0137   24.7603 H   0  0  0  0  0  0
  -28.1154  -36.2677   24.6064 H   0  0  0  0  0  0
  -27.2353  -37.1194   25.8843 H   0  0  0  0  0  0
  -20.9257  -29.8688   21.6977 H   0  0  0  0  0  0
  -26.0131  -38.2844   24.1540 H   0  0  0  0  0  0
  -31.0916  -21.3412   18.8114 H   0  0  0  0  0  0
  -31.8062  -16.6497   19.7212 H   0  0  0  0  0  0
  -28.9770  -15.8398   20.5085 H   0  0  0  0  0  0
  -27.4887  -23.3095   18.4293 H   0  0  0  0  0  0
  -27.9171  -25.7589   18.1982 H   0  0  0  0  0  0
  -29.5881  -26.0259   18.4957 H   0  0  0  0  0  0
  -28.0065  -21.0954   18.1882 H   0  0  0  0  0  0
  -29.7288  -23.6441   21.0784 H   0  0  0  0  0  0
  1 25  1  0  0  0
  1 30  2  0  0  0
  1 76  1  0  0  0
  2  3  1  0  0  0
  2 25  1  0  0  0
  2 89  1  0  0  0
  2 90  1  0  0  0
  3  4  1  0  0  0
  3 91  1  0  0  0
  3 92  1  0  0  0
  4  5  1  0  0  0
  4 93  1  0  0  0
  4 94  1  0  0  0
  5  6  1  0  0  0
  5 26  1  0  0  0
  5 95  1  0  0  0
  6 25  1  0  0  0
  6 96  1  0  0  0
  6 97  1  0  0  0
  7  8  2  0  0  0
  7 26  1  0  0  0
  7 29  1  0  0  0
  8  9  1  0  0  0
  8 22  1  0  0  0
  9 10  1  0  0  0
  9 27  2  0  0  0
 10 11  2  0  0  0
 10 15  1  0  0  0
 11 12  1  0  0  0
 11 98  1  0  0  0
 12 13  2  0  0  0
 12 99  1  0  0  0
 13 14  1  0  0  0
 13 31  1  0  0  0
 14 15  2  0  0  0
 14100  1  0  0  0
 15101  1  0  0  0
 16 17  2  0  0  0
 16 21  1  0  0  0
 16 31  1  0  0  0
 17 18  1  0  0  0
 17102  1  0  0  0
 18 19  2  0  0  0
 18103  1  0  0  0
 19 20  1  0  0  0
 19 24  1  0  0  0
 20 21  2  0  0  0
 20104  1  0  0  0
 21 23  1  0  0  0
 22 28  1  0  0  0
 22 32  2  0  0  0
 26 27  1  0  0  0
 28105  1  0  0  0
 28106  1  0  0  0
 29107  1  0  0  0
 29108  1  0  0  0
 33 34  1  0  0  0
 33 66  1  0  0  0
 33 70  2  0  0  0
 34 36  1  0  0  0
 34 59  1  0  0  0
 34109  1  0  0  0
 35 44  2  0  0  0
 35 45  1  0  0  0
 35 68  1  0  0  0
 36 56  1  0  0  0
 36110  1  0  0  0
 37 39  1  0  0  0
 37 47  1  0  0  0
 37 66  1  0  0  0
 37111  1  0  0  0
 38 43  2  0  0  0
 38 46  1  0  0  0
 38 47  1  0  0  0
 39 64  1  0  0  0
 39 67  2  0  0  0
 40 52  1  0  0  0
 40 53  2  0  0  0
 40 58  1  0  0  0
 41112  1  0  0  0
 41113  1  0  0  0
 41114  1  0  0  0
 41 48  1  0  0  0
 42 43  1  0  0  0
 42 66  1  0  0  0
 42115  1  0  0  0
 42116  1  0  0  0
 43 44  1  0  0  0
 44117  1  0  0  0
 45 46  2  0  0  0
 45118  1  0  0  0
 46119  1  0  0  0
 47120  1  0  0  0
 47121  1  0  0  0
 48 56  1  0  0  0
 48 65  1  0  0  0
 48122  1  0  0  0
 49 50  1  0  0  0
 49 53  1  0  0  0
 49 64  1  0  0  0
 49123  1  0  0  0
 50 51  1  0  0  0
 50124  1  0  0  0
 50125  1  0  0  0
 51 52  1  0  0  0
 51126  1  0  0  0
 51127  1  0  0  0
 52128  1  0  0  0
 52129  1  0  0  0
 53 54  1  0  0  0
 54 55  2  0  0  0
 54130  1  0  0  0
 55 57  1  0  0  0
 55131  1  0  0  0
 56 69  2  0  0  0
 57 58  2  0  0  0
 57132  1  0  0  0
 58133  1  0  0  0
 59 60  1  0  0  0
 59 61  1  0  0  0
 59 62  1  0  0  0
 60134  1  0  0  0
 60135  1  0  0  0
 60136  1  0  0  0
 61137  1  0  0  0
 61138  1  0  0  0
 61139  1  0  0  0
 62140  1  0  0  0
 62141  1  0  0  0
 62142  1  0  0  0
 63 65  1  0  0  0
 63143  1  0  0  0
 63144  1  0  0  0
 63145  1  0  0  0
 64146  1  0  0  0
 65147  1  0  0  0
 68 80  1  0  0  0
 71 72  1  0  0  0
 71 74  2  0  0  0
 71148  1  0  0  0
 72 73  2  0  0  0
 72 81  1  0  0  0
 73 75  1  0  0  0
 73 84  1  0  0  0
 74 82  1  0  0  0
 74 84  1  0  0  0
 75 76  2  0  0  0
 75149  1  0  0  0
 76150  1  0  0  0
 77 78  2  0  0  0
 77 79  1  0  0  0
 77151  1  0  0  0
 78 80  1  0  0  0
 78 85  1  0  0  0
 79 82  1  0  0  0
 79 83  2  0  0  0
 80152  1  0  0  0
 80153  1  0  0  0
 81 86  1  0  0  0
 81 87  1  0  0  0
 81 88  1  0  0  0
 82154  1  0  0  0
 85155  1  0  0  0
M  ISO  4   1 100  68 101  76 100  80 101
M  END
> <chiral flag>
0

> <version>
0

> <s_m_source_file>
/data/baiqing/PycharmProjects/Reinvent-master-3.2/result/LINK_invent/BTK/process_docking_weight1_custom_product_contain_oxygen_bond_distance_aromatic_linkinvent_7_9_3/rearranged_h_0177.sdf

> <i_m_source_file_index>
61

> <r_mmod_Potential_Energy-OPLS-2005>
10.5425367355347

> <r_mmod_Stretch_Energy-OPLS-2005>
34.5819969177246

> <r_mmod_Bend_Energy-OPLS-2005>
126.766929626465

> <r_mmod_Torsional_Energy-OPLS-2005>
244.692260742188

> <r_mmod_Improper_Torsional_Energy-OPLS-2005>
11.2422533035278

> <r_mmod_Van_der_Waal_Energy-OPLS-2005>
156.174880981445

> <r_mmod_Electrostatic_Energy-OPLS-2005>
-370.974853515625

> <r_mmod_Solvation_Energy-OPLS-2005>
-225.618606567383

> <b_mmod_Minimization_Converged-OPLS-2005>
0

> <r_mmod_RMS_Derivative-OPLS-2005>
3.63919186592102

$$$$
61
                    3D
 Structure written by MMmdl.
159167  0  0  1  0            999 V2000
  -30.6433  -14.5095   20.6169 C   0  0  0  0  0  0
  -30.4427  -12.3352   19.4233 C   0  0  0  0  0  0
  -29.5038  -12.5043   18.2084 C   0  0  0  0  0  0
  -28.0250  -12.3448   18.6158 C   0  0  0  0  0  0
  -27.6644  -13.1877   19.8674 C   0  0  2  0  0  0
  -28.6985  -12.9431   20.9867 C   0  0  0  0  0  0
  -25.2633  -13.8118   20.5601 C   0  0  0  0  0  0
  -24.1864  -13.0422   20.9084 C   0  0  0  0  0  0
  -24.6376  -11.6871   20.8659 C   0  0  0  0  0  0
  -23.9031  -10.4294   21.0364 C   0  0  0  0  0  0
  -24.3595   -9.4237   21.9164 C   0  0  0  0  0  0
  -23.6278   -8.2278   22.0778 C   0  0  0  0  0  0
  -22.4272   -8.0292   21.3548 C   0  0  0  0  0  0
  -21.9867   -9.0258   20.4653 C   0  0  0  0  0  0
  -22.7182  -10.2143   20.3036 C   0  0  0  0  0  0
  -21.6866   -6.0729   22.5261 C   0  0  0  0  0  0
  -21.4021   -6.5658   23.8190 C   0  0  0  0  0  0
  -21.3647   -5.6810   24.9146 C   0  0  0  0  0  0
  -21.6046   -4.3068   24.7208 C   0  0  0  0  0  0
  -21.8829   -3.8151   23.4328 C   0  0  0  0  0  0
  -21.9203   -4.6964   22.3376 C   0  0  0  0  0  0
  -22.7899  -13.5257   21.1764 C   0  0  0  0  0  0
  -22.1675   -4.2144   21.0949 F   0  0  0  0  0  0
  -21.5605   -3.4564   25.7720 F   0  0  0  0  0  0
  -30.0337  -13.2973   20.4604 N   0  0  0  0  0  0
  -26.3029  -12.9243   20.3260 N   0  0  0  0  0  0
  -25.9301  -11.6426   20.5694 N   0  0  0  0  0  0
  -22.0538  -12.8283   22.0332 N   0  0  0  0  0  0
  -25.4368  -15.1850   20.4104 N   0  0  0  0  0  0
  -31.7158  -14.7950   20.0713 O   0  0  0  0  0  0
  -21.6657   -6.8877   21.4223 O   0  0  0  0  0  0
  -22.3597  -14.5559   20.6592 O   0  0  0  0  0  0
  -24.6150  -31.8711   23.2179 C   0  0  0  0  0  0
  -25.9048  -32.4841   23.8446 C   0  0  1  0  0  0
  -27.2147  -27.4101   20.0994 C   0  0  0  0  0  0
  -25.5901  -33.8644   24.2349 N   0  0  0  0  0  0
  -23.3997  -30.5055   21.5591 C   0  0  2  0  0  0
  -24.8408  -28.9846   20.1066 C   0  0  0  0  0  0
  -22.7393  -29.4685   22.4968 C   0  0  0  0  0  0
  -18.0277  -28.1356   22.8488 C   0  0  0  0  0  0
  -24.1465  -36.7309   23.2623 C   0  0  0  0  0  0
  -25.9358  -30.8252   21.3820 C   0  0  0  0  0  0
  -26.0057  -29.4651   20.7195 C   0  0  0  0  0  0
  -27.1905  -28.6850   20.7225 C   0  0  0  0  0  0
  -26.0361  -26.9888   19.4300 C   0  0  0  0  0  0
  -24.8539  -27.7444   19.4566 C   0  0  0  0  0  0
  -23.6068  -29.8587   20.1666 C   0  0  0  0  0  0
  -25.4090  -36.3122   24.0332 C   0  0  1  0  0  0
  -20.5868  -28.3646   23.1292 C   0  0  2  0  0  0
  -20.6764  -26.9380   22.5397 C   0  0  0  0  0  0
  -19.5751  -26.6376   21.5179 C   0  0  0  0  0  0
  -18.1931  -26.7909   22.1599 C   0  0  0  0  0  0
  -19.1532  -28.8815   23.2899 C   0  0  0  0  0  0
  -18.9461  -30.1411   23.8935 C   0  0  0  0  0  0
  -17.6469  -30.6569   24.0563 C   0  0  0  0  0  0
  -25.9040  -34.9488   23.5141 C   0  0  0  0  0  0
  -16.5356  -29.9078   23.6318 C   0  0  0  0  0  0
  -16.7267  -28.6479   23.0366 C   0  0  0  0  0  0
  -26.4453  -31.6636   25.0789 C   0  0  0  0  0  0
  -25.3706  -31.3803   26.1543 C   0  0  0  0  0  0
  -27.0257  -30.3069   24.6182 C   0  0  0  0  0  0
  -27.6043  -32.4347   25.7532 C   0  0  0  0  0  0
  -27.5589  -37.1782   24.8437 C   0  0  0  0  0  0
  -21.4125  -29.3022   22.3691 N   0  0  0  0  0  0
  -26.4266  -37.3819   23.9439 N   0  0  0  0  0  0
  -24.6684  -31.0809   22.1095 N   0  0  0  0  0  0
  -23.4176  -28.8206   23.2988 O   0  0  0  0  0  0
  -28.3473  -26.5995   20.1773 O   0  0  0  0  0  0
  -26.5611  -34.8931   22.4711 O   0  0  0  0  0  0
  -23.5349  -32.1472   23.7566 O   0  0  0  0  0  0
  -28.7851  -18.7530   22.1377 C   0  0  0  0  0  0
  -29.0009  -17.3511   22.3934 C   0  0  0  0  0  0
  -29.4752  -19.2321   21.0437 C   0  0  0  0  0  0
  -29.7901  -16.7107   21.4615 C   0  0  0  0  0  0
  -28.7993  -22.7684   20.2807 C   0  0  0  0  0  0
  -28.9966  -24.1089   20.4979 C   0  0  0  0  0  0
  -29.5639  -21.7032   20.9765 C   0  0  0  0  0  0
  -27.8082  -19.5771   22.9388 C   0  0  0  0  0  0
  -28.3517  -16.6409   23.5521 C   0  0  0  0  0  0
  -27.7063  -22.3093   19.3113 C   0  0  0  0  0  0
  -28.1299  -25.2041   19.8466 C   0  0  0  0  0  0
  -29.3506  -20.4654   20.4584 N   0  0  0  0  0  0
  -29.9797  -15.3489   21.4426 N   0  0  0  0  0  0
  -30.3208  -21.8944   21.9334 O   0  0  0  0  0  0
  -29.9198  -24.6468   21.3151 O   0  0  0  0  0  0
  -30.3649  -17.9007   20.2925 S   0  0  0  0  0  0
  -31.4838  -12.4720   19.1256 H   0  0  0  0  0  0
  -30.3784  -11.3189   19.8150 H   0  0  0  0  0  0
  -29.7556  -11.7765   17.4359 H   0  0  0  0  0  0
  -29.6534  -13.4874   17.7610 H   0  0  0  0  0  0
  -27.8487  -11.2865   18.8191 H   0  0  0  0  0  0
  -27.3739  -12.6030   17.7817 H   0  0  0  0  0  0
  -27.7184  -14.2360   19.5740 H   0  0  0  0  0  0
  -28.6925  -11.8905   21.2771 H   0  0  0  0  0  0
  -28.4207  -13.4805   21.8935 H   0  0  0  0  0  0
  -25.2748   -9.5764   22.4714 H   0  0  0  0  0  0
  -23.9982   -7.4715   22.7558 H   0  0  0  0  0  0
  -21.0776   -8.8791   19.8997 H   0  0  0  0  0  0
  -22.3627  -10.9682   19.6159 H   0  0  0  0  0  0
  -21.2047   -7.6173   23.9685 H   0  0  0  0  0  0
  -21.1426   -6.0537   25.9045 H   0  0  0  0  0  0
  -22.0611   -2.7609   23.2826 H   0  0  0  0  0  0
  -22.4142  -11.9931   22.4685 H   0  0  0  0  0  0
  -21.1180  -13.1380   22.2582 H   0  0  0  0  0  0
  -24.6666  -15.8350   20.5303 H   0  0  0  0  0  0
  -26.3006  -15.6381   20.1376 H   0  0  0  0  0  0
  -26.7101  -32.5535   23.1190 H   0  0  0  0  0  0
  -25.0038  -33.9807   25.0484 H   0  0  0  0  0  0
  -22.6904  -31.3273   21.4364 H   0  0  0  0  0  0
  -23.3747  -35.9616   23.3248 H   0  0  0  0  0  0
  -24.3560  -36.8966   22.2041 H   0  0  0  0  0  0
  -23.7163  -37.6483   23.6661 H   0  0  0  0  0  0
  -26.0693  -31.5934   20.6191 H   0  0  0  0  0  0
  -26.8187  -30.8606   22.0087 H   0  0  0  0  0  0
  -28.0781  -29.0461   21.2236 H   0  0  0  0  0  0
  -25.9909  -26.0694   18.8657 H   0  0  0  0  0  0
  -23.9711  -27.3736   18.9529 H   0  0  0  0  0  0
  -23.7155  -30.6511   19.4248 H   0  0  0  0  0  0
  -22.7214  -29.2969   19.8621 H   0  0  0  0  0  0
  -25.1236  -36.1991   25.0815 H   0  0  0  0  0  0
  -20.9983  -28.3212   24.1400 H   0  0  0  0  0  0
  -20.5600  -26.2255   23.3581 H   0  0  0  0  0  0
  -21.6646  -26.7374   22.1235 H   0  0  0  0  0  0
  -19.6916  -25.6290   21.1191 H   0  0  0  0  0  0
  -19.6713  -27.3196   20.6723 H   0  0  0  0  0  0
  -17.4187  -26.6635   21.4016 H   0  0  0  0  0  0
  -18.0365  -26.0041   22.8991 H   0  0  0  0  0  0
  -19.7945  -30.7198   24.2344 H   0  0  0  0  0  0
  -17.5033  -31.6263   24.5146 H   0  0  0  0  0  0
  -15.5365  -30.3000   23.7625 H   0  0  0  0  0  0
  -15.8653  -28.0792   22.7108 H   0  0  0  0  0  0
  -24.5855  -30.7151   25.7922 H   0  0  0  0  0  0
  -24.8918  -32.2987   26.4964 H   0  0  0  0  0  0
  -25.8044  -30.9012   27.0327 H   0  0  0  0  0  0
  -26.2811  -29.6886   24.1149 H   0  0  0  0  0  0
  -27.3914  -29.7265   25.4660 H   0  0  0  0  0  0
  -27.8711  -30.4388   23.9423 H   0  0  0  0  0  0
  -27.2678  -33.3638   26.2152 H   0  0  0  0  0  0
  -28.3837  -32.6918   25.0342 H   0  0  0  0  0  0
  -28.0723  -31.8440   26.5416 H   0  0  0  0  0  0
  -28.2544  -38.0144   24.7599 H   0  0  0  0  0  0
  -28.1148  -36.2686   24.6104 H   0  0  0  0  0  0
  -27.2333  -37.1240   25.8841 H   0  0  0  0  0  0
  -20.9256  -29.8773   21.6956 H   0  0  0  0  0  0
  -26.0152  -38.2873   24.1557 H   0  0  0  0  0  0
  -26.8110  -19.4985   22.5077 H   0  0  0  0  0  0
  -28.0558  -20.6350   22.9690 H   0  0  0  0  0  0
  -27.7386  -19.2527   23.9766 H   0  0  0  0  0  0
  -28.5870  -17.1405   24.4916 H   0  0  0  0  0  0
  -28.6850  -15.6101   23.6636 H   0  0  0  0  0  0
  -27.2668  -16.6242   23.4455 H   0  0  0  0  0  0
  -28.1468  -21.7921   18.4606 H   0  0  0  0  0  0
  -27.1062  -23.1139   18.8947 H   0  0  0  0  0  0
  -27.0022  -21.6485   19.8227 H   0  0  0  0  0  0
  -27.1393  -24.9100   20.1948 H   0  0  0  0  0  0
  -28.1560  -25.0995   18.7605 H   0  0  0  0  0  0
  -28.8541  -20.4773   19.5788 H   0  0  0  0  0  0
  -29.2895  -14.8487   21.9846 H   0  0  0  0  0  0
  -30.3777  -23.9311   21.7450 H   0  0  0  0  0  0
  1 25  1  0  0  0
  1 30  2  0  0  0
  1 83  1  0  0  0
  2  3  1  0  0  0
  2 25  1  0  0  0
  2 87  1  0  0  0
  2 88  1  0  0  0
  3  4  1  0  0  0
  3 89  1  0  0  0
  3 90  1  0  0  0
  4  5  1  0  0  0
  4 91  1  0  0  0
  4 92  1  0  0  0
  5  6  1  0  0  0
  5 26  1  0  0  0
  5 93  1  0  0  0
  6 25  1  0  0  0
  6 94  1  0  0  0
  6 95  1  0  0  0
  7  8  2  0  0  0
  7 26  1  0  0  0
  7 29  1  0  0  0
  8  9  1  0  0  0
  8 22  1  0  0  0
  9 10  1  0  0  0
  9 27  2  0  0  0
 10 11  2  0  0  0
 10 15  1  0  0  0
 11 12  1  0  0  0
 11 96  1  0  0  0
 12 13  2  0  0  0
 12 97  1  0  0  0
 13 14  1  0  0  0
 13 31  1  0  0  0
 14 15  2  0  0  0
 14 98  1  0  0  0
 15 99  1  0  0  0
 16 17  2  0  0  0
 16 21  1  0  0  0
 16 31  1  0  0  0
 17 18  1  0  0  0
 17100  1  0  0  0
 18 19  2  0  0  0
 18101  1  0  0  0
 19 20  1  0  0  0
 19 24  1  0  0  0
 20 21  2  0  0  0
 20102  1  0  0  0
 21 23  1  0  0  0
 22 28  1  0  0  0
 22 32  2  0  0  0
 26 27  1  0  0  0
 28103  1  0  0  0
 28104  1  0  0  0
 29105  1  0  0  0
 29106  1  0  0  0
 33 34  1  0  0  0
 33 66  1  0  0  0
 33 70  2  0  0  0
 34 36  1  0  0  0
 34 59  1  0  0  0
 34107  1  0  0  0
 35 44  2  0  0  0
 35 45  1  0  0  0
 35 68  1  0  0  0
 36 56  1  0  0  0
 36108  1  0  0  0
 37 39  1  0  0  0
 37 47  1  0  0  0
 37 66  1  0  0  0
 37109  1  0  0  0
 38 43  2  0  0  0
 38 46  1  0  0  0
 38 47  1  0  0  0
 39 64  1  0  0  0
 39 67  2  0  0  0
 40 52  1  0  0  0
 40 53  2  0  0  0
 40 58  1  0  0  0
 41110  1  0  0  0
 41111  1  0  0  0
 41112  1  0  0  0
 41 48  1  0  0  0
 42 43  1  0  0  0
 42 66  1  0  0  0
 42113  1  0  0  0
 42114  1  0  0  0
 43 44  1  0  0  0
 44115  1  0  0  0
 45 46  2  0  0  0
 45116  1  0  0  0
 46117  1  0  0  0
 47118  1  0  0  0
 47119  1  0  0  0
 48 56  1  0  0  0
 48 65  1  0  0  0
 48120  1  0  0  0
 49 50  1  0  0  0
 49 53  1  0  0  0
 49 64  1  0  0  0
 49121  1  0  0  0
 50 51  1  0  0  0
 50122  1  0  0  0
 50123  1  0  0  0
 51 52  1  0  0  0
 51124  1  0  0  0
 51125  1  0  0  0
 52126  1  0  0  0
 52127  1  0  0  0
 53 54  1  0  0  0
 54 55  2  0  0  0
 54128  1  0  0  0
 55 57  1  0  0  0
 55129  1  0  0  0
 56 69  2  0  0  0
 57 58  2  0  0  0
 57130  1  0  0  0
 58131  1  0  0  0
 59 60  1  0  0  0
 59 61  1  0  0  0
 59 62  1  0  0  0
 60132  1  0  0  0
 60133  1  0  0  0
 60134  1  0  0  0
 61135  1  0  0  0
 61136  1  0  0  0
 61137  1  0  0  0
 62138  1  0  0  0
 62139  1  0  0  0
 62140  1  0  0  0
 63 65  1  0  0  0
 63141  1  0  0  0
 63142  1  0  0  0
 63143  1  0  0  0
 64144  1  0  0  0
 65145  1  0  0  0
 68 81  1  0  0  0
 71 72  1  0  0  0
 71 73  2  0  0  0
 71 78  1  0  0  0
 72 74  2  0  0  0
 72 79  1  0  0  0
 73 82  1  0  0  0
 73 86  1  0  0  0
 74 83  1  0  0  0
 74 86  1  0  0  0
 75 76  2  0  0  0
 75 77  1  0  0  0
 75 80  1  0  0  0
 76 81  1  0  0  0
 76 85  1  0  0  0
 77 82  1  0  0  0
 77 84  2  0  0  0
 78146  1  0  0  0
 78147  1  0  0  0
 78148  1  0  0  0
 79149  1  0  0  0
 79150  1  0  0  0
 79151  1  0  0  0
 80152  1  0  0  0
 80153  1  0  0  0
 80154  1  0  0  0
 81155  1  0  0  0
 81156  1  0  0  0
 82157  1  0  0  0
 83158  1  0  0  0
 85159  1  0  0  0
M  ISO  4   1 100  68 101  81 101  83 100
M  END
> <chiral flag>
0

> <version>
0

> <s_m_source_file>
/data/baiqing/PycharmProjects/Reinvent-master-3.2/result/LINK_invent/BTK/process_docking_weight1_custom_product_contain_oxygen_bond_distance_aromatic_linkinvent_7_9_3/rearranged_h_0177.sdf

> <i_m_source_file_index>
62

> <r_mmod_Potential_Energy-OPLS-2005>
-17.885913848877

> <r_mmod_Stretch_Energy-OPLS-2005>
49.0726356506348

> <r_mmod_Bend_Energy-OPLS-2005>
143.663970947266

> <r_mmod_Torsional_Energy-OPLS-2005>
239.000595092773

> <r_mmod_Improper_Torsional_Energy-OPLS-2005>
5.24377965927124

> <r_mmod_Van_der_Waal_Energy-OPLS-2005>
159.427749633789

> <r_mmod_Electrostatic_Energy-OPLS-2005>
-401.468627929688

> <r_mmod_Solvation_Energy-OPLS-2005>
-236.39372253418

> <b_mmod_Minimization_Converged-OPLS-2005>
0

> <r_mmod_RMS_Derivative-OPLS-2005>
4.04506492614746

$$$$
62
                    3D
 Structure written by MMmdl.
171179  0  0  1  0            999 V2000
  -30.7003  -14.4397   20.4894 C   0  0  0  0  0  0
  -30.4199  -12.2685   19.4132 C   0  0  0  0  0  0
  -29.4925  -12.4778   18.1974 C   0  0  0  0  0  0
  -28.0090  -12.3488   18.6112 C   0  0  0  0  0  0
  -27.6536  -13.1944   19.8668 C   0  0  2  0  0  0
  -28.7041  -12.9599   20.9761 C   0  0  0  0  0  0
  -25.2525  -13.8150   20.5771 C   0  0  0  0  0  0
  -24.1780  -13.0427   20.9235 C   0  0  0  0  0  0
  -24.6344  -11.6900   20.8777 C   0  0  0  0  0  0
  -23.9026  -10.4275   21.0410 C   0  0  0  0  0  0
  -24.3588   -9.4195   21.9179 C   0  0  0  0  0  0
  -23.6289   -8.2213   22.0729 C   0  0  0  0  0  0
  -22.4272   -8.0253   21.3522 C   0  0  0  0  0  0
  -21.9913   -9.0223   20.4619 C   0  0  0  0  0  0
  -22.7207  -10.2120   20.3038 C   0  0  0  0  0  0
  -21.6827   -6.0733   22.5291 C   0  0  0  0  0  0
  -21.3979   -6.5628   23.8233 C   0  0  0  0  0  0
  -21.3673   -5.6783   24.9199 C   0  0  0  0  0  0
  -21.6055   -4.3051   24.7248 C   0  0  0  0  0  0
  -21.8810   -3.8141   23.4360 C   0  0  0  0  0  0
  -21.9192   -4.6961   22.3424 C   0  0  0  0  0  0
  -22.7780  -13.5178   21.1909 C   0  0  0  0  0  0
  -22.1662   -4.2150   21.0996 F   0  0  0  0  0  0
  -21.5645   -3.4527   25.7755 F   0  0  0  0  0  0
  -30.0279  -13.2631   20.4186 N   0  0  0  0  0  0
  -26.2958  -12.9301   20.3374 N   0  0  0  0  0  0
  -25.9258  -11.6491   20.5780 N   0  0  0  0  0  0
  -22.0406  -12.8119   22.0445 N   0  0  0  0  0  0
  -25.4226  -15.1884   20.4298 N   0  0  0  0  0  0
  -31.9070  -14.5441   20.2742 O   0  0  0  0  0  0
  -21.6614   -6.8867   21.4246 O   0  0  0  0  0  0
  -22.3466  -14.5508   20.6782 O   0  0  0  0  0  0
  -24.6089  -31.8686   23.2095 C   0  0  0  0  0  0
  -25.8998  -32.4819   23.8389 C   0  0  1  0  0  0
  -27.2443  -27.4649   20.0619 C   0  0  0  0  0  0
  -25.5870  -33.8620   24.2313 N   0  0  0  0  0  0
  -23.3963  -30.4875   21.5502 C   0  0  2  0  0  0
  -24.8443  -28.9551   20.1134 C   0  0  0  0  0  0
  -22.7372  -29.4650   22.5003 C   0  0  0  0  0  0
  -18.0304  -28.1342   22.8493 C   0  0  0  0  0  0
  -24.1486  -36.7312   23.2640 C   0  0  0  0  0  0
  -25.9221  -30.8309   21.3698 C   0  0  0  0  0  0
  -25.9986  -29.4675   20.7156 C   0  0  0  0  0  0
  -27.1951  -28.7203   20.7056 C   0  0  0  0  0  0
  -26.0668  -26.9525   19.4722 C   0  0  0  0  0  0
  -24.8707  -27.6924   19.4962 C   0  0  0  0  0  0
  -23.6004  -29.8129   20.1676 C   0  0  0  0  0  0
  -25.4108  -36.3103   24.0339 C   0  0  1  0  0  0
  -20.5848  -28.3712   23.1394 C   0  0  2  0  0  0
  -20.6761  -26.9397   22.5636 C   0  0  0  0  0  0
  -19.5878  -26.6451   21.5261 C   0  0  0  0  0  0
  -18.2038  -26.7887   22.1655 C   0  0  0  0  0  0
  -19.1518  -28.8859   23.2906 C   0  0  0  0  0  0
  -18.9428  -30.1518   23.8787 C   0  0  0  0  0  0
  -17.6423  -30.6665   24.0303 C   0  0  0  0  0  0
  -25.9044  -34.9478   23.5121 C   0  0  0  0  0  0
  -16.5335  -29.9110   23.6093 C   0  0  0  0  0  0
  -16.7282  -28.6454   23.0256 C   0  0  0  0  0  0
  -26.4463  -31.6598   25.0707 C   0  0  0  0  0  0
  -25.3734  -31.3697   26.1458 C   0  0  0  0  0  0
  -27.0311  -30.3042   24.6096 C   0  0  0  0  0  0
  -27.6046  -32.4335   25.7457 C   0  0  0  0  0  0
  -27.5582  -37.1806   24.8467 C   0  0  0  0  0  0
  -21.4100  -29.3056   22.3744 N   0  0  0  0  0  0
  -26.4296  -37.3777   23.9409 N   0  0  0  0  0  0
  -24.6595  -31.0791   22.1006 N   0  0  0  0  0  0
  -23.4145  -28.8187   23.3044 O   0  0  0  0  0  0
  -28.4400  -26.7829   20.0270 O   0  0  0  0  0  0
  -26.5620  -34.8932   22.4693 O   0  0  0  0  0  0
  -23.5297  -32.1458   23.7490 O   0  0  0  0  0  0
  -28.6273  -16.1368   22.1114 C   0  0  0  0  0  0
  -27.8231  -17.3001   22.2675 C   0  0  0  0  0  0
  -29.1379  -16.2946   20.8491 C   0  0  0  0  0  0
  -28.0748  -19.0445   18.3297 C   0  0  0  0  0  0
  -28.9911  -22.1686   18.0653 C   0  0  0  0  0  0
  -27.6408  -18.8946   24.1883 C   0  0  0  0  0  0
  -25.5377  -18.0349   23.0202 C   0  0  0  0  0  0
  -27.0699  -21.7310   16.5339 C   0  0  0  0  0  0
  -29.0729  -18.1286   19.0564 C   0  0  0  0  0  0
  -28.6285  -19.9024   17.1854 C   0  0  0  0  0  0
  -28.8959  -23.6867   17.8348 C   0  0  0  0  0  0
  -28.5720  -24.5035   19.1054 C   0  0  0  0  0  0
  -28.7318  -26.0135   18.8574 C   0  0  0  0  0  0
  -26.9826  -17.7197   23.4474 C   0  0  0  0  0  0
  -27.9268  -18.1216   21.2296 N   0  0  0  0  0  0
  -28.6990  -17.4891   20.3226 N   0  0  0  0  0  0
  -29.9762  -15.5066   20.1420 N   0  0  0  0  0  0
  -28.2465  -21.3206   17.3140 N   0  0  0  0  0  0
  -26.8648  -19.0559   18.5822 O   0  0  0  0  0  0
  -29.8361  -21.7542   18.8652 O   0  0  0  0  0  0
  -31.4656  -12.3628   19.1134 H   0  0  0  0  0  0
  -30.3157  -11.2543   19.8060 H   0  0  0  0  0  0
  -29.7322  -11.7541   17.4196 H   0  0  0  0  0  0
  -29.6692  -13.4629   17.7587 H   0  0  0  0  0  0
  -27.8150  -11.2932   18.8123 H   0  0  0  0  0  0
  -27.3581  -12.6264   17.7801 H   0  0  0  0  0  0
  -27.6897  -14.2382   19.5679 H   0  0  0  0  0  0
  -28.6758  -11.9183   21.2977 H   0  0  0  0  0  0
  -28.4800  -13.5275   21.8704 H   0  0  0  0  0  0
  -25.2732   -9.5666   22.4745 H   0  0  0  0  0  0
  -24.0030   -7.4578   22.7402 H   0  0  0  0  0  0
  -21.0864   -8.8695   19.8885 H   0  0  0  0  0  0
  -22.3652  -10.9653   19.6135 H   0  0  0  0  0  0
  -21.1905   -7.6117   23.9736 H   0  0  0  0  0  0
  -21.1535   -6.0508   25.9120 H   0  0  0  0  0  0
  -22.0585   -2.7594   23.2858 H   0  0  0  0  0  0
  -22.4043  -11.9835   22.4915 H   0  0  0  0  0  0
  -21.0967  -13.1045   22.2586 H   0  0  0  0  0  0
  -24.6693  -15.8375   20.6179 H   0  0  0  0  0  0
  -26.2953  -15.6510   20.2172 H   0  0  0  0  0  0
  -26.7048  -32.5537   23.1140 H   0  0  0  0  0  0
  -24.9953  -33.9776   25.0411 H   0  0  0  0  0  0
  -22.6834  -31.3030   21.4124 H   0  0  0  0  0  0
  -23.3735  -35.9655   23.3317 H   0  0  0  0  0  0
  -24.3558  -36.8908   22.2047 H   0  0  0  0  0  0
  -23.7262  -37.6532   23.6649 H   0  0  0  0  0  0
  -26.0494  -31.6006   20.6087 H   0  0  0  0  0  0
  -26.8023  -30.8719   21.9987 H   0  0  0  0  0  0
  -28.0891  -29.1207   21.1654 H   0  0  0  0  0  0
  -26.0594  -25.9903   18.9810 H   0  0  0  0  0  0
  -23.9835  -27.2904   19.0280 H   0  0  0  0  0  0
  -23.6892  -30.5800   19.3978 H   0  0  0  0  0  0
  -22.7292  -29.2172   19.8902 H   0  0  0  0  0  0
  -25.1286  -36.1967   25.0832 H   0  0  0  0  0  0
  -20.9888  -28.3408   24.1537 H   0  0  0  0  0  0
  -20.5377  -26.2370   23.3863 H   0  0  0  0  0  0
  -21.6713  -26.7306   22.1730 H   0  0  0  0  0  0
  -19.7144  -25.6422   21.1144 H   0  0  0  0  0  0
  -19.6833  -27.3451   20.6933 H   0  0  0  0  0  0
  -17.4316  -26.6529   21.4084 H   0  0  0  0  0  0
  -18.0606  -26.0045   22.9107 H   0  0  0  0  0  0
  -19.7892  -30.7447   24.2017 H   0  0  0  0  0  0
  -17.4985  -31.6497   24.4573 H   0  0  0  0  0  0
  -15.5344  -30.3083   23.7226 H   0  0  0  0  0  0
  -15.8717  -28.0746   22.6928 H   0  0  0  0  0  0
  -24.5888  -30.7083   25.7759 H   0  0  0  0  0  0
  -24.8954  -32.2858   26.4952 H   0  0  0  0  0  0
  -25.8084  -30.8804   27.0184 H   0  0  0  0  0  0
  -26.2850  -29.6782   24.1180 H   0  0  0  0  0  0
  -27.4109  -29.7314   25.4568 H   0  0  0  0  0  0
  -27.8680  -30.4347   23.9224 H   0  0  0  0  0  0
  -27.2654  -33.3611   26.2093 H   0  0  0  0  0  0
  -28.3818  -32.6946   25.0253 H   0  0  0  0  0  0
  -28.0780  -31.8438   26.5326 H   0  0  0  0  0  0
  -28.2619  -38.0085   24.7502 H   0  0  0  0  0  0
  -28.1067  -36.2625   24.6317 H   0  0  0  0  0  0
  -27.2301  -37.1479   25.8869 H   0  0  0  0  0  0
  -20.9267  -29.8773   21.6953 H   0  0  0  0  0  0
  -26.0199  -38.2863   24.1382 H   0  0  0  0  0  0
  -28.7854  -15.3517   22.8335 H   0  0  0  0  0  0
  -28.6407  -18.6202   24.5316 H   0  0  0  0  0  0
  -27.0531  -19.1847   25.0562 H   0  0  0  0  0  0
  -27.7544  -19.7655   23.5412 H   0  0  0  0  0  0
  -24.9322  -18.3378   23.8740 H   0  0  0  0  0  0
  -25.0601  -17.1620   22.5817 H   0  0  0  0  0  0
  -25.5016  -18.8376   22.2805 H   0  0  0  0  0  0
  -26.4112  -20.8870   16.3247 H   0  0  0  0  0  0
  -27.3655  -22.1569   15.5733 H   0  0  0  0  0  0
  -26.4580  -22.4540   17.0745 H   0  0  0  0  0  0
  -29.9885  -18.6930   19.2378 H   0  0  0  0  0  0
  -29.3368  -17.3454   18.3431 H   0  0  0  0  0  0
  -28.2555  -19.4903   16.2486 H   0  0  0  0  0  0
  -29.7167  -19.8033   17.1303 H   0  0  0  0  0  0
  -29.8788  -23.9885   17.4655 H   0  0  0  0  0  0
  -28.2031  -23.9553   17.0389 H   0  0  0  0  0  0
  -29.2234  -24.2075   19.9289 H   0  0  0  0  0  0
  -27.5539  -24.2864   19.4295 H   0  0  0  0  0  0
  -28.1407  -26.3368   17.9991 H   0  0  0  0  0  0
  -29.7647  -26.2264   18.5793 H   0  0  0  0  0  0
  -26.9266  -16.8875   24.1528 H   0  0  0  0  0  0
  -30.4989  -16.0516   19.4745 H   0  0  0  0  0  0
  1 25  1  0  0  0
  1 30  2  0  0  0
  1 87  1  0  0  0
  2  3  1  0  0  0
  2 25  1  0  0  0
  2 91  1  0  0  0
  2 92  1  0  0  0
  3  4  1  0  0  0
  3 93  1  0  0  0
  3 94  1  0  0  0
  4  5  1  0  0  0
  4 95  1  0  0  0
  4 96  1  0  0  0
  5  6  1  0  0  0
  5 26  1  0  0  0
  5 97  1  0  0  0
  6 25  1  0  0  0
  6 98  1  0  0  0
  6 99  1  0  0  0
  7  8  2  0  0  0
  7 26  1  0  0  0
  7 29  1  0  0  0
  8  9  1  0  0  0
  8 22  1  0  0  0
  9 10  1  0  0  0
  9 27  2  0  0  0
 10 11  2  0  0  0
 10 15  1  0  0  0
 11 12  1  0  0  0
 11100  1  0  0  0
 12 13  2  0  0  0
 12101  1  0  0  0
 13 14  1  0  0  0
 13 31  1  0  0  0
 14 15  2  0  0  0
 14102  1  0  0  0
 15103  1  0  0  0
 16 17  2  0  0  0
 16 21  1  0  0  0
 16 31  1  0  0  0
 17 18  1  0  0  0
 17104  1  0  0  0
 18 19  2  0  0  0
 18105  1  0  0  0
 19 20  1  0  0  0
 19 24  1  0  0  0
 20 21  2  0  0  0
 20106  1  0  0  0
 21 23  1  0  0  0
 22 28  1  0  0  0
 22 32  2  0  0  0
 26 27  1  0  0  0
 28107  1  0  0  0
 28108  1  0  0  0
 29109  1  0  0  0
 29110  1  0  0  0
 33 34  1  0  0  0
 33 66  1  0  0  0
 33 70  2  0  0  0
 34 36  1  0  0  0
 34 59  1  0  0  0
 34111  1  0  0  0
 35 44  2  0  0  0
 35 45  1  0  0  0
 35 68  1  0  0  0
 36 56  1  0  0  0
 36112  1  0  0  0
 37 39  1  0  0  0
 37 47  1  0  0  0
 37 66  1  0  0  0
 37113  1  0  0  0
 38 43  2  0  0  0
 38 46  1  0  0  0
 38 47  1  0  0  0
 39 64  1  0  0  0
 39 67  2  0  0  0
 40 52  1  0  0  0
 40 53  2  0  0  0
 40 58  1  0  0  0
 41114  1  0  0  0
 41115  1  0  0  0
 41116  1  0  0  0
 41 48  1  0  0  0
 42 43  1  0  0  0
 42 66  1  0  0  0
 42117  1  0  0  0
 42118  1  0  0  0
 43 44  1  0  0  0
 44119  1  0  0  0
 45 46  2  0  0  0
 45120  1  0  0  0
 46121  1  0  0  0
 47122  1  0  0  0
 47123  1  0  0  0
 48 56  1  0  0  0
 48 65  1  0  0  0
 48124  1  0  0  0
 49 50  1  0  0  0
 49 53  1  0  0  0
 49 64  1  0  0  0
 49125  1  0  0  0
 50 51  1  0  0  0
 50126  1  0  0  0
 50127  1  0  0  0
 51 52  1  0  0  0
 51128  1  0  0  0
 51129  1  0  0  0
 52130  1  0  0  0
 52131  1  0  0  0
 53 54  1  0  0  0
 54 55  2  0  0  0
 54132  1  0  0  0
 55 57  1  0  0  0
 55133  1  0  0  0
 56 69  2  0  0  0
 57 58  2  0  0  0
 57134  1  0  0  0
 58135  1  0  0  0
 59 60  1  0  0  0
 59 61  1  0  0  0
 59 62  1  0  0  0
 60136  1  0  0  0
 60137  1  0  0  0
 60138  1  0  0  0
 61139  1  0  0  0
 61140  1  0  0  0
 61141  1  0  0  0
 62142  1  0  0  0
 62143  1  0  0  0
 62144  1  0  0  0
 63 65  1  0  0  0
 63145  1  0  0  0
 63146  1  0  0  0
 63147  1  0  0  0
 64148  1  0  0  0
 65149  1  0  0  0
 68 83  1  0  0  0
 71 72  1  0  0  0
 71 73  2  0  0  0
 71150  1  0  0  0
 72 84  1  0  0  0
 72 85  2  0  0  0
 73 86  1  0  0  0
 73 87  1  0  0  0
 74 79  1  0  0  0
 74 80  1  0  0  0
 74 89  2  0  0  0
 75 81  1  0  0  0
 75 88  1  0  0  0
 75 90  2  0  0  0
 76151  1  0  0  0
 76152  1  0  0  0
 76153  1  0  0  0
 76 84  1  0  0  0
 77 84  1  0  0  0
 77154  1  0  0  0
 77155  1  0  0  0
 77156  1  0  0  0
 78 88  1  0  0  0
 78157  1  0  0  0
 78158  1  0  0  0
 78159  1  0  0  0
 79 86  1  0  0  0
 79160  1  0  0  0
 79161  1  0  0  0
 80 88  1  0  0  0
 80162  1  0  0  0
 80163  1  0  0  0
 81 82  1  0  0  0
 81164  1  0  0  0
 81165  1  0  0  0
 82 83  1  0  0  0
 82166  1  0  0  0
 82167  1  0  0  0
 83168  1  0  0  0
 83169  1  0  0  0
 84170  1  0  0  0
 85 86  1  0  0  0
 87171  1  0  0  0
M  ISO  4   1 100  68 101  83 101  87 100
M  END
> <chiral flag>
0

> <version>
0

> <s_m_source_file>
/data/baiqing/PycharmProjects/Reinvent-master-3.2/result/LINK_invent/BTK/process_docking_weight1_custom_product_contain_oxygen_bond_distance_aromatic_linkinvent_7_9_3/rearranged_h_0177.sdf

> <i_m_source_file_index>
63

> <r_mmod_Potential_Energy-OPLS-2005>
-136.85139465332

> <r_mmod_Stretch_Energy-OPLS-2005>
33.8070983886719

> <r_mmod_Bend_Energy-OPLS-2005>
136.58642578125

> <r_mmod_Torsional_Energy-OPLS-2005>
278.648559570312

> <r_mmod_Improper_Torsional_Energy-OPLS-2005>
27.9212951660156

> <r_mmod_Van_der_Waal_Energy-OPLS-2005>
127.403144836426

> <r_mmod_Electrostatic_Energy-OPLS-2005>
-515.806518554688

> <r_mmod_Solvation_Energy-OPLS-2005>
-246.188232421875

> <b_mmod_Minimization_Converged-OPLS-2005>
0

> <r_mmod_RMS_Derivative-OPLS-2005>
5.00960397720337

$$$$
63
                    3D
 Structure written by MMmdl.
154162  0  0  1  0            999 V2000
  -30.6563  -14.5339   20.5730 C   0  0  0  0  0  0
  -30.4416  -12.3448   19.4279 C   0  0  0  0  0  0
  -29.5058  -12.5206   18.2115 C   0  0  0  0  0  0
  -28.0248  -12.3743   18.6184 C   0  0  0  0  0  0
  -27.6636  -13.2073   19.8786 C   0  0  2  0  0  0
  -28.7075  -12.9810   20.9966 C   0  0  0  0  0  0
  -25.2599  -13.8157   20.5691 C   0  0  0  0  0  0
  -24.1849  -13.0424   20.9173 C   0  0  0  0  0  0
  -24.6400  -11.6895   20.8719 C   0  0  0  0  0  0
  -23.9058  -10.4291   21.0394 C   0  0  0  0  0  0
  -24.3610   -9.4211   21.9178 C   0  0  0  0  0  0
  -23.6296   -8.2241   22.0755 C   0  0  0  0  0  0
  -22.4275   -8.0280   21.3554 C   0  0  0  0  0  0
  -21.9899   -9.0242   20.4646 C   0  0  0  0  0  0
  -22.7221  -10.2134   20.3054 C   0  0  0  0  0  0
  -21.6855   -6.0739   22.5279 C   0  0  0  0  0  0
  -21.4012   -6.5635   23.8209 C   0  0  0  0  0  0
  -21.3663   -5.6788   24.9169 C   0  0  0  0  0  0
  -21.6045   -4.3054   24.7218 C   0  0  0  0  0  0
  -21.8812   -3.8148   23.4335 C   0  0  0  0  0  0
  -21.9191   -4.6967   22.3396 C   0  0  0  0  0  0
  -22.7876  -13.5236   21.1826 C   0  0  0  0  0  0
  -22.1655   -4.2154   21.0972 F   0  0  0  0  0  0
  -21.5633   -3.4532   25.7727 F   0  0  0  0  0  0
  -30.0348  -13.3234   20.4512 N   0  0  0  0  0  0
  -26.3042  -12.9320   20.3385 N   0  0  0  0  0  0
  -25.9334  -11.6479   20.5766 N   0  0  0  0  0  0
  -22.0504  -12.8262   22.0402 N   0  0  0  0  0  0
  -25.4303  -15.1875   20.4106 N   0  0  0  0  0  0
  -31.7771  -14.7541   20.1010 O   0  0  0  0  0  0
  -21.6643   -6.8886   21.4248 O   0  0  0  0  0  0
  -22.3579  -14.5548   20.6676 O   0  0  0  0  0  0
  -24.6226  -31.8643   23.2065 C   0  0  0  0  0  0
  -25.9100  -32.4809   23.8371 C   0  0  1  0  0  0
  -27.2316  -27.3671   20.1057 C   0  0  0  0  0  0
  -25.5954  -33.8603   24.2305 N   0  0  0  0  0  0
  -23.4144  -30.4901   21.5470 C   0  0  2  0  0  0
  -24.8632  -28.9578   20.1088 C   0  0  0  0  0  0
  -22.7455  -29.4646   22.4935 C   0  0  0  0  0  0
  -18.0275  -28.1416   22.8486 C   0  0  0  0  0  0
  -24.1492  -36.7277   23.2636 C   0  0  0  0  0  0
  -25.9528  -30.8122   21.3715 C   0  0  0  0  0  0
  -26.0294  -29.4437   20.7127 C   0  0  0  0  0  0
  -27.2166  -28.6595   20.7033 C   0  0  0  0  0  0
  -26.0393  -26.9259   19.4789 C   0  0  0  0  0  0
  -24.8685  -27.7022   19.4865 C   0  0  0  0  0  0
  -23.6273  -29.8303   20.1599 C   0  0  0  0  0  0
  -25.4117  -36.3092   24.0325 C   0  0  1  0  0  0
  -20.5882  -28.3690   23.1296 C   0  0  2  0  0  0
  -20.6777  -26.9421   22.5417 C   0  0  0  0  0  0
  -19.5751  -26.6406   21.5230 C   0  0  0  0  0  0
  -18.1929  -26.7961   22.1635 C   0  0  0  0  0  0
  -19.1536  -28.8864   23.2895 C   0  0  0  0  0  0
  -18.9461  -30.1473   23.8902 C   0  0  0  0  0  0
  -17.6463  -30.6609   24.0573 C   0  0  0  0  0  0
  -25.9053  -34.9461   23.5107 C   0  0  0  0  0  0
  -16.5350  -29.9111   23.6352 C   0  0  0  0  0  0
  -16.7267  -28.6543   23.0344 C   0  0  0  0  0  0
  -26.4493  -31.6609   25.0729 C   0  0  0  0  0  0
  -25.3736  -31.3737   26.1469 C   0  0  0  0  0  0
  -27.0330  -30.3036   24.6176 C   0  0  0  0  0  0
  -27.6073  -32.4323   25.7497 C   0  0  0  0  0  0
  -27.5574  -37.1791   24.8462 C   0  0  0  0  0  0
  -21.4170  -29.3047   22.3686 N   0  0  0  0  0  0
  -26.4283  -37.3787   23.9419 N   0  0  0  0  0  0
  -24.6815  -31.0701   22.0993 N   0  0  0  0  0  0
  -23.4203  -28.8174   23.2978 O   0  0  0  0  0  0
  -28.3647  -26.5497   20.1580 O   0  0  0  0  0  0
  -26.5597  -34.8914   22.4660 O   0  0  0  0  0  0
  -23.5405  -32.1420   23.7433 O   0  0  0  0  0  0
  -30.1295  -19.1638   20.8592 C   0  0  0  0  0  0
  -30.0697  -19.2022   22.2414 C   0  0  0  0  0  0
  -30.1255  -16.8907   21.3545 C   0  0  0  0  0  0
  -29.2585  -24.1349   20.3229 C   0  0  0  0  0  0
  -29.2006  -22.6704   19.7120 C   0  0  0  0  0  0
  -31.5650  -20.3541   19.1647 C   0  0  0  0  0  0
  -28.1608  -25.1323   19.8379 C   0  0  0  0  0  0
  -30.1886  -20.3319   19.8533 C   0  0  2  0  0  0
  -30.1395  -17.8235   20.3791 N   0  0  0  0  0  0
  -29.9837  -20.2943   23.0989 N   0  0  0  0  0  0
  -29.9006  -15.4903   21.1572 N   0  0  0  0  0  0
  -29.9039  -21.7068   20.3631 N   0  0  0  0  0  0
  -30.1186  -24.4674   21.1496 O   0  0  0  0  0  0
  -28.5733  -22.4383   18.6738 O   0  0  0  0  0  0
  -30.0691  -17.6036   22.9558 S   0  0  0  0  0  0
  -31.4825  -12.4728   19.1236 H   0  0  0  0  0  0
  -30.3707  -11.3310   19.8256 H   0  0  0  0  0  0
  -29.7544  -11.7905   17.4397 H   0  0  0  0  0  0
  -29.6677  -13.5042   17.7665 H   0  0  0  0  0  0
  -27.8365  -11.3170   18.8064 H   0  0  0  0  0  0
  -27.3792  -12.6553   17.7856 H   0  0  0  0  0  0
  -27.7049  -14.2577   19.5915 H   0  0  0  0  0  0
  -28.6996  -11.9362   21.3112 H   0  0  0  0  0  0
  -28.4573  -13.5497   21.8937 H   0  0  0  0  0  0
  -25.2742   -9.5703   22.4760 H   0  0  0  0  0  0
  -23.9989   -7.4649   22.7477 H   0  0  0  0  0  0
  -21.0818   -8.8760   19.8968 H   0  0  0  0  0  0
  -22.3648  -10.9674   19.6173 H   0  0  0  0  0  0
  -21.2008   -7.6145   23.9711 H   0  0  0  0  0  0
  -21.1499   -6.0522   25.9072 H   0  0  0  0  0  0
  -22.0597   -2.7610   23.2823 H   0  0  0  0  0  0
  -22.4080  -11.9909   22.4806 H   0  0  0  0  0  0
  -21.1135  -13.1348   22.2601 H   0  0  0  0  0  0
  -24.6611  -15.8397   20.5231 H   0  0  0  0  0  0
  -26.2804  -15.6305   20.0847 H   0  0  0  0  0  0
  -26.7172  -32.5497   23.1124 H   0  0  0  0  0  0
  -25.0136  -33.9764   25.0476 H   0  0  0  0  0  0
  -22.7061  -31.3090   21.4060 H   0  0  0  0  0  0
  -23.3764  -35.9601   23.3319 H   0  0  0  0  0  0
  -24.3587  -36.8885   22.2048 H   0  0  0  0  0  0
  -23.7225  -37.6473   23.6644 H   0  0  0  0  0  0
  -26.0814  -31.5828   20.6104 H   0  0  0  0  0  0
  -26.8330  -30.8554   22.0006 H   0  0  0  0  0  0
  -28.1127  -29.0305   21.1816 H   0  0  0  0  0  0
  -25.9768  -25.9721   18.9772 H   0  0  0  0  0  0
  -23.9740  -27.3272   19.0084 H   0  0  0  0  0  0
  -23.7396  -30.6104   19.4057 H   0  0  0  0  0  0
  -22.7510  -29.2567   19.8537 H   0  0  0  0  0  0
  -25.1298  -36.1936   25.0809 H   0  0  0  0  0  0
  -20.9978  -28.3274   24.1412 H   0  0  0  0  0  0
  -20.5716  -26.2294   23.3600 H   0  0  0  0  0  0
  -21.6638  -26.7481   22.1186 H   0  0  0  0  0  0
  -19.6915  -25.6323   21.1247 H   0  0  0  0  0  0
  -19.6706  -27.3228   20.6770 H   0  0  0  0  0  0
  -17.4198  -26.6707   21.4034 H   0  0  0  0  0  0
  -18.0318  -26.0113   22.9036 H   0  0  0  0  0  0
  -19.7933  -30.7295   24.2283 H   0  0  0  0  0  0
  -17.5017  -31.6296   24.5170 H   0  0  0  0  0  0
  -15.5358  -30.3012   23.7696 H   0  0  0  0  0  0
  -15.8667  -28.0885   22.7033 H   0  0  0  0  0  0
  -24.5939  -30.7052   25.7808 H   0  0  0  0  0  0
  -24.8881  -32.2886   26.4867 H   0  0  0  0  0  0
  -25.8069  -30.8951   27.0262 H   0  0  0  0  0  0
  -26.2891  -29.6799   24.1208 H   0  0  0  0  0  0
  -27.4040  -29.7287   25.4675 H   0  0  0  0  0  0
  -27.8760  -30.4336   23.9385 H   0  0  0  0  0  0
  -27.2716  -33.3636   26.2066 H   0  0  0  0  0  0
  -28.3885  -32.6864   25.0320 H   0  0  0  0  0  0
  -28.0737  -31.8444   26.5418 H   0  0  0  0  0  0
  -28.2589  -38.0097   24.7541 H   0  0  0  0  0  0
  -28.1070  -36.2625   24.6252 H   0  0  0  0  0  0
  -27.2286  -37.1390   25.8864 H   0  0  0  0  0  0
  -20.9338  -29.8761   21.6894 H   0  0  0  0  0  0
  -26.0167  -38.2850   24.1476 H   0  0  0  0  0  0
  -32.3674  -20.4869   19.8905 H   0  0  0  0  0  0
  -31.6403  -21.1599   18.4348 H   0  0  0  0  0  0
  -31.7586  -19.4188   18.6366 H   0  0  0  0  0  0
  -27.2368  -24.7825   20.2985 H   0  0  0  0  0  0
  -28.0455  -25.0226   18.7596 H   0  0  0  0  0  0
  -29.4526  -20.1095   19.0783 H   0  0  0  0  0  0
  -29.3441  -21.0297   22.8157 H   0  0  0  0  0  0
  -29.8278  -20.0724   24.0779 H   0  0  0  0  0  0
  -29.0729  -15.1281   21.6020 H   0  0  0  0  0  0
  -30.3788  -21.9881   21.2127 H   0  0  0  0  0  0
  1 25  1  0  0  0
  1 30  2  0  0  0
  1 81  1  0  0  0
  2  3  1  0  0  0
  2 25  1  0  0  0
  2 86  1  0  0  0
  2 87  1  0  0  0
  3  4  1  0  0  0
  3 88  1  0  0  0
  3 89  1  0  0  0
  4  5  1  0  0  0
  4 90  1  0  0  0
  4 91  1  0  0  0
  5  6  1  0  0  0
  5 26  1  0  0  0
  5 92  1  0  0  0
  6 25  1  0  0  0
  6 93  1  0  0  0
  6 94  1  0  0  0
  7  8  2  0  0  0
  7 26  1  0  0  0
  7 29  1  0  0  0
  8  9  1  0  0  0
  8 22  1  0  0  0
  9 10  1  0  0  0
  9 27  2  0  0  0
 10 11  2  0  0  0
 10 15  1  0  0  0
 11 12  1  0  0  0
 11 95  1  0  0  0
 12 13  2  0  0  0
 12 96  1  0  0  0
 13 14  1  0  0  0
 13 31  1  0  0  0
 14 15  2  0  0  0
 14 97  1  0  0  0
 15 98  1  0  0  0
 16 17  2  0  0  0
 16 21  1  0  0  0
 16 31  1  0  0  0
 17 18  1  0  0  0
 17 99  1  0  0  0
 18 19  2  0  0  0
 18100  1  0  0  0
 19 20  1  0  0  0
 19 24  1  0  0  0
 20 21  2  0  0  0
 20101  1  0  0  0
 21 23  1  0  0  0
 22 28  1  0  0  0
 22 32  2  0  0  0
 26 27  1  0  0  0
 28102  1  0  0  0
 28103  1  0  0  0
 29104  1  0  0  0
 29105  1  0  0  0
 33 34  1  0  0  0
 33 66  1  0  0  0
 33 70  2  0  0  0
 34 36  1  0  0  0
 34 59  1  0  0  0
 34106  1  0  0  0
 35 44  2  0  0  0
 35 45  1  0  0  0
 35 68  1  0  0  0
 36 56  1  0  0  0
 36107  1  0  0  0
 37 39  1  0  0  0
 37 47  1  0  0  0
 37 66  1  0  0  0
 37108  1  0  0  0
 38 43  2  0  0  0
 38 46  1  0  0  0
 38 47  1  0  0  0
 39 64  1  0  0  0
 39 67  2  0  0  0
 40 52  1  0  0  0
 40 53  2  0  0  0
 40 58  1  0  0  0
 41109  1  0  0  0
 41110  1  0  0  0
 41111  1  0  0  0
 41 48  1  0  0  0
 42 43  1  0  0  0
 42 66  1  0  0  0
 42112  1  0  0  0
 42113  1  0  0  0
 43 44  1  0  0  0
 44114  1  0  0  0
 45 46  2  0  0  0
 45115  1  0  0  0
 46116  1  0  0  0
 47117  1  0  0  0
 47118  1  0  0  0
 48 56  1  0  0  0
 48 65  1  0  0  0
 48119  1  0  0  0
 49 50  1  0  0  0
 49 53  1  0  0  0
 49 64  1  0  0  0
 49120  1  0  0  0
 50 51  1  0  0  0
 50121  1  0  0  0
 50122  1  0  0  0
 51 52  1  0  0  0
 51123  1  0  0  0
 51124  1  0  0  0
 52125  1  0  0  0
 52126  1  0  0  0
 53 54  1  0  0  0
 54 55  2  0  0  0
 54127  1  0  0  0
 55 57  1  0  0  0
 55128  1  0  0  0
 56 69  2  0  0  0
 57 58  2  0  0  0
 57129  1  0  0  0
 58130  1  0  0  0
 59 60  1  0  0  0
 59 61  1  0  0  0
 59 62  1  0  0  0
 60131  1  0  0  0
 60132  1  0  0  0
 60133  1  0  0  0
 61134  1  0  0  0
 61135  1  0  0  0
 61136  1  0  0  0
 62137  1  0  0  0
 62138  1  0  0  0
 62139  1  0  0  0
 63 65  1  0  0  0
 63140  1  0  0  0
 63141  1  0  0  0
 63142  1  0  0  0
 64143  1  0  0  0
 65144  1  0  0  0
 68 77  1  0  0  0
 71 72  2  0  0  0
 71 78  1  0  0  0
 71 79  1  0  0  0
 72 80  1  0  0  0
 72 85  1  0  0  0
 73 79  2  0  0  0
 73 81  1  0  0  0
 73 85  1  0  0  0
 74 75  1  0  0  0
 74 77  1  0  0  0
 74 83  2  0  0  0
 75 82  1  0  0  0
 75 84  2  0  0  0
 76145  1  0  0  0
 76146  1  0  0  0
 76147  1  0  0  0
 76 78  1  0  0  0
 77148  1  0  0  0
 77149  1  0  0  0
 78 82  1  0  0  0
 78150  1  0  0  0
 80151  1  0  0  0
 80152  1  0  0  0
 81153  1  0  0  0
 82154  1  0  0  0
M  ISO  4   1 100  68 101  77 101  81 100
M  END
> <chiral flag>
0

> <version>
0

> <s_m_source_file>
/data/baiqing/PycharmProjects/Reinvent-master-3.2/result/LINK_invent/BTK/process_docking_weight1_custom_product_contain_oxygen_bond_distance_aromatic_linkinvent_7_9_3/rearranged_h_0177.sdf

> <i_m_source_file_index>
64

> <r_mmod_Potential_Energy-OPLS-2005>
-27.9691982269287

> <r_mmod_Stretch_Energy-OPLS-2005>
57.1374549865723

> <r_mmod_Bend_Energy-OPLS-2005>
119.121925354004

> <r_mmod_Torsional_Energy-OPLS-2005>
214.557479858398

> <r_mmod_Improper_Torsional_Energy-OPLS-2005>
9.50502777099609

> <r_mmod_Van_der_Waal_Energy-OPLS-2005>
129.859436035156

> <r_mmod_Electrostatic_Energy-OPLS-2005>
-328.438110351562

> <r_mmod_Solvation_Energy-OPLS-2005>
-255.223114013672

> <b_mmod_Minimization_Converged-OPLS-2005>
0

> <r_mmod_RMS_Derivative-OPLS-2005>
2.52134442329407

$$$$
64
                    3D
 Structure written by MMmdl.
154162  0  0  1  0            999 V2000
  -30.6501  -14.5546   20.5506 C   0  0  0  0  0  0
  -30.4357  -12.3548   19.4250 C   0  0  0  0  0  0
  -29.4976  -12.5023   18.2075 C   0  0  0  0  0  0
  -28.0199  -12.3498   18.6238 C   0  0  0  0  0  0
  -27.6549  -13.2048   19.8661 C   0  0  2  0  0  0
  -28.7013  -13.0199   20.9884 C   0  0  0  0  0  0
  -25.2564  -13.8146   20.5672 C   0  0  0  0  0  0
  -24.1831  -13.0423   20.9201 C   0  0  0  0  0  0
  -24.6383  -11.6892   20.8761 C   0  0  0  0  0  0
  -23.9054  -10.4278   21.0408 C   0  0  0  0  0  0
  -24.3609   -9.4195   21.9184 C   0  0  0  0  0  0
  -23.6285   -8.2240   22.0757 C   0  0  0  0  0  0
  -22.4272   -8.0272   21.3541 C   0  0  0  0  0  0
  -21.9899   -9.0249   20.4652 C   0  0  0  0  0  0
  -22.7228  -10.2126   20.3056 C   0  0  0  0  0  0
  -21.6848   -6.0729   22.5276 C   0  0  0  0  0  0
  -21.4008   -6.5636   23.8210 C   0  0  0  0  0  0
  -21.3661   -5.6784   24.9174 C   0  0  0  0  0  0
  -21.6050   -4.3049   24.7224 C   0  0  0  0  0  0
  -21.8819   -3.8141   23.4342 C   0  0  0  0  0  0
  -21.9192   -4.6955   22.3398 C   0  0  0  0  0  0
  -22.7860  -13.5230   21.1858 C   0  0  0  0  0  0
  -22.1660   -4.2141   21.0978 F   0  0  0  0  0  0
  -21.5634   -3.4538   25.7736 F   0  0  0  0  0  0
  -30.0186  -13.3518   20.4231 N   0  0  0  0  0  0
  -26.2990  -12.9306   20.3330 N   0  0  0  0  0  0
  -25.9303  -11.6471   20.5769 N   0  0  0  0  0  0
  -22.0496  -12.8226   22.0412 N   0  0  0  0  0  0
  -25.4261  -15.1865   20.4034 N   0  0  0  0  0  0
  -31.8163  -14.7268   20.1781 O   0  0  0  0  0  0
  -21.6634   -6.8867   21.4237 O   0  0  0  0  0  0
  -22.3556  -14.5546   20.6707 O   0  0  0  0  0  0
  -24.6174  -31.8649   23.2060 C   0  0  0  0  0  0
  -25.9045  -32.4812   23.8376 C   0  0  1  0  0  0
  -27.2318  -27.3946   20.1104 C   0  0  0  0  0  0
  -25.5891  -33.8610   24.2308 N   0  0  0  0  0  0
  -23.4097  -30.4858   21.5466 C   0  0  2  0  0  0
  -24.8574  -28.9412   20.1165 C   0  0  0  0  0  0
  -22.7443  -29.4631   22.4965 C   0  0  0  0  0  0
  -18.0281  -28.1385   22.8491 C   0  0  0  0  0  0
  -24.1484  -36.7295   23.2643 C   0  0  0  0  0  0
  -25.9419  -30.8180   21.3635 C   0  0  0  0  0  0
  -26.0198  -29.4478   20.7119 C   0  0  0  0  0  0
  -27.2147  -28.6834   20.7017 C   0  0  0  0  0  0
  -26.0546  -26.9084   19.5101 C   0  0  0  0  0  0
  -24.8709  -27.6726   19.5102 C   0  0  0  0  0  0
  -23.6226  -29.8161   20.1623 C   0  0  0  0  0  0
  -25.4105  -36.3101   24.0349 C   0  0  1  0  0  0
  -20.5870  -28.3659   23.1311 C   0  0  2  0  0  0
  -20.6764  -26.9392   22.5416 C   0  0  0  0  0  0
  -19.5745  -26.6380   21.5212 C   0  0  0  0  0  0
  -18.1924  -26.7931   22.1627 C   0  0  0  0  0  0
  -19.1536  -28.8842   23.2895 C   0  0  0  0  0  0
  -18.9474  -30.1454   23.8888 C   0  0  0  0  0  0
  -17.6475  -30.6579   24.0578 C   0  0  0  0  0  0
  -25.9040  -34.9472   23.5127 C   0  0  0  0  0  0
  -16.5361  -29.9094   23.6330 C   0  0  0  0  0  0
  -16.7280  -28.6521   23.0328 C   0  0  0  0  0  0
  -26.4447  -31.6605   25.0723 C   0  0  0  0  0  0
  -25.3711  -31.3749   26.1482 C   0  0  0  0  0  0
  -27.0287  -30.3058   24.6101 C   0  0  0  0  0  0
  -27.6013  -32.4334   25.7485 C   0  0  0  0  0  0
  -27.5583  -37.1795   24.8466 C   0  0  0  0  0  0
  -21.4161  -29.3029   22.3727 N   0  0  0  0  0  0
  -26.4288  -37.3793   23.9427 N   0  0  0  0  0  0
  -24.6746  -31.0720   22.0974 N   0  0  0  0  0  0
  -23.4210  -28.8165   23.3007 O   0  0  0  0  0  0
  -28.3724  -26.6116   20.0832 O   0  0  0  0  0  0
  -26.5599  -34.8932   22.4688 O   0  0  0  0  0  0
  -23.5349  -32.1407   23.7420 O   0  0  0  0  0  0
  -30.9171  -18.2718   23.1340 C   0  0  0  0  0  0
  -30.7554  -16.9892   22.5880 C   0  0  0  0  0  0
  -30.1321  -16.9020   21.3301 C   0  0  0  0  0  0
  -29.8885  -19.2366   21.3280 C   0  0  0  0  0  0
  -29.2149  -22.8187   20.3254 C   0  0  0  0  0  0
  -28.8741  -21.4882   21.1123 C   0  0  0  0  0  0
  -29.7361  -25.6615   21.7724 C   0  0  0  0  0  0
  -28.2166  -24.0426   20.3817 C   0  0  0  0  0  0
  -28.4133  -25.4875   21.0031 C   0  0  2  0  0  0
  -30.4886  -19.3845   22.5051 N   0  0  0  0  0  0
  -29.7013  -18.0509   20.7150 N   0  0  0  0  0  0
  -29.8221  -15.5906   20.8417 N   0  0  0  0  0  0
  -29.5557  -20.4024   20.6616 N   0  0  0  0  0  0
  -30.2698  -22.8771   19.6741 O   0  0  0  0  0  0
  -28.0394  -21.4629   22.0267 O   0  0  0  0  0  0
  -31.1478  -15.8833   23.2692 F   0  0  0  0  0  0
  -31.4752  -12.4862   19.1187 H   0  0  0  0  0  0
  -30.3702  -11.3503   19.8462 H   0  0  0  0  0  0
  -29.7496  -11.7618   17.4477 H   0  0  0  0  0  0
  -29.6481  -13.4783   17.7423 H   0  0  0  0  0  0
  -27.8455  -11.2952   18.8406 H   0  0  0  0  0  0
  -27.3656  -12.5997   17.7880 H   0  0  0  0  0  0
  -27.6823  -14.2456   19.5433 H   0  0  0  0  0  0
  -28.7001  -11.9884   21.3449 H   0  0  0  0  0  0
  -28.4599  -13.6317   21.8597 H   0  0  0  0  0  0
  -25.2753   -9.5677   22.4760 H   0  0  0  0  0  0
  -23.9993   -7.4626   22.7474 H   0  0  0  0  0  0
  -21.0833   -8.8766   19.8956 H   0  0  0  0  0  0
  -22.3685  -10.9666   19.6172 H   0  0  0  0  0  0
  -21.1993   -7.6140   23.9707 H   0  0  0  0  0  0
  -21.1490   -6.0520   25.9076 H   0  0  0  0  0  0
  -22.0599   -2.7603   23.2847 H   0  0  0  0  0  0
  -22.4101  -11.9869   22.4784 H   0  0  0  0  0  0
  -21.1127  -13.1264   22.2628 H   0  0  0  0  0  0
  -24.6466  -15.8293   20.4903 H   0  0  0  0  0  0
  -26.2477  -15.6210   20.0046 H   0  0  0  0  0  0
  -26.7118  -32.5492   23.1134 H   0  0  0  0  0  0
  -25.0072  -33.9777   25.0474 H   0  0  0  0  0  0
  -22.7009  -31.3031   21.4026 H   0  0  0  0  0  0
  -23.3753  -35.9623   23.3319 H   0  0  0  0  0  0
  -24.3591  -36.8881   22.2056 H   0  0  0  0  0  0
  -23.7228  -37.6506   23.6635 H   0  0  0  0  0  0
  -26.0606  -31.5825   20.5945 H   0  0  0  0  0  0
  -26.8267  -30.8686   21.9862 H   0  0  0  0  0  0
  -28.1136  -29.0719   21.1580 H   0  0  0  0  0  0
  -26.0562  -25.9326   19.0436 H   0  0  0  0  0  0
  -23.9778  -27.2773   19.0465 H   0  0  0  0  0  0
  -23.7415  -30.5908   19.4042 H   0  0  0  0  0  0
  -22.7441  -29.2419   19.8616 H   0  0  0  0  0  0
  -25.1282  -36.1955   25.0844 H   0  0  0  0  0  0
  -20.9975  -28.3203   24.1425 H   0  0  0  0  0  0
  -20.5661  -26.2263   23.3605 H   0  0  0  0  0  0
  -21.6634  -26.7418   22.1212 H   0  0  0  0  0  0
  -19.6914  -25.6297   21.1224 H   0  0  0  0  0  0
  -19.6691  -27.3207   20.6755 H   0  0  0  0  0  0
  -17.4202  -26.6685   21.4026 H   0  0  0  0  0  0
  -18.0316  -26.0078   22.9025 H   0  0  0  0  0  0
  -19.7956  -30.7270   24.2242 H   0  0  0  0  0  0
  -17.5041  -31.6257   24.5182 H   0  0  0  0  0  0
  -15.5367  -30.2997   23.7662 H   0  0  0  0  0  0
  -15.8682  -28.0862   22.7006 H   0  0  0  0  0  0
  -24.5867  -30.7108   25.7840 H   0  0  0  0  0  0
  -24.8923  -32.2921   26.4919 H   0  0  0  0  0  0
  -25.8062  -30.8939   27.0246 H   0  0  0  0  0  0
  -26.2861  -29.6846   24.1090 H   0  0  0  0  0  0
  -27.4009  -29.7269   25.4552 H   0  0  0  0  0  0
  -27.8692  -30.4412   23.9301 H   0  0  0  0  0  0
  -27.2624  -33.3618   26.2093 H   0  0  0  0  0  0
  -28.3793  -32.6917   25.0297 H   0  0  0  0  0  0
  -28.0703  -31.8441   26.5374 H   0  0  0  0  0  0
  -28.2577  -38.0113   24.7537 H   0  0  0  0  0  0
  -28.1093  -36.2646   24.6237 H   0  0  0  0  0  0
  -27.2315  -37.1378   25.8872 H   0  0  0  0  0  0
  -20.9315  -29.8792   21.6986 H   0  0  0  0  0  0
  -26.0169  -38.2865   24.1449 H   0  0  0  0  0  0
  -31.3815  -18.4070   24.0998 H   0  0  0  0  0  0
  -29.8458  -24.9208   22.5652 H   0  0  0  0  0  0
  -29.7853  -26.6453   22.2406 H   0  0  0  0  0  0
  -30.5949  -25.5685   21.1082 H   0  0  0  0  0  0
  -28.8662  -24.4465   19.6084 H   0  0  0  0  0  0
  -28.3139  -23.7868   21.4327 H   0  0  0  0  0  0
  -27.6146  -25.6283   21.7372 H   0  0  0  0  0  0
  -28.8496  -15.3452   20.8965 H   0  0  0  0  0  0
  -30.0602  -20.5681   19.8043 H   0  0  0  0  0  0
  1 25  1  0  0  0
  1 30  2  0  0  0
  1 82  1  0  0  0
  2  3  1  0  0  0
  2 25  1  0  0  0
  2 87  1  0  0  0
  2 88  1  0  0  0
  3  4  1  0  0  0
  3 89  1  0  0  0
  3 90  1  0  0  0
  4  5  1  0  0  0
  4 91  1  0  0  0
  4 92  1  0  0  0
  5  6  1  0  0  0
  5 26  1  0  0  0
  5 93  1  0  0  0
  6 25  1  0  0  0
  6 94  1  0  0  0
  6 95  1  0  0  0
  7  8  2  0  0  0
  7 26  1  0  0  0
  7 29  1  0  0  0
  8  9  1  0  0  0
  8 22  1  0  0  0
  9 10  1  0  0  0
  9 27  2  0  0  0
 10 11  2  0  0  0
 10 15  1  0  0  0
 11 12  1  0  0  0
 11 96  1  0  0  0
 12 13  2  0  0  0
 12 97  1  0  0  0
 13 14  1  0  0  0
 13 31  1  0  0  0
 14 15  2  0  0  0
 14 98  1  0  0  0
 15 99  1  0  0  0
 16 17  2  0  0  0
 16 21  1  0  0  0
 16 31  1  0  0  0
 17 18  1  0  0  0
 17100  1  0  0  0
 18 19  2  0  0  0
 18101  1  0  0  0
 19 20  1  0  0  0
 19 24  1  0  0  0
 20 21  2  0  0  0
 20102  1  0  0  0
 21 23  1  0  0  0
 22 28  1  0  0  0
 22 32  2  0  0  0
 26 27  1  0  0  0
 28103  1  0  0  0
 28104  1  0  0  0
 29105  1  0  0  0
 29106  1  0  0  0
 33 34  1  0  0  0
 33 66  1  0  0  0
 33 70  2  0  0  0
 34 36  1  0  0  0
 34 59  1  0  0  0
 34107  1  0  0  0
 35 44  2  0  0  0
 35 45  1  0  0  0
 35 68  1  0  0  0
 36 56  1  0  0  0
 36108  1  0  0  0
 37 39  1  0  0  0
 37 47  1  0  0  0
 37 66  1  0  0  0
 37109  1  0  0  0
 38 43  2  0  0  0
 38 46  1  0  0  0
 38 47  1  0  0  0
 39 64  1  0  0  0
 39 67  2  0  0  0
 40 52  1  0  0  0
 40 53  2  0  0  0
 40 58  1  0  0  0
 41110  1  0  0  0
 41111  1  0  0  0
 41112  1  0  0  0
 41 48  1  0  0  0
 42 43  1  0  0  0
 42 66  1  0  0  0
 42113  1  0  0  0
 42114  1  0  0  0
 43 44  1  0  0  0
 44115  1  0  0  0
 45 46  2  0  0  0
 45116  1  0  0  0
 46117  1  0  0  0
 47118  1  0  0  0
 47119  1  0  0  0
 48 56  1  0  0  0
 48 65  1  0  0  0
 48120  1  0  0  0
 49 50  1  0  0  0
 49 53  1  0  0  0
 49 64  1  0  0  0
 49121  1  0  0  0
 50 51  1  0  0  0
 50122  1  0  0  0
 50123  1  0  0  0
 51 52  1  0  0  0
 51124  1  0  0  0
 51125  1  0  0  0
 52126  1  0  0  0
 52127  1  0  0  0
 53 54  1  0  0  0
 54 55  2  0  0  0
 54128  1  0  0  0
 55 57  1  0  0  0
 55129  1  0  0  0
 56 69  2  0  0  0
 57 58  2  0  0  0
 57130  1  0  0  0
 58131  1  0  0  0
 59 60  1  0  0  0
 59 61  1  0  0  0
 59 62  1  0  0  0
 60132  1  0  0  0
 60133  1  0  0  0
 60134  1  0  0  0
 61135  1  0  0  0
 61136  1  0  0  0
 61137  1  0  0  0
 62138  1  0  0  0
 62139  1  0  0  0
 62140  1  0  0  0
 63 65  1  0  0  0
 63141  1  0  0  0
 63142  1  0  0  0
 63143  1  0  0  0
 64144  1  0  0  0
 65145  1  0  0  0
 68 79  1  0  0  0
 71 72  2  0  0  0
 71 80  1  0  0  0
 71146  1  0  0  0
 72 73  1  0  0  0
 72 86  1  0  0  0
 73 81  2  0  0  0
 73 82  1  0  0  0
 74 80  2  0  0  0
 74 81  1  0  0  0
 74 83  1  0  0  0
 75 76  1  0  0  0
 75 78  1  0  0  0
 75 84  2  0  0  0
 76 83  1  0  0  0
 76 85  2  0  0  0
 77147  1  0  0  0
 77148  1  0  0  0
 77149  1  0  0  0
 77 79  1  0  0  0
 78 79  1  0  0  0
 78150  1  0  0  0
 78151  1  0  0  0
 79152  1  0  0  0
 82153  1  0  0  0
 83154  1  0  0  0
M  ISO  4   1 100  68 101  79 101  82 100
M  END
> <chiral flag>
0

> <version>
0

> <s_m_source_file>
/data/baiqing/PycharmProjects/Reinvent-master-3.2/result/LINK_invent/BTK/process_docking_weight1_custom_product_contain_oxygen_bond_distance_aromatic_linkinvent_7_9_3/rearranged_h_0177.sdf

> <i_m_source_file_index>
65

> <r_mmod_Potential_Energy-OPLS-2005>
-204.039154052734

> <r_mmod_Stretch_Energy-OPLS-2005>
54.3376274108887

> <r_mmod_Bend_Energy-OPLS-2005>
328.596832275391

> <r_mmod_Torsional_Energy-OPLS-2005>
283.866424560547

> <r_mmod_Improper_Torsional_Energy-OPLS-2005>
9.14895343780518

> <r_mmod_Van_der_Waal_Energy-OPLS-2005>
165.951522827148

> <r_mmod_Electrostatic_Energy-OPLS-2005>
-829.188720703125

> <r_mmod_Solvation_Energy-OPLS-2005>
-240.821731567383

> <b_mmod_Minimization_Converged-OPLS-2005>
0

> <r_mmod_RMS_Derivative-OPLS-2005>
2.05276918411255

$$$$
65
                    3D
 Structure written by MMmdl.
158166  0  0  1  0            999 V2000
  -30.7426  -14.3736   20.6182 C   0  0  0  0  0  0
  -30.4131  -12.2614   19.4068 C   0  0  0  0  0  0
  -29.4867  -12.5115   18.2002 C   0  0  0  0  0  0
  -28.0074  -12.3805   18.6111 C   0  0  0  0  0  0
  -27.6661  -13.2004   19.8842 C   0  0  2  0  0  0
  -28.7046  -12.9373   20.9993 C   0  0  0  0  0  0
  -25.2606  -13.8156   20.5690 C   0  0  0  0  0  0
  -24.1851  -13.0445   20.9193 C   0  0  0  0  0  0
  -24.6395  -11.6907   20.8744 C   0  0  0  0  0  0
  -23.9060  -10.4295   21.0404 C   0  0  0  0  0  0
  -24.3614   -9.4209   21.9178 C   0  0  0  0  0  0
  -23.6293   -8.2242   22.0749 C   0  0  0  0  0  0
  -22.4271   -8.0283   21.3547 C   0  0  0  0  0  0
  -21.9911   -9.0252   20.4642 C   0  0  0  0  0  0
  -22.7234  -10.2135   20.3053 C   0  0  0  0  0  0
  -21.6857   -6.0743   22.5283 C   0  0  0  0  0  0
  -21.4013   -6.5644   23.8215 C   0  0  0  0  0  0
  -21.3658   -5.6796   24.9177 C   0  0  0  0  0  0
  -21.6043   -4.3061   24.7229 C   0  0  0  0  0  0
  -21.8816   -3.8155   23.4350 C   0  0  0  0  0  0
  -21.9192   -4.6971   22.3407 C   0  0  0  0  0  0
  -22.7871  -13.5239   21.1852 C   0  0  0  0  0  0
  -22.1660   -4.2159   21.0984 F   0  0  0  0  0  0
  -21.5629   -3.4541   25.7740 F   0  0  0  0  0  0
  -30.0477  -13.2194   20.4592 N   0  0  0  0  0  0
  -26.3041  -12.9316   20.3409 N   0  0  0  0  0  0
  -25.9321  -11.6480   20.5789 N   0  0  0  0  0  0
  -22.0515  -12.8225   22.0411 N   0  0  0  0  0  0
  -25.4352  -15.1871   20.4082 N   0  0  0  0  0  0
  -31.8363  -14.5820   20.0807 O   0  0  0  0  0  0
  -21.6639   -6.8881   21.4243 O   0  0  0  0  0  0
  -22.3554  -14.5546   20.6706 O   0  0  0  0  0  0
  -24.6102  -31.8704   23.2141 C   0  0  0  0  0  0
  -25.9018  -32.4834   23.8421 C   0  0  1  0  0  0
  -27.2369  -27.4762   20.0846 C   0  0  0  0  0  0
  -25.5886  -33.8635   24.2348 N   0  0  0  0  0  0
  -23.3953  -30.4945   21.5550 C   0  0  2  0  0  0
  -24.8390  -28.9664   20.1174 C   0  0  0  0  0  0
  -22.7384  -29.4664   22.5027 C   0  0  0  0  0  0
  -18.0263  -28.1360   22.8499 C   0  0  0  0  0  0
  -24.1478  -36.7324   23.2641 C   0  0  0  0  0  0
  -25.9200  -30.8493   21.3597 C   0  0  0  0  0  0
  -25.9969  -29.4873   20.7068 C   0  0  0  0  0  0
  -27.1972  -28.7494   20.6867 C   0  0  0  0  0  0
  -26.0579  -26.9573   19.4965 C   0  0  0  0  0  0
  -24.8620  -27.6981   19.5123 C   0  0  0  0  0  0
  -23.5987  -29.8269   20.1689 C   0  0  0  0  0  0
  -25.4100  -36.3125   24.0344 C   0  0  1  0  0  0
  -20.5848  -28.3641   23.1332 C   0  0  2  0  0  0
  -20.6750  -26.9382   22.5419 C   0  0  0  0  0  0
  -19.5730  -26.6377   21.5211 C   0  0  0  0  0  0
  -18.1906  -26.7910   22.1622 C   0  0  0  0  0  0
  -19.1513  -28.8822   23.2907 C   0  0  0  0  0  0
  -18.9445  -30.1434   23.8908 C   0  0  0  0  0  0
  -17.6447  -30.6573   24.0563 C   0  0  0  0  0  0
  -25.9031  -34.9487   23.5144 C   0  0  0  0  0  0
  -16.5336  -29.9072   23.6329 C   0  0  0  0  0  0
  -16.7250  -28.6492   23.0351 C   0  0  0  0  0  0
  -26.4461  -31.6598   25.0728 C   0  0  0  0  0  0
  -25.3749  -31.3676   26.1493 C   0  0  0  0  0  0
  -27.0296  -30.3053   24.6071 C   0  0  0  0  0  0
  -27.6040  -32.4318   25.7477 C   0  0  0  0  0  0
  -27.5581  -37.1809   24.8468 C   0  0  0  0  0  0
  -21.4120  -29.3016   22.3755 N   0  0  0  0  0  0
  -26.4291  -37.3807   23.9418 N   0  0  0  0  0  0
  -24.6604  -31.0841   22.1020 N   0  0  0  0  0  0
  -23.4178  -28.8214   23.3060 O   0  0  0  0  0  0
  -28.4343  -26.8011   20.0885 O   0  0  0  0  0  0
  -26.5588  -34.8933   22.4703 O   0  0  0  0  0  0
  -23.5311  -32.1437   23.7569 O   0  0  0  0  0  0
  -31.1299  -18.6749   20.5559 C   0  0  0  0  0  0
  -29.9381  -18.8499   19.8814 C   0  0  0  0  0  0
  -30.1730  -16.6596   20.9545 C   0  0  0  0  0  0
  -29.7760  -23.1941   20.1371 C   0  0  0  0  0  0
  -29.6926  -24.7316   20.2658 C   0  0  0  0  0  0
  -28.5692  -20.9714   19.9124 C   0  0  0  0  0  0
  -32.2737  -19.6385   20.6710 C   0  0  0  0  0  0
  -28.5489  -22.4590   19.5687 C   0  0  0  0  0  0
  -28.3728  -25.3974   19.8688 C   0  0  0  0  0  0
  -29.5074  -20.0634   19.0952 C   0  0  2  0  0  0
  -31.2400  -17.4290   21.1825 N   0  0  0  0  0  0
  -30.1214  -15.3117   21.3391 N   0  0  0  0  0  0
  -28.8160  -19.7246   17.8392 N   0  3  0  0  0  0
  -30.8175  -22.6001   20.4513 O   0  0  0  0  0  0
  -30.6619  -25.3901   20.6712 O   0  0  0  0  0  0
  -27.7918  -20.5425   20.7716 O   0  0  0  0  0  0
  -28.9038  -17.4418   20.0374 S   0  0  0  0  0  0
  -31.4590  -12.3432   19.1056 H   0  0  0  0  0  0
  -30.2946  -11.2417   19.7755 H   0  0  0  0  0  0
  -29.7162  -11.8096   17.3976 H   0  0  0  0  0  0
  -29.6689  -13.5079   17.7947 H   0  0  0  0  0  0
  -27.8030  -11.3231   18.7841 H   0  0  0  0  0  0
  -27.3587  -12.6801   17.7873 H   0  0  0  0  0  0
  -27.7255  -14.2546   19.6142 H   0  0  0  0  0  0
  -28.6590  -11.8934   21.3142 H   0  0  0  0  0  0
  -28.4668  -13.5120   21.8955 H   0  0  0  0  0  0
  -25.2760   -9.5682   22.4750 H   0  0  0  0  0  0
  -24.0013   -7.4631   22.7458 H   0  0  0  0  0  0
  -21.0852   -8.8757   19.8940 H   0  0  0  0  0  0
  -22.3691  -10.9669   19.6161 H   0  0  0  0  0  0
  -21.2000   -7.6151   23.9724 H   0  0  0  0  0  0
  -21.1485   -6.0528   25.9082 H   0  0  0  0  0  0
  -22.0598   -2.7619   23.2852 H   0  0  0  0  0  0
  -22.4129  -11.9874   22.4771 H   0  0  0  0  0  0
  -21.1131  -13.1236   22.2620 H   0  0  0  0  0  0
  -24.6691  -15.8442   20.5090 H   0  0  0  0  0  0
  -26.2866  -15.6212   20.0769 H   0  0  0  0  0  0
  -26.7098  -32.5556   23.1197 H   0  0  0  0  0  0
  -25.0053  -33.9809   25.0505 H   0  0  0  0  0  0
  -22.6833  -31.3112   21.4198 H   0  0  0  0  0  0
  -23.3742  -35.9653   23.3313 H   0  0  0  0  0  0
  -24.3579  -36.8929   22.2055 H   0  0  0  0  0  0
  -23.7228  -37.6531   23.6649 H   0  0  0  0  0  0
  -26.0279  -31.6172   20.5931 H   0  0  0  0  0  0
  -26.8097  -30.9011   21.9751 H   0  0  0  0  0  0
  -28.0944  -29.1529   21.1350 H   0  0  0  0  0  0
  -26.0405  -25.9942   19.0090 H   0  0  0  0  0  0
  -23.9704  -27.2914   19.0550 H   0  0  0  0  0  0
  -23.6991  -30.6008   19.4068 H   0  0  0  0  0  0
  -22.7242  -29.2414   19.8797 H   0  0  0  0  0  0
  -25.1272  -36.1999   25.0836 H   0  0  0  0  0  0
  -20.9937  -28.3188   24.1451 H   0  0  0  0  0  0
  -20.5649  -26.2244   23.3602 H   0  0  0  0  0  0
  -21.6622  -26.7424   22.1213 H   0  0  0  0  0  0
  -19.6892  -25.6295   21.1220 H   0  0  0  0  0  0
  -19.6667  -27.3210   20.6756 H   0  0  0  0  0  0
  -17.4179  -26.6676   21.4012 H   0  0  0  0  0  0
  -18.0296  -26.0033   22.8999 H   0  0  0  0  0  0
  -19.7921  -30.7247   24.2274 H   0  0  0  0  0  0
  -17.4999  -31.6256   24.5154 H   0  0  0  0  0  0
  -15.5341  -30.2976   23.7643 H   0  0  0  0  0  0
  -15.8649  -28.0815   22.7058 H   0  0  0  0  0  0
  -24.5934  -30.7004   25.7840 H   0  0  0  0  0  0
  -24.8927  -32.2814   26.4970 H   0  0  0  0  0  0
  -25.8126  -30.8841   27.0233 H   0  0  0  0  0  0
  -26.2825  -29.6808   24.1158 H   0  0  0  0  0  0
  -27.4127  -29.7292   25.4503 H   0  0  0  0  0  0
  -27.8629  -30.4403   23.9172 H   0  0  0  0  0  0
  -27.2667  -33.3609   26.2087 H   0  0  0  0  0  0
  -28.3821  -32.6894   25.0279 H   0  0  0  0  0  0
  -28.0742  -31.8429   26.5363 H   0  0  0  0  0  0
  -28.2599  -38.0107   24.7526 H   0  0  0  0  0  0
  -28.1075  -36.2641   24.6275 H   0  0  0  0  0  0
  -27.2301  -37.1440   25.8871 H   0  0  0  0  0  0
  -20.9277  -29.8745   21.6988 H   0  0  0  0  0  0
  -26.0184  -38.2883   24.1428 H   0  0  0  0  0  0
  -32.4644  -20.1538   19.7296 H   0  0  0  0  0  0
  -33.1993  -19.1340   20.9496 H   0  0  0  0  0  0
  -32.0765  -20.3959   21.4292 H   0  0  0  0  0  0
  -28.5191  -22.5967   18.4890 H   0  0  0  0  0  0
  -27.6318  -22.8813   19.9765 H   0  0  0  0  0  0
  -27.5744  -24.9693   20.4761 H   0  0  0  0  0  0
  -28.1626  -25.1910   18.8189 H   0  0  0  0  0  0
  -30.3945  -20.6331   18.8199 H   0  0  0  0  0  0
  -29.2422  -15.0019   21.7203 H   0  0  0  0  0  0
  -27.9371  -19.2796   18.0344 H   0  0  0  0  0  0
  -29.3818  -19.1064   17.2871 H   0  0  0  0  0  0
  -28.6343  -20.5479   17.2941 H   0  0  0  0  0  0
  1 25  1  0  0  0
  1 30  2  0  0  0
  1 82  1  0  0  0
  2  3  1  0  0  0
  2 25  1  0  0  0
  2 88  1  0  0  0
  2 89  1  0  0  0
  3  4  1  0  0  0
  3 90  1  0  0  0
  3 91  1  0  0  0
  4  5  1  0  0  0
  4 92  1  0  0  0
  4 93  1  0  0  0
  5  6  1  0  0  0
  5 26  1  0  0  0
  5 94  1  0  0  0
  6 25  1  0  0  0
  6 95  1  0  0  0
  6 96  1  0  0  0
  7  8  2  0  0  0
  7 26  1  0  0  0
  7 29  1  0  0  0
  8  9  1  0  0  0
  8 22  1  0  0  0
  9 10  1  0  0  0
  9 27  2  0  0  0
 10 11  2  0  0  0
 10 15  1  0  0  0
 11 12  1  0  0  0
 11 97  1  0  0  0
 12 13  2  0  0  0
 12 98  1  0  0  0
 13 14  1  0  0  0
 13 31  1  0  0  0
 14 15  2  0  0  0
 14 99  1  0  0  0
 15100  1  0  0  0
 16 17  2  0  0  0
 16 21  1  0  0  0
 16 31  1  0  0  0
 17 18  1  0  0  0
 17101  1  0  0  0
 18 19  2  0  0  0
 18102  1  0  0  0
 19 20  1  0  0  0
 19 24  1  0  0  0
 20 21  2  0  0  0
 20103  1  0  0  0
 21 23  1  0  0  0
 22 28  1  0  0  0
 22 32  2  0  0  0
 26 27  1  0  0  0
 28104  1  0  0  0
 28105  1  0  0  0
 29106  1  0  0  0
 29107  1  0  0  0
 33 34  1  0  0  0
 33 66  1  0  0  0
 33 70  2  0  0  0
 34 36  1  0  0  0
 34 59  1  0  0  0
 34108  1  0  0  0
 35 44  2  0  0  0
 35 45  1  0  0  0
 35 68  1  0  0  0
 36 56  1  0  0  0
 36109  1  0  0  0
 37 39  1  0  0  0
 37 47  1  0  0  0
 37 66  1  0  0  0
 37110  1  0  0  0
 38 43  2  0  0  0
 38 46  1  0  0  0
 38 47  1  0  0  0
 39 64  1  0  0  0
 39 67  2  0  0  0
 40 52  1  0  0  0
 40 53  2  0  0  0
 40 58  1  0  0  0
 41111  1  0  0  0
 41112  1  0  0  0
 41113  1  0  0  0
 41 48  1  0  0  0
 42 43  1  0  0  0
 42 66  1  0  0  0
 42114  1  0  0  0
 42115  1  0  0  0
 43 44  1  0  0  0
 44116  1  0  0  0
 45 46  2  0  0  0
 45117  1  0  0  0
 46118  1  0  0  0
 47119  1  0  0  0
 47120  1  0  0  0
 48 56  1  0  0  0
 48 65  1  0  0  0
 48121  1  0  0  0
 49 50  1  0  0  0
 49 53  1  0  0  0
 49 64  1  0  0  0
 49122  1  0  0  0
 50 51  1  0  0  0
 50123  1  0  0  0
 50124  1  0  0  0
 51 52  1  0  0  0
 51125  1  0  0  0
 51126  1  0  0  0
 52127  1  0  0  0
 52128  1  0  0  0
 53 54  1  0  0  0
 54 55  2  0  0  0
 54129  1  0  0  0
 55 57  1  0  0  0
 55130  1  0  0  0
 56 69  2  0  0  0
 57 58  2  0  0  0
 57131  1  0  0  0
 58132  1  0  0  0
 59 60  1  0  0  0
 59 61  1  0  0  0
 59 62  1  0  0  0
 60133  1  0  0  0
 60134  1  0  0  0
 60135  1  0  0  0
 61136  1  0  0  0
 61137  1  0  0  0
 61138  1  0  0  0
 62139  1  0  0  0
 62140  1  0  0  0
 62141  1  0  0  0
 63 65  1  0  0  0
 63142  1  0  0  0
 63143  1  0  0  0
 63144  1  0  0  0
 64145  1  0  0  0
 65146  1  0  0  0
 68 79  1  0  0  0
 71 72  2  0  0  0
 71 77  1  0  0  0
 71 81  1  0  0  0
 72 80  1  0  0  0
 72 87  1  0  0  0
 73 81  2  0  0  0
 73 82  1  0  0  0
 73 87  1  0  0  0
 74 75  1  0  0  0
 74 78  1  0  0  0
 74 84  2  0  0  0
 75 79  1  0  0  0
 75 85  2  0  0  0
 76 78  1  0  0  0
 76 80  1  0  0  0
 76 86  2  0  0  0
 77147  1  0  0  0
 77148  1  0  0  0
 77149  1  0  0  0
 78150  1  0  0  0
 78151  1  0  0  0
 79152  1  0  0  0
 79153  1  0  0  0
 80 83  1  0  0  0
 80154  1  0  0  0
 82155  1  0  0  0
 83156  1  0  0  0
 83157  1  0  0  0
 83158  1  0  0  0
M  CHG  1  83   1
M  ISO  4   1 100  68 101  79 101  82 100
M  END
> <chiral flag>
0

> <version>
0

> <s_m_source_file>
/data/baiqing/PycharmProjects/Reinvent-master-3.2/result/LINK_invent/BTK/process_docking_weight1_custom_product_contain_oxygen_bond_distance_aromatic_linkinvent_7_9_3/rearranged_h_0177.sdf

> <i_m_source_file_index>
66

> <r_mmod_Potential_Energy-OPLS-2005>
-535.567443847656

> <r_mmod_Stretch_Energy-OPLS-2005>
31.9174709320068

> <r_mmod_Bend_Energy-OPLS-2005>
90.5856246948242

> <r_mmod_Torsional_Energy-OPLS-2005>
237.834060668945

> <r_mmod_Improper_Torsional_Energy-OPLS-2005>
6.12899732589722

> <r_mmod_Van_der_Waal_Energy-OPLS-2005>
133.019607543945

> <r_mmod_Electrostatic_Energy-OPLS-2005>
-430.576843261719

> <r_mmod_Solvation_Energy-OPLS-2005>
-613.065185546875

> <b_mmod_Minimization_Converged-OPLS-2005>
0

> <r_mmod_RMS_Derivative-OPLS-2005>
1.19041812419891

$$$$
66
                    3D
 Structure written by MMmdl.
152160  0  0  1  0            999 V2000
  -30.7210  -14.4802   20.5441 C   0  0  0  0  0  0
  -30.4215  -12.3072   19.4179 C   0  0  0  0  0  0
  -29.4904  -12.4893   18.2011 C   0  0  0  0  0  0
  -28.0135  -12.3547   18.6195 C   0  0  0  0  0  0
  -27.6619  -13.2078   19.8682 C   0  0  2  0  0  0
  -28.7105  -13.0144   20.9894 C   0  0  0  0  0  0
  -25.2627  -13.8168   20.5713 C   0  0  0  0  0  0
  -24.1878  -13.0440   20.9203 C   0  0  0  0  0  0
  -24.6425  -11.6908   20.8745 C   0  0  0  0  0  0
  -23.9074  -10.4296   21.0413 C   0  0  0  0  0  0
  -24.3624   -9.4206   21.9186 C   0  0  0  0  0  0
  -23.6301   -8.2241   22.0755 C   0  0  0  0  0  0
  -22.4278   -8.0285   21.3549 C   0  0  0  0  0  0
  -21.9914   -9.0259   20.4649 C   0  0  0  0  0  0
  -22.7247  -10.2137   20.3062 C   0  0  0  0  0  0
  -21.6850   -6.0744   22.5289 C   0  0  0  0  0  0
  -21.4010   -6.5646   23.8224 C   0  0  0  0  0  0
  -21.3659   -5.6795   24.9183 C   0  0  0  0  0  0
  -21.6045   -4.3058   24.7229 C   0  0  0  0  0  0
  -21.8821   -3.8153   23.4349 C   0  0  0  0  0  0
  -21.9194   -4.6972   22.3409 C   0  0  0  0  0  0
  -22.7901  -13.5248   21.1844 C   0  0  0  0  0  0
  -22.1666   -4.2165   21.0985 F   0  0  0  0  0  0
  -21.5621   -3.4540   25.7737 F   0  0  0  0  0  0
  -30.0369  -13.3098   20.4245 N   0  0  0  0  0  0
  -26.3053  -12.9336   20.3364 N   0  0  0  0  0  0
  -25.9350  -11.6496   20.5764 N   0  0  0  0  0  0
  -22.0530  -12.8240   22.0390 N   0  0  0  0  0  0
  -25.4329  -15.1890   20.4145 N   0  0  0  0  0  0
  -31.8682  -14.6086   20.1080 O   0  0  0  0  0  0
  -21.6638   -6.8885   21.4251 O   0  0  0  0  0  0
  -22.3596  -14.5558   20.6689 O   0  0  0  0  0  0
  -24.6148  -31.8687   23.2095 C   0  0  0  0  0  0
  -25.9042  -32.4823   23.8386 C   0  0  1  0  0  0
  -27.2273  -27.4338   20.0885 C   0  0  0  0  0  0
  -25.5890  -33.8619   24.2297 N   0  0  0  0  0  0
  -23.4035  -30.4937   21.5510 C   0  0  2  0  0  0
  -24.8478  -28.9648   20.1102 C   0  0  0  0  0  0
  -22.7431  -29.4644   22.4972 C   0  0  0  0  0  0
  -18.0282  -28.1375   22.8501 C   0  0  0  0  0  0
  -24.1462  -36.7305   23.2640 C   0  0  0  0  0  0
  -25.9330  -30.8344   21.3636 C   0  0  0  0  0  0
  -26.0115  -29.4700   20.7073 C   0  0  0  0  0  0
  -27.2080  -28.7133   20.6917 C   0  0  0  0  0  0
  -26.0501  -26.9576   19.4684 C   0  0  0  0  0  0
  -24.8619  -27.7065   19.4880 C   0  0  0  0  0  0
  -23.6117  -29.8323   20.1622 C   0  0  0  0  0  0
  -25.4091  -36.3103   24.0325 C   0  0  1  0  0  0
  -20.5879  -28.3652   23.1303 C   0  0  2  0  0  0
  -20.6759  -26.9381   22.5412 C   0  0  0  0  0  0
  -19.5736  -26.6368   21.5208 C   0  0  0  0  0  0
  -18.1919  -26.7915   22.1632 C   0  0  0  0  0  0
  -19.1536  -28.8832   23.2900 C   0  0  0  0  0  0
  -18.9471  -30.1445   23.8900 C   0  0  0  0  0  0
  -17.6476  -30.6586   24.0564 C   0  0  0  0  0  0
  -25.9032  -34.9474   23.5110 C   0  0  0  0  0  0
  -16.5365  -29.9089   23.6327 C   0  0  0  0  0  0
  -16.7276  -28.6507   23.0344 C   0  0  0  0  0  0
  -26.4467  -31.6615   25.0724 C   0  0  0  0  0  0
  -25.3722  -31.3747   26.1471 C   0  0  0  0  0  0
  -27.0302  -30.3062   24.6091 C   0  0  0  0  0  0
  -27.6036  -32.4344   25.7506 C   0  0  0  0  0  0
  -27.5557  -37.1797   24.8474 C   0  0  0  0  0  0
  -21.4160  -29.3021   22.3719 N   0  0  0  0  0  0
  -26.4269  -37.3788   23.9416 N   0  0  0  0  0  0
  -24.6694  -31.0781   22.1009 N   0  0  0  0  0  0
  -23.4194  -28.8184   23.3019 O   0  0  0  0  0  0
  -28.3555  -26.6375   20.1167 O   0  0  0  0  0  0
  -26.5610  -34.8937   22.4680 O   0  0  0  0  0  0
  -23.5340  -32.1460   23.7469 O   0  0  0  0  0  0
  -30.0874  -19.1769   21.1008 C   0  0  0  0  0  0
  -31.4720  -19.1500   21.0774 C   0  0  0  0  0  0
  -30.4127  -16.9051   21.0131 C   0  0  0  0  0  0
  -29.5651  -21.6772   20.9457 C   0  0  0  0  0  0
  -29.1995  -20.3794   21.1643 C   0  0  0  0  0  0
  -28.6717  -22.8663   21.0804 C   0  0  0  0  0  0
  -29.0936  -24.2180   20.4432 C   0  0  0  0  0  0
  -28.1390  -25.3882   20.8105 C   0  0  0  0  0  0
  -29.5018  -17.8897   21.0935 N   0  0  0  0  0  0
  -32.4049  -20.1797   21.1600 N   0  0  0  0  0  0
  -30.0087  -15.5339   20.9935 N   0  0  0  0  0  0
  -27.6118  -22.8251   21.7145 O   0  0  0  0  0  0
  -27.9423  -20.0311   21.4833 O   0  0  0  0  0  0
  -32.0725  -17.5121   20.9700 S   0  0  0  0  0  0
  -31.4666  -12.3921   19.1125 H   0  0  0  0  0  0
  -30.3162  -11.3035   19.8320 H   0  0  0  0  0  0
  -29.7260  -11.7480   17.4363 H   0  0  0  0  0  0
  -29.6576  -13.4653   17.7413 H   0  0  0  0  0  0
  -27.8252  -11.2997   18.8234 H   0  0  0  0  0  0
  -27.3598  -12.6203   17.7887 H   0  0  0  0  0  0
  -27.6973  -14.2498   19.5515 H   0  0  0  0  0  0
  -28.6957  -11.9849   21.3494 H   0  0  0  0  0  0
  -28.4803  -13.6335   21.8580 H   0  0  0  0  0  0
  -25.2775   -9.5676   22.4753 H   0  0  0  0  0  0
  -24.0013   -7.4634   22.7479 H   0  0  0  0  0  0
  -21.0842   -8.8786   19.8963 H   0  0  0  0  0  0
  -22.3717  -10.9675   19.6170 H   0  0  0  0  0  0
  -21.1998   -7.6154   23.9736 H   0  0  0  0  0  0
  -21.1478   -6.0520   25.9090 H   0  0  0  0  0  0
  -22.0598   -2.7618   23.2847 H   0  0  0  0  0  0
  -22.4134  -11.9885   22.4754 H   0  0  0  0  0  0
  -21.1154  -13.1280   22.2602 H   0  0  0  0  0  0
  -24.6631  -15.8374   20.5396 H   0  0  0  0  0  0
  -26.2734  -15.6358   20.0701 H   0  0  0  0  0  0
  -26.7122  -32.5536   23.1154 H   0  0  0  0  0  0
  -24.9982  -33.9788   25.0400 H   0  0  0  0  0  0
  -22.6913  -31.3098   21.4129 H   0  0  0  0  0  0
  -23.3719  -35.9644   23.3345 H   0  0  0  0  0  0
  -24.3550  -36.8895   22.2049 H   0  0  0  0  0  0
  -23.7231  -37.6516   23.6652 H   0  0  0  0  0  0
  -26.0401  -31.5978   20.5925 H   0  0  0  0  0  0
  -26.8241  -30.8926   21.9775 H   0  0  0  0  0  0
  -28.1048  -29.0977   21.1602 H   0  0  0  0  0  0
  -26.0436  -25.9953   18.9780 H   0  0  0  0  0  0
  -23.9711  -27.3122   19.0180 H   0  0  0  0  0  0
  -23.7255  -30.6114   19.4078 H   0  0  0  0  0  0
  -22.7350  -29.2557   19.8596 H   0  0  0  0  0  0
  -25.1260  -36.1955   25.0815 H   0  0  0  0  0  0
  -20.9980  -28.3220   24.1421 H   0  0  0  0  0  0
  -20.5631  -26.2273   23.3618 H   0  0  0  0  0  0
  -21.6631  -26.7392   22.1225 H   0  0  0  0  0  0
  -19.6885  -25.6272   21.1249 H   0  0  0  0  0  0
  -19.6669  -27.3169   20.6734 H   0  0  0  0  0  0
  -17.4180  -26.6659   21.4048 H   0  0  0  0  0  0
  -18.0338  -26.0049   22.9026 H   0  0  0  0  0  0
  -19.7954  -30.7254   24.2259 H   0  0  0  0  0  0
  -17.5044  -31.6267   24.5158 H   0  0  0  0  0  0
  -15.5370  -30.2996   23.7654 H   0  0  0  0  0  0
  -15.8679  -28.0841   22.7033 H   0  0  0  0  0  0
  -24.5885  -30.7101   25.7826 H   0  0  0  0  0  0
  -24.8914  -32.2912   26.4892 H   0  0  0  0  0  0
  -25.8055  -30.8941   27.0248 H   0  0  0  0  0  0
  -26.2849  -29.6848   24.1110 H   0  0  0  0  0  0
  -27.4067  -29.7271   25.4534 H   0  0  0  0  0  0
  -27.8681  -30.4416   23.9253 H   0  0  0  0  0  0
  -27.2647  -33.3651   26.2072 H   0  0  0  0  0  0
  -28.3857  -32.6896   25.0348 H   0  0  0  0  0  0
  -28.0684  -31.8475   26.5438 H   0  0  0  0  0  0
  -28.2584  -38.0080   24.7493 H   0  0  0  0  0  0
  -28.1035  -36.2606   24.6325 H   0  0  0  0  0  0
  -27.2285  -37.1491   25.8883 H   0  0  0  0  0  0
  -20.9329  -29.8804   21.6993 H   0  0  0  0  0  0
  -26.0152  -38.2853   24.1444 H   0  0  0  0  0  0
  -30.5790  -21.8986   20.6560 H   0  0  0  0  0  0
  -29.1108  -24.0959   19.3601 H   0  0  0  0  0  0
  -30.1111  -24.4569   20.7498 H   0  0  0  0  0  0
  -27.1176  -25.0352   20.6668 H   0  0  0  0  0  0
  -28.2233  -25.5945   21.8778 H   0  0  0  0  0  0
  -32.1540  -21.0488   21.6197 H   0  0  0  0  0  0
  -33.3830  -19.9487   21.3146 H   0  0  0  0  0  0
  -29.0539  -15.3439   21.2492 H   0  0  0  0  0  0
  -27.9472  -19.0791   21.5274 H   0  0  0  0  0  0
  1 25  1  0  0  0
  1 30  2  0  0  0
  1 81  1  0  0  0
  2  3  1  0  0  0
  2 25  1  0  0  0
  2 85  1  0  0  0
  2 86  1  0  0  0
  3  4  1  0  0  0
  3 87  1  0  0  0
  3 88  1  0  0  0
  4  5  1  0  0  0
  4 89  1  0  0  0
  4 90  1  0  0  0
  5  6  1  0  0  0
  5 26  1  0  0  0
  5 91  1  0  0  0
  6 25  1  0  0  0
  6 92  1  0  0  0
  6 93  1  0  0  0
  7  8  2  0  0  0
  7 26  1  0  0  0
  7 29  1  0  0  0
  8  9  1  0  0  0
  8 22  1  0  0  0
  9 10  1  0  0  0
  9 27  2  0  0  0
 10 11  2  0  0  0
 10 15  1  0  0  0
 11 12  1  0  0  0
 11 94  1  0  0  0
 12 13  2  0  0  0
 12 95  1  0  0  0
 13 14  1  0  0  0
 13 31  1  0  0  0
 14 15  2  0  0  0
 14 96  1  0  0  0
 15 97  1  0  0  0
 16 17  2  0  0  0
 16 21  1  0  0  0
 16 31  1  0  0  0
 17 18  1  0  0  0
 17 98  1  0  0  0
 18 19  2  0  0  0
 18 99  1  0  0  0
 19 20  1  0  0  0
 19 24  1  0  0  0
 20 21  2  0  0  0
 20100  1  0  0  0
 21 23  1  0  0  0
 22 28  1  0  0  0
 22 32  2  0  0  0
 26 27  1  0  0  0
 28101  1  0  0  0
 28102  1  0  0  0
 29103  1  0  0  0
 29104  1  0  0  0
 33 34  1  0  0  0
 33 66  1  0  0  0
 33 70  2  0  0  0
 34 36  1  0  0  0
 34 59  1  0  0  0
 34105  1  0  0  0
 35 44  2  0  0  0
 35 45  1  0  0  0
 35 68  1  0  0  0
 36 56  1  0  0  0
 36106  1  0  0  0
 37 39  1  0  0  0
 37 47  1  0  0  0
 37 66  1  0  0  0
 37107  1  0  0  0
 38 43  2  0  0  0
 38 46  1  0  0  0
 38 47  1  0  0  0
 39 64  1  0  0  0
 39 67  2  0  0  0
 40 52  1  0  0  0
 40 53  2  0  0  0
 40 58  1  0  0  0
 41108  1  0  0  0
 41109  1  0  0  0
 41110  1  0  0  0
 41 48  1  0  0  0
 42 43  1  0  0  0
 42 66  1  0  0  0
 42111  1  0  0  0
 42112  1  0  0  0
 43 44  1  0  0  0
 44113  1  0  0  0
 45 46  2  0  0  0
 45114  1  0  0  0
 46115  1  0  0  0
 47116  1  0  0  0
 47117  1  0  0  0
 48 56  1  0  0  0
 48 65  1  0  0  0
 48118  1  0  0  0
 49 50  1  0  0  0
 49 53  1  0  0  0
 49 64  1  0  0  0
 49119  1  0  0  0
 50 51  1  0  0  0
 50120  1  0  0  0
 50121  1  0  0  0
 51 52  1  0  0  0
 51122  1  0  0  0
 51123  1  0  0  0
 52124  1  0  0  0
 52125  1  0  0  0
 53 54  1  0  0  0
 54 55  2  0  0  0
 54126  1  0  0  0
 55 57  1  0  0  0
 55127  1  0  0  0
 56 69  2  0  0  0
 57 58  2  0  0  0
 57128  1  0  0  0
 58129  1  0  0  0
 59 60  1  0  0  0
 59 61  1  0  0  0
 59 62  1  0  0  0
 60130  1  0  0  0
 60131  1  0  0  0
 60132  1  0  0  0
 61133  1  0  0  0
 61134  1  0  0  0
 61135  1  0  0  0
 62136  1  0  0  0
 62137  1  0  0  0
 62138  1  0  0  0
 63 65  1  0  0  0
 63139  1  0  0  0
 63140  1  0  0  0
 63141  1  0  0  0
 64142  1  0  0  0
 65143  1  0  0  0
 68 78  1  0  0  0
 71 72  2  0  0  0
 71 75  1  0  0  0
 71 79  1  0  0  0
 72 80  1  0  0  0
 72 84  1  0  0  0
 73 79  2  0  0  0
 73 81  1  0  0  0
 73 84  1  0  0  0
 74 75  2  0  0  0
 74 76  1  0  0  0
 74144  1  0  0  0
 75 83  1  0  0  0
 76 77  1  0  0  0
 76 82  2  0  0  0
 77 78  1  0  0  0
 77145  1  0  0  0
 77146  1  0  0  0
 78147  1  0  0  0
 78148  1  0  0  0
 80149  1  0  0  0
 80150  1  0  0  0
 81151  1  0  0  0
 83152  1  0  0  0
M  ISO  4   1 100  68 101  78 101  81 100
M  END
> <chiral flag>
0

> <version>
0

> <s_m_source_file>
/data/baiqing/PycharmProjects/Reinvent-master-3.2/result/LINK_invent/BTK/process_docking_weight1_custom_product_contain_oxygen_bond_distance_aromatic_linkinvent_7_9_3/rearranged_h_0177.sdf

> <i_m_source_file_index>
67

> <r_mmod_Potential_Energy-OPLS-2005>
-72.5421981811523

> <r_mmod_Stretch_Energy-OPLS-2005>
41.2916030883789

> <r_mmod_Bend_Energy-OPLS-2005>
102.776039123535

> <r_mmod_Torsional_Energy-OPLS-2005>
221.043060302734

> <r_mmod_Improper_Torsional_Energy-OPLS-2005>
7.35215854644775

> <r_mmod_Van_der_Waal_Energy-OPLS-2005>
152.33674621582

> <r_mmod_Electrostatic_Energy-OPLS-2005>
-371.634918212891

> <r_mmod_Solvation_Energy-OPLS-2005>
-242.367706298828

> <b_mmod_Minimization_Converged-OPLS-2005>
0

> <r_mmod_RMS_Derivative-OPLS-2005>
2.27374505996704

$$$$
67
                    3D
 Structure written by MMmdl.
157165  0  0  1  0            999 V2000
  -30.7133  -14.4263   20.6694 C   0  0  0  0  0  0
  -30.4300  -12.3157   19.4051 C   0  0  0  0  0  0
  -29.4939  -12.5201   18.1974 C   0  0  0  0  0  0
  -28.0157  -12.3724   18.6116 C   0  0  0  0  0  0
  -27.6652  -13.2007   19.8765 C   0  0  2  0  0  0
  -28.7001  -12.9380   20.9904 C   0  0  0  0  0  0
  -25.2596  -13.8172   20.5645 C   0  0  0  0  0  0
  -24.1836  -13.0465   20.9153 C   0  0  0  0  0  0
  -24.6360  -11.6924   20.8711 C   0  0  0  0  0  0
  -23.9030  -10.4303   21.0366 C   0  0  0  0  0  0
  -24.3605   -9.4233   21.9153 C   0  0  0  0  0  0
  -23.6299   -8.2263   22.0741 C   0  0  0  0  0  0
  -22.4282   -8.0280   21.3545 C   0  0  0  0  0  0
  -21.9895   -9.0242   20.4644 C   0  0  0  0  0  0
  -22.7201  -10.2132   20.3026 C   0  0  0  0  0  0
  -21.6863   -6.0723   22.5275 C   0  0  0  0  0  0
  -21.4016   -6.5633   23.8206 C   0  0  0  0  0  0
  -21.3653   -5.6784   24.9168 C   0  0  0  0  0  0
  -21.6040   -4.3046   24.7221 C   0  0  0  0  0  0
  -21.8829   -3.8134   23.4341 C   0  0  0  0  0  0
  -21.9199   -4.6949   22.3396 C   0  0  0  0  0  0
  -22.7866  -13.5272   21.1827 C   0  0  0  0  0  0
  -22.1663   -4.2128   21.0973 F   0  0  0  0  0  0
  -21.5637   -3.4535   25.7738 F   0  0  0  0  0  0
  -30.0366  -13.2641   20.4581 N   0  0  0  0  0  0
  -26.3021  -12.9322   20.3334 N   0  0  0  0  0  0
  -25.9289  -11.6497   20.5740 N   0  0  0  0  0  0
  -22.0500  -12.8279   22.0401 N   0  0  0  0  0  0
  -25.4388  -15.1881   20.4079 N   0  0  0  0  0  0
  -31.7823  -14.6918   20.1067 O   0  0  0  0  0  0
  -21.6657   -6.8870   21.4240 O   0  0  0  0  0  0
  -22.3564  -14.5574   20.6662 O   0  0  0  0  0  0
  -24.6142  -31.8683   23.2089 C   0  0  0  0  0  0
  -25.9040  -32.4821   23.8380 C   0  0  1  0  0  0
  -27.2340  -27.4415   20.1027 C   0  0  0  0  0  0
  -25.5891  -33.8619   24.2308 N   0  0  0  0  0  0
  -23.4004  -30.4917   21.5502 C   0  0  2  0  0  0
  -24.8468  -28.9551   20.1167 C   0  0  0  0  0  0
  -22.7398  -29.4666   22.4995 C   0  0  0  0  0  0
  -18.0272  -28.1379   22.8493 C   0  0  0  0  0  0
  -24.1488  -36.7326   23.2636 C   0  0  0  0  0  0
  -25.9279  -30.8377   21.3593 C   0  0  0  0  0  0
  -26.0065  -29.4723   20.7079 C   0  0  0  0  0  0
  -27.2055  -28.7248   20.6930 C   0  0  0  0  0  0
  -26.0590  -26.9337   19.5073 C   0  0  0  0  0  0
  -24.8677  -27.6852   19.5121 C   0  0  0  0  0  0
  -23.6080  -29.8210   20.1652 C   0  0  0  0  0  0
  -25.4108  -36.3109   24.0330 C   0  0  1  0  0  0
  -20.5857  -28.3667   23.1328 C   0  0  2  0  0  0
  -20.6764  -26.9407   22.5423 C   0  0  0  0  0  0
  -19.5743  -26.6389   21.5216 C   0  0  0  0  0  0
  -18.1919  -26.7925   22.1627 C   0  0  0  0  0  0
  -19.1516  -28.8839   23.2907 C   0  0  0  0  0  0
  -18.9448  -30.1442   23.8919 C   0  0  0  0  0  0
  -17.6450  -30.6587   24.0568 C   0  0  0  0  0  0
  -25.9037  -34.9476   23.5118 C   0  0  0  0  0  0
  -16.5343  -29.9092   23.6325 C   0  0  0  0  0  0
  -16.7258  -28.6508   23.0348 C   0  0  0  0  0  0
  -26.4467  -31.6606   25.0716 C   0  0  0  0  0  0
  -25.3721  -31.3730   26.1458 C   0  0  0  0  0  0
  -27.0301  -30.3046   24.6105 C   0  0  0  0  0  0
  -27.6045  -32.4324   25.7478 C   0  0  0  0  0  0
  -27.5578  -37.1813   24.8457 C   0  0  0  0  0  0
  -21.4125  -29.3032   22.3731 N   0  0  0  0  0  0
  -26.4293  -37.3795   23.9400 N   0  0  0  0  0  0
  -24.6657  -31.0797   22.0983 N   0  0  0  0  0  0
  -23.4173  -28.8218   23.3037 O   0  0  0  0  0  0
  -28.3995  -26.7103   20.1033 O   0  0  0  0  0  0
  -26.5611  -34.8932   22.4685 O   0  0  0  0  0  0
  -23.5343  -32.1433   23.7496 O   0  0  0  0  0  0
  -30.4213  -17.6744   21.1888 C   0  0  0  0  0  0
  -30.7921  -18.9383   21.7103 C   0  0  0  0  0  0
  -31.3157  -18.9990   23.0171 C   0  0  0  0  0  0
  -30.5672  -16.5202   21.9907 C   0  0  0  0  0  0
  -31.4048  -17.8034   23.7448 C   0  0  0  0  0  0
  -30.6862  -20.1734   20.8989 C   0  0  0  0  0  0
  -29.0004  -22.0924   20.8415 C   0  0  0  0  0  0
  -28.6631  -24.3093   19.6076 C   0  0  0  0  0  0
  -29.2662  -20.6101   20.5208 C   0  0  0  0  0  0
  -28.1496  -22.8774   19.8312 C   0  0  0  0  0  0
  -28.2890  -25.3824   20.6452 C   0  0  0  0  0  0
  -31.0294  -16.6038   23.2629 N   0  0  0  0  0  0
  -31.8798  -17.8171   25.0472 N   0  0  0  0  0  0
  -30.0907  -15.2846   21.4984 N   0  0  0  0  0  0
  -31.6714  -20.8175   20.5180 O   0  0  0  0  0  0
  -29.3502  -22.6003   21.9138 O   0  0  0  0  0  0
  -29.3266  -24.5897   18.6027 O   0  0  0  0  0  0
  -31.6970  -20.1742   23.5793 F   0  0  0  0  0  0
  -31.4720  -12.4400   19.1052 H   0  0  0  0  0  0
  -30.3519  -11.2953   19.7828 H   0  0  0  0  0  0
  -29.7364  -11.8052   17.4104 H   0  0  0  0  0  0
  -29.6527  -13.5116   17.7711 H   0  0  0  0  0  0
  -27.8280  -11.3146   18.8016 H   0  0  0  0  0  0
  -27.3653  -12.6526   17.7817 H   0  0  0  0  0  0
  -27.7260  -14.2547   19.6025 H   0  0  0  0  0  0
  -28.6752  -11.8836   21.2711 H   0  0  0  0  0  0
  -28.4385  -13.4760   21.9031 H   0  0  0  0  0  0
  -25.2752   -9.5753   22.4715 H   0  0  0  0  0  0
  -24.0018   -7.4673   22.7481 H   0  0  0  0  0  0
  -21.0810   -8.8738   19.8981 H   0  0  0  0  0  0
  -22.3618  -10.9655   19.6127 H   0  0  0  0  0  0
  -21.2016   -7.6142   23.9705 H   0  0  0  0  0  0
  -21.1464   -6.0509   25.9069 H   0  0  0  0  0  0
  -22.0618   -2.7593   23.2848 H   0  0  0  0  0  0
  -22.4105  -11.9933   22.4785 H   0  0  0  0  0  0
  -21.1110  -13.1289   22.2580 H   0  0  0  0  0  0
  -24.6849  -15.8559   20.5224 H   0  0  0  0  0  0
  -26.3050  -15.6189   20.1116 H   0  0  0  0  0  0
  -26.7117  -32.5539   23.1153 H   0  0  0  0  0  0
  -25.0000  -33.9779   25.0424 H   0  0  0  0  0  0
  -22.6888  -31.3078   21.4112 H   0  0  0  0  0  0
  -23.3733  -35.9675   23.3314 H   0  0  0  0  0  0
  -24.3576  -36.8931   22.2046 H   0  0  0  0  0  0
  -23.7266  -37.6545   23.6650 H   0  0  0  0  0  0
  -26.0366  -31.6030   20.5894 H   0  0  0  0  0  0
  -26.8177  -30.8929   21.9747 H   0  0  0  0  0  0
  -28.1024  -29.1213   21.1489 H   0  0  0  0  0  0
  -26.0618  -25.9609   19.0353 H   0  0  0  0  0  0
  -23.9767  -27.2810   19.0513 H   0  0  0  0  0  0
  -23.7139  -30.5945   19.4042 H   0  0  0  0  0  0
  -22.7323  -29.2398   19.8723 H   0  0  0  0  0  0
  -25.1287  -36.1964   25.0824 H   0  0  0  0  0  0
  -20.9947  -28.3236   24.1448 H   0  0  0  0  0  0
  -20.5674  -26.2271   23.3605 H   0  0  0  0  0  0
  -21.6639  -26.7461   22.1213 H   0  0  0  0  0  0
  -19.6910  -25.6304   21.1234 H   0  0  0  0  0  0
  -19.6684  -27.3210   20.6754 H   0  0  0  0  0  0
  -17.4190  -26.6667   21.4031 H   0  0  0  0  0  0
  -18.0327  -26.0067   22.9025 H   0  0  0  0  0  0
  -19.7923  -30.7248   24.2305 H   0  0  0  0  0  0
  -17.5011  -31.6270   24.5162 H   0  0  0  0  0  0
  -15.5345  -30.3005   23.7640 H   0  0  0  0  0  0
  -15.8655  -28.0837   22.7056 H   0  0  0  0  0  0
  -24.5867  -30.7119   25.7779 H   0  0  0  0  0  0
  -24.8949  -32.2904   26.4920 H   0  0  0  0  0  0
  -25.8051  -30.8865   27.0205 H   0  0  0  0  0  0
  -26.2861  -29.6810   24.1139 H   0  0  0  0  0  0
  -27.4043  -29.7285   25.4577 H   0  0  0  0  0  0
  -27.8701  -30.4359   23.9279 H   0  0  0  0  0  0
  -27.2658  -33.3590   26.2125 H   0  0  0  0  0  0
  -28.3821  -32.6942   25.0289 H   0  0  0  0  0  0
  -28.0759  -31.8408   26.5337 H   0  0  0  0  0  0
  -28.2603  -38.0104   24.7500 H   0  0  0  0  0  0
  -28.1067  -36.2637   24.6285 H   0  0  0  0  0  0
  -27.2297  -37.1466   25.8862 H   0  0  0  0  0  0
  -20.9282  -29.8730   21.6939 H   0  0  0  0  0  0
  -26.0178  -38.2872   24.1400 H   0  0  0  0  0  0
  -30.0292  -17.5932   20.1843 H   0  0  0  0  0  0
  -28.5467  -20.0002   21.0660 H   0  0  0  0  0  0
  -29.1155  -20.4198   19.4600 H   0  0  0  0  0  0
  -27.1229  -22.9162   20.1939 H   0  0  0  0  0  0
  -28.1351  -22.3498   18.8785 H   0  0  0  0  0  0
  -28.9798  -25.3009   21.4843 H   0  0  0  0  0  0
  -27.2951  -25.1784   21.0464 H   0  0  0  0  0  0
  -31.9348  -18.7354   25.4717 H   0  0  0  0  0  0
  -31.5341  -17.0983   25.6703 H   0  0  0  0  0  0
  -29.2551  -14.9284   21.9325 H   0  0  0  0  0  0
  1 25  1  0  0  0
  1 30  2  0  0  0
  1 84  1  0  0  0
  2  3  1  0  0  0
  2 25  1  0  0  0
  2 89  1  0  0  0
  2 90  1  0  0  0
  3  4  1  0  0  0
  3 91  1  0  0  0
  3 92  1  0  0  0
  4  5  1  0  0  0
  4 93  1  0  0  0
  4 94  1  0  0  0
  5  6  1  0  0  0
  5 26  1  0  0  0
  5 95  1  0  0  0
  6 25  1  0  0  0
  6 96  1  0  0  0
  6 97  1  0  0  0
  7  8  2  0  0  0
  7 26  1  0  0  0
  7 29  1  0  0  0
  8  9  1  0  0  0
  8 22  1  0  0  0
  9 10  1  0  0  0
  9 27  2  0  0  0
 10 11  2  0  0  0
 10 15  1  0  0  0
 11 12  1  0  0  0
 11 98  1  0  0  0
 12 13  2  0  0  0
 12 99  1  0  0  0
 13 14  1  0  0  0
 13 31  1  0  0  0
 14 15  2  0  0  0
 14100  1  0  0  0
 15101  1  0  0  0
 16 17  2  0  0  0
 16 21  1  0  0  0
 16 31  1  0  0  0
 17 18  1  0  0  0
 17102  1  0  0  0
 18 19  2  0  0  0
 18103  1  0  0  0
 19 20  1  0  0  0
 19 24  1  0  0  0
 20 21  2  0  0  0
 20104  1  0  0  0
 21 23  1  0  0  0
 22 28  1  0  0  0
 22 32  2  0  0  0
 26 27  1  0  0  0
 28105  1  0  0  0
 28106  1  0  0  0
 29107  1  0  0  0
 29108  1  0  0  0
 33 34  1  0  0  0
 33 66  1  0  0  0
 33 70  2  0  0  0
 34 36  1  0  0  0
 34 59  1  0  0  0
 34109  1  0  0  0
 35 44  2  0  0  0
 35 45  1  0  0  0
 35 68  1  0  0  0
 36 56  1  0  0  0
 36110  1  0  0  0
 37 39  1  0  0  0
 37 47  1  0  0  0
 37 66  1  0  0  0
 37111  1  0  0  0
 38 43  2  0  0  0
 38 46  1  0  0  0
 38 47  1  0  0  0
 39 64  1  0  0  0
 39 67  2  0  0  0
 40 52  1  0  0  0
 40 53  2  0  0  0
 40 58  1  0  0  0
 41112  1  0  0  0
 41113  1  0  0  0
 41114  1  0  0  0
 41 48  1  0  0  0
 42 43  1  0  0  0
 42 66  1  0  0  0
 42115  1  0  0  0
 42116  1  0  0  0
 43 44  1  0  0  0
 44117  1  0  0  0
 45 46  2  0  0  0
 45118  1  0  0  0
 46119  1  0  0  0
 47120  1  0  0  0
 47121  1  0  0  0
 48 56  1  0  0  0
 48 65  1  0  0  0
 48122  1  0  0  0
 49 50  1  0  0  0
 49 53  1  0  0  0
 49 64  1  0  0  0
 49123  1  0  0  0
 50 51  1  0  0  0
 50124  1  0  0  0
 50125  1  0  0  0
 51 52  1  0  0  0
 51126  1  0  0  0
 51127  1  0  0  0
 52128  1  0  0  0
 52129  1  0  0  0
 53 54  1  0  0  0
 54 55  2  0  0  0
 54130  1  0  0  0
 55 57  1  0  0  0
 55131  1  0  0  0
 56 69  2  0  0  0
 57 58  2  0  0  0
 57132  1  0  0  0
 58133  1  0  0  0
 59 60  1  0  0  0
 59 61  1  0  0  0
 59 62  1  0  0  0
 60134  1  0  0  0
 60135  1  0  0  0
 60136  1  0  0  0
 61137  1  0  0  0
 61138  1  0  0  0
 61139  1  0  0  0
 62140  1  0  0  0
 62141  1  0  0  0
 62142  1  0  0  0
 63 65  1  0  0  0
 63143  1  0  0  0
 63144  1  0  0  0
 63145  1  0  0  0
 64146  1  0  0  0
 65147  1  0  0  0
 68 81  1  0  0  0
 71 72  2  0  0  0
 71 74  1  0  0  0
 71148  1  0  0  0
 72 73  1  0  0  0
 72 76  1  0  0  0
 73 75  2  0  0  0
 73 88  1  0  0  0
 74 82  2  0  0  0
 74 84  1  0  0  0
 75 82  1  0  0  0
 75 83  1  0  0  0
 76 79  1  0  0  0
 76 85  2  0  0  0
 77 79  1  0  0  0
 77 80  1  0  0  0
 77 86  2  0  0  0
 78 80  1  0  0  0
 78 81  1  0  0  0
 78 87  2  0  0  0
 79149  1  0  0  0
 79150  1  0  0  0
 80151  1  0  0  0
 80152  1  0  0  0
 81153  1  0  0  0
 81154  1  0  0  0
 83155  1  0  0  0
 83156  1  0  0  0
 84157  1  0  0  0
M  ISO  4   1 100  68 101  81 101  84 100
M  END
> <chiral flag>
0

> <version>
0

> <s_m_source_file>
/data/baiqing/PycharmProjects/Reinvent-master-3.2/result/LINK_invent/BTK/process_docking_weight1_custom_product_contain_oxygen_bond_distance_aromatic_linkinvent_7_9_3/rearranged_h_0177.sdf

> <i_m_source_file_index>
68

> <r_mmod_Potential_Energy-OPLS-2005>
-317.018157958984

> <r_mmod_Stretch_Energy-OPLS-2005>
34.9636077880859

> <r_mmod_Bend_Energy-OPLS-2005>
93.3292236328125

> <r_mmod_Torsional_Energy-OPLS-2005>
310.579071044922

> <r_mmod_Improper_Torsional_Energy-OPLS-2005>
7.67448806762695

> <r_mmod_Van_der_Waal_Energy-OPLS-2005>
150.816436767578

> <r_mmod_Electrostatic_Energy-OPLS-2005>
-639.412048339844

> <r_mmod_Solvation_Energy-OPLS-2005>
-284.548034667969

> <b_mmod_Minimization_Converged-OPLS-2005>
0

> <r_mmod_RMS_Derivative-OPLS-2005>
2.08386945724487

$$$$
68
                    3D
 Structure written by MMmdl.
152160  0  0  1  0            999 V2000
  -30.6788  -14.4773   20.5734 C   0  0  0  0  0  0
  -30.4290  -12.3084   19.4180 C   0  0  0  0  0  0
  -29.4974  -12.5139   18.2040 C   0  0  0  0  0  0
  -28.0171  -12.3713   18.6142 C   0  0  0  0  0  0
  -27.6638  -13.2022   19.8765 C   0  0  2  0  0  0
  -28.7046  -12.9630   20.9941 C   0  0  0  0  0  0
  -25.2607  -13.8148   20.5676 C   0  0  0  0  0  0
  -24.1850  -13.0434   20.9168 C   0  0  0  0  0  0
  -24.6393  -11.6898   20.8726 C   0  0  0  0  0  0
  -23.9058  -10.4288   21.0402 C   0  0  0  0  0  0
  -24.3614   -9.4207   21.9182 C   0  0  0  0  0  0
  -23.6289   -8.2244   22.0755 C   0  0  0  0  0  0
  -22.4273   -8.0279   21.3545 C   0  0  0  0  0  0
  -21.9906   -9.0251   20.4644 C   0  0  0  0  0  0
  -22.7232  -10.2129   20.3049 C   0  0  0  0  0  0
  -21.6851   -6.0734   22.5279 C   0  0  0  0  0  0
  -21.4013   -6.5640   23.8213 C   0  0  0  0  0  0
  -21.3658   -5.6793   24.9175 C   0  0  0  0  0  0
  -21.6043   -4.3054   24.7226 C   0  0  0  0  0  0
  -21.8819   -3.8146   23.4347 C   0  0  0  0  0  0
  -21.9194   -4.6963   22.3404 C   0  0  0  0  0  0
  -22.7873  -13.5244   21.1837 C   0  0  0  0  0  0
  -22.1661   -4.2149   21.0982 F   0  0  0  0  0  0
  -21.5630   -3.4537   25.7738 F   0  0  0  0  0  0
  -30.0376  -13.2818   20.4502 N   0  0  0  0  0  0
  -26.3035  -12.9307   20.3361 N   0  0  0  0  0  0
  -25.9318  -11.6472   20.5753 N   0  0  0  0  0  0
  -22.0502  -12.8235   22.0380 N   0  0  0  0  0  0
  -25.4343  -15.1866   20.4087 N   0  0  0  0  0  0
  -31.8026  -14.6757   20.0996 O   0  0  0  0  0  0
  -21.6637   -6.8876   21.4242 O   0  0  0  0  0  0
  -22.3567  -14.5561   20.6694 O   0  0  0  0  0  0
  -24.6149  -31.8675   23.2085 C   0  0  0  0  0  0
  -25.9040  -32.4819   23.8389 C   0  0  1  0  0  0
  -27.2411  -27.4412   20.1028 C   0  0  0  0  0  0
  -25.5900  -33.8620   24.2332 N   0  0  0  0  0  0
  -23.4032  -30.4886   21.5488 C   0  0  2  0  0  0
  -24.8523  -28.9505   20.1178 C   0  0  0  0  0  0
  -22.7409  -29.4659   22.4998 C   0  0  0  0  0  0
  -18.0268  -28.1377   22.8493 C   0  0  0  0  0  0
  -24.1482  -36.7310   23.2637 C   0  0  0  0  0  0
  -25.9292  -30.8379   21.3559 C   0  0  0  0  0  0
  -26.0110  -29.4693   20.7104 C   0  0  0  0  0  0
  -27.2117  -28.7231   20.6968 C   0  0  0  0  0  0
  -26.0685  -26.9307   19.5086 C   0  0  0  0  0  0
  -24.8750  -27.6792   19.5147 C   0  0  0  0  0  0
  -23.6119  -29.8150   20.1656 C   0  0  0  0  0  0
  -25.4101  -36.3111   24.0343 C   0  0  1  0  0  0
  -20.5860  -28.3659   23.1322 C   0  0  2  0  0  0
  -20.6759  -26.9398   22.5416 C   0  0  0  0  0  0
  -19.5739  -26.6389   21.5210 C   0  0  0  0  0  0
  -18.1916  -26.7928   22.1617 C   0  0  0  0  0  0
  -19.1518  -28.8835   23.2907 C   0  0  0  0  0  0
  -18.9447  -30.1443   23.8915 C   0  0  0  0  0  0
  -17.6449  -30.6582   24.0569 C   0  0  0  0  0  0
  -25.9035  -34.9476   23.5136 C   0  0  0  0  0  0
  -16.5339  -29.9084   23.6330 C   0  0  0  0  0  0
  -16.7258  -28.6503   23.0347 C   0  0  0  0  0  0
  -26.4473  -31.6585   25.0705 C   0  0  0  0  0  0
  -25.3751  -31.3664   26.1458 C   0  0  0  0  0  0
  -27.0305  -30.3044   24.6038 C   0  0  0  0  0  0
  -27.6053  -32.4294   25.7471 C   0  0  0  0  0  0
  -27.5585  -37.1803   24.8461 C   0  0  0  0  0  0
  -21.4138  -29.3030   22.3735 N   0  0  0  0  0  0
  -26.4283  -37.3800   23.9423 N   0  0  0  0  0  0
  -24.6677  -31.0784   22.0975 N   0  0  0  0  0  0
  -23.4182  -28.8211   23.3048 O   0  0  0  0  0  0
  -28.3969  -26.6958   20.0829 O   0  0  0  0  0  0
  -26.5591  -34.8928   22.4694 O   0  0  0  0  0  0
  -23.5342  -32.1417   23.7487 O   0  0  0  0  0  0
  -29.7335  -19.3151   21.2721 C   0  0  0  0  0  0
  -30.8799  -18.9402   20.5928 C   0  0  0  0  0  0
  -30.0413  -16.8608   21.0966 C   0  0  0  0  0  0
  -28.8701  -23.0268   21.1100 C   0  0  0  0  0  0
  -29.1778  -20.6321   21.6413 C   0  0  0  0  0  0
  -29.1629  -21.7716   20.6719 C   0  0  0  0  0  0
  -28.7958  -24.2485   20.2687 C   0  0  0  0  0  0
  -28.3746  -25.5605   20.9667 C   0  0  0  0  0  0
  -31.9773  -19.8193   20.0318 C   0  0  0  0  0  0
  -31.0134  -17.5377   20.4768 N   0  0  0  0  0  0
  -29.9427  -15.4402   21.1653 N   0  0  0  0  0  0
  -28.6959  -20.7642   22.7705 O   0  0  0  0  0  0
  -29.0462  -24.2423   19.0575 O   0  0  0  0  0  0
  -29.4265  -21.4921   19.3836 O   0  0  0  0  0  0
  -32.0055  -21.0274   20.5944 F   0  0  0  0  0  0
  -33.1776  -19.2795   20.2507 F   0  0  0  0  0  0
  -31.8513  -19.9747   18.7140 F   0  0  0  0  0  0
  -28.8363  -17.9121   21.8262 S   0  0  0  0  0  0
  -31.4733  -12.4161   19.1181 H   0  0  0  0  0  0
  -30.3355  -11.2926   19.8052 H   0  0  0  0  0  0
  -29.7386  -11.7977   17.4173 H   0  0  0  0  0  0
  -29.6637  -13.5041   17.7761 H   0  0  0  0  0  0
  -27.8244  -11.3144   18.8009 H   0  0  0  0  0  0
  -27.3682  -12.6548   17.7846 H   0  0  0  0  0  0
  -27.7118  -14.2527   19.5891 H   0  0  0  0  0  0
  -28.6819  -11.9192   21.3113 H   0  0  0  0  0  0
  -28.4606  -13.5363   21.8892 H   0  0  0  0  0  0
  -25.2762   -9.5688   22.4753 H   0  0  0  0  0  0
  -23.9998   -7.4639   22.7478 H   0  0  0  0  0  0
  -21.0838   -8.8769   19.8948 H   0  0  0  0  0  0
  -22.3696  -10.9668   19.6156 H   0  0  0  0  0  0
  -21.1999   -7.6147   23.9719 H   0  0  0  0  0  0
  -21.1480   -6.0521   25.9080 H   0  0  0  0  0  0
  -22.0599   -2.7608   23.2846 H   0  0  0  0  0  0
  -22.4096  -11.9881   22.4757 H   0  0  0  0  0  0
  -21.1124  -13.1274   22.2581 H   0  0  0  0  0  0
  -24.6659  -15.8407   20.5107 H   0  0  0  0  0  0
  -26.2826  -15.6242   20.0724 H   0  0  0  0  0  0
  -26.7121  -32.5539   23.1167 H   0  0  0  0  0  0
  -25.0072  -33.9782   25.0493 H   0  0  0  0  0  0
  -22.6922  -31.3053   21.4067 H   0  0  0  0  0  0
  -23.3750  -35.9634   23.3280 H   0  0  0  0  0  0
  -24.3591  -36.8941   22.2056 H   0  0  0  0  0  0
  -23.7218  -37.6504   23.6658 H   0  0  0  0  0  0
  -26.0299  -31.5991   20.5810 H   0  0  0  0  0  0
  -26.8216  -30.9024   21.9666 H   0  0  0  0  0  0
  -28.1091  -29.1230   21.1483 H   0  0  0  0  0  0
  -26.0812  -25.9561   19.0404 H   0  0  0  0  0  0
  -23.9842  -27.2730   19.0553 H   0  0  0  0  0  0
  -23.7174  -30.5862   19.4019 H   0  0  0  0  0  0
  -22.7375  -29.2306   19.8730 H   0  0  0  0  0  0
  -25.1273  -36.1972   25.0835 H   0  0  0  0  0  0
  -20.9947  -28.3212   24.1444 H   0  0  0  0  0  0
  -20.5655  -26.2266   23.3598 H   0  0  0  0  0  0
  -21.6630  -26.7442   22.1205 H   0  0  0  0  0  0
  -19.6895  -25.6304   21.1226 H   0  0  0  0  0  0
  -19.6684  -27.3215   20.6755 H   0  0  0  0  0  0
  -17.4190  -26.6686   21.4013 H   0  0  0  0  0  0
  -18.0308  -26.0062   22.9004 H   0  0  0  0  0  0
  -19.7923  -30.7254   24.2288 H   0  0  0  0  0  0
  -17.5005  -31.6267   24.5160 H   0  0  0  0  0  0
  -15.5342  -30.2991   23.7652 H   0  0  0  0  0  0
  -15.8657  -28.0835   22.7044 H   0  0  0  0  0  0
  -24.5935  -30.7004   25.7787 H   0  0  0  0  0  0
  -24.8928  -32.2802   26.4935 H   0  0  0  0  0  0
  -25.8119  -30.8815   27.0196 H   0  0  0  0  0  0
  -26.2832  -29.6797   24.1129 H   0  0  0  0  0  0
  -27.4148  -29.7282   25.4463 H   0  0  0  0  0  0
  -27.8629  -30.4392   23.9127 H   0  0  0  0  0  0
  -27.2686  -33.3595   26.2060 H   0  0  0  0  0  0
  -28.3862  -32.6844   25.0296 H   0  0  0  0  0  0
  -28.0715  -31.8399   26.5375 H   0  0  0  0  0  0
  -28.2571  -38.0132   24.7557 H   0  0  0  0  0  0
  -28.1113  -36.2667   24.6219 H   0  0  0  0  0  0
  -27.2317  -37.1364   25.8864 H   0  0  0  0  0  0
  -20.9297  -29.8755   21.6963 H   0  0  0  0  0  0
  -26.0169  -38.2870   24.1450 H   0  0  0  0  0  0
  -28.6640  -23.1840   22.1596 H   0  0  0  0  0  0
  -29.0611  -25.7527   21.7914 H   0  0  0  0  0  0
  -27.3877  -25.4166   21.4089 H   0  0  0  0  0  0
  -29.0925  -15.1001   21.5853 H   0  0  0  0  0  0
  -29.3653  -22.3136   18.9054 H   0  0  0  0  0  0
  1 25  1  0  0  0
  1 30  2  0  0  0
  1 81  1  0  0  0
  2  3  1  0  0  0
  2 25  1  0  0  0
  2 89  1  0  0  0
  2 90  1  0  0  0
  3  4  1  0  0  0
  3 91  1  0  0  0
  3 92  1  0  0  0
  4  5  1  0  0  0
  4 93  1  0  0  0
  4 94  1  0  0  0
  5  6  1  0  0  0
  5 26  1  0  0  0
  5 95  1  0  0  0
  6 25  1  0  0  0
  6 96  1  0  0  0
  6 97  1  0  0  0
  7  8  2  0  0  0
  7 26  1  0  0  0
  7 29  1  0  0  0
  8  9  1  0  0  0
  8 22  1  0  0  0
  9 10  1  0  0  0
  9 27  2  0  0  0
 10 11  2  0  0  0
 10 15  1  0  0  0
 11 12  1  0  0  0
 11 98  1  0  0  0
 12 13  2  0  0  0
 12 99  1  0  0  0
 13 14  1  0  0  0
 13 31  1  0  0  0
 14 15  2  0  0  0
 14100  1  0  0  0
 15101  1  0  0  0
 16 17  2  0  0  0
 16 21  1  0  0  0
 16 31  1  0  0  0
 17 18  1  0  0  0
 17102  1  0  0  0
 18 19  2  0  0  0
 18103  1  0  0  0
 19 20  1  0  0  0
 19 24  1  0  0  0
 20 21  2  0  0  0
 20104  1  0  0  0
 21 23  1  0  0  0
 22 28  1  0  0  0
 22 32  2  0  0  0
 26 27  1  0  0  0
 28105  1  0  0  0
 28106  1  0  0  0
 29107  1  0  0  0
 29108  1  0  0  0
 33 34  1  0  0  0
 33 66  1  0  0  0
 33 70  2  0  0  0
 34 36  1  0  0  0
 34 59  1  0  0  0
 34109  1  0  0  0
 35 44  2  0  0  0
 35 45  1  0  0  0
 35 68  1  0  0  0
 36 56  1  0  0  0
 36110  1  0  0  0
 37 39  1  0  0  0
 37 47  1  0  0  0
 37 66  1  0  0  0
 37111  1  0  0  0
 38 43  2  0  0  0
 38 46  1  0  0  0
 38 47  1  0  0  0
 39 64  1  0  0  0
 39 67  2  0  0  0
 40 52  1  0  0  0
 40 53  2  0  0  0
 40 58  1  0  0  0
 41112  1  0  0  0
 41113  1  0  0  0
 41114  1  0  0  0
 41 48  1  0  0  0
 42 43  1  0  0  0
 42 66  1  0  0  0
 42115  1  0  0  0
 42116  1  0  0  0
 43 44  1  0  0  0
 44117  1  0  0  0
 45 46  2  0  0  0
 45118  1  0  0  0
 46119  1  0  0  0
 47120  1  0  0  0
 47121  1  0  0  0
 48 56  1  0  0  0
 48 65  1  0  0  0
 48122  1  0  0  0
 49 50  1  0  0  0
 49 53  1  0  0  0
 49 64  1  0  0  0
 49123  1  0  0  0
 50 51  1  0  0  0
 50124  1  0  0  0
 50125  1  0  0  0
 51 52  1  0  0  0
 51126  1  0  0  0
 51127  1  0  0  0
 52128  1  0  0  0
 52129  1  0  0  0
 53 54  1  0  0  0
 54 55  2  0  0  0
 54130  1  0  0  0
 55 57  1  0  0  0
 55131  1  0  0  0
 56 69  2  0  0  0
 57 58  2  0  0  0
 57132  1  0  0  0
 58133  1  0  0  0
 59 60  1  0  0  0
 59 61  1  0  0  0
 59 62  1  0  0  0
 60134  1  0  0  0
 60135  1  0  0  0
 60136  1  0  0  0
 61137  1  0  0  0
 61138  1  0  0  0
 61139  1  0  0  0
 62140  1  0  0  0
 62141  1  0  0  0
 62142  1  0  0  0
 63 65  1  0  0  0
 63143  1  0  0  0
 63144  1  0  0  0
 63145  1  0  0  0
 64146  1  0  0  0
 65147  1  0  0  0
 68 78  1  0  0  0
 71 72  2  0  0  0
 71 75  1  0  0  0
 71 88  1  0  0  0
 72 79  1  0  0  0
 72 80  1  0  0  0
 73 80  2  0  0  0
 73 81  1  0  0  0
 73 88  1  0  0  0
 74 76  2  0  0  0
 74 77  1  0  0  0
 74148  1  0  0  0
 75 76  1  0  0  0
 75 82  2  0  0  0
 76 84  1  0  0  0
 77 78  1  0  0  0
 77 83  2  0  0  0
 78149  1  0  0  0
 78150  1  0  0  0
 79 85  1  0  0  0
 79 86  1  0  0  0
 79 87  1  0  0  0
 81151  1  0  0  0
 84152  1  0  0  0
M  ISO  4   1 100  68 101  78 101  81 100
M  END
> <chiral flag>
0

> <version>
0

> <s_m_source_file>
/data/baiqing/PycharmProjects/Reinvent-master-3.2/result/LINK_invent/BTK/process_docking_weight1_custom_product_contain_oxygen_bond_distance_aromatic_linkinvent_7_9_3/rearranged_h_0177.sdf

> <i_m_source_file_index>
69

> <r_mmod_Potential_Energy-OPLS-2005>
-134.242065429688

> <r_mmod_Stretch_Energy-OPLS-2005>
39.3222923278809

> <r_mmod_Bend_Energy-OPLS-2005>
104.077049255371

> <r_mmod_Torsional_Energy-OPLS-2005>
227.313018798828

> <r_mmod_Improper_Torsional_Energy-OPLS-2005>
3.27874517440796

> <r_mmod_Van_der_Waal_Energy-OPLS-2005>
138.765365600586

> <r_mmod_Electrostatic_Energy-OPLS-2005>
-421.813507080078

> <r_mmod_Solvation_Energy-OPLS-2005>
-236.726318359375

> <b_mmod_Minimization_Converged-OPLS-2005>
0

> <r_mmod_RMS_Derivative-OPLS-2005>
0.885775625705719

$$$$
69
                    3D
 Structure written by MMmdl.
162170  0  0  1  0            999 V2000
  -30.7378  -14.3862   20.5503 C   0  0  0  0  0  0
  -30.4131  -12.2510   19.3959 C   0  0  0  0  0  0
  -29.4860  -12.4853   18.1844 C   0  0  0  0  0  0
  -28.0045  -12.3761   18.5963 C   0  0  0  0  0  0
  -27.6631  -13.1990   19.8688 C   0  0  2  0  0  0
  -28.7073  -12.9529   20.9817 C   0  0  0  0  0  0
  -25.2607  -13.8169   20.5715 C   0  0  0  0  0  0
  -24.1858  -13.0460   20.9202 C   0  0  0  0  0  0
  -24.6394  -11.6918   20.8754 C   0  0  0  0  0  0
  -23.9063  -10.4308   21.0405 C   0  0  0  0  0  0
  -24.3607   -9.4236   21.9185 C   0  0  0  0  0  0
  -23.6305   -8.2261   22.0763 C   0  0  0  0  0  0
  -22.4271   -8.0303   21.3571 C   0  0  0  0  0  0
  -21.9903   -9.0269   20.4663 C   0  0  0  0  0  0
  -22.7234  -10.2153   20.3073 C   0  0  0  0  0  0
  -21.6860   -6.0760   22.5275 C   0  0  0  0  0  0
  -21.4004   -6.5648   23.8214 C   0  0  0  0  0  0
  -21.3673   -5.6808   24.9173 C   0  0  0  0  0  0
  -21.6024   -4.3068   24.7213 C   0  0  0  0  0  0
  -21.8827   -3.8165   23.4336 C   0  0  0  0  0  0
  -21.9179   -4.6983   22.3384 C   0  0  0  0  0  0
  -22.7895  -13.5260   21.1863 C   0  0  0  0  0  0
  -22.1664   -4.2164   21.0976 F   0  0  0  0  0  0
  -21.5635   -3.4534   25.7726 F   0  0  0  0  0  0
  -30.0457  -13.2265   20.4290 N   0  0  0  0  0  0
  -26.3018  -12.9304   20.3337 N   0  0  0  0  0  0
  -25.9288  -11.6470   20.5707 N   0  0  0  0  0  0
  -22.0494  -12.8278   22.0405 N   0  0  0  0  0  0
  -25.4324  -15.1901   20.4135 N   0  0  0  0  0  0
  -31.8816  -14.5300   20.1029 O   0  0  0  0  0  0
  -21.6655   -6.8901   21.4246 O   0  0  0  0  0  0
  -22.3574  -14.5549   20.6719 O   0  0  0  0  0  0
  -24.6139  -31.8679   23.2102 C   0  0  0  0  0  0
  -25.9053  -32.4825   23.8387 C   0  0  1  0  0  0
  -27.2397  -27.4682   20.0591 C   0  0  0  0  0  0
  -25.5894  -33.8628   24.2298 N   0  0  0  0  0  0
  -23.3978  -30.4999   21.5472 C   0  0  2  0  0  0
  -24.8387  -28.9579   20.1169 C   0  0  0  0  0  0
  -22.7364  -29.4731   22.4948 C   0  0  0  0  0  0
  -18.0273  -28.1445   22.8497 C   0  0  0  0  0  0
  -24.1475  -36.7323   23.2621 C   0  0  0  0  0  0
  -25.9205  -30.8498   21.3489 C   0  0  0  0  0  0
  -25.9995  -29.4830   20.6993 C   0  0  0  0  0  0
  -27.2005  -28.7446   20.6589 C   0  0  0  0  0  0
  -26.0553  -26.9455   19.4890 C   0  0  0  0  0  0
  -24.8585  -27.6887   19.5178 C   0  0  0  0  0  0
  -23.6016  -29.8246   20.1650 C   0  0  0  0  0  0
  -25.4095  -36.3099   24.0310 C   0  0  1  0  0  0
  -20.5870  -28.3744   23.1276 C   0  0  2  0  0  0
  -20.6755  -26.9485   22.5387 C   0  0  0  0  0  0
  -19.5732  -26.6479   21.5183 C   0  0  0  0  0  0
  -18.1912  -26.7998   22.1622 C   0  0  0  0  0  0
  -19.1516  -28.8905   23.2919 C   0  0  0  0  0  0
  -18.9447  -30.1483   23.8989 C   0  0  0  0  0  0
  -17.6445  -30.6648   24.0598 C   0  0  0  0  0  0
  -25.9028  -34.9462   23.5079 C   0  0  0  0  0  0
  -16.5346  -29.9164   23.6329 C   0  0  0  0  0  0
  -16.7246  -28.6576   23.0361 C   0  0  0  0  0  0
  -26.4504  -31.6594   25.0691 C   0  0  0  0  0  0
  -25.3798  -31.3673   26.1446 C   0  0  0  0  0  0
  -27.0289  -30.3019   24.6068 C   0  0  0  0  0  0
  -27.6048  -32.4319   25.7466 C   0  0  0  0  0  0
  -27.5572  -37.1789   24.8462 C   0  0  0  0  0  0
  -21.4103  -29.3113   22.3669 N   0  0  0  0  0  0
  -26.4268  -37.3790   23.9414 N   0  0  0  0  0  0
  -24.6637  -31.0867   22.0946 N   0  0  0  0  0  0
  -23.4142  -28.8264   23.2967 O   0  0  0  0  0  0
  -28.4555  -26.8210   20.0199 O   0  0  0  0  0  0
  -26.5594  -34.8916   22.4652 O   0  0  0  0  0  0
  -23.5352  -32.1340   23.7592 O   0  0  0  0  0  0
  -30.6899  -19.5128   20.7525 C   0  0  0  0  0  0
  -31.2253  -18.6164   19.8230 C   0  0  0  0  0  0
  -29.9210  -19.0237   21.8278 C   0  0  0  0  0  0
  -29.6750  -17.6247   21.8826 C   0  0  0  0  0  0
  -30.3146  -16.7855   20.9436 C   0  0  0  0  0  0
  -28.2913  -24.7264   21.2487 C   0  0  0  0  0  0
  -29.6700  -21.1711   23.0532 C   0  0  0  0  0  0
  -27.4726  -17.4371   22.7216 C   0  0  0  0  0  0
  -28.2075  -23.1963   21.2539 C   0  0  0  0  0  0
  -28.5000  -25.3974   19.8811 C   0  0  0  0  0  0
  -28.5818  -22.0820   23.6255 C   0  0  0  0  0  0
  -27.5877  -22.5697   22.5391 C   0  0  0  0  0  0
  -31.0591  -17.2874   19.9280 N   0  0  0  0  0  0
  -29.3436  -19.8880   22.8060 N   0  0  0  0  0  0
  -30.0566  -15.4012   21.0920 N   0  0  0  0  0  0
  -28.2189  -25.3843   22.2947 O   0  0  0  0  0  0
  -30.7961  -21.6397   22.8602 O   0  0  0  0  0  0
  -28.8455  -17.0566   22.8224 O   0  0  0  0  0  0
  -31.4625  -12.3247   19.0909 H   0  0  0  0  0  0
  -30.2932  -11.2377   19.7815 H   0  0  0  0  0  0
  -29.7051  -11.7654   17.3916 H   0  0  0  0  0  0
  -29.6756  -13.4665   17.7462 H   0  0  0  0  0  0
  -27.7874  -11.3215   18.7745 H   0  0  0  0  0  0
  -27.3648  -12.6848   17.7697 H   0  0  0  0  0  0
  -27.7131  -14.2510   19.5902 H   0  0  0  0  0  0
  -28.6579  -11.9158   21.3145 H   0  0  0  0  0  0
  -28.4839  -13.5495   21.8667 H   0  0  0  0  0  0
  -25.2749   -9.5707   22.4741 H   0  0  0  0  0  0
  -24.0023   -7.4634   22.7457 H   0  0  0  0  0  0
  -21.0862   -8.8800   19.8932 H   0  0  0  0  0  0
  -22.3721  -10.9698   19.6182 H   0  0  0  0  0  0
  -21.2016   -7.6145   23.9726 H   0  0  0  0  0  0
  -21.1483   -6.0528   25.9092 H   0  0  0  0  0  0
  -22.0585   -2.7614   23.2825 H   0  0  0  0  0  0
  -22.4104  -12.0001   22.4876 H   0  0  0  0  0  0
  -21.1084  -13.1299   22.2494 H   0  0  0  0  0  0
  -24.6665  -15.8422   20.5405 H   0  0  0  0  0  0
  -26.2655  -15.6225   20.0375 H   0  0  0  0  0  0
  -26.7119  -32.5562   23.1156 H   0  0  0  0  0  0
  -24.9986  -33.9811   25.0410 H   0  0  0  0  0  0
  -22.6836  -31.3165   21.4096 H   0  0  0  0  0  0
  -23.3694  -35.9707   23.3302 H   0  0  0  0  0  0
  -24.3549  -36.8938   22.2036 H   0  0  0  0  0  0
  -23.7291  -37.6546   23.6647 H   0  0  0  0  0  0
  -26.0120  -31.6185   20.5797 H   0  0  0  0  0  0
  -26.8135  -30.9165   21.9538 H   0  0  0  0  0  0
  -28.1095  -29.1573   21.0726 H   0  0  0  0  0  0
  -26.0310  -25.9860   18.9954 H   0  0  0  0  0  0
  -23.9605  -27.2818   19.0690 H   0  0  0  0  0  0
  -23.7128  -30.5925   19.3981 H   0  0  0  0  0  0
  -22.7218  -29.2489   19.8733 H   0  0  0  0  0  0
  -25.1266  -36.1912   25.0797 H   0  0  0  0  0  0
  -21.0028  -28.3373   24.1374 H   0  0  0  0  0  0
  -20.5654  -26.2381   23.3615 H   0  0  0  0  0  0
  -21.6609  -26.7522   22.1184 H   0  0  0  0  0  0
  -19.6881  -25.6395   21.1203 H   0  0  0  0  0  0
  -19.6654  -27.3289   20.6712 H   0  0  0  0  0  0
  -17.4166  -26.6738   21.4050 H   0  0  0  0  0  0
  -18.0346  -26.0150   22.9032 H   0  0  0  0  0  0
  -19.7905  -30.7267   24.2430 H   0  0  0  0  0  0
  -17.5005  -31.6332   24.5181 H   0  0  0  0  0  0
  -15.5338  -30.3101   23.7638 H   0  0  0  0  0  0
  -15.8641  -28.0927   22.7052 H   0  0  0  0  0  0
  -24.5996  -30.6999   25.7766 H   0  0  0  0  0  0
  -24.8988  -32.2824   26.4895 H   0  0  0  0  0  0
  -25.8207  -30.8836   27.0179 H   0  0  0  0  0  0
  -26.2769  -29.6766   24.1233 H   0  0  0  0  0  0
  -27.4094  -29.7298   25.4539 H   0  0  0  0  0  0
  -27.8609  -30.4220   23.9120 H   0  0  0  0  0  0
  -27.2608  -33.3581   26.2081 H   0  0  0  0  0  0
  -28.3857  -32.6965   25.0315 H   0  0  0  0  0  0
  -28.0725  -31.8428   26.5367 H   0  0  0  0  0  0
  -28.2553  -38.0114   24.7515 H   0  0  0  0  0  0
  -28.1091  -36.2641   24.6244 H   0  0  0  0  0  0
  -27.2306  -37.1386   25.8870 H   0  0  0  0  0  0
  -20.9262  -29.8813   21.6883 H   0  0  0  0  0  0
  -26.0133  -38.2832   24.1509 H   0  0  0  0  0  0
  -30.8773  -20.5673   20.6096 H   0  0  0  0  0  0
  -31.8021  -18.9648   18.9791 H   0  0  0  0  0  0
  -27.1986  -17.8347   21.7390 H   0  0  0  0  0  0
  -27.2260  -18.1876   23.4709 H   0  0  0  0  0  0
  -26.8314  -16.5729   22.9090 H   0  0  0  0  0  0
  -29.2036  -22.8082   21.0453 H   0  0  0  0  0  0
  -27.6078  -22.9143   20.3915 H   0  0  0  0  0  0
  -27.8000  -25.0199   19.1347 H   0  0  0  0  0  0
  -29.4935  -25.1274   19.5189 H   0  0  0  0  0  0
  -29.0549  -22.9435   24.1024 H   0  0  0  0  0  0
  -28.0432  -21.5680   24.4240 H   0  0  0  0  0  0
  -26.9576  -21.7295   22.2417 H   0  0  0  0  0  0
  -26.8969  -23.2749   22.9984 H   0  0  0  0  0  0
  -28.5528  -19.5072   23.3051 H   0  0  0  0  0  0
  -29.1941  -15.1644   21.5601 H   0  0  0  0  0  0
  1 25  1  0  0  0
  1 30  2  0  0  0
  1 85  1  0  0  0
  2  3  1  0  0  0
  2 25  1  0  0  0
  2 89  1  0  0  0
  2 90  1  0  0  0
  3  4  1  0  0  0
  3 91  1  0  0  0
  3 92  1  0  0  0
  4  5  1  0  0  0
  4 93  1  0  0  0
  4 94  1  0  0  0
  5  6  1  0  0  0
  5 26  1  0  0  0
  5 95  1  0  0  0
  6 25  1  0  0  0
  6 96  1  0  0  0
  6 97  1  0  0  0
  7  8  2  0  0  0
  7 26  1  0  0  0
  7 29  1  0  0  0
  8  9  1  0  0  0
  8 22  1  0  0  0
  9 10  1  0  0  0
  9 27  2  0  0  0
 10 11  2  0  0  0
 10 15  1  0  0  0
 11 12  1  0  0  0
 11 98  1  0  0  0
 12 13  2  0  0  0
 12 99  1  0  0  0
 13 14  1  0  0  0
 13 31  1  0  0  0
 14 15  2  0  0  0
 14100  1  0  0  0
 15101  1  0  0  0
 16 17  2  0  0  0
 16 21  1  0  0  0
 16 31  1  0  0  0
 17 18  1  0  0  0
 17102  1  0  0  0
 18 19  2  0  0  0
 18103  1  0  0  0
 19 20  1  0  0  0
 19 24  1  0  0  0
 20 21  2  0  0  0
 20104  1  0  0  0
 21 23  1  0  0  0
 22 28  1  0  0  0
 22 32  2  0  0  0
 26 27  1  0  0  0
 28105  1  0  0  0
 28106  1  0  0  0
 29107  1  0  0  0
 29108  1  0  0  0
 33 34  1  0  0  0
 33 66  1  0  0  0
 33 70  2  0  0  0
 34 36  1  0  0  0
 34 59  1  0  0  0
 34109  1  0  0  0
 35 44  2  0  0  0
 35 45  1  0  0  0
 35 68  1  0  0  0
 36 56  1  0  0  0
 36110  1  0  0  0
 37 39  1  0  0  0
 37 47  1  0  0  0
 37 66  1  0  0  0
 37111  1  0  0  0
 38 43  2  0  0  0
 38 46  1  0  0  0
 38 47  1  0  0  0
 39 64  1  0  0  0
 39 67  2  0  0  0
 40 52  1  0  0  0
 40 53  2  0  0  0
 40 58  1  0  0  0
 41112  1  0  0  0
 41113  1  0  0  0
 41114  1  0  0  0
 41 48  1  0  0  0
 42 43  1  0  0  0
 42 66  1  0  0  0
 42115  1  0  0  0
 42116  1  0  0  0
 43 44  1  0  0  0
 44117  1  0  0  0
 45 46  2  0  0  0
 45118  1  0  0  0
 46119  1  0  0  0
 47120  1  0  0  0
 47121  1  0  0  0
 48 56  1  0  0  0
 48 65  1  0  0  0
 48122  1  0  0  0
 49 50  1  0  0  0
 49 53  1  0  0  0
 49 64  1  0  0  0
 49123  1  0  0  0
 50 51  1  0  0  0
 50124  1  0  0  0
 50125  1  0  0  0
 51 52  1  0  0  0
 51126  1  0  0  0
 51127  1  0  0  0
 52128  1  0  0  0
 52129  1  0  0  0
 53 54  1  0  0  0
 54 55  2  0  0  0
 54130  1  0  0  0
 55 57  1  0  0  0
 55131  1  0  0  0
 56 69  2  0  0  0
 57 58  2  0  0  0
 57132  1  0  0  0
 58133  1  0  0  0
 59 60  1  0  0  0
 59 61  1  0  0  0
 59 62  1  0  0  0
 60134  1  0  0  0
 60135  1  0  0  0
 60136  1  0  0  0
 61137  1  0  0  0
 61138  1  0  0  0
 61139  1  0  0  0
 62140  1  0  0  0
 62141  1  0  0  0
 62142  1  0  0  0
 63 65  1  0  0  0
 63143  1  0  0  0
 63144  1  0  0  0
 63145  1  0  0  0
 64146  1  0  0  0
 65147  1  0  0  0
 68 80  1  0  0  0
 71 72  2  0  0  0
 71 73  1  0  0  0
 71148  1  0  0  0
 72 83  1  0  0  0
 72149  1  0  0  0
 73 74  2  0  0  0
 73 84  1  0  0  0
 74 75  1  0  0  0
 74 88  1  0  0  0
 75 83  2  0  0  0
 75 85  1  0  0  0
 76 79  1  0  0  0
 76 80  1  0  0  0
 76 86  2  0  0  0
 77 81  1  0  0  0
 77 84  1  0  0  0
 77 87  2  0  0  0
 78 88  1  0  0  0
 78150  1  0  0  0
 78151  1  0  0  0
 78152  1  0  0  0
 79 82  1  0  0  0
 79153  1  0  0  0
 79154  1  0  0  0
 80155  1  0  0  0
 80156  1  0  0  0
 81 82  1  0  0  0
 81157  1  0  0  0
 81158  1  0  0  0
 82159  1  0  0  0
 82160  1  0  0  0
 84161  1  0  0  0
 85162  1  0  0  0
M  ISO  4   1 100  68 101  80 101  85 100
M  END
> <chiral flag>
0

> <version>
0

> <s_m_source_file>
/data/baiqing/PycharmProjects/Reinvent-master-3.2/result/LINK_invent/BTK/process_docking_weight1_custom_product_contain_oxygen_bond_distance_aromatic_linkinvent_7_9_3/rearranged_h_0177.sdf

> <i_m_source_file_index>
70

> <r_mmod_Potential_Energy-OPLS-2005>
-183.459732055664

> <r_mmod_Stretch_Energy-OPLS-2005>
35.7312164306641

> <r_mmod_Bend_Energy-OPLS-2005>
107.299591064453

> <r_mmod_Torsional_Energy-OPLS-2005>
254.613616943359

> <r_mmod_Improper_Torsional_Energy-OPLS-2005>
3.51344132423401

> <r_mmod_Van_der_Waal_Energy-OPLS-2005>
167.736282348633

> <r_mmod_Electrostatic_Energy-OPLS-2005>
-486.420623779297

> <r_mmod_Solvation_Energy-OPLS-2005>
-278.877563476562

> <b_mmod_Minimization_Converged-OPLS-2005>
0

> <r_mmod_RMS_Derivative-OPLS-2005>
6.67676639556885

$$$$
70
                    3D
 Structure written by MMmdl.
153161  0  0  1  0            999 V2000
  -30.7067  -14.4264   20.6102 C   0  0  0  0  0  0
  -30.4254  -12.2915   19.4103 C   0  0  0  0  0  0
  -29.4936  -12.5203   18.2017 C   0  0  0  0  0  0
  -28.0130  -12.3860   18.6105 C   0  0  0  0  0  0
  -27.6681  -13.2029   19.8837 C   0  0  2  0  0  0
  -28.7060  -12.9387   20.9971 C   0  0  0  0  0  0
  -25.2605  -13.8153   20.5665 C   0  0  0  0  0  0
  -24.1849  -13.0436   20.9162 C   0  0  0  0  0  0
  -24.6398  -11.6899   20.8732 C   0  0  0  0  0  0
  -23.9067  -10.4288   21.0404 C   0  0  0  0  0  0
  -24.3622   -9.4204   21.9181 C   0  0  0  0  0  0
  -23.6298   -8.2244   22.0758 C   0  0  0  0  0  0
  -22.4281   -8.0281   21.3552 C   0  0  0  0  0  0
  -21.9921   -9.0250   20.4650 C   0  0  0  0  0  0
  -22.7245  -10.2129   20.3053 C   0  0  0  0  0  0
  -21.6851   -6.0740   22.5284 C   0  0  0  0  0  0
  -21.4012   -6.5642   23.8222 C   0  0  0  0  0  0
  -21.3661   -5.6791   24.9181 C   0  0  0  0  0  0
  -21.6045   -4.3057   24.7228 C   0  0  0  0  0  0
  -21.8815   -3.8152   23.4348 C   0  0  0  0  0  0
  -21.9195   -4.6968   22.3402 C   0  0  0  0  0  0
  -22.7873  -13.5233   21.1832 C   0  0  0  0  0  0
  -22.1658   -4.2156   21.0976 F   0  0  0  0  0  0
  -21.5637   -3.4545   25.7739 F   0  0  0  0  0  0
  -30.0468  -13.2464   20.4616 N   0  0  0  0  0  0
  -26.3055  -12.9314   20.3391 N   0  0  0  0  0  0
  -25.9325  -11.6478   20.5768 N   0  0  0  0  0  0
  -22.0509  -12.8226   22.0389 N   0  0  0  0  0  0
  -25.4325  -15.1867   20.4051 N   0  0  0  0  0  0
  -31.7895  -14.6722   20.0680 O   0  0  0  0  0  0
  -21.6639   -6.8882   21.4246 O   0  0  0  0  0  0
  -22.3562  -14.5541   20.6688 O   0  0  0  0  0  0
  -24.6144  -31.8672   23.2117 C   0  0  0  0  0  0
  -25.9049  -32.4810   23.8390 C   0  0  1  0  0  0
  -27.2333  -27.4359   20.0869 C   0  0  0  0  0  0
  -25.5920  -33.8606   24.2332 N   0  0  0  0  0  0
  -23.4003  -30.4926   21.5523 C   0  0  2  0  0  0
  -24.8448  -28.9606   20.1143 C   0  0  0  0  0  0
  -22.7382  -29.4664   22.4995 C   0  0  0  0  0  0
  -18.0263  -28.1381   22.8498 C   0  0  0  0  0  0
  -24.1487  -36.7300   23.2640 C   0  0  0  0  0  0
  -25.9294  -30.8328   21.3645 C   0  0  0  0  0  0
  -26.0053  -29.4685   20.7096 C   0  0  0  0  0  0
  -27.2007  -28.7139   20.6919 C   0  0  0  0  0  0
  -26.0490  -26.9430   19.4879 C   0  0  0  0  0  0
  -24.8623  -27.6976   19.5000 C   0  0  0  0  0  0
  -23.6065  -29.8258   20.1663 C   0  0  0  0  0  0
  -25.4111  -36.3098   24.0338 C   0  0  1  0  0  0
  -20.5851  -28.3665   23.1323 C   0  0  2  0  0  0
  -20.6756  -26.9402   22.5421 C   0  0  0  0  0  0
  -19.5737  -26.6393   21.5211 C   0  0  0  0  0  0
  -18.1912  -26.7935   22.1618 C   0  0  0  0  0  0
  -19.1513  -28.8840   23.2912 C   0  0  0  0  0  0
  -18.9441  -30.1446   23.8921 C   0  0  0  0  0  0
  -17.6445  -30.6594   24.0566 C   0  0  0  0  0  0
  -25.9037  -34.9461   23.5129 C   0  0  0  0  0  0
  -16.5335  -29.9094   23.6336 C   0  0  0  0  0  0
  -16.7251  -28.6507   23.0359 C   0  0  0  0  0  0
  -26.4489  -31.6583   25.0715 C   0  0  0  0  0  0
  -25.3770  -31.3671   26.1467 C   0  0  0  0  0  0
  -27.0322  -30.3028   24.6084 C   0  0  0  0  0  0
  -27.6068  -32.4290   25.7475 C   0  0  0  0  0  0
  -27.5585  -37.1800   24.8459 C   0  0  0  0  0  0
  -21.4114  -29.3037   22.3725 N   0  0  0  0  0  0
  -26.4288  -37.3786   23.9415 N   0  0  0  0  0  0
  -24.6667  -31.0777   22.1017 N   0  0  0  0  0  0
  -23.4153  -28.8208   23.3040 O   0  0  0  0  0  0
  -28.4153  -26.7187   20.0918 O   0  0  0  0  0  0
  -26.5583  -34.8916   22.4682 O   0  0  0  0  0  0
  -23.5344  -32.1418   23.7525 O   0  0  0  0  0  0
  -30.0438  -18.8408   20.0255 C   0  0  0  0  0  0
  -30.0940  -17.4881   22.4958 C   0  0  0  0  0  0
  -29.9982  -19.5854   21.2302 C   0  0  0  0  0  0
  -30.1343  -16.7402   21.3014 C   0  0  0  0  0  0
  -30.0318  -18.8942   22.4586 C   0  0  0  0  0  0
  -30.1028  -17.4280   20.0596 C   0  0  0  0  0  0
  -29.6069  -23.3633   21.0677 C   0  0  0  0  0  0
  -29.7795  -21.9679   20.3919 C   0  0  0  0  0  0
  -29.6950  -24.6224   20.1928 C   0  0  0  0  0  0
  -28.3277  -25.2934   19.9412 C   0  0  0  0  0  0
  -29.8912  -21.0040   21.3236 N   0  0  0  0  0  0
  -30.0882  -15.3191   21.3974 N   0  0  0  0  0  0
  -29.4184  -23.4724   22.2867 O   0  0  0  0  0  0
  -29.8117  -21.8022   19.1676 O   0  0  0  0  0  0
  -29.9824  -19.5945   23.6173 F   0  0  0  0  0  0
  -30.0707  -16.7416   18.8912 F   0  0  0  0  0  0
  -31.4697  -12.3949   19.1108 H   0  0  0  0  0  0
  -30.3245  -11.2709   19.7826 H   0  0  0  0  0  0
  -29.7274  -11.8114   17.4062 H   0  0  0  0  0  0
  -29.6706  -13.5139   17.7866 H   0  0  0  0  0  0
  -27.8102  -11.3287   18.7805 H   0  0  0  0  0  0
  -27.3688  -12.6875   17.7842 H   0  0  0  0  0  0
  -27.7260  -14.2588   19.6170 H   0  0  0  0  0  0
  -28.6707  -11.8904   21.2976 H   0  0  0  0  0  0
  -28.4567  -13.4981   21.8994 H   0  0  0  0  0  0
  -25.2767   -9.5679   22.4752 H   0  0  0  0  0  0
  -24.0007   -7.4640   22.7474 H   0  0  0  0  0  0
  -21.0860   -8.8769   19.8942 H   0  0  0  0  0  0
  -22.3714  -10.9671   19.6162 H   0  0  0  0  0  0
  -21.1989   -7.6148   23.9723 H   0  0  0  0  0  0
  -21.1493   -6.0525   25.9083 H   0  0  0  0  0  0
  -22.0592   -2.7617   23.2851 H   0  0  0  0  0  0
  -22.4126  -11.9883   22.4762 H   0  0  0  0  0  0
  -21.1127  -13.1254   22.2575 H   0  0  0  0  0  0
  -24.6656  -15.8430   20.5015 H   0  0  0  0  0  0
  -26.2862  -15.6228   20.0800 H   0  0  0  0  0  0
  -26.7117  -32.5517   23.1150 H   0  0  0  0  0  0
  -25.0102  -33.9769   25.0500 H   0  0  0  0  0  0
  -22.6904  -31.3103   21.4149 H   0  0  0  0  0  0
  -23.3757  -35.9622   23.3278 H   0  0  0  0  0  0
  -24.3596  -36.8941   22.2059 H   0  0  0  0  0  0
  -23.7219  -37.6496   23.6666 H   0  0  0  0  0  0
  -26.0420  -31.6008   20.5981 H   0  0  0  0  0  0
  -26.8180  -30.8844   21.9815 H   0  0  0  0  0  0
  -28.0969  -29.1049   21.1529 H   0  0  0  0  0  0
  -26.0191  -25.9831   18.9944 H   0  0  0  0  0  0
  -23.9715  -27.3035   19.0299 H   0  0  0  0  0  0
  -23.7074  -30.5999   19.4047 H   0  0  0  0  0  0
  -22.7311  -29.2429   19.8753 H   0  0  0  0  0  0
  -25.1288  -36.1963   25.0832 H   0  0  0  0  0  0
  -20.9947  -28.3233   24.1439 H   0  0  0  0  0  0
  -20.5665  -26.2265   23.3597 H   0  0  0  0  0  0
  -21.6627  -26.7450   22.1211 H   0  0  0  0  0  0
  -19.6902  -25.6310   21.1225 H   0  0  0  0  0  0
  -19.6691  -27.3215   20.6751 H   0  0  0  0  0  0
  -17.4186  -26.6690   21.4014 H   0  0  0  0  0  0
  -18.0307  -26.0067   22.9001 H   0  0  0  0  0  0
  -19.7912  -30.7259   24.2300 H   0  0  0  0  0  0
  -17.4997  -31.6277   24.5155 H   0  0  0  0  0  0
  -15.5339  -30.3002   23.7653 H   0  0  0  0  0  0
  -15.8643  -28.0832   22.7080 H   0  0  0  0  0  0
  -24.5936  -30.7029   25.7798 H   0  0  0  0  0  0
  -24.8978  -32.2822   26.4952 H   0  0  0  0  0  0
  -25.8141  -30.8804   27.0196 H   0  0  0  0  0  0
  -26.2855  -29.6765   24.1184 H   0  0  0  0  0  0
  -27.4150  -29.7283   25.4534 H   0  0  0  0  0  0
  -27.8665  -30.4348   23.9187 H   0  0  0  0  0  0
  -27.2702  -33.3579   26.2080 H   0  0  0  0  0  0
  -28.3871  -32.6854   25.0302 H   0  0  0  0  0  0
  -28.0737  -31.8385   26.5370 H   0  0  0  0  0  0
  -28.2577  -38.0120   24.7553 H   0  0  0  0  0  0
  -28.1107  -36.2659   24.6230 H   0  0  0  0  0  0
  -27.2304  -37.1383   25.8859 H   0  0  0  0  0  0
  -20.9259  -29.8745   21.6944 H   0  0  0  0  0  0
  -26.0173  -38.2854   24.1464 H   0  0  0  0  0  0
  -30.0062  -19.3275   19.0637 H   0  0  0  0  0  0
  -30.1019  -16.9914   23.4544 H   0  0  0  0  0  0
  -30.1850  -24.3911   19.2470 H   0  0  0  0  0  0
  -30.3483  -25.3197   20.7159 H   0  0  0  0  0  0
  -27.5749  -24.9059   20.6317 H   0  0  0  0  0  0
  -28.0019  -25.0416   18.9312 H   0  0  0  0  0  0
  -29.8476  -21.3699   22.2679 H   0  0  0  0  0  0
  -29.3555  -14.9422   21.9784 H   0  0  0  0  0  0
  1 25  1  0  0  0
  1 30  2  0  0  0
  1 82  1  0  0  0
  2  3  1  0  0  0
  2 25  1  0  0  0
  2 87  1  0  0  0
  2 88  1  0  0  0
  3  4  1  0  0  0
  3 89  1  0  0  0
  3 90  1  0  0  0
  4  5  1  0  0  0
  4 91  1  0  0  0
  4 92  1  0  0  0
  5  6  1  0  0  0
  5 26  1  0  0  0
  5 93  1  0  0  0
  6 25  1  0  0  0
  6 94  1  0  0  0
  6 95  1  0  0  0
  7  8  2  0  0  0
  7 26  1  0  0  0
  7 29  1  0  0  0
  8  9  1  0  0  0
  8 22  1  0  0  0
  9 10  1  0  0  0
  9 27  2  0  0  0
 10 11  2  0  0  0
 10 15  1  0  0  0
 11 12  1  0  0  0
 11 96  1  0  0  0
 12 13  2  0  0  0
 12 97  1  0  0  0
 13 14  1  0  0  0
 13 31  1  0  0  0
 14 15  2  0  0  0
 14 98  1  0  0  0
 15 99  1  0  0  0
 16 17  2  0  0  0
 16 21  1  0  0  0
 16 31  1  0  0  0
 17 18  1  0  0  0
 17100  1  0  0  0
 18 19  2  0  0  0
 18101  1  0  0  0
 19 20  1  0  0  0
 19 24  1  0  0  0
 20 21  2  0  0  0
 20102  1  0  0  0
 21 23  1  0  0  0
 22 28  1  0  0  0
 22 32  2  0  0  0
 26 27  1  0  0  0
 28103  1  0  0  0
 28104  1  0  0  0
 29105  1  0  0  0
 29106  1  0  0  0
 33 34  1  0  0  0
 33 66  1  0  0  0
 33 70  2  0  0  0
 34 36  1  0  0  0
 34 59  1  0  0  0
 34107  1  0  0  0
 35 44  2  0  0  0
 35 45  1  0  0  0
 35 68  1  0  0  0
 36 56  1  0  0  0
 36108  1  0  0  0
 37 39  1  0  0  0
 37 47  1  0  0  0
 37 66  1  0  0  0
 37109  1  0  0  0
 38 43  2  0  0  0
 38 46  1  0  0  0
 38 47  1  0  0  0
 39 64  1  0  0  0
 39 67  2  0  0  0
 40 52  1  0  0  0
 40 53  2  0  0  0
 40 58  1  0  0  0
 41110  1  0  0  0
 41111  1  0  0  0
 41112  1  0  0  0
 41 48  1  0  0  0
 42 43  1  0  0  0
 42 66  1  0  0  0
 42113  1  0  0  0
 42114  1  0  0  0
 43 44  1  0  0  0
 44115  1  0  0  0
 45 46  2  0  0  0
 45116  1  0  0  0
 46117  1  0  0  0
 47118  1  0  0  0
 47119  1  0  0  0
 48 56  1  0  0  0
 48 65  1  0  0  0
 48120  1  0  0  0
 49 50  1  0  0  0
 49 53  1  0  0  0
 49 64  1  0  0  0
 49121  1  0  0  0
 50 51  1  0  0  0
 50122  1  0  0  0
 50123  1  0  0  0
 51 52  1  0  0  0
 51124  1  0  0  0
 51125  1  0  0  0
 52126  1  0  0  0
 52127  1  0  0  0
 53 54  1  0  0  0
 54 55  2  0  0  0
 54128  1  0  0  0
 55 57  1  0  0  0
 55129  1  0  0  0
 56 69  2  0  0  0
 57 58  2  0  0  0
 57130  1  0  0  0
 58131  1  0  0  0
 59 60  1  0  0  0
 59 61  1  0  0  0
 59 62  1  0  0  0
 60132  1  0  0  0
 60133  1  0  0  0
 60134  1  0  0  0
 61135  1  0  0  0
 61136  1  0  0  0
 61137  1  0  0  0
 62138  1  0  0  0
 62139  1  0  0  0
 62140  1  0  0  0
 63 65  1  0  0  0
 63141  1  0  0  0
 63142  1  0  0  0
 63143  1  0  0  0
 64144  1  0  0  0
 65145  1  0  0  0
 68 80  1  0  0  0
 71 73  2  0  0  0
 71 76  1  0  0  0
 71146  1  0  0  0
 72 74  1  0  0  0
 72 75  2  0  0  0
 72147  1  0  0  0
 73 75  1  0  0  0
 73 81  1  0  0  0
 74 76  2  0  0  0
 74 82  1  0  0  0
 75 85  1  0  0  0
 76 86  1  0  0  0
 77 78  1  0  0  0
 77 79  1  0  0  0
 77 83  2  0  0  0
 78 81  1  0  0  0
 78 84  2  0  0  0
 79 80  1  0  0  0
 79148  1  0  0  0
 79149  1  0  0  0
 80150  1  0  0  0
 80151  1  0  0  0
 81152  1  0  0  0
 82153  1  0  0  0
M  ISO  4   1 100  68 101  80 101  82 100
M  END
> <chiral flag>
0

> <version>
0

> <s_m_source_file>
/data/baiqing/PycharmProjects/Reinvent-master-3.2/result/LINK_invent/BTK/process_docking_weight1_custom_product_contain_oxygen_bond_distance_aromatic_linkinvent_7_9_3/rearranged_h_0177.sdf

> <i_m_source_file_index>
71

> <r_mmod_Potential_Energy-OPLS-2005>
-124.923904418945

> <r_mmod_Stretch_Energy-OPLS-2005>
36.9503364562988

> <r_mmod_Bend_Energy-OPLS-2005>
107.900871276855

> <r_mmod_Torsional_Energy-OPLS-2005>
240.543563842773

> <r_mmod_Improper_Torsional_Energy-OPLS-2005>
3.11668539047241

> <r_mmod_Van_der_Waal_Energy-OPLS-2005>
161.754653930664

> <r_mmod_Electrostatic_Energy-OPLS-2005>
-453.028259277344

> <r_mmod_Solvation_Energy-OPLS-2005>
-231.46484375

> <b_mmod_Minimization_Converged-OPLS-2005>
0

> <r_mmod_RMS_Derivative-OPLS-2005>
1.59407246112823

$$$$
71
                    3D
 Structure written by MMmdl.
157165  0  0  1  0            999 V2000
  -30.6449  -14.5231   20.5676 C   0  0  0  0  0  0
  -30.4467  -12.3349   19.4201 C   0  0  0  0  0  0
  -29.5051  -12.5133   18.2074 C   0  0  0  0  0  0
  -28.0253  -12.3607   18.6186 C   0  0  0  0  0  0
  -27.6644  -13.1977   19.8739 C   0  0  2  0  0  0
  -28.7082  -12.9621   20.9890 C   0  0  0  0  0  0
  -25.2615  -13.8137   20.5694 C   0  0  0  0  0  0
  -24.1844  -13.0438   20.9162 C   0  0  0  0  0  0
  -24.6377  -11.6894   20.8709 C   0  0  0  0  0  0
  -23.9042  -10.4289   21.0400 C   0  0  0  0  0  0
  -24.3597   -9.4212   21.9191 C   0  0  0  0  0  0
  -23.6274   -8.2248   22.0765 C   0  0  0  0  0  0
  -22.4260   -8.0279   21.3556 C   0  0  0  0  0  0
  -21.9885   -9.0249   20.4663 C   0  0  0  0  0  0
  -22.7208  -10.2133   20.3060 C   0  0  0  0  0  0
  -21.6849   -6.0734   22.5282 C   0  0  0  0  0  0
  -21.4013   -6.5637   23.8211 C   0  0  0  0  0  0
  -21.3664   -5.6795   24.9172 C   0  0  0  0  0  0
  -21.6043   -4.3052   24.7229 C   0  0  0  0  0  0
  -21.8823   -3.8148   23.4347 C   0  0  0  0  0  0
  -21.9191   -4.6963   22.3403 C   0  0  0  0  0  0
  -22.7866  -13.5248   21.1845 C   0  0  0  0  0  0
  -22.1657   -4.2148   21.0980 F   0  0  0  0  0  0
  -21.5627   -3.4534   25.7740 F   0  0  0  0  0  0
  -30.0390  -13.3044   20.4485 N   0  0  0  0  0  0
  -26.3034  -12.9282   20.3344 N   0  0  0  0  0  0
  -25.9292  -11.6451   20.5714 N   0  0  0  0  0  0
  -22.0498  -12.8245   22.0404 N   0  0  0  0  0  0
  -25.4349  -15.1862   20.4171 N   0  0  0  0  0  0
  -31.7733  -14.7601   20.1241 O   0  0  0  0  0  0
  -21.6632   -6.8877   21.4248 O   0  0  0  0  0  0
  -22.3546  -14.5558   20.6704 O   0  0  0  0  0  0
  -24.6196  -31.8664   23.2120 C   0  0  0  0  0  0
  -25.9082  -32.4814   23.8405 C   0  0  1  0  0  0
  -27.2268  -27.3983   20.0803 C   0  0  0  0  0  0
  -25.5937  -33.8614   24.2345 N   0  0  0  0  0  0
  -23.4095  -30.4943   21.5532 C   0  0  2  0  0  0
  -24.8528  -28.9658   20.1140 C   0  0  0  0  0  0
  -22.7442  -29.4660   22.4981 C   0  0  0  0  0  0
  -18.0258  -28.1391   22.8503 C   0  0  0  0  0  0
  -24.1496  -36.7316   23.2638 C   0  0  0  0  0  0
  -25.9449  -30.8224   21.3691 C   0  0  0  0  0  0
  -26.0215  -29.4558   20.7098 C   0  0  0  0  0  0
  -27.2131  -28.6826   20.6872 C   0  0  0  0  0  0
  -26.0273  -26.9446   19.4757 C   0  0  0  0  0  0
  -24.8525  -27.7101   19.4949 C   0  0  0  0  0  0
  -23.6192  -29.8363   20.1666 C   0  0  0  0  0  0
  -25.4114  -36.3118   24.0346 C   0  0  1  0  0  0
  -20.5861  -28.3690   23.1316 C   0  0  2  0  0  0
  -20.6754  -26.9423   22.5412 C   0  0  0  0  0  0
  -19.5711  -26.6372   21.5238 C   0  0  0  0  0  0
  -18.1890  -26.7927   22.1663 C   0  0  0  0  0  0
  -19.1516  -28.8858   23.2895 C   0  0  0  0  0  0
  -18.9459  -30.1464   23.8903 C   0  0  0  0  0  0
  -17.6460  -30.6604   24.0572 C   0  0  0  0  0  0
  -25.9046  -34.9476   23.5143 C   0  0  0  0  0  0
  -16.5349  -29.9098   23.6358 C   0  0  0  0  0  0
  -16.7250  -28.6514   23.0383 C   0  0  0  0  0  0
  -26.4502  -31.6582   25.0735 C   0  0  0  0  0  0
  -25.3751  -31.3669   26.1476 C   0  0  0  0  0  0
  -27.0331  -30.3014   24.6123 C   0  0  0  0  0  0
  -27.6067  -32.4290   25.7516 C   0  0  0  0  0  0
  -27.5583  -37.1821   24.8476 C   0  0  0  0  0  0
  -21.4156  -29.3096   22.3768 N   0  0  0  0  0  0
  -26.4301  -37.3804   23.9420 N   0  0  0  0  0  0
  -24.6771  -31.0765   22.1021 N   0  0  0  0  0  0
  -23.4206  -28.8145   23.2986 O   0  0  0  0  0  0
  -28.3688  -26.5993   20.0930 O   0  0  0  0  0  0
  -26.5595  -34.8930   22.4699 O   0  0  0  0  0  0
  -23.5376  -32.1418   23.7502 O   0  0  0  0  0  0
  -28.7793  -18.8978   21.3038 C   0  0  0  0  0  0
  -30.0651  -19.3753   21.1762 C   0  0  0  0  0  0
  -29.8342  -16.8856   21.0404 C   0  0  0  0  0  0
  -29.3200  -24.2273   20.1418 C   0  0  0  0  0  0
  -27.8073  -22.5482   21.4017 C   0  0  0  0  0  0
  -29.8582  -23.5705   22.4783 C   0  0  0  0  0  0
  -30.5531  -20.7945   21.4561 C   0  0  0  0  0  0
  -28.1000  -25.1755   19.9824 C   0  0  0  0  0  0
  -29.2569  -23.0324   21.1528 C   0  0  0  0  0  0
  -28.6646  -17.5019   21.2306 N   0  0  0  0  0  0
  -29.8309  -15.4608   21.0929 N   0  0  0  0  0  0
  -30.0728  -21.9046   20.5671 N   0  3  0  0  0  0
  -30.3396  -24.4017   19.4662 O   0  0  0  0  0  0
  -31.1777  -18.0296   20.8675 S   0  0  0  0  0  0
  -31.4874  -12.4691   19.1201 H   0  0  0  0  0  0
  -30.3818  -11.3186   19.8117 H   0  0  0  0  0  0
  -29.7494  -11.7843   17.4343 H   0  0  0  0  0  0
  -29.6606  -13.4961   17.7597 H   0  0  0  0  0  0
  -27.8469  -11.3026   18.8129 H   0  0  0  0  0  0
  -27.3711  -12.6298   17.7888 H   0  0  0  0  0  0
  -27.7072  -14.2461   19.5781 H   0  0  0  0  0  0
  -28.6974  -11.9157   21.2953 H   0  0  0  0  0  0
  -28.4541  -13.5222   21.8902 H   0  0  0  0  0  0
  -25.2751   -9.5665   22.4750 H   0  0  0  0  0  0
  -23.9987   -7.4632   22.7462 H   0  0  0  0  0  0
  -21.0830   -8.8760   19.8947 H   0  0  0  0  0  0
  -22.3683  -10.9663   19.6150 H   0  0  0  0  0  0
  -21.2000   -7.6142   23.9710 H   0  0  0  0  0  0
  -21.1482   -6.0525   25.9079 H   0  0  0  0  0  0
  -22.0595   -2.7605   23.2847 H   0  0  0  0  0  0
  -22.4093  -11.9887   22.4770 H   0  0  0  0  0  0
  -21.1118  -13.1265   22.2623 H   0  0  0  0  0  0
  -24.6726  -15.8417   20.5521 H   0  0  0  0  0  0
  -26.3011  -15.6399   20.1557 H   0  0  0  0  0  0
  -26.7145  -32.5497   23.1152 H   0  0  0  0  0  0
  -25.0127  -33.9806   25.0520 H   0  0  0  0  0  0
  -22.7003  -31.3133   21.4166 H   0  0  0  0  0  0
  -23.3766  -35.9640   23.3318 H   0  0  0  0  0  0
  -24.3589  -36.8914   22.2048 H   0  0  0  0  0  0
  -23.7229  -37.6528   23.6625 H   0  0  0  0  0  0
  -26.0660  -31.5897   20.6031 H   0  0  0  0  0  0
  -26.8315  -30.8700   21.9895 H   0  0  0  0  0  0
  -28.1136  -29.0554   21.1546 H   0  0  0  0  0  0
  -25.9545  -25.9928   18.9734 H   0  0  0  0  0  0
  -23.9570  -27.3277   19.0268 H   0  0  0  0  0  0
  -23.7366  -30.6172   19.4142 H   0  0  0  0  0  0
  -22.7408  -29.2640   19.8617 H   0  0  0  0  0  0
  -25.1274  -36.1987   25.0831 H   0  0  0  0  0  0
  -20.9944  -28.3258   24.1445 H   0  0  0  0  0  0
  -20.5674  -26.2289   23.3597 H   0  0  0  0  0  0
  -21.6615  -26.7486   22.1185 H   0  0  0  0  0  0
  -19.6864  -25.6276   21.1267 H   0  0  0  0  0  0
  -19.6651  -27.3189   20.6777 H   0  0  0  0  0  0
  -17.4160  -26.6636   21.4070 H   0  0  0  0  0  0
  -18.0284  -26.0101   22.9103 H   0  0  0  0  0  0
  -19.7942  -30.7285   24.2246 H   0  0  0  0  0  0
  -17.5000  -31.6304   24.5136 H   0  0  0  0  0  0
  -15.5349  -30.3017   23.7668 H   0  0  0  0  0  0
  -15.8637  -28.0856   22.7088 H   0  0  0  0  0  0
  -24.5955  -30.6978   25.7814 H   0  0  0  0  0  0
  -24.8903  -32.2800   26.4923 H   0  0  0  0  0  0
  -25.8117  -30.8851   27.0228 H   0  0  0  0  0  0
  -26.2865  -29.6774   24.1201 H   0  0  0  0  0  0
  -27.4115  -29.7265   25.4582 H   0  0  0  0  0  0
  -27.8699  -30.4324   23.9254 H   0  0  0  0  0  0
  -27.2704  -33.3580   26.2138 H   0  0  0  0  0  0
  -28.3880  -32.6862   25.0350 H   0  0  0  0  0  0
  -28.0733  -31.8376   26.5416 H   0  0  0  0  0  0
  -28.2614  -38.0104   24.7513 H   0  0  0  0  0  0
  -28.1062  -36.2640   24.6302 H   0  0  0  0  0  0
  -27.2311  -37.1486   25.8883 H   0  0  0  0  0  0
  -20.9326  -29.8941   21.7093 H   0  0  0  0  0  0
  -26.0193  -38.2885   24.1410 H   0  0  0  0  0  0
  -27.8881  -19.4669   21.5257 H   0  0  0  0  0  0
  -27.2708  -22.3501   20.4725 H   0  0  0  0  0  0
  -27.2304  -23.2761   21.9722 H   0  0  0  0  0  0
  -27.7887  -21.6371   21.9968 H   0  0  0  0  0  0
  -29.4522  -24.5511   22.7345 H   0  0  0  0  0  0
  -30.9405  -23.6869   22.4142 H   0  0  0  0  0  0
  -29.6365  -22.9281   23.3294 H   0  0  0  0  0  0
  -30.3210  -21.0135   22.4967 H   0  0  0  0  0  0
  -31.6427  -20.8074   21.4193 H   0  0  0  0  0  0
  -27.3156  -24.9192   20.6906 H   0  0  0  0  0  0
  -27.7198  -24.9650   18.9832 H   0  0  0  0  0  0
  -28.9600  -15.0705   21.4091 H   0  0  0  0  0  0
  -29.5991  -21.5144   19.7695 H   0  0  0  0  0  0
  -30.8926  -22.3560   20.1853 H   0  0  0  0  0  0
  1 25  1  0  0  0
  1 30  2  0  0  0
  1 81  1  0  0  0
  2  3  1  0  0  0
  2 25  1  0  0  0
  2 85  1  0  0  0
  2 86  1  0  0  0
  3  4  1  0  0  0
  3 87  1  0  0  0
  3 88  1  0  0  0
  4  5  1  0  0  0
  4 89  1  0  0  0
  4 90  1  0  0  0
  5  6  1  0  0  0
  5 26  1  0  0  0
  5 91  1  0  0  0
  6 25  1  0  0  0
  6 92  1  0  0  0
  6 93  1  0  0  0
  7  8  2  0  0  0
  7 26  1  0  0  0
  7 29  1  0  0  0
  8  9  1  0  0  0
  8 22  1  0  0  0
  9 10  1  0  0  0
  9 27  2  0  0  0
 10 11  2  0  0  0
 10 15  1  0  0  0
 11 12  1  0  0  0
 11 94  1  0  0  0
 12 13  2  0  0  0
 12 95  1  0  0  0
 13 14  1  0  0  0
 13 31  1  0  0  0
 14 15  2  0  0  0
 14 96  1  0  0  0
 15 97  1  0  0  0
 16 17  2  0  0  0
 16 21  1  0  0  0
 16 31  1  0  0  0
 17 18  1  0  0  0
 17 98  1  0  0  0
 18 19  2  0  0  0
 18 99  1  0  0  0
 19 20  1  0  0  0
 19 24  1  0  0  0
 20 21  2  0  0  0
 20100  1  0  0  0
 21 23  1  0  0  0
 22 28  1  0  0  0
 22 32  2  0  0  0
 26 27  1  0  0  0
 28101  1  0  0  0
 28102  1  0  0  0
 29103  1  0  0  0
 29104  1  0  0  0
 33 34  1  0  0  0
 33 66  1  0  0  0
 33 70  2  0  0  0
 34 36  1  0  0  0
 34 59  1  0  0  0
 34105  1  0  0  0
 35 44  2  0  0  0
 35 45  1  0  0  0
 35 68  1  0  0  0
 36 56  1  0  0  0
 36106  1  0  0  0
 37 39  1  0  0  0
 37 47  1  0  0  0
 37 66  1  0  0  0
 37107  1  0  0  0
 38 43  2  0  0  0
 38 46  1  0  0  0
 38 47  1  0  0  0
 39 64  1  0  0  0
 39 67  2  0  0  0
 40 52  1  0  0  0
 40 53  2  0  0  0
 40 58  1  0  0  0
 41108  1  0  0  0
 41109  1  0  0  0
 41110  1  0  0  0
 41 48  1  0  0  0
 42 43  1  0  0  0
 42 66  1  0  0  0
 42111  1  0  0  0
 42112  1  0  0  0
 43 44  1  0  0  0
 44113  1  0  0  0
 45 46  2  0  0  0
 45114  1  0  0  0
 46115  1  0  0  0
 47116  1  0  0  0
 47117  1  0  0  0
 48 56  1  0  0  0
 48 65  1  0  0  0
 48118  1  0  0  0
 49 50  1  0  0  0
 49 53  1  0  0  0
 49 64  1  0  0  0
 49119  1  0  0  0
 50 51  1  0  0  0
 50120  1  0  0  0
 50121  1  0  0  0
 51 52  1  0  0  0
 51122  1  0  0  0
 51123  1  0  0  0
 52124  1  0  0  0
 52125  1  0  0  0
 53 54  1  0  0  0
 54 55  2  0  0  0
 54126  1  0  0  0
 55 57  1  0  0  0
 55127  1  0  0  0
 56 69  2  0  0  0
 57 58  2  0  0  0
 57128  1  0  0  0
 58129  1  0  0  0
 59 60  1  0  0  0
 59 61  1  0  0  0
 59 62  1  0  0  0
 60130  1  0  0  0
 60131  1  0  0  0
 60132  1  0  0  0
 61133  1  0  0  0
 61134  1  0  0  0
 61135  1  0  0  0
 62136  1  0  0  0
 62137  1  0  0  0
 62138  1  0  0  0
 63 65  1  0  0  0
 63139  1  0  0  0
 63140  1  0  0  0
 63141  1  0  0  0
 64142  1  0  0  0
 65143  1  0  0  0
 68 78  1  0  0  0
 71 72  2  0  0  0
 71 80  1  0  0  0
 71144  1  0  0  0
 72 77  1  0  0  0
 72 84  1  0  0  0
 73 80  2  0  0  0
 73 81  1  0  0  0
 73 84  1  0  0  0
 74 78  1  0  0  0
 74 79  1  0  0  0
 74 83  2  0  0  0
 75145  1  0  0  0
 75146  1  0  0  0
 75147  1  0  0  0
 75 79  1  0  0  0
 76 79  1  0  0  0
 76148  1  0  0  0
 76149  1  0  0  0
 76150  1  0  0  0
 77 82  1  0  0  0
 77151  1  0  0  0
 77152  1  0  0  0
 78153  1  0  0  0
 78154  1  0  0  0
 79 82  1  0  0  0
 81155  1  0  0  0
 82156  1  0  0  0
 82157  1  0  0  0
M  CHG  1  82   1
M  ISO  4   1 100  68 101  78 101  81 100
M  END
> <chiral flag>
0

> <version>
0

> <s_m_source_file>
/data/baiqing/PycharmProjects/Reinvent-master-3.2/result/LINK_invent/BTK/process_docking_weight1_custom_product_contain_oxygen_bond_distance_aromatic_linkinvent_7_9_3/rearranged_h_0177.sdf

> <i_m_source_file_index>
72

> <r_mmod_Potential_Energy-OPLS-2005>
-272.199981689453

> <r_mmod_Stretch_Energy-OPLS-2005>
48.7724456787109

> <r_mmod_Bend_Energy-OPLS-2005>
128.617065429688

> <r_mmod_Torsional_Energy-OPLS-2005>
244.258453369141

> <r_mmod_Improper_Torsional_Energy-OPLS-2005>
4.64084529876709

> <r_mmod_Van_der_Waal_Energy-OPLS-2005>
138.647598266602

> <r_mmod_Electrostatic_Energy-OPLS-2005>
-378.688293457031

> <r_mmod_Solvation_Energy-OPLS-2005>
-479.097503662109

> <b_mmod_Minimization_Converged-OPLS-2005>
0

> <r_mmod_RMS_Derivative-OPLS-2005>
2.31332039833069

$$$$
72
                    3D
 Structure written by MMmdl.
148156  0  0  1  0            999 V2000
  -30.6100  -14.7403   20.4546 C   0  0  0  0  0  0
  -30.4353  -12.4503   19.4696 C   0  0  0  0  0  0
  -29.5106  -12.5026   18.2334 C   0  0  0  0  0  0
  -28.0371  -12.3258   18.6494 C   0  0  0  0  0  0
  -27.6422  -13.2283   19.8487 C   0  0  2  0  0  0
  -28.6885  -13.1617   20.9832 C   0  0  0  0  0  0
  -25.2521  -13.8187   20.5694 C   0  0  0  0  0  0
  -24.1810  -13.0437   20.9212 C   0  0  0  0  0  0
  -24.6399  -11.6914   20.8755 C   0  0  0  0  0  0
  -23.9075  -10.4293   21.0414 C   0  0  0  0  0  0
  -24.3625   -9.4208   21.9189 C   0  0  0  0  0  0
  -23.6301   -8.2245   22.0757 C   0  0  0  0  0  0
  -22.4283   -8.0283   21.3546 C   0  0  0  0  0  0
  -21.9918   -9.0260   20.4650 C   0  0  0  0  0  0
  -22.7248  -10.2139   20.3061 C   0  0  0  0  0  0
  -21.6854   -6.0742   22.5282 C   0  0  0  0  0  0
  -21.4014   -6.5645   23.8217 C   0  0  0  0  0  0
  -21.3659   -5.6794   24.9176 C   0  0  0  0  0  0
  -21.6045   -4.3059   24.7222 C   0  0  0  0  0  0
  -21.8818   -3.8152   23.4343 C   0  0  0  0  0  0
  -21.9192   -4.6970   22.3402 C   0  0  0  0  0  0
  -22.7832  -13.5225   21.1866 C   0  0  0  0  0  0
  -22.1662   -4.2159   21.0978 F   0  0  0  0  0  0
  -21.5626   -3.4540   25.7735 F   0  0  0  0  0  0
  -29.9896  -13.5118   20.3996 N   0  0  0  0  0  0
  -26.2943  -12.9390   20.3275 N   0  0  0  0  0  0
  -25.9329  -11.6537   20.5754 N   0  0  0  0  0  0
  -22.0474  -12.8218   22.0421 N   0  0  0  0  0  0
  -25.4192  -15.1915   20.4108 N   0  0  0  0  0  0
  -31.8049  -14.8302   20.1588 O   0  0  0  0  0  0
  -21.6641   -6.8886   21.4246 O   0  0  0  0  0  0
  -22.3520  -14.5531   20.6709 O   0  0  0  0  0  0
  -24.6324  -31.8558   23.1991 C   0  0  0  0  0  0
  -25.9149  -32.4757   23.8337 C   0  0  1  0  0  0
  -27.2188  -27.2622   20.1250 C   0  0  0  0  0  0
  -25.5945  -33.8559   24.2260 N   0  0  0  0  0  0
  -23.4285  -30.4801   21.5426 C   0  0  2  0  0  0
  -24.8744  -28.9265   20.1140 C   0  0  0  0  0  0
  -22.7506  -29.4611   22.4906 C   0  0  0  0  0  0
  -18.0297  -28.1387   22.8481 C   0  0  0  0  0  0
  -24.1494  -36.7285   23.2639 C   0  0  0  0  0  0
  -25.9756  -30.7686   21.3793 C   0  0  0  0  0  0
  -26.0479  -29.3913   20.7209 C   0  0  0  0  0  0
  -27.2239  -28.5732   20.7125 C   0  0  0  0  0  0
  -26.0198  -26.8671   19.4895 C   0  0  0  0  0  0
  -24.8653  -27.6720   19.4885 C   0  0  0  0  0  0
  -23.6474  -29.8159   20.1589 C   0  0  0  0  0  0
  -25.4120  -36.3069   24.0323 C   0  0  1  0  0  0
  -20.5900  -28.3704   23.1263 C   0  0  2  0  0  0
  -20.6786  -26.9421   22.5404 C   0  0  0  0  0  0
  -19.5760  -26.6383   21.5212 C   0  0  0  0  0  0
  -18.1940  -26.7928   22.1624 C   0  0  0  0  0  0
  -19.1549  -28.8861   23.2867 C   0  0  0  0  0  0
  -18.9468  -30.1461   23.8886 C   0  0  0  0  0  0
  -17.6467  -30.6587   24.0563 C   0  0  0  0  0  0
  -25.9059  -34.9440   23.5092 C   0  0  0  0  0  0
  -16.5359  -29.9084   23.6330 C   0  0  0  0  0  0
  -16.7283  -28.6503   23.0349 C   0  0  0  0  0  0
  -26.4510  -31.6580   25.0727 C   0  0  0  0  0  0
  -25.3730  -31.3733   26.1445 C   0  0  0  0  0  0
  -27.0360  -30.2996   24.6217 C   0  0  0  0  0  0
  -27.6058  -32.4324   25.7505 C   0  0  0  0  0  0
  -27.5581  -37.1801   24.8464 C   0  0  0  0  0  0
  -21.4213  -29.3054   22.3652 N   0  0  0  0  0  0
  -26.4294  -37.3769   23.9405 N   0  0  0  0  0  0
  -24.6979  -31.0524   22.0967 N   0  0  0  0  0  0
  -23.4204  -28.8148   23.3005 O   0  0  0  0  0  0
  -28.3197  -26.3731   20.1561 O   0  0  0  0  0  0
  -26.5626  -34.8914   22.4658 O   0  0  0  0  0  0
  -23.5472  -32.1380   23.7285 O   0  0  0  0  0  0
  -29.7295  -19.6813   20.3875 C   0  0  0  0  0  0
  -31.1006  -19.5984   20.4965 C   0  0  0  0  0  0
  -30.1329  -17.3077   20.5495 C   0  0  0  0  0  0
  -28.9733  -20.9854   20.0907 C   0  0  0  0  0  0
  -28.0686  -24.8902   20.3053 C   0  0  0  0  0  0
  -29.1558  -22.3208   20.9648 C   0  0  0  0  0  0
  -29.2810  -23.8179   20.3024 C   0  0  0  0  0  0
  -29.2071  -18.3204   20.4103 N   0  0  0  0  0  0
  -29.8090  -15.8639   20.6077 N   0  0  0  0  0  0
  -28.1005  -21.0243   19.2153 O   0  0  0  0  0  0
  -31.9361  -20.6631   20.4133 F   0  0  0  0  0  0
  -28.1373  -22.3773   21.8246 F   0  0  0  0  0  0
  -30.2524  -22.1564   21.7067 F   0  0  0  0  0  0
  -30.2348  -24.4546   20.9873 F   0  0  0  0  0  0
  -29.7086  -23.6929   19.0451 F   0  0  0  0  0  0
  -31.7624  -17.9791   20.6626 S   0  0  0  0  0  0
  -31.4759  -12.5760   19.1656 H   0  0  0  0  0  0
  -30.3808  -11.4735   19.9531 H   0  0  0  0  0  0
  -29.7932  -11.7300   17.5170 H   0  0  0  0  0  0
  -29.6349  -13.4569   17.7189 H   0  0  0  0  0  0
  -27.8961  -11.2777   18.9160 H   0  0  0  0  0  0
  -27.3778  -12.5133   17.8014 H   0  0  0  0  0  0
  -27.6352  -14.2484   19.4646 H   0  0  0  0  0  0
  -28.7235  -12.1645   21.4246 H   0  0  0  0  0  0
  -28.4263  -13.8442   21.7932 H   0  0  0  0  0  0
  -25.2771   -9.5688   22.4763 H   0  0  0  0  0  0
  -24.0013   -7.4637   22.7477 H   0  0  0  0  0  0
  -21.0847   -8.8782   19.8959 H   0  0  0  0  0  0
  -22.3709  -10.9679   19.6170 H   0  0  0  0  0  0
  -21.2010   -7.6154   23.9724 H   0  0  0  0  0  0
  -21.1482   -6.0523   25.9080 H   0  0  0  0  0  0
  -22.0597   -2.7614   23.2837 H   0  0  0  0  0  0
  -22.4088  -11.9879   22.4815 H   0  0  0  0  0  0
  -21.1095  -13.1256   22.2627 H   0  0  0  0  0  0
  -24.6454  -15.8377   20.5221 H   0  0  0  0  0  0
  -26.2546  -15.6378   20.0550 H   0  0  0  0  0  0
  -26.7213  -32.5403   23.1075 H   0  0  0  0  0  0
  -25.0109  -33.9696   25.0417 H   0  0  0  0  0  0
  -22.7253  -31.3027   21.3972 H   0  0  0  0  0  0
  -23.3754  -35.9619   23.3300 H   0  0  0  0  0  0
  -24.3586  -36.8910   22.2053 H   0  0  0  0  0  0
  -23.7247  -37.6487   23.6665 H   0  0  0  0  0  0
  -26.1164  -31.5295   20.6103 H   0  0  0  0  0  0
  -26.8525  -30.8160   22.0134 H   0  0  0  0  0  0
  -28.1233  -28.9267   21.1969 H   0  0  0  0  0  0
  -25.9417  -25.9202   18.9797 H   0  0  0  0  0  0
  -23.9678  -27.3128   19.0036 H   0  0  0  0  0  0
  -23.7782  -30.5935   19.4055 H   0  0  0  0  0  0
  -22.7645  -29.2538   19.8492 H   0  0  0  0  0  0
  -25.1302  -36.1918   25.0815 H   0  0  0  0  0  0
  -20.9997  -28.3287   24.1382 H   0  0  0  0  0  0
  -20.5698  -26.2314   23.3612 H   0  0  0  0  0  0
  -21.6653  -26.7451   22.1193 H   0  0  0  0  0  0
  -19.6927  -25.6292   21.1246 H   0  0  0  0  0  0
  -19.6696  -27.3187   20.6737 H   0  0  0  0  0  0
  -17.4213  -26.6676   21.4023 H   0  0  0  0  0  0
  -18.0341  -26.0071   22.9021 H   0  0  0  0  0  0
  -19.7944  -30.7280   24.2250 H   0  0  0  0  0  0
  -17.5021  -31.6265   24.5171 H   0  0  0  0  0  0
  -15.5357  -30.2983   23.7657 H   0  0  0  0  0  0
  -15.8685  -28.0821   22.7063 H   0  0  0  0  0  0
  -24.5905  -30.7083   25.7775 H   0  0  0  0  0  0
  -24.8923  -32.2905   26.4858 H   0  0  0  0  0  0
  -25.8045  -30.8919   27.0230 H   0  0  0  0  0  0
  -26.2947  -29.6737   24.1237 H   0  0  0  0  0  0
  -27.4037  -29.7265   25.4738 H   0  0  0  0  0  0
  -27.8827  -30.4269   23.9468 H   0  0  0  0  0  0
  -27.2660  -33.3626   26.2072 H   0  0  0  0  0  0
  -28.3878  -32.6883   25.0342 H   0  0  0  0  0  0
  -28.0719  -31.8458   26.5433 H   0  0  0  0  0  0
  -28.2594  -38.0101   24.7510 H   0  0  0  0  0  0
  -28.1079  -36.2630   24.6291 H   0  0  0  0  0  0
  -27.2297  -37.1451   25.8867 H   0  0  0  0  0  0
  -20.9398  -29.8779   21.6858 H   0  0  0  0  0  0
  -26.0170  -38.2843   24.1403 H   0  0  0  0  0  0
  -27.5466  -24.7873   21.2568 H   0  0  0  0  0  0
  -27.3696  -24.5405   19.5495 H   0  0  0  0  0  0
  -28.8321  -15.6578   20.7318 H   0  0  0  0  0  0
  1 25  1  0  0  0
  1 30  2  0  0  0
  1 79  1  0  0  0
  2  3  1  0  0  0
  2 25  1  0  0  0
  2 87  1  0  0  0
  2 88  1  0  0  0
  3  4  1  0  0  0
  3 89  1  0  0  0
  3 90  1  0  0  0
  4  5  1  0  0  0
  4 91  1  0  0  0
  4 92  1  0  0  0
  5  6  1  0  0  0
  5 26  1  0  0  0
  5 93  1  0  0  0
  6 25  1  0  0  0
  6 94  1  0  0  0
  6 95  1  0  0  0
  7  8  2  0  0  0
  7 26  1  0  0  0
  7 29  1  0  0  0
  8  9  1  0  0  0
  8 22  1  0  0  0
  9 10  1  0  0  0
  9 27  2  0  0  0
 10 11  2  0  0  0
 10 15  1  0  0  0
 11 12  1  0  0  0
 11 96  1  0  0  0
 12 13  2  0  0  0
 12 97  1  0  0  0
 13 14  1  0  0  0
 13 31  1  0  0  0
 14 15  2  0  0  0
 14 98  1  0  0  0
 15 99  1  0  0  0
 16 17  2  0  0  0
 16 21  1  0  0  0
 16 31  1  0  0  0
 17 18  1  0  0  0
 17100  1  0  0  0
 18 19  2  0  0  0
 18101  1  0  0  0
 19 20  1  0  0  0
 19 24  1  0  0  0
 20 21  2  0  0  0
 20102  1  0  0  0
 21 23  1  0  0  0
 22 28  1  0  0  0
 22 32  2  0  0  0
 26 27  1  0  0  0
 28103  1  0  0  0
 28104  1  0  0  0
 29105  1  0  0  0
 29106  1  0  0  0
 33 34  1  0  0  0
 33 66  1  0  0  0
 33 70  2  0  0  0
 34 36  1  0  0  0
 34 59  1  0  0  0
 34107  1  0  0  0
 35 44  2  0  0  0
 35 45  1  0  0  0
 35 68  1  0  0  0
 36 56  1  0  0  0
 36108  1  0  0  0
 37 39  1  0  0  0
 37 47  1  0  0  0
 37 66  1  0  0  0
 37109  1  0  0  0
 38 43  2  0  0  0
 38 46  1  0  0  0
 38 47  1  0  0  0
 39 64  1  0  0  0
 39 67  2  0  0  0
 40 52  1  0  0  0
 40 53  2  0  0  0
 40 58  1  0  0  0
 41110  1  0  0  0
 41111  1  0  0  0
 41112  1  0  0  0
 41 48  1  0  0  0
 42 43  1  0  0  0
 42 66  1  0  0  0
 42113  1  0  0  0
 42114  1  0  0  0
 43 44  1  0  0  0
 44115  1  0  0  0
 45 46  2  0  0  0
 45116  1  0  0  0
 46117  1  0  0  0
 47118  1  0  0  0
 47119  1  0  0  0
 48 56  1  0  0  0
 48 65  1  0  0  0
 48120  1  0  0  0
 49 50  1  0  0  0
 49 53  1  0  0  0
 49 64  1  0  0  0
 49121  1  0  0  0
 50 51  1  0  0  0
 50122  1  0  0  0
 50123  1  0  0  0
 51 52  1  0  0  0
 51124  1  0  0  0
 51125  1  0  0  0
 52126  1  0  0  0
 52127  1  0  0  0
 53 54  1  0  0  0
 54 55  2  0  0  0
 54128  1  0  0  0
 55 57  1  0  0  0
 55129  1  0  0  0
 56 69  2  0  0  0
 57 58  2  0  0  0
 57130  1  0  0  0
 58131  1  0  0  0
 59 60  1  0  0  0
 59 61  1  0  0  0
 59 62  1  0  0  0
 60132  1  0  0  0
 60133  1  0  0  0
 60134  1  0  0  0
 61135  1  0  0  0
 61136  1  0  0  0
 61137  1  0  0  0
 62138  1  0  0  0
 62139  1  0  0  0
 62140  1  0  0  0
 63 65  1  0  0  0
 63141  1  0  0  0
 63142  1  0  0  0
 63143  1  0  0  0
 64144  1  0  0  0
 65145  1  0  0  0
 68 75  1  0  0  0
 71 72  2  0  0  0
 71 74  1  0  0  0
 71 78  1  0  0  0
 72 81  1  0  0  0
 72 86  1  0  0  0
 73 78  2  0  0  0
 73 79  1  0  0  0
 73 86  1  0  0  0
 74 76  1  0  0  0
 74 80  2  0  0  0
 75 77  1  0  0  0
 75146  1  0  0  0
 75147  1  0  0  0
 76 77  1  0  0  0
 76 82  1  0  0  0
 76 83  1  0  0  0
 77 84  1  0  0  0
 77 85  1  0  0  0
 79148  1  0  0  0
M  ISO  4   1 100  68 101  75 101  79 100
M  END
> <chiral flag>
0

> <version>
0

> <s_m_source_file>
/data/baiqing/PycharmProjects/Reinvent-master-3.2/result/LINK_invent/BTK/process_docking_weight1_custom_product_contain_oxygen_bond_distance_aromatic_linkinvent_7_9_3/rearranged_h_0177.sdf

> <i_m_source_file_index>
73

> <r_mmod_Potential_Energy-OPLS-2005>
208.125244140625

> <r_mmod_Stretch_Energy-OPLS-2005>
127.240272521973

> <r_mmod_Bend_Energy-OPLS-2005>
167.042587280273

> <r_mmod_Torsional_Energy-OPLS-2005>
236.776702880859

> <r_mmod_Improper_Torsional_Energy-OPLS-2005>
7.10965394973755

> <r_mmod_Van_der_Waal_Energy-OPLS-2005>
125.158027648926

> <r_mmod_Electrostatic_Energy-OPLS-2005>
-335.246154785156

> <r_mmod_Solvation_Energy-OPLS-2005>
-203.043380737305

> <b_mmod_Minimization_Converged-OPLS-2005>
0

> <r_mmod_RMS_Derivative-OPLS-2005>
0.630606532096863

$$$$
73
                    3D
 Structure written by MMmdl.
160168  0  0  1  0            999 V2000
  -30.7374  -14.4403   20.5406 C   0  0  0  0  0  0
  -30.4383  -12.2786   19.4328 C   0  0  0  0  0  0
  -29.5196  -12.4692   18.2100 C   0  0  0  0  0  0
  -28.0384  -12.3470   18.6185 C   0  0  0  0  0  0
  -27.6771  -13.1995   19.8683 C   0  0  2  0  0  0
  -28.7166  -13.0008   20.9987 C   0  0  0  0  0  0
  -25.2712  -13.8134   20.5626 C   0  0  0  0  0  0
  -24.1930  -13.0449   20.9139 C   0  0  0  0  0  0
  -24.6444  -11.6908   20.8700 C   0  0  0  0  0  0
  -23.9067  -10.4319   21.0384 C   0  0  0  0  0  0
  -24.3621   -9.4247   21.9160 C   0  0  0  0  0  0
  -23.6305   -8.2260   22.0756 C   0  0  0  0  0  0
  -22.4297   -8.0292   21.3552 C   0  0  0  0  0  0
  -21.9920   -9.0239   20.4638 C   0  0  0  0  0  0
  -22.7229  -10.2126   20.3028 C   0  0  0  0  0  0
  -21.6833   -6.0738   22.5285 C   0  0  0  0  0  0
  -21.3979   -6.5629   23.8229 C   0  0  0  0  0  0
  -21.3662   -5.6774   24.9186 C   0  0  0  0  0  0
  -21.6058   -4.3041   24.7218 C   0  0  0  0  0  0
  -21.8830   -3.8141   23.4330 C   0  0  0  0  0  0
  -21.9191   -4.6961   22.3403 C   0  0  0  0  0  0
  -22.7969  -13.5293   21.1764 C   0  0  0  0  0  0
  -22.1661   -4.2146   21.0976 F   0  0  0  0  0  0
  -21.5655   -3.4537   25.7727 F   0  0  0  0  0  0
  -30.0534  -13.2702   20.4503 N   0  0  0  0  0  0
  -26.3144  -12.9294   20.3297 N   0  0  0  0  0  0
  -25.9388  -11.6468   20.5719 N   0  0  0  0  0  0
  -22.0503  -12.8327   22.0291 N   0  0  0  0  0  0
  -25.4405  -15.1836   20.3964 N   0  0  0  0  0  0
  -31.8726  -14.5932   20.0823 O   0  0  0  0  0  0
  -21.6643   -6.8887   21.4262 O   0  0  0  0  0  0
  -22.3695  -14.5578   20.6570 O   0  0  0  0  0  0
  -24.6094  -31.8742   23.2105 C   0  0  0  0  0  0
  -25.9008  -32.4843   23.8387 C   0  0  1  0  0  0
  -27.2368  -27.5008   20.1015 C   0  0  0  0  0  0
  -25.5875  -33.8635   24.2332 N   0  0  0  0  0  0
  -23.3898  -30.5012   21.5479 C   0  0  2  0  0  0
  -24.8375  -28.9727   20.1080 C   0  0  0  0  0  0
  -22.7358  -29.4745   22.4985 C   0  0  0  0  0  0
  -18.0268  -28.1378   22.8517 C   0  0  0  0  0  0
  -24.1476  -36.7329   23.2627 C   0  0  0  0  0  0
  -25.9091  -30.8690   21.3403 C   0  0  0  0  0  0
  -25.9904  -29.5041   20.6996 C   0  0  0  0  0  0
  -27.1959  -28.7759   20.6895 C   0  0  0  0  0  0
  -26.0740  -26.9756   19.4916 C   0  0  0  0  0  0
  -24.8727  -27.7082   19.4961 C   0  0  0  0  0  0
  -23.5936  -29.8287   20.1610 C   0  0  0  0  0  0
  -25.4086  -36.3114   24.0336 C   0  0  1  0  0  0
  -20.5863  -28.3662   23.1330 C   0  0  2  0  0  0
  -20.6771  -26.9402   22.5423 C   0  0  0  0  0  0
  -19.5749  -26.6403   21.5219 C   0  0  0  0  0  0
  -18.1923  -26.7936   22.1614 C   0  0  0  0  0  0
  -19.1517  -28.8835   23.2933 C   0  0  0  0  0  0
  -18.9443  -30.1446   23.8942 C   0  0  0  0  0  0
  -17.6445  -30.6587   24.0593 C   0  0  0  0  0  0
  -25.9006  -34.9478   23.5117 C   0  0  0  0  0  0
  -16.5344  -29.9108   23.6308 C   0  0  0  0  0  0
  -16.7257  -28.6527   23.0326 C   0  0  0  0  0  0
  -26.4451  -31.6602   25.0682 C   0  0  0  0  0  0
  -25.3746  -31.3705   26.1450 C   0  0  0  0  0  0
  -27.0234  -30.3061   24.5946 C   0  0  0  0  0  0
  -27.6020  -32.4317   25.7459 C   0  0  0  0  0  0
  -27.5583  -37.1786   24.8434 C   0  0  0  0  0  0
  -21.4094  -29.3046   22.3719 N   0  0  0  0  0  0
  -26.4266  -37.3814   23.9432 N   0  0  0  0  0  0
  -24.6556  -31.0929   22.0948 N   0  0  0  0  0  0
  -23.4170  -28.8295   23.2997 O   0  0  0  0  0  0
  -28.4184  -26.8081   20.1509 O   0  0  0  0  0  0
  -26.5584  -34.8971   22.4682 O   0  0  0  0  0  0
  -23.5318  -32.1438   23.7600 O   0  0  0  0  0  0
  -29.9350  -18.9931   20.1053 C   0  0  0  0  0  0
  -30.0774  -18.6174   18.7916 C   0  0  0  0  0  0
  -30.0578  -16.7326   20.3213 C   0  0  0  0  0  0
  -29.7399  -20.3642   20.5542 C   0  0  0  0  0  0
  -31.8640  -21.4223   19.5947 C   0  0  0  0  0  0
  -31.8941  -20.4732   21.9123 C   0  0  0  0  0  0
  -30.0101  -23.5932   20.5144 C   0  0  0  0  0  0
  -29.5819  -24.9318   21.1245 C   0  0  0  0  0  0
  -30.6361  -22.5876   21.5006 C   0  0  0  0  0  0
  -28.2847  -25.4354   20.4718 C   0  0  0  0  0  0
  -31.0169  -21.2088   20.8745 C   0  0  0  0  0  0
  -29.8720  -17.8859   20.9744 N   0  0  0  0  0  0
  -30.0605  -15.4983   21.0098 N   0  0  0  0  0  0
  -28.6145  -20.8356   20.7432 O   0  0  0  0  0  0
  -30.1025  -19.4689   17.7345 F   0  0  0  0  0  0
  -30.2248  -16.9057   18.5647 S   0  0  0  0  0  0
  -31.4851  -12.3685   19.1334 H   0  0  0  0  0  0
  -30.3394  -11.2687   19.8321 H   0  0  0  0  0  0
  -29.7640  -11.7185   17.4563 H   0  0  0  0  0  0
  -29.7170  -13.4375   17.7465 H   0  0  0  0  0  0
  -27.8534  -11.2925   18.8280 H   0  0  0  0  0  0
  -27.3950  -12.6022   17.7740 H   0  0  0  0  0  0
  -27.7229  -14.2429   19.5560 H   0  0  0  0  0  0
  -28.6862  -11.9821   21.3824 H   0  0  0  0  0  0
  -28.4917  -13.6418   21.8512 H   0  0  0  0  0  0
  -25.2765   -9.5708   22.4745 H   0  0  0  0  0  0
  -23.9994   -7.4666   22.7506 H   0  0  0  0  0  0
  -21.0840   -8.8745   19.8963 H   0  0  0  0  0  0
  -22.3676  -10.9653   19.6138 H   0  0  0  0  0  0
  -21.1925   -7.6128   23.9719 H   0  0  0  0  0  0
  -21.1488   -6.0504   25.9094 H   0  0  0  0  0  0
  -22.0598   -2.7602   23.2824 H   0  0  0  0  0  0
  -22.4006  -12.0021   22.4821 H   0  0  0  0  0  0
  -21.1082  -13.1413   22.2266 H   0  0  0  0  0  0
  -24.6655  -15.8288   20.4928 H   0  0  0  0  0  0
  -26.2739  -15.6239   20.0296 H   0  0  0  0  0  0
  -26.7075  -32.5588   23.1163 H   0  0  0  0  0  0
  -25.0053  -33.9808   25.0500 H   0  0  0  0  0  0
  -22.6788  -31.3195   21.4117 H   0  0  0  0  0  0
  -23.3759  -35.9634   23.3231 H   0  0  0  0  0  0
  -24.3610  -36.9001   22.2054 H   0  0  0  0  0  0
  -23.7212  -37.6514   23.6679 H   0  0  0  0  0  0
  -25.9893  -31.6304   20.5628 H   0  0  0  0  0  0
  -26.8121  -30.9479   21.9335 H   0  0  0  0  0  0
  -28.0856  -29.1886   21.1418 H   0  0  0  0  0  0
  -26.0952  -26.0136   19.0002 H   0  0  0  0  0  0
  -23.9891  -27.3011   19.0228 H   0  0  0  0  0  0
  -23.6916  -30.6034   19.4007 H   0  0  0  0  0  0
  -22.7201  -29.2418   19.8690 H   0  0  0  0  0  0
  -25.1268  -36.1942   25.0831 H   0  0  0  0  0  0
  -20.9981  -28.3217   24.1441 H   0  0  0  0  0  0
  -20.5682  -26.2260   23.3607 H   0  0  0  0  0  0
  -21.6637  -26.7471   22.1197 H   0  0  0  0  0  0
  -19.6900  -25.6327   21.1213 H   0  0  0  0  0  0
  -19.6678  -27.3255   20.6784 H   0  0  0  0  0  0
  -17.4204  -26.6728   21.3999 H   0  0  0  0  0  0
  -18.0294  -26.0080   22.8994 H   0  0  0  0  0  0
  -19.7929  -30.7261   24.2319 H   0  0  0  0  0  0
  -17.5007  -31.6259   24.5207 H   0  0  0  0  0  0
  -15.5346  -30.3022   23.7624 H   0  0  0  0  0  0
  -15.8663  -28.0882   22.6963 H   0  0  0  0  0  0
  -24.5939  -30.7001   25.7830 H   0  0  0  0  0  0
  -24.8917  -32.2872   26.4850 H   0  0  0  0  0  0
  -25.8156  -30.8950   27.0219 H   0  0  0  0  0  0
  -26.2711  -29.6860   24.1056 H   0  0  0  0  0  0
  -27.4116  -29.7240   25.4308 H   0  0  0  0  0  0
  -27.8494  -30.4422   23.8964 H   0  0  0  0  0  0
  -27.2610  -33.3617   26.2035 H   0  0  0  0  0  0
  -28.3849  -32.6880   25.0301 H   0  0  0  0  0  0
  -28.0659  -31.8435   26.5394 H   0  0  0  0  0  0
  -28.2521  -38.0155   24.7615 H   0  0  0  0  0  0
  -28.1164  -36.2719   24.6082 H   0  0  0  0  0  0
  -27.2351  -37.1192   25.8837 H   0  0  0  0  0  0
  -20.9213  -29.8755   21.6962 H   0  0  0  0  0  0
  -26.0143  -38.2870   24.1518 H   0  0  0  0  0  0
  -32.3039  -20.4941   19.2317 H   0  0  0  0  0  0
  -32.6849  -22.1165   19.7833 H   0  0  0  0  0  0
  -31.2754  -21.8341   18.7744 H   0  0  0  0  0  0
  -32.2394  -19.5004   21.5594 H   0  0  0  0  0  0
  -31.3579  -20.3127   22.8485 H   0  0  0  0  0  0
  -32.7828  -21.0609   22.1472 H   0  0  0  0  0  0
  -30.7020  -23.8172   19.7044 H   0  0  0  0  0  0
  -29.1482  -23.1215   20.0484 H   0  0  0  0  0  0
  -30.3842  -25.6570   20.9773 H   0  0  0  0  0  0
  -29.4435  -24.8670   22.2060 H   0  0  0  0  0  0
  -29.9299  -22.4136   22.3161 H   0  0  0  0  0  0
  -31.5083  -23.0411   21.9743 H   0  0  0  0  0  0
  -27.4545  -25.2550   21.1620 H   0  0  0  0  0  0
  -28.0519  -24.9074   19.5471 H   0  0  0  0  0  0
  -29.2890  -15.3372   21.6376 H   0  0  0  0  0  0
  1 25  1  0  0  0
  1 30  2  0  0  0
  1 83  1  0  0  0
  2  3  1  0  0  0
  2 25  1  0  0  0
  2 87  1  0  0  0
  2 88  1  0  0  0
  3  4  1  0  0  0
  3 89  1  0  0  0
  3 90  1  0  0  0
  4  5  1  0  0  0
  4 91  1  0  0  0
  4 92  1  0  0  0
  5  6  1  0  0  0
  5 26  1  0  0  0
  5 93  1  0  0  0
  6 25  1  0  0  0
  6 94  1  0  0  0
  6 95  1  0  0  0
  7  8  2  0  0  0
  7 26  1  0  0  0
  7 29  1  0  0  0
  8  9  1  0  0  0
  8 22  1  0  0  0
  9 10  1  0  0  0
  9 27  2  0  0  0
 10 11  2  0  0  0
 10 15  1  0  0  0
 11 12  1  0  0  0
 11 96  1  0  0  0
 12 13  2  0  0  0
 12 97  1  0  0  0
 13 14  1  0  0  0
 13 31  1  0  0  0
 14 15  2  0  0  0
 14 98  1  0  0  0
 15 99  1  0  0  0
 16 17  2  0  0  0
 16 21  1  0  0  0
 16 31  1  0  0  0
 17 18  1  0  0  0
 17100  1  0  0  0
 18 19  2  0  0  0
 18101  1  0  0  0
 19 20  1  0  0  0
 19 24  1  0  0  0
 20 21  2  0  0  0
 20102  1  0  0  0
 21 23  1  0  0  0
 22 28  1  0  0  0
 22 32  2  0  0  0
 26 27  1  0  0  0
 28103  1  0  0  0
 28104  1  0  0  0
 29105  1  0  0  0
 29106  1  0  0  0
 33 34  1  0  0  0
 33 66  1  0  0  0
 33 70  2  0  0  0
 34 36  1  0  0  0
 34 59  1  0  0  0
 34107  1  0  0  0
 35 44  2  0  0  0
 35 45  1  0  0  0
 35 68  1  0  0  0
 36 56  1  0  0  0
 36108  1  0  0  0
 37 39  1  0  0  0
 37 47  1  0  0  0
 37 66  1  0  0  0
 37109  1  0  0  0
 38 43  2  0  0  0
 38 46  1  0  0  0
 38 47  1  0  0  0
 39 64  1  0  0  0
 39 67  2  0  0  0
 40 52  1  0  0  0
 40 53  2  0  0  0
 40 58  1  0  0  0
 41110  1  0  0  0
 41111  1  0  0  0
 41112  1  0  0  0
 41 48  1  0  0  0
 42 43  1  0  0  0
 42 66  1  0  0  0
 42113  1  0  0  0
 42114  1  0  0  0
 43 44  1  0  0  0
 44115  1  0  0  0
 45 46  2  0  0  0
 45116  1  0  0  0
 46117  1  0  0  0
 47118  1  0  0  0
 47119  1  0  0  0
 48 56  1  0  0  0
 48 65  1  0  0  0
 48120  1  0  0  0
 49 50  1  0  0  0
 49 53  1  0  0  0
 49 64  1  0  0  0
 49121  1  0  0  0
 50 51  1  0  0  0
 50122  1  0  0  0
 50123  1  0  0  0
 51 52  1  0  0  0
 51124  1  0  0  0
 51125  1  0  0  0
 52126  1  0  0  0
 52127  1  0  0  0
 53 54  1  0  0  0
 54 55  2  0  0  0
 54128  1  0  0  0
 55 57  1  0  0  0
 55129  1  0  0  0
 56 69  2  0  0  0
 57 58  2  0  0  0
 57130  1  0  0  0
 58131  1  0  0  0
 59 60  1  0  0  0
 59 61  1  0  0  0
 59 62  1  0  0  0
 60132  1  0  0  0
 60133  1  0  0  0
 60134  1  0  0  0
 61135  1  0  0  0
 61136  1  0  0  0
 61137  1  0  0  0
 62138  1  0  0  0
 62139  1  0  0  0
 62140  1  0  0  0
 63 65  1  0  0  0
 63141  1  0  0  0
 63142  1  0  0  0
 63143  1  0  0  0
 64144  1  0  0  0
 65145  1  0  0  0
 68 80  1  0  0  0
 71 72  2  0  0  0
 71 74  1  0  0  0
 71 82  1  0  0  0
 72 85  1  0  0  0
 72 86  1  0  0  0
 73 82  2  0  0  0
 73 83  1  0  0  0
 73 86  1  0  0  0
 74 81  1  0  0  0
 74 84  2  0  0  0
 75146  1  0  0  0
 75147  1  0  0  0
 75148  1  0  0  0
 75 81  1  0  0  0
 76 81  1  0  0  0
 76149  1  0  0  0
 76150  1  0  0  0
 76151  1  0  0  0
 77 78  1  0  0  0
 77 79  1  0  0  0
 77152  1  0  0  0
 77153  1  0  0  0
 78 80  1  0  0  0
 78154  1  0  0  0
 78155  1  0  0  0
 79 81  1  0  0  0
 79156  1  0  0  0
 79157  1  0  0  0
 80158  1  0  0  0
 80159  1  0  0  0
 83160  1  0  0  0
M  ISO  4   1 100  68 101  80 101  83 100
M  END
> <chiral flag>
0

> <version>
0

> <s_m_source_file>
/data/baiqing/PycharmProjects/Reinvent-master-3.2/result/LINK_invent/BTK/process_docking_weight1_custom_product_contain_oxygen_bond_distance_aromatic_linkinvent_7_9_3/rearranged_h_0177.sdf

> <i_m_source_file_index>
74

> <r_mmod_Potential_Energy-OPLS-2005>
79.1685104370117

> <r_mmod_Stretch_Energy-OPLS-2005>
34.4337425231934

> <r_mmod_Bend_Energy-OPLS-2005>
98.5474395751953

> <r_mmod_Torsional_Energy-OPLS-2005>
294.241668701172

> <r_mmod_Improper_Torsional_Energy-OPLS-2005>
5.84339141845703

> <r_mmod_Van_der_Waal_Energy-OPLS-2005>
143.088027954102

> <r_mmod_Electrostatic_Energy-OPLS-2005>
-306.693939208984

> <r_mmod_Solvation_Energy-OPLS-2005>
-204.244873046875

> <b_mmod_Minimization_Converged-OPLS-2005>
0

> <r_mmod_RMS_Derivative-OPLS-2005>
5.07705307006836

$$$$
74
                    3D
 Structure written by MMmdl.
150158  0  0  1  0            999 V2000
  -30.5604  -14.8457   20.4397 C   0  0  0  0  0  0
  -30.4428  -12.5232   19.4609 C   0  0  0  0  0  0
  -29.5082  -12.5081   18.2300 C   0  0  0  0  0  0
  -28.0402  -12.3097   18.6578 C   0  0  0  0  0  0
  -27.6318  -13.2316   19.8363 C   0  0  2  0  0  0
  -28.6835  -13.2151   20.9645 C   0  0  0  0  0  0
  -25.2483  -13.8183   20.5714 C   0  0  0  0  0  0
  -24.1784  -13.0424   20.9234 C   0  0  0  0  0  0
  -24.6384  -11.6905   20.8765 C   0  0  0  0  0  0
  -23.9066  -10.4284   21.0414 C   0  0  0  0  0  0
  -24.3619   -9.4200   21.9189 C   0  0  0  0  0  0
  -23.6293   -8.2236   22.0754 C   0  0  0  0  0  0
  -22.4276   -8.0278   21.3543 C   0  0  0  0  0  0
  -21.9913   -9.0252   20.4644 C   0  0  0  0  0  0
  -22.7242  -10.2130   20.3059 C   0  0  0  0  0  0
  -21.6851   -6.0737   22.5280 C   0  0  0  0  0  0
  -21.4013   -6.5642   23.8214 C   0  0  0  0  0  0
  -21.3656   -5.6795   24.9175 C   0  0  0  0  0  0
  -21.6044   -4.3058   24.7228 C   0  0  0  0  0  0
  -21.8818   -3.8150   23.4349 C   0  0  0  0  0  0
  -21.9192   -4.6965   22.3403 C   0  0  0  0  0  0
  -22.7805  -13.5203   21.1888 C   0  0  0  0  0  0
  -22.1664   -4.2150   21.0981 F   0  0  0  0  0  0
  -21.5625   -3.4541   25.7740 F   0  0  0  0  0  0
  -29.9629  -13.6011   20.3577 N   0  0  0  0  0  0
  -26.2896  -12.9386   20.3254 N   0  0  0  0  0  0
  -25.9311  -11.6533   20.5752 N   0  0  0  0  0  0
  -22.0457  -12.8184   22.0444 N   0  0  0  0  0  0
  -25.4146  -15.1913   20.4136 N   0  0  0  0  0  0
  -31.7817  -14.9274   20.2633 O   0  0  0  0  0  0
  -21.6638   -6.8877   21.4241 O   0  0  0  0  0  0
  -22.3488  -14.5510   20.6730 O   0  0  0  0  0  0
  -24.6364  -31.8505   23.1929 C   0  0  0  0  0  0
  -25.9161  -32.4735   23.8304 C   0  0  1  0  0  0
  -27.2226  -27.2044   20.1567 C   0  0  0  0  0  0
  -25.5929  -33.8536   24.2231 N   0  0  0  0  0  0
  -23.4374  -30.4697   21.5374 C   0  0  2  0  0  0
  -24.8856  -28.8937   20.1265 C   0  0  0  0  0  0
  -22.7526  -29.4592   22.4905 C   0  0  0  0  0  0
  -18.0306  -28.1392   22.8485 C   0  0  0  0  0  0
  -24.1489  -36.7279   23.2646 C   0  0  0  0  0  0
  -25.9868  -30.7450   21.3806 C   0  0  0  0  0  0
  -26.0600  -29.3558   20.7365 C   0  0  0  0  0  0
  -27.2347  -28.5262   20.7342 C   0  0  0  0  0  0
  -26.0248  -26.8142   19.5281 C   0  0  0  0  0  0
  -24.8746  -27.6310   19.5117 C   0  0  0  0  0  0
  -23.6615  -29.7921   20.1595 C   0  0  0  0  0  0
  -25.4115  -36.3061   24.0330 C   0  0  1  0  0  0
  -20.5909  -28.3725   23.1261 C   0  0  2  0  0  0
  -20.6789  -26.9435   22.5422 C   0  0  0  0  0  0
  -19.5775  -26.6392   21.5218 C   0  0  0  0  0  0
  -18.1955  -26.7932   22.1631 C   0  0  0  0  0  0
  -19.1558  -28.8871   23.2868 C   0  0  0  0  0  0
  -18.9475  -30.1466   23.8898 C   0  0  0  0  0  0
  -17.6473  -30.6589   24.0560 C   0  0  0  0  0  0
  -25.9058  -34.9434   23.5092 C   0  0  0  0  0  0
  -16.5366  -29.9088   23.6325 C   0  0  0  0  0  0
  -16.7289  -28.6503   23.0353 C   0  0  0  0  0  0
  -26.4504  -31.6573   25.0715 C   0  0  0  0  0  0
  -25.3709  -31.3735   26.1425 C   0  0  0  0  0  0
  -27.0364  -30.2984   24.6235 C   0  0  0  0  0  0
  -27.6045  -32.4323   25.7493 C   0  0  0  0  0  0
  -27.5578  -37.1798   24.8467 C   0  0  0  0  0  0
  -21.4225  -29.3073   22.3647 N   0  0  0  0  0  0
  -26.4290  -37.3761   23.9408 N   0  0  0  0  0  0
  -24.7065  -31.0417   22.0930 N   0  0  0  0  0  0
  -23.4191  -28.8138   23.3038 O   0  0  0  0  0  0
  -28.3197  -26.3102   20.0454 O   0  0  0  0  0  0
  -26.5642  -34.8920   22.4669 O   0  0  0  0  0  0
  -23.5498  -32.1348   23.7189 O   0  0  0  0  0  0
  -29.5715  -18.5818   19.9973 C   0  0  0  0  0  0
  -29.6808  -18.8364   22.6734 C   0  0  0  0  0  0
  -29.4565  -19.9536   20.5231 C   0  0  0  0  0  0
  -29.4816  -20.0213   21.9286 C   0  0  0  0  0  0
  -29.7782  -17.3875   20.8210 C   0  0  0  0  0  0
  -29.1406  -22.6245   19.7021 C   0  0  0  0  0  0
  -29.5344  -21.2658   19.6690 C   0  0  0  0  0  0
  -28.2130  -23.5512   20.5240 C   0  0  0  0  0  0
  -28.5212  -25.1018   20.9389 C   0  0  0  0  0  0
  -29.8396  -17.5880   22.1561 N   0  0  0  0  0  0
  -29.7326  -15.9745   20.3214 N   0  0  0  0  0  0
  -27.1386  -23.0964   20.9262 O   0  0  0  0  0  0
  -30.3259  -20.9754   18.6220 O   0  0  0  0  0  0
  -29.3953  -21.2151   22.5659 F   0  0  0  0  0  0
  -31.4753  -12.6852   19.1469 H   0  0  0  0  0  0
  -30.4289  -11.5610   19.9747 H   0  0  0  0  0  0
  -29.8038  -11.7190   17.5375 H   0  0  0  0  0  0
  -29.6055  -13.4477   17.6837 H   0  0  0  0  0  0
  -27.9245  -11.2665   18.9539 H   0  0  0  0  0  0
  -27.3713  -12.4593   17.8095 H   0  0  0  0  0  0
  -27.6044  -14.2395   19.4237 H   0  0  0  0  0  0
  -28.7527  -12.2288   21.4253 H   0  0  0  0  0  0
  -28.4098  -13.9117   21.7587 H   0  0  0  0  0  0
  -25.2762   -9.5670   22.4768 H   0  0  0  0  0  0
  -23.9998   -7.4621   22.7471 H   0  0  0  0  0  0
  -21.0847   -8.8775   19.8948 H   0  0  0  0  0  0
  -22.3706  -10.9673   19.6171 H   0  0  0  0  0  0
  -21.2010   -7.6150   23.9716 H   0  0  0  0  0  0
  -21.1475   -6.0526   25.9075 H   0  0  0  0  0  0
  -22.0601   -2.7613   23.2849 H   0  0  0  0  0  0
  -22.4076  -11.9841   22.4817 H   0  0  0  0  0  0
  -21.1079  -13.1201   22.2676 H   0  0  0  0  0  0
  -24.6413  -15.8387   20.5236 H   0  0  0  0  0  0
  -26.2526  -15.6385   20.0680 H   0  0  0  0  0  0
  -26.7231  -32.5369   23.1047 H   0  0  0  0  0  0
  -25.0042  -33.9655   25.0355 H   0  0  0  0  0  0
  -22.7383  -31.2937   21.3826 H   0  0  0  0  0  0
  -23.3754  -35.9609   23.3298 H   0  0  0  0  0  0
  -24.3583  -36.8908   22.2063 H   0  0  0  0  0  0
  -23.7240  -37.6477   23.6676 H   0  0  0  0  0  0
  -26.1281  -31.4950   20.6006 H   0  0  0  0  0  0
  -26.8634  -30.8035   22.0140 H   0  0  0  0  0  0
  -28.1440  -28.8880   21.1932 H   0  0  0  0  0  0
  -25.9803  -25.8496   19.0420 H   0  0  0  0  0  0
  -23.9778  -27.2708   19.0266 H   0  0  0  0  0  0
  -23.7988  -30.5622   19.3998 H   0  0  0  0  0  0
  -22.7768  -29.2312   19.8519 H   0  0  0  0  0  0
  -25.1302  -36.1907   25.0824 H   0  0  0  0  0  0
  -21.0005  -28.3312   24.1379 H   0  0  0  0  0  0
  -21.6659  -26.7442   22.1232 H   0  0  0  0  0  0
  -20.5678  -26.2329   23.3623 H   0  0  0  0  0  0
  -19.6946  -25.6306   21.1243 H   0  0  0  0  0  0
  -19.6705  -27.3197   20.6743 H   0  0  0  0  0  0
  -17.4220  -26.6667   21.4038 H   0  0  0  0  0  0
  -18.0374  -26.0075   22.9032 H   0  0  0  0  0  0
  -19.7946  -30.7281   24.2279 H   0  0  0  0  0  0
  -17.5027  -31.6266   24.5171 H   0  0  0  0  0  0
  -15.5369  -30.2988   23.7658 H   0  0  0  0  0  0
  -15.8692  -28.0810   22.7086 H   0  0  0  0  0  0
  -24.5892  -30.7075   25.7754 H   0  0  0  0  0  0
  -24.8891  -32.2905   26.4824 H   0  0  0  0  0  0
  -25.8013  -30.8932   27.0220 H   0  0  0  0  0  0
  -26.2967  -29.6714   24.1244 H   0  0  0  0  0  0
  -27.4016  -29.7268   25.4778 H   0  0  0  0  0  0
  -27.8854  -30.4253   23.9513 H   0  0  0  0  0  0
  -27.2645  -33.3634   26.2041 H   0  0  0  0  0  0
  -28.3868  -32.6861   25.0328 H   0  0  0  0  0  0
  -28.0696  -31.8464   26.5430 H   0  0  0  0  0  0
  -28.2599  -38.0093   24.7507 H   0  0  0  0  0  0
  -28.1071  -36.2622   24.6298 H   0  0  0  0  0  0
  -27.2298  -37.1454   25.8872 H   0  0  0  0  0  0
  -20.9433  -29.8792   21.6833 H   0  0  0  0  0  0
  -26.0169  -38.2840   24.1385 H   0  0  0  0  0  0
  -29.5357  -18.4563   18.9244 H   0  0  0  0  0  0
  -29.7383  -18.8961   23.7498 H   0  0  0  0  0  0
  -29.5539  -23.2098   18.8934 H   0  0  0  0  0  0
  -29.5713  -25.1197   21.2300 H   0  0  0  0  0  0
  -27.9752  -25.2953   21.8625 H   0  0  0  0  0  0
  -28.8055  -15.7102   20.0354 H   0  0  0  0  0  0
  -30.4356  -21.7622   18.1048 H   0  0  0  0  0  0
  1 25  1  0  0  0
  1 30  2  0  0  0
  1 81  1  0  0  0
  2  3  1  0  0  0
  2 25  1  0  0  0
  2 85  1  0  0  0
  2 86  1  0  0  0
  3  4  1  0  0  0
  3 87  1  0  0  0
  3 88  1  0  0  0
  4  5  1  0  0  0
  4 89  1  0  0  0
  4 90  1  0  0  0
  5  6  1  0  0  0
  5 26  1  0  0  0
  5 91  1  0  0  0
  6 25  1  0  0  0
  6 92  1  0  0  0
  6 93  1  0  0  0
  7  8  2  0  0  0
  7 26  1  0  0  0
  7 29  1  0  0  0
  8  9  1  0  0  0
  8 22  1  0  0  0
  9 10  1  0  0  0
  9 27  2  0  0  0
 10 11  2  0  0  0
 10 15  1  0  0  0
 11 12  1  0  0  0
 11 94  1  0  0  0
 12 13  2  0  0  0
 12 95  1  0  0  0
 13 14  1  0  0  0
 13 31  1  0  0  0
 14 15  2  0  0  0
 14 96  1  0  0  0
 15 97  1  0  0  0
 16 17  2  0  0  0
 16 21  1  0  0  0
 16 31  1  0  0  0
 17 18  1  0  0  0
 17 98  1  0  0  0
 18 19  2  0  0  0
 18 99  1  0  0  0
 19 20  1  0  0  0
 19 24  1  0  0  0
 20 21  2  0  0  0
 20100  1  0  0  0
 21 23  1  0  0  0
 22 28  1  0  0  0
 22 32  2  0  0  0
 26 27  1  0  0  0
 28101  1  0  0  0
 28102  1  0  0  0
 29103  1  0  0  0
 29104  1  0  0  0
 33 34  1  0  0  0
 33 66  1  0  0  0
 33 70  2  0  0  0
 34 36  1  0  0  0
 34 59  1  0  0  0
 34105  1  0  0  0
 35 44  2  0  0  0
 35 45  1  0  0  0
 35 68  1  0  0  0
 36 56  1  0  0  0
 36106  1  0  0  0
 37 39  1  0  0  0
 37 47  1  0  0  0
 37 66  1  0  0  0
 37107  1  0  0  0
 38 43  2  0  0  0
 38 46  1  0  0  0
 38 47  1  0  0  0
 39 64  1  0  0  0
 39 67  2  0  0  0
 40 52  1  0  0  0
 40 53  2  0  0  0
 40 58  1  0  0  0
 41108  1  0  0  0
 41109  1  0  0  0
 41110  1  0  0  0
 41 48  1  0  0  0
 42 43  1  0  0  0
 42 66  1  0  0  0
 42111  1  0  0  0
 42112  1  0  0  0
 43 44  1  0  0  0
 44113  1  0  0  0
 45 46  2  0  0  0
 45114  1  0  0  0
 46115  1  0  0  0
 47116  1  0  0  0
 47117  1  0  0  0
 48 56  1  0  0  0
 48 65  1  0  0  0
 48118  1  0  0  0
 49 50  1  0  0  0
 49 53  1  0  0  0
 49 64  1  0  0  0
 49119  1  0  0  0
 50 51  1  0  0  0
 50120  1  0  0  0
 50121  1  0  0  0
 51 52  1  0  0  0
 51122  1  0  0  0
 51123  1  0  0  0
 52124  1  0  0  0
 52125  1  0  0  0
 53 54  1  0  0  0
 54 55  2  0  0  0
 54126  1  0  0  0
 55 57  1  0  0  0
 55127  1  0  0  0
 56 69  2  0  0  0
 57 58  2  0  0  0
 57128  1  0  0  0
 58129  1  0  0  0
 59 60  1  0  0  0
 59 61  1  0  0  0
 59 62  1  0  0  0
 60130  1  0  0  0
 60131  1  0  0  0
 60132  1  0  0  0
 61133  1  0  0  0
 61134  1  0  0  0
 61135  1  0  0  0
 62136  1  0  0  0
 62137  1  0  0  0
 62138  1  0  0  0
 63 65  1  0  0  0
 63139  1  0  0  0
 63140  1  0  0  0
 63141  1  0  0  0
 64142  1  0  0  0
 65143  1  0  0  0
 68 79  1  0  0  0
 71 73  2  0  0  0
 71 75  1  0  0  0
 71144  1  0  0  0
 72 74  2  0  0  0
 72 80  1  0  0  0
 72145  1  0  0  0
 73 74  1  0  0  0
 73 77  1  0  0  0
 74 84  1  0  0  0
 75 80  2  0  0  0
 75 81  1  0  0  0
 76 77  2  0  0  0
 76 78  1  0  0  0
 76146  1  0  0  0
 77 83  1  0  0  0
 78 79  1  0  0  0
 78 82  2  0  0  0
 79147  1  0  0  0
 79148  1  0  0  0
 81149  1  0  0  0
 83150  1  0  0  0
M  ISO  4   1 100  68 101  79 101  81 100
M  END
> <chiral flag>
0

> <version>
0

> <s_m_source_file>
/data/baiqing/PycharmProjects/Reinvent-master-3.2/result/LINK_invent/BTK/process_docking_weight1_custom_product_contain_oxygen_bond_distance_aromatic_linkinvent_7_9_3/rearranged_h_0177.sdf

> <i_m_source_file_index>
75

> <r_mmod_Potential_Energy-OPLS-2005>
272.591430664062

> <r_mmod_Stretch_Energy-OPLS-2005>
162.124755859375

> <r_mmod_Bend_Energy-OPLS-2005>
273.514251708984

> <r_mmod_Torsional_Energy-OPLS-2005>
283.934783935547

> <r_mmod_Improper_Torsional_Energy-OPLS-2005>
15.2623777389526

> <r_mmod_Van_der_Waal_Energy-OPLS-2005>
127.505615234375

> <r_mmod_Electrostatic_Energy-OPLS-2005>
-465.276550292969

> <r_mmod_Solvation_Energy-OPLS-2005>
-252.847534179688

> <b_mmod_Minimization_Converged-OPLS-2005>
0

> <r_mmod_RMS_Derivative-OPLS-2005>
1.05181229114532

$$$$
75
                    3D
 Structure written by MMmdl.
155163  0  0  1  0            999 V2000
  -30.7197  -14.5503   20.5361 C   0  0  0  0  0  0
  -30.4137  -12.3484   19.4488 C   0  0  0  0  0  0
  -29.4915  -12.4888   18.2219 C   0  0  0  0  0  0
  -28.0167  -12.3416   18.6414 C   0  0  0  0  0  0
  -27.6473  -13.2185   19.8687 C   0  0  2  0  0  0
  -28.6980  -13.0737   20.9948 C   0  0  0  0  0  0
  -25.2396  -13.8111   20.5523 C   0  0  0  0  0  0
  -24.1709  -13.0383   20.9138 C   0  0  0  0  0  0
  -24.6330  -11.6883   20.8774 C   0  0  0  0  0  0
  -23.9016  -10.4265   21.0413 C   0  0  0  0  0  0
  -24.3578   -9.4189   21.9184 C   0  0  0  0  0  0
  -23.6268   -8.2220   22.0760 C   0  0  0  0  0  0
  -22.4262   -8.0254   21.3542 C   0  0  0  0  0  0
  -21.9876   -9.0227   20.4647 C   0  0  0  0  0  0
  -22.7192  -10.2111   20.3060 C   0  0  0  0  0  0
  -21.6857   -6.0696   22.5260 C   0  0  0  0  0  0
  -21.4007   -6.5612   23.8190 C   0  0  0  0  0  0
  -21.3664   -5.6774   24.9160 C   0  0  0  0  0  0
  -21.6047   -4.3033   24.7213 C   0  0  0  0  0  0
  -21.8825   -3.8112   23.4346 C   0  0  0  0  0  0
  -21.9186   -4.6925   22.3397 C   0  0  0  0  0  0
  -22.7747  -13.5215   21.1808 C   0  0  0  0  0  0
  -22.1646   -4.2103   21.0973 F   0  0  0  0  0  0
  -21.5649   -3.4526   25.7740 F   0  0  0  0  0  0
  -30.0145  -13.3849   20.4206 N   0  0  0  0  0  0
  -26.2922  -12.9356   20.3377 N   0  0  0  0  0  0
  -25.9276  -11.6508   20.5868 N   0  0  0  0  0  0
  -22.0391  -12.8268   22.0418 N   0  0  0  0  0  0
  -25.3841  -15.1794   20.3642 N   0  0  0  0  0  0
  -31.8875  -14.6003   20.1446 O   0  0  0  0  0  0
  -21.6635   -6.8842   21.4232 O   0  0  0  0  0  0
  -22.3434  -14.5535   20.6675 O   0  0  0  0  0  0
  -24.6163  -31.8648   23.2065 C   0  0  0  0  0  0
  -25.9049  -32.4797   23.8360 C   0  0  1  0  0  0
  -27.2337  -27.3785   20.0916 C   0  0  0  0  0  0
  -25.5887  -33.8596   24.2285 N   0  0  0  0  0  0
  -23.4051  -30.4881   21.5486 C   0  0  2  0  0  0
  -24.8518  -28.9515   20.1119 C   0  0  0  0  0  0
  -22.7409  -29.4647   22.4983 C   0  0  0  0  0  0
  -18.0268  -28.1371   22.8499 C   0  0  0  0  0  0
  -24.1488  -36.7300   23.2634 C   0  0  0  0  0  0
  -25.9414  -30.8112   21.3703 C   0  0  0  0  0  0
  -26.0154  -29.4426   20.7140 C   0  0  0  0  0  0
  -27.2026  -28.6640   20.7012 C   0  0  0  0  0  0
  -26.0440  -26.9265   19.4709 C   0  0  0  0  0  0
  -24.8661  -27.6961   19.4859 C   0  0  0  0  0  0
  -23.6132  -29.8204   20.1643 C   0  0  0  0  0  0
  -25.4112  -36.3094   24.0326 C   0  0  1  0  0  0
  -20.5859  -28.3657   23.1313 C   0  0  2  0  0  0
  -20.6759  -26.9389   22.5412 C   0  0  0  0  0  0
  -19.5741  -26.6379   21.5207 C   0  0  0  0  0  0
  -18.1924  -26.7923   22.1628 C   0  0  0  0  0  0
  -19.1517  -28.8834   23.2899 C   0  0  0  0  0  0
  -18.9454  -30.1445   23.8896 C   0  0  0  0  0  0
  -17.6459  -30.6581   24.0566 C   0  0  0  0  0  0
  -25.9041  -34.9463   23.5109 C   0  0  0  0  0  0
  -16.5345  -29.9079   23.6335 C   0  0  0  0  0  0
  -16.7259  -28.6497   23.0361 C   0  0  0  0  0  0
  -26.4469  -31.6588   25.0694 C   0  0  0  0  0  0
  -25.3723  -31.3699   26.1436 C   0  0  0  0  0  0
  -27.0303  -30.3026   24.6094 C   0  0  0  0  0  0
  -27.6046  -32.4323   25.7443 C   0  0  0  0  0  0
  -27.5585  -37.1800   24.8467 C   0  0  0  0  0  0
  -21.4133  -29.3019   22.3719 N   0  0  0  0  0  0
  -26.4302  -37.3783   23.9400 N   0  0  0  0  0  0
  -24.6727  -31.0701   22.0985 N   0  0  0  0  0  0
  -23.4173  -28.8185   23.3028 O   0  0  0  0  0  0
  -28.4131  -26.6322   20.1337 O   0  0  0  0  0  0
  -26.5626  -34.8930   22.4686 O   0  0  0  0  0  0
  -23.5349  -32.1440   23.7444 O   0  0  0  0  0  0
  -29.5800  -18.1162   21.1733 C   0  0  0  0  0  0
  -28.4140  -18.1415   21.9116 C   0  0  0  0  0  0
  -29.0177  -20.3645   20.9815 C   0  0  0  0  0  0
  -30.5366  -16.9357   21.0370 C   0  0  0  0  0  0
  -28.3826  -22.7852   20.7355 C   0  0  0  0  0  0
  -29.5378  -25.2330   18.5529 C   0  0  0  0  0  0
  -28.9212  -24.2460   20.8234 C   0  0  0  0  0  0
  -28.4981  -25.2415   19.6865 C   0  0  1  0  0  0
  -27.8306  -17.0375   22.7299 C   0  0  0  0  0  0
  -29.9200  -19.4108   20.6878 N   0  0  0  0  0  0
  -29.2622  -21.7518   20.6858 N   0  0  0  0  0  0
  -30.0304  -15.6736   20.8954 N   0  0  0  0  0  0
  -31.7479  -17.1906   21.0193 O   0  0  0  0  0  0
  -27.1620  -22.6121   20.7221 O   0  0  0  0  0  0
  -27.5390  -15.9877   21.9702 F   0  0  0  0  0  0
  -28.6906  -16.6313   23.6614 F   0  0  0  0  0  0
  -26.7081  -17.4029   23.3481 F   0  0  0  0  0  0
  -27.6509  -19.7233   21.8856 S   0  0  0  0  0  0
  -31.4596  -12.4266   19.1465 H   0  0  0  0  0  0
  -30.3123  -11.3569   19.8953 H   0  0  0  0  0  0
  -29.7450  -11.7271   17.4836 H   0  0  0  0  0  0
  -29.6521  -13.4551   17.7400 H   0  0  0  0  0  0
  -27.8530  -11.2911   18.8851 H   0  0  0  0  0  0
  -27.3578  -12.5616   17.8021 H   0  0  0  0  0  0
  -27.6632  -14.2543   19.5307 H   0  0  0  0  0  0
  -28.7012  -12.0562   21.3868 H   0  0  0  0  0  0
  -28.4625  -13.7124   21.8450 H   0  0  0  0  0  0
  -25.2719   -9.5694   22.4742 H   0  0  0  0  0  0
  -23.9983   -7.4622   22.7504 H   0  0  0  0  0  0
  -21.0796   -8.8731   19.8956 H   0  0  0  0  0  0
  -22.3630  -10.9641   19.6166 H   0  0  0  0  0  0
  -21.1981   -7.6110   23.9687 H   0  0  0  0  0  0
  -21.1501   -6.0486   25.9060 H   0  0  0  0  0  0
  -22.0614   -2.7576   23.2845 H   0  0  0  0  0  0
  -22.4063  -12.0000   22.4865 H   0  0  0  0  0  0
  -21.0998  -13.1269   22.2635 H   0  0  0  0  0  0
  -24.5960  -15.8079   20.4640 H   0  0  0  0  0  0
  -26.2394  -15.6462   20.0929 H   0  0  0  0  0  0
  -26.7098  -32.5491   23.1095 H   0  0  0  0  0  0
  -24.9994  -33.9755   25.0405 H   0  0  0  0  0  0
  -22.6943  -31.3060   21.4115 H   0  0  0  0  0  0
  -23.3756  -35.9631   23.3315 H   0  0  0  0  0  0
  -24.3580  -36.8902   22.2047 H   0  0  0  0  0  0
  -23.7263  -37.6510   23.6654 H   0  0  0  0  0  0
  -26.0667  -31.5784   20.6055 H   0  0  0  0  0  0
  -26.8238  -30.8598   21.9954 H   0  0  0  0  0  0
  -28.0972  -29.0442   21.1753 H   0  0  0  0  0  0
  -25.9747  -25.9865   18.9524 H   0  0  0  0  0  0
  -23.9745  -27.3196   19.0030 H   0  0  0  0  0  0
  -23.7112  -30.5946   19.4030 H   0  0  0  0  0  0
  -22.7379  -29.2353   19.8765 H   0  0  0  0  0  0
  -25.1306  -36.1941   25.0826 H   0  0  0  0  0  0
  -20.9965  -28.3223   24.1431 H   0  0  0  0  0  0
  -20.5669  -26.2252   23.3590 H   0  0  0  0  0  0
  -21.6632  -26.7432   22.1202 H   0  0  0  0  0  0
  -19.6895  -25.6294   21.1225 H   0  0  0  0  0  0
  -19.6686  -27.3201   20.6746 H   0  0  0  0  0  0
  -17.4188  -26.6664   21.4035 H   0  0  0  0  0  0
  -18.0335  -26.0057   22.9022 H   0  0  0  0  0  0
  -19.7925  -30.7269   24.2258 H   0  0  0  0  0  0
  -17.5007  -31.6267   24.5159 H   0  0  0  0  0  0
  -15.5348  -30.2986   23.7658 H   0  0  0  0  0  0
  -15.8659  -28.0817   22.7080 H   0  0  0  0  0  0
  -24.5876  -30.7082   25.7746 H   0  0  0  0  0  0
  -24.8939  -32.2858   26.4916 H   0  0  0  0  0  0
  -25.8061  -30.8815   27.0174 H   0  0  0  0  0  0
  -26.2842  -29.6774   24.1171 H   0  0  0  0  0  0
  -27.4088  -29.7277   25.4557 H   0  0  0  0  0  0
  -27.8679  -30.4331   23.9239 H   0  0  0  0  0  0
  -27.2657  -33.3609   26.2057 H   0  0  0  0  0  0
  -28.3818  -32.6920   25.0237 H   0  0  0  0  0  0
  -28.0763  -31.8431   26.5318 H   0  0  0  0  0  0
  -28.2614  -38.0082   24.7518 H   0  0  0  0  0  0
  -28.1072  -36.2629   24.6303 H   0  0  0  0  0  0
  -27.2299  -37.1453   25.8865 H   0  0  0  0  0  0
  -20.9285  -29.8717   21.6931 H   0  0  0  0  0  0
  -26.0184  -38.2858   24.1412 H   0  0  0  0  0  0
  -29.7608  -24.2191   18.2192 H   0  0  0  0  0  0
  -30.4763  -25.6812   18.8830 H   0  0  0  0  0  0
  -29.1870  -25.7980   17.6895 H   0  0  0  0  0  0
  -30.0056  -24.2374   20.9364 H   0  0  0  0  0  0
  -28.5416  -24.6342   21.7682 H   0  0  0  0  0  0
  -27.5780  -24.8578   19.2607 H   0  0  0  0  0  0
  -30.2253  -21.9932   20.5097 H   0  0  0  0  0  0
  -29.0352  -15.5715   21.0068 H   0  0  0  0  0  0
  1 25  1  0  0  0
  1 30  2  0  0  0
  1 82  1  0  0  0
  2  3  1  0  0  0
  2 25  1  0  0  0
  2 89  1  0  0  0
  2 90  1  0  0  0
  3  4  1  0  0  0
  3 91  1  0  0  0
  3 92  1  0  0  0
  4  5  1  0  0  0
  4 93  1  0  0  0
  4 94  1  0  0  0
  5  6  1  0  0  0
  5 26  1  0  0  0
  5 95  1  0  0  0
  6 25  1  0  0  0
  6 96  1  0  0  0
  6 97  1  0  0  0
  7  8  2  0  0  0
  7 26  1  0  0  0
  7 29  1  0  0  0
  8  9  1  0  0  0
  8 22  1  0  0  0
  9 10  1  0  0  0
  9 27  2  0  0  0
 10 11  2  0  0  0
 10 15  1  0  0  0
 11 12  1  0  0  0
 11 98  1  0  0  0
 12 13  2  0  0  0
 12 99  1  0  0  0
 13 14  1  0  0  0
 13 31  1  0  0  0
 14 15  2  0  0  0
 14100  1  0  0  0
 15101  1  0  0  0
 16 17  2  0  0  0
 16 21  1  0  0  0
 16 31  1  0  0  0
 17 18  1  0  0  0
 17102  1  0  0  0
 18 19  2  0  0  0
 18103  1  0  0  0
 19 20  1  0  0  0
 19 24  1  0  0  0
 20 21  2  0  0  0
 20104  1  0  0  0
 21 23  1  0  0  0
 22 28  1  0  0  0
 22 32  2  0  0  0
 26 27  1  0  0  0
 28105  1  0  0  0
 28106  1  0  0  0
 29107  1  0  0  0
 29108  1  0  0  0
 33 34  1  0  0  0
 33 66  1  0  0  0
 33 70  2  0  0  0
 34 36  1  0  0  0
 34 59  1  0  0  0
 34109  1  0  0  0
 35 44  2  0  0  0
 35 45  1  0  0  0
 35 68  1  0  0  0
 36 56  1  0  0  0
 36110  1  0  0  0
 37 39  1  0  0  0
 37 47  1  0  0  0
 37 66  1  0  0  0
 37111  1  0  0  0
 38 43  2  0  0  0
 38 46  1  0  0  0
 38 47  1  0  0  0
 39 64  1  0  0  0
 39 67  2  0  0  0
 40 52  1  0  0  0
 40 53  2  0  0  0
 40 58  1  0  0  0
 41112  1  0  0  0
 41113  1  0  0  0
 41114  1  0  0  0
 41 48  1  0  0  0
 42 43  1  0  0  0
 42 66  1  0  0  0
 42115  1  0  0  0
 42116  1  0  0  0
 43 44  1  0  0  0
 44117  1  0  0  0
 45 46  2  0  0  0
 45118  1  0  0  0
 46119  1  0  0  0
 47120  1  0  0  0
 47121  1  0  0  0
 48 56  1  0  0  0
 48 65  1  0  0  0
 48122  1  0  0  0
 49 50  1  0  0  0
 49 53  1  0  0  0
 49 64  1  0  0  0
 49123  1  0  0  0
 50 51  1  0  0  0
 50124  1  0  0  0
 50125  1  0  0  0
 51 52  1  0  0  0
 51126  1  0  0  0
 51127  1  0  0  0
 52128  1  0  0  0
 52129  1  0  0  0
 53 54  1  0  0  0
 54 55  2  0  0  0
 54130  1  0  0  0
 55 57  1  0  0  0
 55131  1  0  0  0
 56 69  2  0  0  0
 57 58  2  0  0  0
 57132  1  0  0  0
 58133  1  0  0  0
 59 60  1  0  0  0
 59 61  1  0  0  0
 59 62  1  0  0  0
 60134  1  0  0  0
 60135  1  0  0  0
 60136  1  0  0  0
 61137  1  0  0  0
 61138  1  0  0  0
 61139  1  0  0  0
 62140  1  0  0  0
 62141  1  0  0  0
 62142  1  0  0  0
 63 65  1  0  0  0
 63143  1  0  0  0
 63144  1  0  0  0
 63145  1  0  0  0
 64146  1  0  0  0
 65147  1  0  0  0
 68 78  1  0  0  0
 71 72  2  0  0  0
 71 74  1  0  0  0
 71 80  1  0  0  0
 72 79  1  0  0  0
 72 88  1  0  0  0
 73 80  2  0  0  0
 73 81  1  0  0  0
 73 88  1  0  0  0
 74 82  1  0  0  0
 74 83  2  0  0  0
 75 77  1  0  0  0
 75 81  1  0  0  0
 75 84  2  0  0  0
 76148  1  0  0  0
 76149  1  0  0  0
 76150  1  0  0  0
 76 78  1  0  0  0
 77 78  1  0  0  0
 77151  1  0  0  0
 77152  1  0  0  0
 78153  1  0  0  0
 79 85  1  0  0  0
 79 86  1  0  0  0
 79 87  1  0  0  0
 81154  1  0  0  0
 82155  1  0  0  0
M  ISO  4   1 100  68 101  78 101  82 100
M  END
> <chiral flag>
0

> <version>
0

> <s_m_source_file>
/data/baiqing/PycharmProjects/Reinvent-master-3.2/result/LINK_invent/BTK/process_docking_weight1_custom_product_contain_oxygen_bond_distance_aromatic_linkinvent_7_9_3/rearranged_h_0177.sdf

> <i_m_source_file_index>
76

> <r_mmod_Potential_Energy-OPLS-2005>
-265.027984619141

> <r_mmod_Stretch_Energy-OPLS-2005>
53.7015991210938

> <r_mmod_Bend_Energy-OPLS-2005>
129.987457275391

> <r_mmod_Torsional_Energy-OPLS-2005>
218.070434570312

> <r_mmod_Improper_Torsional_Energy-OPLS-2005>
5.79247045516968

> <r_mmod_Van_der_Waal_Energy-OPLS-2005>
140.124877929688

> <r_mmod_Electrostatic_Energy-OPLS-2005>
-601.801818847656

> <r_mmod_Solvation_Energy-OPLS-2005>
-239.063171386719

> <b_mmod_Minimization_Converged-OPLS-2005>
0

> <r_mmod_RMS_Derivative-OPLS-2005>
3.35742568969727

$$$$
76
                    3D
 Structure written by MMmdl.
159167  0  0  1  0            999 V2000
  -30.5907  -14.6856   20.4742 C   0  0  0  0  0  0
  -30.4448  -12.4154   19.4554 C   0  0  0  0  0  0
  -29.5119  -12.5036   18.2255 C   0  0  0  0  0  0
  -28.0339  -12.3350   18.6384 C   0  0  0  0  0  0
  -27.6477  -13.2153   19.8565 C   0  0  2  0  0  0
  -28.6945  -13.0922   20.9871 C   0  0  0  0  0  0
  -25.2531  -13.8164   20.5677 C   0  0  0  0  0  0
  -24.1802  -13.0430   20.9190 C   0  0  0  0  0  0
  -24.6362  -11.6899   20.8724 C   0  0  0  0  0  0
  -23.9032  -10.4284   21.0391 C   0  0  0  0  0  0
  -24.3591   -9.4208   21.9166 C   0  0  0  0  0  0
  -23.6273   -8.2245   22.0750 C   0  0  0  0  0  0
  -22.4252   -8.0272   21.3544 C   0  0  0  0  0  0
  -21.9879   -9.0243   20.4652 C   0  0  0  0  0  0
  -22.7199  -10.2123   20.3050 C   0  0  0  0  0  0
  -21.6851   -6.0722   22.5272 C   0  0  0  0  0  0
  -21.4018   -6.5628   23.8205 C   0  0  0  0  0  0
  -21.3662   -5.6785   24.9171 C   0  0  0  0  0  0
  -21.6042   -4.3044   24.7220 C   0  0  0  0  0  0
  -21.8821   -3.8131   23.4343 C   0  0  0  0  0  0
  -21.9194   -4.6949   22.3396 C   0  0  0  0  0  0
  -22.7826  -13.5232   21.1841 C   0  0  0  0  0  0
  -22.1661   -4.2136   21.0975 F   0  0  0  0  0  0
  -21.5624   -3.4528   25.7735 F   0  0  0  0  0  0
  -30.0038  -13.4452   20.4165 N   0  0  0  0  0  0
  -26.2947  -12.9341   20.3278 N   0  0  0  0  0  0
  -25.9289  -11.6501   20.5735 N   0  0  0  0  0  0
  -22.0472  -12.8245   22.0414 N   0  0  0  0  0  0
  -25.4212  -15.1892   20.4086 N   0  0  0  0  0  0
  -31.7755  -14.8407   20.1576 O   0  0  0  0  0  0
  -21.6636   -6.8853   21.4232 O   0  0  0  0  0  0
  -22.3516  -14.5534   20.6672 O   0  0  0  0  0  0
  -24.6263  -31.8577   23.2002 C   0  0  0  0  0  0
  -25.9115  -32.4762   23.8334 C   0  0  1  0  0  0
  -27.2290  -27.3080   20.1297 C   0  0  0  0  0  0
  -25.5924  -33.8564   24.2257 N   0  0  0  0  0  0
  -23.4208  -30.4779   21.5432 C   0  0  2  0  0  0
  -24.8687  -28.9189   20.1212 C   0  0  0  0  0  0
  -22.7465  -29.4615   22.4948 C   0  0  0  0  0  0
  -18.0280  -28.1384   22.8487 C   0  0  0  0  0  0
  -24.1487  -36.7293   23.2642 C   0  0  0  0  0  0
  -25.9615  -30.7830   21.3733 C   0  0  0  0  0  0
  -26.0362  -29.4047   20.7245 C   0  0  0  0  0  0
  -27.2222  -28.6122   20.7154 C   0  0  0  0  0  0
  -26.0409  -26.8630   19.5203 C   0  0  0  0  0  0
  -24.8717  -27.6524   19.5122 C   0  0  0  0  0  0
  -23.6370  -29.8032   20.1623 C   0  0  0  0  0  0
  -25.4116  -36.3072   24.0323 C   0  0  1  0  0  0
  -20.5876  -28.3686   23.1288 C   0  0  2  0  0  0
  -20.6770  -26.9407   22.5419 C   0  0  0  0  0  0
  -19.5753  -26.6384   21.5214 C   0  0  0  0  0  0
  -18.1927  -26.7929   22.1618 C   0  0  0  0  0  0
  -19.1533  -28.8852   23.2880 C   0  0  0  0  0  0
  -18.9455  -30.1452   23.8894 C   0  0  0  0  0  0
  -17.6457  -30.6585   24.0562 C   0  0  0  0  0  0
  -25.9054  -34.9445   23.5094 C   0  0  0  0  0  0
  -16.5346  -29.9086   23.6334 C   0  0  0  0  0  0
  -16.7268  -28.6503   23.0354 C   0  0  0  0  0  0
  -26.4494  -31.6582   25.0713 C   0  0  0  0  0  0
  -25.3730  -31.3730   26.1445 C   0  0  0  0  0  0
  -27.0352  -30.3004   24.6186 C   0  0  0  0  0  0
  -27.6035  -32.4338   25.7486 C   0  0  0  0  0  0
  -27.5579  -37.1800   24.8462 C   0  0  0  0  0  0
  -21.4179  -29.3038   22.3685 N   0  0  0  0  0  0
  -26.4291  -37.3771   23.9403 N   0  0  0  0  0  0
  -24.6881  -31.0580   22.0956 N   0  0  0  0  0  0
  -23.4176  -28.8166   23.3050 O   0  0  0  0  0  0
  -28.3650  -26.4942   20.0472 O   0  0  0  0  0  0
  -26.5631  -34.8918   22.4663 O   0  0  0  0  0  0
  -23.5428  -32.1375   23.7330 O   0  0  0  0  0  0
  -29.3044  -19.3600   19.5511 C   0  0  0  0  0  0
  -29.3667  -17.9304   19.5362 C   0  0  0  0  0  0
  -29.7049  -20.0940   20.7006 C   0  0  0  0  0  0
  -29.8585  -17.1904   20.6460 C   0  0  0  0  0  0
  -30.1588  -19.2653   21.7636 C   0  0  0  0  0  0
  -28.9197  -22.6504   19.8888 C   0  0  0  0  0  0
  -31.7867  -23.1984   21.5551 C   0  0  0  0  0  0
  -27.9812  -23.8039   20.4471 C   0  0  0  0  0  0
  -31.2873  -22.0676   20.6476 C   0  0  0  0  0  0
  -28.4779  -25.2702   20.8711 C   0  0  0  0  0  0
  -29.7871  -21.6857   20.8111 C   0  0  2  0  0  0
  -30.2307  -17.9061   21.7415 N   0  0  0  0  0  0
  -30.5912  -19.8164   22.9588 N   0  0  0  0  0  0
  -29.7203  -15.7332   20.6679 N   0  0  0  0  0  0
  -28.9557  -22.4799   18.6675 O   0  0  0  0  0  0
  -31.4847  -12.5539   19.1538 H   0  0  0  0  0  0
  -30.3927  -11.4253   19.9116 H   0  0  0  0  0  0
  -29.7837  -11.7437   17.4912 H   0  0  0  0  0  0
  -29.6434  -13.4677   17.7310 H   0  0  0  0  0  0
  -27.8774  -11.2842   18.8817 H   0  0  0  0  0  0
  -27.3789  -12.5517   17.7943 H   0  0  0  0  0  0
  -27.6550  -14.2445   19.4991 H   0  0  0  0  0  0
  -28.7166  -12.0762   21.3842 H   0  0  0  0  0  0
  -28.4385  -13.7351   21.8318 H   0  0  0  0  0  0
  -25.2748   -9.5695   22.4726 H   0  0  0  0  0  0
  -23.9992   -7.4642   22.7470 H   0  0  0  0  0  0
  -21.0805   -8.8746   19.8965 H   0  0  0  0  0  0
  -22.3640  -10.9654   19.6153 H   0  0  0  0  0  0
  -21.2024   -7.6139   23.9701 H   0  0  0  0  0  0
  -21.1477   -6.0515   25.9070 H   0  0  0  0  0  0
  -22.0600   -2.7593   23.2842 H   0  0  0  0  0  0
  -22.4091  -11.9924   22.4837 H   0  0  0  0  0  0
  -21.1090  -13.1277   22.2613 H   0  0  0  0  0  0
  -24.6427  -15.8314   20.5067 H   0  0  0  0  0  0
  -26.2487  -15.6314   20.0297 H   0  0  0  0  0  0
  -26.7178  -32.5419   23.1077 H   0  0  0  0  0  0
  -25.0052  -33.9699   25.0389 H   0  0  0  0  0  0
  -22.7150  -31.2981   21.3955 H   0  0  0  0  0  0
  -23.3744  -35.9631   23.3307 H   0  0  0  0  0  0
  -24.3574  -36.8914   22.2056 H   0  0  0  0  0  0
  -23.7247  -37.6496   23.6672 H   0  0  0  0  0  0
  -26.0952  -31.5423   20.6018 H   0  0  0  0  0  0
  -26.8413  -30.8332   22.0032 H   0  0  0  0  0  0
  -28.1262  -28.9924   21.1692 H   0  0  0  0  0  0
  -26.0207  -25.8966   19.0374 H   0  0  0  0  0  0
  -23.9783  -27.2733   19.0353 H   0  0  0  0  0  0
  -23.7578  -30.5746   19.4011 H   0  0  0  0  0  0
  -22.7565  -29.2319   19.8623 H   0  0  0  0  0  0
  -25.1295  -36.1920   25.0816 H   0  0  0  0  0  0
  -20.9960  -28.3268   24.1413 H   0  0  0  0  0  0
  -20.5665  -26.2293   23.3617 H   0  0  0  0  0  0
  -21.6641  -26.7441   22.1215 H   0  0  0  0  0  0
  -19.6918  -25.6297   21.1244 H   0  0  0  0  0  0
  -19.6700  -27.3192   20.6742 H   0  0  0  0  0  0
  -17.4198  -26.6675   21.4013 H   0  0  0  0  0  0
  -18.0324  -26.0064   22.9010 H   0  0  0  0  0  0
  -19.7931  -30.7269   24.2256 H   0  0  0  0  0  0
  -17.5014  -31.6265   24.5169 H   0  0  0  0  0  0
  -15.5346  -30.2988   23.7668 H   0  0  0  0  0  0
  -15.8663  -28.0825   22.7078 H   0  0  0  0  0  0
  -24.5876  -30.7116   25.7776 H   0  0  0  0  0  0
  -24.8963  -32.2907   26.4896 H   0  0  0  0  0  0
  -25.8050  -30.8875   27.0203 H   0  0  0  0  0  0
  -26.2941  -29.6748   24.1201 H   0  0  0  0  0  0
  -27.4036  -29.7264   25.4698 H   0  0  0  0  0  0
  -27.8807  -30.4286   23.9426 H   0  0  0  0  0  0
  -27.2615  -33.3620   26.2073 H   0  0  0  0  0  0
  -28.3834  -32.6938   25.0319 H   0  0  0  0  0  0
  -28.0726  -31.8476   26.5395 H   0  0  0  0  0  0
  -28.2594  -38.0099   24.7501 H   0  0  0  0  0  0
  -28.1073  -36.2626   24.6290 H   0  0  0  0  0  0
  -27.2300  -37.1456   25.8867 H   0  0  0  0  0  0
  -20.9364  -29.8725   21.6861 H   0  0  0  0  0  0
  -26.0169  -38.2844   24.1399 H   0  0  0  0  0  0
  -28.9510  -19.8743   18.6706 H   0  0  0  0  0  0
  -29.0204  -17.4064   18.6556 H   0  0  0  0  0  0
  -32.8729  -23.2793   21.4952 H   0  0  0  0  0  0
  -31.5269  -23.0209   22.5992 H   0  0  0  0  0  0
  -31.3888  -24.1640   21.2597 H   0  0  0  0  0  0
  -27.5221  -23.3664   21.3329 H   0  0  0  0  0  0
  -27.1538  -23.9137   19.7470 H   0  0  0  0  0  0
  -31.9163  -21.2043   20.8661 H   0  0  0  0  0  0
  -31.5105  -22.3027   19.6054 H   0  0  0  0  0  0
  -29.5293  -25.2011   21.1330 H   0  0  0  0  0  0
  -27.9924  -25.5029   21.8199 H   0  0  0  0  0  0
  -29.4794  -21.9191   21.8298 H   0  0  0  0  0  0
  -30.8478  -20.7941   22.9774 H   0  0  0  0  0  0
  -31.1496  -19.2343   23.5701 H   0  0  0  0  0  0
  -28.7744  -15.4201   20.8091 H   0  0  0  0  0  0
  1 25  1  0  0  0
  1 30  2  0  0  0
  1 84  1  0  0  0
  2  3  1  0  0  0
  2 25  1  0  0  0
  2 86  1  0  0  0
  2 87  1  0  0  0
  3  4  1  0  0  0
  3 88  1  0  0  0
  3 89  1  0  0  0
  4  5  1  0  0  0
  4 90  1  0  0  0
  4 91  1  0  0  0
  5  6  1  0  0  0
  5 26  1  0  0  0
  5 92  1  0  0  0
  6 25  1  0  0  0
  6 93  1  0  0  0
  6 94  1  0  0  0
  7  8  2  0  0  0
  7 26  1  0  0  0
  7 29  1  0  0  0
  8  9  1  0  0  0
  8 22  1  0  0  0
  9 10  1  0  0  0
  9 27  2  0  0  0
 10 11  2  0  0  0
 10 15  1  0  0  0
 11 12  1  0  0  0
 11 95  1  0  0  0
 12 13  2  0  0  0
 12 96  1  0  0  0
 13 14  1  0  0  0
 13 31  1  0  0  0
 14 15  2  0  0  0
 14 97  1  0  0  0
 15 98  1  0  0  0
 16 17  2  0  0  0
 16 21  1  0  0  0
 16 31  1  0  0  0
 17 18  1  0  0  0
 17 99  1  0  0  0
 18 19  2  0  0  0
 18100  1  0  0  0
 19 20  1  0  0  0
 19 24  1  0  0  0
 20 21  2  0  0  0
 20101  1  0  0  0
 21 23  1  0  0  0
 22 28  1  0  0  0
 22 32  2  0  0  0
 26 27  1  0  0  0
 28102  1  0  0  0
 28103  1  0  0  0
 29104  1  0  0  0
 29105  1  0  0  0
 33 34  1  0  0  0
 33 66  1  0  0  0
 33 70  2  0  0  0
 34 36  1  0  0  0
 34 59  1  0  0  0
 34106  1  0  0  0
 35 44  2  0  0  0
 35 45  1  0  0  0
 35 68  1  0  0  0
 36 56  1  0  0  0
 36107  1  0  0  0
 37 39  1  0  0  0
 37 47  1  0  0  0
 37 66  1  0  0  0
 37108  1  0  0  0
 38 43  2  0  0  0
 38 46  1  0  0  0
 38 47  1  0  0  0
 39 64  1  0  0  0
 39 67  2  0  0  0
 40 52  1  0  0  0
 40 53  2  0  0  0
 40 58  1  0  0  0
 41109  1  0  0  0
 41110  1  0  0  0
 41111  1  0  0  0
 41 48  1  0  0  0
 42 43  1  0  0  0
 42 66  1  0  0  0
 42112  1  0  0  0
 42113  1  0  0  0
 43 44  1  0  0  0
 44114  1  0  0  0
 45 46  2  0  0  0
 45115  1  0  0  0
 46116  1  0  0  0
 47117  1  0  0  0
 47118  1  0  0  0
 48 56  1  0  0  0
 48 65  1  0  0  0
 48119  1  0  0  0
 49 50  1  0  0  0
 49 53  1  0  0  0
 49 64  1  0  0  0
 49120  1  0  0  0
 50 51  1  0  0  0
 50121  1  0  0  0
 50122  1  0  0  0
 51 52  1  0  0  0
 51123  1  0  0  0
 51124  1  0  0  0
 52125  1  0  0  0
 52126  1  0  0  0
 53 54  1  0  0  0
 54 55  2  0  0  0
 54127  1  0  0  0
 55 57  1  0  0  0
 55128  1  0  0  0
 56 69  2  0  0  0
 57 58  2  0  0  0
 57129  1  0  0  0
 58130  1  0  0  0
 59 60  1  0  0  0
 59 61  1  0  0  0
 59 62  1  0  0  0
 60131  1  0  0  0
 60132  1  0  0  0
 60133  1  0  0  0
 61134  1  0  0  0
 61135  1  0  0  0
 61136  1  0  0  0
 62137  1  0  0  0
 62138  1  0  0  0
 62139  1  0  0  0
 63 65  1  0  0  0
 63140  1  0  0  0
 63141  1  0  0  0
 63142  1  0  0  0
 64143  1  0  0  0
 65144  1  0  0  0
 68 80  1  0  0  0
 71 72  2  0  0  0
 71 73  1  0  0  0
 71145  1  0  0  0
 72 74  1  0  0  0
 72146  1  0  0  0
 73 75  2  0  0  0
 73 81  1  0  0  0
 74 82  2  0  0  0
 74 84  1  0  0  0
 75 82  1  0  0  0
 75 83  1  0  0  0
 76 78  1  0  0  0
 76 81  1  0  0  0
 76 85  2  0  0  0
 77 79  1  0  0  0
 77147  1  0  0  0
 77148  1  0  0  0
 77149  1  0  0  0
 78 80  1  0  0  0
 78150  1  0  0  0
 78151  1  0  0  0
 79152  1  0  0  0
 79153  1  0  0  0
 79 81  1  0  0  0
 80154  1  0  0  0
 80155  1  0  0  0
 81156  1  0  0  0
 83157  1  0  0  0
 83158  1  0  0  0
 84159  1  0  0  0
M  ISO  4   1 100  68 101  80 101  84 100
M  END
> <chiral flag>
0

> <version>
0

> <s_m_source_file>
/data/baiqing/PycharmProjects/Reinvent-master-3.2/result/LINK_invent/BTK/process_docking_weight1_custom_product_contain_oxygen_bond_distance_aromatic_linkinvent_7_9_3/rearranged_h_0177.sdf

> <i_m_source_file_index>
77

> <r_mmod_Potential_Energy-OPLS-2005>
-126.844818115234

> <r_mmod_Stretch_Energy-OPLS-2005>
89.4792633056641

> <r_mmod_Bend_Energy-OPLS-2005>
188.14013671875

> <r_mmod_Torsional_Energy-OPLS-2005>
278.154083251953

> <r_mmod_Improper_Torsional_Energy-OPLS-2005>
10.5079650878906

> <r_mmod_Van_der_Waal_Energy-OPLS-2005>
135.650375366211

> <r_mmod_Electrostatic_Energy-OPLS-2005>
-641.954406738281

> <r_mmod_Solvation_Energy-OPLS-2005>
-243.090103149414

> <b_mmod_Minimization_Converged-OPLS-2005>
0

> <r_mmod_RMS_Derivative-OPLS-2005>
1.60141754150391

$$$$
77
                    3D
 Structure written by MMmdl.
166174  0  0  1  0            999 V2000
  -30.7469  -14.3950   20.6626 C   0  0  0  0  0  0
  -30.4168  -12.3014   19.3948 C   0  0  0  0  0  0
  -29.4824  -12.5230   18.1906 C   0  0  0  0  0  0
  -28.0067  -12.3783   18.6088 C   0  0  0  0  0  0
  -27.6621  -13.2043   19.8762 C   0  0  2  0  0  0
  -28.7009  -12.9529   20.9901 C   0  0  0  0  0  0
  -25.2588  -13.8162   20.5678 C   0  0  0  0  0  0
  -24.1836  -13.0439   20.9174 C   0  0  0  0  0  0
  -24.6385  -11.6906   20.8729 C   0  0  0  0  0  0
  -23.9054  -10.4293   21.0405 C   0  0  0  0  0  0
  -24.3610   -9.4210   21.9183 C   0  0  0  0  0  0
  -23.6289   -8.2244   22.0754 C   0  0  0  0  0  0
  -22.4272   -8.0280   21.3543 C   0  0  0  0  0  0
  -21.9904   -9.0253   20.4646 C   0  0  0  0  0  0
  -22.7228  -10.2135   20.3055 C   0  0  0  0  0  0
  -21.6852   -6.0735   22.5281 C   0  0  0  0  0  0
  -21.4012   -6.5640   23.8214 C   0  0  0  0  0  0
  -21.3660   -5.6792   24.9177 C   0  0  0  0  0  0
  -21.6045   -4.3055   24.7226 C   0  0  0  0  0  0
  -21.8819   -3.8147   23.4347 C   0  0  0  0  0  0
  -21.9191   -4.6963   22.3404 C   0  0  0  0  0  0
  -22.7861  -13.5240   21.1844 C   0  0  0  0  0  0
  -22.1661   -4.2149   21.0981 F   0  0  0  0  0  0
  -21.5629   -3.4539   25.7740 F   0  0  0  0  0  0
  -30.0380  -13.2564   20.4466 N   0  0  0  0  0  0
  -26.3021  -12.9325   20.3365 N   0  0  0  0  0  0
  -25.9307  -11.6487   20.5752 N   0  0  0  0  0  0
  -22.0501  -12.8234   22.0403 N   0  0  0  0  0  0
  -25.4321  -15.1877   20.4093 N   0  0  0  0  0  0
  -31.8105  -14.6475   20.0897 O   0  0  0  0  0  0
  -21.6636   -6.8877   21.4242 O   0  0  0  0  0  0
  -22.3549  -14.5549   20.6700 O   0  0  0  0  0  0
  -24.6126  -31.8696   23.2112 C   0  0  0  0  0  0
  -25.9025  -32.4830   23.8400 C   0  0  1  0  0  0
  -27.2322  -27.4455   20.0876 C   0  0  0  0  0  0
  -25.5883  -33.8628   24.2326 N   0  0  0  0  0  0
  -23.3992  -30.4941   21.5522 C   0  0  2  0  0  0
  -24.8425  -28.9599   20.1184 C   0  0  0  0  0  0
  -22.7390  -29.4674   22.5003 C   0  0  0  0  0  0
  -18.0270  -28.1374   22.8506 C   0  0  0  0  0  0
  -24.1488  -36.7321   23.2639 C   0  0  0  0  0  0
  -25.9276  -30.8390   21.3614 C   0  0  0  0  0  0
  -26.0032  -29.4746   20.7073 C   0  0  0  0  0  0
  -27.2004  -28.7265   20.6832 C   0  0  0  0  0  0
  -26.0476  -26.9365   19.5094 C   0  0  0  0  0  0
  -24.8590  -27.6893   19.5183 C   0  0  0  0  0  0
  -23.6057  -29.8267   20.1670 C   0  0  0  0  0  0
  -25.4109  -36.3114   24.0340 C   0  0  1  0  0  0
  -20.5858  -28.3657   23.1336 C   0  0  2  0  0  0
  -20.6760  -26.9396   22.5423 C   0  0  0  0  0  0
  -19.5737  -26.6387   21.5220 C   0  0  0  0  0  0
  -18.1917  -26.7923   22.1634 C   0  0  0  0  0  0
  -19.1519  -28.8830   23.2922 C   0  0  0  0  0  0
  -18.9444  -30.1438   23.8930 C   0  0  0  0  0  0
  -17.6448  -30.6585   24.0568 C   0  0  0  0  0  0
  -25.9035  -34.9480   23.5132 C   0  0  0  0  0  0
  -16.5338  -29.9090   23.6322 C   0  0  0  0  0  0
  -16.7259  -28.6502   23.0352 C   0  0  0  0  0  0
  -26.4462  -31.6604   25.0719 C   0  0  0  0  0  0
  -25.3737  -31.3705   26.1475 C   0  0  0  0  0  0
  -27.0282  -30.3044   24.6086 C   0  0  0  0  0  0
  -27.6039  -32.4327   25.7471 C   0  0  0  0  0  0
  -27.5590  -37.1807   24.8463 C   0  0  0  0  0  0
  -21.4119  -29.3035   22.3742 N   0  0  0  0  0  0
  -26.4298  -37.3796   23.9416 N   0  0  0  0  0  0
  -24.6650  -31.0814   22.1004 N   0  0  0  0  0  0
  -23.4170  -28.8215   23.3038 O   0  0  0  0  0  0
  -28.4278  -26.7591   20.0797 O   0  0  0  0  0  0
  -26.5606  -34.8927   22.4698 O   0  0  0  0  0  0
  -23.5324  -32.1444   23.7516 O   0  0  0  0  0  0
  -29.4777  -18.0842   20.9611 C   0  0  0  0  0  0
  -29.2935  -19.3234   20.3099 C   0  0  0  0  0  0
  -31.6657  -19.7875   20.5556 C   0  0  0  0  0  0
  -30.7519  -17.6876   21.4351 C   0  0  0  0  0  0
  -31.8541  -18.5607   21.2269 C   0  0  0  0  0  0
  -30.3922  -20.1890   20.1076 C   0  0  0  0  0  0
  -29.2951  -22.3093   19.3371 C   0  0  0  0  0  0
  -33.2553  -18.2205   21.7119 C   0  0  0  0  0  0
  -29.0786  -25.8429   17.5547 C   0  0  0  0  0  0
  -29.5975  -23.5579   18.4867 C   0  0  0  0  0  0
  -28.4322  -25.3267   19.9846 C   0  0  0  0  0  0
  -30.9146  -16.3519   22.1877 C   0  0  1  0  0  0
  -28.6109  -24.7591   18.5450 C   0  0  1  0  0  0
  -30.4595  -16.4435   23.6602 C   0  0  0  0  0  0
  -30.3096  -21.4293   19.4163 N   0  0  0  0  0  0
  -30.2190  -15.2294   21.5609 N   0  0  0  0  0  0
  -28.2106  -22.1601   19.9046 O   0  0  0  0  0  0
  -27.4254  -24.3462   18.0906 F   0  0  0  0  0  0
  -31.0795  -17.4395   24.2931 F   0  0  0  0  0  0
  -29.1406  -16.6349   23.7306 F   0  0  0  0  0  0
  -30.7505  -15.3033   24.2893 F   0  0  0  0  0  0
  -31.4589  -12.4071   19.0872 H   0  0  0  0  0  0
  -30.3216  -11.2809   19.7693 H   0  0  0  0  0  0
  -29.7159  -11.8129   17.3961 H   0  0  0  0  0  0
  -29.6501  -13.5168   17.7721 H   0  0  0  0  0  0
  -27.8151  -11.3205   18.7928 H   0  0  0  0  0  0
  -27.3524  -12.6655   17.7848 H   0  0  0  0  0  0
  -27.7171  -14.2575   19.5994 H   0  0  0  0  0  0
  -28.6702  -11.9087   21.3047 H   0  0  0  0  0  0
  -28.4469  -13.5250   21.8826 H   0  0  0  0  0  0
  -25.2757   -9.5687   22.4756 H   0  0  0  0  0  0
  -23.9999   -7.4636   22.7474 H   0  0  0  0  0  0
  -21.0837   -8.8769   19.8952 H   0  0  0  0  0  0
  -22.3685  -10.9672   19.6164 H   0  0  0  0  0  0
  -21.2004   -7.6147   23.9716 H   0  0  0  0  0  0
  -21.1483   -6.0523   25.9080 H   0  0  0  0  0  0
  -22.0598   -2.7608   23.2848 H   0  0  0  0  0  0
  -22.4107  -11.9885   22.4783 H   0  0  0  0  0  0
  -21.1121  -13.1266   22.2612 H   0  0  0  0  0  0
  -24.6681  -15.8456   20.5197 H   0  0  0  0  0  0
  -26.2882  -15.6251   20.0928 H   0  0  0  0  0  0
  -26.7092  -32.5544   23.1163 H   0  0  0  0  0  0
  -24.9992  -33.9794   25.0441 H   0  0  0  0  0  0
  -22.6875  -31.3107   21.4145 H   0  0  0  0  0  0
  -23.3751  -35.9653   23.3300 H   0  0  0  0  0  0
  -24.3583  -36.8943   22.2054 H   0  0  0  0  0  0
  -23.7241  -37.6523   23.6658 H   0  0  0  0  0  0
  -26.0386  -31.6065   20.5942 H   0  0  0  0  0  0
  -26.8167  -30.8910   21.9785 H   0  0  0  0  0  0
  -28.1014  -29.1262   21.1280 H   0  0  0  0  0  0
  -26.0227  -25.9674   19.0390 H   0  0  0  0  0  0
  -23.9649  -27.2852   19.0643 H   0  0  0  0  0  0
  -23.7152  -30.6016   19.4072 H   0  0  0  0  0  0
  -22.7293  -29.2471   19.8715 H   0  0  0  0  0  0
  -25.1284  -36.1980   25.0833 H   0  0  0  0  0  0
  -20.9960  -28.3217   24.1452 H   0  0  0  0  0  0
  -20.5673  -26.2254   23.3600 H   0  0  0  0  0  0
  -21.6628  -26.7448   22.1208 H   0  0  0  0  0  0
  -19.6893  -25.6307   21.1230 H   0  0  0  0  0  0
  -19.6676  -27.3210   20.6761 H   0  0  0  0  0  0
  -17.4187  -26.6687   21.4034 H   0  0  0  0  0  0
  -18.0307  -26.0058   22.9020 H   0  0  0  0  0  0
  -19.7919  -30.7245   24.2313 H   0  0  0  0  0  0
  -17.5002  -31.6268   24.5162 H   0  0  0  0  0  0
  -15.5338  -30.3000   23.7627 H   0  0  0  0  0  0
  -15.8660  -28.0827   22.7054 H   0  0  0  0  0  0
  -24.5886  -30.7085   25.7806 H   0  0  0  0  0  0
  -24.8955  -32.2861   26.4963 H   0  0  0  0  0  0
  -25.8092  -30.8829   27.0205 H   0  0  0  0  0  0
  -26.2814  -29.6809   24.1154 H   0  0  0  0  0  0
  -27.4067  -29.7276   25.4537 H   0  0  0  0  0  0
  -27.8645  -30.4362   23.9217 H   0  0  0  0  0  0
  -27.2656  -33.3620   26.2070 H   0  0  0  0  0  0
  -28.3821  -32.6907   25.0276 H   0  0  0  0  0  0
  -28.0734  -31.8446   26.5365 H   0  0  0  0  0  0
  -28.2592  -38.0121   24.7529 H   0  0  0  0  0  0
  -28.1104  -36.2651   24.6263 H   0  0  0  0  0  0
  -27.2311  -37.1427   25.8866 H   0  0  0  0  0  0
  -20.9256  -29.8757   21.6981 H   0  0  0  0  0  0
  -26.0190  -38.2875   24.1425 H   0  0  0  0  0  0
  -28.6218  -17.4405   21.1083 H   0  0  0  0  0  0
  -28.3065  -19.5906   19.9593 H   0  0  0  0  0  0
  -32.5143  -20.4386   20.3940 H   0  0  0  0  0  0
  -33.9478  -19.0467   21.5473 H   0  0  0  0  0  0
  -33.6475  -17.3538   21.1787 H   0  0  0  0  0  0
  -33.2591  -18.0067   22.7811 H   0  0  0  0  0  0
  -30.0349  -26.2701   17.8578 H   0  0  0  0  0  0
  -28.3583  -26.6584   17.4858 H   0  0  0  0  0  0
  -29.1994  -25.4373   16.5498 H   0  0  0  0  0  0
  -29.6809  -23.2195   17.4534 H   0  0  0  0  0  0
  -30.5903  -23.9154   18.7632 H   0  0  0  0  0  0
  -29.2871  -25.0200   20.5875 H   0  0  0  0  0  0
  -27.5697  -24.8830   20.4845 H   0  0  0  0  0  0
  -31.9710  -16.0883   22.2185 H   0  0  0  0  0  0
  -31.1669  -21.7334   18.9748 H   0  0  0  0  0  0
  -29.3475  -14.9590   21.9880 H   0  0  0  0  0  0
  1 25  1  0  0  0
  1 30  2  0  0  0
  1 86  1  0  0  0
  2  3  1  0  0  0
  2 25  1  0  0  0
  2 92  1  0  0  0
  2 93  1  0  0  0
  3  4  1  0  0  0
  3 94  1  0  0  0
  3 95  1  0  0  0
  4  5  1  0  0  0
  4 96  1  0  0  0
  4 97  1  0  0  0
  5  6  1  0  0  0
  5 26  1  0  0  0
  5 98  1  0  0  0
  6 25  1  0  0  0
  6 99  1  0  0  0
  6100  1  0  0  0
  7  8  2  0  0  0
  7 26  1  0  0  0
  7 29  1  0  0  0
  8  9  1  0  0  0
  8 22  1  0  0  0
  9 10  1  0  0  0
  9 27  2  0  0  0
 10 11  2  0  0  0
 10 15  1  0  0  0
 11 12  1  0  0  0
 11101  1  0  0  0
 12 13  2  0  0  0
 12102  1  0  0  0
 13 14  1  0  0  0
 13 31  1  0  0  0
 14 15  2  0  0  0
 14103  1  0  0  0
 15104  1  0  0  0
 16 17  2  0  0  0
 16 21  1  0  0  0
 16 31  1  0  0  0
 17 18  1  0  0  0
 17105  1  0  0  0
 18 19  2  0  0  0
 18106  1  0  0  0
 19 20  1  0  0  0
 19 24  1  0  0  0
 20 21  2  0  0  0
 20107  1  0  0  0
 21 23  1  0  0  0
 22 28  1  0  0  0
 22 32  2  0  0  0
 26 27  1  0  0  0
 28108  1  0  0  0
 28109  1  0  0  0
 29110  1  0  0  0
 29111  1  0  0  0
 33 34  1  0  0  0
 33 66  1  0  0  0
 33 70  2  0  0  0
 34 36  1  0  0  0
 34 59  1  0  0  0
 34112  1  0  0  0
 35 44  2  0  0  0
 35 45  1  0  0  0
 35 68  1  0  0  0
 36 56  1  0  0  0
 36113  1  0  0  0
 37 39  1  0  0  0
 37 47  1  0  0  0
 37 66  1  0  0  0
 37114  1  0  0  0
 38 43  2  0  0  0
 38 46  1  0  0  0
 38 47  1  0  0  0
 39 64  1  0  0  0
 39 67  2  0  0  0
 40 52  1  0  0  0
 40 53  2  0  0  0
 40 58  1  0  0  0
 41115  1  0  0  0
 41116  1  0  0  0
 41117  1  0  0  0
 41 48  1  0  0  0
 42 43  1  0  0  0
 42 66  1  0  0  0
 42118  1  0  0  0
 42119  1  0  0  0
 43 44  1  0  0  0
 44120  1  0  0  0
 45 46  2  0  0  0
 45121  1  0  0  0
 46122  1  0  0  0
 47123  1  0  0  0
 47124  1  0  0  0
 48 56  1  0  0  0
 48 65  1  0  0  0
 48125  1  0  0  0
 49 50  1  0  0  0
 49 53  1  0  0  0
 49 64  1  0  0  0
 49126  1  0  0  0
 50 51  1  0  0  0
 50127  1  0  0  0
 50128  1  0  0  0
 51 52  1  0  0  0
 51129  1  0  0  0
 51130  1  0  0  0
 52131  1  0  0  0
 52132  1  0  0  0
 53 54  1  0  0  0
 54 55  2  0  0  0
 54133  1  0  0  0
 55 57  1  0  0  0
 55134  1  0  0  0
 56 69  2  0  0  0
 57 58  2  0  0  0
 57135  1  0  0  0
 58136  1  0  0  0
 59 60  1  0  0  0
 59 61  1  0  0  0
 59 62  1  0  0  0
 60137  1  0  0  0
 60138  1  0  0  0
 60139  1  0  0  0
 61140  1  0  0  0
 61141  1  0  0  0
 61142  1  0  0  0
 62143  1  0  0  0
 62144  1  0  0  0
 62145  1  0  0  0
 63 65  1  0  0  0
 63146  1  0  0  0
 63147  1  0  0  0
 63148  1  0  0  0
 64149  1  0  0  0
 65150  1  0  0  0
 68 81  1  0  0  0
 71 72  2  0  0  0
 71 74  1  0  0  0
 71151  1  0  0  0
 72 76  1  0  0  0
 72152  1  0  0  0
 73 75  1  0  0  0
 73 76  2  0  0  0
 73153  1  0  0  0
 74 75  2  0  0  0
 74 82  1  0  0  0
 75 78  1  0  0  0
 76 85  1  0  0  0
 77 80  1  0  0  0
 77 85  1  0  0  0
 77 87  2  0  0  0
 78154  1  0  0  0
 78155  1  0  0  0
 78156  1  0  0  0
 79157  1  0  0  0
 79158  1  0  0  0
 79159  1  0  0  0
 79 83  1  0  0  0
 80 83  1  0  0  0
 80160  1  0  0  0
 80161  1  0  0  0
 81 83  1  0  0  0
 81162  1  0  0  0
 81163  1  0  0  0
 82 84  1  0  0  0
 82 86  1  0  0  0
 82164  1  0  0  0
 83 88  1  0  0  0
 84 89  1  0  0  0
 84 90  1  0  0  0
 84 91  1  0  0  0
 85165  1  0  0  0
 86166  1  0  0  0
M  ISO  4   1 100  68 101  81 101  86 100
M  END
> <chiral flag>
0

> <version>
0

> <s_m_source_file>
/data/baiqing/PycharmProjects/Reinvent-master-3.2/result/LINK_invent/BTK/process_docking_weight1_custom_product_contain_oxygen_bond_distance_aromatic_linkinvent_7_9_3/rearranged_h_0177.sdf

> <i_m_source_file_index>
78

> <r_mmod_Potential_Energy-OPLS-2005>
-161.188247680664

> <r_mmod_Stretch_Energy-OPLS-2005>
37.3281097412109

> <r_mmod_Bend_Energy-OPLS-2005>
113.269821166992

> <r_mmod_Torsional_Energy-OPLS-2005>
206.84635925293

> <r_mmod_Improper_Torsional_Energy-OPLS-2005>
2.34526872634888

> <r_mmod_Van_der_Waal_Energy-OPLS-2005>
160.692977905273

> <r_mmod_Electrostatic_Energy-OPLS-2005>
-475.947174072266

> <r_mmod_Solvation_Energy-OPLS-2005>
-214.085739135742

> <b_mmod_Minimization_Converged-OPLS-2005>
0

> <r_mmod_RMS_Derivative-OPLS-2005>
0.554564774036407

$$$$
78
                    3D
 Structure written by MMmdl.
152160  0  0  1  0            999 V2000
  -30.6856  -14.5324   20.5082 C   0  0  0  0  0  0
  -30.4255  -12.3271   19.4457 C   0  0  0  0  0  0
  -29.5053  -12.4924   18.2181 C   0  0  0  0  0  0
  -28.0256  -12.3560   18.6236 C   0  0  0  0  0  0
  -27.6586  -13.2130   19.8648 C   0  0  2  0  0  0
  -28.7001  -13.0501   20.9959 C   0  0  0  0  0  0
  -25.2585  -13.8155   20.5670 C   0  0  0  0  0  0
  -24.1841  -13.0436   20.9169 C   0  0  0  0  0  0
  -24.6408  -11.6901   20.8717 C   0  0  0  0  0  0
  -23.9062  -10.4288   21.0383 C   0  0  0  0  0  0
  -24.3608   -9.4207   21.9158 C   0  0  0  0  0  0
  -23.6291   -8.2236   22.0734 C   0  0  0  0  0  0
  -22.4259   -8.0284   21.3541 C   0  0  0  0  0  0
  -21.9891   -9.0256   20.4638 C   0  0  0  0  0  0
  -22.7227  -10.2126   20.3047 C   0  0  0  0  0  0
  -21.6853   -6.0729   22.5276 C   0  0  0  0  0  0
  -21.4017   -6.5616   23.8212 C   0  0  0  0  0  0
  -21.3660   -5.6773   24.9177 C   0  0  0  0  0  0
  -21.6048   -4.3045   24.7213 C   0  0  0  0  0  0
  -21.8822   -3.8136   23.4335 C   0  0  0  0  0  0
  -21.9194   -4.6958   22.3397 C   0  0  0  0  0  0
  -22.7869  -13.5245   21.1854 C   0  0  0  0  0  0
  -22.1664   -4.2152   21.0970 F   0  0  0  0  0  0
  -21.5628   -3.4521   25.7721 F   0  0  0  0  0  0
  -30.0258  -13.3422   20.4334 N   0  0  0  0  0  0
  -26.3009  -12.9336   20.3290 N   0  0  0  0  0  0
  -25.9330  -11.6496   20.5699 N   0  0  0  0  0  0
  -22.0519  -12.8243   22.0414 N   0  0  0  0  0  0
  -25.4303  -15.1867   20.4073 N   0  0  0  0  0  0
  -31.8486  -14.6670   20.1212 O   0  0  0  0  0  0
  -21.6630   -6.8870   21.4245 O   0  0  0  0  0  0
  -22.3551  -14.5568   20.6737 O   0  0  0  0  0  0
  -24.6178  -31.8647   23.2053 C   0  0  0  0  0  0
  -25.9063  -32.4804   23.8348 C   0  0  1  0  0  0
  -27.2264  -27.4035   20.1149 C   0  0  0  0  0  0
  -25.5916  -33.8599   24.2286 N   0  0  0  0  0  0
  -23.4071  -30.4870   21.5467 C   0  0  2  0  0  0
  -24.8555  -28.9492   20.1108 C   0  0  0  0  0  0
  -22.7429  -29.4644   22.4966 C   0  0  0  0  0  0
  -18.0283  -28.1378   22.8491 C   0  0  0  0  0  0
  -24.1495  -36.7303   23.2629 C   0  0  0  0  0  0
  -25.9387  -30.8234   21.3611 C   0  0  0  0  0  0
  -26.0173  -29.4560   20.7092 C   0  0  0  0  0  0
  -27.2104  -28.6918   20.7042 C   0  0  0  0  0  0
  -26.0538  -26.9193   19.5018 C   0  0  0  0  0  0
  -24.8708  -27.6834   19.4984 C   0  0  0  0  0  0
  -23.6170  -29.8166   20.1617 C   0  0  0  0  0  0
  -25.4111  -36.3090   24.0328 C   0  0  1  0  0  0
  -20.5880  -28.3667   23.1314 C   0  0  2  0  0  0
  -20.6775  -26.9394   22.5432 C   0  0  0  0  0  0
  -19.5753  -26.6381   21.5220 C   0  0  0  0  0  0
  -18.1927  -26.7927   22.1620 C   0  0  0  0  0  0
  -19.1535  -28.8838   23.2905 C   0  0  0  0  0  0
  -18.9462  -30.1445   23.8916 C   0  0  0  0  0  0
  -17.6460  -30.6579   24.0572 C   0  0  0  0  0  0
  -25.9046  -34.9462   23.5103 C   0  0  0  0  0  0
  -16.5353  -29.9083   23.6327 C   0  0  0  0  0  0
  -16.7272  -28.6506   23.0340 C   0  0  0  0  0  0
  -26.4486  -31.6588   25.0686 C   0  0  0  0  0  0
  -25.3761  -31.3738   26.1446 C   0  0  0  0  0  0
  -27.0286  -30.3014   24.6071 C   0  0  0  0  0  0
  -27.6062  -32.4318   25.7435 C   0  0  0  0  0  0
  -27.5598  -37.1778   24.8443 C   0  0  0  0  0  0
  -21.4154  -29.3026   22.3709 N   0  0  0  0  0  0
  -26.4285  -37.3790   23.9426 N   0  0  0  0  0  0
  -24.6732  -31.0738   22.0957 N   0  0  0  0  0  0
  -23.4195  -28.8177   23.3010 O   0  0  0  0  0  0
  -28.3476  -26.5997   20.1460 O   0  0  0  0  0  0
  -26.5613  -34.8929   22.4670 O   0  0  0  0  0  0
  -23.5371  -32.1405   23.7447 O   0  0  0  0  0  0
  -29.6137  -17.8906   22.6658 C   0  0  0  0  0  0
  -29.0148  -20.2246   22.9069 C   0  0  0  0  0  0
  -29.2262  -18.9604   23.4792 C   0  0  0  0  0  0
  -29.7809  -18.1252   21.2929 C   0  0  0  0  0  0
  -29.1840  -20.4152   21.5166 C   0  0  0  0  0  0
  -28.5802  -24.0974   20.4552 C   0  0  0  0  0  0
  -28.4300  -22.8493   21.4006 C   0  0  0  0  0  0
  -30.2605  -16.9987   20.3660 C   0  0  0  0  0  0
  -28.2285  -25.4829   21.0687 C   0  0  0  0  0  0
  -29.5718  -19.3570   20.7432 N   0  0  0  0  0  0
  -29.0083  -21.7147   20.9202 N   0  0  0  0  0  0
  -29.9245  -15.6141   20.7756 N   0  0  0  0  0  0
  -28.9602  -23.9880   19.2808 O   0  0  0  0  0  0
  -27.8066  -22.9354   22.4662 O   0  0  0  0  0  0
  -29.0664  -18.7806   24.8124 F   0  0  0  0  0  0
  -31.4718  -12.4207   19.1494 H   0  0  0  0  0  0
  -30.3250  -11.3294   19.8741 H   0  0  0  0  0  0
  -29.7538  -11.7509   17.4601 H   0  0  0  0  0  0
  -29.6715  -13.4673   17.7567 H   0  0  0  0  0  0
  -27.8365  -11.3014   18.8294 H   0  0  0  0  0  0
  -27.3851  -12.6248   17.7835 H   0  0  0  0  0  0
  -27.6854  -14.2512   19.5356 H   0  0  0  0  0  0
  -28.6819  -12.0318   21.3895 H   0  0  0  0  0  0
  -28.4642  -13.7024   21.8387 H   0  0  0  0  0  0
  -25.2745   -9.5687   22.4748 H   0  0  0  0  0  0
  -24.0008   -7.4605   22.7433 H   0  0  0  0  0  0
  -21.0820   -8.8771   19.8933 H   0  0  0  0  0  0
  -22.3670  -10.9672   19.6168 H   0  0  0  0  0  0
  -21.2015   -7.6124   23.9718 H   0  0  0  0  0  0
  -21.1483   -6.0499   25.9078 H   0  0  0  0  0  0
  -22.0612   -2.7607   23.2832 H   0  0  0  0  0  0
  -22.4116  -11.9886   22.4782 H   0  0  0  0  0  0
  -21.1159  -13.1297   22.2649 H   0  0  0  0  0  0
  -24.6633  -15.8419   20.5099 H   0  0  0  0  0  0
  -26.2749  -15.6243   20.0634 H   0  0  0  0  0  0
  -26.7130  -32.5498   23.1105 H   0  0  0  0  0  0
  -25.0102  -33.9758   25.0462 H   0  0  0  0  0  0
  -22.6968  -31.3041   21.4047 H   0  0  0  0  0  0
  -23.3753  -35.9635   23.3279 H   0  0  0  0  0  0
  -24.3607  -36.8935   22.2051 H   0  0  0  0  0  0
  -23.7254  -37.6504   23.6661 H   0  0  0  0  0  0
  -26.0586  -31.5887   20.5929 H   0  0  0  0  0  0
  -26.8246  -30.8756   21.9824 H   0  0  0  0  0  0
  -28.1062  -29.0742   21.1734 H   0  0  0  0  0  0
  -26.0516  -25.9428   19.0371 H   0  0  0  0  0  0
  -23.9798  -27.2895   19.0295 H   0  0  0  0  0  0
  -23.7233  -30.5881   19.3983 H   0  0  0  0  0  0
  -22.7406  -29.2351   19.8694 H   0  0  0  0  0  0
  -25.1287  -36.1927   25.0813 H   0  0  0  0  0  0
  -20.9987  -28.3241   24.1428 H   0  0  0  0  0  0
  -20.5672  -26.2266   23.3622 H   0  0  0  0  0  0
  -21.6646  -26.7425   22.1228 H   0  0  0  0  0  0
  -19.6909  -25.6294   21.1242 H   0  0  0  0  0  0
  -19.6692  -27.3197   20.6754 H   0  0  0  0  0  0
  -17.4201  -26.6694   21.4012 H   0  0  0  0  0  0
  -18.0303  -26.0066   22.9008 H   0  0  0  0  0  0
  -19.7937  -30.7263   24.2285 H   0  0  0  0  0  0
  -17.5014  -31.6257   24.5174 H   0  0  0  0  0  0
  -15.5354  -30.2984   23.7644 H   0  0  0  0  0  0
  -15.8675  -28.0828   22.7037 H   0  0  0  0  0  0
  -24.5906  -30.7102   25.7811 H   0  0  0  0  0  0
  -24.8990  -32.2916   26.4891 H   0  0  0  0  0  0
  -25.8131  -30.8913   27.0200 H   0  0  0  0  0  0
  -26.2796  -29.6779   24.1172 H   0  0  0  0  0  0
  -27.4082  -29.7257   25.4526 H   0  0  0  0  0  0
  -27.8635  -30.4296   23.9178 H   0  0  0  0  0  0
  -27.2661  -33.3594   26.2052 H   0  0  0  0  0  0
  -28.3838  -32.6923   25.0244 H   0  0  0  0  0  0
  -28.0763  -31.8423   26.5322 H   0  0  0  0  0  0
  -28.2562  -38.0127   24.7579 H   0  0  0  0  0  0
  -28.1150  -36.2673   24.6140 H   0  0  0  0  0  0
  -27.2351  -37.1282   25.8850 H   0  0  0  0  0  0
  -20.9312  -29.8740   21.6929 H   0  0  0  0  0  0
  -26.0161  -38.2847   24.1491 H   0  0  0  0  0  0
  -29.8001  -16.9183   23.0992 H   0  0  0  0  0  0
  -28.7329  -21.0274   23.5702 H   0  0  0  0  0  0
  -31.3393  -17.1177   20.2537 H   0  0  0  0  0  0
  -29.8372  -17.1587   19.3727 H   0  0  0  0  0  0
  -28.9028  -25.6590   21.9081 H   0  0  0  0  0  0
  -27.2234  -25.4243   21.4912 H   0  0  0  0  0  0
  -29.3734  -21.8217   19.9840 H   0  0  0  0  0  0
  -28.9715  -15.4493   21.0530 H   0  0  0  0  0  0
  1 25  1  0  0  0
  1 30  2  0  0  0
  1 82  1  0  0  0
  2  3  1  0  0  0
  2 25  1  0  0  0
  2 86  1  0  0  0
  2 87  1  0  0  0
  3  4  1  0  0  0
  3 88  1  0  0  0
  3 89  1  0  0  0
  4  5  1  0  0  0
  4 90  1  0  0  0
  4 91  1  0  0  0
  5  6  1  0  0  0
  5 26  1  0  0  0
  5 92  1  0  0  0
  6 25  1  0  0  0
  6 93  1  0  0  0
  6 94  1  0  0  0
  7  8  2  0  0  0
  7 26  1  0  0  0
  7 29  1  0  0  0
  8  9  1  0  0  0
  8 22  1  0  0  0
  9 10  1  0  0  0
  9 27  2  0  0  0
 10 11  2  0  0  0
 10 15  1  0  0  0
 11 12  1  0  0  0
 11 95  1  0  0  0
 12 13  2  0  0  0
 12 96  1  0  0  0
 13 14  1  0  0  0
 13 31  1  0  0  0
 14 15  2  0  0  0
 14 97  1  0  0  0
 15 98  1  0  0  0
 16 17  2  0  0  0
 16 21  1  0  0  0
 16 31  1  0  0  0
 17 18  1  0  0  0
 17 99  1  0  0  0
 18 19  2  0  0  0
 18100  1  0  0  0
 19 20  1  0  0  0
 19 24  1  0  0  0
 20 21  2  0  0  0
 20101  1  0  0  0
 21 23  1  0  0  0
 22 28  1  0  0  0
 22 32  2  0  0  0
 26 27  1  0  0  0
 28102  1  0  0  0
 28103  1  0  0  0
 29104  1  0  0  0
 29105  1  0  0  0
 33 34  1  0  0  0
 33 66  1  0  0  0
 33 70  2  0  0  0
 34 36  1  0  0  0
 34 59  1  0  0  0
 34106  1  0  0  0
 35 44  2  0  0  0
 35 45  1  0  0  0
 35 68  1  0  0  0
 36 56  1  0  0  0
 36107  1  0  0  0
 37 39  1  0  0  0
 37 47  1  0  0  0
 37 66  1  0  0  0
 37108  1  0  0  0
 38 43  2  0  0  0
 38 46  1  0  0  0
 38 47  1  0  0  0
 39 64  1  0  0  0
 39 67  2  0  0  0
 40 52  1  0  0  0
 40 53  2  0  0  0
 40 58  1  0  0  0
 41109  1  0  0  0
 41110  1  0  0  0
 41111  1  0  0  0
 41 48  1  0  0  0
 42 43  1  0  0  0
 42 66  1  0  0  0
 42112  1  0  0  0
 42113  1  0  0  0
 43 44  1  0  0  0
 44114  1  0  0  0
 45 46  2  0  0  0
 45115  1  0  0  0
 46116  1  0  0  0
 47117  1  0  0  0
 47118  1  0  0  0
 48 56  1  0  0  0
 48 65  1  0  0  0
 48119  1  0  0  0
 49 50  1  0  0  0
 49 53  1  0  0  0
 49 64  1  0  0  0
 49120  1  0  0  0
 50 51  1  0  0  0
 50121  1  0  0  0
 50122  1  0  0  0
 51 52  1  0  0  0
 51123  1  0  0  0
 51124  1  0  0  0
 52125  1  0  0  0
 52126  1  0  0  0
 53 54  1  0  0  0
 54 55  2  0  0  0
 54127  1  0  0  0
 55 57  1  0  0  0
 55128  1  0  0  0
 56 69  2  0  0  0
 57 58  2  0  0  0
 57129  1  0  0  0
 58130  1  0  0  0
 59 60  1  0  0  0
 59 61  1  0  0  0
 59 62  1  0  0  0
 60131  1  0  0  0
 60132  1  0  0  0
 60133  1  0  0  0
 61134  1  0  0  0
 61135  1  0  0  0
 61136  1  0  0  0
 62137  1  0  0  0
 62138  1  0  0  0
 62139  1  0  0  0
 63 65  1  0  0  0
 63140  1  0  0  0
 63141  1  0  0  0
 63142  1  0  0  0
 64143  1  0  0  0
 65144  1  0  0  0
 68 79  1  0  0  0
 71 73  2  0  0  0
 71 74  1  0  0  0
 71145  1  0  0  0
 72 73  1  0  0  0
 72 75  2  0  0  0
 72146  1  0  0  0
 73 85  1  0  0  0
 74 78  1  0  0  0
 74 80  2  0  0  0
 75 80  1  0  0  0
 75 81  1  0  0  0
 76 77  1  0  0  0
 76 79  1  0  0  0
 76 83  2  0  0  0
 77 81  1  0  0  0
 77 84  2  0  0  0
 78 82  1  0  0  0
 78147  1  0  0  0
 78148  1  0  0  0
 79149  1  0  0  0
 79150  1  0  0  0
 81151  1  0  0  0
 82152  1  0  0  0
M  ISO  4   1 100  68 101  79 101  82 100
M  END
> <chiral flag>
0

> <version>
0

> <s_m_source_file>
/data/baiqing/PycharmProjects/Reinvent-master-3.2/result/LINK_invent/BTK/process_docking_weight1_custom_product_contain_oxygen_bond_distance_aromatic_linkinvent_7_9_3/rearranged_h_0177.sdf

> <i_m_source_file_index>
79

> <r_mmod_Potential_Energy-OPLS-2005>
-368.240356445312

> <r_mmod_Stretch_Energy-OPLS-2005>
46.9311599731445

> <r_mmod_Bend_Energy-OPLS-2005>
104.006034851074

> <r_mmod_Torsional_Energy-OPLS-2005>
236.707809448242

> <r_mmod_Improper_Torsional_Energy-OPLS-2005>
7.08531856536865

> <r_mmod_Van_der_Waal_Energy-OPLS-2005>
154.919357299805

> <r_mmod_Electrostatic_Energy-OPLS-2005>
-705.476257324219

> <r_mmod_Solvation_Energy-OPLS-2005>
-236.085784912109

> <b_mmod_Minimization_Converged-OPLS-2005>
0

> <r_mmod_RMS_Derivative-OPLS-2005>
2.63561677932739

$$$$
79
                    3D
 Structure written by MMmdl.
159167  0  0  1  0            999 V2000
  -31.3673  -14.8612   21.2932 C   0  0  0  0  0  0
  -30.6879  -14.5120   18.8768 C   0  0  0  0  0  0
  -29.3065  -14.1005   17.5774 C   0  0  0  0  0  0
  -27.4373  -14.1577   18.0580 C   0  0  0  0  0  0
  -26.9214  -14.6316   19.9264 C   0  0  2  0  0  0
  -28.4764  -15.0697   21.3230 C   0  0  0  0  0  0
  -24.8495  -14.0762   20.8416 C   0  0  0  0  0  0
  -23.9840  -13.0780   21.0107 C   0  0  0  0  0  0
  -24.6651  -11.8356   20.8325 C   0  0  0  0  0  0
  -24.0155  -10.4798   20.9668 C   0  0  0  0  0  0
  -24.4356   -9.4732   21.8771 C   0  0  0  0  0  0
  -23.6840   -8.2788   22.0616 C   0  0  0  0  0  0
  -22.4776   -8.0637   21.3481 C   0  0  0  0  0  0
  -22.0598   -9.0545   20.4425 C   0  0  0  0  0  0
  -22.8147  -10.2321   20.2562 C   0  0  0  0  0  0
  -21.7101   -6.0974   22.5286 C   0  0  0  0  0  0
  -21.4191   -6.5785   23.8240 C   0  0  0  0  0  0
  -21.3735   -5.6877   24.9165 C   0  0  0  0  0  0
  -21.6055   -4.3134   24.7179 C   0  0  0  0  0  0
  -21.8790   -3.8274   23.4278 C   0  0  0  0  0  0
  -21.9257   -4.7148   22.3367 C   0  0  0  0  0  0
  -22.5591  -13.3975   21.2390 C   0  0  0  0  0  0
  -22.1664   -4.2312   21.0946 F   0  0  0  0  0  0
  -21.5604   -3.4577   25.7668 F   0  0  0  0  0  0
  -30.2626  -15.0134   20.6183 N   0  0  0  0  0  0
  -25.9890  -13.5572   20.4167 N   0  0  0  0  0  0
  -25.9552  -12.1414   20.4557 N   0  0  0  0  0  0
  -21.9010  -12.6598   22.1102 N   0  0  0  0  0  0
  -24.7004  -15.4496   20.9733 N   0  0  0  0  0  0
  -32.4217  -14.7660   20.6720 O   0  0  0  0  0  0
  -21.6999   -6.9246   21.4298 O   0  0  0  0  0  0
  -22.0653  -14.3955   20.7085 O   0  0  0  0  0  0
  -24.7968  -31.6388   23.0510 C   0  0  0  0  0  0
  -25.9926  -32.3703   23.7505 C   0  0  1  0  0  0
  -27.0876  -25.4661   20.1529 C   0  0  0  0  0  0
  -25.5977  -33.7608   24.1230 N   0  0  0  0  0  0
  -23.6560  -30.1983   21.4398 C   0  0  2  0  0  0
  -25.0645  -28.2816   20.1097 C   0  0  0  0  0  0
  -22.8175  -29.3484   22.4412 C   0  0  0  0  0  0
  -18.0388  -28.1465   22.8398 C   0  0  0  0  0  0
  -24.1496  -36.6844   23.2693 C   0  0  0  0  0  0
  -26.2520  -29.9363   21.4901 C   0  0  0  0  0  0
  -26.2619  -28.3776   20.8198 C   0  0  0  0  0  0
  -27.2029  -27.0397   20.7903 C   0  0  0  0  0  0
  -25.8990  -25.8966   19.3917 C   0  0  0  0  0  0
  -24.9925  -27.0708   19.3729 C   0  0  0  0  0  0
  -23.9436  -29.3989   20.1138 C   0  0  0  0  0  0
  -25.4184  -36.2469   24.0207 C   0  0  1  0  0  0
  -20.6056  -28.3838   23.0956 C   0  0  2  0  0  0
  -20.6780  -26.9400   22.5444 C   0  0  0  0  0  0
  -19.5794  -26.6318   21.5225 C   0  0  0  0  0  0
  -18.1971  -26.7974   22.1590 C   0  0  0  0  0  0
  -19.1680  -28.9006   23.2623 C   0  0  0  0  0  0
  -18.9579  -30.1561   23.8720 C   0  0  0  0  0  0
  -17.6566  -30.6621   24.0526 C   0  0  0  0  0  0
  -25.9225  -34.8879   23.4674 C   0  0  0  0  0  0
  -16.5444  -29.9090   23.6377 C   0  0  0  0  0  0
  -16.7366  -28.6518   23.0384 C   0  0  0  0  0  0
  -26.4767  -31.6317   25.0615 C   0  0  0  0  0  0
  -25.3548  -31.3921   26.1025 C   0  0  0  0  0  0
  -27.0903  -30.2593   24.7305 C   0  0  0  0  0  0
  -27.5998  -32.4495   25.7446 C   0  0  0  0  0  0
  -27.5529  -37.1564   24.8466 C   0  0  0  0  0  0
  -21.4736  -29.2831   22.3134 N   0  0  0  0  0  0
  -26.4219  -37.3358   23.9413 N   0  0  0  0  0  0
  -24.9487  -30.6567   22.0455 N   0  0  0  0  0  0
  -23.4104  -28.7306   23.3278 O   0  0  0  0  0  0
  -27.7898  -23.6843   20.1537 O   0  0  0  0  0  0
  -26.6078  -34.8719   22.4440 O   0  0  0  0  0  0
  -23.6774  -32.0052   23.4717 O   0  0  0  0  0  0
  -30.0120  -12.1826   21.6575 C   0  0  0  0  0  0
  -29.3285  -12.2806   22.8498 C   0  0  0  0  0  0
  -31.2491  -13.3456   23.1478 C   0  0  0  0  0  0
  -28.2569  -18.8787   19.9844 C   0  0  0  0  0  0
  -28.9165  -10.9965   19.7795 C   0  0  0  0  0  0
  -29.7088  -16.9332   18.2827 C   0  0  0  0  0  0
  -27.8198  -21.3352   19.6578 C   0  0  0  0  0  0
  -29.6231  -12.2940   20.2073 C   0  0  1  0  0  0
  -28.6748  -16.2500   19.2526 C   0  0  1  0  0  0
  -30.1287  -12.9627   23.7791 N   0  0  0  0  0  0
  -27.9843  -12.0322   23.1163 N   0  0  0  0  0  0
  -31.2260  -14.6691   22.6153 N   0  0  0  0  0  0
  -28.8196  -13.5460   19.7371 N   0  3  0  0  0  0
  -28.3395  -18.8217   21.2149 O   0  0  0  0  0  0
  -31.6928  -12.0342   22.0791 S   0  0  0  0  0  0
  -31.3817  -15.2324   18.4487 H   0  0  0  0  0  0
  -31.4177  -13.7048   18.8223 H   0  0  0  0  0  0
  -29.5040  -13.0834   17.2309 H   0  0  0  0  0  0
  -29.4544  -14.6380   16.6406 H   0  0  0  0  0  0
  -26.9998  -13.1845   17.8241 H   0  0  0  0  0  0
  -26.9105  -14.8171   17.3658 H   0  0  0  0  0  0
  -26.4299  -15.5560   19.6446 H   0  0  0  0  0  0
  -28.3518  -14.4759   22.2190 H   0  0  0  0  0  0
  -28.3140  -16.0724   21.7242 H   0  0  0  0  0  0
  -25.3345   -9.6279   22.4563 H   0  0  0  0  0  0
  -24.0446   -7.5340   22.7568 H   0  0  0  0  0  0
  -21.1499   -8.9138   19.8767 H   0  0  0  0  0  0
  -22.4491  -10.9759   19.5625 H   0  0  0  0  0  0
  -21.2240   -7.6291   23.9809 H   0  0  0  0  0  0
  -21.1557   -6.0574   25.9082 H   0  0  0  0  0  0
  -22.0459   -2.7722   23.2734 H   0  0  0  0  0  0
  -22.3412  -11.8735   22.5635 H   0  0  0  0  0  0
  -20.9391  -12.8763   22.3287 H   0  0  0  0  0  0
  -23.7887  -15.8477   21.1758 H   0  0  0  0  0  0
  -25.4164  -16.1507   20.8469 H   0  0  0  0  0  0
  -26.8203  -32.4042   23.0401 H   0  0  0  0  0  0
  -24.9777  -33.8427   24.9156 H   0  0  0  0  0  0
  -23.0566  -31.0689   21.1633 H   0  0  0  0  0  0
  -23.3803  -35.9117   23.3168 H   0  0  0  0  0  0
  -24.3540  -36.8764   22.2149 H   0  0  0  0  0  0
  -23.7225  -37.5912   23.6986 H   0  0  0  0  0  0
  -26.6142  -30.5873   20.6933 H   0  0  0  0  0  0
  -27.0557  -29.9602   22.2107 H   0  0  0  0  0  0
  -28.0792  -27.1550   21.4140 H   0  0  0  0  0  0
  -25.5347  -25.1038   18.7532 H   0  0  0  0  0  0
  -24.1301  -26.9669   18.7285 H   0  0  0  0  0  0
  -24.2215  -30.1125   19.3372 H   0  0  0  0  0  0
  -23.0159  -28.9478   19.7584 H   0  0  0  0  0  0
  -25.1449  -36.1061   25.0688 H   0  0  0  0  0  0
  -21.0095  -28.3563   24.1100 H   0  0  0  0  0  0
  -20.5496  -26.2508   23.3801 H   0  0  0  0  0  0
  -21.6636  -26.7144   22.1358 H   0  0  0  0  0  0
  -19.6920  -25.6177   21.1369 H   0  0  0  0  0  0
  -19.6790  -27.3033   20.6679 H   0  0  0  0  0  0
  -17.4253  -26.6733   21.3974 H   0  0  0  0  0  0
  -18.0306  -26.0148   22.9006 H   0  0  0  0  0  0
  -19.8057  -30.7395   24.2038 H   0  0  0  0  0  0
  -17.5116  -31.6283   24.5159 H   0  0  0  0  0  0
  -15.5435  -30.2950   23.7780 H   0  0  0  0  0  0
  -15.8766  -28.0774   22.7209 H   0  0  0  0  0  0
  -24.5821  -30.7199   25.7273 H   0  0  0  0  0  0
  -24.8658  -32.3219   26.3929 H   0  0  0  0  0  0
  -25.7467  -30.9407   27.0147 H   0  0  0  0  0  0
  -26.3698  -29.5729   24.2859 H   0  0  0  0  0  0
  -27.4448  -29.7662   25.6367 H   0  0  0  0  0  0
  -27.9622  -30.3532   24.0837 H   0  0  0  0  0  0
  -27.2401  -33.4022   26.1343 H   0  0  0  0  0  0
  -28.4095  -32.6690   25.0471 H   0  0  0  0  0  0
  -28.0348  -31.9122   26.5882 H   0  0  0  0  0  0
  -28.2422  -37.9969   24.7523 H   0  0  0  0  0  0
  -28.1144  -36.2470   24.6262 H   0  0  0  0  0  0
  -27.2252  -37.1133   25.8871 H   0  0  0  0  0  0
  -21.0300  -29.8326   21.5904 H   0  0  0  0  0  0
  -25.9934  -38.2350   24.1437 H   0  0  0  0  0  0
  -29.5957  -10.1473   19.8770 H   0  0  0  0  0  0
  -28.5833  -11.0269   18.7419 H   0  0  0  0  0  0
  -28.0583  -10.7646   20.4049 H   0  0  0  0  0  0
  -29.3219  -17.9005   17.9752 H   0  0  0  0  0  0
  -29.9167  -16.4838   17.3229 H   0  0  0  0  0  0
  -30.6408  -17.1734   18.7942 H   0  0  0  0  0  0
  -26.7557  -21.2381   19.4413 H   0  0  0  0  0  0
  -28.2812  -21.4153   18.6727 H   0  0  0  0  0  0
  -30.5360  -12.1706   19.6420 H   0  0  0  0  0  0
  -27.8648  -16.2860   18.5363 H   0  0  0  0  0  0
  -27.4615  -11.4041   22.5158 H   0  0  0  0  0  0
  -27.6770  -12.0228   24.0826 H   0  0  0  0  0  0
  -30.4790  -15.2193   23.0086 H   0  0  0  0  0  0
  -27.9310  -13.3765   20.1901 H   0  0  0  0  0  0
  -28.6648  -13.2881   18.7720 H   0  0  0  0  0  0
  1 25  1  0  0  0
  1 30  2  0  0  0
  1 82  1  0  0  0
  2  3  1  0  0  0
  2 25  1  0  0  0
  2 86  1  0  0  0
  2 87  1  0  0  0
  3  4  1  0  0  0
  3 88  1  0  0  0
  3 89  1  0  0  0
  4  5  1  0  0  0
  4 90  1  0  0  0
  4 91  1  0  0  0
  5  6  1  0  0  0
  5 26  1  0  0  0
  5 92  1  0  0  0
  6 25  1  0  0  0
  6 93  1  0  0  0
  6 94  1  0  0  0
  7  8  2  0  0  0
  7 26  1  0  0  0
  7 29  1  0  0  0
  8  9  1  0  0  0
  8 22  1  0  0  0
  9 10  1  0  0  0
  9 27  2  0  0  0
 10 11  2  0  0  0
 10 15  1  0  0  0
 11 12  1  0  0  0
 11 95  1  0  0  0
 12 13  2  0  0  0
 12 96  1  0  0  0
 13 14  1  0  0  0
 13 31  1  0  0  0
 14 15  2  0  0  0
 14 97  1  0  0  0
 15 98  1  0  0  0
 16 17  2  0  0  0
 16 21  1  0  0  0
 16 31  1  0  0  0
 17 18  1  0  0  0
 17 99  1  0  0  0
 18 19  2  0  0  0
 18100  1  0  0  0
 19 20  1  0  0  0
 19 24  1  0  0  0
 20 21  2  0  0  0
 20101  1  0  0  0
 21 23  1  0  0  0
 22 28  1  0  0  0
 22 32  2  0  0  0
 26 27  1  0  0  0
 28102  1  0  0  0
 28103  1  0  0  0
 29104  1  0  0  0
 29105  1  0  0  0
 33 34  1  0  0  0
 33 66  1  0  0  0
 33 70  2  0  0  0
 34 36  1  0  0  0
 34 59  1  0  0  0
 34106  1  0  0  0
 35 44  2  0  0  0
 35 45  1  0  0  0
 35 68  1  0  0  0
 36 56  1  0  0  0
 36107  1  0  0  0
 37 39  1  0  0  0
 37 47  1  0  0  0
 37 66  1  0  0  0
 37108  1  0  0  0
 38 43  2  0  0  0
 38 46  1  0  0  0
 38 47  1  0  0  0
 39 64  1  0  0  0
 39 67  2  0  0  0
 40 52  1  0  0  0
 40 53  2  0  0  0
 40 58  1  0  0  0
 41109  1  0  0  0
 41110  1  0  0  0
 41111  1  0  0  0
 41 48  1  0  0  0
 42 43  1  0  0  0
 42 66  1  0  0  0
 42112  1  0  0  0
 42113  1  0  0  0
 43 44  1  0  0  0
 44114  1  0  0  0
 45 46  2  0  0  0
 45115  1  0  0  0
 46116  1  0  0  0
 47117  1  0  0  0
 47118  1  0  0  0
 48 56  1  0  0  0
 48 65  1  0  0  0
 48119  1  0  0  0
 49 50  1  0  0  0
 49 53  1  0  0  0
 49 64  1  0  0  0
 49120  1  0  0  0
 50 51  1  0  0  0
 50121  1  0  0  0
 50122  1  0  0  0
 51 52  1  0  0  0
 51123  1  0  0  0
 51124  1  0  0  0
 52125  1  0  0  0
 52126  1  0  0  0
 53 54  1  0  0  0
 54 55  2  0  0  0
 54127  1  0  0  0
 55 57  1  0  0  0
 55128  1  0  0  0
 56 69  2  0  0  0
 57 58  2  0  0  0
 57129  1  0  0  0
 58130  1  0  0  0
 59 60  1  0  0  0
 59 61  1  0  0  0
 59 62  1  0  0  0
 60131  1  0  0  0
 60132  1  0  0  0
 60133  1  0  0  0
 61134  1  0  0  0
 61135  1  0  0  0
 61136  1  0  0  0
 62137  1  0  0  0
 62138  1  0  0  0
 62139  1  0  0  0
 63 65  1  0  0  0
 63140  1  0  0  0
 63141  1  0  0  0
 63142  1  0  0  0
 64143  1  0  0  0
 65144  1  0  0  0
 68 77  1  0  0  0
 71 72  2  0  0  0
 71 78  1  0  0  0
 71 85  1  0  0  0
 72 80  1  0  0  0
 72 81  1  0  0  0
 73 80  2  0  0  0
 73 82  1  0  0  0
 73 85  1  0  0  0
 74 77  1  0  0  0
 74 79  1  0  0  0
 74 84  2  0  0  0
 75145  1  0  0  0
 75146  1  0  0  0
 75147  1  0  0  0
 75 78  1  0  0  0
 76148  1  0  0  0
 76149  1  0  0  0
 76150  1  0  0  0
 76 79  1  0  0  0
 77151  1  0  0  0
 77152  1  0  0  0
 78 83  1  0  0  0
 78153  1  0  0  0
 79 83  1  0  0  0
 79154  1  0  0  0
 81155  1  0  0  0
 81156  1  0  0  0
 82157  1  0  0  0
 83158  1  0  0  0
 83159  1  0  0  0
M  CHG  1  83   1
M  ISO  4   1 100  68 101  77 101  82 100
M  END
> <chiral flag>
0

> <version>
0

> <s_m_source_file>
/data/baiqing/PycharmProjects/Reinvent-master-3.2/result/LINK_invent/BTK/process_docking_weight1_custom_product_contain_oxygen_bond_distance_aromatic_linkinvent_7_9_3/rearranged_h_0177.sdf

> <i_m_source_file_index>
80

> <r_mmod_Potential_Energy-OPLS-2005>
17668.318359375

> <r_mmod_Stretch_Energy-OPLS-2005>
9422.0810546875

> <r_mmod_Bend_Energy-OPLS-2005>
1834.98974609375

> <r_mmod_Torsional_Energy-OPLS-2005>
473.22412109375

> <r_mmod_Improper_Torsional_Energy-OPLS-2005>
33.7818565368652

> <r_mmod_Van_der_Waal_Energy-OPLS-2005>
1885.10046386719

> <r_mmod_Electrostatic_Energy-OPLS-2005>
-477.132629394531

> <r_mmod_Solvation_Energy-OPLS-2005>
-423.058746337891

> <b_mmod_Minimization_Converged-OPLS-2005>
0

> <r_mmod_RMS_Derivative-OPLS-2005>
3.5460090637207

$$$$
80
                    3D
 Structure written by MMmdl.
155163  0  0  1  0            999 V2000
  -30.6831  -14.4957   20.5412 C   0  0  0  0  0  0
  -30.4203  -12.3129   19.4224 C   0  0  0  0  0  0
  -29.4919  -12.5001   18.2042 C   0  0  0  0  0  0
  -28.0131  -12.3612   18.6171 C   0  0  0  0  0  0
  -27.6570  -13.2065   19.8696 C   0  0  2  0  0  0
  -28.7001  -13.0007   20.9915 C   0  0  0  0  0  0
  -25.2565  -13.8159   20.5650 C   0  0  0  0  0  0
  -24.1830  -13.0439   20.9191 C   0  0  0  0  0  0
  -24.6387  -11.6908   20.8753 C   0  0  0  0  0  0
  -23.9061  -10.4295   21.0419 C   0  0  0  0  0  0
  -24.3617   -9.4207   21.9192 C   0  0  0  0  0  0
  -23.6292   -8.2241   22.0757 C   0  0  0  0  0  0
  -22.4273   -8.0283   21.3549 C   0  0  0  0  0  0
  -21.9910   -9.0258   20.4653 C   0  0  0  0  0  0
  -22.7236  -10.2137   20.3066 C   0  0  0  0  0  0
  -21.6853   -6.0738   22.5284 C   0  0  0  0  0  0
  -21.4011   -6.5643   23.8216 C   0  0  0  0  0  0
  -21.3658   -5.6794   24.9177 C   0  0  0  0  0  0
  -21.6044   -4.3057   24.7228 C   0  0  0  0  0  0
  -21.8817   -3.8151   23.4349 C   0  0  0  0  0  0
  -21.9189   -4.6966   22.3406 C   0  0  0  0  0  0
  -22.7856  -13.5240   21.1853 C   0  0  0  0  0  0
  -22.1660   -4.2152   21.0983 F   0  0  0  0  0  0
  -21.5627   -3.4542   25.7739 F   0  0  0  0  0  0
  -30.0269  -13.3067   20.4341 N   0  0  0  0  0  0
  -26.2996  -12.9326   20.3335 N   0  0  0  0  0  0
  -25.9312  -11.6494   20.5774 N   0  0  0  0  0  0
  -22.0494  -12.8239   22.0407 N   0  0  0  0  0  0
  -25.4272  -15.1872   20.3988 N   0  0  0  0  0  0
  -31.8354  -14.6416   20.1192 O   0  0  0  0  0  0
  -21.6638   -6.8880   21.4244 O   0  0  0  0  0  0
  -22.3548  -14.5549   20.6701 O   0  0  0  0  0  0
  -24.6140  -31.8662   23.2082 C   0  0  0  0  0  0
  -25.9035  -32.4807   23.8378 C   0  0  1  0  0  0
  -27.2325  -27.4282   20.1060 C   0  0  0  0  0  0
  -25.5898  -33.8606   24.2323 N   0  0  0  0  0  0
  -23.4032  -30.4892   21.5465 C   0  0  2  0  0  0
  -24.8501  -28.9488   20.1150 C   0  0  0  0  0  0
  -22.7407  -29.4651   22.4969 C   0  0  0  0  0  0
  -18.0270  -28.1393   22.8473 C   0  0  0  0  0  0
  -24.1494  -36.7309   23.2643 C   0  0  0  0  0  0
  -25.9307  -30.8318   21.3594 C   0  0  0  0  0  0
  -26.0089  -29.4641   20.7091 C   0  0  0  0  0  0
  -27.2055  -28.7128   20.6962 C   0  0  0  0  0  0
  -26.0615  -26.9231   19.5063 C   0  0  0  0  0  0
  -24.8717  -27.6791   19.5080 C   0  0  0  0  0  0
  -23.6134  -29.8188   20.1613 C   0  0  0  0  0  0
  -25.4110  -36.3102   24.0349 C   0  0  1  0  0  0
  -20.5863  -28.3666   23.1313 C   0  0  2  0  0  0
  -20.6760  -26.9402   22.5413 C   0  0  0  0  0  0
  -19.5744  -26.6394   21.5206 C   0  0  0  0  0  0
  -18.1916  -26.7934   22.1612 C   0  0  0  0  0  0
  -19.1522  -28.8840   23.2891 C   0  0  0  0  0  0
  -18.9458  -30.1438   23.8908 C   0  0  0  0  0  0
  -17.6464  -30.6586   24.0569 C   0  0  0  0  0  0
  -25.9040  -34.9466   23.5139 C   0  0  0  0  0  0
  -16.5353  -29.9095   23.6331 C   0  0  0  0  0  0
  -16.7258  -28.6524   23.0333 C   0  0  0  0  0  0
  -26.4463  -31.6572   25.0697 C   0  0  0  0  0  0
  -25.3745  -31.3686   26.1464 C   0  0  0  0  0  0
  -27.0269  -30.3013   24.6047 C   0  0  0  0  0  0
  -27.6064  -32.4262   25.7451 C   0  0  0  0  0  0
  -27.5581  -37.1806   24.8468 C   0  0  0  0  0  0
  -21.4134  -29.3036   22.3717 N   0  0  0  0  0  0
  -26.4294  -37.3783   23.9413 N   0  0  0  0  0  0
  -24.6676  -31.0772   22.0972 N   0  0  0  0  0  0
  -23.4175  -28.8194   23.3010 O   0  0  0  0  0  0
  -28.4016  -26.6991   20.0875 O   0  0  0  0  0  0
  -26.5597  -34.8921   22.4695 O   0  0  0  0  0  0
  -23.5330  -32.1407   23.7481 O   0  0  0  0  0  0
  -31.4519  -18.8379   20.7724 C   0  0  0  0  0  0
  -30.2093  -19.4376   20.7489 C   0  0  0  0  0  0
  -30.1966  -16.9344   20.8953 C   0  0  0  0  0  0
  -29.3552  -23.0812   20.4430 C   0  0  0  0  0  0
  -28.9374  -21.5689   20.5233 C   0  0  0  0  0  0
  -32.7779  -19.5334   20.6977 C   0  0  0  0  0  0
  -27.7038  -25.5848   22.2294 C   0  0  0  0  0  0
  -28.2874  -24.1670   20.1491 C   0  0  0  0  0  0
  -28.5026  -25.5141   20.9114 C   0  0  1  0  0  0
  -31.4320  -17.4414   20.8621 N   0  0  0  0  0  0
  -30.0308  -20.7915   20.6627 N   0  0  0  0  0  0
  -29.9228  -15.5311   20.9663 N   0  0  0  0  0  0
  -30.5454  -23.4007   20.5704 O   0  0  0  0  0  0
  -27.7701  -21.1686   20.4618 O   0  0  0  0  0  0
  -28.9543  -18.1990   20.8598 S   0  0  0  0  0  0
  -31.4642  -12.4111   19.1199 H   0  0  0  0  0  0
  -30.3230  -11.3050   19.8282 H   0  0  0  0  0  0
  -29.7330  -11.7692   17.4313 H   0  0  0  0  0  0
  -29.6579  -13.4816   17.7575 H   0  0  0  0  0  0
  -27.8249  -11.3059   18.8172 H   0  0  0  0  0  0
  -27.3623  -12.6309   17.7846 H   0  0  0  0  0  0
  -27.6955  -14.2512   19.5622 H   0  0  0  0  0  0
  -28.6798  -11.9677   21.3426 H   0  0  0  0  0  0
  -28.4650  -13.6105   21.8649 H   0  0  0  0  0  0
  -25.2764   -9.5676   22.4763 H   0  0  0  0  0  0
  -24.0003   -7.4630   22.7473 H   0  0  0  0  0  0
  -21.0841   -8.8781   19.8957 H   0  0  0  0  0  0
  -22.3703  -10.9679   19.6176 H   0  0  0  0  0  0
  -21.2006   -7.6148   23.9720 H   0  0  0  0  0  0
  -21.1480   -6.0525   25.9078 H   0  0  0  0  0  0
  -22.0596   -2.7614   23.2851 H   0  0  0  0  0  0
  -22.4103  -11.9895   22.4793 H   0  0  0  0  0  0
  -21.1115  -13.1280   22.2625 H   0  0  0  0  0  0
  -24.6488  -15.8328   20.4767 H   0  0  0  0  0  0
  -26.2572  -15.6179   20.0115 H   0  0  0  0  0  0
  -26.7104  -32.5529   23.1142 H   0  0  0  0  0  0
  -25.0040  -33.9760   25.0465 H   0  0  0  0  0  0
  -22.6937  -31.3071   21.4057 H   0  0  0  0  0  0
  -23.3751  -35.9645   23.3307 H   0  0  0  0  0  0
  -24.3597  -36.8917   22.2057 H   0  0  0  0  0  0
  -23.7251  -37.6520   23.6652 H   0  0  0  0  0  0
  -26.0409  -31.5952   20.5881 H   0  0  0  0  0  0
  -26.8192  -30.8878   21.9756 H   0  0  0  0  0  0
  -28.1043  -29.1082   21.1494 H   0  0  0  0  0  0
  -26.0733  -25.9502   19.0366 H   0  0  0  0  0  0
  -23.9817  -27.2812   19.0408 H   0  0  0  0  0  0
  -23.7261  -30.5936   19.4024 H   0  0  0  0  0  0
  -22.7367  -29.2422   19.8615 H   0  0  0  0  0  0
  -25.1285  -36.1964   25.0842 H   0  0  0  0  0  0
  -20.9947  -28.3228   24.1435 H   0  0  0  0  0  0
  -20.5677  -26.2264   23.3593 H   0  0  0  0  0  0
  -21.6629  -26.7448   22.1202 H   0  0  0  0  0  0
  -19.6915  -25.6312   21.1213 H   0  0  0  0  0  0
  -19.6703  -27.3216   20.6750 H   0  0  0  0  0  0
  -17.4194  -26.6676   21.4010 H   0  0  0  0  0  0
  -18.0321  -26.0077   22.9014 H   0  0  0  0  0  0
  -19.7938  -30.7236   24.2290 H   0  0  0  0  0  0
  -17.5033  -31.6273   24.5156 H   0  0  0  0  0  0
  -15.5357  -30.3010   23.7656 H   0  0  0  0  0  0
  -15.8660  -28.0866   22.7021 H   0  0  0  0  0  0
  -24.5927  -30.7021   25.7813 H   0  0  0  0  0  0
  -24.8932  -32.2842   26.4903 H   0  0  0  0  0  0
  -25.8111  -30.8869   27.0221 H   0  0  0  0  0  0
  -26.2783  -29.6791   24.1131 H   0  0  0  0  0  0
  -27.4077  -29.7230   25.4473 H   0  0  0  0  0  0
  -27.8609  -30.4331   23.9153 H   0  0  0  0  0  0
  -27.2720  -33.3565   26.2046 H   0  0  0  0  0  0
  -28.3861  -32.6793   25.0259 H   0  0  0  0  0  0
  -28.0738  -31.8359   26.5342 H   0  0  0  0  0  0
  -28.2596  -38.0101   24.7490 H   0  0  0  0  0  0
  -28.1074  -36.2628   24.6312 H   0  0  0  0  0  0
  -27.2303  -37.1479   25.8872 H   0  0  0  0  0  0
  -20.9285  -29.8780   21.6966 H   0  0  0  0  0  0
  -26.0187  -38.2863   24.1414 H   0  0  0  0  0  0
  -32.8586  -20.3178   21.4499 H   0  0  0  0  0  0
  -32.9243  -19.9951   19.7211 H   0  0  0  0  0  0
  -33.6067  -18.8441   20.8589 H   0  0  0  0  0  0
  -27.9413  -24.7389   22.8744 H   0  0  0  0  0  0
  -26.6273  -25.5674   22.0536 H   0  0  0  0  0  0
  -27.9369  -26.4935   22.7853 H   0  0  0  0  0  0
  -27.2916  -23.7715   20.3489 H   0  0  0  0  0  0
  -28.3297  -24.3538   19.0770 H   0  0  0  0  0  0
  -29.5457  -25.5637   21.2235 H   0  0  0  0  0  0
  -30.8726  -21.3562   20.6812 H   0  0  0  0  0  0
  -28.9781  -15.2861   21.2147 H   0  0  0  0  0  0
  1 25  1  0  0  0
  1 30  2  0  0  0
  1 82  1  0  0  0
  2  3  1  0  0  0
  2 25  1  0  0  0
  2 86  1  0  0  0
  2 87  1  0  0  0
  3  4  1  0  0  0
  3 88  1  0  0  0
  3 89  1  0  0  0
  4  5  1  0  0  0
  4 90  1  0  0  0
  4 91  1  0  0  0
  5  6  1  0  0  0
  5 26  1  0  0  0
  5 92  1  0  0  0
  6 25  1  0  0  0
  6 93  1  0  0  0
  6 94  1  0  0  0
  7  8  2  0  0  0
  7 26  1  0  0  0
  7 29  1  0  0  0
  8  9  1  0  0  0
  8 22  1  0  0  0
  9 10  1  0  0  0
  9 27  2  0  0  0
 10 11  2  0  0  0
 10 15  1  0  0  0
 11 12  1  0  0  0
 11 95  1  0  0  0
 12 13  2  0  0  0
 12 96  1  0  0  0
 13 14  1  0  0  0
 13 31  1  0  0  0
 14 15  2  0  0  0
 14 97  1  0  0  0
 15 98  1  0  0  0
 16 17  2  0  0  0
 16 21  1  0  0  0
 16 31  1  0  0  0
 17 18  1  0  0  0
 17 99  1  0  0  0
 18 19  2  0  0  0
 18100  1  0  0  0
 19 20  1  0  0  0
 19 24  1  0  0  0
 20 21  2  0  0  0
 20101  1  0  0  0
 21 23  1  0  0  0
 22 28  1  0  0  0
 22 32  2  0  0  0
 26 27  1  0  0  0
 28102  1  0  0  0
 28103  1  0  0  0
 29104  1  0  0  0
 29105  1  0  0  0
 33 34  1  0  0  0
 33 66  1  0  0  0
 33 70  2  0  0  0
 34 36  1  0  0  0
 34 59  1  0  0  0
 34106  1  0  0  0
 35 44  2  0  0  0
 35 45  1  0  0  0
 35 68  1  0  0  0
 36 56  1  0  0  0
 36107  1  0  0  0
 37 39  1  0  0  0
 37 47  1  0  0  0
 37 66  1  0  0  0
 37108  1  0  0  0
 38 43  2  0  0  0
 38 46  1  0  0  0
 38 47  1  0  0  0
 39 64  1  0  0  0
 39 67  2  0  0  0
 40 52  1  0  0  0
 40 53  2  0  0  0
 40 58  1  0  0  0
 41109  1  0  0  0
 41110  1  0  0  0
 41111  1  0  0  0
 41 48  1  0  0  0
 42 43  1  0  0  0
 42 66  1  0  0  0
 42112  1  0  0  0
 42113  1  0  0  0
 43 44  1  0  0  0
 44114  1  0  0  0
 45 46  2  0  0  0
 45115  1  0  0  0
 46116  1  0  0  0
 47117  1  0  0  0
 47118  1  0  0  0
 48 56  1  0  0  0
 48 65  1  0  0  0
 48119  1  0  0  0
 49 50  1  0  0  0
 49 53  1  0  0  0
 49 64  1  0  0  0
 49120  1  0  0  0
 50 51  1  0  0  0
 50121  1  0  0  0
 50122  1  0  0  0
 51 52  1  0  0  0
 51123  1  0  0  0
 51124  1  0  0  0
 52125  1  0  0  0
 52126  1  0  0  0
 53 54  1  0  0  0
 54 55  2  0  0  0
 54127  1  0  0  0
 55 57  1  0  0  0
 55128  1  0  0  0
 56 69  2  0  0  0
 57 58  2  0  0  0
 57129  1  0  0  0
 58130  1  0  0  0
 59 60  1  0  0  0
 59 61  1  0  0  0
 59 62  1  0  0  0
 60131  1  0  0  0
 60132  1  0  0  0
 60133  1  0  0  0
 61134  1  0  0  0
 61135  1  0  0  0
 61136  1  0  0  0
 62137  1  0  0  0
 62138  1  0  0  0
 62139  1  0  0  0
 63 65  1  0  0  0
 63140  1  0  0  0
 63141  1  0  0  0
 63142  1  0  0  0
 64143  1  0  0  0
 65144  1  0  0  0
 68 79  1  0  0  0
 71 72  2  0  0  0
 71 76  1  0  0  0
 71 80  1  0  0  0
 72 81  1  0  0  0
 72 85  1  0  0  0
 73 80  2  0  0  0
 73 82  1  0  0  0
 73 85  1  0  0  0
 74 75  1  0  0  0
 74 78  1  0  0  0
 74 83  2  0  0  0
 75 81  1  0  0  0
 75 84  2  0  0  0
 76145  1  0  0  0
 76146  1  0  0  0
 76147  1  0  0  0
 77148  1  0  0  0
 77149  1  0  0  0
 77150  1  0  0  0
 77 79  1  0  0  0
 78 79  1  0  0  0
 78151  1  0  0  0
 78152  1  0  0  0
 79153  1  0  0  0
 81154  1  0  0  0
 82155  1  0  0  0
M  ISO  4   1 100  68 101  79 101  82 100
M  END
> <chiral flag>
0

> <version>
0

> <s_m_source_file>
/data/baiqing/PycharmProjects/Reinvent-master-3.2/result/LINK_invent/BTK/process_docking_weight1_custom_product_contain_oxygen_bond_distance_aromatic_linkinvent_7_9_3/rearranged_h_0177.sdf

> <i_m_source_file_index>
81

> <r_mmod_Potential_Energy-OPLS-2005>
-107.727096557617

> <r_mmod_Stretch_Energy-OPLS-2005>
40.9278831481934

> <r_mmod_Bend_Energy-OPLS-2005>
125.885627746582

> <r_mmod_Torsional_Energy-OPLS-2005>
224.473251342773

> <r_mmod_Improper_Torsional_Energy-OPLS-2005>
4.91808605194092

> <r_mmod_Van_der_Waal_Energy-OPLS-2005>
131.713165283203

> <r_mmod_Electrostatic_Energy-OPLS-2005>
-408.096252441406

> <r_mmod_Solvation_Energy-OPLS-2005>
-242.336059570312

> <b_mmod_Minimization_Converged-OPLS-2005>
0

> <r_mmod_RMS_Derivative-OPLS-2005>
1.28027427196503

$$$$
81
                    3D
 Structure written by MMmdl.
153161  0  0  1  0            999 V2000
  -30.6809  -14.4841   20.5734 C   0  0  0  0  0  0
  -30.4369  -12.3230   19.4095 C   0  0  0  0  0  0
  -29.4937  -12.5047   18.2013 C   0  0  0  0  0  0
  -28.0165  -12.3552   18.6196 C   0  0  0  0  0  0
  -27.6628  -13.1950   19.8742 C   0  0  2  0  0  0
  -28.7067  -12.9670   20.9896 C   0  0  0  0  0  0
  -25.2624  -13.8133   20.5728 C   0  0  0  0  0  0
  -24.1840  -13.0429   20.9150 C   0  0  0  0  0  0
  -24.6364  -11.6887   20.8702 C   0  0  0  0  0  0
  -23.9026  -10.4293   21.0380 C   0  0  0  0  0  0
  -24.3608   -9.4219   21.9141 C   0  0  0  0  0  0
  -23.6287   -8.2268   22.0741 C   0  0  0  0  0  0
  -22.4259   -8.0289   21.3541 C   0  0  0  0  0  0
  -21.9864   -9.0258   20.4658 C   0  0  0  0  0  0
  -22.7184  -10.2135   20.3046 C   0  0  0  0  0  0
  -21.6864   -6.0722   22.5274 C   0  0  0  0  0  0
  -21.4022   -6.5632   23.8207 C   0  0  0  0  0  0
  -21.3651   -5.6779   24.9163 C   0  0  0  0  0  0
  -21.6034   -4.3043   24.7219 C   0  0  0  0  0  0
  -21.8834   -3.8126   23.4345 C   0  0  0  0  0  0
  -21.9205   -4.6954   22.3402 C   0  0  0  0  0  0
  -22.7886  -13.5257   21.1811 C   0  0  0  0  0  0
  -22.1676   -4.2140   21.0975 F   0  0  0  0  0  0
  -21.5613   -3.4521   25.7732 F   0  0  0  0  0  0
  -30.0375  -13.2923   20.4414 N   0  0  0  0  0  0
  -26.3033  -12.9267   20.3373 N   0  0  0  0  0  0
  -25.9287  -11.6432   20.5740 N   0  0  0  0  0  0
  -22.0514  -12.8297   22.0397 N   0  0  0  0  0  0
  -25.4406  -15.1859   20.4324 N   0  0  0  0  0  0
  -31.8057  -14.7002   20.1089 O   0  0  0  0  0  0
  -21.6647   -6.8872   21.4236 O   0  0  0  0  0  0
  -22.3573  -14.5546   20.6631 O   0  0  0  0  0  0
  -24.6111  -31.8714   23.2138 C   0  0  0  0  0  0
  -25.9016  -32.4852   23.8403 C   0  0  1  0  0  0
  -27.2308  -27.4470   20.0819 C   0  0  0  0  0  0
  -25.5897  -33.8658   24.2320 N   0  0  0  0  0  0
  -23.3981  -30.4920   21.5576 C   0  0  2  0  0  0
  -24.8440  -28.9543   20.1238 C   0  0  0  0  0  0
  -22.7390  -29.4651   22.5062 C   0  0  0  0  0  0
  -18.0258  -28.1393   22.8486 C   0  0  0  0  0  0
  -24.1472  -36.7297   23.2599 C   0  0  0  0  0  0
  -25.9264  -30.8326   21.3717 C   0  0  0  0  0  0
  -26.0045  -29.4669   20.7205 C   0  0  0  0  0  0
  -27.2015  -28.7164   20.7048 C   0  0  0  0  0  0
  -26.0580  -26.9441   19.4865 C   0  0  0  0  0  0
  -24.8620  -27.6879   19.5127 C   0  0  0  0  0  0
  -23.6055  -29.8231   20.1732 C   0  0  0  0  0  0
  -25.4089  -36.3128   24.0316 C   0  0  1  0  0  0
  -20.5838  -28.3660   23.1352 C   0  0  2  0  0  0
  -20.6749  -26.9394   22.5459 C   0  0  0  0  0  0
  -19.5752  -26.6382   21.5226 C   0  0  0  0  0  0
  -18.1906  -26.7947   22.1593 C   0  0  0  0  0  0
  -19.1507  -28.8839   23.2911 C   0  0  0  0  0  0
  -18.9447  -30.1445   23.8934 C   0  0  0  0  0  0
  -17.6454  -30.6600   24.0570 C   0  0  0  0  0  0
  -25.9053  -34.9506   23.5124 C   0  0  0  0  0  0
  -16.5348  -29.9108   23.6324 C   0  0  0  0  0  0
  -16.7249  -28.6517   23.0356 C   0  0  0  0  0  0
  -26.4434  -31.6639   25.0733 C   0  0  0  0  0  0
  -25.3694  -31.3861   26.1506 C   0  0  0  0  0  0
  -27.0165  -30.3031   24.6141 C   0  0  0  0  0  0
  -27.6089  -32.4305   25.7421 C   0  0  0  0  0  0
  -27.5648  -37.1694   24.8363 C   0  0  0  0  0  0
  -21.4117  -29.3021   22.3770 N   0  0  0  0  0  0
  -26.4239  -37.3861   23.9499 N   0  0  0  0  0  0
  -24.6632  -31.0794   22.1066 N   0  0  0  0  0  0
  -23.4168  -28.8189   23.3095 O   0  0  0  0  0  0
  -28.3906  -26.7124   20.0030 O   0  0  0  0  0  0
  -26.5633  -34.8952   22.4701 O   0  0  0  0  0  0
  -23.5307  -32.1497   23.7532 O   0  0  0  0  0  0
  -31.1181  -17.6581   21.2287 C   0  0  0  0  0  0
  -30.0180  -16.8506   20.8492 C   0  0  0  0  0  0
  -29.9771  -19.6625   20.3832 C   0  0  0  0  0  0
  -31.1035  -19.0516   20.9829 C   0  0  0  0  0  0
  -28.9134  -17.4587   20.2152 C   0  0  0  0  0  0
  -28.8996  -18.8476   19.9649 C   0  0  0  0  0  0
  -29.0766  -23.3808   20.2231 C   0  0  0  0  0  0
  -28.9272  -21.8759   20.6253 C   0  0  0  0  0  0
  -28.0863  -24.3756   20.8726 C   0  0  0  0  0  0
  -28.6183  -25.8160   21.0939 C   0  0  0  0  0  0
  -29.9322  -21.0803   20.2037 N   0  0  0  0  0  0
  -29.9490  -15.4551   21.1489 N   0  0  0  0  0  0
  -29.9240  -23.7604   19.4058 O   0  0  0  0  0  0
  -27.9739  -21.4676   21.2980 O   0  0  0  0  0  0
  -32.1650  -19.8098   21.3546 F   0  0  0  0  0  0
  -27.8510  -16.7062   19.8398 F   0  0  0  0  0  0
  -27.8398  -19.3927   19.3180 F   0  0  0  0  0  0
  -31.4743  -12.4548   19.0960 H   0  0  0  0  0  0
  -30.3718  -11.3094   19.8074 H   0  0  0  0  0  0
  -29.7349  -11.7764   17.4268 H   0  0  0  0  0  0
  -29.6476  -13.4889   17.7566 H   0  0  0  0  0  0
  -27.8336  -11.2991   18.8192 H   0  0  0  0  0  0
  -27.3612  -12.6251   17.7905 H   0  0  0  0  0  0
  -27.7102  -14.2398   19.5753 H   0  0  0  0  0  0
  -28.6911  -11.9232   21.3072 H   0  0  0  0  0  0
  -28.4623  -13.5413   21.8847 H   0  0  0  0  0  0
  -25.2760   -9.5709   22.4696 H   0  0  0  0  0  0
  -24.0010   -7.4658   22.7445 H   0  0  0  0  0  0
  -21.0786   -8.8770   19.8974 H   0  0  0  0  0  0
  -22.3613  -10.9685   19.6190 H   0  0  0  0  0  0
  -21.2025   -7.6141   23.9713 H   0  0  0  0  0  0
  -21.1440   -6.0496   25.9057 H   0  0  0  0  0  0
  -22.0619   -2.7593   23.2854 H   0  0  0  0  0  0
  -22.4115  -12.0007   22.4870 H   0  0  0  0  0  0
  -21.1147  -13.1387   22.2558 H   0  0  0  0  0  0
  -24.6866  -15.8480   20.5727 H   0  0  0  0  0  0
  -26.3184  -15.6352   20.1940 H   0  0  0  0  0  0
  -26.7089  -32.5555   23.1165 H   0  0  0  0  0  0
  -25.0014  -33.9844   25.0433 H   0  0  0  0  0  0
  -22.6847  -31.3088   21.4207 H   0  0  0  0  0  0
  -23.3857  -35.9492   23.3051 H   0  0  0  0  0  0
  -24.3616  -36.9150   22.2061 H   0  0  0  0  0  0
  -23.7047  -37.6343   23.6773 H   0  0  0  0  0  0
  -26.0428  -31.6026   20.6084 H   0  0  0  0  0  0
  -26.8119  -30.8828   21.9943 H   0  0  0  0  0  0
  -28.0998  -29.1090   21.1599 H   0  0  0  0  0  0
  -26.0716  -25.9840   18.9935 H   0  0  0  0  0  0
  -23.9677  -27.2864   19.0554 H   0  0  0  0  0  0
  -23.7154  -30.5991   19.4141 H   0  0  0  0  0  0
  -22.7268  -29.2466   19.8773 H   0  0  0  0  0  0
  -25.1224  -36.1955   25.0796 H   0  0  0  0  0  0
  -20.9902  -28.3238   24.1485 H   0  0  0  0  0  0
  -20.5617  -26.2274   23.3643 H   0  0  0  0  0  0
  -21.6642  -26.7435   22.1289 H   0  0  0  0  0  0
  -19.6915  -25.6295   21.1253 H   0  0  0  0  0  0
  -19.6711  -27.3188   20.6757 H   0  0  0  0  0  0
  -17.4197  -26.6730   21.3970 H   0  0  0  0  0  0
  -18.0252  -26.0073   22.8958 H   0  0  0  0  0  0
  -19.7931  -30.7235   24.2329 H   0  0  0  0  0  0
  -17.5028  -31.6287   24.5160 H   0  0  0  0  0  0
  -15.5354  -30.3035   23.7646 H   0  0  0  0  0  0
  -15.8637  -28.0845   22.7086 H   0  0  0  0  0  0
  -24.5820  -30.7237   25.7895 H   0  0  0  0  0  0
  -24.8930  -32.3071   26.4884 H   0  0  0  0  0  0
  -25.8009  -30.9083   27.0306 H   0  0  0  0  0  0
  -26.2676  -29.6893   24.1122 H   0  0  0  0  0  0
  -27.3773  -29.7206   25.4626 H   0  0  0  0  0  0
  -27.8611  -30.4262   23.9361 H   0  0  0  0  0  0
  -27.2791  -33.3595   26.2081 H   0  0  0  0  0  0
  -28.3818  -32.6880   25.0167 H   0  0  0  0  0  0
  -28.0840  -31.8367   26.5237 H   0  0  0  0  0  0
  -28.2413  -38.0240   24.7916 H   0  0  0  0  0  0
  -28.1398  -36.2864   24.5534 H   0  0  0  0  0  0
  -27.2477  -37.0551   25.8742 H   0  0  0  0  0  0
  -20.9293  -29.8743   21.6983 H   0  0  0  0  0  0
  -26.0121  -38.2844   24.1868 H   0  0  0  0  0  0
  -31.9665  -17.2200   21.7332 H   0  0  0  0  0  0
  -27.8143  -23.9679   21.8469 H   0  0  0  0  0  0
  -27.1605  -24.3915   20.2989 H   0  0  0  0  0  0
  -29.6924  -25.7949   21.2814 H   0  0  0  0  0  0
  -28.1810  -26.2280   22.0057 H   0  0  0  0  0  0
  -30.7383  -21.5375   19.7939 H   0  0  0  0  0  0
  -29.0449  -15.1292   21.4549 H   0  0  0  0  0  0
  1 25  1  0  0  0
  1 30  2  0  0  0
  1 82  1  0  0  0
  2  3  1  0  0  0
  2 25  1  0  0  0
  2 88  1  0  0  0
  2 89  1  0  0  0
  3  4  1  0  0  0
  3 90  1  0  0  0
  3 91  1  0  0  0
  4  5  1  0  0  0
  4 92  1  0  0  0
  4 93  1  0  0  0
  5  6  1  0  0  0
  5 26  1  0  0  0
  5 94  1  0  0  0
  6 25  1  0  0  0
  6 95  1  0  0  0
  6 96  1  0  0  0
  7  8  2  0  0  0
  7 26  1  0  0  0
  7 29  1  0  0  0
  8  9  1  0  0  0
  8 22  1  0  0  0
  9 10  1  0  0  0
  9 27  2  0  0  0
 10 11  2  0  0  0
 10 15  1  0  0  0
 11 12  1  0  0  0
 11 97  1  0  0  0
 12 13  2  0  0  0
 12 98  1  0  0  0
 13 14  1  0  0  0
 13 31  1  0  0  0
 14 15  2  0  0  0
 14 99  1  0  0  0
 15100  1  0  0  0
 16 17  2  0  0  0
 16 21  1  0  0  0
 16 31  1  0  0  0
 17 18  1  0  0  0
 17101  1  0  0  0
 18 19  2  0  0  0
 18102  1  0  0  0
 19 20  1  0  0  0
 19 24  1  0  0  0
 20 21  2  0  0  0
 20103  1  0  0  0
 21 23  1  0  0  0
 22 28  1  0  0  0
 22 32  2  0  0  0
 26 27  1  0  0  0
 28104  1  0  0  0
 28105  1  0  0  0
 29106  1  0  0  0
 29107  1  0  0  0
 33 34  1  0  0  0
 33 66  1  0  0  0
 33 70  2  0  0  0
 34 36  1  0  0  0
 34 59  1  0  0  0
 34108  1  0  0  0
 35 44  2  0  0  0
 35 45  1  0  0  0
 35 68  1  0  0  0
 36 56  1  0  0  0
 36109  1  0  0  0
 37 39  1  0  0  0
 37 47  1  0  0  0
 37 66  1  0  0  0
 37110  1  0  0  0
 38 43  2  0  0  0
 38 46  1  0  0  0
 38 47  1  0  0  0
 39 64  1  0  0  0
 39 67  2  0  0  0
 40 52  1  0  0  0
 40 53  2  0  0  0
 40 58  1  0  0  0
 41111  1  0  0  0
 41112  1  0  0  0
 41113  1  0  0  0
 41 48  1  0  0  0
 42 43  1  0  0  0
 42 66  1  0  0  0
 42114  1  0  0  0
 42115  1  0  0  0
 43 44  1  0  0  0
 44116  1  0  0  0
 45 46  2  0  0  0
 45117  1  0  0  0
 46118  1  0  0  0
 47119  1  0  0  0
 47120  1  0  0  0
 48 56  1  0  0  0
 48 65  1  0  0  0
 48121  1  0  0  0
 49 50  1  0  0  0
 49 53  1  0  0  0
 49 64  1  0  0  0
 49122  1  0  0  0
 50 51  1  0  0  0
 50123  1  0  0  0
 50124  1  0  0  0
 51 52  1  0  0  0
 51125  1  0  0  0
 51126  1  0  0  0
 52127  1  0  0  0
 52128  1  0  0  0
 53 54  1  0  0  0
 54 55  2  0  0  0
 54129  1  0  0  0
 55 57  1  0  0  0
 55130  1  0  0  0
 56 69  2  0  0  0
 57 58  2  0  0  0
 57131  1  0  0  0
 58132  1  0  0  0
 59 60  1  0  0  0
 59 61  1  0  0  0
 59 62  1  0  0  0
 60133  1  0  0  0
 60134  1  0  0  0
 60135  1  0  0  0
 61136  1  0  0  0
 61137  1  0  0  0
 61138  1  0  0  0
 62139  1  0  0  0
 62140  1  0  0  0
 62141  1  0  0  0
 63 65  1  0  0  0
 63142  1  0  0  0
 63143  1  0  0  0
 63144  1  0  0  0
 64145  1  0  0  0
 65146  1  0  0  0
 68 80  1  0  0  0
 71 72  2  0  0  0
 71 74  1  0  0  0
 71147  1  0  0  0
 72 75  1  0  0  0
 72 82  1  0  0  0
 73 74  2  0  0  0
 73 76  1  0  0  0
 73 81  1  0  0  0
 74 85  1  0  0  0
 75 76  2  0  0  0
 75 86  1  0  0  0
 76 87  1  0  0  0
 77 78  1  0  0  0
 77 79  1  0  0  0
 77 83  2  0  0  0
 78 81  1  0  0  0
 78 84  2  0  0  0
 79 80  1  0  0  0
 79148  1  0  0  0
 79149  1  0  0  0
 80150  1  0  0  0
 80151  1  0  0  0
 81152  1  0  0  0
 82153  1  0  0  0
M  ISO  4   1 100  68 101  80 101  82 100
M  END
> <chiral flag>
0

> <version>
0

> <s_m_source_file>
/data/baiqing/PycharmProjects/Reinvent-master-3.2/result/LINK_invent/BTK/process_docking_weight1_custom_product_contain_oxygen_bond_distance_aromatic_linkinvent_7_9_3/rearranged_h_0177.sdf

> <i_m_source_file_index>
82

> <r_mmod_Potential_Energy-OPLS-2005>
-78.2106323242188

> <r_mmod_Stretch_Energy-OPLS-2005>
37.6721000671387

> <r_mmod_Bend_Energy-OPLS-2005>
92.5627517700195

> <r_mmod_Torsional_Energy-OPLS-2005>
276.749542236328

> <r_mmod_Improper_Torsional_Energy-OPLS-2005>
5.0695629119873

> <r_mmod_Van_der_Waal_Energy-OPLS-2005>
150.020385742188

> <r_mmod_Electrostatic_Energy-OPLS-2005>
-432.279724121094

> <r_mmod_Solvation_Energy-OPLS-2005>
-220.886367797852

> <b_mmod_Minimization_Converged-OPLS-2005>
0

> <r_mmod_RMS_Derivative-OPLS-2005>
3.57947158813477

$$$$
82
                    3D
 Structure written by MMmdl.
149157  0  0  1  0            999 V2000
  -30.6700  -14.5408   20.4888 C   0  0  0  0  0  0
  -30.4255  -12.3255   19.4463 C   0  0  0  0  0  0
  -29.4984  -12.4729   18.2202 C   0  0  0  0  0  0
  -28.0207  -12.3341   18.6328 C   0  0  0  0  0  0
  -27.6548  -13.2076   19.8628 C   0  0  2  0  0  0
  -28.6970  -13.0471   20.9935 C   0  0  0  0  0  0
  -25.2579  -13.8165   20.5680 C   0  0  0  0  0  0
  -24.1831  -13.0440   20.9186 C   0  0  0  0  0  0
  -24.6382  -11.6911   20.8744 C   0  0  0  0  0  0
  -23.9048  -10.4297   21.0411 C   0  0  0  0  0  0
  -24.3605   -9.4214   21.9186 C   0  0  0  0  0  0
  -23.6288   -8.2243   22.0752 C   0  0  0  0  0  0
  -22.4273   -8.0279   21.3536 C   0  0  0  0  0  0
  -21.9902   -9.0255   20.4642 C   0  0  0  0  0  0
  -22.7223  -10.2140   20.3057 C   0  0  0  0  0  0
  -21.6855   -6.0730   22.5272 C   0  0  0  0  0  0
  -21.4017   -6.5636   23.8207 C   0  0  0  0  0  0
  -21.3659   -5.6790   24.9171 C   0  0  0  0  0  0
  -21.6044   -4.3053   24.7218 C   0  0  0  0  0  0
  -21.8824   -3.8140   23.4343 C   0  0  0  0  0  0
  -21.9199   -4.6958   22.3397 C   0  0  0  0  0  0
  -22.7856  -13.5241   21.1840 C   0  0  0  0  0  0
  -22.1669   -4.2146   21.0976 F   0  0  0  0  0  0
  -21.5630   -3.4533   25.7729 F   0  0  0  0  0  0
  -30.0242  -13.3422   20.4338 N   0  0  0  0  0  0
  -26.2993  -12.9328   20.3319 N   0  0  0  0  0  0
  -25.9306  -11.6496   20.5764 N   0  0  0  0  0  0
  -22.0497  -12.8238   22.0403 N   0  0  0  0  0  0
  -25.4319  -15.1880   20.4096 N   0  0  0  0  0  0
  -31.8468  -14.6702   20.1386 O   0  0  0  0  0  0
  -21.6645   -6.8870   21.4229 O   0  0  0  0  0  0
  -22.3540  -14.5536   20.6673 O   0  0  0  0  0  0
  -24.6173  -31.8661   23.2087 C   0  0  0  0  0  0
  -25.9053  -32.4817   23.8388 C   0  0  1  0  0  0
  -27.2284  -27.3988   20.0992 C   0  0  0  0  0  0
  -25.5897  -33.8615   24.2320 N   0  0  0  0  0  0
  -23.4061  -30.4905   21.5505 C   0  0  2  0  0  0
  -24.8506  -28.9549   20.1120 C   0  0  0  0  0  0
  -22.7426  -29.4648   22.4982 C   0  0  0  0  0  0
  -18.0272  -28.1382   22.8494 C   0  0  0  0  0  0
  -24.1486  -36.7314   23.2639 C   0  0  0  0  0  0
  -25.9389  -30.8212   21.3667 C   0  0  0  0  0  0
  -26.0134  -29.4538   20.7113 C   0  0  0  0  0  0
  -27.2025  -28.6830   20.7020 C   0  0  0  0  0  0
  -26.0405  -26.9234   19.4940 C   0  0  0  0  0  0
  -24.8608  -27.6908   19.4997 C   0  0  0  0  0  0
  -23.6152  -29.8268   20.1637 C   0  0  0  0  0  0
  -25.4108  -36.3111   24.0340 C   0  0  1  0  0  0
  -20.5866  -28.3667   23.1314 C   0  0  2  0  0  0
  -20.6766  -26.9403   22.5414 C   0  0  0  0  0  0
  -19.5741  -26.6387   21.5215 C   0  0  0  0  0  0
  -18.1921  -26.7926   22.1629 C   0  0  0  0  0  0
  -19.1523  -28.8841   23.2899 C   0  0  0  0  0  0
  -18.9453  -30.1449   23.8904 C   0  0  0  0  0  0
  -17.6455  -30.6586   24.0565 C   0  0  0  0  0  0
  -25.9035  -34.9475   23.5130 C   0  0  0  0  0  0
  -16.5344  -29.9089   23.6331 C   0  0  0  0  0  0
  -16.7261  -28.6508   23.0347 C   0  0  0  0  0  0
  -26.4472  -31.6602   25.0725 C   0  0  0  0  0  0
  -25.3735  -31.3723   26.1477 C   0  0  0  0  0  0
  -27.0307  -30.3042   24.6120 C   0  0  0  0  0  0
  -27.6050  -32.4325   25.7475 C   0  0  0  0  0  0
  -27.5585  -37.1809   24.8465 C   0  0  0  0  0  0
  -21.4151  -29.3028   22.3717 N   0  0  0  0  0  0
  -26.4296  -37.3796   23.9414 N   0  0  0  0  0  0
  -24.6727  -31.0737   22.1003 N   0  0  0  0  0  0
  -23.4186  -28.8192   23.3035 O   0  0  0  0  0  0
  -28.3853  -26.6334   20.1546 O   0  0  0  0  0  0
  -26.5601  -34.8928   22.4695 O   0  0  0  0  0  0
  -23.5356  -32.1428   23.7463 O   0  0  0  0  0  0
  -29.9038  -16.8478   20.0019 C   0  0  0  0  0  0
  -30.1374  -16.8645   18.6450 C   0  0  0  0  0  0
  -29.5584  -19.0727   19.5043 C   0  0  0  0  0  0
  -28.4023  -25.3492   19.6325 C   0  0  0  0  0  0
  -28.6801  -24.2254   20.3440 C   0  0  0  0  0  0
  -28.7154  -22.8736   19.6894 C   0  0  0  0  0  0
  -29.0002  -21.5629   20.4891 C   0  0  0  0  0  0
  -29.5525  -18.1416   20.4894 N   0  0  0  0  0  0
  -29.9042  -15.6258   20.7670 N   0  0  0  0  0  0
  -29.2728  -20.4444   19.5690 N   0  0  0  0  0  0
  -28.5343  -22.7481   18.4714 O   0  0  0  0  0  0
  -28.9391  -24.2922   21.6573 O   0  0  0  0  0  0
  -30.4059  -15.7771   17.8819 F   0  0  0  0  0  0
  -29.9743  -18.4264   17.9185 S   0  0  0  0  0  0
  -31.4687  -12.4287   19.1425 H   0  0  0  0  0  0
  -30.3380  -11.3279   19.8793 H   0  0  0  0  0  0
  -29.7471  -11.7219   17.4692 H   0  0  0  0  0  0
  -29.6559  -13.4403   17.7444 H   0  0  0  0  0  0
  -27.8459  -11.2827   18.8638 H   0  0  0  0  0  0
  -27.3674  -12.5694   17.7918 H   0  0  0  0  0  0
  -27.6809  -14.2428   19.5234 H   0  0  0  0  0  0
  -28.6811  -12.0292   21.3871 H   0  0  0  0  0  0
  -28.4603  -13.6972   21.8368 H   0  0  0  0  0  0
  -25.2751   -9.5696   22.4755 H   0  0  0  0  0  0
  -24.0000   -7.4635   22.7478 H   0  0  0  0  0  0
  -21.0831   -8.8777   19.8953 H   0  0  0  0  0  0
  -22.3676  -10.9684   19.6171 H   0  0  0  0  0  0
  -21.2010   -7.6145   23.9711 H   0  0  0  0  0  0
  -21.1477   -6.0518   25.9075 H   0  0  0  0  0  0
  -22.0602   -2.7601   23.2844 H   0  0  0  0  0  0
  -22.4106  -11.9896   22.4788 H   0  0  0  0  0  0
  -21.1122  -13.1282   22.2604 H   0  0  0  0  0  0
  -24.6672  -15.8455   20.5187 H   0  0  0  0  0  0
  -26.2811  -15.6232   20.0731 H   0  0  0  0  0  0
  -26.7119  -32.5517   23.1143 H   0  0  0  0  0  0
  -25.0039  -33.9776   25.0458 H   0  0  0  0  0  0
  -22.6952  -31.3080   21.4131 H   0  0  0  0  0  0
  -23.3748  -35.9649   23.3308 H   0  0  0  0  0  0
  -24.3576  -36.8921   22.2052 H   0  0  0  0  0  0
  -23.7237  -37.6522   23.6646 H   0  0  0  0  0  0
  -26.0558  -31.5872   20.5984 H   0  0  0  0  0  0
  -26.8256  -30.8730   21.9872 H   0  0  0  0  0  0
  -28.0983  -29.0611   21.1744 H   0  0  0  0  0  0
  -25.9986  -25.9505   19.0271 H   0  0  0  0  0  0
  -23.9651  -27.2997   19.0364 H   0  0  0  0  0  0
  -23.7268  -30.6052   19.4077 H   0  0  0  0  0  0
  -22.7372  -29.2515   19.8643 H   0  0  0  0  0  0
  -25.1283  -36.1980   25.0834 H   0  0  0  0  0  0
  -20.9953  -28.3233   24.1437 H   0  0  0  0  0  0
  -20.5683  -26.2271   23.3600 H   0  0  0  0  0  0
  -21.6635  -26.7454   22.1194 H   0  0  0  0  0  0
  -19.6903  -25.6303   21.1230 H   0  0  0  0  0  0
  -19.6678  -27.3211   20.6757 H   0  0  0  0  0  0
  -17.4188  -26.6667   21.4034 H   0  0  0  0  0  0
  -18.0325  -26.0069   22.9028 H   0  0  0  0  0  0
  -19.7930  -30.7265   24.2274 H   0  0  0  0  0  0
  -17.5011  -31.6268   24.5167 H   0  0  0  0  0  0
  -15.5345  -30.2994   23.7656 H   0  0  0  0  0  0
  -15.8657  -28.0834   22.7054 H   0  0  0  0  0  0
  -24.5859  -30.7136   25.7801 H   0  0  0  0  0  0
  -24.8990  -32.2893   26.4980 H   0  0  0  0  0  0
  -25.8071  -30.8823   27.0203 H   0  0  0  0  0  0
  -26.2859  -29.6795   24.1176 H   0  0  0  0  0  0
  -27.4072  -29.7288   25.4587 H   0  0  0  0  0  0
  -27.8695  -30.4358   23.9282 H   0  0  0  0  0  0
  -27.2671  -33.3608   26.2094 H   0  0  0  0  0  0
  -28.3826  -32.6919   25.0278 H   0  0  0  0  0  0
  -28.0759  -31.8431   26.5351 H   0  0  0  0  0  0
  -28.2605  -38.0105   24.7519 H   0  0  0  0  0  0
  -28.1077  -36.2637   24.6282 H   0  0  0  0  0  0
  -27.2301  -37.1447   25.8867 H   0  0  0  0  0  0
  -20.9314  -29.8744   21.6932 H   0  0  0  0  0  0
  -26.0187  -38.2877   24.1414 H   0  0  0  0  0  0
  -28.1839  -25.3414   18.5724 H   0  0  0  0  0  0
  -28.1374  -21.3324   21.1146 H   0  0  0  0  0  0
  -29.8528  -21.7228   21.1493 H   0  0  0  0  0  0
  -29.0573  -15.4443   21.2803 H   0  0  0  0  0  0
  -29.2366  -20.8496   18.6332 H   0  0  0  0  0  0
  -28.8757  -25.2074   21.9002 H   0  0  0  0  0  0
  1 25  1  0  0  0
  1 30  2  0  0  0
  1 79  1  0  0  0
  2  3  1  0  0  0
  2 25  1  0  0  0
  2 85  1  0  0  0
  2 86  1  0  0  0
  3  4  1  0  0  0
  3 87  1  0  0  0
  3 88  1  0  0  0
  4  5  1  0  0  0
  4 89  1  0  0  0
  4 90  1  0  0  0
  5  6  1  0  0  0
  5 26  1  0  0  0
  5 91  1  0  0  0
  6 25  1  0  0  0
  6 92  1  0  0  0
  6 93  1  0  0  0
  7  8  2  0  0  0
  7 26  1  0  0  0
  7 29  1  0  0  0
  8  9  1  0  0  0
  8 22  1  0  0  0
  9 10  1  0  0  0
  9 27  2  0  0  0
 10 11  2  0  0  0
 10 15  1  0  0  0
 11 12  1  0  0  0
 11 94  1  0  0  0
 12 13  2  0  0  0
 12 95  1  0  0  0
 13 14  1  0  0  0
 13 31  1  0  0  0
 14 15  2  0  0  0
 14 96  1  0  0  0
 15 97  1  0  0  0
 16 17  2  0  0  0
 16 21  1  0  0  0
 16 31  1  0  0  0
 17 18  1  0  0  0
 17 98  1  0  0  0
 18 19  2  0  0  0
 18 99  1  0  0  0
 19 20  1  0  0  0
 19 24  1  0  0  0
 20 21  2  0  0  0
 20100  1  0  0  0
 21 23  1  0  0  0
 22 28  1  0  0  0
 22 32  2  0  0  0
 26 27  1  0  0  0
 28101  1  0  0  0
 28102  1  0  0  0
 29103  1  0  0  0
 29104  1  0  0  0
 33 34  1  0  0  0
 33 66  1  0  0  0
 33 70  2  0  0  0
 34 36  1  0  0  0
 34 59  1  0  0  0
 34105  1  0  0  0
 35 44  2  0  0  0
 35 45  1  0  0  0
 35 68  1  0  0  0
 36 56  1  0  0  0
 36106  1  0  0  0
 37 39  1  0  0  0
 37 47  1  0  0  0
 37 66  1  0  0  0
 37107  1  0  0  0
 38 43  2  0  0  0
 38 46  1  0  0  0
 38 47  1  0  0  0
 39 64  1  0  0  0
 39 67  2  0  0  0
 40 52  1  0  0  0
 40 53  2  0  0  0
 40 58  1  0  0  0
 41108  1  0  0  0
 41109  1  0  0  0
 41110  1  0  0  0
 41 48  1  0  0  0
 42 43  1  0  0  0
 42 66  1  0  0  0
 42111  1  0  0  0
 42112  1  0  0  0
 43 44  1  0  0  0
 44113  1  0  0  0
 45 46  2  0  0  0
 45114  1  0  0  0
 46115  1  0  0  0
 47116  1  0  0  0
 47117  1  0  0  0
 48 56  1  0  0  0
 48 65  1  0  0  0
 48118  1  0  0  0
 49 50  1  0  0  0
 49 53  1  0  0  0
 49 64  1  0  0  0
 49119  1  0  0  0
 50 51  1  0  0  0
 50120  1  0  0  0
 50121  1  0  0  0
 51 52  1  0  0  0
 51122  1  0  0  0
 51123  1  0  0  0
 52124  1  0  0  0
 52125  1  0  0  0
 53 54  1  0  0  0
 54 55  2  0  0  0
 54126  1  0  0  0
 55 57  1  0  0  0
 55127  1  0  0  0
 56 69  2  0  0  0
 57 58  2  0  0  0
 57128  1  0  0  0
 58129  1  0  0  0
 59 60  1  0  0  0
 59 61  1  0  0  0
 59 62  1  0  0  0
 60130  1  0  0  0
 60131  1  0  0  0
 60132  1  0  0  0
 61133  1  0  0  0
 61134  1  0  0  0
 61135  1  0  0  0
 62136  1  0  0  0
 62137  1  0  0  0
 62138  1  0  0  0
 63 65  1  0  0  0
 63139  1  0  0  0
 63140  1  0  0  0
 63141  1  0  0  0
 64142  1  0  0  0
 65143  1  0  0  0
 68 74  1  0  0  0
 71 72  2  0  0  0
 71 78  1  0  0  0
 71 79  1  0  0  0
 72 83  1  0  0  0
 72 84  1  0  0  0
 73 78  2  0  0  0
 73 80  1  0  0  0
 73 84  1  0  0  0
 74 75  2  0  0  0
 74144  1  0  0  0
 75 76  1  0  0  0
 75 82  1  0  0  0
 76 77  1  0  0  0
 76 81  2  0  0  0
 77 80  1  0  0  0
 77145  1  0  0  0
 77146  1  0  0  0
 79147  1  0  0  0
 80148  1  0  0  0
 82149  1  0  0  0
M  ISO  4   1 100  68 101  74 101  79 100
M  END
> <chiral flag>
0

> <version>
0

> <s_m_source_file>
/data/baiqing/PycharmProjects/Reinvent-master-3.2/result/LINK_invent/BTK/process_docking_weight1_custom_product_contain_oxygen_bond_distance_aromatic_linkinvent_7_9_3/rearranged_h_0177.sdf

> <i_m_source_file_index>
83

> <r_mmod_Potential_Energy-OPLS-2005>
-83.0663757324219

> <r_mmod_Stretch_Energy-OPLS-2005>
45.9113883972168

> <r_mmod_Bend_Energy-OPLS-2005>
120.588348388672

> <r_mmod_Torsional_Energy-OPLS-2005>
223.595321655273

> <r_mmod_Improper_Torsional_Energy-OPLS-2005>
6.32427740097046

> <r_mmod_Van_der_Waal_Energy-OPLS-2005>
135.729568481445

> <r_mmod_Electrostatic_Energy-OPLS-2005>
-411.637634277344

> <r_mmod_Solvation_Energy-OPLS-2005>
-228.653091430664

> <b_mmod_Minimization_Converged-OPLS-2005>
0

> <r_mmod_RMS_Derivative-OPLS-2005>
0.925889551639557

$$$$
83
                    3D
 Structure written by MMmdl.
153161  0  0  1  0            999 V2000
  -30.5981  -14.5999   20.6172 C   0  0  0  0  0  0
  -30.4493  -12.3979   19.4420 C   0  0  0  0  0  0
  -29.5081  -12.5390   18.2219 C   0  0  0  0  0  0
  -28.0277  -12.3778   18.6224 C   0  0  0  0  0  0
  -27.6625  -13.2080   19.8813 C   0  0  2  0  0  0
  -28.7008  -12.9763   20.9988 C   0  0  0  0  0  0
  -25.2598  -13.8175   20.5766 C   0  0  0  0  0  0
  -24.1818  -13.0436   20.9146 C   0  0  0  0  0  0
  -24.6369  -11.6895   20.8668 C   0  0  0  0  0  0
  -23.9034  -10.4285   21.0389 C   0  0  0  0  0  0
  -24.3579   -9.4219   21.9195 C   0  0  0  0  0  0
  -23.6261   -8.2254   22.0787 C   0  0  0  0  0  0
  -22.4242   -8.0266   21.3583 C   0  0  0  0  0  0
  -21.9861   -9.0233   20.4689 C   0  0  0  0  0  0
  -22.7183  -10.2106   20.3071 C   0  0  0  0  0  0
  -21.6828   -6.0689   22.5256 C   0  0  0  0  0  0
  -21.3989   -6.5616   23.8170 C   0  0  0  0  0  0
  -21.3672   -5.6792   24.9159 C   0  0  0  0  0  0
  -21.6025   -4.3043   24.7211 C   0  0  0  0  0  0
  -21.8820   -3.8112   23.4344 C   0  0  0  0  0  0
  -21.9202   -4.6921   22.3378 C   0  0  0  0  0  0
  -22.7821  -13.5217   21.1846 C   0  0  0  0  0  0
  -22.1711   -4.2101   21.0964 F   0  0  0  0  0  0
  -21.5616   -3.4550   25.7745 F   0  0  0  0  0  0
  -30.0215  -13.3641   20.4718 N   0  0  0  0  0  0
  -26.3015  -12.9327   20.3368 N   0  0  0  0  0  0
  -25.9306  -11.6480   20.5709 N   0  0  0  0  0  0
  -22.0455  -12.8218   22.0430 N   0  0  0  0  0  0
  -25.4380  -15.1920   20.4432 N   0  0  0  0  0  0
  -31.6875  -14.8799   20.1057 O   0  0  0  0  0  0
  -21.6619   -6.8850   21.4227 O   0  0  0  0  0  0
  -22.3510  -14.5540   20.6724 O   0  0  0  0  0  0
  -24.6238  -31.8667   23.2060 C   0  0  0  0  0  0
  -25.9120  -32.4798   23.8371 C   0  0  1  0  0  0
  -27.2337  -27.3462   20.0916 C   0  0  0  0  0  0
  -25.5959  -33.8595   24.2325 N   0  0  0  0  0  0
  -23.4140  -30.4916   21.5473 C   0  0  2  0  0  0
  -24.8616  -28.9508   20.1149 C   0  0  0  0  0  0
  -22.7450  -29.4671   22.4929 C   0  0  0  0  0  0
  -18.0274  -28.1369   22.8466 C   0  0  0  0  0  0
  -24.1506  -36.7282   23.2627 C   0  0  0  0  0  0
  -25.9543  -30.7982   21.3782 C   0  0  0  0  0  0
  -26.0274  -29.4268   20.7237 C   0  0  0  0  0  0
  -27.2097  -28.6310   20.7192 C   0  0  0  0  0  0
  -26.0403  -26.9312   19.4485 C   0  0  0  0  0  0
  -24.8681  -27.7038   19.4762 C   0  0  0  0  0  0
  -23.6310  -29.8307   20.1613 C   0  0  0  0  0  0
  -25.4121  -36.3071   24.0329 C   0  0  1  0  0  0
  -20.5879  -28.3694   23.1259 C   0  0  2  0  0  0
  -20.6773  -26.9420   22.5390 C   0  0  0  0  0  0
  -19.5751  -26.6390   21.5184 C   0  0  0  0  0  0
  -18.1928  -26.7917   22.1595 C   0  0  0  0  0  0
  -19.1531  -28.8836   23.2868 C   0  0  0  0  0  0
  -18.9472  -30.1439   23.8889 C   0  0  0  0  0  0
  -17.6479  -30.6578   24.0552 C   0  0  0  0  0  0
  -25.9065  -34.9444   23.5122 C   0  0  0  0  0  0
  -16.5369  -29.9093   23.6307 C   0  0  0  0  0  0
  -16.7270  -28.6502   23.0349 C   0  0  0  0  0  0
  -26.4528  -31.6564   25.0704 C   0  0  0  0  0  0
  -25.3814  -31.3681   26.1472 C   0  0  0  0  0  0
  -27.0335  -30.2980   24.6108 C   0  0  0  0  0  0
  -27.6086  -32.4292   25.7476 C   0  0  0  0  0  0
  -27.5582  -37.1788   24.8461 C   0  0  0  0  0  0
  -21.4166  -29.3066   22.3677 N   0  0  0  0  0  0
  -26.4284  -37.3772   23.9412 N   0  0  0  0  0  0
  -24.6818  -31.0693   22.1003 N   0  0  0  0  0  0
  -23.4202  -28.8191   23.2974 O   0  0  0  0  0  0
  -28.3882  -26.5429   20.1168 O   0  0  0  0  0  0
  -26.5613  -34.8911   22.4678 O   0  0  0  0  0  0
  -23.5411  -32.1456   23.7397 O   0  0  0  0  0  0
  -28.9535  -19.6233   22.0104 C   0  0  0  0  0  0
  -28.5077  -18.5921   22.8535 C   0  0  0  0  0  0
  -29.7593  -19.3296   20.8881 C   0  0  0  0  0  0
  -29.6791  -16.8940   21.5020 C   0  0  0  0  0  0
  -28.8640  -17.2539   22.6049 C   0  0  0  0  0  0
  -30.1224  -17.9532   20.6388 C   0  0  0  0  0  0
  -28.3296  -25.1571   19.8701 C   0  0  0  0  0  0
  -29.2163  -24.2021   20.2831 C   0  0  0  0  0  0
  -29.0070  -22.7711   19.9210 C   0  0  0  0  0  0
  -30.1866  -20.4848   19.9375 C   0  0  0  0  0  0
  -29.8587  -15.4569   21.3725 N   0  0  0  0  0  0
  -29.9657  -21.9117   20.3517 N   0  0  0  0  0  0
  -28.0566  -22.3636   19.2501 O   0  0  0  0  0  0
  -30.2889  -24.5457   21.0133 O   0  0  0  0  0  0
  -28.3964  -16.2932   23.4411 F   0  0  0  0  0  0
  -30.8616  -17.6596   19.5433 F   0  0  0  0  0  0
  -31.4845  -12.5620   19.1400 H   0  0  0  0  0  0
  -30.4147  -11.3842   19.8453 H   0  0  0  0  0  0
  -29.7699  -11.8118   17.4497 H   0  0  0  0  0  0
  -29.6401  -13.5239   17.7722 H   0  0  0  0  0  0
  -27.8395  -11.3195   18.8096 H   0  0  0  0  0  0
  -27.3859  -12.6625   17.7884 H   0  0  0  0  0  0
  -27.7116  -14.2582   19.5910 H   0  0  0  0  0  0
  -28.7181  -11.9229   21.2811 H   0  0  0  0  0  0
  -28.4254  -13.5051   21.9127 H   0  0  0  0  0  0
  -25.2722   -9.5691   22.4775 H   0  0  0  0  0  0
  -24.0008   -7.4625   22.7463 H   0  0  0  0  0  0
  -21.0839   -8.8688   19.8975 H   0  0  0  0  0  0
  -22.3638  -10.9627   19.6161 H   0  0  0  0  0  0
  -21.1974   -7.6115   23.9652 H   0  0  0  0  0  0
  -21.1550   -6.0561   25.9064 H   0  0  0  0  0  0
  -22.0631   -2.7574   23.2876 H   0  0  0  0  0  0
  -22.4024  -11.9841   22.4801 H   0  0  0  0  0  0
  -21.1081  -13.1250   22.2693 H   0  0  0  0  0  0
  -24.6925  -15.8528   20.6346 H   0  0  0  0  0  0
  -26.3102  -15.6399   20.1949 H   0  0  0  0  0  0
  -26.7167  -32.5493   23.1092 H   0  0  0  0  0  0
  -25.0140  -33.9783   25.0492 H   0  0  0  0  0  0
  -22.7036  -31.3084   21.4049 H   0  0  0  0  0  0
  -23.3767  -35.9614   23.3274 H   0  0  0  0  0  0
  -24.3588  -36.8928   22.2040 H   0  0  0  0  0  0
  -23.7280  -37.6486   23.6666 H   0  0  0  0  0  0
  -26.0905  -31.5602   20.6085 H   0  0  0  0  0  0
  -26.8339  -30.8426   22.0082 H   0  0  0  0  0  0
  -28.1027  -28.9946   21.2069 H   0  0  0  0  0  0
  -25.9580  -26.0093   18.8952 H   0  0  0  0  0  0
  -23.9785  -27.3369   18.9841 H   0  0  0  0  0  0
  -23.7542  -30.6095   19.4064 H   0  0  0  0  0  0
  -22.7463  -29.2686   19.8552 H   0  0  0  0  0  0
  -25.1294  -36.1887   25.0815 H   0  0  0  0  0  0
  -20.9978  -28.3282   24.1377 H   0  0  0  0  0  0
  -20.5626  -26.2332   23.3613 H   0  0  0  0  0  0
  -21.6660  -26.7430   22.1228 H   0  0  0  0  0  0
  -19.6941  -25.6306   21.1225 H   0  0  0  0  0  0
  -19.6678  -27.3180   20.6702 H   0  0  0  0  0  0
  -17.4205  -26.6637   21.4003 H   0  0  0  0  0  0
  -18.0335  -26.0061   22.8992 H   0  0  0  0  0  0
  -19.7964  -30.7227   24.2280 H   0  0  0  0  0  0
  -17.5056  -31.6250   24.5169 H   0  0  0  0  0  0
  -15.5375  -30.3004   23.7629 H   0  0  0  0  0  0
  -15.8668  -28.0821   22.7083 H   0  0  0  0  0  0
  -24.5972  -30.7027   25.7847 H   0  0  0  0  0  0
  -24.9035  -32.2843   26.4942 H   0  0  0  0  0  0
  -25.8217  -30.8854   27.0208 H   0  0  0  0  0  0
  -26.2865  -29.6736   24.1195 H   0  0  0  0  0  0
  -27.4105  -29.7199   25.4550 H   0  0  0  0  0  0
  -27.8713  -30.4232   23.9246 H   0  0  0  0  0  0
  -27.2687  -33.3570   26.2077 H   0  0  0  0  0  0
  -28.3889  -32.6905   25.0320 H   0  0  0  0  0  0
  -28.0767  -31.8420   26.5384 H   0  0  0  0  0  0
  -28.2578  -38.0111   24.7521 H   0  0  0  0  0  0
  -28.1102  -36.2630   24.6243 H   0  0  0  0  0  0
  -27.2305  -37.1395   25.8872 H   0  0  0  0  0  0
  -20.9334  -29.8826   21.6927 H   0  0  0  0  0  0
  -26.0149  -38.2834   24.1439 H   0  0  0  0  0  0
  -28.6459  -20.6375   22.2314 H   0  0  0  0  0  0
  -27.8742  -18.8177   23.7009 H   0  0  0  0  0  0
  -27.4942  -24.8545   19.2643 H   0  0  0  0  0  0
  -29.7200  -20.3125   18.9658 H   0  0  0  0  0  0
  -31.2575  -20.3745   19.7538 H   0  0  0  0  0  0
  -29.1503  -14.9576   21.8879 H   0  0  0  0  0  0
  -30.7128  -22.3510   20.8756 H   0  0  0  0  0  0
  -30.2535  -25.4865   21.1335 H   0  0  0  0  0  0
  1 25  1  0  0  0
  1 30  2  0  0  0
  1 81  1  0  0  0
  2  3  1  0  0  0
  2 25  1  0  0  0
  2 87  1  0  0  0
  2 88  1  0  0  0
  3  4  1  0  0  0
  3 89  1  0  0  0
  3 90  1  0  0  0
  4  5  1  0  0  0
  4 91  1  0  0  0
  4 92  1  0  0  0
  5  6  1  0  0  0
  5 26  1  0  0  0
  5 93  1  0  0  0
  6 25  1  0  0  0
  6 94  1  0  0  0
  6 95  1  0  0  0
  7  8  2  0  0  0
  7 26  1  0  0  0
  7 29  1  0  0  0
  8  9  1  0  0  0
  8 22  1  0  0  0
  9 10  1  0  0  0
  9 27  2  0  0  0
 10 11  2  0  0  0
 10 15  1  0  0  0
 11 12  1  0  0  0
 11 96  1  0  0  0
 12 13  2  0  0  0
 12 97  1  0  0  0
 13 14  1  0  0  0
 13 31  1  0  0  0
 14 15  2  0  0  0
 14 98  1  0  0  0
 15 99  1  0  0  0
 16 17  2  0  0  0
 16 21  1  0  0  0
 16 31  1  0  0  0
 17 18  1  0  0  0
 17100  1  0  0  0
 18 19  2  0  0  0
 18101  1  0  0  0
 19 20  1  0  0  0
 19 24  1  0  0  0
 20 21  2  0  0  0
 20102  1  0  0  0
 21 23  1  0  0  0
 22 28  1  0  0  0
 22 32  2  0  0  0
 26 27  1  0  0  0
 28103  1  0  0  0
 28104  1  0  0  0
 29105  1  0  0  0
 29106  1  0  0  0
 33 34  1  0  0  0
 33 66  1  0  0  0
 33 70  2  0  0  0
 34 36  1  0  0  0
 34 59  1  0  0  0
 34107  1  0  0  0
 35 44  2  0  0  0
 35 45  1  0  0  0
 35 68  1  0  0  0
 36 56  1  0  0  0
 36108  1  0  0  0
 37 39  1  0  0  0
 37 47  1  0  0  0
 37 66  1  0  0  0
 37109  1  0  0  0
 38 43  2  0  0  0
 38 46  1  0  0  0
 38 47  1  0  0  0
 39 64  1  0  0  0
 39 67  2  0  0  0
 40 52  1  0  0  0
 40 53  2  0  0  0
 40 58  1  0  0  0
 41110  1  0  0  0
 41111  1  0  0  0
 41112  1  0  0  0
 41 48  1  0  0  0
 42 43  1  0  0  0
 42 66  1  0  0  0
 42113  1  0  0  0
 42114  1  0  0  0
 43 44  1  0  0  0
 44115  1  0  0  0
 45 46  2  0  0  0
 45116  1  0  0  0
 46117  1  0  0  0
 47118  1  0  0  0
 47119  1  0  0  0
 48 56  1  0  0  0
 48 65  1  0  0  0
 48120  1  0  0  0
 49 50  1  0  0  0
 49 53  1  0  0  0
 49 64  1  0  0  0
 49121  1  0  0  0
 50 51  1  0  0  0
 50122  1  0  0  0
 50123  1  0  0  0
 51 52  1  0  0  0
 51124  1  0  0  0
 51125  1  0  0  0
 52126  1  0  0  0
 52127  1  0  0  0
 53 54  1  0  0  0
 54 55  2  0  0  0
 54128  1  0  0  0
 55 57  1  0  0  0
 55129  1  0  0  0
 56 69  2  0  0  0
 57 58  2  0  0  0
 57130  1  0  0  0
 58131  1  0  0  0
 59 60  1  0  0  0
 59 61  1  0  0  0
 59 62  1  0  0  0
 60132  1  0  0  0
 60133  1  0  0  0
 60134  1  0  0  0
 61135  1  0  0  0
 61136  1  0  0  0
 61137  1  0  0  0
 62138  1  0  0  0
 62139  1  0  0  0
 62140  1  0  0  0
 63 65  1  0  0  0
 63141  1  0  0  0
 63142  1  0  0  0
 63143  1  0  0  0
 64144  1  0  0  0
 65145  1  0  0  0
 68 77  1  0  0  0
 71 72  2  0  0  0
 71 73  1  0  0  0
 71146  1  0  0  0
 72 75  1  0  0  0
 72147  1  0  0  0
 73 76  2  0  0  0
 73 80  1  0  0  0
 74 75  2  0  0  0
 74 76  1  0  0  0
 74 81  1  0  0  0
 75 85  1  0  0  0
 76 86  1  0  0  0
 77 78  2  0  0  0
 77148  1  0  0  0
 78 79  1  0  0  0
 78 84  1  0  0  0
 79 82  1  0  0  0
 79 83  2  0  0  0
 80 82  1  0  0  0
 80149  1  0  0  0
 80150  1  0  0  0
 81151  1  0  0  0
 82152  1  0  0  0
 84153  1  0  0  0
M  ISO  4   1 100  68 101  77 101  81 100
M  END
> <chiral flag>
0

> <version>
0

> <s_m_source_file>
/data/baiqing/PycharmProjects/Reinvent-master-3.2/result/LINK_invent/BTK/process_docking_weight1_custom_product_contain_oxygen_bond_distance_aromatic_linkinvent_7_9_3/rearranged_h_0177.sdf

> <i_m_source_file_index>
84

> <r_mmod_Potential_Energy-OPLS-2005>
-148.328414916992

> <r_mmod_Stretch_Energy-OPLS-2005>
68.4858322143555

> <r_mmod_Bend_Energy-OPLS-2005>
149.651748657227

> <r_mmod_Torsional_Energy-OPLS-2005>
191.571319580078

> <r_mmod_Improper_Torsional_Energy-OPLS-2005>
3.10739231109619

> <r_mmod_Van_der_Waal_Energy-OPLS-2005>
155.559844970703

> <r_mmod_Electrostatic_Energy-OPLS-2005>
-528.62841796875

> <r_mmod_Solvation_Energy-OPLS-2005>
-226.158218383789

> <b_mmod_Minimization_Converged-OPLS-2005>
0

> <r_mmod_RMS_Derivative-OPLS-2005>
4.73973655700684

$$$$
84
                    3D
 Structure written by MMmdl.
149157  0  0  1  0            999 V2000
  -30.7133  -14.4937   20.5089 C   0  0  0  0  0  0
  -30.4091  -12.3016   19.4416 C   0  0  0  0  0  0
  -29.4953  -12.4930   18.2137 C   0  0  0  0  0  0
  -28.0142  -12.3630   18.6193 C   0  0  0  0  0  0
  -27.6543  -13.2178   19.8650 C   0  0  2  0  0  0
  -28.6965  -13.0456   20.9943 C   0  0  0  0  0  0
  -25.2546  -13.8179   20.5676 C   0  0  0  0  0  0
  -24.1815  -13.0438   20.9185 C   0  0  0  0  0  0
  -24.6383  -11.6911   20.8730 C   0  0  0  0  0  0
  -23.9053  -10.4294   21.0402 C   0  0  0  0  0  0
  -24.3607   -9.4209   21.9179 C   0  0  0  0  0  0
  -23.6287   -8.2242   22.0750 C   0  0  0  0  0  0
  -22.4269   -8.0276   21.3545 C   0  0  0  0  0  0
  -21.9901   -9.0249   20.4647 C   0  0  0  0  0  0
  -22.7225  -10.2131   20.3053 C   0  0  0  0  0  0
  -21.6853   -6.0730   22.5281 C   0  0  0  0  0  0
  -21.4016   -6.5637   23.8213 C   0  0  0  0  0  0
  -21.3663   -5.6791   24.9177 C   0  0  0  0  0  0
  -21.6040   -4.3052   24.7227 C   0  0  0  0  0  0
  -21.8819   -3.8143   23.4347 C   0  0  0  0  0  0
  -21.9190   -4.6959   22.3402 C   0  0  0  0  0  0
  -22.7836  -13.5233   21.1853 C   0  0  0  0  0  0
  -22.1659   -4.2144   21.0980 F   0  0  0  0  0  0
  -21.5628   -3.4538   25.7745 F   0  0  0  0  0  0
  -30.0269  -13.3206   20.4334 N   0  0  0  0  0  0
  -26.2987  -12.9368   20.3324 N   0  0  0  0  0  0
  -25.9312  -11.6518   20.5747 N   0  0  0  0  0  0
  -22.0473  -12.8237   22.0411 N   0  0  0  0  0  0
  -25.4243  -15.1900   20.4092 N   0  0  0  0  0  0
  -31.8860  -14.5798   20.1367 O   0  0  0  0  0  0
  -21.6628   -6.8876   21.4245 O   0  0  0  0  0  0
  -22.3521  -14.5538   20.6698 O   0  0  0  0  0  0
  -24.6180  -31.8673   23.2108 C   0  0  0  0  0  0
  -25.9068  -32.4817   23.8403 C   0  0  1  0  0  0
  -27.2202  -27.4080   20.0952 C   0  0  0  0  0  0
  -25.5912  -33.8616   24.2321 N   0  0  0  0  0  0
  -23.4059  -30.4946   21.5521 C   0  0  2  0  0  0
  -24.8484  -28.9658   20.1115 C   0  0  0  0  0  0
  -22.7433  -29.4660   22.4974 C   0  0  0  0  0  0
  -18.0278  -28.1378   22.8488 C   0  0  0  0  0  0
  -24.1488  -36.7314   23.2635 C   0  0  0  0  0  0
  -25.9408  -30.8247   21.3708 C   0  0  0  0  0  0
  -26.0141  -29.4619   20.7085 C   0  0  0  0  0  0
  -27.2047  -28.6933   20.6926 C   0  0  0  0  0  0
  -26.0317  -26.9430   19.4810 C   0  0  0  0  0  0
  -24.8537  -27.7074   19.4924 C   0  0  0  0  0  0
  -23.6141  -29.8361   20.1640 C   0  0  0  0  0  0
  -25.4109  -36.3106   24.0330 C   0  0  1  0  0  0
  -20.5872  -28.3671   23.1304 C   0  0  2  0  0  0
  -20.6768  -26.9403   22.5411 C   0  0  0  0  0  0
  -19.5744  -26.6382   21.5210 C   0  0  0  0  0  0
  -18.1924  -26.7921   22.1625 C   0  0  0  0  0  0
  -19.1528  -28.8841   23.2892 C   0  0  0  0  0  0
  -18.9457  -30.1446   23.8899 C   0  0  0  0  0  0
  -17.6459  -30.6581   24.0562 C   0  0  0  0  0  0
  -25.9041  -34.9472   23.5122 C   0  0  0  0  0  0
  -16.5349  -29.9082   23.6328 C   0  0  0  0  0  0
  -16.7267  -28.6501   23.0346 C   0  0  0  0  0  0
  -26.4473  -31.6609   25.0747 C   0  0  0  0  0  0
  -25.3734  -31.3742   26.1498 C   0  0  0  0  0  0
  -27.0304  -30.3039   24.6166 C   0  0  0  0  0  0
  -27.6045  -32.4335   25.7510 C   0  0  0  0  0  0
  -27.5582  -37.1812   24.8459 C   0  0  0  0  0  0
  -21.4160  -29.3035   22.3709 N   0  0  0  0  0  0
  -26.4291  -37.3794   23.9406 N   0  0  0  0  0  0
  -24.6731  -31.0760   22.1019 N   0  0  0  0  0  0
  -23.4200  -28.8185   23.3005 O   0  0  0  0  0  0
  -28.3638  -26.6229   20.1395 O   0  0  0  0  0  0
  -26.5602  -34.8921   22.4684 O   0  0  0  0  0  0
  -23.5366  -32.1428   23.7495 O   0  0  0  0  0  0
  -30.9944  -19.0345   19.3413 C   0  0  0  0  0  0
  -30.0384  -19.2096   20.3136 C   0  0  0  0  0  0
  -30.2826  -16.9276   20.4155 C   0  0  0  0  0  0
  -28.9396  -22.8450   20.8506 C   0  0  0  0  0  0
  -29.8628  -21.7230   20.2784 C   0  0  0  0  0  0
  -29.3285  -24.3237   20.5902 C   0  0  0  0  0  0
  -28.1427  -25.1919   20.1002 C   0  0  0  0  0  0
  -29.6227  -17.9961   20.9084 N   0  0  0  0  0  0
  -29.4875  -20.4808   20.6709 N   0  0  0  0  0  0
  -30.0040  -15.5919   20.8517 N   0  0  0  0  0  0
  -27.9328  -22.5684   21.5155 O   0  0  0  0  0  0
  -30.8289  -21.9850   19.5523 O   0  0  0  0  0  0
  -31.4280  -17.3644   19.1386 S   0  0  0  0  0  0
  -31.4585  -12.3673   19.1471 H   0  0  0  0  0  0
  -30.2805  -11.3029   19.8621 H   0  0  0  0  0  0
  -29.7361  -11.7593   17.4442 H   0  0  0  0  0  0
  -29.6713  -13.4736   17.7676 H   0  0  0  0  0  0
  -27.8181  -11.3095   18.8228 H   0  0  0  0  0  0
  -27.3696  -12.6332   17.7816 H   0  0  0  0  0  0
  -27.6836  -14.2586   19.5416 H   0  0  0  0  0  0
  -28.6672  -12.0291   21.3892 H   0  0  0  0  0  0
  -28.4676  -13.6995   21.8370 H   0  0  0  0  0  0
  -25.2747   -9.5688   22.4760 H   0  0  0  0  0  0
  -23.9996   -7.4631   22.7467 H   0  0  0  0  0  0
  -21.0830   -8.8759   19.8957 H   0  0  0  0  0  0
  -22.3669  -10.9666   19.6164 H   0  0  0  0  0  0
  -21.2011   -7.6149   23.9716 H   0  0  0  0  0  0
  -21.1490   -6.0521   25.9080 H   0  0  0  0  0  0
  -22.0597   -2.7606   23.2840 H   0  0  0  0  0  0
  -22.4074  -11.9897   22.4816 H   0  0  0  0  0  0
  -21.1094  -13.1281   22.2608 H   0  0  0  0  0  0
  -24.6565  -15.8434   20.5199 H   0  0  0  0  0  0
  -26.2737  -15.6317   20.0801 H   0  0  0  0  0  0
  -26.7139  -32.5507   23.1163 H   0  0  0  0  0  0
  -25.0074  -33.9776   25.0475 H   0  0  0  0  0  0
  -22.6952  -31.3125   21.4174 H   0  0  0  0  0  0
  -23.3744  -35.9656   23.3303 H   0  0  0  0  0  0
  -24.3581  -36.8926   22.2050 H   0  0  0  0  0  0
  -23.7249  -37.6521   23.6649 H   0  0  0  0  0  0
  -26.0672  -31.5965   20.6099 H   0  0  0  0  0  0
  -26.8228  -30.8646   21.9983 H   0  0  0  0  0  0
  -28.1022  -29.0705   21.1624 H   0  0  0  0  0  0
  -25.9841  -25.9824   18.9903 H   0  0  0  0  0  0
  -23.9578  -27.3223   19.0250 H   0  0  0  0  0  0
  -23.7293  -30.6156   19.4095 H   0  0  0  0  0  0
  -22.7358  -29.2624   19.8624 H   0  0  0  0  0  0
  -25.1288  -36.1966   25.0822 H   0  0  0  0  0  0
  -20.9964  -28.3236   24.1425 H   0  0  0  0  0  0
  -20.5675  -26.2279   23.3602 H   0  0  0  0  0  0
  -21.6638  -26.7444   22.1200 H   0  0  0  0  0  0
  -19.6904  -25.6295   21.1233 H   0  0  0  0  0  0
  -19.6679  -27.3197   20.6740 H   0  0  0  0  0  0
  -17.4195  -26.6671   21.4023 H   0  0  0  0  0  0
  -18.0325  -26.0060   22.9020 H   0  0  0  0  0  0
  -19.7935  -30.7262   24.2264 H   0  0  0  0  0  0
  -17.5016  -31.6260   24.5170 H   0  0  0  0  0  0
  -15.5350  -30.2986   23.7648 H   0  0  0  0  0  0
  -15.8670  -28.0824   22.7053 H   0  0  0  0  0  0
  -24.5880  -30.7114   25.7841 H   0  0  0  0  0  0
  -24.8959  -32.2916   26.4953 H   0  0  0  0  0  0
  -25.8077  -30.8900   27.0256 H   0  0  0  0  0  0
  -26.2868  -29.6813   24.1176 H   0  0  0  0  0  0
  -27.3996  -29.7264   25.4651 H   0  0  0  0  0  0
  -27.8739  -30.4325   23.9380 H   0  0  0  0  0  0
  -27.2646  -33.3609   26.2131 H   0  0  0  0  0  0
  -28.3832  -32.6944   25.0330 H   0  0  0  0  0  0
  -28.0746  -31.8447   26.5397 H   0  0  0  0  0  0
  -28.2599  -38.0110   24.7510 H   0  0  0  0  0  0
  -28.1076  -36.2642   24.6273 H   0  0  0  0  0  0
  -27.2304  -37.1455   25.8863 H   0  0  0  0  0  0
  -20.9323  -29.8776   21.6948 H   0  0  0  0  0  0
  -26.0177  -38.2870   24.1410 H   0  0  0  0  0  0
  -31.4759  -19.7744   18.7179 H   0  0  0  0  0  0
  -30.1487  -24.3793   19.8753 H   0  0  0  0  0  0
  -29.7060  -24.7225   21.5303 H   0  0  0  0  0  0
  -27.2700  -24.9547   20.7128 H   0  0  0  0  0  0
  -27.9086  -24.8973   19.0759 H   0  0  0  0  0  0
  -28.6948  -20.4773   21.2998 H   0  0  0  0  0  0
  -29.1052  -15.4389   21.2776 H   0  0  0  0  0  0
  1 25  1  0  0  0
  1 30  2  0  0  0
  1 80  1  0  0  0
  2  3  1  0  0  0
  2 25  1  0  0  0
  2 84  1  0  0  0
  2 85  1  0  0  0
  3  4  1  0  0  0
  3 86  1  0  0  0
  3 87  1  0  0  0
  4  5  1  0  0  0
  4 88  1  0  0  0
  4 89  1  0  0  0
  5  6  1  0  0  0
  5 26  1  0  0  0
  5 90  1  0  0  0
  6 25  1  0  0  0
  6 91  1  0  0  0
  6 92  1  0  0  0
  7  8  2  0  0  0
  7 26  1  0  0  0
  7 29  1  0  0  0
  8  9  1  0  0  0
  8 22  1  0  0  0
  9 10  1  0  0  0
  9 27  2  0  0  0
 10 11  2  0  0  0
 10 15  1  0  0  0
 11 12  1  0  0  0
 11 93  1  0  0  0
 12 13  2  0  0  0
 12 94  1  0  0  0
 13 14  1  0  0  0
 13 31  1  0  0  0
 14 15  2  0  0  0
 14 95  1  0  0  0
 15 96  1  0  0  0
 16 17  2  0  0  0
 16 21  1  0  0  0
 16 31  1  0  0  0
 17 18  1  0  0  0
 17 97  1  0  0  0
 18 19  2  0  0  0
 18 98  1  0  0  0
 19 20  1  0  0  0
 19 24  1  0  0  0
 20 21  2  0  0  0
 20 99  1  0  0  0
 21 23  1  0  0  0
 22 28  1  0  0  0
 22 32  2  0  0  0
 26 27  1  0  0  0
 28100  1  0  0  0
 28101  1  0  0  0
 29102  1  0  0  0
 29103  1  0  0  0
 33 34  1  0  0  0
 33 66  1  0  0  0
 33 70  2  0  0  0
 34 36  1  0  0  0
 34 59  1  0  0  0
 34104  1  0  0  0
 35 44  2  0  0  0
 35 45  1  0  0  0
 35 68  1  0  0  0
 36 56  1  0  0  0
 36105  1  0  0  0
 37 39  1  0  0  0
 37 47  1  0  0  0
 37 66  1  0  0  0
 37106  1  0  0  0
 38 43  2  0  0  0
 38 46  1  0  0  0
 38 47  1  0  0  0
 39 64  1  0  0  0
 39 67  2  0  0  0
 40 52  1  0  0  0
 40 53  2  0  0  0
 40 58  1  0  0  0
 41107  1  0  0  0
 41108  1  0  0  0
 41109  1  0  0  0
 41 48  1  0  0  0
 42 43  1  0  0  0
 42 66  1  0  0  0
 42110  1  0  0  0
 42111  1  0  0  0
 43 44  1  0  0  0
 44112  1  0  0  0
 45 46  2  0  0  0
 45113  1  0  0  0
 46114  1  0  0  0
 47115  1  0  0  0
 47116  1  0  0  0
 48 56  1  0  0  0
 48 65  1  0  0  0
 48117  1  0  0  0
 49 50  1  0  0  0
 49 53  1  0  0  0
 49 64  1  0  0  0
 49118  1  0  0  0
 50 51  1  0  0  0
 50119  1  0  0  0
 50120  1  0  0  0
 51 52  1  0  0  0
 51121  1  0  0  0
 51122  1  0  0  0
 52123  1  0  0  0
 52124  1  0  0  0
 53 54  1  0  0  0
 54 55  2  0  0  0
 54125  1  0  0  0
 55 57  1  0  0  0
 55126  1  0  0  0
 56 69  2  0  0  0
 57 58  2  0  0  0
 57127  1  0  0  0
 58128  1  0  0  0
 59 60  1  0  0  0
 59 61  1  0  0  0
 59 62  1  0  0  0
 60129  1  0  0  0
 60130  1  0  0  0
 60131  1  0  0  0
 61132  1  0  0  0
 61133  1  0  0  0
 61134  1  0  0  0
 62135  1  0  0  0
 62136  1  0  0  0
 62137  1  0  0  0
 63 65  1  0  0  0
 63138  1  0  0  0
 63139  1  0  0  0
 63140  1  0  0  0
 64141  1  0  0  0
 65142  1  0  0  0
 68 77  1  0  0  0
 71 72  2  0  0  0
 71 83  1  0  0  0
 71143  1  0  0  0
 72 78  1  0  0  0
 72 79  1  0  0  0
 73 78  2  0  0  0
 73 80  1  0  0  0
 73 83  1  0  0  0
 74 75  1  0  0  0
 74 76  1  0  0  0
 74 81  2  0  0  0
 75 79  1  0  0  0
 75 82  2  0  0  0
 76 77  1  0  0  0
 76144  1  0  0  0
 76145  1  0  0  0
 77146  1  0  0  0
 77147  1  0  0  0
 79148  1  0  0  0
 80149  1  0  0  0
M  ISO  4   1 100  68 101  77 101  80 100
M  END
> <chiral flag>
0

> <version>
0

> <s_m_source_file>
/data/baiqing/PycharmProjects/Reinvent-master-3.2/result/LINK_invent/BTK/process_docking_weight1_custom_product_contain_oxygen_bond_distance_aromatic_linkinvent_7_9_3/rearranged_h_0177.sdf

> <i_m_source_file_index>
85

> <r_mmod_Potential_Energy-OPLS-2005>
-176.032867431641

> <r_mmod_Stretch_Energy-OPLS-2005>
41.1635284423828

> <r_mmod_Bend_Energy-OPLS-2005>
101.128196716309

> <r_mmod_Torsional_Energy-OPLS-2005>
222.064636230469

> <r_mmod_Improper_Torsional_Energy-OPLS-2005>
4.32914257049561

> <r_mmod_Van_der_Waal_Energy-OPLS-2005>
149.322463989258

> <r_mmod_Electrostatic_Energy-OPLS-2005>
-485.338287353516

> <r_mmod_Solvation_Energy-OPLS-2005>
-230.785171508789

> <b_mmod_Minimization_Converged-OPLS-2005>
0

> <r_mmod_RMS_Derivative-OPLS-2005>
1.18378341197968

$$$$
85
                    3D
 Structure written by MMmdl.
155163  0  0  1  0            999 V2000
  -30.6661  -14.5240   20.5173 C   0  0  0  0  0  0
  -30.4249  -12.3169   19.4483 C   0  0  0  0  0  0
  -29.5029  -12.4841   18.2205 C   0  0  0  0  0  0
  -28.0206  -12.3585   18.6253 C   0  0  0  0  0  0
  -27.6585  -13.2106   19.8719 C   0  0  2  0  0  0
  -28.6971  -13.0197   21.0004 C   0  0  0  0  0  0
  -25.2583  -13.8181   20.5692 C   0  0  0  0  0  0
  -24.1841  -13.0449   20.9183 C   0  0  0  0  0  0
  -24.6395  -11.6915   20.8726 C   0  0  0  0  0  0
  -23.9063  -10.4299   21.0391 C   0  0  0  0  0  0
  -24.3614   -9.4219   21.9172 C   0  0  0  0  0  0
  -23.6292   -8.2258   22.0750 C   0  0  0  0  0  0
  -22.4275   -8.0290   21.3542 C   0  0  0  0  0  0
  -21.9908   -9.0264   20.4644 C   0  0  0  0  0  0
  -22.7235  -10.2143   20.3046 C   0  0  0  0  0  0
  -21.6861   -6.0731   22.5277 C   0  0  0  0  0  0
  -21.4018   -6.5633   23.8211 C   0  0  0  0  0  0
  -21.3664   -5.6784   24.9170 C   0  0  0  0  0  0
  -21.6052   -4.3048   24.7228 C   0  0  0  0  0  0
  -21.8816   -3.8143   23.4347 C   0  0  0  0  0  0
  -21.9188   -4.6957   22.3399 C   0  0  0  0  0  0
  -22.7862  -13.5242   21.1854 C   0  0  0  0  0  0
  -22.1650   -4.2143   21.0978 F   0  0  0  0  0  0
  -21.5640   -3.4528   25.7739 F   0  0  0  0  0  0
  -30.0275  -13.3216   20.4502 N   0  0  0  0  0  0
  -26.3007  -12.9346   20.3345 N   0  0  0  0  0  0
  -25.9321  -11.6509   20.5759 N   0  0  0  0  0  0
  -22.0496  -12.8232   22.0403 N   0  0  0  0  0  0
  -25.4314  -15.1901   20.4109 N   0  0  0  0  0  0
  -31.8197  -14.6808   20.1034 O   0  0  0  0  0  0
  -21.6652   -6.8878   21.4240 O   0  0  0  0  0  0
  -22.3550  -14.5556   20.6705 O   0  0  0  0  0  0
  -24.6195  -31.8655   23.2084 C   0  0  0  0  0  0
  -25.9070  -32.4812   23.8390 C   0  0  1  0  0  0
  -27.2269  -27.3925   20.1046 C   0  0  0  0  0  0
  -25.5917  -33.8612   24.2318 N   0  0  0  0  0  0
  -23.4090  -30.4914   21.5494 C   0  0  2  0  0  0
  -24.8539  -28.9577   20.1124 C   0  0  0  0  0  0
  -22.7434  -29.4658   22.4965 C   0  0  0  0  0  0
  -18.0279  -28.1380   22.8491 C   0  0  0  0  0  0
  -24.1492  -36.7315   23.2634 C   0  0  0  0  0  0
  -25.9436  -30.8199   21.3678 C   0  0  0  0  0  0
  -26.0196  -29.4541   20.7094 C   0  0  0  0  0  0
  -27.2105  -28.6835   20.6941 C   0  0  0  0  0  0
  -26.0374  -26.9276   19.4939 C   0  0  0  0  0  0
  -24.8604  -27.6963   19.4987 C   0  0  0  0  0  0
  -23.6189  -29.8287   20.1632 C   0  0  0  0  0  0
  -25.4111  -36.3104   24.0331 C   0  0  1  0  0  0
  -20.5872  -28.3680   23.1298 C   0  0  2  0  0  0
  -20.6773  -26.9414   22.5410 C   0  0  0  0  0  0
  -19.5751  -26.6386   21.5210 C   0  0  0  0  0  0
  -18.1926  -26.7925   22.1622 C   0  0  0  0  0  0
  -19.1528  -28.8845   23.2893 C   0  0  0  0  0  0
  -18.9454  -30.1446   23.8910 C   0  0  0  0  0  0
  -17.6455  -30.6586   24.0565 C   0  0  0  0  0  0
  -25.9043  -34.9470   23.5119 C   0  0  0  0  0  0
  -16.5346  -29.9089   23.6325 C   0  0  0  0  0  0
  -16.7265  -28.6504   23.0350 C   0  0  0  0  0  0
  -26.4476  -31.6602   25.0737 C   0  0  0  0  0  0
  -25.3729  -31.3723   26.1480 C   0  0  0  0  0  0
  -27.0303  -30.3031   24.6145 C   0  0  0  0  0  0
  -27.6047  -32.4328   25.7504 C   0  0  0  0  0  0
  -27.5586  -37.1810   24.8456 C   0  0  0  0  0  0
  -21.4158  -29.3046   22.3705 N   0  0  0  0  0  0
  -26.4296  -37.3791   23.9408 N   0  0  0  0  0  0
  -24.6759  -31.0735   22.0999 N   0  0  0  0  0  0
  -23.4188  -28.8188   23.3014 O   0  0  0  0  0  0
  -28.3718  -26.6045   20.1475 O   0  0  0  0  0  0
  -26.5603  -34.8920   22.4681 O   0  0  0  0  0  0
  -23.5377  -32.1424   23.7454 O   0  0  0  0  0  0
  -29.1571  -19.0262   18.5890 C   0  0  0  0  0  0
  -29.5127  -16.6484   18.7516 C   0  0  0  0  0  0
  -29.2220  -17.7729   17.9615 C   0  0  0  0  0  0
  -29.3807  -19.1473   19.9744 C   0  0  0  0  0  0
  -29.7213  -16.7868   20.1379 C   0  0  0  0  0  0
  -29.0432  -22.8523   20.9884 C   0  0  0  0  0  0
  -29.4523  -21.6795   20.0343 C   0  0  0  0  0  0
  -29.3896  -24.3112   20.5790 C   0  0  0  0  0  0
  -28.1650  -25.1649   20.1424 C   0  0  0  0  0  0
  -28.9718  -17.6566   16.4633 C   0  0  0  0  0  0
  -29.6246  -18.0234   20.7196 N   0  0  0  0  0  0
  -29.2685  -20.4457   20.5789 N   0  0  0  0  0  0
  -29.9056  -15.5803   20.8961 N   0  0  0  0  0  0
  -28.4640  -22.6334   22.0596 O   0  0  0  0  0  0
  -29.9169  -21.9051   18.9104 O   0  0  0  0  0  0
  -29.9836  -18.2175   15.8017 F   0  0  0  0  0  0
  -28.8621  -16.3834   16.0799 F   0  0  0  0  0  0
  -27.8443  -18.2930   16.1435 F   0  0  0  0  0  0
  -31.4718  -12.4113   19.1525 H   0  0  0  0  0  0
  -30.3251  -11.3137   19.8667 H   0  0  0  0  0  0
  -29.7446  -11.7345   17.4654 H   0  0  0  0  0  0
  -29.6788  -13.4513   17.7491 H   0  0  0  0  0  0
  -27.8255  -11.3050   18.8284 H   0  0  0  0  0  0
  -27.3773  -12.6282   17.7868 H   0  0  0  0  0  0
  -27.6912  -14.2536   19.5595 H   0  0  0  0  0  0
  -28.6747  -11.9914   21.3651 H   0  0  0  0  0  0
  -28.4576  -13.6431   21.8635 H   0  0  0  0  0  0
  -25.2755   -9.5715   22.4746 H   0  0  0  0  0  0
  -24.0004   -7.4655   22.7471 H   0  0  0  0  0  0
  -21.0835   -8.8783   19.8951 H   0  0  0  0  0  0
  -22.3686  -10.9678   19.6162 H   0  0  0  0  0  0
  -21.2012   -7.6142   23.9711 H   0  0  0  0  0  0
  -21.1490   -6.0515   25.9071 H   0  0  0  0  0  0
  -22.0591   -2.7603   23.2850 H   0  0  0  0  0  0
  -22.4085  -11.9870   22.4770 H   0  0  0  0  0  0
  -21.1122  -13.1288   22.2608 H   0  0  0  0  0  0
  -24.6663  -15.8450   20.5299 H   0  0  0  0  0  0
  -26.2749  -15.6291   20.0649 H   0  0  0  0  0  0
  -26.7144  -32.5500   23.1152 H   0  0  0  0  0  0
  -25.0076  -33.9778   25.0469 H   0  0  0  0  0  0
  -22.7000  -31.3103   21.4104 H   0  0  0  0  0  0
  -23.3752  -35.9651   23.3292 H   0  0  0  0  0  0
  -24.3591  -36.8938   22.2051 H   0  0  0  0  0  0
  -23.7253  -37.6520   23.6655 H   0  0  0  0  0  0
  -26.0644  -31.5870   20.6014 H   0  0  0  0  0  0
  -26.8286  -30.8679   21.9906 H   0  0  0  0  0  0
  -28.1088  -29.0621   21.1606 H   0  0  0  0  0  0
  -25.9896  -25.9621   19.0126 H   0  0  0  0  0  0
  -23.9647  -27.3098   19.0317 H   0  0  0  0  0  0
  -23.7321  -30.6055   19.4064 H   0  0  0  0  0  0
  -22.7409  -29.2533   19.8643 H   0  0  0  0  0  0
  -25.1289  -36.1963   25.0825 H   0  0  0  0  0  0
  -20.9964  -28.3248   24.1417 H   0  0  0  0  0  0
  -20.5677  -26.2289   23.3600 H   0  0  0  0  0  0
  -21.6642  -26.7453   22.1200 H   0  0  0  0  0  0
  -19.6914  -25.6295   21.1241 H   0  0  0  0  0  0
  -19.6688  -27.3197   20.6738 H   0  0  0  0  0  0
  -17.4197  -26.6671   21.4023 H   0  0  0  0  0  0
  -18.0330  -26.0061   22.9012 H   0  0  0  0  0  0
  -19.7926  -30.7259   24.2291 H   0  0  0  0  0  0
  -17.5008  -31.6267   24.5167 H   0  0  0  0  0  0
  -15.5348  -30.2996   23.7643 H   0  0  0  0  0  0
  -15.8662  -28.0827   22.7063 H   0  0  0  0  0  0
  -24.5898  -30.7078   25.7816 H   0  0  0  0  0  0
  -24.8929  -32.2886   26.4928 H   0  0  0  0  0  0
  -25.8073  -30.8890   27.0240 H   0  0  0  0  0  0
  -26.2859  -29.6806   24.1168 H   0  0  0  0  0  0
  -27.4013  -29.7261   25.4627 H   0  0  0  0  0  0
  -27.8722  -30.4329   23.9342 H   0  0  0  0  0  0
  -27.2659  -33.3613   26.2112 H   0  0  0  0  0  0
  -28.3843  -32.6919   25.0329 H   0  0  0  0  0  0
  -28.0731  -31.8438   26.5400 H   0  0  0  0  0  0
  -28.2588  -38.0121   24.7524 H   0  0  0  0  0  0
  -28.1102  -36.2656   24.6257 H   0  0  0  0  0  0
  -27.2308  -37.1427   25.8859 H   0  0  0  0  0  0
  -20.9319  -29.8791   21.6943 H   0  0  0  0  0  0
  -26.0179  -38.2866   24.1417 H   0  0  0  0  0  0
  -28.9166  -19.8820   17.9744 H   0  0  0  0  0  0
  -29.5491  -15.6801   18.2755 H   0  0  0  0  0  0
  -30.1431  -24.3040   19.7919 H   0  0  0  0  0  0
  -29.8593  -24.7766   21.4449 H   0  0  0  0  0  0
  -27.3266  -24.9288   20.8016 H   0  0  0  0  0  0
  -27.8821  -24.8486   19.1378 H   0  0  0  0  0  0
  -28.9953  -20.4673   21.5517 H   0  0  0  0  0  0
  -29.1180  -15.3390   21.4758 H   0  0  0  0  0  0
  1 25  1  0  0  0
  1 30  2  0  0  0
  1 83  1  0  0  0
  2  3  1  0  0  0
  2 25  1  0  0  0
  2 89  1  0  0  0
  2 90  1  0  0  0
  3  4  1  0  0  0
  3 91  1  0  0  0
  3 92  1  0  0  0
  4  5  1  0  0  0
  4 93  1  0  0  0
  4 94  1  0  0  0
  5  6  1  0  0  0
  5 26  1  0  0  0
  5 95  1  0  0  0
  6 25  1  0  0  0
  6 96  1  0  0  0
  6 97  1  0  0  0
  7  8  2  0  0  0
  7 26  1  0  0  0
  7 29  1  0  0  0
  8  9  1  0  0  0
  8 22  1  0  0  0
  9 10  1  0  0  0
  9 27  2  0  0  0
 10 11  2  0  0  0
 10 15  1  0  0  0
 11 12  1  0  0  0
 11 98  1  0  0  0
 12 13  2  0  0  0
 12 99  1  0  0  0
 13 14  1  0  0  0
 13 31  1  0  0  0
 14 15  2  0  0  0
 14100  1  0  0  0
 15101  1  0  0  0
 16 17  2  0  0  0
 16 21  1  0  0  0
 16 31  1  0  0  0
 17 18  1  0  0  0
 17102  1  0  0  0
 18 19  2  0  0  0
 18103  1  0  0  0
 19 20  1  0  0  0
 19 24  1  0  0  0
 20 21  2  0  0  0
 20104  1  0  0  0
 21 23  1  0  0  0
 22 28  1  0  0  0
 22 32  2  0  0  0
 26 27  1  0  0  0
 28105  1  0  0  0
 28106  1  0  0  0
 29107  1  0  0  0
 29108  1  0  0  0
 33 34  1  0  0  0
 33 66  1  0  0  0
 33 70  2  0  0  0
 34 36  1  0  0  0
 34 59  1  0  0  0
 34109  1  0  0  0
 35 44  2  0  0  0
 35 45  1  0  0  0
 35 68  1  0  0  0
 36 56  1  0  0  0
 36110  1  0  0  0
 37 39  1  0  0  0
 37 47  1  0  0  0
 37 66  1  0  0  0
 37111  1  0  0  0
 38 43  2  0  0  0
 38 46  1  0  0  0
 38 47  1  0  0  0
 39 64  1  0  0  0
 39 67  2  0  0  0
 40 52  1  0  0  0
 40 53  2  0  0  0
 40 58  1  0  0  0
 41112  1  0  0  0
 41113  1  0  0  0
 41114  1  0  0  0
 41 48  1  0  0  0
 42 43  1  0  0  0
 42 66  1  0  0  0
 42115  1  0  0  0
 42116  1  0  0  0
 43 44  1  0  0  0
 44117  1  0  0  0
 45 46  2  0  0  0
 45118  1  0  0  0
 46119  1  0  0  0
 47120  1  0  0  0
 47121  1  0  0  0
 48 56  1  0  0  0
 48 65  1  0  0  0
 48122  1  0  0  0
 49 50  1  0  0  0
 49 53  1  0  0  0
 49 64  1  0  0  0
 49123  1  0  0  0
 50 51  1  0  0  0
 50124  1  0  0  0
 50125  1  0  0  0
 51 52  1  0  0  0
 51126  1  0  0  0
 51127  1  0  0  0
 52128  1  0  0  0
 52129  1  0  0  0
 53 54  1  0  0  0
 54 55  2  0  0  0
 54130  1  0  0  0
 55 57  1  0  0  0
 55131  1  0  0  0
 56 69  2  0  0  0
 57 58  2  0  0  0
 57132  1  0  0  0
 58133  1  0  0  0
 59 60  1  0  0  0
 59 61  1  0  0  0
 59 62  1  0  0  0
 60134  1  0  0  0
 60135  1  0  0  0
 60136  1  0  0  0
 61137  1  0  0  0
 61138  1  0  0  0
 61139  1  0  0  0
 62140  1  0  0  0
 62141  1  0  0  0
 62142  1  0  0  0
 63 65  1  0  0  0
 63143  1  0  0  0
 63144  1  0  0  0
 63145  1  0  0  0
 64146  1  0  0  0
 65147  1  0  0  0
 68 79  1  0  0  0
 71 73  2  0  0  0
 71 74  1  0  0  0
 71148  1  0  0  0
 72 73  1  0  0  0
 72 75  2  0  0  0
 72149  1  0  0  0
 73 80  1  0  0  0
 74 81  2  0  0  0
 74 82  1  0  0  0
 75 81  1  0  0  0
 75 83  1  0  0  0
 76 77  1  0  0  0
 76 78  1  0  0  0
 76 84  2  0  0  0
 77 82  1  0  0  0
 77 85  2  0  0  0
 78 79  1  0  0  0
 78150  1  0  0  0
 78151  1  0  0  0
 79152  1  0  0  0
 79153  1  0  0  0
 80 86  1  0  0  0
 80 87  1  0  0  0
 80 88  1  0  0  0
 82154  1  0  0  0
 83155  1  0  0  0
M  ISO  4   1 100  68 101  79 101  83 100
M  END
> <chiral flag>
0

> <version>
0

> <s_m_source_file>
/data/baiqing/PycharmProjects/Reinvent-master-3.2/result/LINK_invent/BTK/process_docking_weight1_custom_product_contain_oxygen_bond_distance_aromatic_linkinvent_7_9_3/rearranged_h_0177.sdf

> <i_m_source_file_index>
86

> <r_mmod_Potential_Energy-OPLS-2005>
-231.996917724609

> <r_mmod_Stretch_Energy-OPLS-2005>
48.9347343444824

> <r_mmod_Bend_Energy-OPLS-2005>
105.565467834473

> <r_mmod_Torsional_Energy-OPLS-2005>
267.675872802734

> <r_mmod_Improper_Torsional_Energy-OPLS-2005>
6.76874589920044

> <r_mmod_Van_der_Waal_Energy-OPLS-2005>
160.189666748047

> <r_mmod_Electrostatic_Energy-OPLS-2005>
-605.909729003906

> <r_mmod_Solvation_Energy-OPLS-2005>
-237.454681396484

> <b_mmod_Minimization_Converged-OPLS-2005>
0

> <r_mmod_RMS_Derivative-OPLS-2005>
1.23024451732635

$$$$
86
                    3D
 Structure written by MMmdl.
164172  0  0  1  0            999 V2000
  -30.6700  -14.5243   20.4956 C   0  0  0  0  0  0
  -30.4230  -12.3171   19.4414 C   0  0  0  0  0  0
  -29.4975  -12.4877   18.2183 C   0  0  0  0  0  0
  -28.0194  -12.3464   18.6314 C   0  0  0  0  0  0
  -27.6561  -13.2075   19.8703 C   0  0  2  0  0  0
  -28.6990  -13.0299   20.9987 C   0  0  0  0  0  0
  -25.2568  -13.8161   20.5691 C   0  0  0  0  0  0
  -24.1823  -13.0437   20.9190 C   0  0  0  0  0  0
  -24.6373  -11.6902   20.8748 C   0  0  0  0  0  0
  -23.9037  -10.4291   21.0405 C   0  0  0  0  0  0
  -24.3596   -9.4210   21.9180 C   0  0  0  0  0  0
  -23.6281   -8.2243   22.0750 C   0  0  0  0  0  0
  -22.4266   -8.0270   21.3537 C   0  0  0  0  0  0
  -21.9890   -9.0243   20.4641 C   0  0  0  0  0  0
  -22.7211  -10.2130   20.3052 C   0  0  0  0  0  0
  -21.6848   -6.0721   22.5269 C   0  0  0  0  0  0
  -21.4011   -6.5631   23.8200 C   0  0  0  0  0  0
  -21.3659   -5.6788   24.9162 C   0  0  0  0  0  0
  -21.6050   -4.3052   24.7219 C   0  0  0  0  0  0
  -21.8821   -3.8137   23.4342 C   0  0  0  0  0  0
  -21.9197   -4.6949   22.3394 C   0  0  0  0  0  0
  -22.7849  -13.5235   21.1864 C   0  0  0  0  0  0
  -22.1665   -4.2136   21.0973 F   0  0  0  0  0  0
  -21.5635   -3.4535   25.7734 F   0  0  0  0  0  0
  -30.0273  -13.3253   20.4394 N   0  0  0  0  0  0
  -26.2989  -12.9331   20.3353 N   0  0  0  0  0  0
  -25.9299  -11.6491   20.5775 N   0  0  0  0  0  0
  -22.0488  -12.8218   22.0420 N   0  0  0  0  0  0
  -25.4311  -15.1876   20.4070 N   0  0  0  0  0  0
  -31.8326  -14.6703   20.1101 O   0  0  0  0  0  0
  -21.6639   -6.8862   21.4229 O   0  0  0  0  0  0
  -22.3535  -14.5542   20.6713 O   0  0  0  0  0  0
  -24.6165  -31.8664   23.2081 C   0  0  0  0  0  0
  -25.9050  -32.4822   23.8388 C   0  0  1  0  0  0
  -27.2324  -27.4129   20.1123 C   0  0  0  0  0  0
  -25.5878  -33.8623   24.2312 N   0  0  0  0  0  0
  -23.4068  -30.4886   21.5495 C   0  0  2  0  0  0
  -24.8558  -28.9514   20.1153 C   0  0  0  0  0  0
  -22.7423  -29.4645   22.4983 C   0  0  0  0  0  0
  -18.0273  -28.1374   22.8491 C   0  0  0  0  0  0
  -24.1490  -36.7307   23.2640 C   0  0  0  0  0  0
  -25.9371  -30.8284   21.3632 C   0  0  0  0  0  0
  -26.0167  -29.4603   20.7114 C   0  0  0  0  0  0
  -27.2134  -28.7014   20.7008 C   0  0  0  0  0  0
  -26.0565  -26.9220   19.5077 C   0  0  0  0  0  0
  -24.8714  -27.6834   19.5064 C   0  0  0  0  0  0
  -23.6172  -29.8199   20.1646 C   0  0  0  0  0  0
  -25.4107  -36.3111   24.0335 C   0  0  1  0  0  0
  -20.5869  -28.3666   23.1311 C   0  0  2  0  0  0
  -20.6778  -26.9403   22.5413 C   0  0  0  0  0  0
  -19.5758  -26.6389   21.5210 C   0  0  0  0  0  0
  -18.1926  -26.7926   22.1619 C   0  0  0  0  0  0
  -19.1520  -28.8840   23.2904 C   0  0  0  0  0  0
  -18.9451  -30.1441   23.8923 C   0  0  0  0  0  0
  -17.6456  -30.6592   24.0556 C   0  0  0  0  0  0
  -25.9030  -34.9480   23.5124 C   0  0  0  0  0  0
  -16.5345  -29.9084   23.6332 C   0  0  0  0  0  0
  -16.7264  -28.6495   23.0363 C   0  0  0  0  0  0
  -26.4472  -31.6607   25.0719 C   0  0  0  0  0  0
  -25.3728  -31.3688   26.1454 C   0  0  0  0  0  0
  -27.0313  -30.3064   24.6074 C   0  0  0  0  0  0
  -27.6046  -32.4332   25.7474 C   0  0  0  0  0  0
  -27.5584  -37.1802   24.8462 C   0  0  0  0  0  0
  -21.4152  -29.3024   22.3724 N   0  0  0  0  0  0
  -26.4291  -37.3790   23.9409 N   0  0  0  0  0  0
  -24.6715  -31.0755   22.0984 N   0  0  0  0  0  0
  -23.4188  -28.8202   23.3034 O   0  0  0  0  0  0
  -28.3709  -26.6331   20.1087 O   0  0  0  0  0  0
  -26.5607  -34.8927   22.4702 O   0  0  0  0  0  0
  -23.5358  -32.1414   23.7463 O   0  0  0  0  0  0
  -29.9367  -18.1775   20.9137 C   0  0  0  0  0  0
  -30.3041  -18.4008   22.2277 C   0  0  0  0  0  0
  -29.5212  -20.4518   21.0504 C   0  0  0  0  0  0
  -28.7262  -24.1441   20.2701 C   0  0  0  0  0  0
  -29.0541  -22.9160   21.1983 C   0  0  0  0  0  0
  -29.0539  -17.9968   24.9350 C   0  0  0  0  0  0
  -29.1238  -15.7450   23.8661 C   0  0  0  0  0  0
  -30.8850  -16.3953   25.5097 C   0  0  0  0  0  0
  -30.0591  -16.9121   20.0689 C   0  0  0  0  0  0
  -30.9049  -17.4367   23.2174 C   0  0  0  0  0  0
  -28.3007  -25.4659   20.9674 C   0  0  0  0  0  0
  -29.9906  -16.9125   24.3669 C   0  0  0  0  0  0
  -29.4805  -19.3558   20.2763 N   0  0  0  0  0  0
  -29.1495  -21.7363   20.5373 N   0  0  0  0  0  0
  -29.8757  -15.5940   20.7146 N   0  0  0  0  0  0
  -28.7932  -24.0642   19.0360 O   0  0  0  0  0  0
  -29.1962  -23.0495   22.4191 O   0  0  0  0  0  0
  -30.1387  -20.0989   22.6595 S   0  0  0  0  0  0
  -31.4679  -12.4132   19.1408 H   0  0  0  0  0  0
  -30.3270  -11.3149   19.8615 H   0  0  0  0  0  0
  -29.7423  -11.7477   17.4554 H   0  0  0  0  0  0
  -29.6623  -13.4646   17.7618 H   0  0  0  0  0  0
  -27.8400  -11.2926   18.8503 H   0  0  0  0  0  0
  -27.3664  -12.5959   17.7945 H   0  0  0  0  0  0
  -27.6858  -14.2463   19.5429 H   0  0  0  0  0  0
  -28.6797  -12.0088   21.3817 H   0  0  0  0  0  0
  -28.4642  -13.6716   21.8482 H   0  0  0  0  0  0
  -25.2733   -9.5697   22.4755 H   0  0  0  0  0  0
  -23.9989   -7.4636   22.7468 H   0  0  0  0  0  0
  -21.0825   -8.8753   19.8947 H   0  0  0  0  0  0
  -22.3654  -10.9667   19.6167 H   0  0  0  0  0  0
  -21.1994   -7.6137   23.9693 H   0  0  0  0  0  0
  -21.1485   -6.0520   25.9066 H   0  0  0  0  0  0
  -22.0605   -2.7598   23.2843 H   0  0  0  0  0  0
  -22.4096  -11.9864   22.4790 H   0  0  0  0  0  0
  -21.1108  -13.1251   22.2638 H   0  0  0  0  0  0
  -24.6652  -15.8446   20.5078 H   0  0  0  0  0  0
  -26.2773  -15.6213   20.0619 H   0  0  0  0  0  0
  -26.7121  -32.5536   23.1152 H   0  0  0  0  0  0
  -25.0033  -33.9774   25.0459 H   0  0  0  0  0  0
  -22.6950  -31.3043   21.4087 H   0  0  0  0  0  0
  -23.3757  -35.9641   23.3314 H   0  0  0  0  0  0
  -24.3579  -36.8919   22.2055 H   0  0  0  0  0  0
  -23.7237  -37.6504   23.6659 H   0  0  0  0  0  0
  -26.0473  -31.5944   20.5949 H   0  0  0  0  0  0
  -26.8258  -30.8854   21.9807 H   0  0  0  0  0  0
  -28.1124  -29.0890   21.1624 H   0  0  0  0  0  0
  -26.0591  -25.9482   19.0373 H   0  0  0  0  0  0
  -23.9798  -27.2868   19.0396 H   0  0  0  0  0  0
  -23.7243  -30.5941   19.4035 H   0  0  0  0  0  0
  -22.7416  -29.2380   19.8722 H   0  0  0  0  0  0
  -25.1297  -36.1978   25.0827 H   0  0  0  0  0  0
  -20.9944  -28.3248   24.1431 H   0  0  0  0  0  0
  -20.5690  -26.2274   23.3598 H   0  0  0  0  0  0
  -21.6648  -26.7465   22.1195 H   0  0  0  0  0  0
  -19.6923  -25.6299   21.1233 H   0  0  0  0  0  0
  -19.6707  -27.3208   20.6747 H   0  0  0  0  0  0
  -17.4200  -26.6673   21.4010 H   0  0  0  0  0  0
  -18.0322  -26.0057   22.9004 H   0  0  0  0  0  0
  -19.7937  -30.7235   24.2311 H   0  0  0  0  0  0
  -17.5023  -31.6276   24.5153 H   0  0  0  0  0  0
  -15.5348  -30.3003   23.7649 H   0  0  0  0  0  0
  -15.8656  -28.0820   22.7087 H   0  0  0  0  0  0
  -24.5915  -30.7034   25.7765 H   0  0  0  0  0  0
  -24.8895  -32.2831   26.4919 H   0  0  0  0  0  0
  -25.8072  -30.8838   27.0207 H   0  0  0  0  0  0
  -26.2858  -29.6800   24.1164 H   0  0  0  0  0  0
  -27.4147  -29.7314   25.4511 H   0  0  0  0  0  0
  -27.8663  -30.4402   23.9189 H   0  0  0  0  0  0
  -27.2684  -33.3642   26.2048 H   0  0  0  0  0  0
  -28.3851  -32.6873   25.0292 H   0  0  0  0  0  0
  -28.0718  -31.8454   26.5381 H   0  0  0  0  0  0
  -28.2600  -38.0103   24.7534 H   0  0  0  0  0  0
  -28.1088  -36.2639   24.6286 H   0  0  0  0  0  0
  -27.2297  -37.1444   25.8859 H   0  0  0  0  0  0
  -20.9317  -29.8734   21.6930 H   0  0  0  0  0  0
  -26.0196  -38.2874   24.1413 H   0  0  0  0  0  0
  -28.4730  -17.6205   25.7773 H   0  0  0  0  0  0
  -28.3370  -18.3432   24.1892 H   0  0  0  0  0  0
  -29.6130  -18.8623   25.2914 H   0  0  0  0  0  0
  -28.4923  -15.3463   24.6611 H   0  0  0  0  0  0
  -29.7378  -14.9214   23.5011 H   0  0  0  0  0  0
  -28.4627  -16.0607   23.0589 H   0  0  0  0  0  0
  -30.2911  -16.0015   26.3356 H   0  0  0  0  0  0
  -31.5182  -17.1860   25.9142 H   0  0  0  0  0  0
  -31.5420  -15.5928   25.1701 H   0  0  0  0  0  0
  -31.0127  -16.9461   19.5409 H   0  0  0  0  0  0
  -29.3142  -16.9476   19.2732 H   0  0  0  0  0  0
  -31.7559  -17.9495   23.6679 H   0  0  0  0  0  0
  -31.3610  -16.5962   22.6951 H   0  0  0  0  0  0
  -28.9544  -25.6403   21.8226 H   0  0  0  0  0  0
  -27.2967  -25.3310   21.3713 H   0  0  0  0  0  0
  -28.9582  -21.7933   19.5471 H   0  0  0  0  0  0
  -28.9479  -15.3999   21.0541 H   0  0  0  0  0  0
  1 25  1  0  0  0
  1 30  2  0  0  0
  1 85  1  0  0  0
  2  3  1  0  0  0
  2 25  1  0  0  0
  2 89  1  0  0  0
  2 90  1  0  0  0
  3  4  1  0  0  0
  3 91  1  0  0  0
  3 92  1  0  0  0
  4  5  1  0  0  0
  4 93  1  0  0  0
  4 94  1  0  0  0
  5  6  1  0  0  0
  5 26  1  0  0  0
  5 95  1  0  0  0
  6 25  1  0  0  0
  6 96  1  0  0  0
  6 97  1  0  0  0
  7  8  2  0  0  0
  7 26  1  0  0  0
  7 29  1  0  0  0
  8  9  1  0  0  0
  8 22  1  0  0  0
  9 10  1  0  0  0
  9 27  2  0  0  0
 10 11  2  0  0  0
 10 15  1  0  0  0
 11 12  1  0  0  0
 11 98  1  0  0  0
 12 13  2  0  0  0
 12 99  1  0  0  0
 13 14  1  0  0  0
 13 31  1  0  0  0
 14 15  2  0  0  0
 14100  1  0  0  0
 15101  1  0  0  0
 16 17  2  0  0  0
 16 21  1  0  0  0
 16 31  1  0  0  0
 17 18  1  0  0  0
 17102  1  0  0  0
 18 19  2  0  0  0
 18103  1  0  0  0
 19 20  1  0  0  0
 19 24  1  0  0  0
 20 21  2  0  0  0
 20104  1  0  0  0
 21 23  1  0  0  0
 22 28  1  0  0  0
 22 32  2  0  0  0
 26 27  1  0  0  0
 28105  1  0  0  0
 28106  1  0  0  0
 29107  1  0  0  0
 29108  1  0  0  0
 33 34  1  0  0  0
 33 66  1  0  0  0
 33 70  2  0  0  0
 34 36  1  0  0  0
 34 59  1  0  0  0
 34109  1  0  0  0
 35 44  2  0  0  0
 35 45  1  0  0  0
 35 68  1  0  0  0
 36 56  1  0  0  0
 36110  1  0  0  0
 37 39  1  0  0  0
 37 47  1  0  0  0
 37 66  1  0  0  0
 37111  1  0  0  0
 38 43  2  0  0  0
 38 46  1  0  0  0
 38 47  1  0  0  0
 39 64  1  0  0  0
 39 67  2  0  0  0
 40 52  1  0  0  0
 40 53  2  0  0  0
 40 58  1  0  0  0
 41112  1  0  0  0
 41113  1  0  0  0
 41114  1  0  0  0
 41 48  1  0  0  0
 42 43  1  0  0  0
 42 66  1  0  0  0
 42115  1  0  0  0
 42116  1  0  0  0
 43 44  1  0  0  0
 44117  1  0  0  0
 45 46  2  0  0  0
 45118  1  0  0  0
 46119  1  0  0  0
 47120  1  0  0  0
 47121  1  0  0  0
 48 56  1  0  0  0
 48 65  1  0  0  0
 48122  1  0  0  0
 49 50  1  0  0  0
 49 53  1  0  0  0
 49 64  1  0  0  0
 49123  1  0  0  0
 50 51  1  0  0  0
 50124  1  0  0  0
 50125  1  0  0  0
 51 52  1  0  0  0
 51126  1  0  0  0
 51127  1  0  0  0
 52128  1  0  0  0
 52129  1  0  0  0
 53 54  1  0  0  0
 54 55  2  0  0  0
 54130  1  0  0  0
 55 57  1  0  0  0
 55131  1  0  0  0
 56 69  2  0  0  0
 57 58  2  0  0  0
 57132  1  0  0  0
 58133  1  0  0  0
 59 60  1  0  0  0
 59 61  1  0  0  0
 59 62  1  0  0  0
 60134  1  0  0  0
 60135  1  0  0  0
 60136  1  0  0  0
 61137  1  0  0  0
 61138  1  0  0  0
 61139  1  0  0  0
 62140  1  0  0  0
 62141  1  0  0  0
 62142  1  0  0  0
 63 65  1  0  0  0
 63143  1  0  0  0
 63144  1  0  0  0
 63145  1  0  0  0
 64146  1  0  0  0
 65147  1  0  0  0
 68 81  1  0  0  0
 71 72  2  0  0  0
 71 79  1  0  0  0
 71 83  1  0  0  0
 72 80  1  0  0  0
 72 88  1  0  0  0
 73 83  2  0  0  0
 73 84  1  0  0  0
 73 88  1  0  0  0
 74 75  1  0  0  0
 74 81  1  0  0  0
 74 86  2  0  0  0
 75 84  1  0  0  0
 75 87  2  0  0  0
 76148  1  0  0  0
 76149  1  0  0  0
 76150  1  0  0  0
 76 82  1  0  0  0
 77 82  1  0  0  0
 77151  1  0  0  0
 77152  1  0  0  0
 77153  1  0  0  0
 78 82  1  0  0  0
 78154  1  0  0  0
 78155  1  0  0  0
 78156  1  0  0  0
 79 85  1  0  0  0
 79157  1  0  0  0
 79158  1  0  0  0
 80 82  1  0  0  0
 80159  1  0  0  0
 80160  1  0  0  0
 81161  1  0  0  0
 81162  1  0  0  0
 84163  1  0  0  0
 85164  1  0  0  0
M  ISO  4   1 100  68 101  81 101  85 100
M  END
> <chiral flag>
0

> <version>
0

> <s_m_source_file>
/data/baiqing/PycharmProjects/Reinvent-master-3.2/result/LINK_invent/BTK/process_docking_weight1_custom_product_contain_oxygen_bond_distance_aromatic_linkinvent_7_9_3/rearranged_h_0177.sdf

> <i_m_source_file_index>
87

> <r_mmod_Potential_Energy-OPLS-2005>
-182.998977661133

> <r_mmod_Stretch_Energy-OPLS-2005>
45.0735664367676

> <r_mmod_Bend_Energy-OPLS-2005>
113.355834960938

> <r_mmod_Torsional_Energy-OPLS-2005>
225.016937255859

> <r_mmod_Improper_Torsional_Energy-OPLS-2005>
9.11495208740234

> <r_mmod_Van_der_Waal_Energy-OPLS-2005>
121.766288757324

> <r_mmod_Electrostatic_Energy-OPLS-2005>
-493.336456298828

> <r_mmod_Solvation_Energy-OPLS-2005>
-224.262634277344

> <b_mmod_Minimization_Converged-OPLS-2005>
0

> <r_mmod_RMS_Derivative-OPLS-2005>
1.91678106784821

$$$$
87
                    3D
 Structure written by MMmdl.
154162  0  0  1  0            999 V2000
  -30.7294  -14.4201   20.6416 C   0  0  0  0  0  0
  -30.4201  -12.2982   19.4110 C   0  0  0  0  0  0
  -29.4896  -12.5194   18.2015 C   0  0  0  0  0  0
  -28.0116  -12.3787   18.6141 C   0  0  0  0  0  0
  -27.6637  -13.2038   19.8813 C   0  0  2  0  0  0
  -28.7023  -12.9550   20.9980 C   0  0  0  0  0  0
  -25.2593  -13.8164   20.5682 C   0  0  0  0  0  0
  -24.1838  -13.0442   20.9178 C   0  0  0  0  0  0
  -24.6392  -11.6907   20.8726 C   0  0  0  0  0  0
  -23.9054  -10.4293   21.0400 C   0  0  0  0  0  0
  -24.3611   -9.4212   21.9185 C   0  0  0  0  0  0
  -23.6290   -8.2241   22.0757 C   0  0  0  0  0  0
  -22.4270   -8.0283   21.3541 C   0  0  0  0  0  0
  -21.9905   -9.0255   20.4639 C   0  0  0  0  0  0
  -22.7228  -10.2132   20.3055 C   0  0  0  0  0  0
  -21.6853   -6.0736   22.5276 C   0  0  0  0  0  0
  -21.4007   -6.5637   23.8209 C   0  0  0  0  0  0
  -21.3660   -5.6791   24.9171 C   0  0  0  0  0  0
  -21.6049   -4.3058   24.7220 C   0  0  0  0  0  0
  -21.8813   -3.8147   23.4343 C   0  0  0  0  0  0
  -21.9186   -4.6963   22.3401 C   0  0  0  0  0  0
  -22.7857  -13.5238   21.1858 C   0  0  0  0  0  0
  -22.1660   -4.2151   21.0975 F   0  0  0  0  0  0
  -21.5636   -3.4544   25.7735 F   0  0  0  0  0  0
  -30.0399  -13.2606   20.4576 N   0  0  0  0  0  0
  -26.3026  -12.9323   20.3385 N   0  0  0  0  0  0
  -25.9317  -11.6483   20.5763 N   0  0  0  0  0  0
  -22.0495  -12.8219   22.0407 N   0  0  0  0  0  0
  -25.4357  -15.1883   20.4078 N   0  0  0  0  0  0
  -31.8153  -14.6392   20.0935 O   0  0  0  0  0  0
  -21.6640   -6.8879   21.4241 O   0  0  0  0  0  0
  -22.3537  -14.5553   20.6733 O   0  0  0  0  0  0
  -24.6110  -31.8706   23.2112 C   0  0  0  0  0  0
  -25.9024  -32.4836   23.8403 C   0  0  1  0  0  0
  -27.2432  -27.4593   20.1061 C   0  0  0  0  0  0
  -25.5904  -33.8625   24.2342 N   0  0  0  0  0  0
  -23.3987  -30.4915   21.5488 C   0  0  2  0  0  0
  -24.8503  -28.9521   20.1222 C   0  0  0  0  0  0
  -22.7400  -29.4665   22.4999 C   0  0  0  0  0  0
  -18.0266  -28.1376   22.8473 C   0  0  0  0  0  0
  -24.1495  -36.7312   23.2639 C   0  0  0  0  0  0
  -25.9233  -30.8422   21.3609 C   0  0  0  0  0  0
  -26.0056  -29.4739   20.7191 C   0  0  0  0  0  0
  -27.2064  -28.7325   20.7120 C   0  0  0  0  0  0
  -26.0770  -26.9399   19.5101 C   0  0  0  0  0  0
  -24.8788  -27.6811   19.5180 C   0  0  0  0  0  0
  -23.6085  -29.8151   20.1664 C   0  0  0  0  0  0
  -25.4115  -36.3107   24.0345 C   0  0  1  0  0  0
  -20.5855  -28.3663   23.1335 C   0  0  2  0  0  0
  -20.6760  -26.9401   22.5420 C   0  0  0  0  0  0
  -19.5735  -26.6378   21.5215 C   0  0  0  0  0  0
  -18.1908  -26.7916   22.1617 C   0  0  0  0  0  0
  -19.1514  -28.8835   23.2894 C   0  0  0  0  0  0
  -18.9451  -30.1430   23.8922 C   0  0  0  0  0  0
  -17.6462  -30.6586   24.0554 C   0  0  0  0  0  0
  -25.9037  -34.9477   23.5136 C   0  0  0  0  0  0
  -16.5345  -29.9092   23.6324 C   0  0  0  0  0  0
  -16.7262  -28.6505   23.0351 C   0  0  0  0  0  0
  -26.4475  -31.6602   25.0712 C   0  0  0  0  0  0
  -25.3754  -31.3709   26.1474 C   0  0  0  0  0  0
  -27.0298  -30.3052   24.6056 C   0  0  0  0  0  0
  -27.6054  -32.4320   25.7486 C   0  0  0  0  0  0
  -27.5587  -37.1806   24.8456 C   0  0  0  0  0  0
  -21.4130  -29.3038   22.3758 N   0  0  0  0  0  0
  -26.4298  -37.3791   23.9408 N   0  0  0  0  0  0
  -24.6618  -31.0834   22.0993 N   0  0  0  0  0  0
  -23.4188  -28.8205   23.3030 O   0  0  0  0  0  0
  -28.4129  -26.7456   20.0480 O   0  0  0  0  0  0
  -26.5571  -34.8931   22.4682 O   0  0  0  0  0  0
  -23.5316  -32.1436   23.7530 O   0  0  0  0  0  0
  -31.8207  -18.4651   22.0525 C   0  0  0  0  0  0
  -30.6182  -19.1403   21.9936 C   0  0  0  0  0  0
  -30.4659  -16.6874   21.6187 C   0  0  0  0  0  0
  -29.6893  -22.7553   22.1966 C   0  0  0  0  0  0
  -29.4446  -21.2799   21.7975 C   0  0  0  0  0  0
  -29.0414  -24.4340   20.4280 C   0  0  0  0  0  0
  -33.1757  -19.0560   22.3005 C   0  0  0  0  0  0
  -30.1978  -23.6899   21.0997 C   0  0  0  0  0  0
  -28.5626  -25.7496   21.0619 C   0  0  0  0  0  0
  -31.7216  -17.0842   21.8409 N   0  0  0  0  0  0
  -30.4655  -20.4842   22.1681 N   0  0  0  0  0  0
  -30.0959  -15.3378   21.3919 N   0  0  0  0  0  0
  -29.5391  -23.1547   23.3575 O   0  0  0  0  0  0
  -28.4183  -20.9210   21.2107 O   0  0  0  0  0  0
  -28.5376  -24.0084   19.3831 O   0  0  0  0  0  0
  -29.3024  -18.0018   21.7099 S   0  0  0  0  0  0
  -31.4644  -12.3957   19.1082 H   0  0  0  0  0  0
  -30.3187  -11.2788   19.7883 H   0  0  0  0  0  0
  -29.7256  -11.8064   17.4106 H   0  0  0  0  0  0
  -29.6618  -13.5104   17.7796 H   0  0  0  0  0  0
  -27.8187  -11.3211   18.7973 H   0  0  0  0  0  0
  -27.3612  -12.6681   17.7890 H   0  0  0  0  0  0
  -27.7186  -14.2562   19.6032 H   0  0  0  0  0  0
  -28.6712  -11.9104   21.3134 H   0  0  0  0  0  0
  -28.4523  -13.5262   21.8936 H   0  0  0  0  0  0
  -25.2751   -9.5691   22.4758 H   0  0  0  0  0  0
  -23.9999   -7.4637   22.7473 H   0  0  0  0  0  0
  -21.0841   -8.8759   19.8942 H   0  0  0  0  0  0
  -22.3681  -10.9676   19.6164 H   0  0  0  0  0  0
  -21.1993   -7.6147   23.9712 H   0  0  0  0  0  0
  -21.1498   -6.0525   25.9072 H   0  0  0  0  0  0
  -22.0593   -2.7611   23.2841 H   0  0  0  0  0  0
  -22.4107  -11.9853   22.4757 H   0  0  0  0  0  0
  -21.1124  -13.1254   22.2641 H   0  0  0  0  0  0
  -24.6730  -15.8493   20.5076 H   0  0  0  0  0  0
  -26.2890  -15.6196   20.0755 H   0  0  0  0  0  0
  -26.7107  -32.5575   23.1188 H   0  0  0  0  0  0
  -25.0094  -33.9792   25.0518 H   0  0  0  0  0  0
  -22.6832  -31.3051   21.4051 H   0  0  0  0  0  0
  -23.3759  -35.9634   23.3286 H   0  0  0  0  0  0
  -24.3595  -36.8939   22.2049 H   0  0  0  0  0  0
  -23.7250  -37.6522   23.6661 H   0  0  0  0  0  0
  -26.0294  -31.6046   20.5873 H   0  0  0  0  0  0
  -26.8145  -30.9018   21.9739 H   0  0  0  0  0  0
  -28.1026  -29.1340   21.1638 H   0  0  0  0  0  0
  -26.1034  -25.9691   19.0348 H   0  0  0  0  0  0
  -23.9911  -27.2725   19.0551 H   0  0  0  0  0  0
  -23.7083  -30.5843   19.3998 H   0  0  0  0  0  0
  -22.7365  -29.2267   19.8746 H   0  0  0  0  0  0
  -25.1292  -36.1979   25.0836 H   0  0  0  0  0  0
  -20.9930  -28.3223   24.1458 H   0  0  0  0  0  0
  -20.5676  -26.2265   23.3595 H   0  0  0  0  0  0
  -21.6633  -26.7440   22.1204 H   0  0  0  0  0  0
  -19.6905  -25.6289   21.1236 H   0  0  0  0  0  0
  -19.6703  -27.3186   20.6744 H   0  0  0  0  0  0
  -17.4181  -26.6668   21.4010 H   0  0  0  0  0  0
  -18.0293  -26.0047   22.9005 H   0  0  0  0  0  0
  -19.7932  -30.7213   24.2322 H   0  0  0  0  0  0
  -17.5020  -31.6273   24.5135 H   0  0  0  0  0  0
  -15.5356  -30.3009   23.7629 H   0  0  0  0  0  0
  -15.8643  -28.0835   22.7087 H   0  0  0  0  0  0
  -24.5899  -30.7093   25.7813 H   0  0  0  0  0  0
  -24.8979  -32.2862   26.4977 H   0  0  0  0  0  0
  -25.8093  -30.8832   27.0213 H   0  0  0  0  0  0
  -26.2810  -29.6832   24.1133 H   0  0  0  0  0  0
  -27.4115  -29.7284   25.4497 H   0  0  0  0  0  0
  -27.8634  -30.4396   23.9155 H   0  0  0  0  0  0
  -27.2673  -33.3624   26.2073 H   0  0  0  0  0  0
  -28.3865  -32.6885   25.0312 H   0  0  0  0  0  0
  -28.0707  -31.8430   26.5403 H   0  0  0  0  0  0
  -28.2586  -38.0125   24.7526 H   0  0  0  0  0  0
  -28.1109  -36.2652   24.6254 H   0  0  0  0  0  0
  -27.2289  -37.1421   25.8855 H   0  0  0  0  0  0
  -20.9290  -29.8774   21.6996 H   0  0  0  0  0  0
  -26.0195  -38.2875   24.1415 H   0  0  0  0  0  0
  -33.3670  -19.1683   23.3669 H   0  0  0  0  0  0
  -33.2752  -20.0378   21.8399 H   0  0  0  0  0  0
  -33.9671  -18.4281   21.8907 H   0  0  0  0  0  0
  -30.7437  -23.1138   20.3534 H   0  0  0  0  0  0
  -30.8978  -24.4052   21.5301 H   0  0  0  0  0  0
  -29.2900  -26.0911   21.7992 H   0  0  0  0  0  0
  -27.6252  -25.5663   21.5899 H   0  0  0  0  0  0
  -31.2400  -20.9728   22.5970 H   0  0  0  0  0  0
  -29.1709  -15.0775   21.6954 H   0  0  0  0  0  0
  1 25  1  0  0  0
  1 30  2  0  0  0
  1 82  1  0  0  0
  2  3  1  0  0  0
  2 25  1  0  0  0
  2 87  1  0  0  0
  2 88  1  0  0  0
  3  4  1  0  0  0
  3 89  1  0  0  0
  3 90  1  0  0  0
  4  5  1  0  0  0
  4 91  1  0  0  0
  4 92  1  0  0  0
  5  6  1  0  0  0
  5 26  1  0  0  0
  5 93  1  0  0  0
  6 25  1  0  0  0
  6 94  1  0  0  0
  6 95  1  0  0  0
  7  8  2  0  0  0
  7 26  1  0  0  0
  7 29  1  0  0  0
  8  9  1  0  0  0
  8 22  1  0  0  0
  9 10  1  0  0  0
  9 27  2  0  0  0
 10 11  2  0  0  0
 10 15  1  0  0  0
 11 12  1  0  0  0
 11 96  1  0  0  0
 12 13  2  0  0  0
 12 97  1  0  0  0
 13 14  1  0  0  0
 13 31  1  0  0  0
 14 15  2  0  0  0
 14 98  1  0  0  0
 15 99  1  0  0  0
 16 17  2  0  0  0
 16 21  1  0  0  0
 16 31  1  0  0  0
 17 18  1  0  0  0
 17100  1  0  0  0
 18 19  2  0  0  0
 18101  1  0  0  0
 19 20  1  0  0  0
 19 24  1  0  0  0
 20 21  2  0  0  0
 20102  1  0  0  0
 21 23  1  0  0  0
 22 28  1  0  0  0
 22 32  2  0  0  0
 26 27  1  0  0  0
 28103  1  0  0  0
 28104  1  0  0  0
 29105  1  0  0  0
 29106  1  0  0  0
 33 34  1  0  0  0
 33 66  1  0  0  0
 33 70  2  0  0  0
 34 36  1  0  0  0
 34 59  1  0  0  0
 34107  1  0  0  0
 35 44  2  0  0  0
 35 45  1  0  0  0
 35 68  1  0  0  0
 36 56  1  0  0  0
 36108  1  0  0  0
 37 39  1  0  0  0
 37 47  1  0  0  0
 37 66  1  0  0  0
 37109  1  0  0  0
 38 43  2  0  0  0
 38 46  1  0  0  0
 38 47  1  0  0  0
 39 64  1  0  0  0
 39 67  2  0  0  0
 40 52  1  0  0  0
 40 53  2  0  0  0
 40 58  1  0  0  0
 41110  1  0  0  0
 41111  1  0  0  0
 41112  1  0  0  0
 41 48  1  0  0  0
 42 43  1  0  0  0
 42 66  1  0  0  0
 42113  1  0  0  0
 42114  1  0  0  0
 43 44  1  0  0  0
 44115  1  0  0  0
 45 46  2  0  0  0
 45116  1  0  0  0
 46117  1  0  0  0
 47118  1  0  0  0
 47119  1  0  0  0
 48 56  1  0  0  0
 48 65  1  0  0  0
 48120  1  0  0  0
 49 50  1  0  0  0
 49 53  1  0  0  0
 49 64  1  0  0  0
 49121  1  0  0  0
 50 51  1  0  0  0
 50122  1  0  0  0
 50123  1  0  0  0
 51 52  1  0  0  0
 51124  1  0  0  0
 51125  1  0  0  0
 52126  1  0  0  0
 52127  1  0  0  0
 53 54  1  0  0  0
 54 55  2  0  0  0
 54128  1  0  0  0
 55 57  1  0  0  0
 55129  1  0  0  0
 56 69  2  0  0  0
 57 58  2  0  0  0
 57130  1  0  0  0
 58131  1  0  0  0
 59 60  1  0  0  0
 59 61  1  0  0  0
 59 62  1  0  0  0
 60132  1  0  0  0
 60133  1  0  0  0
 60134  1  0  0  0
 61135  1  0  0  0
 61136  1  0  0  0
 61137  1  0  0  0
 62138  1  0  0  0
 62139  1  0  0  0
 62140  1  0  0  0
 63 65  1  0  0  0
 63141  1  0  0  0
 63142  1  0  0  0
 63143  1  0  0  0
 64144  1  0  0  0
 65145  1  0  0  0
 68 79  1  0  0  0
 71 72  2  0  0  0
 71 77  1  0  0  0
 71 80  1  0  0  0
 72 81  1  0  0  0
 72 86  1  0  0  0
 73 80  2  0  0  0
 73 82  1  0  0  0
 73 86  1  0  0  0
 74 75  1  0  0  0
 74 78  1  0  0  0
 74 83  2  0  0  0
 75 81  1  0  0  0
 75 84  2  0  0  0
 76 78  1  0  0  0
 76 79  1  0  0  0
 76 85  2  0  0  0
 77146  1  0  0  0
 77147  1  0  0  0
 77148  1  0  0  0
 78149  1  0  0  0
 78150  1  0  0  0
 79151  1  0  0  0
 79152  1  0  0  0
 81153  1  0  0  0
 82154  1  0  0  0
M  ISO  4   1 100  68 101  79 101  82 100
M  END
> <chiral flag>
0

> <version>
0

> <s_m_source_file>
/data/baiqing/PycharmProjects/Reinvent-master-3.2/result/LINK_invent/BTK/process_docking_weight1_custom_product_contain_oxygen_bond_distance_aromatic_linkinvent_7_9_3/rearranged_h_0177.sdf

> <i_m_source_file_index>
88

> <r_mmod_Potential_Energy-OPLS-2005>
-188.490768432617

> <r_mmod_Stretch_Energy-OPLS-2005>
33.0909271240234

> <r_mmod_Bend_Energy-OPLS-2005>
97.5566482543945

> <r_mmod_Torsional_Energy-OPLS-2005>
258.716430664062

> <r_mmod_Improper_Torsional_Energy-OPLS-2005>
3.18466854095459

> <r_mmod_Van_der_Waal_Energy-OPLS-2005>
123.435874938965

> <r_mmod_Electrostatic_Energy-OPLS-2005>
-434.899108886719

> <r_mmod_Solvation_Energy-OPLS-2005>
-277.090881347656

> <b_mmod_Minimization_Converged-OPLS-2005>
0

> <r_mmod_RMS_Derivative-OPLS-2005>
1.98105907440186

$$$$
88
                    3D
 Structure written by MMmdl.
157165  0  0  1  0            999 V2000
  -29.3468  -14.5785   19.3980 C   0  0  0  0  0  0
  -30.7528  -12.6768   19.2617 C   0  0  0  0  0  0
  -29.7534  -11.9790   18.3648 C   0  0  0  0  0  0
  -28.8097  -11.3821   19.4243 C   0  0  0  0  0  0
  -28.2628  -12.3009   20.7053 C   0  0  2  0  0  0
  -29.4056  -12.9716   21.2808 C   0  0  0  0  0  0
  -26.0734  -13.6691   20.9651 C   0  0  0  0  0  0
  -24.3047  -13.2462   20.6600 C   0  0  0  0  0  0
  -24.1144  -12.0307   20.3496 C   0  0  0  0  0  0
  -23.6431  -10.6103   20.8625 C   0  0  0  0  0  0
  -23.9725   -9.7059   21.9550 C   0  0  0  0  0  0
  -23.4354   -8.4093   22.1073 C   0  0  0  0  0  0
  -22.3556   -8.0374   21.2942 C   0  0  0  0  0  0
  -21.9349   -8.9333   20.3035 C   0  0  0  0  0  0
  -22.5872  -10.1539   20.0740 C   0  0  0  0  0  0
  -21.6848   -6.0725   22.5157 C   0  0  0  0  0  0
  -21.3964   -6.5668   23.8066 C   0  0  0  0  0  0
  -21.3685   -5.6860   24.9061 C   0  0  0  0  0  0
  -21.6071   -4.3112   24.7163 C   0  0  0  0  0  0
  -21.8845   -3.8172   23.4292 C   0  0  0  0  0  0
  -21.9243   -4.6972   22.3334 C   0  0  0  0  0  0
  -22.7715  -13.7145   21.0238 C   0  0  0  0  0  0
  -22.1692   -4.2178   21.0913 F   0  0  0  0  0  0
  -21.5719   -3.4585   25.7668 F   0  0  0  0  0  0
  -29.9501  -13.5774   20.0999 N   0  0  0  0  0  0
  -27.0599  -13.2761   20.9373 N   0  0  0  0  0  0
  -25.1492  -13.1521   20.6354 N   0  0  0  0  0  0
  -22.0953  -12.9899   21.9300 N   0  0  0  0  0  0
  -27.0607  -14.7555   21.3463 N   0  0  0  0  0  0
  -30.3151  -15.3880   19.3138 O   0  0  0  0  0  0
  -21.6485   -6.8662   21.3979 O   0  0  0  0  0  0
  -22.2508  -14.6985   20.5172 O   0  0  0  0  0  0
  -24.6475  -31.8493   23.1901 C   0  0  0  0  0  0
  -25.9298  -32.4693   23.8246 C   0  0  1  0  0  0
  -27.0679  -27.1007   20.2148 C   0  0  0  0  0  0
  -25.6066  -33.8499   24.2208 N   0  0  0  0  0  0
  -23.4372  -30.4840   21.5367 C   0  0  2  0  0  0
  -24.8529  -28.9208   20.0896 C   0  0  0  0  0  0
  -22.7563  -29.4608   22.4824 C   0  0  0  0  0  0
  -18.0298  -28.1381   22.8484 C   0  0  0  0  0  0
  -24.1487  -36.7244   23.2637 C   0  0  0  0  0  0
  -25.9894  -30.7178   21.3844 C   0  0  0  0  0  0
  -26.0280  -29.3332   20.7262 C   0  0  0  0  0  0
  -27.1485  -28.4313   20.7748 C   0  0  0  0  0  0
  -25.8963  -26.8020   19.5013 C   0  0  0  0  0  0
  -24.8063  -27.6784   19.4467 C   0  0  0  0  0  0
  -23.6526  -29.8387   20.1429 C   0  0  0  0  0  0
  -25.4120  -36.2998   24.0293 C   0  0  1  0  0  0
  -20.5926  -28.3727   23.1200 C   0  0  2  0  0  0
  -20.6772  -26.9436   22.5363 C   0  0  0  0  0  0
  -19.5741  -26.6359   21.5173 C   0  0  0  0  0  0
  -18.1934  -26.7920   22.1619 C   0  0  0  0  0  0
  -19.1566  -28.8852   23.2849 C   0  0  0  0  0  0
  -18.9487  -30.1447   23.8872 C   0  0  0  0  0  0
  -17.6490  -30.6589   24.0548 C   0  0  0  0  0  0
  -25.9115  -34.9396   23.5056 C   0  0  0  0  0  0
  -16.5377  -29.9074   23.6345 C   0  0  0  0  0  0
  -16.7282  -28.6486   23.0374 C   0  0  0  0  0  0
  -26.4576  -31.6577   25.0732 C   0  0  0  0  0  0
  -25.3793  -31.3835   26.1469 C   0  0  0  0  0  0
  -27.0418  -30.2937   24.6394 C   0  0  0  0  0  0
  -27.6045  -32.4374   25.7589 C   0  0  0  0  0  0
  -27.5556  -37.1791   24.8463 C   0  0  0  0  0  0
  -21.4258  -29.3095   22.3602 N   0  0  0  0  0  0
  -26.4268  -37.3719   23.9406 N   0  0  0  0  0  0
  -24.7118  -31.0405   22.0903 N   0  0  0  0  0  0
  -23.4229  -28.8143   23.2959 O   0  0  0  0  0  0
  -28.0047  -26.0540   20.4171 O   0  0  0  0  0  0
  -26.5661  -34.8869   22.4619 O   0  0  0  0  0  0
  -23.5629  -32.1363   23.7180 O   0  0  0  0  0  0
  -25.1641  -13.3069   22.9386 C   0  0  0  0  0  0
  -26.2841  -11.6856   19.4968 C   0  0  0  0  0  0
  -25.9693  -11.4988   21.8379 C   0  0  0  0  0  0
  -24.7952  -15.2587   21.8176 C   0  0  0  0  0  0
  -26.2881  -13.8015   18.7342 C   0  0  0  0  0  0
  -25.8542  -20.6756   21.1981 C   0  0  0  0  0  0
  -26.1177  -19.1358   21.8655 C   0  0  0  0  0  0
  -26.9273  -23.4950   21.0613 C   0  0  0  0  0  0
  -24.8783  -16.7539   22.4441 C   0  0  0  0  0  0
  -26.9982  -21.8430   20.9030 C   0  0  0  0  0  0
  -27.7381  -24.5552   20.0908 C   0  0  0  0  0  0
  -25.2843  -15.3335   19.7490 N   0  0  0  0  0  0
  -27.9160  -14.4900   18.6847 N   0  0  0  0  0  0
  -25.2143  -18.0710   21.6451 N   0  0  0  0  0  0
  -24.6756  -20.9376   20.9161 O   0  0  0  0  0  0
  -27.0736  -18.9736   22.6281 O   0  0  0  0  0  0
  -26.2432  -23.9748   21.9741 O   0  0  0  0  0  0
  -26.5338  -10.4548   22.4984 F   0  0  0  0  0  0
  -31.4719  -13.2310   18.6555 H   0  0  0  0  0  0
  -31.3452  -11.9800   19.8584 H   0  0  0  0  0  0
  -30.2434  -11.1851   17.8042 H   0  0  0  0  0  0
  -29.2573  -12.6032   17.6249 H   0  0  0  0  0  0
  -29.4469  -10.6854   19.9704 H   0  0  0  0  0  0
  -28.2572  -10.5786   18.9557 H   0  0  0  0  0  0
  -28.1642  -12.5992   19.7372 H   0  0  0  0  0  0
  -30.0859  -12.2377   21.7191 H   0  0  0  0  0  0
  -29.2095  -13.6889   22.0782 H   0  0  0  0  0  0
  -24.5264   -9.9815   22.8324 H   0  0  0  0  0  0
  -23.7448   -7.7817   22.9301 H   0  0  0  0  0  0
  -21.1000   -8.6620   19.6748 H   0  0  0  0  0  0
  -22.2243  -10.7757   19.2682 H   0  0  0  0  0  0
  -21.1794   -7.6174   23.9485 H   0  0  0  0  0  0
  -21.1551   -6.0673   25.8951 H   0  0  0  0  0  0
  -22.0624   -2.7651   23.2749 H   0  0  0  0  0  0
  -22.5760  -12.2593   22.4316 H   0  0  0  0  0  0
  -21.1239  -13.1676   22.1260 H   0  0  0  0  0  0
  -26.7104  -15.4974   20.7405 H   0  0  0  0  0  0
  -28.0679  -14.7149   21.4221 H   0  0  0  0  0  0
  -26.7392  -32.5188   23.0971 H   0  0  0  0  0  0
  -25.0235  -33.9604   25.0375 H   0  0  0  0  0  0
  -22.7432  -31.3161   21.3964 H   0  0  0  0  0  0
  -23.3723  -35.9611   23.3311 H   0  0  0  0  0  0
  -24.3559  -36.8904   22.2060 H   0  0  0  0  0  0
  -23.7279  -37.6445   23.6692 H   0  0  0  0  0  0
  -26.1608  -31.4696   20.6137 H   0  0  0  0  0  0
  -26.8639  -30.7411   22.0251 H   0  0  0  0  0  0
  -28.0280  -28.7062   21.3376 H   0  0  0  0  0  0
  -25.7395  -25.8426   19.0362 H   0  0  0  0  0  0
  -23.9124  -27.3589   18.9287 H   0  0  0  0  0  0
  -23.8023  -30.6246   19.4023 H   0  0  0  0  0  0
  -22.7607  -29.3079   19.8134 H   0  0  0  0  0  0
  -25.1308  -36.1782   25.0775 H   0  0  0  0  0  0
  -20.9991  -28.3253   24.1334 H   0  0  0  0  0  0
  -20.5568  -26.2375   23.3602 H   0  0  0  0  0  0
  -21.6648  -26.7380   22.1225 H   0  0  0  0  0  0
  -19.6898  -25.6231   21.1260 H   0  0  0  0  0  0
  -19.6626  -27.3130   20.6659 H   0  0  0  0  0  0
  -17.4192  -26.6659   21.4044 H   0  0  0  0  0  0
  -18.0365  -26.0041   22.8991 H   0  0  0  0  0  0
  -19.7958  -30.7258   24.2261 H   0  0  0  0  0  0
  -17.5041  -31.6268   24.5155 H   0  0  0  0  0  0
  -15.5384  -30.2984   23.7621 H   0  0  0  0  0  0
  -15.8691  -28.0757   22.7134 H   0  0  0  0  0  0
  -24.5891  -30.7259   25.7852 H   0  0  0  0  0  0
  -24.9118  -32.3076   26.4878 H   0  0  0  0  0  0
  -25.8092  -30.9026   27.0273 H   0  0  0  0  0  0
  -26.3003  -29.6673   24.1438 H   0  0  0  0  0  0
  -27.4013  -29.7221   25.4975 H   0  0  0  0  0  0
  -27.8942  -30.4116   23.9702 H   0  0  0  0  0  0
  -27.2525  -33.3608   26.2191 H   0  0  0  0  0  0
  -28.3870  -32.7105   25.0506 H   0  0  0  0  0  0
  -28.0713  -31.8569   26.5563 H   0  0  0  0  0  0
  -28.2558  -38.0092   24.7486 H   0  0  0  0  0  0
  -28.1042  -36.2634   24.6281 H   0  0  0  0  0  0
  -27.2294  -37.1432   25.8864 H   0  0  0  0  0  0
  -20.9442  -29.8886   21.6874 H   0  0  0  0  0  0
  -26.0100  -38.2764   24.1414 H   0  0  0  0  0  0
  -25.1324  -13.3006   24.0190 H   0  0  0  0  0  0
  -26.3765  -10.8373   18.8362 H   0  0  0  0  0  0
  -25.5580  -16.6809   23.2928 H   0  0  0  0  0  0
  -23.8934  -16.9171   22.8875 H   0  0  0  0  0  0
  -26.3130  -22.1221   20.1050 H   0  0  0  0  0  0
  -26.9782  -21.8886   21.9877 H   0  0  0  0  0  0
  -27.3009  -24.4873   19.0974 H   0  0  0  0  0  0
  -28.7342  -24.1286   19.9812 H   0  0  0  0  0  0
  -27.8697  -15.2986   18.0837 H   0  0  0  0  0  0
  -24.5293  -18.2823   20.9339 H   0  0  0  0  0  0
  1 25  1  0  0  0
  1 30  2  0  0  0
  1 83  1  0  0  0
  2  3  1  0  0  0
  2 25  1  0  0  0
  2 89  1  0  0  0
  2 90  1  0  0  0
  3  4  1  0  0  0
  3 91  1  0  0  0
  3 92  1  0  0  0
  4  5  1  0  0  0
  4 93  1  0  0  0
  4 94  1  0  0  0
  5  6  1  0  0  0
  5 26  1  0  0  0
  5 95  1  0  0  0
  6 25  1  0  0  0
  6 96  1  0  0  0
  6 97  1  0  0  0
  7  8  2  0  0  0
  7 26  1  0  0  0
  7 29  1  0  0  0
  8  9  1  0  0  0
  8 22  1  0  0  0
  9 10  1  0  0  0
  9 27  2  0  0  0
 10 11  2  0  0  0
 10 15  1  0  0  0
 11 12  1  0  0  0
 11 98  1  0  0  0
 12 13  2  0  0  0
 12 99  1  0  0  0
 13 14  1  0  0  0
 13 31  1  0  0  0
 14 15  2  0  0  0
 14100  1  0  0  0
 15101  1  0  0  0
 16 17  2  0  0  0
 16 21  1  0  0  0
 16 31  1  0  0  0
 17 18  1  0  0  0
 17102  1  0  0  0
 18 19  2  0  0  0
 18103  1  0  0  0
 19 20  1  0  0  0
 19 24  1  0  0  0
 20 21  2  0  0  0
 20104  1  0  0  0
 21 23  1  0  0  0
 22 28  1  0  0  0
 22 32  2  0  0  0
 26 27  1  0  0  0
 28105  1  0  0  0
 28106  1  0  0  0
 29107  1  0  0  0
 29108  1  0  0  0
 33 34  1  0  0  0
 33 66  1  0  0  0
 33 70  2  0  0  0
 34 36  1  0  0  0
 34 59  1  0  0  0
 34109  1  0  0  0
 35 44  2  0  0  0
 35 45  1  0  0  0
 35 68  1  0  0  0
 36 56  1  0  0  0
 36110  1  0  0  0
 37 39  1  0  0  0
 37 47  1  0  0  0
 37 66  1  0  0  0
 37111  1  0  0  0
 38 43  2  0  0  0
 38 46  1  0  0  0
 38 47  1  0  0  0
 39 64  1  0  0  0
 39 67  2  0  0  0
 40 52  1  0  0  0
 40 53  2  0  0  0
 40 58  1  0  0  0
 41112  1  0  0  0
 41113  1  0  0  0
 41114  1  0  0  0
 41 48  1  0  0  0
 42 43  1  0  0  0
 42 66  1  0  0  0
 42115  1  0  0  0
 42116  1  0  0  0
 43 44  1  0  0  0
 44117  1  0  0  0
 45 46  2  0  0  0
 45118  1  0  0  0
 46119  1  0  0  0
 47120  1  0  0  0
 47121  1  0  0  0
 48 56  1  0  0  0
 48 65  1  0  0  0
 48122  1  0  0  0
 49 50  1  0  0  0
 49 53  1  0  0  0
 49 64  1  0  0  0
 49123  1  0  0  0
 50 51  1  0  0  0
 50124  1  0  0  0
 50125  1  0  0  0
 51 52  1  0  0  0
 51126  1  0  0  0
 51127  1  0  0  0
 52128  1  0  0  0
 52129  1  0  0  0
 53 54  1  0  0  0
 54 55  2  0  0  0
 54130  1  0  0  0
 55 57  1  0  0  0
 55131  1  0  0  0
 56 69  2  0  0  0
 57 58  2  0  0  0
 57132  1  0  0  0
 58133  1  0  0  0
 59 60  1  0  0  0
 59 61  1  0  0  0
 59 62  1  0  0  0
 60134  1  0  0  0
 60135  1  0  0  0
 60136  1  0  0  0
 61137  1  0  0  0
 61138  1  0  0  0
 61139  1  0  0  0
 62140  1  0  0  0
 62141  1  0  0  0
 62142  1  0  0  0
 63 65  1  0  0  0
 63143  1  0  0  0
 63144  1  0  0  0
 63145  1  0  0  0
 64146  1  0  0  0
 65147  1  0  0  0
 68 81  1  0  0  0
 71 73  2  0  0  0
 71 74  1  0  0  0
 71148  1  0  0  0
 72 73  1  0  0  0
 72 75  2  0  0  0
 72149  1  0  0  0
 73 88  1  0  0  0
 74 79  1  0  0  0
 74 82  2  0  0  0
 75 82  1  0  0  0
 75 83  1  0  0  0
 76 77  1  0  0  0
 76 80  1  0  0  0
 76 85  2  0  0  0
 77 84  1  0  0  0
 77 86  2  0  0  0
 78 80  1  0  0  0
 78 81  1  0  0  0
 78 87  2  0  0  0
 79 84  1  0  0  0
 79150  1  0  0  0
 79151  1  0  0  0
 80152  1  0  0  0
 80153  1  0  0  0
 81154  1  0  0  0
 81155  1  0  0  0
 83156  1  0  0  0
 84157  1  0  0  0
M  ISO  4   1 100  68 101  81 101  83 100
M  END
> <chiral flag>
0

> <version>
0

> <s_m_source_file>
/data/baiqing/PycharmProjects/Reinvent-master-3.2/result/LINK_invent/BTK/process_docking_weight1_custom_product_contain_oxygen_bond_distance_aromatic_linkinvent_7_9_3/rearranged_h_0177.sdf

> <i_m_source_file_index>
89

> <r_mmod_Potential_Energy-OPLS-2005>
20553.369140625

> <r_mmod_Stretch_Energy-OPLS-2005>
10807.5478515625

> <r_mmod_Bend_Energy-OPLS-2005>
2810.173828125

> <r_mmod_Torsional_Energy-OPLS-2005>
560.763671875

> <r_mmod_Improper_Torsional_Energy-OPLS-2005>
75.4817810058594

> <r_mmod_Van_der_Waal_Energy-OPLS-2005>
4782.05419921875

> <r_mmod_Electrostatic_Energy-OPLS-2005>
-607.43115234375

> <r_mmod_Solvation_Energy-OPLS-2005>
-278.724456787109

> <b_mmod_Minimization_Converged-OPLS-2005>
0

> <r_mmod_RMS_Derivative-OPLS-2005>
13.9413785934448

$$$$
89
                    3D
 Structure written by MMmdl.
152160  0  0  1  0            999 V2000
  -30.6414  -14.6044   20.4098 C   0  0  0  0  0  0
  -30.4231  -12.3558   19.4353 C   0  0  0  0  0  0
  -29.5009  -12.4967   18.2033 C   0  0  0  0  0  0
  -28.0148  -12.3718   18.6010 C   0  0  0  0  0  0
  -27.6466  -13.2207   19.8463 C   0  0  2  0  0  0
  -28.6976  -13.0813   20.9687 C   0  0  0  0  0  0
  -25.2573  -13.8173   20.5677 C   0  0  0  0  0  0
  -24.1839  -13.0447   20.9189 C   0  0  0  0  0  0
  -24.6394  -11.6908   20.8702 C   0  0  0  0  0  0
  -23.9062  -10.4282   21.0407 C   0  0  0  0  0  0
  -24.3623   -9.4202   21.9173 C   0  0  0  0  0  0
  -23.6299   -8.2241   22.0735 C   0  0  0  0  0  0
  -22.4261   -8.0292   21.3563 C   0  0  0  0  0  0
  -21.9918   -9.0252   20.4659 C   0  0  0  0  0  0
  -22.7241  -10.2116   20.3064 C   0  0  0  0  0  0
  -21.6842   -6.0742   22.5281 C   0  0  0  0  0  0
  -21.3984   -6.5631   23.8209 C   0  0  0  0  0  0
  -21.3685   -5.6794   24.9178 C   0  0  0  0  0  0
  -21.6051   -4.3056   24.7223 C   0  0  0  0  0  0
  -21.8835   -3.8157   23.4337 C   0  0  0  0  0  0
  -21.9186   -4.6980   22.3395 C   0  0  0  0  0  0
  -22.7877  -13.5261   21.1922 C   0  0  0  0  0  0
  -22.1680   -4.2170   21.0972 F   0  0  0  0  0  0
  -21.5642   -3.4551   25.7745 F   0  0  0  0  0  0
  -30.0134  -13.3918   20.3985 N   0  0  0  0  0  0
  -26.2952  -12.9339   20.3231 N   0  0  0  0  0  0
  -25.9303  -11.6494   20.5666 N   0  0  0  0  0  0
  -22.0541  -12.8197   22.0452 N   0  0  0  0  0  0
  -25.4430  -15.1886   20.4104 N   0  0  0  0  0  0
  -31.8513  -14.7023   20.1911 O   0  0  0  0  0  0
  -21.6630   -6.8873   21.4245 O   0  0  0  0  0  0
  -22.3585  -14.5607   20.6850 O   0  0  0  0  0  0
  -24.6246  -31.8608   23.2051 C   0  0  0  0  0  0
  -25.9108  -32.4771   23.8342 C   0  0  1  0  0  0
  -27.2219  -27.3550   20.0820 C   0  0  0  0  0  0
  -25.5955  -33.8560   24.2280 N   0  0  0  0  0  0
  -23.4141  -30.4831   21.5501 C   0  0  2  0  0  0
  -24.8590  -28.9432   20.1114 C   0  0  0  0  0  0
  -22.7476  -29.4578   22.4977 C   0  0  0  0  0  0
  -18.0272  -28.1387   22.8489 C   0  0  0  0  0  0
  -24.1492  -36.7264   23.2626 C   0  0  0  0  0  0
  -25.9539  -30.7992   21.3728 C   0  0  0  0  0  0
  -26.0286  -29.4289   20.7133 C   0  0  0  0  0  0
  -27.2168  -28.6416   20.6952 C   0  0  0  0  0  0
  -26.0351  -26.9067   19.4731 C   0  0  0  0  0  0
  -24.8605  -27.6860   19.4841 C   0  0  0  0  0  0
  -23.6237  -29.8176   20.1645 C   0  0  0  0  0  0
  -25.4106  -36.3051   24.0336 C   0  0  1  0  0  0
  -20.5879  -28.3643   23.1326 C   0  0  2  0  0  0
  -20.6743  -26.9362   22.5439 C   0  0  0  0  0  0
  -19.5715  -26.6367   21.5218 C   0  0  0  0  0  0
  -18.1895  -26.7938   22.1631 C   0  0  0  0  0  0
  -19.1539  -28.8843   23.2902 C   0  0  0  0  0  0
  -18.9448  -30.1472   23.8880 C   0  0  0  0  0  0
  -17.6447  -30.6592   24.0544 C   0  0  0  0  0  0
  -25.9038  -34.9441   23.5096 C   0  0  0  0  0  0
  -16.5331  -29.9076   23.6354 C   0  0  0  0  0  0
  -16.7261  -28.6504   23.0352 C   0  0  0  0  0  0
  -26.4514  -31.6572   25.0703 C   0  0  0  0  0  0
  -25.3766  -31.3761   26.1465 C   0  0  0  0  0  0
  -27.0301  -30.2974   24.6140 C   0  0  0  0  0  0
  -27.6095  -32.4276   25.7466 C   0  0  0  0  0  0
  -27.5600  -37.1756   24.8446 C   0  0  0  0  0  0
  -21.4184  -29.3002   22.3751 N   0  0  0  0  0  0
  -26.4262  -37.3767   23.9460 N   0  0  0  0  0  0
  -24.6825  -31.0640   22.0992 N   0  0  0  0  0  0
  -23.4215  -28.8071   23.2982 O   0  0  0  0  0  0
  -28.3181  -26.4974   20.0275 O   0  0  0  0  0  0
  -26.5578  -34.8906   22.4636 O   0  0  0  0  0  0
  -23.5437  -32.1395   23.7410 O   0  0  0  0  0  0
  -30.3036  -19.3843   18.1898 C   0  0  0  0  0  0
  -30.8307  -18.1679   17.7210 C   0  0  0  0  0  0
  -29.4479  -18.2262   20.1626 C   0  0  0  0  0  0
  -29.5955  -19.4472   19.4080 C   0  0  0  0  0  0
  -30.0159  -16.9735   19.7174 C   0  0  0  0  0  0
  -30.6772  -16.9806   18.4579 C   0  0  0  0  0  0
  -28.4670  -25.6075   21.0843 C   0  0  0  0  0  0
  -28.7261  -24.2561   21.1252 C   0  0  0  0  0  0
  -28.8821  -23.2608   19.9828 C   0  0  0  0  0  0
  -29.5857  -21.8245   20.2497 C   0  0  0  0  0  0
  -28.9713  -20.7255   19.7211 N   0  0  0  0  0  0
  -29.8374  -15.7141   20.4459 N   0  0  0  0  0  0
  -28.4957  -23.5280   18.8391 O   0  0  0  0  0  0
  -30.6408  -21.7357   20.8955 O   0  0  0  0  0  0
  -28.8422  -23.7219   22.3519 O   0  0  0  0  0  0
  -31.1176  -15.8358   17.8821 F   0  0  0  0  0  0
  -31.4679  -12.4544   19.1365 H   0  0  0  0  0  0
  -30.3293  -11.3633   19.8798 H   0  0  0  0  0  0
  -29.7520  -11.7510   17.4480 H   0  0  0  0  0  0
  -29.6712  -13.4681   17.7376 H   0  0  0  0  0  0
  -27.8002  -11.3177   18.7815 H   0  0  0  0  0  0
  -27.3861  -12.6677   17.7587 H   0  0  0  0  0  0
  -27.6601  -14.2558   19.5087 H   0  0  0  0  0  0
  -28.6866  -12.0655   21.3699 H   0  0  0  0  0  0
  -28.4652  -13.7443   21.8006 H   0  0  0  0  0  0
  -25.2768   -9.5686   22.4745 H   0  0  0  0  0  0
  -24.0048   -7.4604   22.7403 H   0  0  0  0  0  0
  -21.0875   -8.8776   19.8929 H   0  0  0  0  0  0
  -22.3717  -10.9675   19.6186 H   0  0  0  0  0  0
  -21.1944   -7.6132   23.9729 H   0  0  0  0  0  0
  -21.1525   -6.0508   25.9083 H   0  0  0  0  0  0
  -22.0593   -2.7633   23.2825 H   0  0  0  0  0  0
  -22.4094  -11.9738   22.4689 H   0  0  0  0  0  0
  -21.1227  -13.1315   22.2789 H   0  0  0  0  0  0
  -24.7051  -15.8762   20.5038 H   0  0  0  0  0  0
  -26.3103  -15.5991   20.0895 H   0  0  0  0  0  0
  -26.7158  -32.5433   23.1072 H   0  0  0  0  0  0
  -25.0224  -33.9696   25.0513 H   0  0  0  0  0  0
  -22.7031  -31.3002   21.4111 H   0  0  0  0  0  0
  -23.3785  -35.9551   23.3185 H   0  0  0  0  0  0
  -24.3616  -36.8991   22.2065 H   0  0  0  0  0  0
  -23.7205  -37.6421   23.6699 H   0  0  0  0  0  0
  -26.0847  -31.5645   20.6068 H   0  0  0  0  0  0
  -26.8383  -30.8475   21.9974 H   0  0  0  0  0  0
  -28.1239  -29.0097   21.1547 H   0  0  0  0  0  0
  -26.0158  -25.9342   19.0003 H   0  0  0  0  0  0
  -23.9629  -27.3109   19.0109 H   0  0  0  0  0  0
  -23.7276  -30.5914   19.4021 H   0  0  0  0  0  0
  -22.7473  -29.2355   19.8735 H   0  0  0  0  0  0
  -25.1272  -36.1884   25.0825 H   0  0  0  0  0  0
  -20.9959  -28.3189   24.1448 H   0  0  0  0  0  0
  -20.5633  -26.2215   23.3618 H   0  0  0  0  0  0
  -21.6607  -26.7384   22.1224 H   0  0  0  0  0  0
  -19.6838  -25.6262   21.1271 H   0  0  0  0  0  0
  -19.6681  -27.3152   20.6723 H   0  0  0  0  0  0
  -17.4166  -26.6721   21.4024 H   0  0  0  0  0  0
  -18.0256  -26.0111   22.9061 H   0  0  0  0  0  0
  -19.7919  -30.7326   24.2215 H   0  0  0  0  0  0
  -17.4985  -31.6282   24.5126 H   0  0  0  0  0  0
  -15.5325  -30.2944   23.7721 H   0  0  0  0  0  0
  -15.8664  -28.0818   22.7071 H   0  0  0  0  0  0
  -24.5868  -30.7183   25.7829 H   0  0  0  0  0  0
  -24.9046  -32.2966   26.4914 H   0  0  0  0  0  0
  -25.8108  -30.8918   27.0226 H   0  0  0  0  0  0
  -26.2843  -29.6765   24.1179 H   0  0  0  0  0  0
  -27.4006  -29.7201   25.4622 H   0  0  0  0  0  0
  -27.8714  -30.4214   23.9317 H   0  0  0  0  0  0
  -27.2740  -33.3611   26.1992 H   0  0  0  0  0  0
  -28.3942  -32.6785   25.0312 H   0  0  0  0  0  0
  -28.0710  -31.8426   26.5440 H   0  0  0  0  0  0
  -28.2508  -38.0156   24.7628 H   0  0  0  0  0  0
  -28.1204  -36.2707   24.6060 H   0  0  0  0  0  0
  -27.2351  -37.1166   25.8846 H   0  0  0  0  0  0
  -20.9352  -29.8788   21.7028 H   0  0  0  0  0  0
  -26.0140  -38.2812   24.1553 H   0  0  0  0  0  0
  -30.4246  -20.2684   17.5785 H   0  0  0  0  0  0
  -31.3298  -18.1336   16.7648 H   0  0  0  0  0  0
  -28.8765  -18.2501   21.0810 H   0  0  0  0  0  0
  -28.3697  -26.1552   22.0122 H   0  0  0  0  0  0
  -28.1364  -20.9562   19.1875 H   0  0  0  0  0  0
  -28.9149  -15.5589   20.8226 H   0  0  0  0  0  0
  -28.7179  -24.4212   22.9787 H   0  0  0  0  0  0
  1 25  1  0  0  0
  1 30  2  0  0  0
  1 82  1  0  0  0
  2  3  1  0  0  0
  2 25  1  0  0  0
  2 87  1  0  0  0
  2 88  1  0  0  0
  3  4  1  0  0  0
  3 89  1  0  0  0
  3 90  1  0  0  0
  4  5  1  0  0  0
  4 91  1  0  0  0
  4 92  1  0  0  0
  5  6  1  0  0  0
  5 26  1  0  0  0
  5 93  1  0  0  0
  6 25  1  0  0  0
  6 94  1  0  0  0
  6 95  1  0  0  0
  7  8  2  0  0  0
  7 26  1  0  0  0
  7 29  1  0  0  0
  8  9  1  0  0  0
  8 22  1  0  0  0
  9 10  1  0  0  0
  9 27  2  0  0  0
 10 11  2  0  0  0
 10 15  1  0  0  0
 11 12  1  0  0  0
 11 96  1  0  0  0
 12 13  2  0  0  0
 12 97  1  0  0  0
 13 14  1  0  0  0
 13 31  1  0  0  0
 14 15  2  0  0  0
 14 98  1  0  0  0
 15 99  1  0  0  0
 16 17  2  0  0  0
 16 21  1  0  0  0
 16 31  1  0  0  0
 17 18  1  0  0  0
 17100  1  0  0  0
 18 19  2  0  0  0
 18101  1  0  0  0
 19 20  1  0  0  0
 19 24  1  0  0  0
 20 21  2  0  0  0
 20102  1  0  0  0
 21 23  1  0  0  0
 22 28  1  0  0  0
 22 32  2  0  0  0
 26 27  1  0  0  0
 28103  1  0  0  0
 28104  1  0  0  0
 29105  1  0  0  0
 29106  1  0  0  0
 33 34  1  0  0  0
 33 66  1  0  0  0
 33 70  2  0  0  0
 34 36  1  0  0  0
 34 59  1  0  0  0
 34107  1  0  0  0
 35 44  2  0  0  0
 35 45  1  0  0  0
 35 68  1  0  0  0
 36 56  1  0  0  0
 36108  1  0  0  0
 37 39  1  0  0  0
 37 47  1  0  0  0
 37 66  1  0  0  0
 37109  1  0  0  0
 38 43  2  0  0  0
 38 46  1  0  0  0
 38 47  1  0  0  0
 39 64  1  0  0  0
 39 67  2  0  0  0
 40 52  1  0  0  0
 40 53  2  0  0  0
 40 58  1  0  0  0
 41110  1  0  0  0
 41111  1  0  0  0
 41112  1  0  0  0
 41 48  1  0  0  0
 42 43  1  0  0  0
 42 66  1  0  0  0
 42113  1  0  0  0
 42114  1  0  0  0
 43 44  1  0  0  0
 44115  1  0  0  0
 45 46  2  0  0  0
 45116  1  0  0  0
 46117  1  0  0  0
 47118  1  0  0  0
 47119  1  0  0  0
 48 56  1  0  0  0
 48 65  1  0  0  0
 48120  1  0  0  0
 49 50  1  0  0  0
 49 53  1  0  0  0
 49 64  1  0  0  0
 49121  1  0  0  0
 50 51  1  0  0  0
 50122  1  0  0  0
 50123  1  0  0  0
 51 52  1  0  0  0
 51124  1  0  0  0
 51125  1  0  0  0
 52126  1  0  0  0
 52127  1  0  0  0
 53 54  1  0  0  0
 54 55  2  0  0  0
 54128  1  0  0  0
 55 57  1  0  0  0
 55129  1  0  0  0
 56 69  2  0  0  0
 57 58  2  0  0  0
 57130  1  0  0  0
 58131  1  0  0  0
 59 60  1  0  0  0
 59 61  1  0  0  0
 59 62  1  0  0  0
 60132  1  0  0  0
 60133  1  0  0  0
 60134  1  0  0  0
 61135  1  0  0  0
 61136  1  0  0  0
 61137  1  0  0  0
 62138  1  0  0  0
 62139  1  0  0  0
 62140  1  0  0  0
 63 65  1  0  0  0
 63141  1  0  0  0
 63142  1  0  0  0
 63143  1  0  0  0
 64144  1  0  0  0
 65145  1  0  0  0
 68 77  1  0  0  0
 71 72  2  0  0  0
 71 74  1  0  0  0
 71146  1  0  0  0
 72 76  1  0  0  0
 72147  1  0  0  0
 73 74  2  0  0  0
 73 75  1  0  0  0
 73148  1  0  0  0
 74 81  1  0  0  0
 75 76  2  0  0  0
 75 82  1  0  0  0
 76 86  1  0  0  0
 77 78  2  0  0  0
 77149  1  0  0  0
 78 79  1  0  0  0
 78 85  1  0  0  0
 79 80  1  0  0  0
 79 83  2  0  0  0
 80 81  1  0  0  0
 80 84  2  0  0  0
 81150  1  0  0  0
 82151  1  0  0  0
 85152  1  0  0  0
M  ISO  4   1 100  68 101  77 101  82 100
M  END
> <chiral flag>
0

> <version>
0

> <s_m_source_file>
/data/baiqing/PycharmProjects/Reinvent-master-3.2/result/LINK_invent/BTK/process_docking_weight1_custom_product_contain_oxygen_bond_distance_aromatic_linkinvent_7_9_3/rearranged_h_0177.sdf

> <i_m_source_file_index>
90

> <r_mmod_Potential_Energy-OPLS-2005>
163.0439453125

> <r_mmod_Stretch_Energy-OPLS-2005>
77.2717437744141

> <r_mmod_Bend_Energy-OPLS-2005>
136.84831237793

> <r_mmod_Torsional_Energy-OPLS-2005>
295.112335205078

> <r_mmod_Improper_Torsional_Energy-OPLS-2005>
8.33045101165771

> <r_mmod_Van_der_Waal_Energy-OPLS-2005>
139.768081665039

> <r_mmod_Electrostatic_Energy-OPLS-2005>
-282.101684570312

> <r_mmod_Solvation_Energy-OPLS-2005>
-255.432846069336

> <b_mmod_Minimization_Converged-OPLS-2005>
0

> <r_mmod_RMS_Derivative-OPLS-2005>
4.57200574874878

$$$$
90
                    3D
 Structure written by MMmdl.
155163  0  0  1  0            999 V2000
  -30.7457  -14.3952   20.5974 C   0  0  0  0  0  0
  -30.4163  -12.2674   19.4151 C   0  0  0  0  0  0
  -29.4884  -12.4937   18.2046 C   0  0  0  0  0  0
  -28.0118  -12.3596   18.6210 C   0  0  0  0  0  0
  -27.6658  -13.2000   19.8784 C   0  0  2  0  0  0
  -28.7045  -12.9634   20.9996 C   0  0  0  0  0  0
  -25.2610  -13.8158   20.5677 C   0  0  0  0  0  0
  -24.1846  -13.0449   20.9169 C   0  0  0  0  0  0
  -24.6386  -11.6912   20.8743 C   0  0  0  0  0  0
  -23.9050  -10.4305   21.0408 C   0  0  0  0  0  0
  -24.3604   -9.4218   21.9180 C   0  0  0  0  0  0
  -23.6281   -8.2253   22.0756 C   0  0  0  0  0  0
  -22.4263   -8.0290   21.3552 C   0  0  0  0  0  0
  -21.9894   -9.0262   20.4656 C   0  0  0  0  0  0
  -22.7221  -10.2142   20.3061 C   0  0  0  0  0  0
  -21.6849   -6.0741   22.5280 C   0  0  0  0  0  0
  -21.4011   -6.5645   23.8214 C   0  0  0  0  0  0
  -21.3656   -5.6795   24.9175 C   0  0  0  0  0  0
  -21.6042   -4.3059   24.7223 C   0  0  0  0  0  0
  -21.8818   -3.8155   23.4344 C   0  0  0  0  0  0
  -21.9187   -4.6972   22.3404 C   0  0  0  0  0  0
  -22.7870  -13.5261   21.1829 C   0  0  0  0  0  0
  -22.1660   -4.2162   21.0979 F   0  0  0  0  0  0
  -21.5625   -3.4537   25.7734 F   0  0  0  0  0  0
  -30.0482  -13.2377   20.4572 N   0  0  0  0  0  0
  -26.3042  -12.9315   20.3384 N   0  0  0  0  0  0
  -25.9311  -11.6485   20.5779 N   0  0  0  0  0  0
  -22.0496  -12.8277   22.0393 N   0  0  0  0  0  0
  -25.4356  -15.1873   20.4091 N   0  0  0  0  0  0
  -31.8465  -14.5786   20.0713 O   0  0  0  0  0  0
  -21.6634   -6.8883   21.4244 O   0  0  0  0  0  0
  -22.3561  -14.5564   20.6669 O   0  0  0  0  0  0
  -24.6112  -31.8714   23.2137 C   0  0  0  0  0  0
  -25.9027  -32.4837   23.8414 C   0  0  1  0  0  0
  -27.2306  -27.4700   20.0957 C   0  0  0  0  0  0
  -25.5893  -33.8632   24.2342 N   0  0  0  0  0  0
  -23.3961  -30.4964   21.5534 C   0  0  2  0  0  0
  -24.8404  -28.9668   20.1149 C   0  0  0  0  0  0
  -22.7394  -29.4675   22.5007 C   0  0  0  0  0  0
  -18.0267  -28.1378   22.8497 C   0  0  0  0  0  0
  -24.1483  -36.7317   23.2639 C   0  0  0  0  0  0
  -25.9206  -30.8493   21.3598 C   0  0  0  0  0  0
  -25.9983  -29.4869   20.7066 C   0  0  0  0  0  0
  -27.1977  -28.7467   20.6902 C   0  0  0  0  0  0
  -26.0589  -26.9576   19.4941 C   0  0  0  0  0  0
  -24.8640  -27.7001   19.5063 C   0  0  0  0  0  0
  -23.6017  -29.8306   20.1663 C   0  0  0  0  0  0
  -25.4103  -36.3117   24.0343 C   0  0  1  0  0  0
  -20.5858  -28.3655   23.1330 C   0  0  2  0  0  0
  -20.6758  -26.9395   22.5421 C   0  0  0  0  0  0
  -19.5731  -26.6388   21.5218 C   0  0  0  0  0  0
  -18.1911  -26.7928   22.1632 C   0  0  0  0  0  0
  -19.1518  -28.8833   23.2911 C   0  0  0  0  0  0
  -18.9449  -30.1442   23.8919 C   0  0  0  0  0  0
  -17.6452  -30.6586   24.0566 C   0  0  0  0  0  0
  -25.9030  -34.9481   23.5141 C   0  0  0  0  0  0
  -16.5342  -29.9094   23.6320 C   0  0  0  0  0  0
  -16.7259  -28.6509   23.0344 C   0  0  0  0  0  0
  -26.4468  -31.6607   25.0726 C   0  0  0  0  0  0
  -25.3746  -31.3716   26.1487 C   0  0  0  0  0  0
  -27.0279  -30.3051   24.6072 C   0  0  0  0  0  0
  -27.6052  -32.4324   25.7479 C   0  0  0  0  0  0
  -27.5578  -37.1810   24.8465 C   0  0  0  0  0  0
  -21.4127  -29.3028   22.3744 N   0  0  0  0  0  0
  -26.4288  -37.3802   23.9414 N   0  0  0  0  0  0
  -24.6606  -31.0851   22.1015 N   0  0  0  0  0  0
  -23.4187  -28.8223   23.3034 O   0  0  0  0  0  0
  -28.4126  -26.7731   20.0980 O   0  0  0  0  0  0
  -26.5590  -34.8929   22.4699 O   0  0  0  0  0  0
  -23.5317  -32.1445   23.7556 O   0  0  0  0  0  0
  -30.5043  -19.0379   20.2704 C   0  0  0  0  0  0
  -29.6132  -18.9103   21.3137 C   0  0  0  0  0  0
  -30.2313  -16.7372   21.0573 C   0  0  0  0  0  0
  -30.9162  -20.2030   19.5014 C   0  0  0  0  0  0
  -29.1527  -24.5641   19.4265 C   0  0  0  0  0  0
  -28.7756  -23.0743   19.2865 C   0  0  0  0  0  0
  -28.8246  -19.9914   21.9917 C   0  0  0  0  0  0
  -28.3210  -25.3816   20.4146 C   0  0  0  0  0  0
  -29.8286  -20.9064   18.6646 C   0  0  1  0  0  0
  -29.4604  -17.5841   21.7437 N   0  0  0  0  0  0
  -30.1287  -15.3510   21.3028 N   0  0  0  0  0  0
  -29.8329  -22.3295   18.9476 N   0  0  0  0  0  0
  -32.1007  -20.5504   19.4544 O   0  0  0  0  0  0
  -30.0978  -25.0641   18.8008 O   0  0  0  0  0  0
  -27.6363  -22.6339   19.4699 O   0  0  0  0  0  0
  -30.0881  -20.6749   17.2951 O   0  0  0  0  0  0
  -31.2287  -17.5206   19.8299 S   0  0  0  0  0  0
  -31.4610  -12.3497   19.1093 H   0  0  0  0  0  0
  -30.3024  -11.2534   19.8006 H   0  0  0  0  0  0
  -29.7187  -11.7746   17.4177 H   0  0  0  0  0  0
  -29.6650  -13.4816   17.7774 H   0  0  0  0  0  0
  -27.8223  -11.3040   18.8209 H   0  0  0  0  0  0
  -27.3575  -12.6332   17.7923 H   0  0  0  0  0  0
  -27.7196  -14.2488   19.5856 H   0  0  0  0  0  0
  -28.6632  -11.9291   21.3430 H   0  0  0  0  0  0
  -28.4644  -13.5646   21.8772 H   0  0  0  0  0  0
  -25.2749   -9.5688   22.4749 H   0  0  0  0  0  0
  -23.9997   -7.4640   22.7469 H   0  0  0  0  0  0
  -21.0823   -8.8776   19.8959 H   0  0  0  0  0  0
  -22.3674  -10.9680   19.6174 H   0  0  0  0  0  0
  -21.2006   -7.6151   23.9721 H   0  0  0  0  0  0
  -21.1475   -6.0524   25.9077 H   0  0  0  0  0  0
  -22.0596   -2.7616   23.2836 H   0  0  0  0  0  0
  -22.4102  -11.9951   22.4813 H   0  0  0  0  0  0
  -21.1116  -13.1329   22.2588 H   0  0  0  0  0  0
  -24.6738  -15.8468   20.5251 H   0  0  0  0  0  0
  -26.2967  -15.6270   20.1087 H   0  0  0  0  0  0
  -26.7099  -32.5571   23.1187 H   0  0  0  0  0  0
  -25.0049  -33.9791   25.0489 H   0  0  0  0  0  0
  -22.6827  -31.3117   21.4174 H   0  0  0  0  0  0
  -23.3735  -35.9660   23.3322 H   0  0  0  0  0  0
  -24.3573  -36.8905   22.2046 H   0  0  0  0  0  0
  -23.7239  -37.6534   23.6633 H   0  0  0  0  0  0
  -26.0276  -31.6189   20.5937 H   0  0  0  0  0  0
  -26.8118  -30.9027   21.9748 H   0  0  0  0  0  0
  -28.0955  -29.1470   21.1408 H   0  0  0  0  0  0
  -26.0606  -25.9965   19.0007 H   0  0  0  0  0  0
  -23.9753  -27.2981   19.0397 H   0  0  0  0  0  0
  -23.7084  -30.6069   19.4076 H   0  0  0  0  0  0
  -22.7262  -29.2500   19.8707 H   0  0  0  0  0  0
  -25.1274  -36.1990   25.0837 H   0  0  0  0  0  0
  -20.9942  -28.3218   24.1454 H   0  0  0  0  0  0
  -20.5662  -26.2261   23.3605 H   0  0  0  0  0  0
  -21.6629  -26.7446   22.1208 H   0  0  0  0  0  0
  -19.6889  -25.6307   21.1229 H   0  0  0  0  0  0
  -19.6667  -27.3216   20.6761 H   0  0  0  0  0  0
  -17.4180  -26.6672   21.4040 H   0  0  0  0  0  0
  -18.0313  -26.0071   22.9029 H   0  0  0  0  0  0
  -19.7925  -30.7247   24.2302 H   0  0  0  0  0  0
  -17.5011  -31.6272   24.5159 H   0  0  0  0  0  0
  -15.5345  -30.3002   23.7632 H   0  0  0  0  0  0
  -15.8657  -28.0838   22.7041 H   0  0  0  0  0  0
  -24.5916  -30.7059   25.7847 H   0  0  0  0  0  0
  -24.8938  -32.2870   26.4948 H   0  0  0  0  0  0
  -25.8116  -30.8893   27.0238 H   0  0  0  0  0  0
  -26.2807  -29.6838   24.1121 H   0  0  0  0  0  0
  -27.4047  -29.7267   25.4517 H   0  0  0  0  0  0
  -27.8649  -30.4373   23.9211 H   0  0  0  0  0  0
  -27.2676  -33.3608   26.2102 H   0  0  0  0  0  0
  -28.3840  -32.6915   25.0293 H   0  0  0  0  0  0
  -28.0749  -31.8422   26.5357 H   0  0  0  0  0  0
  -28.2613  -38.0093   24.7506 H   0  0  0  0  0  0
  -28.1058  -36.2623   24.6300 H   0  0  0  0  0  0
  -27.2296  -37.1481   25.8870 H   0  0  0  0  0  0
  -20.9283  -29.8749   21.6969 H   0  0  0  0  0  0
  -26.0181  -38.2884   24.1419 H   0  0  0  0  0  0
  -28.0361  -20.3758   21.3451 H   0  0  0  0  0  0
  -29.4629  -20.8289   22.2753 H   0  0  0  0  0  0
  -28.3464  -19.6291   22.9030 H   0  0  0  0  0  0
  -28.7288  -25.2284   21.4135 H   0  0  0  0  0  0
  -27.2987  -25.0068   20.4456 H   0  0  0  0  0  0
  -28.8568  -20.4712   18.9064 H   0  0  0  0  0  0
  -29.3350  -15.0586   21.8484 H   0  0  0  0  0  0
  -30.7171  -22.8146   18.8675 H   0  0  0  0  0  0
  -30.2159  -19.7357   17.1922 H   0  0  0  0  0  0
  1 25  1  0  0  0
  1 30  2  0  0  0
  1 81  1  0  0  0
  2  3  1  0  0  0
  2 25  1  0  0  0
  2 88  1  0  0  0
  2 89  1  0  0  0
  3  4  1  0  0  0
  3 90  1  0  0  0
  3 91  1  0  0  0
  4  5  1  0  0  0
  4 92  1  0  0  0
  4 93  1  0  0  0
  5  6  1  0  0  0
  5 26  1  0  0  0
  5 94  1  0  0  0
  6 25  1  0  0  0
  6 95  1  0  0  0
  6 96  1  0  0  0
  7  8  2  0  0  0
  7 26  1  0  0  0
  7 29  1  0  0  0
  8  9  1  0  0  0
  8 22  1  0  0  0
  9 10  1  0  0  0
  9 27  2  0  0  0
 10 11  2  0  0  0
 10 15  1  0  0  0
 11 12  1  0  0  0
 11 97  1  0  0  0
 12 13  2  0  0  0
 12 98  1  0  0  0
 13 14  1  0  0  0
 13 31  1  0  0  0
 14 15  2  0  0  0
 14 99  1  0  0  0
 15100  1  0  0  0
 16 17  2  0  0  0
 16 21  1  0  0  0
 16 31  1  0  0  0
 17 18  1  0  0  0
 17101  1  0  0  0
 18 19  2  0  0  0
 18102  1  0  0  0
 19 20  1  0  0  0
 19 24  1  0  0  0
 20 21  2  0  0  0
 20103  1  0  0  0
 21 23  1  0  0  0
 22 28  1  0  0  0
 22 32  2  0  0  0
 26 27  1  0  0  0
 28104  1  0  0  0
 28105  1  0  0  0
 29106  1  0  0  0
 29107  1  0  0  0
 33 34  1  0  0  0
 33 66  1  0  0  0
 33 70  2  0  0  0
 34 36  1  0  0  0
 34 59  1  0  0  0
 34108  1  0  0  0
 35 44  2  0  0  0
 35 45  1  0  0  0
 35 68  1  0  0  0
 36 56  1  0  0  0
 36109  1  0  0  0
 37 39  1  0  0  0
 37 47  1  0  0  0
 37 66  1  0  0  0
 37110  1  0  0  0
 38 43  2  0  0  0
 38 46  1  0  0  0
 38 47  1  0  0  0
 39 64  1  0  0  0
 39 67  2  0  0  0
 40 52  1  0  0  0
 40 53  2  0  0  0
 40 58  1  0  0  0
 41111  1  0  0  0
 41112  1  0  0  0
 41113  1  0  0  0
 41 48  1  0  0  0
 42 43  1  0  0  0
 42 66  1  0  0  0
 42114  1  0  0  0
 42115  1  0  0  0
 43 44  1  0  0  0
 44116  1  0  0  0
 45 46  2  0  0  0
 45117  1  0  0  0
 46118  1  0  0  0
 47119  1  0  0  0
 47120  1  0  0  0
 48 56  1  0  0  0
 48 65  1  0  0  0
 48121  1  0  0  0
 49 50  1  0  0  0
 49 53  1  0  0  0
 49 64  1  0  0  0
 49122  1  0  0  0
 50 51  1  0  0  0
 50123  1  0  0  0
 50124  1  0  0  0
 51 52  1  0  0  0
 51125  1  0  0  0
 51126  1  0  0  0
 52127  1  0  0  0
 52128  1  0  0  0
 53 54  1  0  0  0
 54 55  2  0  0  0
 54129  1  0  0  0
 55 57  1  0  0  0
 55130  1  0  0  0
 56 69  2  0  0  0
 57 58  2  0  0  0
 57131  1  0  0  0
 58132  1  0  0  0
 59 60  1  0  0  0
 59 61  1  0  0  0
 59 62  1  0  0  0
 60133  1  0  0  0
 60134  1  0  0  0
 60135  1  0  0  0
 61136  1  0  0  0
 61137  1  0  0  0
 61138  1  0  0  0
 62139  1  0  0  0
 62140  1  0  0  0
 62141  1  0  0  0
 63 65  1  0  0  0
 63142  1  0  0  0
 63143  1  0  0  0
 63144  1  0  0  0
 64145  1  0  0  0
 65146  1  0  0  0
 68 78  1  0  0  0
 71 72  2  0  0  0
 71 74  1  0  0  0
 71 87  1  0  0  0
 72 77  1  0  0  0
 72 80  1  0  0  0
 73 80  2  0  0  0
 73 81  1  0  0  0
 73 87  1  0  0  0
 74 79  1  0  0  0
 74 83  2  0  0  0
 75 76  1  0  0  0
 75 78  1  0  0  0
 75 84  2  0  0  0
 76 82  1  0  0  0
 76 85  2  0  0  0
 77147  1  0  0  0
 77148  1  0  0  0
 77149  1  0  0  0
 78150  1  0  0  0
 78151  1  0  0  0
 79 82  1  0  0  0
 79 86  1  0  0  0
 79152  1  0  0  0
 81153  1  0  0  0
 82154  1  0  0  0
 86155  1  0  0  0
M  ISO  4   1 100  68 101  78 101  81 100
M  END
> <chiral flag>
0

> <version>
0

> <s_m_source_file>
/data/baiqing/PycharmProjects/Reinvent-master-3.2/result/LINK_invent/BTK/process_docking_weight1_custom_product_contain_oxygen_bond_distance_aromatic_linkinvent_7_9_3/rearranged_h_0177.sdf

> <i_m_source_file_index>
91

> <r_mmod_Potential_Energy-OPLS-2005>
-209.964218139648

> <r_mmod_Stretch_Energy-OPLS-2005>
30.8401508331299

> <r_mmod_Bend_Energy-OPLS-2005>
90.2191925048828

> <r_mmod_Torsional_Energy-OPLS-2005>
226.544723510742

> <r_mmod_Improper_Torsional_Energy-OPLS-2005>
3.92059469223022

> <r_mmod_Van_der_Waal_Energy-OPLS-2005>
132.191909790039

> <r_mmod_Electrostatic_Energy-OPLS-2005>
-433.933288574219

> <r_mmod_Solvation_Energy-OPLS-2005>
-269.087951660156

> <b_mmod_Minimization_Converged-OPLS-2005>
0

> <r_mmod_RMS_Derivative-OPLS-2005>
1.45858991146088

$$$$
91
                    3D
 Structure written by MMmdl.
158166  0  0  1  0            999 V2000
  -30.6030  -14.7698   20.4279 C   0  0  0  0  0  0
  -30.4279  -12.4652   19.4735 C   0  0  0  0  0  0
  -29.5118  -12.5161   18.2317 C   0  0  0  0  0  0
  -28.0389  -12.3309   18.6442 C   0  0  0  0  0  0
  -27.6366  -13.2315   19.8422 C   0  0  2  0  0  0
  -28.6804  -13.1840   20.9803 C   0  0  0  0  0  0
  -25.2481  -13.8186   20.5676 C   0  0  0  0  0  0
  -24.1779  -13.0428   20.9207 C   0  0  0  0  0  0
  -24.6367  -11.6910   20.8715 C   0  0  0  0  0  0
  -23.9052  -10.4299   21.0400 C   0  0  0  0  0  0
  -24.3608   -9.4214   21.9173 C   0  0  0  0  0  0
  -23.6290   -8.2249   22.0752 C   0  0  0  0  0  0
  -22.4263   -8.0282   21.3556 C   0  0  0  0  0  0
  -21.9888   -9.0249   20.4650 C   0  0  0  0  0  0
  -22.7225  -10.2125   20.3056 C   0  0  0  0  0  0
  -21.6854   -6.0718   22.5280 C   0  0  0  0  0  0
  -21.4017   -6.5619   23.8213 C   0  0  0  0  0  0
  -21.3660   -5.6776   24.9175 C   0  0  0  0  0  0
  -21.6058   -4.3044   24.7231 C   0  0  0  0  0  0
  -21.8810   -3.8133   23.4351 C   0  0  0  0  0  0
  -21.9195   -4.6947   22.3406 C   0  0  0  0  0  0
  -22.7811  -13.5224   21.1878 C   0  0  0  0  0  0
  -22.1667   -4.2125   21.0990 F   0  0  0  0  0  0
  -21.5633   -3.4534   25.7749 F   0  0  0  0  0  0
  -29.9776  -13.5399   20.3903 N   0  0  0  0  0  0
  -26.2896  -12.9384   20.3223 N   0  0  0  0  0  0
  -25.9286  -11.6526   20.5692 N   0  0  0  0  0  0
  -22.0448  -12.8224   22.0421 N   0  0  0  0  0  0
  -25.4182  -15.1925   20.4125 N   0  0  0  0  0  0
  -31.8067  -14.8173   20.1493 O   0  0  0  0  0  0
  -21.6645   -6.8865   21.4243 O   0  0  0  0  0  0
  -22.3520  -14.5541   20.6732 O   0  0  0  0  0  0
  -24.6334  -31.8530   23.1971 C   0  0  0  0  0  0
  -25.9159  -32.4745   23.8319 C   0  0  1  0  0  0
  -27.2220  -27.2647   20.1303 C   0  0  0  0  0  0
  -25.5938  -33.8551   24.2240 N   0  0  0  0  0  0
  -23.4293  -30.4739   21.5409 C   0  0  2  0  0  0
  -24.8763  -28.9090   20.1209 C   0  0  0  0  0  0
  -22.7513  -29.4595   22.4917 C   0  0  0  0  0  0
  -18.0301  -28.1396   22.8526 C   0  0  0  0  0  0
  -24.1468  -36.7259   23.2640 C   0  0  0  0  0  0
  -25.9731  -30.7664   21.3719 C   0  0  0  0  0  0
  -26.0483  -29.3864   20.7204 C   0  0  0  0  0  0
  -27.2307  -28.5795   20.7046 C   0  0  0  0  0  0
  -26.0271  -26.8380   19.5237 C   0  0  0  0  0  0
  -24.8672  -27.6416   19.5152 C   0  0  0  0  0  0
  -23.6485  -29.8005   20.1606 C   0  0  0  0  0  0
  -25.4097  -36.3057   24.0325 C   0  0  1  0  0  0
  -20.5905  -28.3695   23.1258 C   0  0  2  0  0  0
  -20.6766  -26.9399   22.5392 C   0  0  0  0  0  0
  -19.5733  -26.6403   21.5199 C   0  0  0  0  0  0
  -18.1922  -26.7951   22.1631 C   0  0  0  0  0  0
  -19.1562  -28.8873   23.2889 C   0  0  0  0  0  0
  -18.9473  -30.1487   23.8884 C   0  0  0  0  0  0
  -17.6461  -30.6582   24.0591 C   0  0  0  0  0  0
  -25.9061  -34.9440   23.5100 C   0  0  0  0  0  0
  -16.5355  -29.9075   23.6350 C   0  0  0  0  0  0
  -16.7287  -28.6499   23.0368 C   0  0  0  0  0  0
  -26.4503  -31.6594   25.0738 C   0  0  0  0  0  0
  -25.3723  -31.3801   26.1483 C   0  0  0  0  0  0
  -27.0343  -30.2996   24.6266 C   0  0  0  0  0  0
  -27.6054  -32.4358   25.7498 C   0  0  0  0  0  0
  -27.5566  -37.1776   24.8467 C   0  0  0  0  0  0
  -21.4212  -29.3036   22.3656 N   0  0  0  0  0  0
  -26.4255  -37.3762   23.9437 N   0  0  0  0  0  0
  -24.6979  -31.0513   22.0926 N   0  0  0  0  0  0
  -23.4203  -28.8141   23.3032 O   0  0  0  0  0  0
  -28.3296  -26.3947   20.0825 O   0  0  0  0  0  0
  -26.5614  -34.8932   22.4654 O   0  0  0  0  0  0
  -23.5482  -32.1387   23.7248 O   0  0  0  0  0  0
  -29.1418  -18.4249   20.3570 C   0  0  0  0  0  0
  -29.4558  -19.8475   20.2339 C   0  0  0  0  0  0
  -30.8329  -20.1443   20.1947 C   0  0  0  0  0  0
  -30.1520  -17.3752   20.4275 C   0  0  0  0  0  0
  -31.7600  -19.0861   20.2605 C   0  0  0  0  0  0
  -28.3276  -23.7172   19.8662 C   0  0  0  0  0  0
  -27.7285  -20.8652   18.6548 C   0  0  0  0  0  0
  -29.3962  -25.0734   21.8014 C   0  0  0  0  0  0
  -28.3757  -21.0111   20.0450 C   0  0  2  0  0  0
  -28.2633  -25.0557   20.7616 C   0  0  1  0  0  0
  -31.4461  -17.7803   20.3748 N   0  0  0  0  0  0
  -33.1177  -19.3590   20.1829 N   0  0  0  0  0  0
  -29.8218  -15.9219   20.5500 N   0  0  0  0  0  0
  -28.6498  -22.4817   20.4286 N   0  0  0  0  0  0
  -28.0096  -23.8162   18.6793 O   0  0  0  0  0  0
  -31.2795  -21.4196   20.0656 F   0  0  0  0  0  0
  -31.4728  -12.5750   19.1764 H   0  0  0  0  0  0
  -30.3604  -11.4952   19.9658 H   0  0  0  0  0  0
  -29.8006  -11.7489   17.5129 H   0  0  0  0  0  0
  -29.6347  -13.4724   17.7221 H   0  0  0  0  0  0
  -27.8987  -11.2828   18.9097 H   0  0  0  0  0  0
  -27.3856  -12.5210   17.7915 H   0  0  0  0  0  0
  -27.6270  -14.2488   19.4529 H   0  0  0  0  0  0
  -28.7187  -12.1915   21.4327 H   0  0  0  0  0  0
  -28.4107  -13.8748   21.7815 H   0  0  0  0  0  0
  -25.2747   -9.5691   22.4742 H   0  0  0  0  0  0
  -24.0000   -7.4630   22.7449 H   0  0  0  0  0  0
  -21.0825   -8.8766   19.8951 H   0  0  0  0  0  0
  -22.3683  -10.9655   19.6169 H   0  0  0  0  0  0
  -21.2009   -7.6123   23.9702 H   0  0  0  0  0  0
  -21.1495   -6.0518   25.9079 H   0  0  0  0  0  0
  -22.0587   -2.7592   23.2871 H   0  0  0  0  0  0
  -22.4057  -11.9920   22.4866 H   0  0  0  0  0  0
  -21.1067  -13.1259   22.2588 H   0  0  0  0  0  0
  -24.6453  -15.8400   20.5239 H   0  0  0  0  0  0
  -26.2470  -15.6316   20.0340 H   0  0  0  0  0  0
  -26.7241  -32.5388   23.1059 H   0  0  0  0  0  0
  -25.0068  -33.9654   25.0378 H   0  0  0  0  0  0
  -22.7259  -31.2950   21.3908 H   0  0  0  0  0  0
  -23.3725  -35.9589   23.3288 H   0  0  0  0  0  0
  -24.3561  -36.8915   22.2057 H   0  0  0  0  0  0
  -23.7221  -37.6456   23.6682 H   0  0  0  0  0  0
  -26.1137  -31.5238   20.5989 H   0  0  0  0  0  0
  -26.8446  -30.8144   22.0106 H   0  0  0  0  0  0
  -28.1392  -28.9544   21.1542 H   0  0  0  0  0  0
  -25.9897  -25.8637   19.0562 H   0  0  0  0  0  0
  -23.9674  -27.2635   19.0500 H   0  0  0  0  0  0
  -23.7723  -30.5716   19.3986 H   0  0  0  0  0  0
  -22.7655  -29.2335   19.8615 H   0  0  0  0  0  0
  -25.1266  -36.1888   25.0806 H   0  0  0  0  0  0
  -21.0031  -28.3274   24.1368 H   0  0  0  0  0  0
  -20.5620  -26.2288   23.3585 H   0  0  0  0  0  0
  -21.6626  -26.7385   22.1189 H   0  0  0  0  0  0
  -19.6840  -25.6317   21.1216 H   0  0  0  0  0  0
  -19.6658  -27.3209   20.6719 H   0  0  0  0  0  0
  -17.4171  -26.6746   21.4040 H   0  0  0  0  0  0
  -18.0306  -26.0062   22.8987 H   0  0  0  0  0  0
  -19.7945  -30.7353   24.2181 H   0  0  0  0  0  0
  -17.4999  -31.6257   24.5206 H   0  0  0  0  0  0
  -15.5351  -30.2946   23.7695 H   0  0  0  0  0  0
  -15.8697  -28.0817   22.7049 H   0  0  0  0  0  0
  -24.5841  -30.7196   25.7858 H   0  0  0  0  0  0
  -24.8956  -32.2990   26.4930 H   0  0  0  0  0  0
  -25.8033  -30.8990   27.0272 H   0  0  0  0  0  0
  -26.2936  -29.6741   24.1271 H   0  0  0  0  0  0
  -27.3964  -29.7309   25.4841 H   0  0  0  0  0  0
  -27.8848  -30.4229   23.9550 H   0  0  0  0  0  0
  -27.2638  -33.3654   26.2068 H   0  0  0  0  0  0
  -28.3844  -32.6951   25.0310 H   0  0  0  0  0  0
  -28.0727  -31.8502   26.5428 H   0  0  0  0  0  0
  -28.2589  -38.0072   24.7516 H   0  0  0  0  0  0
  -28.1065  -36.2609   24.6260 H   0  0  0  0  0  0
  -27.2314  -37.1412   25.8884 H   0  0  0  0  0  0
  -20.9397  -29.8774   21.6870 H   0  0  0  0  0  0
  -26.0137  -38.2836   24.1466 H   0  0  0  0  0  0
  -28.0991  -18.1406   20.3827 H   0  0  0  0  0  0
  -27.3847  -19.8431   18.4983 H   0  0  0  0  0  0
  -28.4294  -21.1086   17.8545 H   0  0  0  0  0  0
  -26.8516  -21.5036   18.5482 H   0  0  0  0  0  0
  -29.3802  -24.1898   22.4399 H   0  0  0  0  0  0
  -29.3211  -25.9474   22.4493 H   0  0  0  0  0  0
  -30.3692  -25.1119   21.3095 H   0  0  0  0  0  0
  -27.5955  -20.7303   20.7531 H   0  0  0  0  0  0
  -27.3194  -25.0024   21.3058 H   0  0  0  0  0  0
  -33.3346  -20.2913   19.8471 H   0  0  0  0  0  0
  -33.6861  -18.6345   19.7644 H   0  0  0  0  0  0
  -28.8459  -15.7293   20.7023 H   0  0  0  0  0  0
  -28.9974  -22.5698   21.3726 H   0  0  0  0  0  0
  1 25  1  0  0  0
  1 30  2  0  0  0
  1 83  1  0  0  0
  2  3  1  0  0  0
  2 25  1  0  0  0
  2 87  1  0  0  0
  2 88  1  0  0  0
  3  4  1  0  0  0
  3 89  1  0  0  0
  3 90  1  0  0  0
  4  5  1  0  0  0
  4 91  1  0  0  0
  4 92  1  0  0  0
  5  6  1  0  0  0
  5 26  1  0  0  0
  5 93  1  0  0  0
  6 25  1  0  0  0
  6 94  1  0  0  0
  6 95  1  0  0  0
  7  8  2  0  0  0
  7 26  1  0  0  0
  7 29  1  0  0  0
  8  9  1  0  0  0
  8 22  1  0  0  0
  9 10  1  0  0  0
  9 27  2  0  0  0
 10 11  2  0  0  0
 10 15  1  0  0  0
 11 12  1  0  0  0
 11 96  1  0  0  0
 12 13  2  0  0  0
 12 97  1  0  0  0
 13 14  1  0  0  0
 13 31  1  0  0  0
 14 15  2  0  0  0
 14 98  1  0  0  0
 15 99  1  0  0  0
 16 17  2  0  0  0
 16 21  1  0  0  0
 16 31  1  0  0  0
 17 18  1  0  0  0
 17100  1  0  0  0
 18 19  2  0  0  0
 18101  1  0  0  0
 19 20  1  0  0  0
 19 24  1  0  0  0
 20 21  2  0  0  0
 20102  1  0  0  0
 21 23  1  0  0  0
 22 28  1  0  0  0
 22 32  2  0  0  0
 26 27  1  0  0  0
 28103  1  0  0  0
 28104  1  0  0  0
 29105  1  0  0  0
 29106  1  0  0  0
 33 34  1  0  0  0
 33 66  1  0  0  0
 33 70  2  0  0  0
 34 36  1  0  0  0
 34 59  1  0  0  0
 34107  1  0  0  0
 35 44  2  0  0  0
 35 45  1  0  0  0
 35 68  1  0  0  0
 36 56  1  0  0  0
 36108  1  0  0  0
 37 39  1  0  0  0
 37 47  1  0  0  0
 37 66  1  0  0  0
 37109  1  0  0  0
 38 43  2  0  0  0
 38 46  1  0  0  0
 38 47  1  0  0  0
 39 64  1  0  0  0
 39 67  2  0  0  0
 40 52  1  0  0  0
 40 53  2  0  0  0
 40 58  1  0  0  0
 41110  1  0  0  0
 41111  1  0  0  0
 41112  1  0  0  0
 41 48  1  0  0  0
 42 43  1  0  0  0
 42 66  1  0  0  0
 42113  1  0  0  0
 42114  1  0  0  0
 43 44  1  0  0  0
 44115  1  0  0  0
 45 46  2  0  0  0
 45116  1  0  0  0
 46117  1  0  0  0
 47118  1  0  0  0
 47119  1  0  0  0
 48 56  1  0  0  0
 48 65  1  0  0  0
 48120  1  0  0  0
 49 50  1  0  0  0
 49 53  1  0  0  0
 49 64  1  0  0  0
 49121  1  0  0  0
 50 51  1  0  0  0
 50122  1  0  0  0
 50123  1  0  0  0
 51 52  1  0  0  0
 51124  1  0  0  0
 51125  1  0  0  0
 52126  1  0  0  0
 52127  1  0  0  0
 53 54  1  0  0  0
 54 55  2  0  0  0
 54128  1  0  0  0
 55 57  1  0  0  0
 55129  1  0  0  0
 56 69  2  0  0  0
 57 58  2  0  0  0
 57130  1  0  0  0
 58131  1  0  0  0
 59 60  1  0  0  0
 59 61  1  0  0  0
 59 62  1  0  0  0
 60132  1  0  0  0
 60133  1  0  0  0
 60134  1  0  0  0
 61135  1  0  0  0
 61136  1  0  0  0
 61137  1  0  0  0
 62138  1  0  0  0
 62139  1  0  0  0
 62140  1  0  0  0
 63 65  1  0  0  0
 63141  1  0  0  0
 63142  1  0  0  0
 63143  1  0  0  0
 64144  1  0  0  0
 65145  1  0  0  0
 68 80  1  0  0  0
 71 72  2  0  0  0
 71 74  1  0  0  0
 71146  1  0  0  0
 72 73  1  0  0  0
 72 79  1  0  0  0
 73 75  2  0  0  0
 73 86  1  0  0  0
 74 81  2  0  0  0
 74 83  1  0  0  0
 75 81  1  0  0  0
 75 82  1  0  0  0
 76 80  1  0  0  0
 76 84  1  0  0  0
 76 85  2  0  0  0
 77147  1  0  0  0
 77148  1  0  0  0
 77149  1  0  0  0
 77 79  1  0  0  0
 78150  1  0  0  0
 78151  1  0  0  0
 78152  1  0  0  0
 78 80  1  0  0  0
 79 84  1  0  0  0
 79153  1  0  0  0
 80154  1  0  0  0
 82155  1  0  0  0
 82156  1  0  0  0
 83157  1  0  0  0
 84158  1  0  0  0
M  ISO  4   1 100  68 101  80 101  83 100
M  END
> <chiral flag>
0

> <version>
0

> <s_m_source_file>
/data/baiqing/PycharmProjects/Reinvent-master-3.2/result/LINK_invent/BTK/process_docking_weight1_custom_product_contain_oxygen_bond_distance_aromatic_linkinvent_7_9_3/rearranged_h_0177.sdf

> <i_m_source_file_index>
92

> <r_mmod_Potential_Energy-OPLS-2005>
-87.8117065429688

> <r_mmod_Stretch_Energy-OPLS-2005>
131.468444824219

> <r_mmod_Bend_Energy-OPLS-2005>
178.576324462891

> <r_mmod_Torsional_Energy-OPLS-2005>
242.066360473633

> <r_mmod_Improper_Torsional_Energy-OPLS-2005>
10.6830081939697

> <r_mmod_Van_der_Waal_Energy-OPLS-2005>
135.764984130859

> <r_mmod_Electrostatic_Energy-OPLS-2005>
-601.500122070312

> <r_mmod_Solvation_Energy-OPLS-2005>
-272.588684082031

> <b_mmod_Minimization_Converged-OPLS-2005>
0

> <r_mmod_RMS_Derivative-OPLS-2005>
3.66763091087341

$$$$
92
                    3D
 Structure written by MMmdl.
155163  0  0  1  0            999 V2000
  -30.6728  -14.4981   20.5607 C   0  0  0  0  0  0
  -30.4315  -12.3175   19.4273 C   0  0  0  0  0  0
  -29.5028  -12.5112   18.2095 C   0  0  0  0  0  0
  -28.0215  -12.3710   18.6167 C   0  0  0  0  0  0
  -27.6637  -13.2051   19.8759 C   0  0  2  0  0  0
  -28.7045  -12.9770   20.9962 C   0  0  0  0  0  0
  -25.2605  -13.8159   20.5673 C   0  0  0  0  0  0
  -24.1850  -13.0442   20.9176 C   0  0  0  0  0  0
  -24.6400  -11.6906   20.8728 C   0  0  0  0  0  0
  -23.9061  -10.4297   21.0402 C   0  0  0  0  0  0
  -24.3613   -9.4216   21.9182 C   0  0  0  0  0  0
  -23.6292   -8.2249   22.0754 C   0  0  0  0  0  0
  -22.4271   -8.0289   21.3549 C   0  0  0  0  0  0
  -21.9905   -9.0262   20.4650 C   0  0  0  0  0  0
  -22.7231  -10.2140   20.3053 C   0  0  0  0  0  0
  -21.6854   -6.0739   22.5281 C   0  0  0  0  0  0
  -21.4013   -6.5639   23.8215 C   0  0  0  0  0  0
  -21.3659   -5.6787   24.9171 C   0  0  0  0  0  0
  -21.6045   -4.3051   24.7222 C   0  0  0  0  0  0
  -21.8820   -3.8149   23.4341 C   0  0  0  0  0  0
  -21.9196   -4.6970   22.3400 C   0  0  0  0  0  0
  -22.7870  -13.5249   21.1839 C   0  0  0  0  0  0
  -22.1660   -4.2159   21.0977 F   0  0  0  0  0  0
  -21.5632   -3.4534   25.7733 F   0  0  0  0  0  0
  -30.0364  -13.2978   20.4518 N   0  0  0  0  0  0
  -26.3034  -12.9325   20.3348 N   0  0  0  0  0  0
  -25.9325  -11.6486   20.5744 N   0  0  0  0  0  0
  -22.0492  -12.8251   22.0392 N   0  0  0  0  0  0
  -25.4347  -15.1878   20.4084 N   0  0  0  0  0  0
  -31.7997  -14.6919   20.0907 O   0  0  0  0  0  0
  -21.6636   -6.8883   21.4244 O   0  0  0  0  0  0
  -22.3570  -14.5562   20.6693 O   0  0  0  0  0  0
  -24.6165  -31.8663   23.2082 C   0  0  0  0  0  0
  -25.9050  -32.4808   23.8385 C   0  0  1  0  0  0
  -27.2370  -27.4242   20.1036 C   0  0  0  0  0  0
  -25.5898  -33.8607   24.2320 N   0  0  0  0  0  0
  -23.4057  -30.4884   21.5488 C   0  0  2  0  0  0
  -24.8550  -28.9509   20.1153 C   0  0  0  0  0  0
  -22.7419  -29.4650   22.4987 C   0  0  0  0  0  0
  -18.0273  -28.1369   22.8496 C   0  0  0  0  0  0
  -24.1485  -36.7308   23.2636 C   0  0  0  0  0  0
  -25.9354  -30.8296   21.3624 C   0  0  0  0  0  0
  -26.0156  -29.4625   20.7105 C   0  0  0  0  0  0
  -27.2133  -28.7079   20.6982 C   0  0  0  0  0  0
  -26.0624  -26.9280   19.5017 C   0  0  0  0  0  0
  -24.8737  -27.6831   19.5066 C   0  0  0  0  0  0
  -23.6154  -29.8175   20.1650 C   0  0  0  0  0  0
  -25.4096  -36.3101   24.0345 C   0  0  1  0  0  0
  -20.5866  -28.3660   23.1312 C   0  0  2  0  0  0
  -20.6760  -26.9392   22.5419 C   0  0  0  0  0  0
  -19.5740  -26.6378   21.5213 C   0  0  0  0  0  0
  -18.1918  -26.7920   22.1618 C   0  0  0  0  0  0
  -19.1524  -28.8830   23.2902 C   0  0  0  0  0  0
  -18.9451  -30.1441   23.8902 C   0  0  0  0  0  0
  -17.6453  -30.6580   24.0558 C   0  0  0  0  0  0
  -25.9031  -34.9472   23.5130 C   0  0  0  0  0  0
  -16.5344  -29.9080   23.6322 C   0  0  0  0  0  0
  -16.7264  -28.6495   23.0348 C   0  0  0  0  0  0
  -26.4472  -31.6587   25.0718 C   0  0  0  0  0  0
  -25.3737  -31.3702   26.1473 C   0  0  0  0  0  0
  -27.0297  -30.3024   24.6098 C   0  0  0  0  0  0
  -27.6059  -32.4297   25.7475 C   0  0  0  0  0  0
  -27.5591  -37.1780   24.8443 C   0  0  0  0  0  0
  -21.4144  -29.3029   22.3724 N   0  0  0  0  0  0
  -26.4272  -37.3795   23.9439 N   0  0  0  0  0  0
  -24.6707  -31.0760   22.0981 N   0  0  0  0  0  0
  -23.4185  -28.8190   23.3033 O   0  0  0  0  0  0
  -28.3787  -26.6521   20.0962 O   0  0  0  0  0  0
  -26.5597  -34.8929   22.4694 O   0  0  0  0  0  0
  -23.5354  -32.1416   23.7467 O   0  0  0  0  0  0
  -30.5886  -18.9398   20.1540 C   0  0  0  0  0  0
  -29.5820  -19.3530   20.9994 C   0  0  0  0  0  0
  -29.9801  -16.8900   20.9699 C   0  0  0  0  0  0
  -29.0470  -20.6987   21.3721 C   0  0  0  0  0  0
  -28.9358  -24.2218   20.3563 C   0  0  0  0  0  0
  -31.4059  -22.7258   23.0523 C   0  0  0  0  0  0
  -28.3078  -25.5019   20.9657 C   0  0  0  0  0  0
  -29.4886  -23.1708   21.3658 C   0  0  2  0  0  0
  -30.8815  -23.5921   21.8963 C   0  0  2  0  0  0
  -30.8061  -17.5473   20.1428 N   0  0  0  0  0  0
  -29.9396  -15.4718   21.1413 N   0  0  0  0  0  0
  -29.5943  -21.7960   20.8150 N   0  0  0  0  0  0
  -28.1534  -20.7929   22.2167 O   0  0  0  0  0  0
  -28.9720  -24.0646   19.1301 O   0  0  0  0  0  0
  -31.7757  -23.5619   20.9053 F   0  0  0  0  0  0
  -28.8565  -17.9649   21.8013 S   0  0  0  0  0  0
  -31.4762  -12.4249   19.1296 H   0  0  0  0  0  0
  -30.3394  -11.3055   19.8242 H   0  0  0  0  0  0
  -29.7473  -11.7862   17.4320 H   0  0  0  0  0  0
  -29.6721  -13.4961   17.7716 H   0  0  0  0  0  0
  -27.8286  -11.3143   18.8063 H   0  0  0  0  0  0
  -27.3761  -12.6531   17.7838 H   0  0  0  0  0  0
  -27.7102  -14.2542   19.5837 H   0  0  0  0  0  0
  -28.6861  -11.9351   21.3216 H   0  0  0  0  0  0
  -28.4585  -13.5582   21.8858 H   0  0  0  0  0  0
  -25.2761   -9.5695   22.4749 H   0  0  0  0  0  0
  -24.0009   -7.4639   22.7465 H   0  0  0  0  0  0
  -21.0842   -8.8784   19.8951 H   0  0  0  0  0  0
  -22.3701  -10.9677   19.6156 H   0  0  0  0  0  0
  -21.1999   -7.6144   23.9719 H   0  0  0  0  0  0
  -21.1476   -6.0512   25.9075 H   0  0  0  0  0  0
  -22.0599   -2.7612   23.2835 H   0  0  0  0  0  0
  -22.4071  -11.9906   22.4793 H   0  0  0  0  0  0
  -21.1116  -13.1308   22.2572 H   0  0  0  0  0  0
  -24.6700  -15.8450   20.5151 H   0  0  0  0  0  0
  -26.2849  -15.6220   20.0723 H   0  0  0  0  0  0
  -26.7126  -32.5519   23.1157 H   0  0  0  0  0  0
  -25.0059  -33.9761   25.0473 H   0  0  0  0  0  0
  -22.6949  -31.3054   21.4079 H   0  0  0  0  0  0
  -23.3761  -35.9623   23.3257 H   0  0  0  0  0  0
  -24.3605  -36.8962   22.2060 H   0  0  0  0  0  0
  -23.7213  -37.6495   23.6667 H   0  0  0  0  0  0
  -26.0495  -31.5952   20.5936 H   0  0  0  0  0  0
  -26.8220  -30.8833   21.9824 H   0  0  0  0  0  0
  -28.1110  -29.0997   21.1559 H   0  0  0  0  0  0
  -26.0692  -25.9543   19.0317 H   0  0  0  0  0  0
  -23.9822  -27.2817   19.0447 H   0  0  0  0  0  0
  -23.7213  -30.5900   19.4028 H   0  0  0  0  0  0
  -22.7402  -29.2346   19.8726 H   0  0  0  0  0  0
  -25.1262  -36.1954   25.0835 H   0  0  0  0  0  0
  -20.9962  -28.3230   24.1428 H   0  0  0  0  0  0
  -20.5655  -26.2268   23.3610 H   0  0  0  0  0  0
  -21.6634  -26.7427   22.1218 H   0  0  0  0  0  0
  -19.6900  -25.6293   21.1233 H   0  0  0  0  0  0
  -19.6680  -27.3195   20.6746 H   0  0  0  0  0  0
  -17.4195  -26.6688   21.4011 H   0  0  0  0  0  0
  -18.0306  -26.0048   22.8998 H   0  0  0  0  0  0
  -19.7930  -30.7255   24.2270 H   0  0  0  0  0  0
  -17.5011  -31.6259   24.5164 H   0  0  0  0  0  0
  -15.5344  -30.2979   23.7635 H   0  0  0  0  0  0
  -15.8670  -28.0807   22.7055 H   0  0  0  0  0  0
  -24.5904  -30.7052   25.7820 H   0  0  0  0  0  0
  -24.8934  -32.2856   26.4933 H   0  0  0  0  0  0
  -25.8093  -30.8866   27.0222 H   0  0  0  0  0  0
  -26.2835  -29.6793   24.1150 H   0  0  0  0  0  0
  -27.4064  -29.7259   25.4557 H   0  0  0  0  0  0
  -27.8678  -30.4344   23.9248 H   0  0  0  0  0  0
  -27.2689  -33.3586   26.2085 H   0  0  0  0  0  0
  -28.3844  -32.6862   25.0280 H   0  0  0  0  0  0
  -28.0749  -31.8395   26.5356 H   0  0  0  0  0  0
  -28.2534  -38.0149   24.7608 H   0  0  0  0  0  0
  -28.1152  -36.2692   24.6090 H   0  0  0  0  0  0
  -27.2340  -37.1235   25.8848 H   0  0  0  0  0  0
  -20.9304  -29.8754   21.6949 H   0  0  0  0  0  0
  -26.0155  -38.2858   24.1502 H   0  0  0  0  0  0
  -31.2136  -19.5692   19.5362 H   0  0  0  0  0  0
  -30.7195  -22.7449   23.8988 H   0  0  0  0  0  0
  -32.3713  -23.0924   23.4019 H   0  0  0  0  0  0
  -31.5420  -21.6867   22.7530 H   0  0  0  0  0  0
  -28.8188  -25.7433   21.8979 H   0  0  0  0  0  0
  -27.2753  -25.2712   21.2318 H   0  0  0  0  0  0
  -28.8064  -23.1750   22.2177 H   0  0  0  0  0  0
  -30.8516  -24.6297   22.2346 H   0  0  0  0  0  0
  -29.1177  -15.1344   21.6166 H   0  0  0  0  0  0
  -30.2896  -21.6751   20.0932 H   0  0  0  0  0  0
  1 25  1  0  0  0
  1 30  2  0  0  0
  1 81  1  0  0  0
  2  3  1  0  0  0
  2 25  1  0  0  0
  2 87  1  0  0  0
  2 88  1  0  0  0
  3  4  1  0  0  0
  3 89  1  0  0  0
  3 90  1  0  0  0
  4  5  1  0  0  0
  4 91  1  0  0  0
  4 92  1  0  0  0
  5  6  1  0  0  0
  5 26  1  0  0  0
  5 93  1  0  0  0
  6 25  1  0  0  0
  6 94  1  0  0  0
  6 95  1  0  0  0
  7  8  2  0  0  0
  7 26  1  0  0  0
  7 29  1  0  0  0
  8  9  1  0  0  0
  8 22  1  0  0  0
  9 10  1  0  0  0
  9 27  2  0  0  0
 10 11  2  0  0  0
 10 15  1  0  0  0
 11 12  1  0  0  0
 11 96  1  0  0  0
 12 13  2  0  0  0
 12 97  1  0  0  0
 13 14  1  0  0  0
 13 31  1  0  0  0
 14 15  2  0  0  0
 14 98  1  0  0  0
 15 99  1  0  0  0
 16 17  2  0  0  0
 16 21  1  0  0  0
 16 31  1  0  0  0
 17 18  1  0  0  0
 17100  1  0  0  0
 18 19  2  0  0  0
 18101  1  0  0  0
 19 20  1  0  0  0
 19 24  1  0  0  0
 20 21  2  0  0  0
 20102  1  0  0  0
 21 23  1  0  0  0
 22 28  1  0  0  0
 22 32  2  0  0  0
 26 27  1  0  0  0
 28103  1  0  0  0
 28104  1  0  0  0
 29105  1  0  0  0
 29106  1  0  0  0
 33 34  1  0  0  0
 33 66  1  0  0  0
 33 70  2  0  0  0
 34 36  1  0  0  0
 34 59  1  0  0  0
 34107  1  0  0  0
 35 44  2  0  0  0
 35 45  1  0  0  0
 35 68  1  0  0  0
 36 56  1  0  0  0
 36108  1  0  0  0
 37 39  1  0  0  0
 37 47  1  0  0  0
 37 66  1  0  0  0
 37109  1  0  0  0
 38 43  2  0  0  0
 38 46  1  0  0  0
 38 47  1  0  0  0
 39 64  1  0  0  0
 39 67  2  0  0  0
 40 52  1  0  0  0
 40 53  2  0  0  0
 40 58  1  0  0  0
 41110  1  0  0  0
 41111  1  0  0  0
 41112  1  0  0  0
 41 48  1  0  0  0
 42 43  1  0  0  0
 42 66  1  0  0  0
 42113  1  0  0  0
 42114  1  0  0  0
 43 44  1  0  0  0
 44115  1  0  0  0
 45 46  2  0  0  0
 45116  1  0  0  0
 46117  1  0  0  0
 47118  1  0  0  0
 47119  1  0  0  0
 48 56  1  0  0  0
 48 65  1  0  0  0
 48120  1  0  0  0
 49 50  1  0  0  0
 49 53  1  0  0  0
 49 64  1  0  0  0
 49121  1  0  0  0
 50 51  1  0  0  0
 50122  1  0  0  0
 50123  1  0  0  0
 51 52  1  0  0  0
 51124  1  0  0  0
 51125  1  0  0  0
 52126  1  0  0  0
 52127  1  0  0  0
 53 54  1  0  0  0
 54 55  2  0  0  0
 54128  1  0  0  0
 55 57  1  0  0  0
 55129  1  0  0  0
 56 69  2  0  0  0
 57 58  2  0  0  0
 57130  1  0  0  0
 58131  1  0  0  0
 59 60  1  0  0  0
 59 61  1  0  0  0
 59 62  1  0  0  0
 60132  1  0  0  0
 60133  1  0  0  0
 60134  1  0  0  0
 61135  1  0  0  0
 61136  1  0  0  0
 61137  1  0  0  0
 62138  1  0  0  0
 62139  1  0  0  0
 62140  1  0  0  0
 63 65  1  0  0  0
 63141  1  0  0  0
 63142  1  0  0  0
 63143  1  0  0  0
 64144  1  0  0  0
 65145  1  0  0  0
 68 77  1  0  0  0
 71 72  2  0  0  0
 71 80  1  0  0  0
 71146  1  0  0  0
 72 74  1  0  0  0
 72 86  1  0  0  0
 73 80  2  0  0  0
 73 81  1  0  0  0
 73 86  1  0  0  0
 74 82  1  0  0  0
 74 83  2  0  0  0
 75 77  1  0  0  0
 75 78  1  0  0  0
 75 84  2  0  0  0
 76147  1  0  0  0
 76148  1  0  0  0
 76149  1  0  0  0
 76 79  1  0  0  0
 77150  1  0  0  0
 77151  1  0  0  0
 78 79  1  0  0  0
 78 82  1  0  0  0
 78152  1  0  0  0
 79 85  1  0  0  0
 79153  1  0  0  0
 81154  1  0  0  0
 82155  1  0  0  0
M  ISO  4   1 100  68 101  77 101  81 100
M  END
> <chiral flag>
0

> <version>
0

> <s_m_source_file>
/data/baiqing/PycharmProjects/Reinvent-master-3.2/result/LINK_invent/BTK/process_docking_weight1_custom_product_contain_oxygen_bond_distance_aromatic_linkinvent_7_9_3/rearranged_h_0177.sdf

> <i_m_source_file_index>
93

> <r_mmod_Potential_Energy-OPLS-2005>
-231.450805664062

> <r_mmod_Stretch_Energy-OPLS-2005>
40.5955657958984

> <r_mmod_Bend_Energy-OPLS-2005>
100.065841674805

> <r_mmod_Torsional_Energy-OPLS-2005>
240.503143310547

> <r_mmod_Improper_Torsional_Energy-OPLS-2005>
3.94422578811646

> <r_mmod_Van_der_Waal_Energy-OPLS-2005>
128.662246704102

> <r_mmod_Electrostatic_Energy-OPLS-2005>
-496.144287109375

> <r_mmod_Solvation_Energy-OPLS-2005>
-263.731018066406

> <b_mmod_Minimization_Converged-OPLS-2005>
0

> <r_mmod_RMS_Derivative-OPLS-2005>
1.25404214859009

$$$$
93
                    3D
 Structure written by MMmdl.
156164  0  0  1  0            999 V2000
  -30.6395  -14.6290   20.4268 C   0  0  0  0  0  0
  -30.4309  -12.3561   19.4653 C   0  0  0  0  0  0
  -29.5077  -12.3897   18.2276 C   0  0  0  0  0  0
  -28.0177  -12.3158   18.6331 C   0  0  0  0  0  0
  -27.6412  -13.2102   19.8484 C   0  0  2  0  0  0
  -28.6893  -13.1208   20.9759 C   0  0  0  0  0  0
  -25.2550  -13.8157   20.5707 C   0  0  0  0  0  0
  -24.1811  -13.0436   20.9212 C   0  0  0  0  0  0
  -24.6369  -11.6902   20.8770 C   0  0  0  0  0  0
  -23.9051  -10.4285   21.0426 C   0  0  0  0  0  0
  -24.3610   -9.4198   21.9196 C   0  0  0  0  0  0
  -23.6289   -8.2231   22.0757 C   0  0  0  0  0  0
  -22.4271   -8.0277   21.3544 C   0  0  0  0  0  0
  -21.9907   -9.0253   20.4649 C   0  0  0  0  0  0
  -22.7230  -10.2133   20.3068 C   0  0  0  0  0  0
  -21.6853   -6.0731   22.5276 C   0  0  0  0  0  0
  -21.4008   -6.5640   23.8209 C   0  0  0  0  0  0
  -21.3659   -5.6794   24.9174 C   0  0  0  0  0  0
  -21.6041   -4.3056   24.7225 C   0  0  0  0  0  0
  -21.8822   -3.8147   23.4346 C   0  0  0  0  0  0
  -21.9191   -4.6961   22.3402 C   0  0  0  0  0  0
  -22.7835  -13.5235   21.1861 C   0  0  0  0  0  0
  -22.1662   -4.2149   21.0978 F   0  0  0  0  0  0
  -21.5632   -3.4536   25.7733 F   0  0  0  0  0  0
  -29.9935  -13.4249   20.3804 N   0  0  0  0  0  0
  -26.2942  -12.9307   20.3314 N   0  0  0  0  0  0
  -25.9292  -11.6478   20.5798 N   0  0  0  0  0  0
  -22.0485  -12.8222   22.0416 N   0  0  0  0  0  0
  -25.4321  -15.1873   20.4148 N   0  0  0  0  0  0
  -31.8564  -14.7032   20.2344 O   0  0  0  0  0  0
  -21.6640   -6.8873   21.4238 O   0  0  0  0  0  0
  -22.3518  -14.5539   20.6709 O   0  0  0  0  0  0
  -24.6205  -31.8632   23.2048 C   0  0  0  0  0  0
  -25.9073  -32.4798   23.8365 C   0  0  1  0  0  0
  -27.2259  -27.3754   20.1234 C   0  0  0  0  0  0
  -25.5915  -33.8596   24.2300 N   0  0  0  0  0  0
  -23.4115  -30.4861   21.5452 C   0  0  2  0  0  0
  -24.8607  -28.9450   20.1116 C   0  0  0  0  0  0
  -22.7437  -29.4644   22.4950 C   0  0  0  0  0  0
  -18.0276  -28.1382   22.8493 C   0  0  0  0  0  0
  -24.1486  -36.7303   23.2637 C   0  0  0  0  0  0
  -25.9452  -30.8158   21.3627 C   0  0  0  0  0  0
  -26.0242  -29.4442   20.7120 C   0  0  0  0  0  0
  -27.2152  -28.6700   20.7081 C   0  0  0  0  0  0
  -26.0490  -26.9072   19.5052 C   0  0  0  0  0  0
  -24.8720  -27.6798   19.4982 C   0  0  0  0  0  0
  -23.6242  -29.8171   20.1605 C   0  0  0  0  0  0
  -25.4105  -36.3098   24.0337 C   0  0  1  0  0  0
  -20.5876  -28.3685   23.1300 C   0  0  2  0  0  0
  -20.6768  -26.9414   22.5413 C   0  0  0  0  0  0
  -19.5749  -26.6389   21.5212 C   0  0  0  0  0  0
  -18.1929  -26.7930   22.1626 C   0  0  0  0  0  0
  -19.1529  -28.8848   23.2893 C   0  0  0  0  0  0
  -18.9455  -30.1450   23.8902 C   0  0  0  0  0  0
  -17.6459  -30.6586   24.0563 C   0  0  0  0  0  0
  -25.9042  -34.9464   23.5119 C   0  0  0  0  0  0
  -16.5349  -29.9088   23.6326 C   0  0  0  0  0  0
  -16.7266  -28.6509   23.0344 C   0  0  0  0  0  0
  -26.4483  -31.6581   25.0704 C   0  0  0  0  0  0
  -25.3746  -31.3696   26.1454 C   0  0  0  0  0  0
  -27.0305  -30.3018   24.6091 C   0  0  0  0  0  0
  -27.6055  -32.4296   25.7475 C   0  0  0  0  0  0
  -27.5579  -37.1803   24.8460 C   0  0  0  0  0  0
  -21.4160  -29.3039   22.3693 N   0  0  0  0  0  0
  -26.4281  -37.3791   23.9420 N   0  0  0  0  0  0
  -24.6777  -31.0702   22.0959 N   0  0  0  0  0  0
  -23.4190  -28.8184   23.3007 O   0  0  0  0  0  0
  -28.3356  -26.5442   20.1516 O   0  0  0  0  0  0
  -26.5597  -34.8929   22.4675 O   0  0  0  0  0  0
  -23.5386  -32.1387   23.7424 O   0  0  0  0  0  0
  -29.4502  -18.1540   20.8530 C   0  0  0  0  0  0
  -29.5284  -18.2588   23.1494 C   0  0  0  0  0  0
  -29.3205  -19.0103   22.0121 C   0  0  0  0  0  0
  -29.7417  -16.8059   21.1089 C   0  0  0  0  0  0
  -28.6753  -22.8157   21.3458 C   0  0  0  0  0  0
  -29.0045  -20.4752   22.1731 C   0  0  0  0  0  0
  -28.9596  -21.5019   21.0516 C   0  0  0  0  0  0
  -28.5984  -23.9967   20.4167 C   0  0  0  0  0  0
  -30.6731  -16.7504   18.0362 C   0  0  0  0  0  0
  -28.1817  -25.3798   21.0237 C   0  0  0  0  0  0
  -29.5274  -16.0747   18.8131 C   0  0  0  0  0  0
  -29.8636  -15.7536   20.2179 N   0  0  0  0  0  0
  -28.7774  -20.8877   23.3171 O   0  0  0  0  0  0
  -28.8406  -23.9013   19.2088 O   0  0  0  0  0  0
  -29.2127  -21.0869   19.7988 O   0  0  0  0  0  0
  -29.8864  -16.5821   22.8338 S   0  0  0  0  0  0
  -31.4721  -12.4712   19.1589 H   0  0  0  0  0  0
  -30.3703  -11.3883   19.9657 H   0  0  0  0  0  0
  -29.7403  -11.5439   17.5799 H   0  0  0  0  0  0
  -29.7108  -13.2668   17.6181 H   0  0  0  0  0  0
  -27.8124  -11.2725   18.8762 H   0  0  0  0  0  0
  -27.3798  -12.5529   17.7806 H   0  0  0  0  0  0
  -27.6291  -14.2341   19.4853 H   0  0  0  0  0  0
  -28.6984  -12.1263   21.4248 H   0  0  0  0  0  0
  -28.4539  -13.8244   21.7760 H   0  0  0  0  0  0
  -25.2760   -9.5665   22.4766 H   0  0  0  0  0  0
  -24.0000   -7.4617   22.7469 H   0  0  0  0  0  0
  -21.0840   -8.8774   19.8950 H   0  0  0  0  0  0
  -22.3699  -10.9677   19.6178 H   0  0  0  0  0  0
  -21.2001   -7.6146   23.9708 H   0  0  0  0  0  0
  -21.1476   -6.0526   25.9075 H   0  0  0  0  0  0
  -22.0602   -2.7610   23.2845 H   0  0  0  0  0  0
  -22.4093  -11.9866   22.4778 H   0  0  0  0  0  0
  -21.1109  -13.1241   22.2646 H   0  0  0  0  0  0
  -24.6777  -15.8534   20.5387 H   0  0  0  0  0  0
  -26.3037  -15.6218   20.1388 H   0  0  0  0  0  0
  -26.7147  -32.5499   23.1131 H   0  0  0  0  0  0
  -25.0084  -33.9741   25.0464 H   0  0  0  0  0  0
  -22.7035  -31.3057   21.4036 H   0  0  0  0  0  0
  -23.3750  -35.9636   23.3293 H   0  0  0  0  0  0
  -24.3587  -36.8917   22.2053 H   0  0  0  0  0  0
  -23.7238  -37.6508   23.6649 H   0  0  0  0  0  0
  -26.0598  -31.5793   20.5920 H   0  0  0  0  0  0
  -26.8327  -30.8741   21.9810 H   0  0  0  0  0  0
  -28.1115  -29.0479   21.1801 H   0  0  0  0  0  0
  -26.0403  -25.9317   19.0394 H   0  0  0  0  0  0
  -23.9804  -27.2911   19.0257 H   0  0  0  0  0  0
  -23.7368  -30.5924   19.4021 H   0  0  0  0  0  0
  -22.7470  -29.2411   19.8607 H   0  0  0  0  0  0
  -25.1284  -36.1947   25.0829 H   0  0  0  0  0  0
  -20.9969  -28.3247   24.1421 H   0  0  0  0  0  0
  -20.5674  -26.2285   23.3602 H   0  0  0  0  0  0
  -21.6636  -26.7451   22.1205 H   0  0  0  0  0  0
  -19.6912  -25.6305   21.1233 H   0  0  0  0  0  0
  -19.6690  -27.3200   20.6748 H   0  0  0  0  0  0
  -17.4200  -26.6673   21.4028 H   0  0  0  0  0  0
  -18.0333  -26.0067   22.9016 H   0  0  0  0  0  0
  -19.7932  -30.7267   24.2263 H   0  0  0  0  0  0
  -17.5017  -31.6261   24.5176 H   0  0  0  0  0  0
  -15.5355  -30.2998   23.7646 H   0  0  0  0  0  0
  -15.8664  -28.0837   22.7051 H   0  0  0  0  0  0
  -24.5924  -30.7032   25.7800 H   0  0  0  0  0  0
  -24.8934  -32.2850   26.4901 H   0  0  0  0  0  0
  -25.8103  -30.8871   27.0213 H   0  0  0  0  0  0
  -26.2842  -29.6786   24.1147 H   0  0  0  0  0  0
  -27.4067  -29.7248   25.4552 H   0  0  0  0  0  0
  -27.8690  -30.4328   23.9245 H   0  0  0  0  0  0
  -27.2679  -33.3602   26.2049 H   0  0  0  0  0  0
  -28.3873  -32.6835   25.0304 H   0  0  0  0  0  0
  -28.0711  -31.8411   26.5393 H   0  0  0  0  0  0
  -28.2579  -38.0120   24.7533 H   0  0  0  0  0  0
  -28.1092  -36.2650   24.6242 H   0  0  0  0  0  0
  -27.2304  -37.1392   25.8863 H   0  0  0  0  0  0
  -20.9319  -29.8770   21.6930 H   0  0  0  0  0  0
  -26.0164  -38.2862   24.1442 H   0  0  0  0  0  0
  -29.3055  -18.5636   19.8658 H   0  0  0  0  0  0
  -29.4878  -18.6042   24.1761 H   0  0  0  0  0  0
  -28.4773  -23.0781   22.3753 H   0  0  0  0  0  0
  -30.3427  -17.0373   17.0375 H   0  0  0  0  0  0
  -31.5221  -16.0780   17.9141 H   0  0  0  0  0  0
  -31.0325  -17.6516   18.5317 H   0  0  0  0  0  0
  -28.7824  -25.5516   21.9169 H   0  0  0  0  0  0
  -27.1509  -25.2897   21.3686 H   0  0  0  0  0  0
  -29.2273  -15.1854   18.2716 H   0  0  0  0  0  0
  -28.6352  -16.7013   18.7792 H   0  0  0  0  0  0
  -29.1537  -21.8519   19.2363 H   0  0  0  0  0  0
  1 25  1  0  0  0
  1 30  2  0  0  0
  1 82  1  0  0  0
  2  3  1  0  0  0
  2 25  1  0  0  0
  2 87  1  0  0  0
  2 88  1  0  0  0
  3  4  1  0  0  0
  3 89  1  0  0  0
  3 90  1  0  0  0
  4  5  1  0  0  0
  4 91  1  0  0  0
  4 92  1  0  0  0
  5  6  1  0  0  0
  5 26  1  0  0  0
  5 93  1  0  0  0
  6 25  1  0  0  0
  6 94  1  0  0  0
  6 95  1  0  0  0
  7  8  2  0  0  0
  7 26  1  0  0  0
  7 29  1  0  0  0
  8  9  1  0  0  0
  8 22  1  0  0  0
  9 10  1  0  0  0
  9 27  2  0  0  0
 10 11  2  0  0  0
 10 15  1  0  0  0
 11 12  1  0  0  0
 11 96  1  0  0  0
 12 13  2  0  0  0
 12 97  1  0  0  0
 13 14  1  0  0  0
 13 31  1  0  0  0
 14 15  2  0  0  0
 14 98  1  0  0  0
 15 99  1  0  0  0
 16 17  2  0  0  0
 16 21  1  0  0  0
 16 31  1  0  0  0
 17 18  1  0  0  0
 17100  1  0  0  0
 18 19  2  0  0  0
 18101  1  0  0  0
 19 20  1  0  0  0
 19 24  1  0  0  0
 20 21  2  0  0  0
 20102  1  0  0  0
 21 23  1  0  0  0
 22 28  1  0  0  0
 22 32  2  0  0  0
 26 27  1  0  0  0
 28103  1  0  0  0
 28104  1  0  0  0
 29105  1  0  0  0
 29106  1  0  0  0
 33 34  1  0  0  0
 33 66  1  0  0  0
 33 70  2  0  0  0
 34 36  1  0  0  0
 34 59  1  0  0  0
 34107  1  0  0  0
 35 44  2  0  0  0
 35 45  1  0  0  0
 35 68  1  0  0  0
 36 56  1  0  0  0
 36108  1  0  0  0
 37 39  1  0  0  0
 37 47  1  0  0  0
 37 66  1  0  0  0
 37109  1  0  0  0
 38 43  2  0  0  0
 38 46  1  0  0  0
 38 47  1  0  0  0
 39 64  1  0  0  0
 39 67  2  0  0  0
 40 52  1  0  0  0
 40 53  2  0  0  0
 40 58  1  0  0  0
 41110  1  0  0  0
 41111  1  0  0  0
 41112  1  0  0  0
 41 48  1  0  0  0
 42 43  1  0  0  0
 42 66  1  0  0  0
 42113  1  0  0  0
 42114  1  0  0  0
 43 44  1  0  0  0
 44115  1  0  0  0
 45 46  2  0  0  0
 45116  1  0  0  0
 46117  1  0  0  0
 47118  1  0  0  0
 47119  1  0  0  0
 48 56  1  0  0  0
 48 65  1  0  0  0
 48120  1  0  0  0
 49 50  1  0  0  0
 49 53  1  0  0  0
 49 64  1  0  0  0
 49121  1  0  0  0
 50 51  1  0  0  0
 50122  1  0  0  0
 50123  1  0  0  0
 51 52  1  0  0  0
 51124  1  0  0  0
 51125  1  0  0  0
 52126  1  0  0  0
 52127  1  0  0  0
 53 54  1  0  0  0
 54 55  2  0  0  0
 54128  1  0  0  0
 55 57  1  0  0  0
 55129  1  0  0  0
 56 69  2  0  0  0
 57 58  2  0  0  0
 57130  1  0  0  0
 58131  1  0  0  0
 59 60  1  0  0  0
 59 61  1  0  0  0
 59 62  1  0  0  0
 60132  1  0  0  0
 60133  1  0  0  0
 60134  1  0  0  0
 61135  1  0  0  0
 61136  1  0  0  0
 61137  1  0  0  0
 62138  1  0  0  0
 62139  1  0  0  0
 62140  1  0  0  0
 63 65  1  0  0  0
 63141  1  0  0  0
 63142  1  0  0  0
 63143  1  0  0  0
 64144  1  0  0  0
 65145  1  0  0  0
 68 80  1  0  0  0
 71 73  1  0  0  0
 71 74  2  0  0  0
 71146  1  0  0  0
 72 73  2  0  0  0
 72 86  1  0  0  0
 72147  1  0  0  0
 73 76  1  0  0  0
 74 82  1  0  0  0
 74 86  1  0  0  0
 75 77  2  0  0  0
 75 78  1  0  0  0
 75148  1  0  0  0
 76 77  1  0  0  0
 76 83  2  0  0  0
 77 85  1  0  0  0
 78 80  1  0  0  0
 78 84  2  0  0  0
 79 81  1  0  0  0
 79149  1  0  0  0
 79150  1  0  0  0
 79151  1  0  0  0
 80152  1  0  0  0
 80153  1  0  0  0
 81 82  1  0  0  0
 81154  1  0  0  0
 81155  1  0  0  0
 85156  1  0  0  0
M  ISO  4   1 100  68 101  80 101  82 100
M  END
> <chiral flag>
0

> <version>
0

> <s_m_source_file>
/data/baiqing/PycharmProjects/Reinvent-master-3.2/result/LINK_invent/BTK/process_docking_weight1_custom_product_contain_oxygen_bond_distance_aromatic_linkinvent_7_9_3/rearranged_h_0177.sdf

> <i_m_source_file_index>
94

> <r_mmod_Potential_Energy-OPLS-2005>
213.188125610352

> <r_mmod_Stretch_Energy-OPLS-2005>
66.895378112793

> <r_mmod_Bend_Energy-OPLS-2005>
139.663696289062

> <r_mmod_Torsional_Energy-OPLS-2005>
292.169525146484

> <r_mmod_Improper_Torsional_Energy-OPLS-2005>
15.0073537826538

> <r_mmod_Van_der_Waal_Energy-OPLS-2005>
136.470962524414

> <r_mmod_Electrostatic_Energy-OPLS-2005>
-270.814666748047

> <r_mmod_Solvation_Energy-OPLS-2005>
-214.000961303711

> <b_mmod_Minimization_Converged-OPLS-2005>
0

> <r_mmod_RMS_Derivative-OPLS-2005>
1.45698285102844

$$$$
94
                    3D
 Structure written by MMmdl.
151159  0  0  1  0            999 V2000
  -30.6927  -14.4924   20.5598 C   0  0  0  0  0  0
  -30.4277  -12.3095   19.4329 C   0  0  0  0  0  0
  -29.5002  -12.4951   18.2136 C   0  0  0  0  0  0
  -28.0204  -12.3571   18.6222 C   0  0  0  0  0  0
  -27.6634  -13.2051   19.8723 C   0  0  2  0  0  0
  -28.7041  -12.9916   20.9957 C   0  0  0  0  0  0
  -25.2598  -13.8155   20.5678 C   0  0  0  0  0  0
  -24.1842  -13.0441   20.9168 C   0  0  0  0  0  0
  -24.6384  -11.6902   20.8709 C   0  0  0  0  0  0
  -23.9042  -10.4288   21.0394 C   0  0  0  0  0  0
  -24.3604   -9.4210   21.9171 C   0  0  0  0  0  0
  -23.6287   -8.2242   22.0740 C   0  0  0  0  0  0
  -22.4267   -8.0268   21.3537 C   0  0  0  0  0  0
  -21.9890   -9.0243   20.4647 C   0  0  0  0  0  0
  -22.7208  -10.2130   20.3055 C   0  0  0  0  0  0
  -21.6847   -6.0727   22.5276 C   0  0  0  0  0  0
  -21.4017   -6.5637   23.8209 C   0  0  0  0  0  0
  -21.3663   -5.6787   24.9169 C   0  0  0  0  0  0
  -21.6048   -4.3051   24.7222 C   0  0  0  0  0  0
  -21.8820   -3.8141   23.4342 C   0  0  0  0  0  0
  -21.9192   -4.6954   22.3397 C   0  0  0  0  0  0
  -22.7866  -13.5249   21.1834 C   0  0  0  0  0  0
  -22.1662   -4.2141   21.0973 F   0  0  0  0  0  0
  -21.5624   -3.4539   25.7738 F   0  0  0  0  0  0
  -30.0384  -13.3004   20.4488 N   0  0  0  0  0  0
  -26.3032  -12.9323   20.3338 N   0  0  0  0  0  0
  -25.9317  -11.6485   20.5742 N   0  0  0  0  0  0
  -22.0505  -12.8255   22.0404 N   0  0  0  0  0  0
  -25.4337  -15.1872   20.4120 N   0  0  0  0  0  0
  -31.8130  -14.6749   20.0726 O   0  0  0  0  0  0
  -21.6628   -6.8870   21.4239 O   0  0  0  0  0  0
  -22.3547  -14.5543   20.6655 O   0  0  0  0  0  0
  -24.6183  -31.8665   23.2094 C   0  0  0  0  0  0
  -25.9055  -32.4821   23.8396 C   0  0  1  0  0  0
  -27.2340  -27.4110   20.0920 C   0  0  0  0  0  0
  -25.5881  -33.8621   24.2313 N   0  0  0  0  0  0
  -23.4074  -30.4922   21.5511 C   0  0  2  0  0  0
  -24.8528  -28.9610   20.1142 C   0  0  0  0  0  0
  -22.7427  -29.4665   22.4980 C   0  0  0  0  0  0
  -18.0275  -28.1395   22.8493 C   0  0  0  0  0  0
  -24.1484  -36.7322   23.2641 C   0  0  0  0  0  0
  -25.9418  -30.8257   21.3662 C   0  0  0  0  0  0
  -26.0183  -29.4608   20.7089 C   0  0  0  0  0  0
  -27.2120  -28.6964   20.6913 C   0  0  0  0  0  0
  -26.0440  -26.9410   19.4827 C   0  0  0  0  0  0
  -24.8628  -27.7011   19.4971 C   0  0  0  0  0  0
  -23.6164  -29.8289   20.1659 C   0  0  0  0  0  0
  -25.4108  -36.3110   24.0338 C   0  0  1  0  0  0
  -20.5871  -28.3678   23.1309 C   0  0  2  0  0  0
  -20.6764  -26.9409   22.5413 C   0  0  0  0  0  0
  -19.5742  -26.6398   21.5215 C   0  0  0  0  0  0
  -18.1922  -26.7940   22.1628 C   0  0  0  0  0  0
  -19.1527  -28.8856   23.2901 C   0  0  0  0  0  0
  -18.9449  -30.1459   23.8910 C   0  0  0  0  0  0
  -17.6449  -30.6595   24.0579 C   0  0  0  0  0  0
  -25.9029  -34.9476   23.5127 C   0  0  0  0  0  0
  -16.5341  -29.9098   23.6336 C   0  0  0  0  0  0
  -16.7262  -28.6522   23.0345 C   0  0  0  0  0  0
  -26.4471  -31.6610   25.0737 C   0  0  0  0  0  0
  -25.3727  -31.3744   26.1486 C   0  0  0  0  0  0
  -27.0303  -30.3038   24.6147 C   0  0  0  0  0  0
  -27.6044  -32.4351   25.7485 C   0  0  0  0  0  0
  -27.5583  -37.1812   24.8462 C   0  0  0  0  0  0
  -21.4150  -29.3048   22.3712 N   0  0  0  0  0  0
  -26.4288  -37.3796   23.9410 N   0  0  0  0  0  0
  -24.6745  -31.0759   22.0999 N   0  0  0  0  0  0
  -23.4187  -28.8192   23.3025 O   0  0  0  0  0  0
  -28.3845  -26.6331   20.1223 O   0  0  0  0  0  0
  -26.5608  -34.8927   22.4699 O   0  0  0  0  0  0
  -23.5361  -32.1419   23.7454 O   0  0  0  0  0  0
  -29.8391  -19.3810   21.1582 C   0  0  0  0  0  0
  -30.7716  -18.9379   20.2343 C   0  0  0  0  0  0
  -30.1014  -16.8955   21.0380 C   0  0  0  0  0  0
  -29.3672  -20.7157   21.6622 C   0  0  0  0  0  0
  -29.3560  -24.3292   20.4363 C   0  0  0  0  0  0
  -29.0680  -23.1564   21.3976 C   0  0  0  0  0  0
  -28.1594  -25.2061   20.0079 C   0  0  0  0  0  0
  -30.8848  -17.5398   20.1616 N   0  0  0  0  0  0
  -31.5849  -19.7059   19.3947 N   0  0  0  0  0  0
  -29.9949  -15.4728   21.1688 N   0  0  0  0  0  0
  -29.5615  -21.8387   20.9383 N   0  0  0  0  0  0
  -28.7716  -20.7798   22.7415 O   0  0  0  0  0  0
  -30.4975  -24.5319   20.0076 O   0  0  0  0  0  0
  -29.1227  -18.0006   21.9903 S   0  0  0  0  0  0
  -31.4730  -12.4053   19.1322 H   0  0  0  0  0  0
  -30.3308  -11.3010   19.8398 H   0  0  0  0  0  0
  -29.7440  -11.7616   17.4451 H   0  0  0  0  0  0
  -29.6699  -13.4755   17.7659 H   0  0  0  0  0  0
  -27.8347  -11.3025   18.8297 H   0  0  0  0  0  0
  -27.3712  -12.6202   17.7869 H   0  0  0  0  0  0
  -27.7079  -14.2509   19.5684 H   0  0  0  0  0  0
  -28.6828  -11.9561   21.3382 H   0  0  0  0  0  0
  -28.4568  -13.5906   21.8730 H   0  0  0  0  0  0
  -25.2758   -9.5684   22.4730 H   0  0  0  0  0  0
  -24.0000   -7.4633   22.7460 H   0  0  0  0  0  0
  -21.0808   -8.8762   19.8964 H   0  0  0  0  0  0
  -22.3656  -10.9667   19.6158 H   0  0  0  0  0  0
  -21.2014   -7.6145   23.9713 H   0  0  0  0  0  0
  -21.1483   -6.0514   25.9072 H   0  0  0  0  0  0
  -22.0597   -2.7603   23.2839 H   0  0  0  0  0  0
  -22.4127  -11.9953   22.4847 H   0  0  0  0  0  0
  -21.1124  -13.1291   22.2606 H   0  0  0  0  0  0
  -24.6684  -15.8442   20.5201 H   0  0  0  0  0  0
  -26.2853  -15.6251   20.0842 H   0  0  0  0  0  0
  -26.7131  -32.5523   23.1163 H   0  0  0  0  0  0
  -24.9993  -33.9783   25.0426 H   0  0  0  0  0  0
  -22.6973  -31.3107   21.4141 H   0  0  0  0  0  0
  -23.3730  -35.9668   23.3311 H   0  0  0  0  0  0
  -24.3571  -36.8930   22.2051 H   0  0  0  0  0  0
  -23.7244  -37.6535   23.6650 H   0  0  0  0  0  0
  -26.0607  -31.5925   20.5991 H   0  0  0  0  0  0
  -26.8265  -30.8735   21.9889 H   0  0  0  0  0  0
  -28.1101  -29.0808   21.1551 H   0  0  0  0  0  0
  -25.9976  -25.9834   18.9845 H   0  0  0  0  0  0
  -23.9694  -27.3122   19.0298 H   0  0  0  0  0  0
  -23.7224  -30.6051   19.4074 H   0  0  0  0  0  0
  -22.7391  -29.2500   19.8717 H   0  0  0  0  0  0
  -25.1281  -36.1986   25.0828 H   0  0  0  0  0  0
  -20.9975  -28.3250   24.1428 H   0  0  0  0  0  0
  -20.5666  -26.2282   23.3599 H   0  0  0  0  0  0
  -21.6633  -26.7451   22.1208 H   0  0  0  0  0  0
  -19.6891  -25.6315   21.1237 H   0  0  0  0  0  0
  -19.6684  -27.3217   20.6754 H   0  0  0  0  0  0
  -17.4184  -26.6685   21.4034 H   0  0  0  0  0  0
  -18.0319  -26.0083   22.9030 H   0  0  0  0  0  0
  -19.7921  -30.7283   24.2271 H   0  0  0  0  0  0
  -17.5004  -31.6272   24.5186 H   0  0  0  0  0  0
  -15.5341  -30.3009   23.7659 H   0  0  0  0  0  0
  -15.8660  -28.0862   22.7041 H   0  0  0  0  0  0
  -24.5857  -30.7143   25.7825 H   0  0  0  0  0  0
  -24.8966  -32.2913   26.4972 H   0  0  0  0  0  0
  -25.8062  -30.8873   27.0224 H   0  0  0  0  0  0
  -26.2862  -29.6811   24.1166 H   0  0  0  0  0  0
  -27.4003  -29.7289   25.4643 H   0  0  0  0  0  0
  -27.8729  -30.4346   23.9355 H   0  0  0  0  0  0
  -27.2648  -33.3626   26.2115 H   0  0  0  0  0  0
  -28.3806  -32.6968   25.0280 H   0  0  0  0  0  0
  -28.0766  -31.8453   26.5349 H   0  0  0  0  0  0
  -28.2616  -38.0097   24.7502 H   0  0  0  0  0  0
  -28.1061  -36.2630   24.6288 H   0  0  0  0  0  0
  -27.2300  -37.1475   25.8864 H   0  0  0  0  0  0
  -20.9291  -29.8772   21.6946 H   0  0  0  0  0  0
  -26.0181  -38.2875   24.1404 H   0  0  0  0  0  0
  -27.9961  -23.0942   21.5870 H   0  0  0  0  0  0
  -29.5343  -23.3967   22.3542 H   0  0  0  0  0  0
  -27.2967  -24.9230   20.6107 H   0  0  0  0  0  0
  -27.9311  -24.9568   18.9714 H   0  0  0  0  0  0
  -31.8164  -20.6571   19.6571 H   0  0  0  0  0  0
  -32.3436  -19.2364   18.9098 H   0  0  0  0  0  0
  -29.1800  -15.1509   21.6667 H   0  0  0  0  0  0
  -30.0220  -21.7884   20.0401 H   0  0  0  0  0  0
  1 25  1  0  0  0
  1 30  2  0  0  0
  1 80  1  0  0  0
  2  3  1  0  0  0
  2 25  1  0  0  0
  2 85  1  0  0  0
  2 86  1  0  0  0
  3  4  1  0  0  0
  3 87  1  0  0  0
  3 88  1  0  0  0
  4  5  1  0  0  0
  4 89  1  0  0  0
  4 90  1  0  0  0
  5  6  1  0  0  0
  5 26  1  0  0  0
  5 91  1  0  0  0
  6 25  1  0  0  0
  6 92  1  0  0  0
  6 93  1  0  0  0
  7  8  2  0  0  0
  7 26  1  0  0  0
  7 29  1  0  0  0
  8  9  1  0  0  0
  8 22  1  0  0  0
  9 10  1  0  0  0
  9 27  2  0  0  0
 10 11  2  0  0  0
 10 15  1  0  0  0
 11 12  1  0  0  0
 11 94  1  0  0  0
 12 13  2  0  0  0
 12 95  1  0  0  0
 13 14  1  0  0  0
 13 31  1  0  0  0
 14 15  2  0  0  0
 14 96  1  0  0  0
 15 97  1  0  0  0
 16 17  2  0  0  0
 16 21  1  0  0  0
 16 31  1  0  0  0
 17 18  1  0  0  0
 17 98  1  0  0  0
 18 19  2  0  0  0
 18 99  1  0  0  0
 19 20  1  0  0  0
 19 24  1  0  0  0
 20 21  2  0  0  0
 20100  1  0  0  0
 21 23  1  0  0  0
 22 28  1  0  0  0
 22 32  2  0  0  0
 26 27  1  0  0  0
 28101  1  0  0  0
 28102  1  0  0  0
 29103  1  0  0  0
 29104  1  0  0  0
 33 34  1  0  0  0
 33 66  1  0  0  0
 33 70  2  0  0  0
 34 36  1  0  0  0
 34 59  1  0  0  0
 34105  1  0  0  0
 35 44  2  0  0  0
 35 45  1  0  0  0
 35 68  1  0  0  0
 36 56  1  0  0  0
 36106  1  0  0  0
 37 39  1  0  0  0
 37 47  1  0  0  0
 37 66  1  0  0  0
 37107  1  0  0  0
 38 43  2  0  0  0
 38 46  1  0  0  0
 38 47  1  0  0  0
 39 64  1  0  0  0
 39 67  2  0  0  0
 40 52  1  0  0  0
 40 53  2  0  0  0
 40 58  1  0  0  0
 41108  1  0  0  0
 41109  1  0  0  0
 41110  1  0  0  0
 41 48  1  0  0  0
 42 43  1  0  0  0
 42 66  1  0  0  0
 42111  1  0  0  0
 42112  1  0  0  0
 43 44  1  0  0  0
 44113  1  0  0  0
 45 46  2  0  0  0
 45114  1  0  0  0
 46115  1  0  0  0
 47116  1  0  0  0
 47117  1  0  0  0
 48 56  1  0  0  0
 48 65  1  0  0  0
 48118  1  0  0  0
 49 50  1  0  0  0
 49 53  1  0  0  0
 49 64  1  0  0  0
 49119  1  0  0  0
 50 51  1  0  0  0
 50120  1  0  0  0
 50121  1  0  0  0
 51 52  1  0  0  0
 51122  1  0  0  0
 51123  1  0  0  0
 52124  1  0  0  0
 52125  1  0  0  0
 53 54  1  0  0  0
 54 55  2  0  0  0
 54126  1  0  0  0
 55 57  1  0  0  0
 55127  1  0  0  0
 56 69  2  0  0  0
 57 58  2  0  0  0
 57128  1  0  0  0
 58129  1  0  0  0
 59 60  1  0  0  0
 59 61  1  0  0  0
 59 62  1  0  0  0
 60130  1  0  0  0
 60131  1  0  0  0
 60132  1  0  0  0
 61133  1  0  0  0
 61134  1  0  0  0
 61135  1  0  0  0
 62136  1  0  0  0
 62137  1  0  0  0
 62138  1  0  0  0
 63 65  1  0  0  0
 63139  1  0  0  0
 63140  1  0  0  0
 63141  1  0  0  0
 64142  1  0  0  0
 65143  1  0  0  0
 68 77  1  0  0  0
 71 72  2  0  0  0
 71 74  1  0  0  0
 71 84  1  0  0  0
 72 78  1  0  0  0
 72 79  1  0  0  0
 73 78  2  0  0  0
 73 80  1  0  0  0
 73 84  1  0  0  0
 74 81  1  0  0  0
 74 82  2  0  0  0
 75 76  1  0  0  0
 75 77  1  0  0  0
 75 83  2  0  0  0
 76 81  1  0  0  0
 76144  1  0  0  0
 76145  1  0  0  0
 77146  1  0  0  0
 77147  1  0  0  0
 79148  1  0  0  0
 79149  1  0  0  0
 80150  1  0  0  0
 81151  1  0  0  0
M  ISO  4   1 100  68 101  77 101  80 100
M  END
> <chiral flag>
0

> <version>
0

> <s_m_source_file>
/data/baiqing/PycharmProjects/Reinvent-master-3.2/result/LINK_invent/BTK/process_docking_weight1_custom_product_contain_oxygen_bond_distance_aromatic_linkinvent_7_9_3/rearranged_h_0177.sdf

> <i_m_source_file_index>
95

> <r_mmod_Potential_Energy-OPLS-2005>
-195.077835083008

> <r_mmod_Stretch_Energy-OPLS-2005>
42.0819091796875

> <r_mmod_Bend_Energy-OPLS-2005>
110.597007751465

> <r_mmod_Torsional_Energy-OPLS-2005>
224.130294799805

> <r_mmod_Improper_Torsional_Energy-OPLS-2005>
6.04280376434326

> <r_mmod_Van_der_Waal_Energy-OPLS-2005>
138.806610107422

> <r_mmod_Electrostatic_Energy-OPLS-2005>
-458.007293701172

> <r_mmod_Solvation_Energy-OPLS-2005>
-275.021667480469

> <b_mmod_Minimization_Converged-OPLS-2005>
0

> <r_mmod_RMS_Derivative-OPLS-2005>
1.96812427043915

$$$$
95
                    3D
 Structure written by MMmdl.
156164  0  0  1  0            999 V2000
  -30.6843  -14.5292   20.5473 C   0  0  0  0  0  0
  -30.4268  -12.3353   19.4373 C   0  0  0  0  0  0
  -29.5021  -12.5051   18.2137 C   0  0  0  0  0  0
  -28.0220  -12.3620   18.6214 C   0  0  0  0  0  0
  -27.6566  -13.2126   19.8679 C   0  0  2  0  0  0
  -28.6998  -13.0311   20.9949 C   0  0  0  0  0  0
  -25.2558  -13.8167   20.5666 C   0  0  0  0  0  0
  -24.1831  -13.0431   20.9184 C   0  0  0  0  0  0
  -24.6395  -11.6903   20.8733 C   0  0  0  0  0  0
  -23.9062  -10.4292   21.0403 C   0  0  0  0  0  0
  -24.3616   -9.4210   21.9179 C   0  0  0  0  0  0
  -23.6294   -8.2245   22.0753 C   0  0  0  0  0  0
  -22.4279   -8.0280   21.3545 C   0  0  0  0  0  0
  -21.9911   -9.0246   20.4647 C   0  0  0  0  0  0
  -22.7234  -10.2128   20.3053 C   0  0  0  0  0  0
  -21.6853   -6.0738   22.5278 C   0  0  0  0  0  0
  -21.4016   -6.5637   23.8214 C   0  0  0  0  0  0
  -21.3660   -5.6789   24.9174 C   0  0  0  0  0  0
  -21.6043   -4.3052   24.7226 C   0  0  0  0  0  0
  -21.8816   -3.8148   23.4344 C   0  0  0  0  0  0
  -21.9194   -4.6965   22.3405 C   0  0  0  0  0  0
  -22.7853  -13.5227   21.1851 C   0  0  0  0  0  0
  -22.1661   -4.2146   21.0982 F   0  0  0  0  0  0
  -21.5633   -3.4536   25.7740 F   0  0  0  0  0  0
  -30.0246  -13.3407   20.4358 N   0  0  0  0  0  0
  -26.2992  -12.9344   20.3321 N   0  0  0  0  0  0
  -25.9321  -11.6502   20.5747 N   0  0  0  0  0  0
  -22.0493  -12.8217   22.0409 N   0  0  0  0  0  0
  -25.4245  -15.1891   20.4069 N   0  0  0  0  0  0
  -31.8383  -14.6724   20.1336 O   0  0  0  0  0  0
  -21.6643   -6.8879   21.4242 O   0  0  0  0  0  0
  -22.3535  -14.5535   20.6700 O   0  0  0  0  0  0
  -24.6203  -31.8654   23.2054 C   0  0  0  0  0  0
  -25.9070  -32.4814   23.8369 C   0  0  1  0  0  0
  -27.2220  -27.3806   20.1107 C   0  0  0  0  0  0
  -25.5903  -33.8611   24.2294 N   0  0  0  0  0  0
  -23.4097  -30.4900   21.5483 C   0  0  2  0  0  0
  -24.8551  -28.9586   20.1084 C   0  0  0  0  0  0
  -22.7446  -29.4639   22.4965 C   0  0  0  0  0  0
  -18.0274  -28.1379   22.8489 C   0  0  0  0  0  0
  -24.1480  -36.7314   23.2638 C   0  0  0  0  0  0
  -25.9460  -30.8172   21.3670 C   0  0  0  0  0  0
  -26.0198  -29.4498   20.7106 C   0  0  0  0  0  0
  -27.2066  -28.6704   20.7064 C   0  0  0  0  0  0
  -26.0376  -26.9358   19.4739 C   0  0  0  0  0  0
  -24.8617  -27.7044   19.4824 C   0  0  0  0  0  0
  -23.6193  -29.8282   20.1610 C   0  0  0  0  0  0
  -25.4108  -36.3116   24.0327 C   0  0  1  0  0  0
  -20.5878  -28.3657   23.1310 C   0  0  2  0  0  0
  -20.6776  -26.9390   22.5416 C   0  0  0  0  0  0
  -19.5749  -26.6378   21.5219 C   0  0  0  0  0  0
  -18.1923  -26.7924   22.1616 C   0  0  0  0  0  0
  -19.1529  -28.8844   23.2888 C   0  0  0  0  0  0
  -18.9457  -30.1460   23.8883 C   0  0  0  0  0  0
  -17.6456  -30.6587   24.0560 C   0  0  0  0  0  0
  -25.9039  -34.9477   23.5109 C   0  0  0  0  0  0
  -16.5348  -29.9077   23.6328 C   0  0  0  0  0  0
  -16.7261  -28.6495   23.0343 C   0  0  0  0  0  0
  -26.4467  -31.6616   25.0722 C   0  0  0  0  0  0
  -25.3707  -31.3758   26.1453 C   0  0  0  0  0  0
  -27.0297  -30.3048   24.6134 C   0  0  0  0  0  0
  -27.6024  -32.4353   25.7492 C   0  0  0  0  0  0
  -27.5580  -37.1811   24.8460 C   0  0  0  0  0  0
  -21.4173  -29.3018   22.3712 N   0  0  0  0  0  0
  -26.4290  -37.3805   23.9403 N   0  0  0  0  0  0
  -24.6767  -31.0717   22.0979 N   0  0  0  0  0  0
  -23.4194  -28.8184   23.3024 O   0  0  0  0  0  0
  -28.3560  -26.5713   20.1827 O   0  0  0  0  0  0
  -26.5617  -34.8936   22.4683 O   0  0  0  0  0  0
  -23.5377  -32.1426   23.7405 O   0  0  0  0  0  0
  -31.5763  -18.8411   21.2223 C   0  0  0  0  0  0
  -30.4604  -19.4747   20.6882 C   0  0  0  0  0  0
  -30.2669  -16.9746   20.9345 C   0  0  0  0  0  0
  -29.3156  -21.6343   20.2448 C   0  0  0  0  0  0
  -27.3527  -24.7085   21.4591 C   0  0  0  0  0  0
  -29.5185  -22.9528   19.4491 C   0  0  0  0  0  0
  -29.5157  -24.3324   20.1960 C   0  0  0  0  0  0
  -28.1692  -25.1202   20.2160 C   0  0  2  0  0  0
  -32.8845  -19.4663   21.6658 C   0  0  0  0  0  0
  -31.4400  -17.4433   21.3621 N   0  0  0  0  0  0
  -30.3772  -20.7989   20.3243 N   0  0  0  0  0  0
  -29.9289  -15.5803   20.9518 N   0  0  0  0  0  0
  -28.2202  -21.3735   20.7437 O   0  0  0  0  0  0
  -32.9872  -20.7460   21.3005 F   0  0  0  0  0  0
  -33.0101  -19.4202   22.9928 F   0  0  0  0  0  0
  -33.9310  -18.8251   21.1433 F   0  0  0  0  0  0
  -29.1823  -18.2781   20.4216 S   0  0  0  0  0  0
  -31.4715  -12.4360   19.1374 H   0  0  0  0  0  0
  -30.3349  -11.3312   19.8545 H   0  0  0  0  0  0
  -29.7526  -11.7695   17.4476 H   0  0  0  0  0  0
  -29.6659  -13.4851   17.7608 H   0  0  0  0  0  0
  -27.8365  -11.3079   18.8255 H   0  0  0  0  0  0
  -27.3748  -12.6256   17.7846 H   0  0  0  0  0  0
  -27.6864  -14.2555   19.5497 H   0  0  0  0  0  0
  -28.6855  -12.0053   21.3657 H   0  0  0  0  0  0
  -28.4567  -13.6570   21.8552 H   0  0  0  0  0  0
  -25.2762   -9.5687   22.4750 H   0  0  0  0  0  0
  -24.0003   -7.4639   22.7470 H   0  0  0  0  0  0
  -21.0843   -8.8760   19.8955 H   0  0  0  0  0  0
  -22.3690  -10.9661   19.6161 H   0  0  0  0  0  0
  -21.2006   -7.6147   23.9718 H   0  0  0  0  0  0
  -21.1487   -6.0521   25.9074 H   0  0  0  0  0  0
  -22.0598   -2.7610   23.2846 H   0  0  0  0  0  0
  -22.4099  -11.9874   22.4801 H   0  0  0  0  0  0
  -21.1106  -13.1239   22.2611 H   0  0  0  0  0  0
  -24.6483  -15.8347   20.5071 H   0  0  0  0  0  0
  -26.2585  -15.6316   20.0434 H   0  0  0  0  0  0
  -26.7141  -32.5511   23.1127 H   0  0  0  0  0  0
  -25.0056  -33.9769   25.0444 H   0  0  0  0  0  0
  -22.7014  -31.3092   21.4096 H   0  0  0  0  0  0
  -23.3747  -35.9643   23.3315 H   0  0  0  0  0  0
  -24.3576  -36.8920   22.2052 H   0  0  0  0  0  0
  -23.7234  -37.6522   23.6647 H   0  0  0  0  0  0
  -26.0705  -31.5825   20.5986 H   0  0  0  0  0  0
  -26.8302  -30.8674   21.9902 H   0  0  0  0  0  0
  -28.0985  -29.0383   21.1938 H   0  0  0  0  0  0
  -25.9835  -25.9823   18.9741 H   0  0  0  0  0  0
  -23.9703  -27.3241   19.0018 H   0  0  0  0  0  0
  -23.7302  -30.6060   19.4047 H   0  0  0  0  0  0
  -22.7422  -29.2521   19.8587 H   0  0  0  0  0  0
  -25.1295  -36.1974   25.0821 H   0  0  0  0  0  0
  -20.9955  -28.3218   24.1435 H   0  0  0  0  0  0
  -20.5705  -26.2255   23.3599 H   0  0  0  0  0  0
  -21.6649  -26.7460   22.1195 H   0  0  0  0  0  0
  -19.6905  -25.6295   21.1238 H   0  0  0  0  0  0
  -19.6692  -27.3201   20.6762 H   0  0  0  0  0  0
  -17.4206  -26.6683   21.4006 H   0  0  0  0  0  0
  -18.0307  -26.0076   22.9013 H   0  0  0  0  0  0
  -19.7935  -30.7279   24.2235 H   0  0  0  0  0  0
  -17.5008  -31.6263   24.5173 H   0  0  0  0  0  0
  -15.5349  -30.2963   23.7679 H   0  0  0  0  0  0
  -15.8662  -28.0810   22.7056 H   0  0  0  0  0  0
  -24.5867  -30.7117   25.7795 H   0  0  0  0  0  0
  -24.8920  -32.2938   26.4876 H   0  0  0  0  0  0
  -25.8036  -30.8946   27.0230 H   0  0  0  0  0  0
  -26.2866  -29.6816   24.1145 H   0  0  0  0  0  0
  -27.4017  -29.7277   25.4612 H   0  0  0  0  0  0
  -27.8709  -30.4373   23.9326 H   0  0  0  0  0  0
  -27.2623  -33.3649   26.2073 H   0  0  0  0  0  0
  -28.3823  -32.6926   25.0312 H   0  0  0  0  0  0
  -28.0690  -31.8478   26.5409 H   0  0  0  0  0  0
  -28.2609  -38.0102   24.7520 H   0  0  0  0  0  0
  -28.1068  -36.2637   24.6275 H   0  0  0  0  0  0
  -27.2296  -37.1455   25.8863 H   0  0  0  0  0  0
  -20.9329  -29.8746   21.6941 H   0  0  0  0  0  0
  -26.0173  -38.2874   24.1423 H   0  0  0  0  0  0
  -27.1857  -23.6328   21.4827 H   0  0  0  0  0  0
  -26.3678  -25.1723   21.4903 H   0  0  0  0  0  0
  -27.8730  -24.9798   22.3774 H   0  0  0  0  0  0
  -28.7756  -22.9683   18.6505 H   0  0  0  0  0  0
  -30.4707  -22.8649   18.9246 H   0  0  0  0  0  0
  -30.2388  -24.9637   19.6785 H   0  0  0  0  0  0
  -29.9153  -24.2204   21.2055 H   0  0  0  0  0  0
  -27.6422  -24.8229   19.3119 H   0  0  0  0  0  0
  -31.2504  -21.2199   20.0345 H   0  0  0  0  0  0
  -28.9591  -15.3669   21.1209 H   0  0  0  0  0  0
  1 25  1  0  0  0
  1 30  2  0  0  0
  1 82  1  0  0  0
  2  3  1  0  0  0
  2 25  1  0  0  0
  2 88  1  0  0  0
  2 89  1  0  0  0
  3  4  1  0  0  0
  3 90  1  0  0  0
  3 91  1  0  0  0
  4  5  1  0  0  0
  4 92  1  0  0  0
  4 93  1  0  0  0
  5  6  1  0  0  0
  5 26  1  0  0  0
  5 94  1  0  0  0
  6 25  1  0  0  0
  6 95  1  0  0  0
  6 96  1  0  0  0
  7  8  2  0  0  0
  7 26  1  0  0  0
  7 29  1  0  0  0
  8  9  1  0  0  0
  8 22  1  0  0  0
  9 10  1  0  0  0
  9 27  2  0  0  0
 10 11  2  0  0  0
 10 15  1  0  0  0
 11 12  1  0  0  0
 11 97  1  0  0  0
 12 13  2  0  0  0
 12 98  1  0  0  0
 13 14  1  0  0  0
 13 31  1  0  0  0
 14 15  2  0  0  0
 14 99  1  0  0  0
 15100  1  0  0  0
 16 17  2  0  0  0
 16 21  1  0  0  0
 16 31  1  0  0  0
 17 18  1  0  0  0
 17101  1  0  0  0
 18 19  2  0  0  0
 18102  1  0  0  0
 19 20  1  0  0  0
 19 24  1  0  0  0
 20 21  2  0  0  0
 20103  1  0  0  0
 21 23  1  0  0  0
 22 28  1  0  0  0
 22 32  2  0  0  0
 26 27  1  0  0  0
 28104  1  0  0  0
 28105  1  0  0  0
 29106  1  0  0  0
 29107  1  0  0  0
 33 34  1  0  0  0
 33 66  1  0  0  0
 33 70  2  0  0  0
 34 36  1  0  0  0
 34 59  1  0  0  0
 34108  1  0  0  0
 35 44  2  0  0  0
 35 45  1  0  0  0
 35 68  1  0  0  0
 36 56  1  0  0  0
 36109  1  0  0  0
 37 39  1  0  0  0
 37 47  1  0  0  0
 37 66  1  0  0  0
 37110  1  0  0  0
 38 43  2  0  0  0
 38 46  1  0  0  0
 38 47  1  0  0  0
 39 64  1  0  0  0
 39 67  2  0  0  0
 40 52  1  0  0  0
 40 53  2  0  0  0
 40 58  1  0  0  0
 41111  1  0  0  0
 41112  1  0  0  0
 41113  1  0  0  0
 41 48  1  0  0  0
 42 43  1  0  0  0
 42 66  1  0  0  0
 42114  1  0  0  0
 42115  1  0  0  0
 43 44  1  0  0  0
 44116  1  0  0  0
 45 46  2  0  0  0
 45117  1  0  0  0
 46118  1  0  0  0
 47119  1  0  0  0
 47120  1  0  0  0
 48 56  1  0  0  0
 48 65  1  0  0  0
 48121  1  0  0  0
 49 50  1  0  0  0
 49 53  1  0  0  0
 49 64  1  0  0  0
 49122  1  0  0  0
 50 51  1  0  0  0
 50123  1  0  0  0
 50124  1  0  0  0
 51 52  1  0  0  0
 51125  1  0  0  0
 51126  1  0  0  0
 52127  1  0  0  0
 52128  1  0  0  0
 53 54  1  0  0  0
 54 55  2  0  0  0
 54129  1  0  0  0
 55 57  1  0  0  0
 55130  1  0  0  0
 56 69  2  0  0  0
 57 58  2  0  0  0
 57131  1  0  0  0
 58132  1  0  0  0
 59 60  1  0  0  0
 59 61  1  0  0  0
 59 62  1  0  0  0
 60133  1  0  0  0
 60134  1  0  0  0
 60135  1  0  0  0
 61136  1  0  0  0
 61137  1  0  0  0
 61138  1  0  0  0
 62139  1  0  0  0
 62140  1  0  0  0
 62141  1  0  0  0
 63 65  1  0  0  0
 63142  1  0  0  0
 63143  1  0  0  0
 63144  1  0  0  0
 64145  1  0  0  0
 65146  1  0  0  0
 68 78  1  0  0  0
 71 72  2  0  0  0
 71 79  1  0  0  0
 71 80  1  0  0  0
 72 81  1  0  0  0
 72 87  1  0  0  0
 73 80  2  0  0  0
 73 82  1  0  0  0
 73 87  1  0  0  0
 74 76  1  0  0  0
 74 81  1  0  0  0
 74 83  2  0  0  0
 75147  1  0  0  0
 75148  1  0  0  0
 75149  1  0  0  0
 75 78  1  0  0  0
 76 77  1  0  0  0
 76150  1  0  0  0
 76151  1  0  0  0
 77 78  1  0  0  0
 77152  1  0  0  0
 77153  1  0  0  0
 78154  1  0  0  0
 79 84  1  0  0  0
 79 85  1  0  0  0
 79 86  1  0  0  0
 81155  1  0  0  0
 82156  1  0  0  0
M  ISO  4   1 100  68 101  78 101  82 100
M  END
> <chiral flag>
0

> <version>
0

> <s_m_source_file>
/data/baiqing/PycharmProjects/Reinvent-master-3.2/result/LINK_invent/BTK/process_docking_weight1_custom_product_contain_oxygen_bond_distance_aromatic_linkinvent_7_9_3/rearranged_h_0177.sdf

> <i_m_source_file_index>
96

> <r_mmod_Potential_Energy-OPLS-2005>
-39.5318717956543

> <r_mmod_Stretch_Energy-OPLS-2005>
48.7341156005859

> <r_mmod_Bend_Energy-OPLS-2005>
119.222625732422

> <r_mmod_Torsional_Energy-OPLS-2005>
232.431488037109

> <r_mmod_Improper_Torsional_Energy-OPLS-2005>
5.17664909362793

> <r_mmod_Van_der_Waal_Energy-OPLS-2005>
133.48664855957

> <r_mmod_Electrostatic_Energy-OPLS-2005>
-372.373352050781

> <r_mmod_Solvation_Energy-OPLS-2005>
-231.704193115234

> <b_mmod_Minimization_Converged-OPLS-2005>
0

> <r_mmod_RMS_Derivative-OPLS-2005>
2.0477089881897

$$$$
96
                    3D
 Structure written by MMmdl.
155163  0  0  1  0            999 V2000
  -30.7430  -14.4309   20.5312 C   0  0  0  0  0  0
  -30.4094  -12.2691   19.4316 C   0  0  0  0  0  0
  -29.4928  -12.4830   18.2100 C   0  0  0  0  0  0
  -28.0119  -12.3676   18.6179 C   0  0  0  0  0  0
  -27.6601  -13.2145   19.8710 C   0  0  2  0  0  0
  -28.7022  -13.0161   20.9971 C   0  0  0  0  0  0
  -25.2576  -13.8178   20.5688 C   0  0  0  0  0  0
  -24.1840  -13.0444   20.9181 C   0  0  0  0  0  0
  -24.6398  -11.6912   20.8731 C   0  0  0  0  0  0
  -23.9056  -10.4289   21.0398 C   0  0  0  0  0  0
  -24.3607   -9.4209   21.9181 C   0  0  0  0  0  0
  -23.6301   -8.2233   22.0748 C   0  0  0  0  0  0
  -22.4279   -8.0268   21.3539 C   0  0  0  0  0  0
  -21.9902   -9.0234   20.4644 C   0  0  0  0  0  0
  -22.7222  -10.2121   20.3049 C   0  0  0  0  0  0
  -21.6852   -6.0733   22.5283 C   0  0  0  0  0  0
  -21.4005   -6.5642   23.8208 C   0  0  0  0  0  0
  -21.3660   -5.6794   24.9171 C   0  0  0  0  0  0
  -21.6046   -4.3054   24.7220 C   0  0  0  0  0  0
  -21.8813   -3.8142   23.4340 C   0  0  0  0  0  0
  -21.9194   -4.6966   22.3401 C   0  0  0  0  0  0
  -22.7863  -13.5245   21.1854 C   0  0  0  0  0  0
  -22.1657   -4.2151   21.0977 F   0  0  0  0  0  0
  -21.5640   -3.4542   25.7736 F   0  0  0  0  0  0
  -30.0388  -13.2737   20.4383 N   0  0  0  0  0  0
  -26.3023  -12.9365   20.3353 N   0  0  0  0  0  0
  -25.9333  -11.6518   20.5774 N   0  0  0  0  0  0
  -22.0487  -12.8245   22.0405 N   0  0  0  0  0  0
  -25.4285  -15.1897   20.4093 N   0  0  0  0  0  0
  -31.9051  -14.5488   20.1351 O   0  0  0  0  0  0
  -21.6631   -6.8874   21.4241 O   0  0  0  0  0  0
  -22.3558  -14.5556   20.6715 O   0  0  0  0  0  0
  -24.6117  -31.8713   23.2120 C   0  0  0  0  0  0
  -25.9019  -32.4834   23.8420 C   0  0  1  0  0  0
  -27.2433  -27.4664   20.0947 C   0  0  0  0  0  0
  -25.5882  -33.8633   24.2353 N   0  0  0  0  0  0
  -23.3990  -30.4919   21.5510 C   0  0  2  0  0  0
  -24.8467  -28.9609   20.1173 C   0  0  0  0  0  0
  -22.7417  -29.4659   22.5022 C   0  0  0  0  0  0
  -18.0271  -28.1367   22.8489 C   0  0  0  0  0  0
  -24.1487  -36.7326   23.2635 C   0  0  0  0  0  0
  -25.9239  -30.8460   21.3599 C   0  0  0  0  0  0
  -26.0027  -29.4821   20.7085 C   0  0  0  0  0  0
  -27.2040  -28.7431   20.6909 C   0  0  0  0  0  0
  -26.0668  -26.9485   19.5013 C   0  0  0  0  0  0
  -24.8721  -27.6925   19.5099 C   0  0  0  0  0  0
  -23.6059  -29.8214   20.1663 C   0  0  0  0  0  0
  -25.4095  -36.3119   24.0347 C   0  0  1  0  0  0
  -20.5859  -28.3643   23.1333 C   0  0  2  0  0  0
  -20.6750  -26.9382   22.5419 C   0  0  0  0  0  0
  -19.5731  -26.6379   21.5215 C   0  0  0  0  0  0
  -18.1912  -26.7914   22.1622 C   0  0  0  0  0  0
  -19.1518  -28.8828   23.2897 C   0  0  0  0  0  0
  -18.9443  -30.1435   23.8901 C   0  0  0  0  0  0
  -17.6442  -30.6566   24.0559 C   0  0  0  0  0  0
  -25.9022  -34.9488   23.5151 C   0  0  0  0  0  0
  -16.5339  -29.9067   23.6314 C   0  0  0  0  0  0
  -16.7255  -28.6487   23.0333 C   0  0  0  0  0  0
  -26.4454  -31.6593   25.0738 C   0  0  0  0  0  0
  -25.3728  -31.3694   26.1496 C   0  0  0  0  0  0
  -27.0252  -30.3030   24.6081 C   0  0  0  0  0  0
  -27.6048  -32.4295   25.7490 C   0  0  0  0  0  0
  -27.5598  -37.1792   24.8447 C   0  0  0  0  0  0
  -21.4146  -29.3023   22.3766 N   0  0  0  0  0  0
  -26.4279  -37.3803   23.9441 N   0  0  0  0  0  0
  -24.6628  -31.0845   22.0994 N   0  0  0  0  0  0
  -23.4212  -28.8207   23.3043 O   0  0  0  0  0  0
  -28.4329  -26.7752   20.1065 O   0  0  0  0  0  0
  -26.5594  -34.8937   22.4718 O   0  0  0  0  0  0
  -23.5313  -32.1459   23.7522 O   0  0  0  0  0  0
  -30.7126  -17.8959   21.0494 C   0  0  0  0  0  0
  -30.5721  -18.0904   18.2294 C   0  0  0  0  0  0
  -31.0379  -19.1077   20.3923 C   0  0  0  0  0  0
  -30.3129  -16.7757   20.2818 C   0  0  0  0  0  0
  -31.0059  -19.1875   18.9866 C   0  0  0  0  0  0
  -30.2028  -16.8981   18.8733 C   0  0  0  0  0  0
  -29.5932  -23.3165   21.0468 C   0  0  0  0  0  0
  -30.6579  -22.4876   21.1507 C   0  0  0  0  0  0
  -29.6524  -24.7266   20.6246 C   0  0  0  0  0  0
  -30.3985  -21.1000   21.5169 C   0  0  0  0  0  0
  -28.3281  -25.3555   20.1772 C   0  0  0  0  0  0
  -31.3715  -20.2877   21.0904 N   0  0  0  0  0  0
  -30.0473  -15.5194   20.8946 N   0  0  0  0  0  0
  -30.7029  -25.3802   20.5925 O   0  0  0  0  0  0
  -29.4071  -20.6894   22.1262 O   0  0  0  0  0  0
  -31.9212  -22.8797   20.8889 O   0  0  0  0  0  0
  -31.3563  -20.3409   18.3639 F   0  0  0  0  0  0
  -29.7537  -15.8609   18.1275 F   0  0  0  0  0  0
  -31.4585  -12.3301   19.1363 H   0  0  0  0  0  0
  -30.2742  -11.2656   19.8384 H   0  0  0  0  0  0
  -29.7207  -11.7530   17.4321 H   0  0  0  0  0  0
  -29.6810  -13.4617   17.7670 H   0  0  0  0  0  0
  -27.8092  -11.3145   18.8128 H   0  0  0  0  0  0
  -27.3695  -12.6521   17.7837 H   0  0  0  0  0  0
  -27.7004  -14.2592   19.5607 H   0  0  0  0  0  0
  -28.6601  -11.9959   21.3814 H   0  0  0  0  0  0
  -28.4845  -13.6625   21.8487 H   0  0  0  0  0  0
  -25.2729   -9.5719   22.4768 H   0  0  0  0  0  0
  -24.0022   -7.4626   22.7464 H   0  0  0  0  0  0
  -21.0834   -8.8737   19.8962 H   0  0  0  0  0  0
  -22.3648  -10.9652   19.6157 H   0  0  0  0  0  0
  -21.1980   -7.6143   23.9710 H   0  0  0  0  0  0
  -21.1497   -6.0526   25.9080 H   0  0  0  0  0  0
  -22.0601   -2.7617   23.2831 H   0  0  0  0  0  0
  -22.4086  -11.9907   22.4810 H   0  0  0  0  0  0
  -21.1099  -13.1281   22.2592 H   0  0  0  0  0  0
  -24.6590  -15.8427   20.5124 H   0  0  0  0  0  0
  -26.2808  -15.6271   20.0823 H   0  0  0  0  0  0
  -26.7100  -32.5566   23.1196 H   0  0  0  0  0  0
  -25.0029  -33.9783   25.0499 H   0  0  0  0  0  0
  -22.6829  -31.3053   21.4125 H   0  0  0  0  0  0
  -23.3749  -35.9655   23.3267 H   0  0  0  0  0  0
  -24.3597  -36.8968   22.2056 H   0  0  0  0  0  0
  -23.7231  -37.6525   23.6655 H   0  0  0  0  0  0
  -26.0337  -31.6107   20.5903 H   0  0  0  0  0  0
  -26.8126  -30.9002   21.9768 H   0  0  0  0  0  0
  -28.1012  -29.1448   21.1426 H   0  0  0  0  0  0
  -26.0623  -25.9814   19.0192 H   0  0  0  0  0  0
  -23.9829  -27.2891   19.0464 H   0  0  0  0  0  0
  -23.7110  -30.5942   19.4036 H   0  0  0  0  0  0
  -22.7317  -29.2355   19.8734 H   0  0  0  0  0  0
  -25.1249  -36.1980   25.0831 H   0  0  0  0  0  0
  -20.9930  -28.3191   24.1461 H   0  0  0  0  0  0
  -20.5659  -26.2246   23.3601 H   0  0  0  0  0  0
  -21.6620  -26.7427   22.1216 H   0  0  0  0  0  0
  -19.6885  -25.6297   21.1228 H   0  0  0  0  0  0
  -19.6664  -27.3203   20.6758 H   0  0  0  0  0  0
  -17.4186  -26.6671   21.4015 H   0  0  0  0  0  0
  -18.0294  -26.0046   22.9010 H   0  0  0  0  0  0
  -19.7924  -30.7251   24.2274 H   0  0  0  0  0  0
  -17.4992  -31.6240   24.5176 H   0  0  0  0  0  0
  -15.5329  -30.2954   23.7629 H   0  0  0  0  0  0
  -15.8658  -28.0794   22.7035 H   0  0  0  0  0  0
  -24.5876  -30.7060   25.7848 H   0  0  0  0  0  0
  -24.8940  -32.2846   26.4985 H   0  0  0  0  0  0
  -25.8086  -30.8837   27.0235 H   0  0  0  0  0  0
  -26.2767  -29.6830   24.1125 H   0  0  0  0  0  0
  -27.4012  -29.7221   25.4515 H   0  0  0  0  0  0
  -27.8619  -30.4347   23.9215 H   0  0  0  0  0  0
  -27.2687  -33.3587   26.2104 H   0  0  0  0  0  0
  -28.3827  -32.6866   25.0289 H   0  0  0  0  0  0
  -28.0742  -31.8396   26.5372 H   0  0  0  0  0  0
  -28.2541  -38.0163   24.7593 H   0  0  0  0  0  0
  -28.1156  -36.2699   24.6104 H   0  0  0  0  0  0
  -27.2348  -37.1258   25.8853 H   0  0  0  0  0  0
  -20.9324  -29.8751   21.6986 H   0  0  0  0  0  0
  -26.0169  -38.2876   24.1462 H   0  0  0  0  0  0
  -30.7842  -17.8272   22.1253 H   0  0  0  0  0  0
  -30.5188  -18.1647   17.1547 H   0  0  0  0  0  0
  -28.6013  -22.9402   21.2601 H   0  0  0  0  0  0
  -27.5496  -25.0703   20.8862 H   0  0  0  0  0  0
  -28.0606  -24.9507   19.2011 H   0  0  0  0  0  0
  -32.1124  -20.8369   20.6711 H   0  0  0  0  0  0
  -29.1137  -15.3658   21.2396 H   0  0  0  0  0  0
  -31.8886  -23.8110   20.6904 H   0  0  0  0  0  0
  1 25  1  0  0  0
  1 30  2  0  0  0
  1 83  1  0  0  0
  2  3  1  0  0  0
  2 25  1  0  0  0
  2 89  1  0  0  0
  2 90  1  0  0  0
  3  4  1  0  0  0
  3 91  1  0  0  0
  3 92  1  0  0  0
  4  5  1  0  0  0
  4 93  1  0  0  0
  4 94  1  0  0  0
  5  6  1  0  0  0
  5 26  1  0  0  0
  5 95  1  0  0  0
  6 25  1  0  0  0
  6 96  1  0  0  0
  6 97  1  0  0  0
  7  8  2  0  0  0
  7 26  1  0  0  0
  7 29  1  0  0  0
  8  9  1  0  0  0
  8 22  1  0  0  0
  9 10  1  0  0  0
  9 27  2  0  0  0
 10 11  2  0  0  0
 10 15  1  0  0  0
 11 12  1  0  0  0
 11 98  1  0  0  0
 12 13  2  0  0  0
 12 99  1  0  0  0
 13 14  1  0  0  0
 13 31  1  0  0  0
 14 15  2  0  0  0
 14100  1  0  0  0
 15101  1  0  0  0
 16 17  2  0  0  0
 16 21  1  0  0  0
 16 31  1  0  0  0
 17 18  1  0  0  0
 17102  1  0  0  0
 18 19  2  0  0  0
 18103  1  0  0  0
 19 20  1  0  0  0
 19 24  1  0  0  0
 20 21  2  0  0  0
 20104  1  0  0  0
 21 23  1  0  0  0
 22 28  1  0  0  0
 22 32  2  0  0  0
 26 27  1  0  0  0
 28105  1  0  0  0
 28106  1  0  0  0
 29107  1  0  0  0
 29108  1  0  0  0
 33 34  1  0  0  0
 33 66  1  0  0  0
 33 70  2  0  0  0
 34 36  1  0  0  0
 34 59  1  0  0  0
 34109  1  0  0  0
 35 44  2  0  0  0
 35 45  1  0  0  0
 35 68  1  0  0  0
 36 56  1  0  0  0
 36110  1  0  0  0
 37 39  1  0  0  0
 37 47  1  0  0  0
 37 66  1  0  0  0
 37111  1  0  0  0
 38 43  2  0  0  0
 38 46  1  0  0  0
 38 47  1  0  0  0
 39 64  1  0  0  0
 39 67  2  0  0  0
 40 52  1  0  0  0
 40 53  2  0  0  0
 40 58  1  0  0  0
 41112  1  0  0  0
 41113  1  0  0  0
 41114  1  0  0  0
 41 48  1  0  0  0
 42 43  1  0  0  0
 42 66  1  0  0  0
 42115  1  0  0  0
 42116  1  0  0  0
 43 44  1  0  0  0
 44117  1  0  0  0
 45 46  2  0  0  0
 45118  1  0  0  0
 46119  1  0  0  0
 47120  1  0  0  0
 47121  1  0  0  0
 48 56  1  0  0  0
 48 65  1  0  0  0
 48122  1  0  0  0
 49 50  1  0  0  0
 49 53  1  0  0  0
 49 64  1  0  0  0
 49123  1  0  0  0
 50 51  1  0  0  0
 50124  1  0  0  0
 50125  1  0  0  0
 51 52  1  0  0  0
 51126  1  0  0  0
 51127  1  0  0  0
 52128  1  0  0  0
 52129  1  0  0  0
 53 54  1  0  0  0
 54 55  2  0  0  0
 54130  1  0  0  0
 55 57  1  0  0  0
 55131  1  0  0  0
 56 69  2  0  0  0
 57 58  2  0  0  0
 57132  1  0  0  0
 58133  1  0  0  0
 59 60  1  0  0  0
 59 61  1  0  0  0
 59 62  1  0  0  0
 60134  1  0  0  0
 60135  1  0  0  0
 60136  1  0  0  0
 61137  1  0  0  0
 61138  1  0  0  0
 61139  1  0  0  0
 62140  1  0  0  0
 62141  1  0  0  0
 62142  1  0  0  0
 63 65  1  0  0  0
 63143  1  0  0  0
 63144  1  0  0  0
 63145  1  0  0  0
 64146  1  0  0  0
 65147  1  0  0  0
 68 81  1  0  0  0
 71 73  2  0  0  0
 71 74  1  0  0  0
 71148  1  0  0  0
 72 75  2  0  0  0
 72 76  1  0  0  0
 72149  1  0  0  0
 73 75  1  0  0  0
 73 82  1  0  0  0
 74 76  2  0  0  0
 74 83  1  0  0  0
 75 87  1  0  0  0
 76 88  1  0  0  0
 77 78  2  0  0  0
 77 79  1  0  0  0
 77150  1  0  0  0
 78 80  1  0  0  0
 78 86  1  0  0  0
 79 81  1  0  0  0
 79 84  2  0  0  0
 80 82  1  0  0  0
 80 85  2  0  0  0
 81151  1  0  0  0
 81152  1  0  0  0
 82153  1  0  0  0
 83154  1  0  0  0
 86155  1  0  0  0
M  ISO  4   1 100  68 101  81 101  83 100
M  END
> <chiral flag>
0

> <version>
0

> <s_m_source_file>
/data/baiqing/PycharmProjects/Reinvent-master-3.2/result/LINK_invent/BTK/process_docking_weight1_custom_product_contain_oxygen_bond_distance_aromatic_linkinvent_7_9_3/rearranged_h_0177.sdf

> <i_m_source_file_index>
97

> <r_mmod_Potential_Energy-OPLS-2005>
-145.427322387695

> <r_mmod_Stretch_Energy-OPLS-2005>
33.4580764770508

> <r_mmod_Bend_Energy-OPLS-2005>
94.8348770141602

> <r_mmod_Torsional_Energy-OPLS-2005>
293.465301513672

> <r_mmod_Improper_Torsional_Energy-OPLS-2005>
10.7528247833252

> <r_mmod_Van_der_Waal_Energy-OPLS-2005>
171.199890136719

> <r_mmod_Electrostatic_Energy-OPLS-2005>
-528.638366699219

> <r_mmod_Solvation_Energy-OPLS-2005>
-235.082168579102

> <b_mmod_Minimization_Converged-OPLS-2005>
0

> <r_mmod_RMS_Derivative-OPLS-2005>
2.48572564125061

$$$$
