0
                    3D
 Structure written by MMmdl.
169177  0  0  1  0            999 V2000
  -30.6261  -14.6077   20.5786 C   0  0  0  0  0  0
  -30.4618  -12.4013   19.4220 C   0  0  0  0  0  0
  -29.5122  -12.5463   18.2102 C   0  0  0  0  0  0
  -28.0247  -12.4117   18.6050 C   0  0  0  0  0  0
  -27.6656  -13.2092   19.8894 C   0  0  2  0  0  0
  -28.7199  -12.9104   20.9767 C   0  0  0  0  0  0
  -25.2547  -13.8076   20.5704 C   0  0  0  0  0  0
  -24.1823  -13.0401   20.9203 C   0  0  0  0  0  0
  -24.6379  -11.6843   20.8747 C   0  0  0  0  0  0
  -23.9050  -10.4255   21.0398 C   0  0  0  0  0  0
  -24.3589   -9.4185   21.9205 C   0  0  0  0  0  0
  -23.6276   -8.2198   22.0784 C   0  0  0  0  0  0
  -22.4266   -8.0239   21.3551 C   0  0  0  0  0  0
  -21.9883   -9.0226   20.4669 C   0  0  0  0  0  0
  -22.7213  -10.2098   20.3082 C   0  0  0  0  0  0
  -21.6818   -6.0685   22.5289 C   0  0  0  0  0  0
  -21.4005   -6.5594   23.8218 C   0  0  0  0  0  0
  -21.3694   -5.6763   24.9177 C   0  0  0  0  0  0
  -21.6034   -4.3027   24.7235 C   0  0  0  0  0  0
  -21.8827   -3.8115   23.4360 C   0  0  0  0  0  0
  -21.9187   -4.6918   22.3407 C   0  0  0  0  0  0
  -22.7806  -13.5168   21.1820 C   0  0  0  0  0  0
  -22.1656   -4.2095   21.0985 F   0  0  0  0  0  0
  -21.5649   -3.4523   25.7750 F   0  0  0  0  0  0
  -30.0261  -13.3644   20.4573 N   0  0  0  0  0  0
  -26.3047  -12.9292   20.3434 N   0  0  0  0  0  0
  -25.9315  -11.6441   20.5790 N   0  0  0  0  0  0
  -22.0452  -12.8268   22.0410 N   0  0  0  0  0  0
  -25.4030  -15.1852   20.4049 N   0  0  0  0  0  0
  -31.7389  -14.8206   20.0781 O   0  0  0  0  0  0
  -21.6644   -6.8853   21.4254 O   0  0  0  0  0  0
  -22.3584  -14.5546   20.6695 O   0  0  0  0  0  0
  -24.6213  -31.8650   23.1989 C   0  0  0  0  0  0
  -25.9095  -32.4766   23.8356 C   0  0  1  0  0  0
  -27.1997  -27.3070   20.1891 C   0  0  0  0  0  0
  -25.5948  -33.8572   24.2283 N   0  0  0  0  0  0
  -23.4159  -30.4936   21.5257 C   0  0  2  0  0  0
  -24.8757  -28.9534   20.0967 C   0  0  0  0  0  0
  -22.7483  -29.4685   22.4743 C   0  0  0  0  0  0
  -18.0314  -28.1389   22.8500 C   0  0  0  0  0  0
  -24.1496  -36.7289   23.2630 C   0  0  0  0  0  0
  -25.9527  -30.7964   21.3815 C   0  0  0  0  0  0
  -26.0281  -29.4221   20.7337 C   0  0  0  0  0  0
  -27.1929  -28.6020   20.7830 C   0  0  0  0  0  0
  -26.0299  -26.8993   19.5104 C   0  0  0  0  0  0
  -24.8783  -27.7011   19.4656 C   0  0  0  0  0  0
  -23.6467  -29.8358   20.1377 C   0  0  0  0  0  0
  -25.4139  -36.3059   24.0326 C   0  0  1  0  0  0
  -20.5935  -28.3747   23.1222 C   0  0  2  0  0  0
  -20.6791  -26.9442   22.5416 C   0  0  0  0  0  0
  -19.5770  -26.6381   21.5200 C   0  0  0  0  0  0
  -18.1949  -26.7927   22.1611 C   0  0  0  0  0  0
  -19.1579  -28.8878   23.2864 C   0  0  0  0  0  0
  -18.9489  -30.1466   23.8898 C   0  0  0  0  0  0
  -17.6484  -30.6582   24.0581 C   0  0  0  0  0  0
  -25.9076  -34.9452   23.5076 C   0  0  0  0  0  0
  -16.5382  -29.9114   23.6311 C   0  0  0  0  0  0
  -16.7303  -28.6539   23.0339 C   0  0  0  0  0  0
  -26.4509  -31.6549   25.0712 C   0  0  0  0  0  0
  -25.3733  -31.3719   26.1427 C   0  0  0  0  0  0
  -27.0355  -30.2975   24.6128 C   0  0  0  0  0  0
  -27.6070  -32.4283   25.7483 C   0  0  0  0  0  0
  -27.5589  -37.1805   24.8470 C   0  0  0  0  0  0
  -21.4188  -29.3103   22.3585 N   0  0  0  0  0  0
  -26.4292  -37.3788   23.9392 N   0  0  0  0  0  0
  -24.6781  -31.0756   22.0884 N   0  0  0  0  0  0
  -23.4250  -28.8215   23.2792 O   0  0  0  0  0  0
  -28.2821  -26.4232   20.3143 O   0  0  0  0  0  0
  -26.5634  -34.8910   22.4626 O   0  0  0  0  0  0
  -23.5414  -32.1436   23.7338 O   0  0  0  0  0  0
  -29.6977  -17.7961   19.7076 C   0  0  0  0  0  0
  -29.6668  -19.1936   19.4639 C   0  0  0  0  0  0
  -30.5139  -19.5954   21.6842 C   0  0  0  0  0  0
  -30.1233  -17.2499   20.9479 C   0  0  0  0  0  0
  -30.0473  -20.1261   20.4550 C   0  0  0  0  0  0
  -30.5783  -18.1873   21.9326 C   0  0  0  0  0  0
  -29.8410  -15.7863   21.2821 C   0  0  0  0  0  0
  -31.7705  -18.6917   24.2105 C   0  0  0  0  0  0
  -26.8304  -21.4244   19.1980 C   0  0  0  0  0  0
  -29.1537  -23.5568   22.5254 C   0  0  0  0  0  0
  -30.1087  -21.6604   20.1779 C   0  0  0  0  0  0
  -31.1221  -17.6629   23.2696 C   0  0  0  0  0  0
  -27.4910  -21.8461   20.5153 C   0  0  0  0  0  0
  -27.9113  -25.0669   20.7796 C   0  0  0  0  0  0
  -29.0110  -23.9458   21.0309 C   0  0  2  0  0  0
  -28.8267  -22.5951   20.2294 C   0  0  1  0  0  0
  -28.9485  -15.6064   22.1652 N   0  0  0  0  0  0
  -31.4918  -12.5702   19.1072 H   0  0  0  0  0  0
  -30.4471  -11.3796   19.8055 H   0  0  0  0  0  0
  -29.7585  -11.8147   17.4430 H   0  0  0  0  0  0
  -29.6716  -13.5253   17.7552 H   0  0  0  0  0  0
  -27.8099  -11.3513   18.7608 H   0  0  0  0  0  0
  -27.3819  -12.7304   17.7802 H   0  0  0  0  0  0
  -27.7124  -14.2692   19.6430 H   0  0  0  0  0  0
  -28.7495  -11.8317   21.1494 H   0  0  0  0  0  0
  -28.4507  -13.2915   21.9578 H   0  0  0  0  0  0
  -25.2694   -9.5641   22.4817 H   0  0  0  0  0  0
  -23.9950   -7.4582   22.7497 H   0  0  0  0  0  0
  -21.0779   -8.8708   19.9006 H   0  0  0  0  0  0
  -22.3624  -10.9616   19.6213 H   0  0  0  0  0  0
  -21.2020   -7.6093   23.9700 H   0  0  0  0  0  0
  -21.1527   -6.0491   25.9074 H   0  0  0  0  0  0
  -22.0603   -2.7558   23.2864 H   0  0  0  0  0  0
  -22.4017  -11.9982   22.4958 H   0  0  0  0  0  0
  -21.1070  -13.1372   22.2531 H   0  0  0  0  0  0
  -24.6150  -15.8094   20.5391 H   0  0  0  0  0  0
  -26.2538  -15.6628   20.1400 H   0  0  0  0  0  0
  -26.7156  -32.5525   23.1130 H   0  0  0  0  0  0
  -25.0174  -33.9711   25.0479 H   0  0  0  0  0  0
  -22.7035  -31.3102   21.3770 H   0  0  0  0  0  0
  -23.3735  -35.9624   23.3313 H   0  0  0  0  0  0
  -24.3599  -36.8895   22.2029 H   0  0  0  0  0  0
  -23.7271  -37.6512   23.6655 H   0  0  0  0  0  0
  -26.0850  -31.5386   20.5953 H   0  0  0  0  0  0
  -26.8343  -30.8586   22.0081 H   0  0  0  0  0  0
  -28.0458  -28.9235   21.3564 H   0  0  0  0  0  0
  -25.9598  -25.9357   19.0220 H   0  0  0  0  0  0
  -23.9831  -27.3440   18.9670 H   0  0  0  0  0  0
  -23.7764  -30.6083   19.3767 H   0  0  0  0  0  0
  -22.7699  -29.2633   19.8286 H   0  0  0  0  0  0
  -25.1293  -36.1883   25.0822 H   0  0  0  0  0  0
  -21.0058  -28.3322   24.1316 H   0  0  0  0  0  0
  -20.5604  -26.2358   23.3641 H   0  0  0  0  0  0
  -21.6665  -26.7379   22.1244 H   0  0  0  0  0  0
  -19.6898  -25.6274   21.1255 H   0  0  0  0  0  0
  -19.6676  -27.3170   20.6705 H   0  0  0  0  0  0
  -17.4204  -26.6699   21.4013 H   0  0  0  0  0  0
  -18.0336  -26.0069   22.9004 H   0  0  0  0  0  0
  -19.7984  -30.7292   24.2229 H   0  0  0  0  0  0
  -17.5061  -31.6231   24.5217 H   0  0  0  0  0  0
  -15.5410  -30.3004   23.7604 H   0  0  0  0  0  0
  -15.8714  -28.0840   22.7005 H   0  0  0  0  0  0
  -24.5935  -30.7021   25.7783 H   0  0  0  0  0  0
  -24.8915  -32.2912   26.4761 H   0  0  0  0  0  0
  -25.8081  -30.8994   27.0236 H   0  0  0  0  0  0
  -26.2941  -29.6724   24.1137 H   0  0  0  0  0  0
  -27.4058  -29.7223   25.4617 H   0  0  0  0  0  0
  -27.8801  -30.4275   23.9358 H   0  0  0  0  0  0
  -27.2669  -33.3571   26.2076 H   0  0  0  0  0  0
  -28.3899  -32.6848   25.0327 H   0  0  0  0  0  0
  -28.0707  -31.8386   26.5393 H   0  0  0  0  0  0
  -28.2583  -38.0120   24.7522 H   0  0  0  0  0  0
  -28.1093  -36.2651   24.6259 H   0  0  0  0  0  0
  -27.2323  -37.1429   25.8879 H   0  0  0  0  0  0
  -20.9274  -29.8960   21.6959 H   0  0  0  0  0  0
  -26.0150  -38.2832   24.1411 H   0  0  0  0  0  0
  -29.3519  -17.1373   18.9257 H   0  0  0  0  0  0
  -29.3310  -19.5560   18.5038 H   0  0  0  0  0  0
  -30.8491  -20.2997   22.4342 H   0  0  0  0  0  0
  -32.6484  -19.1663   23.7668 H   0  0  0  0  0  0
  -32.0968  -18.2067   25.1316 H   0  0  0  0  0  0
  -31.0676  -19.4714   24.5041 H   0  0  0  0  0  0
  -26.5664  -22.3020   18.6067 H   0  0  0  0  0  0
  -25.9262  -20.8280   19.3277 H   0  0  0  0  0  0
  -27.5228  -20.8428   18.5994 H   0  0  0  0  0  0
  -29.4482  -24.3726   23.1791 H   0  0  0  0  0  0
  -29.9056  -22.7789   22.6868 H   0  0  0  0  0  0
  -28.2140  -23.1484   22.9035 H   0  0  0  0  0  0
  -30.5500  -21.7996   19.1930 H   0  0  0  0  0  0
  -30.8727  -22.0753   20.8324 H   0  0  0  0  0  0
  -31.8560  -16.8876   23.0485 H   0  0  0  0  0  0
  -30.3169  -17.1744   23.8144 H   0  0  0  0  0  0
  -27.6334  -20.9853   21.1720 H   0  0  0  0  0  0
  -26.7908  -22.4888   21.0509 H   0  0  0  0  0  0
  -27.3469  -25.2321   21.7001 H   0  0  0  0  0  0
  -27.2004  -24.6043   20.1030 H   0  0  0  0  0  0
  -29.9567  -24.3567   20.6801 H   0  0  0  0  0  0
  -28.7222  -22.9561   19.2073 H   0  0  0  0  0  0
  -28.5792  -16.4934   22.4854 H   0  0  0  0  0  0
  1 25  1  0  0  0
  1 30  2  0  0  0
  1 77  1  0  0  0
  2  3  1  0  0  0
  2 25  1  0  0  0
  2 88  1  0  0  0
  2 89  1  0  0  0
  3  4  1  0  0  0
  3 90  1  0  0  0
  3 91  1  0  0  0
  4  5  1  0  0  0
  4 92  1  0  0  0
  4 93  1  0  0  0
  5  6  1  0  0  0
  5 26  1  0  0  0
  5 94  1  0  0  0
  6 25  1  0  0  0
  6 95  1  0  0  0
  6 96  1  0  0  0
  7  8  2  0  0  0
  7 26  1  0  0  0
  7 29  1  0  0  0
  8  9  1  0  0  0
  8 22  1  0  0  0
  9 10  1  0  0  0
  9 27  2  0  0  0
 10 11  2  0  0  0
 10 15  1  0  0  0
 11 12  1  0  0  0
 11 97  1  0  0  0
 12 13  2  0  0  0
 12 98  1  0  0  0
 13 14  1  0  0  0
 13 31  1  0  0  0
 14 15  2  0  0  0
 14 99  1  0  0  0
 15100  1  0  0  0
 16 17  2  0  0  0
 16 21  1  0  0  0
 16 31  1  0  0  0
 17 18  1  0  0  0
 17101  1  0  0  0
 18 19  2  0  0  0
 18102  1  0  0  0
 19 20  1  0  0  0
 19 24  1  0  0  0
 20 21  2  0  0  0
 20103  1  0  0  0
 21 23  1  0  0  0
 22 28  1  0  0  0
 22 32  2  0  0  0
 26 27  1  0  0  0
 28104  1  0  0  0
 28105  1  0  0  0
 29106  1  0  0  0
 29107  1  0  0  0
 33 34  1  0  0  0
 33 66  1  0  0  0
 33 70  2  0  0  0
 34 36  1  0  0  0
 34 59  1  0  0  0
 34108  1  0  0  0
 35 44  2  0  0  0
 35 45  1  0  0  0
 35 68  1  0  0  0
 36 56  1  0  0  0
 36109  1  0  0  0
 37 39  1  0  0  0
 37 47  1  0  0  0
 37 66  1  0  0  0
 37110  1  0  0  0
 38 43  2  0  0  0
 38 46  1  0  0  0
 38 47  1  0  0  0
 39 64  1  0  0  0
 39 67  2  0  0  0
 40 52  1  0  0  0
 40 53  2  0  0  0
 40 58  1  0  0  0
 41111  1  0  0  0
 41112  1  0  0  0
 41113  1  0  0  0
 41 48  1  0  0  0
 42 43  1  0  0  0
 42 66  1  0  0  0
 42114  1  0  0  0
 42115  1  0  0  0
 43 44  1  0  0  0
 44116  1  0  0  0
 45 46  2  0  0  0
 45117  1  0  0  0
 46118  1  0  0  0
 47119  1  0  0  0
 47120  1  0  0  0
 48 56  1  0  0  0
 48 65  1  0  0  0
 48121  1  0  0  0
 49 50  1  0  0  0
 49 53  1  0  0  0
 49 64  1  0  0  0
 49122  1  0  0  0
 50 51  1  0  0  0
 50123  1  0  0  0
 50124  1  0  0  0
 51 52  1  0  0  0
 51125  1  0  0  0
 51126  1  0  0  0
 52127  1  0  0  0
 52128  1  0  0  0
 53 54  1  0  0  0
 54 55  2  0  0  0
 54129  1  0  0  0
 55 57  1  0  0  0
 55130  1  0  0  0
 56 69  2  0  0  0
 57 58  2  0  0  0
 57131  1  0  0  0
 58132  1  0  0  0
 59 60  1  0  0  0
 59 61  1  0  0  0
 59 62  1  0  0  0
 60133  1  0  0  0
 60134  1  0  0  0
 60135  1  0  0  0
 61136  1  0  0  0
 61137  1  0  0  0
 61138  1  0  0  0
 62139  1  0  0  0
 62140  1  0  0  0
 62141  1  0  0  0
 63 65  1  0  0  0
 63142  1  0  0  0
 63143  1  0  0  0
 63144  1  0  0  0
 64145  1  0  0  0
 65146  1  0  0  0
 68 84  1  0  0  0
 71 72  2  0  0  0
 71 74  1  0  0  0
 71147  1  0  0  0
 72 75  1  0  0  0
 72148  1  0  0  0
 73 75  2  0  0  0
 73 76  1  0  0  0
 73149  1  0  0  0
 74 76  2  0  0  0
 74 77  1  0  0  0
 75 81  1  0  0  0
 76 82  1  0  0  0
 77 87  2  0  0  0
 78 82  1  0  0  0
 78150  1  0  0  0
 78151  1  0  0  0
 78152  1  0  0  0
 79 83  1  0  0  0
 79153  1  0  0  0
 79154  1  0  0  0
 79155  1  0  0  0
 80156  1  0  0  0
 80157  1  0  0  0
 80158  1  0  0  0
 80 85  1  0  0  0
 81159  1  0  0  0
 81160  1  0  0  0
 81 86  1  0  0  0
 82161  1  0  0  0
 82162  1  0  0  0
 83 86  1  0  0  0
 83163  1  0  0  0
 83164  1  0  0  0
 84 85  1  0  0  0
 84165  1  0  0  0
 84166  1  0  0  0
 85 86  1  0  0  0
 85167  1  0  0  0
 86168  1  0  0  0
 87169  1  0  0  0
M  ISO  4   1 100  68 101  77 100  84 101
M  END
> <chiral flag>
0

> <version>
0

> <s_m_source_file>
/data/baiqing/PycharmProjects/Reinvent-master-3.2/result/LINK_invent/BTK/process_docking_weight1_custom_product_contain_oxygen_bond_distance_aromatic_linkinvent_7_9_3/rearranged_h_0135.sdf

> <i_m_source_file_index>
1

> <r_mmod_Potential_Energy-OPLS-2005>
337.636138916016

> <r_mmod_Stretch_Energy-OPLS-2005>
86.3617630004883

> <r_mmod_Bend_Energy-OPLS-2005>
162.028823852539

> <r_mmod_Torsional_Energy-OPLS-2005>
253.49186706543

> <r_mmod_Improper_Torsional_Energy-OPLS-2005>
4.78008556365967

> <r_mmod_Van_der_Waal_Energy-OPLS-2005>
163.399627685547

> <r_mmod_Electrostatic_Energy-OPLS-2005>
-211.041015625

> <r_mmod_Solvation_Energy-OPLS-2005>
-176.053695678711

> <b_mmod_Minimization_Converged-OPLS-2005>
0

> <r_mmod_RMS_Derivative-OPLS-2005>
10.9247283935547

$$$$
1
                    3D
 Structure written by MMmdl.
169177  0  0  1  0            999 V2000
  -30.6259  -14.5664   20.5309 C   0  0  0  0  0  0
  -30.4358  -12.3582   19.4168 C   0  0  0  0  0  0
  -29.5040  -12.5141   18.1959 C   0  0  0  0  0  0
  -28.0214  -12.3573   18.6089 C   0  0  0  0  0  0
  -27.6514  -13.2007   19.8563 C   0  0  2  0  0  0
  -28.6996  -13.0226   20.9785 C   0  0  0  0  0  0
  -25.2584  -13.8108   20.5666 C   0  0  0  0  0  0
  -24.1857  -13.0422   20.9168 C   0  0  0  0  0  0
  -24.6389  -11.6867   20.8705 C   0  0  0  0  0  0
  -23.9046  -10.4292   21.0424 C   0  0  0  0  0  0
  -24.3602   -9.4206   21.9196 C   0  0  0  0  0  0
  -23.6292   -8.2233   22.0746 C   0  0  0  0  0  0
  -22.4251   -8.0285   21.3558 C   0  0  0  0  0  0
  -21.9900   -9.0255   20.4645 C   0  0  0  0  0  0
  -22.7213  -10.2141   20.3079 C   0  0  0  0  0  0
  -21.6857   -6.0736   22.5284 C   0  0  0  0  0  0
  -21.4012   -6.5648   23.8212 C   0  0  0  0  0  0
  -21.3655   -5.6791   24.9182 C   0  0  0  0  0  0
  -21.6053   -4.3057   24.7231 C   0  0  0  0  0  0
  -21.8802   -3.8151   23.4355 C   0  0  0  0  0  0
  -21.9190   -4.6969   22.3412 C   0  0  0  0  0  0
  -22.7881  -13.5239   21.1842 C   0  0  0  0  0  0
  -22.1655   -4.2155   21.0990 F   0  0  0  0  0  0
  -21.5632   -3.4532   25.7752 F   0  0  0  0  0  0
  -30.0088  -13.3608   20.4037 N   0  0  0  0  0  0
  -26.2968  -12.9242   20.3224 N   0  0  0  0  0  0
  -25.9311  -11.6417   20.5715 N   0  0  0  0  0  0
  -22.0521  -12.8273   22.0419 N   0  0  0  0  0  0
  -25.4346  -15.1829   20.4031 N   0  0  0  0  0  0
  -31.8125  -14.7419   20.2462 O   0  0  0  0  0  0
  -21.6625   -6.8872   21.4239 O   0  0  0  0  0  0
  -22.3607  -14.5574   20.6707 O   0  0  0  0  0  0
  -24.6120  -31.8703   23.2045 C   0  0  0  0  0  0
  -25.9037  -32.4813   23.8350 C   0  0  1  0  0  0
  -27.2081  -27.3848   20.1126 C   0  0  0  0  0  0
  -25.5890  -33.8599   24.2303 N   0  0  0  0  0  0
  -23.4022  -30.4951   21.5415 C   0  0  2  0  0  0
  -24.8513  -28.9540   20.1044 C   0  0  0  0  0  0
  -22.7445  -29.4697   22.4970 C   0  0  0  0  0  0
  -18.0316  -28.1376   22.8430 C   0  0  0  0  0  0
  -24.1486  -36.7298   23.2614 C   0  0  0  0  0  0
  -25.9351  -30.8126   21.3737 C   0  0  0  0  0  0
  -26.0095  -29.4392   20.7320 C   0  0  0  0  0  0
  -27.1895  -28.6517   20.7545 C   0  0  0  0  0  0
  -26.0730  -26.9795   19.3932 C   0  0  0  0  0  0
  -24.8826  -27.7233   19.4264 C   0  0  0  0  0  0
  -23.6096  -29.8217   20.1576 C   0  0  0  0  0  0
  -25.4107  -36.3100   24.0324 C   0  0  1  0  0  0
  -20.5878  -28.3718   23.1317 C   0  0  2  0  0  0
  -20.6852  -26.9425   22.5505 C   0  0  0  0  0  0
  -19.5928  -26.6344   21.5237 C   0  0  0  0  0  0
  -18.1993  -26.7959   22.1451 C   0  0  0  0  0  0
  -19.1542  -28.8854   23.2839 C   0  0  0  0  0  0
  -18.9429  -30.1447   23.8896 C   0  0  0  0  0  0
  -17.6448  -30.6559   24.0544 C   0  0  0  0  0  0
  -25.9037  -34.9477   23.5127 C   0  0  0  0  0  0
  -16.5339  -29.9036   23.6313 C   0  0  0  0  0  0
  -16.7296  -28.6472   23.0303 C   0  0  0  0  0  0
  -26.4448  -31.6590   25.0672 C   0  0  0  0  0  0
  -25.3713  -31.3720   26.1432 C   0  0  0  0  0  0
  -27.0306  -30.3023   24.6100 C   0  0  0  0  0  0
  -27.6055  -32.4290   25.7394 C   0  0  0  0  0  0
  -27.5591  -37.1795   24.8468 C   0  0  0  0  0  0
  -21.4171  -29.3060   22.3714 N   0  0  0  0  0  0
  -26.4308  -37.3780   23.9410 N   0  0  0  0  0  0
  -24.6665  -31.0797   22.0946 N   0  0  0  0  0  0
  -23.4208  -28.8312   23.3086 O   0  0  0  0  0  0
  -28.2945  -26.5320   20.1489 O   0  0  0  0  0  0
  -26.5608  -34.8937   22.4676 O   0  0  0  0  0  0
  -23.5304  -32.1482   23.7449 O   0  0  0  0  0  0
  -30.3667  -16.8327   22.6742 C   0  0  0  0  0  0
  -29.1985  -18.0233   20.9073 C   0  0  0  0  0  0
  -30.1897  -17.9397   23.5289 C   0  0  0  0  0  0
  -29.4771  -19.0908   23.0890 C   0  0  0  0  0  0
  -29.8387  -16.8357   21.3681 C   0  0  0  0  0  0
  -29.0372  -19.1721   21.7378 C   0  0  0  0  0  0
  -30.7058  -17.8177   24.9541 C   0  0  0  0  0  0
  -27.6820  -19.8683   24.7078 C   0  0  0  0  0  0
  -28.3199  -23.7237   19.1606 C   0  0  0  0  0  0
  -26.1910  -23.9064   20.4644 C   0  0  0  0  0  0
  -29.0656  -20.1583   24.1078 C   0  0  0  0  0  0
  -28.2127  -22.8057   21.5847 C   0  0  0  0  0  0
  -29.0395  -21.5370   21.1270 C   0  0  0  0  0  0
  -28.2016  -25.4001   21.0772 C   0  0  0  0  0  0
  -27.7452  -23.9585   20.5707 C   0  0  0  0  0  0
  -29.7582  -15.6111   20.6209 N   0  0  0  0  0  0
  -28.3317  -20.2783   21.2663 O   0  0  0  0  0  0
  -31.4782  -12.4900   19.1195 H   0  0  0  0  0  0
  -30.3631  -11.3566   19.8332 H   0  0  0  0  0  0
  -29.7615  -11.7846   17.4223 H   0  0  0  0  0  0
  -29.6514  -13.4973   17.7476 H   0  0  0  0  0  0
  -27.8391  -11.2997   18.8016 H   0  0  0  0  0  0
  -27.3751  -12.6270   17.7715 H   0  0  0  0  0  0
  -27.6719  -14.2397   19.5281 H   0  0  0  0  0  0
  -28.7077  -11.9961   21.3529 H   0  0  0  0  0  0
  -28.4543  -13.6533   21.8367 H   0  0  0  0  0  0
  -25.2762   -9.5677   22.4754 H   0  0  0  0  0  0
  -24.0001   -7.4621   22.7484 H   0  0  0  0  0  0
  -21.0813   -8.8786   19.8976 H   0  0  0  0  0  0
  -22.3682  -10.9681   19.6192 H   0  0  0  0  0  0
  -21.2002   -7.6151   23.9725 H   0  0  0  0  0  0
  -21.1493   -6.0528   25.9082 H   0  0  0  0  0  0
  -22.0590   -2.7617   23.2858 H   0  0  0  0  0  0
  -22.4090  -11.9899   22.4764 H   0  0  0  0  0  0
  -21.1192  -13.1364   22.2666 H   0  0  0  0  0  0
  -24.6678  -15.8400   20.5069 H   0  0  0  0  0  0
  -26.2856  -15.6238   20.0770 H   0  0  0  0  0  0
  -26.7115  -32.5527   23.1134 H   0  0  0  0  0  0
  -25.0053  -33.9735   25.0478 H   0  0  0  0  0  0
  -22.6841  -31.3033   21.4021 H   0  0  0  0  0  0
  -23.3753  -35.9629   23.3303 H   0  0  0  0  0  0
  -24.3600  -36.8881   22.2018 H   0  0  0  0  0  0
  -23.7246  -37.6509   23.6612 H   0  0  0  0  0  0
  -26.0462  -31.5712   20.5955 H   0  0  0  0  0  0
  -26.8196  -30.8709   21.9965 H   0  0  0  0  0  0
  -28.0727  -28.9917   21.2765 H   0  0  0  0  0  0
  -26.1150  -26.0681   18.8149 H   0  0  0  0  0  0
  -24.0174  -27.3641   18.8905 H   0  0  0  0  0  0
  -23.6999  -30.5849   19.3841 H   0  0  0  0  0  0
  -22.7359  -29.2281   19.8717 H   0  0  0  0  0  0
  -25.1293  -36.1937   25.0815 H   0  0  0  0  0  0
  -20.9917  -28.3349   24.1462 H   0  0  0  0  0  0
  -20.5685  -26.2374   23.3757 H   0  0  0  0  0  0
  -21.6792  -26.7459   22.1424 H   0  0  0  0  0  0
  -19.7101  -25.6244   21.1266 H   0  0  0  0  0  0
  -19.6973  -27.3127   20.6747 H   0  0  0  0  0  0
  -17.4420  -26.6879   21.3655 H   0  0  0  0  0  0
  -18.0157  -26.0036   22.8700 H   0  0  0  0  0  0
  -19.7904  -30.7271   24.2261 H   0  0  0  0  0  0
  -17.4957  -31.6227   24.5166 H   0  0  0  0  0  0
  -15.5332  -30.2922   23.7625 H   0  0  0  0  0  0
  -15.8702  -28.0791   22.7019 H   0  0  0  0  0  0
  -24.5891  -30.7056   25.7787 H   0  0  0  0  0  0
  -24.8887  -32.2874   26.4830 H   0  0  0  0  0  0
  -25.8028  -30.8914   27.0228 H   0  0  0  0  0  0
  -26.2856  -29.6729   24.1197 H   0  0  0  0  0  0
  -27.4129  -29.7290   25.4572 H   0  0  0  0  0  0
  -27.8676  -30.4350   23.9242 H   0  0  0  0  0  0
  -27.2714  -33.3587   26.2026 H   0  0  0  0  0  0
  -28.3785  -32.6863   25.0133 H   0  0  0  0  0  0
  -28.0835  -31.8380   26.5232 H   0  0  0  0  0  0
  -28.2631  -38.0067   24.7517 H   0  0  0  0  0  0
  -28.1059  -36.2607   24.6298 H   0  0  0  0  0  0
  -27.2325  -37.1474   25.8875 H   0  0  0  0  0  0
  -20.9410  -29.8662   21.6811 H   0  0  0  0  0  0
  -26.0194  -38.2861   24.1395 H   0  0  0  0  0  0
  -30.8380  -15.9391   23.0555 H   0  0  0  0  0  0
  -28.7810  -18.0425   19.9121 H   0  0  0  0  0  0
  -31.2934  -16.9077   25.0925 H   0  0  0  0  0  0
  -29.8750  -17.7971   25.6637 H   0  0  0  0  0  0
  -31.3606  -18.6529   25.2049 H   0  0  0  0  0  0
  -27.4200  -20.5838   25.4884 H   0  0  0  0  0  0
  -27.6473  -18.8731   25.1469 H   0  0  0  0  0  0
  -26.9047  -19.9231   23.9476 H   0  0  0  0  0  0
  -28.0128  -22.7466   18.7839 H   0  0  0  0  0  0
  -29.4079  -23.7564   19.1489 H   0  0  0  0  0  0
  -27.9544  -24.4657   18.4492 H   0  0  0  0  0  0
  -25.7130  -23.1994   21.1404 H   0  0  0  0  0  0
  -25.8537  -23.6431   19.4561 H   0  0  0  0  0  0
  -25.7460  -24.8648   20.7209 H   0  0  0  0  0  0
  -29.0305  -21.1481   23.6711 H   0  0  0  0  0  0
  -29.8067  -20.2448   24.8980 H   0  0  0  0  0  0
  -28.7890  -23.2726   22.3827 H   0  0  0  0  0  0
  -27.3555  -22.4340   22.1504 H   0  0  0  0  0  0
  -29.9737  -21.5111   21.6934 H   0  0  0  0  0  0
  -29.3826  -21.6031   20.1014 H   0  0  0  0  0  0
  -27.5891  -25.6898   21.9360 H   0  0  0  0  0  0
  -29.2105  -25.3164   21.4911 H   0  0  0  0  0  0
  -28.8159  -15.3636   20.3673 H   0  0  0  0  0  0
  1 25  1  0  0  0
  1 30  2  0  0  0
  1 86  1  0  0  0
  2  3  1  0  0  0
  2 25  1  0  0  0
  2 88  1  0  0  0
  2 89  1  0  0  0
  3  4  1  0  0  0
  3 90  1  0  0  0
  3 91  1  0  0  0
  4  5  1  0  0  0
  4 92  1  0  0  0
  4 93  1  0  0  0
  5  6  1  0  0  0
  5 26  1  0  0  0
  5 94  1  0  0  0
  6 25  1  0  0  0
  6 95  1  0  0  0
  6 96  1  0  0  0
  7  8  2  0  0  0
  7 26  1  0  0  0
  7 29  1  0  0  0
  8  9  1  0  0  0
  8 22  1  0  0  0
  9 10  1  0  0  0
  9 27  2  0  0  0
 10 11  2  0  0  0
 10 15  1  0  0  0
 11 12  1  0  0  0
 11 97  1  0  0  0
 12 13  2  0  0  0
 12 98  1  0  0  0
 13 14  1  0  0  0
 13 31  1  0  0  0
 14 15  2  0  0  0
 14 99  1  0  0  0
 15100  1  0  0  0
 16 17  2  0  0  0
 16 21  1  0  0  0
 16 31  1  0  0  0
 17 18  1  0  0  0
 17101  1  0  0  0
 18 19  2  0  0  0
 18102  1  0  0  0
 19 20  1  0  0  0
 19 24  1  0  0  0
 20 21  2  0  0  0
 20103  1  0  0  0
 21 23  1  0  0  0
 22 28  1  0  0  0
 22 32  2  0  0  0
 26 27  1  0  0  0
 28104  1  0  0  0
 28105  1  0  0  0
 29106  1  0  0  0
 29107  1  0  0  0
 33 34  1  0  0  0
 33 66  1  0  0  0
 33 70  2  0  0  0
 34 36  1  0  0  0
 34 59  1  0  0  0
 34108  1  0  0  0
 35 44  2  0  0  0
 35 45  1  0  0  0
 35 68  1  0  0  0
 36 56  1  0  0  0
 36109  1  0  0  0
 37 39  1  0  0  0
 37 47  1  0  0  0
 37 66  1  0  0  0
 37110  1  0  0  0
 38 43  2  0  0  0
 38 46  1  0  0  0
 38 47  1  0  0  0
 39 64  1  0  0  0
 39 67  2  0  0  0
 40 52  1  0  0  0
 40 53  2  0  0  0
 40 58  1  0  0  0
 41111  1  0  0  0
 41112  1  0  0  0
 41113  1  0  0  0
 41 48  1  0  0  0
 42 43  1  0  0  0
 42 66  1  0  0  0
 42114  1  0  0  0
 42115  1  0  0  0
 43 44  1  0  0  0
 44116  1  0  0  0
 45 46  2  0  0  0
 45117  1  0  0  0
 46118  1  0  0  0
 47119  1  0  0  0
 47120  1  0  0  0
 48 56  1  0  0  0
 48 65  1  0  0  0
 48121  1  0  0  0
 49 50  1  0  0  0
 49 53  1  0  0  0
 49 64  1  0  0  0
 49122  1  0  0  0
 50 51  1  0  0  0
 50123  1  0  0  0
 50124  1  0  0  0
 51 52  1  0  0  0
 51125  1  0  0  0
 51126  1  0  0  0
 52127  1  0  0  0
 52128  1  0  0  0
 53 54  1  0  0  0
 54 55  2  0  0  0
 54129  1  0  0  0
 55 57  1  0  0  0
 55130  1  0  0  0
 56 69  2  0  0  0
 57 58  2  0  0  0
 57131  1  0  0  0
 58132  1  0  0  0
 59 60  1  0  0  0
 59 61  1  0  0  0
 59 62  1  0  0  0
 60133  1  0  0  0
 60134  1  0  0  0
 60135  1  0  0  0
 61136  1  0  0  0
 61137  1  0  0  0
 61138  1  0  0  0
 62139  1  0  0  0
 62140  1  0  0  0
 62141  1  0  0  0
 63 65  1  0  0  0
 63142  1  0  0  0
 63143  1  0  0  0
 63144  1  0  0  0
 64145  1  0  0  0
 65146  1  0  0  0
 68 84  1  0  0  0
 71 73  2  0  0  0
 71 75  1  0  0  0
 71147  1  0  0  0
 72 75  2  0  0  0
 72 76  1  0  0  0
 72148  1  0  0  0
 73 74  1  0  0  0
 73 77  1  0  0  0
 74 76  2  0  0  0
 74 81  1  0  0  0
 75 86  1  0  0  0
 76 87  1  0  0  0
 77149  1  0  0  0
 77150  1  0  0  0
 77151  1  0  0  0
 78 81  1  0  0  0
 78152  1  0  0  0
 78153  1  0  0  0
 78154  1  0  0  0
 79155  1  0  0  0
 79156  1  0  0  0
 79157  1  0  0  0
 79 85  1  0  0  0
 80 85  1  0  0  0
 80158  1  0  0  0
 80159  1  0  0  0
 80160  1  0  0  0
 81161  1  0  0  0
 81162  1  0  0  0
 82 83  1  0  0  0
 82 85  1  0  0  0
 82163  1  0  0  0
 82164  1  0  0  0
 83 87  1  0  0  0
 83165  1  0  0  0
 83166  1  0  0  0
 84 85  1  0  0  0
 84167  1  0  0  0
 84168  1  0  0  0
 86169  1  0  0  0
M  ISO  4   1 100  68 101  84 101  86 100
M  END
> <chiral flag>
0

> <version>
0

> <s_m_source_file>
/data/baiqing/PycharmProjects/Reinvent-master-3.2/result/LINK_invent/BTK/process_docking_weight1_custom_product_contain_oxygen_bond_distance_aromatic_linkinvent_7_9_3/rearranged_h_0135.sdf

> <i_m_source_file_index>
2

> <r_mmod_Potential_Energy-OPLS-2005>
189.15022277832

> <r_mmod_Stretch_Energy-OPLS-2005>
63.5972099304199

> <r_mmod_Bend_Energy-OPLS-2005>
133.182556152344

> <r_mmod_Torsional_Energy-OPLS-2005>
350.4326171875

> <r_mmod_Improper_Torsional_Energy-OPLS-2005>
13.257363319397

> <r_mmod_Van_der_Waal_Energy-OPLS-2005>
156.829406738281

> <r_mmod_Electrostatic_Energy-OPLS-2005>
-366.513824462891

> <r_mmod_Solvation_Energy-OPLS-2005>
-198.26643371582

> <b_mmod_Minimization_Converged-OPLS-2005>
0

> <r_mmod_RMS_Derivative-OPLS-2005>
7.13508367538452

$$$$
2
                    3D
 Structure written by MMmdl.
160169  0  0  1  0            999 V2000
  -30.7597  -14.4029   20.5926 C   0  0  0  0  0  0
  -30.4082  -12.2757   19.4124 C   0  0  0  0  0  0
  -29.4870  -12.5044   18.1998 C   0  0  0  0  0  0
  -28.0089  -12.3710   18.6150 C   0  0  0  0  0  0
  -27.6638  -13.2069   19.8759 C   0  0  2  0  0  0
  -28.7055  -12.9855   20.9971 C   0  0  0  0  0  0
  -25.2604  -13.8169   20.5707 C   0  0  0  0  0  0
  -24.1839  -13.0435   20.9155 C   0  0  0  0  0  0
  -24.6390  -11.6903   20.8708 C   0  0  0  0  0  0
  -23.9055  -10.4286   21.0372 C   0  0  0  0  0  0
  -24.3611   -9.4210   21.9151 C   0  0  0  0  0  0
  -23.6288   -8.2245   22.0742 C   0  0  0  0  0  0
  -22.4260   -8.0287   21.3534 C   0  0  0  0  0  0
  -21.9899   -9.0252   20.4636 C   0  0  0  0  0  0
  -22.7229  -10.2135   20.3023 C   0  0  0  0  0  0
  -21.6861   -6.0715   22.5267 C   0  0  0  0  0  0
  -21.4012   -6.5610   23.8205 C   0  0  0  0  0  0
  -21.3650   -5.6762   24.9164 C   0  0  0  0  0  0
  -21.6050   -4.3024   24.7211 C   0  0  0  0  0  0
  -21.8827   -3.8123   23.4334 C   0  0  0  0  0  0
  -21.9197   -4.6942   22.3386 C   0  0  0  0  0  0
  -22.7858  -13.5230   21.1824 C   0  0  0  0  0  0
  -22.1667   -4.2130   21.0963 F   0  0  0  0  0  0
  -21.5623   -3.4508   25.7722 F   0  0  0  0  0  0
  -30.0424  -13.2601   20.4418 N   0  0  0  0  0  0
  -26.3047  -12.9342   20.3386 N   0  0  0  0  0  0
  -25.9322  -11.6491   20.5746 N   0  0  0  0  0  0
  -22.0513  -12.8226   22.0389 N   0  0  0  0  0  0
  -25.4378  -15.1891   20.4166 N   0  0  0  0  0  0
  -31.8659  -14.5677   20.0697 O   0  0  0  0  0  0
  -21.6640   -6.8872   21.4237 O   0  0  0  0  0  0
  -22.3542  -14.5537   20.6680 O   0  0  0  0  0  0
  -24.6108  -31.8702   23.2144 C   0  0  0  0  0  0
  -25.9022  -32.4833   23.8429 C   0  0  1  0  0  0
  -27.2341  -27.4719   20.0839 C   0  0  0  0  0  0
  -25.5894  -33.8629   24.2360 N   0  0  0  0  0  0
  -23.3947  -30.4948   21.5550 C   0  0  2  0  0  0
  -24.8381  -28.9611   20.1198 C   0  0  0  0  0  0
  -22.7380  -29.4673   22.5035 C   0  0  0  0  0  0
  -18.0257  -28.1373   22.8489 C   0  0  0  0  0  0
  -24.1468  -36.7289   23.2631 C   0  0  0  0  0  0
  -25.9191  -30.8486   21.3580 C   0  0  0  0  0  0
  -25.9963  -29.4846   20.7066 C   0  0  0  0  0  0
  -27.1977  -28.7485   20.6809 C   0  0  0  0  0  0
  -26.0565  -26.9452   19.5076 C   0  0  0  0  0  0
  -24.8607  -27.6892   19.5196 C   0  0  0  0  0  0
  -23.5980  -29.8232   20.1706 C   0  0  0  0  0  0
  -25.4072  -36.3104   24.0346 C   0  0  1  0  0  0
  -20.5843  -28.3646   23.1341 C   0  0  2  0  0  0
  -20.6748  -26.9389   22.5424 C   0  0  0  0  0  0
  -19.5740  -26.6381   21.5202 C   0  0  0  0  0  0
  -18.1903  -26.7931   22.1600 C   0  0  0  0  0  0
  -19.1508  -28.8827   23.2911 C   0  0  0  0  0  0
  -18.9447  -30.1437   23.8919 C   0  0  0  0  0  0
  -17.6455  -30.6589   24.0563 C   0  0  0  0  0  0
  -25.9020  -34.9478   23.5144 C   0  0  0  0  0  0
  -16.5344  -29.9094   23.6327 C   0  0  0  0  0  0
  -16.7251  -28.6505   23.0353 C   0  0  0  0  0  0
  -26.4463  -31.6602   25.0737 C   0  0  0  0  0  0
  -25.3762  -31.3732   26.1527 C   0  0  0  0  0  0
  -27.0260  -30.3049   24.6076 C   0  0  0  0  0  0
  -27.6082  -32.4296   25.7462 C   0  0  0  0  0  0
  -27.5596  -37.1733   24.8417 C   0  0  0  0  0  0
  -21.4117  -29.3024   22.3763 N   0  0  0  0  0  0
  -26.4225  -37.3824   23.9493 N   0  0  0  0  0  0
  -24.6604  -31.0849   22.1019 N   0  0  0  0  0  0
  -23.4176  -28.8201   23.3046 O   0  0  0  0  0  0
  -28.4309  -26.8021   20.0521 O   0  0  0  0  0  0
  -26.5570  -34.8931   22.4700 O   0  0  0  0  0  0
  -23.5315  -32.1420   23.7578 O   0  0  0  0  0  0
  -32.4367  -18.3208   21.7980 C   0  0  0  0  0  0
  -30.3449  -19.1102   20.8416 C   0  0  0  0  0  0
  -31.9363  -17.0060   21.8131 C   0  0  0  0  0  0
  -29.8382  -17.7939   20.8568 C   0  0  0  0  0  0
  -31.6515  -19.3816   21.3002 C   0  0  0  0  0  0
  -30.6434  -16.7304   21.3153 C   0  0  0  0  0  0
  -33.0218  -21.3623   22.3676 C   0  0  0  0  0  0
  -32.2124  -20.7701   21.2340 C   0  0  2  0  0  0
  -31.6372  -21.8899   22.0717 C   0  0  2  0  0  0
  -31.4532  -23.2797   21.4959 C   0  0  0  0  0  0
  -30.0108  -23.5552   21.0474 C   0  0  0  0  0  0
  -29.8555  -24.9784   20.4944 C   0  0  0  0  0  0
  -28.4002  -25.3976   20.2549 C   0  0  0  0  0  0
  -30.1510  -15.3999   21.2536 N   0  0  0  0  0  0
  -31.4548  -12.3411   19.1103 H   0  0  0  0  0  0
  -30.2804  -11.2650   19.8025 H   0  0  0  0  0  0
  -29.7208  -11.7890   17.4103 H   0  0  0  0  0  0
  -29.6677  -13.4949   17.7797 H   0  0  0  0  0  0
  -27.8123  -11.3138   18.8033 H   0  0  0  0  0  0
  -27.3574  -12.6579   17.7883 H   0  0  0  0  0  0
  -27.7109  -14.2555   19.5812 H   0  0  0  0  0  0
  -28.6685  -11.9552   21.3523 H   0  0  0  0  0  0
  -28.4742  -13.6005   21.8678 H   0  0  0  0  0  0
  -25.2765   -9.5675   22.4706 H   0  0  0  0  0  0
  -23.9999   -7.4633   22.7446 H   0  0  0  0  0  0
  -21.0841   -8.8779   19.8931 H   0  0  0  0  0  0
  -22.3704  -10.9661   19.6117 H   0  0  0  0  0  0
  -21.2013   -7.6109   23.9708 H   0  0  0  0  0  0
  -21.1451   -6.0469   25.9065 H   0  0  0  0  0  0
  -22.0614   -2.7586   23.2829 H   0  0  0  0  0  0
  -22.4096  -11.9850   22.4736 H   0  0  0  0  0  0
  -21.1153  -13.1285   22.2635 H   0  0  0  0  0  0
  -24.6835  -15.8561   20.5365 H   0  0  0  0  0  0
  -26.3111  -15.6255   20.1491 H   0  0  0  0  0  0
  -26.7104  -32.5559   23.1211 H   0  0  0  0  0  0
  -25.0080  -33.9812   25.0529 H   0  0  0  0  0  0
  -22.6818  -31.3108   21.4186 H   0  0  0  0  0  0
  -23.3801  -35.9537   23.3136 H   0  0  0  0  0  0
  -24.3618  -36.9065   22.2077 H   0  0  0  0  0  0
  -23.7109  -37.6395   23.6748 H   0  0  0  0  0  0
  -26.0222  -31.6163   20.5898 H   0  0  0  0  0  0
  -26.8123  -30.9080   21.9687 H   0  0  0  0  0  0
  -28.0986  -29.1546   21.1198 H   0  0  0  0  0  0
  -26.0547  -25.9760   19.0320 H   0  0  0  0  0  0
  -23.9682  -27.2812   19.0670 H   0  0  0  0  0  0
  -23.6994  -30.5935   19.4056 H   0  0  0  0  0  0
  -22.7230  -29.2370   19.8819 H   0  0  0  0  0  0
  -25.1205  -36.1935   25.0828 H   0  0  0  0  0  0
  -20.9934  -28.3208   24.1464 H   0  0  0  0  0  0
  -20.5650  -26.2252   23.3602 H   0  0  0  0  0  0
  -21.6629  -26.7446   22.1237 H   0  0  0  0  0  0
  -19.6910  -25.6291   21.1233 H   0  0  0  0  0  0
  -19.6694  -27.3187   20.6730 H   0  0  0  0  0  0
  -17.4196  -26.6720   21.3973 H   0  0  0  0  0  0
  -18.0272  -26.0050   22.8970 H   0  0  0  0  0  0
  -19.7929  -30.7229   24.2316 H   0  0  0  0  0  0
  -17.5020  -31.6276   24.5160 H   0  0  0  0  0  0
  -15.5343  -30.3007   23.7640 H   0  0  0  0  0  0
  -15.8646  -28.0822   22.7077 H   0  0  0  0  0  0
  -24.5858  -30.7155   25.7882 H   0  0  0  0  0  0
  -24.9041  -32.2905   26.5047 H   0  0  0  0  0  0
  -25.8124  -30.8828   27.0235 H   0  0  0  0  0  0
  -26.2751  -29.6816   24.1193 H   0  0  0  0  0  0
  -27.4112  -29.7284   25.4495 H   0  0  0  0  0  0
  -27.8563  -30.4378   23.9137 H   0  0  0  0  0  0
  -27.2762  -33.3619   26.2042 H   0  0  0  0  0  0
  -28.3865  -32.6804   25.0242 H   0  0  0  0  0  0
  -28.0766  -31.8400   26.5355 H   0  0  0  0  0  0
  -28.2435  -38.0206   24.7760 H   0  0  0  0  0  0
  -28.1257  -36.2772   24.5819 H   0  0  0  0  0  0
  -27.2400  -37.0886   25.8821 H   0  0  0  0  0  0
  -20.9281  -29.8721   21.6964 H   0  0  0  0  0  0
  -26.0087  -38.2842   24.1709 H   0  0  0  0  0  0
  -33.4392  -18.5087   22.1564 H   0  0  0  0  0  0
  -29.7317  -19.9141   20.4585 H   0  0  0  0  0  0
  -32.5644  -16.2075   22.1835 H   0  0  0  0  0  0
  -28.8446  -17.6042   20.4751 H   0  0  0  0  0  0
  -33.8624  -22.0056   22.1149 H   0  0  0  0  0  0
  -33.1371  -20.7870   23.2844 H   0  0  0  0  0  0
  -32.5278  -21.0064   20.2189 H   0  0  0  0  0  0
  -30.8828  -21.6147   22.8070 H   0  0  0  0  0  0
  -32.1404  -23.4153   20.6585 H   0  0  0  0  0  0
  -31.7464  -24.0032   22.2579 H   0  0  0  0  0  0
  -29.3442  -23.4282   21.9021 H   0  0  0  0  0  0
  -29.7000  -22.8284   20.2960 H   0  0  0  0  0  0
  -30.4203  -25.0809   19.5661 H   0  0  0  0  0  0
  -30.3046  -25.6796   21.1999 H   0  0  0  0  0  0
  -27.7854  -25.1622   21.1271 H   0  0  0  0  0  0
  -27.9864  -24.8699   19.3935 H   0  0  0  0  0  0
  -29.1932  -15.2374   21.5239 H   0  0  0  0  0  0
  1 25  1  0  0  0
  1 30  2  0  0  0
  1 84  1  0  0  0
  2  3  1  0  0  0
  2 25  1  0  0  0
  2 85  1  0  0  0
  2 86  1  0  0  0
  3  4  1  0  0  0
  3 87  1  0  0  0
  3 88  1  0  0  0
  4  5  1  0  0  0
  4 89  1  0  0  0
  4 90  1  0  0  0
  5  6  1  0  0  0
  5 26  1  0  0  0
  5 91  1  0  0  0
  6 25  1  0  0  0
  6 92  1  0  0  0
  6 93  1  0  0  0
  7  8  2  0  0  0
  7 26  1  0  0  0
  7 29  1  0  0  0
  8  9  1  0  0  0
  8 22  1  0  0  0
  9 10  1  0  0  0
  9 27  2  0  0  0
 10 11  2  0  0  0
 10 15  1  0  0  0
 11 12  1  0  0  0
 11 94  1  0  0  0
 12 13  2  0  0  0
 12 95  1  0  0  0
 13 14  1  0  0  0
 13 31  1  0  0  0
 14 15  2  0  0  0
 14 96  1  0  0  0
 15 97  1  0  0  0
 16 17  2  0  0  0
 16 21  1  0  0  0
 16 31  1  0  0  0
 17 18  1  0  0  0
 17 98  1  0  0  0
 18 19  2  0  0  0
 18 99  1  0  0  0
 19 20  1  0  0  0
 19 24  1  0  0  0
 20 21  2  0  0  0
 20100  1  0  0  0
 21 23  1  0  0  0
 22 28  1  0  0  0
 22 32  2  0  0  0
 26 27  1  0  0  0
 28101  1  0  0  0
 28102  1  0  0  0
 29103  1  0  0  0
 29104  1  0  0  0
 33 34  1  0  0  0
 33 66  1  0  0  0
 33 70  2  0  0  0
 34 36  1  0  0  0
 34 59  1  0  0  0
 34105  1  0  0  0
 35 44  2  0  0  0
 35 45  1  0  0  0
 35 68  1  0  0  0
 36 56  1  0  0  0
 36106  1  0  0  0
 37 39  1  0  0  0
 37 47  1  0  0  0
 37 66  1  0  0  0
 37107  1  0  0  0
 38 43  2  0  0  0
 38 46  1  0  0  0
 38 47  1  0  0  0
 39 64  1  0  0  0
 39 67  2  0  0  0
 40 52  1  0  0  0
 40 53  2  0  0  0
 40 58  1  0  0  0
 41108  1  0  0  0
 41109  1  0  0  0
 41110  1  0  0  0
 41 48  1  0  0  0
 42 43  1  0  0  0
 42 66  1  0  0  0
 42111  1  0  0  0
 42112  1  0  0  0
 43 44  1  0  0  0
 44113  1  0  0  0
 45 46  2  0  0  0
 45114  1  0  0  0
 46115  1  0  0  0
 47116  1  0  0  0
 47117  1  0  0  0
 48 56  1  0  0  0
 48 65  1  0  0  0
 48118  1  0  0  0
 49 50  1  0  0  0
 49 53  1  0  0  0
 49 64  1  0  0  0
 49119  1  0  0  0
 50 51  1  0  0  0
 50120  1  0  0  0
 50121  1  0  0  0
 51 52  1  0  0  0
 51122  1  0  0  0
 51123  1  0  0  0
 52124  1  0  0  0
 52125  1  0  0  0
 53 54  1  0  0  0
 54 55  2  0  0  0
 54126  1  0  0  0
 55 57  1  0  0  0
 55127  1  0  0  0
 56 69  2  0  0  0
 57 58  2  0  0  0
 57128  1  0  0  0
 58129  1  0  0  0
 59 60  1  0  0  0
 59 61  1  0  0  0
 59 62  1  0  0  0
 60130  1  0  0  0
 60131  1  0  0  0
 60132  1  0  0  0
 61133  1  0  0  0
 61134  1  0  0  0
 61135  1  0  0  0
 62136  1  0  0  0
 62137  1  0  0  0
 62138  1  0  0  0
 63 65  1  0  0  0
 63139  1  0  0  0
 63140  1  0  0  0
 63141  1  0  0  0
 64142  1  0  0  0
 65143  1  0  0  0
 68 83  1  0  0  0
 71 73  2  0  0  0
 71 75  1  0  0  0
 71144  1  0  0  0
 72 74  1  0  0  0
 72 75  2  0  0  0
 72145  1  0  0  0
 73 76  1  0  0  0
 73146  1  0  0  0
 74 76  2  0  0  0
 74147  1  0  0  0
 75 78  1  0  0  0
 76 84  1  0  0  0
 77 78  1  0  0  0
 77 79  1  0  0  0
 77148  1  0  0  0
 77149  1  0  0  0
 78 79  1  0  0  0
 78150  1  0  0  0
 79 80  1  0  0  0
 79151  1  0  0  0
 80 81  1  0  0  0
 80152  1  0  0  0
 80153  1  0  0  0
 81 82  1  0  0  0
 81154  1  0  0  0
 81155  1  0  0  0
 82 83  1  0  0  0
 82156  1  0  0  0
 82157  1  0  0  0
 83158  1  0  0  0
 83159  1  0  0  0
 84160  1  0  0  0
M  ISO  4   1 100  68 101  83 101  84 100
M  END
> <chiral flag>
0

> <version>
0

> <s_m_source_file>
/data/baiqing/PycharmProjects/Reinvent-master-3.2/result/LINK_invent/BTK/process_docking_weight1_custom_product_contain_oxygen_bond_distance_aromatic_linkinvent_7_9_3/rearranged_h_0135.sdf

> <i_m_source_file_index>
3

> <r_mmod_Potential_Energy-OPLS-2005>
-9.59124088287354

> <r_mmod_Stretch_Energy-OPLS-2005>
30.5439014434814

> <r_mmod_Bend_Energy-OPLS-2005>
87.858757019043

> <r_mmod_Torsional_Energy-OPLS-2005>
266.007690429688

> <r_mmod_Improper_Torsional_Energy-OPLS-2005>
3.10161733627319

> <r_mmod_Van_der_Waal_Energy-OPLS-2005>
150.844940185547

> <r_mmod_Electrostatic_Energy-OPLS-2005>
-357.989837646484

> <r_mmod_Solvation_Energy-OPLS-2005>
-200.239807128906

> <b_mmod_Minimization_Converged-OPLS-2005>
0

> <r_mmod_RMS_Derivative-OPLS-2005>
2.24393701553345

$$$$
3
                    3D
 Structure written by MMmdl.
158166  0  0  1  0            999 V2000
  -30.6966  -14.4604   20.6091 C   0  0  0  0  0  0
  -30.4363  -12.3128   19.4127 C   0  0  0  0  0  0
  -29.5009  -12.5079   18.2000 C   0  0  0  0  0  0
  -28.0206  -12.3662   18.6115 C   0  0  0  0  0  0
  -27.6671  -13.1981   19.8730 C   0  0  2  0  0  0
  -28.7065  -12.9555   20.9905 C   0  0  0  0  0  0
  -25.2626  -13.8136   20.5662 C   0  0  0  0  0  0
  -24.1862  -13.0430   20.9148 C   0  0  0  0  0  0
  -24.6404  -11.6891   20.8708 C   0  0  0  0  0  0
  -23.9047  -10.4293   21.0398 C   0  0  0  0  0  0
  -24.3602   -9.4207   21.9186 C   0  0  0  0  0  0
  -23.6280   -8.2247   22.0754 C   0  0  0  0  0  0
  -22.4264   -8.0279   21.3540 C   0  0  0  0  0  0
  -21.9887   -9.0252   20.4650 C   0  0  0  0  0  0
  -22.7215  -10.2138   20.3061 C   0  0  0  0  0  0
  -21.6854   -6.0726   22.5269 C   0  0  0  0  0  0
  -21.4012   -6.5636   23.8204 C   0  0  0  0  0  0
  -21.3659   -5.6786   24.9167 C   0  0  0  0  0  0
  -21.6048   -4.3047   24.7223 C   0  0  0  0  0  0
  -21.8823   -3.8134   23.4345 C   0  0  0  0  0  0
  -21.9197   -4.6948   22.3399 C   0  0  0  0  0  0
  -22.7891  -13.5255   21.1821 C   0  0  0  0  0  0
  -22.1665   -4.2134   21.0979 F   0  0  0  0  0  0
  -21.5632   -3.4537   25.7739 F   0  0  0  0  0  0
  -30.0445  -13.2753   20.4536 N   0  0  0  0  0  0
  -26.3054  -12.9287   20.3323 N   0  0  0  0  0  0
  -25.9320  -11.6453   20.5711 N   0  0  0  0  0  0
  -22.0515  -12.8269   22.0382 N   0  0  0  0  0  0
  -25.4359  -15.1854   20.4109 N   0  0  0  0  0  0
  -31.7826  -14.7131   20.0780 O   0  0  0  0  0  0
  -21.6639   -6.8866   21.4234 O   0  0  0  0  0  0
  -22.3581  -14.5558   20.6660 O   0  0  0  0  0  0
  -24.6170  -31.8671   23.2105 C   0  0  0  0  0  0
  -25.9057  -32.4820   23.8391 C   0  0  1  0  0  0
  -27.2398  -27.4302   20.0655 C   0  0  0  0  0  0
  -25.5915  -33.8617   24.2325 N   0  0  0  0  0  0
  -23.4045  -30.4932   21.5514 C   0  0  2  0  0  0
  -24.8478  -28.9599   20.1138 C   0  0  0  0  0  0
  -22.7418  -29.4662   22.4977 C   0  0  0  0  0  0
  -18.0281  -28.1384   22.8486 C   0  0  0  0  0  0
  -24.1494  -36.7320   23.2633 C   0  0  0  0  0  0
  -25.9360  -30.8275   21.3667 C   0  0  0  0  0  0
  -26.0104  -29.4628   20.7093 C   0  0  0  0  0  0
  -27.2030  -28.7014   20.6901 C   0  0  0  0  0  0
  -26.0443  -26.9371   19.4881 C   0  0  0  0  0  0
  -24.8582  -27.6937   19.5092 C   0  0  0  0  0  0
  -23.6123  -29.8300   20.1650 C   0  0  0  0  0  0
  -25.4107  -36.3107   24.0335 C   0  0  1  0  0  0
  -20.5874  -28.3678   23.1308 C   0  0  2  0  0  0
  -20.6775  -26.9410   22.5420 C   0  0  0  0  0  0
  -19.5756  -26.6385   21.5216 C   0  0  0  0  0  0
  -18.1930  -26.7934   22.1615 C   0  0  0  0  0  0
  -19.1531  -28.8846   23.2898 C   0  0  0  0  0  0
  -18.9459  -30.1450   23.8914 C   0  0  0  0  0  0
  -17.6460  -30.6583   24.0572 C   0  0  0  0  0  0
  -25.9036  -34.9473   23.5124 C   0  0  0  0  0  0
  -16.5354  -29.9092   23.6320 C   0  0  0  0  0  0
  -16.7271  -28.6510   23.0340 C   0  0  0  0  0  0
  -26.4477  -31.6605   25.0721 C   0  0  0  0  0  0
  -25.3744  -31.3754   26.1481 C   0  0  0  0  0  0
  -27.0276  -30.3032   24.6104 C   0  0  0  0  0  0
  -27.6067  -32.4316   25.7466 C   0  0  0  0  0  0
  -27.5601  -37.1788   24.8439 C   0  0  0  0  0  0
  -21.4149  -29.3044   22.3706 N   0  0  0  0  0  0
  -26.4286  -37.3798   23.9424 N   0  0  0  0  0  0
  -24.6710  -31.0762   22.1017 N   0  0  0  0  0  0
  -23.4184  -28.8200   23.3017 O   0  0  0  0  0  0
  -28.4265  -26.7149   20.0879 O   0  0  0  0  0  0
  -26.5595  -34.8923   22.4682 O   0  0  0  0  0  0
  -23.5359  -32.1432   23.7489 O   0  0  0  0  0  0
  -28.6414  -18.6453   20.3033 C   0  0  0  0  0  0
  -28.9135  -17.2622   20.3369 C   0  0  0  0  0  0
  -30.7516  -17.6614   21.8776 C   0  0  0  0  0  0
  -29.3842  -19.5492   21.0935 C   0  0  0  0  0  0
  -30.4770  -19.0532   21.8532 C   0  0  0  0  0  0
  -29.9493  -16.7560   21.1503 C   0  0  0  0  0  0
  -28.9635  -23.4496   20.3984 C   0  0  0  0  0  0
  -31.3282  -19.9853   22.6989 C   0  0  0  0  0  0
  -28.8969  -21.0002   21.2077 C   0  0  0  0  0  0
  -29.5535  -22.0301   20.2562 C   0  0  0  0  0  0
  -29.6474  -24.5930   19.6306 C   0  0  0  0  0  0
  -28.6847  -25.6902   19.1087 C   0  0  0  0  0  0
  -30.0434  -15.3539   21.3703 N   0  0  0  0  0  0
  -27.9721  -23.6639   21.1032 O   0  0  0  0  0  0
  -31.4777  -12.4348   19.1090 H   0  0  0  0  0  0
  -30.3541  -11.2961   19.7998 H   0  0  0  0  0  0
  -29.7418  -11.7793   17.4232 H   0  0  0  0  0  0
  -29.6676  -13.4904   17.7564 H   0  0  0  0  0  0
  -27.8289  -11.3094   18.7976 H   0  0  0  0  0  0
  -27.3736  -12.6492   17.7800 H   0  0  0  0  0  0
  -27.7169  -14.2481   19.5861 H   0  0  0  0  0  0
  -28.6853  -11.9105   21.3025 H   0  0  0  0  0  0
  -28.4480  -13.5224   21.8852 H   0  0  0  0  0  0
  -25.2758   -9.5683   22.4742 H   0  0  0  0  0  0
  -23.9994   -7.4637   22.7471 H   0  0  0  0  0  0
  -21.0816   -8.8769   19.8960 H   0  0  0  0  0  0
  -22.3678  -10.9671   19.6159 H   0  0  0  0  0  0
  -21.2000   -7.6143   23.9705 H   0  0  0  0  0  0
  -21.1478   -6.0516   25.9068 H   0  0  0  0  0  0
  -22.0607   -2.7589   23.2859 H   0  0  0  0  0  0
  -22.4119  -11.9948   22.4806 H   0  0  0  0  0  0
  -21.1136  -13.1328   22.2567 H   0  0  0  0  0  0
  -24.6720  -15.8426   20.5232 H   0  0  0  0  0  0
  -26.2956  -15.6246   20.1085 H   0  0  0  0  0  0
  -26.7124  -32.5519   23.1150 H   0  0  0  0  0  0
  -25.0073  -33.9775   25.0474 H   0  0  0  0  0  0
  -22.6945  -31.3112   21.4138 H   0  0  0  0  0  0
  -23.3754  -35.9653   23.3257 H   0  0  0  0  0  0
  -24.3609  -36.8968   22.2056 H   0  0  0  0  0  0
  -23.7232  -37.6507   23.6667 H   0  0  0  0  0  0
  -26.0503  -31.5950   20.5999 H   0  0  0  0  0  0
  -26.8244  -30.8780   21.9846 H   0  0  0  0  0  0
  -28.1016  -29.0881   21.1503 H   0  0  0  0  0  0
  -25.9758  -25.9626   19.0339 H   0  0  0  0  0  0
  -23.9583  -27.2922   19.0641 H   0  0  0  0  0  0
  -23.7261  -30.6085   19.4100 H   0  0  0  0  0  0
  -22.7344  -29.2557   19.8639 H   0  0  0  0  0  0
  -25.1271  -36.1969   25.0825 H   0  0  0  0  0  0
  -20.9966  -28.3264   24.1429 H   0  0  0  0  0  0
  -20.5679  -26.2294   23.3615 H   0  0  0  0  0  0
  -21.6649  -26.7453   22.1220 H   0  0  0  0  0  0
  -19.6924  -25.6298   21.1240 H   0  0  0  0  0  0
  -19.6705  -27.3201   20.6753 H   0  0  0  0  0  0
  -17.4211  -26.6701   21.4007 H   0  0  0  0  0  0
  -18.0315  -26.0070   22.8997 H   0  0  0  0  0  0
  -19.7932  -30.7264   24.2295 H   0  0  0  0  0  0
  -17.5011  -31.6260   24.5183 H   0  0  0  0  0  0
  -15.5354  -30.3005   23.7624 H   0  0  0  0  0  0
  -15.8677  -28.0839   22.7035 H   0  0  0  0  0  0
  -24.5897  -30.7115   25.7837 H   0  0  0  0  0  0
  -24.8969  -32.2935   26.4915 H   0  0  0  0  0  0
  -25.8099  -30.8933   27.0241 H   0  0  0  0  0  0
  -26.2805  -29.6812   24.1163 H   0  0  0  0  0  0
  -27.4026  -29.7261   25.4564 H   0  0  0  0  0  0
  -27.8658  -30.4324   23.9254 H   0  0  0  0  0  0
  -27.2696  -33.3595   26.2093 H   0  0  0  0  0  0
  -28.3849  -32.6909   25.0275 H   0  0  0  0  0  0
  -28.0765  -31.8407   26.5335 H   0  0  0  0  0  0
  -28.2564  -38.0141   24.7572 H   0  0  0  0  0  0
  -28.1151  -36.2680   24.6137 H   0  0  0  0  0  0
  -27.2339  -37.1280   25.8841 H   0  0  0  0  0  0
  -20.9309  -29.8774   21.6937 H   0  0  0  0  0  0
  -26.0171  -38.2860   24.1482 H   0  0  0  0  0  0
  -27.8096  -19.0027   19.7111 H   0  0  0  0  0  0
  -28.2842  -16.5906   19.7715 H   0  0  0  0  0  0
  -31.5429  -17.2810   22.5096 H   0  0  0  0  0  0
  -32.1922  -19.4662   23.1152 H   0  0  0  0  0  0
  -30.7516  -20.3894   23.5316 H   0  0  0  0  0  0
  -31.7013  -20.8170   22.1011 H   0  0  0  0  0  0
  -29.0101  -21.3334   22.2399 H   0  0  0  0  0  0
  -27.8191  -20.9979   21.0331 H   0  0  0  0  0  0
  -30.6264  -22.0820   20.4379 H   0  0  0  0  0  0
  -29.4243  -21.7126   19.2216 H   0  0  0  0  0  0
  -30.1573  -24.1420   18.7788 H   0  0  0  0  0  0
  -30.4264  -25.0342   20.2516 H   0  0  0  0  0  0
  -27.8045  -25.1894   18.7172 H   0  0  0  0  0  0
  -29.1442  -26.1779   18.2480 H   0  0  0  0  0  0
  -29.2287  -14.9454   21.8017 H   0  0  0  0  0  0
  1 25  1  0  0  0
  1 30  2  0  0  0
  1 83  1  0  0  0
  2  3  1  0  0  0
  2 25  1  0  0  0
  2 85  1  0  0  0
  2 86  1  0  0  0
  3  4  1  0  0  0
  3 87  1  0  0  0
  3 88  1  0  0  0
  4  5  1  0  0  0
  4 89  1  0  0  0
  4 90  1  0  0  0
  5  6  1  0  0  0
  5 26  1  0  0  0
  5 91  1  0  0  0
  6 25  1  0  0  0
  6 92  1  0  0  0
  6 93  1  0  0  0
  7  8  2  0  0  0
  7 26  1  0  0  0
  7 29  1  0  0  0
  8  9  1  0  0  0
  8 22  1  0  0  0
  9 10  1  0  0  0
  9 27  2  0  0  0
 10 11  2  0  0  0
 10 15  1  0  0  0
 11 12  1  0  0  0
 11 94  1  0  0  0
 12 13  2  0  0  0
 12 95  1  0  0  0
 13 14  1  0  0  0
 13 31  1  0  0  0
 14 15  2  0  0  0
 14 96  1  0  0  0
 15 97  1  0  0  0
 16 17  2  0  0  0
 16 21  1  0  0  0
 16 31  1  0  0  0
 17 18  1  0  0  0
 17 98  1  0  0  0
 18 19  2  0  0  0
 18 99  1  0  0  0
 19 20  1  0  0  0
 19 24  1  0  0  0
 20 21  2  0  0  0
 20100  1  0  0  0
 21 23  1  0  0  0
 22 28  1  0  0  0
 22 32  2  0  0  0
 26 27  1  0  0  0
 28101  1  0  0  0
 28102  1  0  0  0
 29103  1  0  0  0
 29104  1  0  0  0
 33 34  1  0  0  0
 33 66  1  0  0  0
 33 70  2  0  0  0
 34 36  1  0  0  0
 34 59  1  0  0  0
 34105  1  0  0  0
 35 44  2  0  0  0
 35 45  1  0  0  0
 35 68  1  0  0  0
 36 56  1  0  0  0
 36106  1  0  0  0
 37 39  1  0  0  0
 37 47  1  0  0  0
 37 66  1  0  0  0
 37107  1  0  0  0
 38 43  2  0  0  0
 38 46  1  0  0  0
 38 47  1  0  0  0
 39 64  1  0  0  0
 39 67  2  0  0  0
 40 52  1  0  0  0
 40 53  2  0  0  0
 40 58  1  0  0  0
 41108  1  0  0  0
 41109  1  0  0  0
 41110  1  0  0  0
 41 48  1  0  0  0
 42 43  1  0  0  0
 42 66  1  0  0  0
 42111  1  0  0  0
 42112  1  0  0  0
 43 44  1  0  0  0
 44113  1  0  0  0
 45 46  2  0  0  0
 45114  1  0  0  0
 46115  1  0  0  0
 47116  1  0  0  0
 47117  1  0  0  0
 48 56  1  0  0  0
 48 65  1  0  0  0
 48118  1  0  0  0
 49 50  1  0  0  0
 49 53  1  0  0  0
 49 64  1  0  0  0
 49119  1  0  0  0
 50 51  1  0  0  0
 50120  1  0  0  0
 50121  1  0  0  0
 51 52  1  0  0  0
 51122  1  0  0  0
 51123  1  0  0  0
 52124  1  0  0  0
 52125  1  0  0  0
 53 54  1  0  0  0
 54 55  2  0  0  0
 54126  1  0  0  0
 55 57  1  0  0  0
 55127  1  0  0  0
 56 69  2  0  0  0
 57 58  2  0  0  0
 57128  1  0  0  0
 58129  1  0  0  0
 59 60  1  0  0  0
 59 61  1  0  0  0
 59 62  1  0  0  0
 60130  1  0  0  0
 60131  1  0  0  0
 60132  1  0  0  0
 61133  1  0  0  0
 61134  1  0  0  0
 61135  1  0  0  0
 62136  1  0  0  0
 62137  1  0  0  0
 62138  1  0  0  0
 63 65  1  0  0  0
 63139  1  0  0  0
 63140  1  0  0  0
 63141  1  0  0  0
 64142  1  0  0  0
 65143  1  0  0  0
 68 82  1  0  0  0
 71 72  2  0  0  0
 71 74  1  0  0  0
 71144  1  0  0  0
 72 76  1  0  0  0
 72145  1  0  0  0
 73 75  1  0  0  0
 73 76  2  0  0  0
 73146  1  0  0  0
 74 75  2  0  0  0
 74 79  1  0  0  0
 75 78  1  0  0  0
 76 83  1  0  0  0
 77 80  1  0  0  0
 77 81  1  0  0  0
 77 84  2  0  0  0
 78147  1  0  0  0
 78148  1  0  0  0
 78149  1  0  0  0
 79 80  1  0  0  0
 79150  1  0  0  0
 79151  1  0  0  0
 80152  1  0  0  0
 80153  1  0  0  0
 81 82  1  0  0  0
 81154  1  0  0  0
 81155  1  0  0  0
 82156  1  0  0  0
 82157  1  0  0  0
 83158  1  0  0  0
M  ISO  4   1 100  68 101  82 101  83 100
M  END
> <chiral flag>
0

> <version>
0

> <s_m_source_file>
/data/baiqing/PycharmProjects/Reinvent-master-3.2/result/LINK_invent/BTK/process_docking_weight1_custom_product_contain_oxygen_bond_distance_aromatic_linkinvent_7_9_3/rearranged_h_0135.sdf

> <i_m_source_file_index>
4

> <r_mmod_Potential_Energy-OPLS-2005>
-74.2733154296875

> <r_mmod_Stretch_Energy-OPLS-2005>
38.1640090942383

> <r_mmod_Bend_Energy-OPLS-2005>
102.668685913086

> <r_mmod_Torsional_Energy-OPLS-2005>
236.610610961914

> <r_mmod_Improper_Torsional_Energy-OPLS-2005>
5.75345039367676

> <r_mmod_Van_der_Waal_Energy-OPLS-2005>
149.627166748047

> <r_mmod_Electrostatic_Energy-OPLS-2005>
-394.302917480469

> <r_mmod_Solvation_Energy-OPLS-2005>
-224.838287353516

> <b_mmod_Minimization_Converged-OPLS-2005>
0

> <r_mmod_RMS_Derivative-OPLS-2005>
1.70979833602905

$$$$
4
                    3D
 Structure written by MMmdl.
165173  0  0  1  0            999 V2000
  -30.6272  -14.5470   20.6338 C   0  0  0  0  0  0
  -30.4455  -12.3742   19.4095 C   0  0  0  0  0  0
  -29.4965  -12.5667   18.2052 C   0  0  0  0  0  0
  -28.0161  -12.4052   18.6119 C   0  0  0  0  0  0
  -27.6656  -13.2073   19.8919 C   0  0  2  0  0  0
  -28.7176  -12.9227   20.9853 C   0  0  0  0  0  0
  -25.2579  -13.8151   20.5716 C   0  0  0  0  0  0
  -24.1813  -13.0405   20.9195 C   0  0  0  0  0  0
  -24.6382  -11.6904   20.8756 C   0  0  0  0  0  0
  -23.9037  -10.4283   21.0395 C   0  0  0  0  0  0
  -24.3587   -9.4199   21.9163 C   0  0  0  0  0  0
  -23.6276   -8.2239   22.0754 C   0  0  0  0  0  0
  -22.4265   -8.0267   21.3536 C   0  0  0  0  0  0
  -21.9888   -9.0234   20.4638 C   0  0  0  0  0  0
  -22.7215  -10.2125   20.3040 C   0  0  0  0  0  0
  -21.6846   -6.0719   22.5270 C   0  0  0  0  0  0
  -21.4010   -6.5630   23.8201 C   0  0  0  0  0  0
  -21.3679   -5.6789   24.9167 C   0  0  0  0  0  0
  -21.6046   -4.3047   24.7213 C   0  0  0  0  0  0
  -21.8822   -3.8138   23.4335 C   0  0  0  0  0  0
  -21.9187   -4.6951   22.3391 C   0  0  0  0  0  0
  -22.7834  -13.5213   21.1842 C   0  0  0  0  0  0
  -22.1645   -4.2137   21.0963 F   0  0  0  0  0  0
  -21.5644   -3.4534   25.7729 F   0  0  0  0  0  0
  -30.0395  -13.3191   20.4631 N   0  0  0  0  0  0
  -26.3033  -12.9311   20.3456 N   0  0  0  0  0  0
  -25.9314  -11.6468   20.5785 N   0  0  0  0  0  0
  -22.0460  -12.8217   22.0416 N   0  0  0  0  0  0
  -25.4243  -15.1866   20.4181 N   0  0  0  0  0  0
  -31.6987  -14.8525   20.0967 O   0  0  0  0  0  0
  -21.6637   -6.8862   21.4233 O   0  0  0  0  0  0
  -22.3524  -14.5490   20.6685 O   0  0  0  0  0  0
  -24.6239  -31.8612   23.1964 C   0  0  0  0  0  0
  -25.9081  -32.4816   23.8315 C   0  0  1  0  0  0
  -27.2623  -27.3510   20.1546 C   0  0  0  0  0  0
  -25.5907  -33.8610   24.2247 N   0  0  0  0  0  0
  -23.4189  -30.4754   21.5437 C   0  0  2  0  0  0
  -24.8746  -28.9193   20.1234 C   0  0  0  0  0  0
  -22.7493  -29.4604   22.4993 C   0  0  0  0  0  0
  -18.0277  -28.1378   22.8508 C   0  0  0  0  0  0
  -24.1462  -36.7283   23.2648 C   0  0  0  0  0  0
  -25.9538  -30.8096   21.3547 C   0  0  0  0  0  0
  -26.0372  -29.4294   20.7169 C   0  0  0  0  0  0
  -27.2323  -28.6578   20.7184 C   0  0  0  0  0  0
  -26.0796  -26.8726   19.5505 C   0  0  0  0  0  0
  -24.8957  -27.6431   19.5311 C   0  0  0  0  0  0
  -23.6310  -29.7886   20.1665 C   0  0  0  0  0  0
  -25.4103  -36.3123   24.0348 C   0  0  1  0  0  0
  -20.5893  -28.3665   23.1320 C   0  0  2  0  0  0
  -20.6765  -26.9383   22.5444 C   0  0  0  0  0  0
  -19.5726  -26.6361   21.5257 C   0  0  0  0  0  0
  -18.1899  -26.7919   22.1653 C   0  0  0  0  0  0
  -19.1550  -28.8846   23.2895 C   0  0  0  0  0  0
  -18.9481  -30.1473   23.8871 C   0  0  0  0  0  0
  -17.6479  -30.6585   24.0575 C   0  0  0  0  0  0
  -25.9041  -34.9497   23.5103 C   0  0  0  0  0  0
  -16.5358  -29.9099   23.6341 C   0  0  0  0  0  0
  -16.7272  -28.6526   23.0341 C   0  0  0  0  0  0
  -26.4423  -31.6659   25.0721 C   0  0  0  0  0  0
  -25.3627  -31.3868   26.1455 C   0  0  0  0  0  0
  -27.0277  -30.3106   24.6164 C   0  0  0  0  0  0
  -27.5978  -32.4405   25.7482 C   0  0  0  0  0  0
  -27.5572  -37.1785   24.8458 C   0  0  0  0  0  0
  -21.4213  -29.3017   22.3743 N   0  0  0  0  0  0
  -26.4265  -37.3840   23.9441 N   0  0  0  0  0  0
  -24.6864  -31.0637   22.0910 N   0  0  0  0  0  0
  -23.4239  -28.8158   23.3074 O   0  0  0  0  0  0
  -28.4255  -26.5753   20.1473 O   0  0  0  0  0  0
  -26.5609  -34.8965   22.4672 O   0  0  0  0  0  0
  -23.5399  -32.1377   23.7312 O   0  0  0  0  0  0
  -29.0490  -19.4708   22.3291 C   0  0  0  0  0  0
  -30.0260  -17.8563   20.7846 C   0  0  0  0  0  0
  -28.8527  -18.4523   23.2823 C   0  0  0  0  0  0
  -29.2410  -17.1145   22.9915 C   0  0  0  0  0  0
  -29.7989  -16.7903   21.7185 C   0  0  0  0  0  0
  -29.6462  -19.2136   21.0793 C   0  0  0  0  0  0
  -29.5371  -22.7625   20.7406 C   0  0  0  0  0  0
  -29.2371  -19.4499   25.5807 C   0  0  0  0  0  0
  -27.6974  -15.2947   23.9005 C   0  0  0  0  0  0
  -28.2093  -18.8560   24.6092 C   0  0  0  0  0  0
  -29.0515  -16.0096   24.0426 C   0  0  0  0  0  0
  -29.2560  -24.1372   20.0279 C   0  0  0  0  0  0
  -28.9791  -21.4268   20.1361 C   0  0  0  0  0  0
  -28.4139  -25.2440   20.7747 C   0  0  0  0  0  0
  -29.9303  -15.3660   21.4618 N   0  0  0  0  0  0
  -30.2344  -22.7293   21.7602 O   0  0  0  0  0  0
  -29.8863  -20.2722   20.1936 O   0  0  0  0  0  0
  -31.4827  -12.5293   19.1081 H   0  0  0  0  0  0
  -30.3878  -11.3461   19.7764 H   0  0  0  0  0  0
  -29.7426  -11.8695   17.4063 H   0  0  0  0  0  0
  -29.6506  -13.5617   17.7870 H   0  0  0  0  0  0
  -27.8242  -11.3436   18.7753 H   0  0  0  0  0  0
  -27.3684  -12.7105   17.7889 H   0  0  0  0  0  0
  -27.7179  -14.2675   19.6445 H   0  0  0  0  0  0
  -28.7154  -11.8622   21.2398 H   0  0  0  0  0  0
  -28.4751  -13.4059   21.9201 H   0  0  0  0  0  0
  -25.2721   -9.5704   22.4747 H   0  0  0  0  0  0
  -23.9982   -7.4644   22.7496 H   0  0  0  0  0  0
  -21.0809   -8.8736   19.8957 H   0  0  0  0  0  0
  -22.3618  -10.9659   19.6173 H   0  0  0  0  0  0
  -21.1987   -7.6141   23.9702 H   0  0  0  0  0  0
  -21.1512   -6.0511   25.9067 H   0  0  0  0  0  0
  -22.0587   -2.7602   23.2829 H   0  0  0  0  0  0
  -22.4031  -11.9884   22.4837 H   0  0  0  0  0  0
  -21.1072  -13.1307   22.2589 H   0  0  0  0  0  0
  -24.6635  -15.8422   20.5538 H   0  0  0  0  0  0
  -26.2764  -15.6375   20.1110 H   0  0  0  0  0  0
  -26.7215  -32.5488   23.1125 H   0  0  0  0  0  0
  -25.0138  -33.9751   25.0451 H   0  0  0  0  0  0
  -22.7148  -31.2979   21.3928 H   0  0  0  0  0  0
  -23.3774  -35.9567   23.3303 H   0  0  0  0  0  0
  -24.3541  -36.8886   22.2055 H   0  0  0  0  0  0
  -23.7127  -37.6457   23.6650 H   0  0  0  0  0  0
  -26.0624  -31.5651   20.5753 H   0  0  0  0  0  0
  -26.8450  -30.8793   21.9692 H   0  0  0  0  0  0
  -28.1288  -29.0508   21.1766 H   0  0  0  0  0  0
  -26.0686  -25.8884   19.1047 H   0  0  0  0  0  0
  -24.0021  -27.2401   19.0721 H   0  0  0  0  0  0
  -23.7359  -30.5536   19.3984 H   0  0  0  0  0  0
  -22.7547  -29.2059   19.8753 H   0  0  0  0  0  0
  -25.1260  -36.1981   25.0837 H   0  0  0  0  0  0
  -20.9981  -28.3225   24.1439 H   0  0  0  0  0  0
  -20.5673  -26.2264   23.3659 H   0  0  0  0  0  0
  -21.6630  -26.7399   22.1224 H   0  0  0  0  0  0
  -19.6881  -25.6284   21.1259 H   0  0  0  0  0  0
  -19.6663  -27.3217   20.6826 H   0  0  0  0  0  0
  -17.4185  -26.6745   21.4017 H   0  0  0  0  0  0
  -18.0231  -26.0040   22.9010 H   0  0  0  0  0  0
  -19.7959  -30.7321   24.2169 H   0  0  0  0  0  0
  -17.5029  -31.6246   24.5222 H   0  0  0  0  0  0
  -15.5364  -30.2999   23.7683 H   0  0  0  0  0  0
  -15.8659  -28.0873   22.7008 H   0  0  0  0  0  0
  -24.5789  -30.7218   25.7793 H   0  0  0  0  0  0
  -24.8836  -32.3089   26.4766 H   0  0  0  0  0  0
  -25.7908  -30.9124   27.0292 H   0  0  0  0  0  0
  -26.2882  -29.6898   24.1109 H   0  0  0  0  0  0
  -27.3934  -29.7316   25.4641 H   0  0  0  0  0  0
  -27.8726  -30.4435   23.9406 H   0  0  0  0  0  0
  -27.2616  -33.3789   26.1892 H   0  0  0  0  0  0
  -28.3850  -32.6833   25.0330 H   0  0  0  0  0  0
  -28.0555  -31.8634   26.5519 H   0  0  0  0  0  0
  -28.2582  -38.0094   24.7615 H   0  0  0  0  0  0
  -28.1078  -36.2651   24.6162 H   0  0  0  0  0  0
  -27.2307  -37.1265   25.8857 H   0  0  0  0  0  0
  -20.9402  -29.8726   21.6931 H   0  0  0  0  0  0
  -26.0156  -38.2908   24.1523 H   0  0  0  0  0  0
  -28.7698  -20.4817   22.5904 H   0  0  0  0  0  0
  -30.4536  -17.6260   19.8196 H   0  0  0  0  0  0
  -28.7884  -19.6717   26.5494 H   0  0  0  0  0  0
  -29.6538  -20.3823   25.1947 H   0  0  0  0  0  0
  -30.0595  -18.7557   25.7580 H   0  0  0  0  0  0
  -27.6088  -14.4551   24.5954 H   0  0  0  0  0  0
  -27.5534  -14.9250   22.8920 H   0  0  0  0  0  0
  -26.8647  -15.9717   24.0766 H   0  0  0  0  0  0
  -27.6892  -18.0275   25.0886 H   0  0  0  0  0  0
  -27.4234  -19.5879   24.4093 H   0  0  0  0  0  0
  -29.1512  -16.4108   25.0517 H   0  0  0  0  0  0
  -29.8711  -15.2903   23.9834 H   0  0  0  0  0  0
  -28.8127  -23.9352   19.0550 H   0  0  0  0  0  0
  -30.2372  -24.5702   19.8300 H   0  0  0  0  0  0
  -28.0238  -21.1936   20.6026 H   0  0  0  0  0  0
  -28.7581  -21.6046   19.0835 H   0  0  0  0  0  0
  -28.8284  -25.3658   21.7790 H   0  0  0  0  0  0
  -27.3969  -24.8829   20.9206 H   0  0  0  0  0  0
  -29.2618  -14.8298   21.9911 H   0  0  0  0  0  0
  1 25  1  0  0  0
  1 30  2  0  0  0
  1 85  1  0  0  0
  2  3  1  0  0  0
  2 25  1  0  0  0
  2 88  1  0  0  0
  2 89  1  0  0  0
  3  4  1  0  0  0
  3 90  1  0  0  0
  3 91  1  0  0  0
  4  5  1  0  0  0
  4 92  1  0  0  0
  4 93  1  0  0  0
  5  6  1  0  0  0
  5 26  1  0  0  0
  5 94  1  0  0  0
  6 25  1  0  0  0
  6 95  1  0  0  0
  6 96  1  0  0  0
  7  8  2  0  0  0
  7 26  1  0  0  0
  7 29  1  0  0  0
  8  9  1  0  0  0
  8 22  1  0  0  0
  9 10  1  0  0  0
  9 27  2  0  0  0
 10 11  2  0  0  0
 10 15  1  0  0  0
 11 12  1  0  0  0
 11 97  1  0  0  0
 12 13  2  0  0  0
 12 98  1  0  0  0
 13 14  1  0  0  0
 13 31  1  0  0  0
 14 15  2  0  0  0
 14 99  1  0  0  0
 15100  1  0  0  0
 16 17  2  0  0  0
 16 21  1  0  0  0
 16 31  1  0  0  0
 17 18  1  0  0  0
 17101  1  0  0  0
 18 19  2  0  0  0
 18102  1  0  0  0
 19 20  1  0  0  0
 19 24  1  0  0  0
 20 21  2  0  0  0
 20103  1  0  0  0
 21 23  1  0  0  0
 22 28  1  0  0  0
 22 32  2  0  0  0
 26 27  1  0  0  0
 28104  1  0  0  0
 28105  1  0  0  0
 29106  1  0  0  0
 29107  1  0  0  0
 33 34  1  0  0  0
 33 66  1  0  0  0
 33 70  2  0  0  0
 34 36  1  0  0  0
 34 59  1  0  0  0
 34108  1  0  0  0
 35 44  2  0  0  0
 35 45  1  0  0  0
 35 68  1  0  0  0
 36 56  1  0  0  0
 36109  1  0  0  0
 37 39  1  0  0  0
 37 47  1  0  0  0
 37 66  1  0  0  0
 37110  1  0  0  0
 38 43  2  0  0  0
 38 46  1  0  0  0
 38 47  1  0  0  0
 39 64  1  0  0  0
 39 67  2  0  0  0
 40 52  1  0  0  0
 40 53  2  0  0  0
 40 58  1  0  0  0
 41111  1  0  0  0
 41112  1  0  0  0
 41113  1  0  0  0
 41 48  1  0  0  0
 42 43  1  0  0  0
 42 66  1  0  0  0
 42114  1  0  0  0
 42115  1  0  0  0
 43 44  1  0  0  0
 44116  1  0  0  0
 45 46  2  0  0  0
 45117  1  0  0  0
 46118  1  0  0  0
 47119  1  0  0  0
 47120  1  0  0  0
 48 56  1  0  0  0
 48 65  1  0  0  0
 48121  1  0  0  0
 49 50  1  0  0  0
 49 53  1  0  0  0
 49 64  1  0  0  0
 49122  1  0  0  0
 50 51  1  0  0  0
 50123  1  0  0  0
 50124  1  0  0  0
 51 52  1  0  0  0
 51125  1  0  0  0
 51126  1  0  0  0
 52127  1  0  0  0
 52128  1  0  0  0
 53 54  1  0  0  0
 54 55  2  0  0  0
 54129  1  0  0  0
 55 57  1  0  0  0
 55130  1  0  0  0
 56 69  2  0  0  0
 57 58  2  0  0  0
 57131  1  0  0  0
 58132  1  0  0  0
 59 60  1  0  0  0
 59 61  1  0  0  0
 59 62  1  0  0  0
 60133  1  0  0  0
 60134  1  0  0  0
 60135  1  0  0  0
 61136  1  0  0  0
 61137  1  0  0  0
 61138  1  0  0  0
 62139  1  0  0  0
 62140  1  0  0  0
 62141  1  0  0  0
 63 65  1  0  0  0
 63142  1  0  0  0
 63143  1  0  0  0
 63144  1  0  0  0
 64145  1  0  0  0
 65146  1  0  0  0
 68 84  1  0  0  0
 71 73  2  0  0  0
 71 76  1  0  0  0
 71147  1  0  0  0
 72 75  1  0  0  0
 72 76  2  0  0  0
 72148  1  0  0  0
 73 74  1  0  0  0
 73 80  1  0  0  0
 74 75  2  0  0  0
 74 81  1  0  0  0
 75 85  1  0  0  0
 76 87  1  0  0  0
 77 82  1  0  0  0
 77 83  1  0  0  0
 77 86  2  0  0  0
 78 80  1  0  0  0
 78149  1  0  0  0
 78150  1  0  0  0
 78151  1  0  0  0
 79 81  1  0  0  0
 79152  1  0  0  0
 79153  1  0  0  0
 79154  1  0  0  0
 80155  1  0  0  0
 80156  1  0  0  0
 81157  1  0  0  0
 81158  1  0  0  0
 82 84  1  0  0  0
 82159  1  0  0  0
 82160  1  0  0  0
 83 87  1  0  0  0
 83161  1  0  0  0
 83162  1  0  0  0
 84163  1  0  0  0
 84164  1  0  0  0
 85165  1  0  0  0
M  ISO  4   1 100  68 101  84 101  85 100
M  END
> <chiral flag>
0

> <version>
0

> <s_m_source_file>
/data/baiqing/PycharmProjects/Reinvent-master-3.2/result/LINK_invent/BTK/process_docking_weight1_custom_product_contain_oxygen_bond_distance_aromatic_linkinvent_7_9_3/rearranged_h_0135.sdf

> <i_m_source_file_index>
5

> <r_mmod_Potential_Energy-OPLS-2005>
54.5078926086426

> <r_mmod_Stretch_Energy-OPLS-2005>
72.8050994873047

> <r_mmod_Bend_Energy-OPLS-2005>
155.716873168945

> <r_mmod_Torsional_Energy-OPLS-2005>
253.244125366211

> <r_mmod_Improper_Torsional_Energy-OPLS-2005>
2.99603629112244

> <r_mmod_Van_der_Waal_Energy-OPLS-2005>
142.260330200195

> <r_mmod_Electrostatic_Energy-OPLS-2005>
-377.730194091797

> <r_mmod_Solvation_Energy-OPLS-2005>
-225.509124755859

> <b_mmod_Minimization_Converged-OPLS-2005>
0

> <r_mmod_RMS_Derivative-OPLS-2005>
5.44539499282837

$$$$
5
                    3D
 Structure written by MMmdl.
166175  0  0  1  0            999 V2000
  -30.6868  -14.5027   20.5616 C   0  0  0  0  0  0
  -30.4327  -12.3236   19.4217 C   0  0  0  0  0  0
  -29.4998  -12.5107   18.2065 C   0  0  0  0  0  0
  -28.0204  -12.3663   18.6178 C   0  0  0  0  0  0
  -27.6628  -13.2063   19.8725 C   0  0  2  0  0  0
  -28.7072  -12.9923   20.9920 C   0  0  0  0  0  0
  -25.2591  -13.8149   20.5669 C   0  0  0  0  0  0
  -24.1843  -13.0439   20.9177 C   0  0  0  0  0  0
  -24.6392  -11.6901   20.8732 C   0  0  0  0  0  0
  -23.9057  -10.4291   21.0406 C   0  0  0  0  0  0
  -24.3608   -9.4205   21.9188 C   0  0  0  0  0  0
  -23.6281   -8.2243   22.0756 C   0  0  0  0  0  0
  -22.4266   -8.0277   21.3543 C   0  0  0  0  0  0
  -21.9897   -9.0256   20.4655 C   0  0  0  0  0  0
  -22.7225  -10.2135   20.3061 C   0  0  0  0  0  0
  -21.6852   -6.0731   22.5278 C   0  0  0  0  0  0
  -21.4012   -6.5633   23.8211 C   0  0  0  0  0  0
  -21.3660   -5.6787   24.9174 C   0  0  0  0  0  0
  -21.6049   -4.3051   24.7226 C   0  0  0  0  0  0
  -21.8818   -3.8140   23.4345 C   0  0  0  0  0  0
  -21.9189   -4.6958   22.3399 C   0  0  0  0  0  0
  -22.7862  -13.5246   21.1836 C   0  0  0  0  0  0
  -22.1659   -4.2145   21.0980 F   0  0  0  0  0  0
  -21.5634   -3.4532   25.7739 F   0  0  0  0  0  0
  -30.0374  -13.3097   20.4404 N   0  0  0  0  0  0
  -26.3031  -12.9321   20.3342 N   0  0  0  0  0  0
  -25.9320  -11.6487   20.5752 N   0  0  0  0  0  0
  -22.0487  -12.8263   22.0395 N   0  0  0  0  0  0
  -25.4315  -15.1868   20.4052 N   0  0  0  0  0  0
  -31.8253  -14.6888   20.1222 O   0  0  0  0  0  0
  -21.6631   -6.8874   21.4239 O   0  0  0  0  0  0
  -22.3551  -14.5553   20.6675 O   0  0  0  0  0  0
  -24.6196  -31.8681   23.2126 C   0  0  0  0  0  0
  -25.9073  -32.4812   23.8429 C   0  0  1  0  0  0
  -27.2153  -27.3780   20.0937 C   0  0  0  0  0  0
  -25.5911  -33.8616   24.2350 N   0  0  0  0  0  0
  -23.4095  -30.4990   21.5564 C   0  0  2  0  0  0
  -24.8533  -28.9797   20.1097 C   0  0  0  0  0  0
  -22.7445  -29.4671   22.4982 C   0  0  0  0  0  0
  -18.0276  -28.1349   22.8491 C   0  0  0  0  0  0
  -24.1506  -36.7318   23.2638 C   0  0  0  0  0  0
  -25.9522  -30.8142   21.3830 C   0  0  0  0  0  0
  -26.0234  -29.4518   20.7176 C   0  0  0  0  0  0
  -27.2065  -28.6604   20.7100 C   0  0  0  0  0  0
  -26.0197  -26.9715   19.4403 C   0  0  0  0  0  0
  -24.8508  -27.7397   19.4659 C   0  0  0  0  0  0
  -23.6189  -29.8492   20.1672 C   0  0  0  0  0  0
  -25.4120  -36.3109   24.0342 C   0  0  1  0  0  0
  -20.5871  -28.3663   23.1289 C   0  0  2  0  0  0
  -20.6778  -26.9395   22.5402 C   0  0  0  0  0  0
  -19.5756  -26.6369   21.5204 C   0  0  0  0  0  0
  -18.1933  -26.7900   22.1616 C   0  0  0  0  0  0
  -19.1524  -28.8821   23.2884 C   0  0  0  0  0  0
  -18.9446  -30.1420   23.8908 C   0  0  0  0  0  0
  -17.6450  -30.6568   24.0540 C   0  0  0  0  0  0
  -25.9047  -34.9464   23.5146 C   0  0  0  0  0  0
  -16.5342  -29.9062   23.6310 C   0  0  0  0  0  0
  -16.7260  -28.6458   23.0371 C   0  0  0  0  0  0
  -26.4491  -31.6567   25.0749 C   0  0  0  0  0  0
  -25.3752  -31.3649   26.1485 C   0  0  0  0  0  0
  -27.0315  -30.2988   24.6153 C   0  0  0  0  0  0
  -27.6084  -32.4274   25.7490 C   0  0  0  0  0  0
  -27.5594  -37.1813   24.8465 C   0  0  0  0  0  0
  -21.4171  -29.3037   22.3705 N   0  0  0  0  0  0
  -26.4315  -37.3778   23.9395 N   0  0  0  0  0  0
  -24.6792  -31.0747   22.1065 N   0  0  0  0  0  0
  -23.4200  -28.8200   23.3031 O   0  0  0  0  0  0
  -28.3253  -26.5226   20.1611 O   0  0  0  0  0  0
  -26.5614  -34.8905   22.4711 O   0  0  0  0  0  0
  -23.5372  -32.1472   23.7464 O   0  0  0  0  0  0
  -29.1341  -19.1476   20.6421 C   0  0  0  0  0  0
  -29.0163  -17.7412   20.6780 C   0  0  0  0  0  0
  -31.3619  -17.5643   21.2387 C   0  0  0  0  0  0
  -30.3528  -19.8052   20.9397 C   0  0  0  0  0  0
  -31.4821  -18.9824   21.2365 C   0  0  0  0  0  0
  -30.1287  -16.9255   20.9714 C   0  0  0  0  0  0
  -29.3257  -21.9836   21.8863 C   0  0  0  0  0  0
  -30.2657  -21.9281   19.4831 C   0  0  0  0  0  0
  -29.1081  -23.5155   21.7269 C   0  0  0  0  0  0
  -30.0505  -23.4655   19.4080 C   0  0  0  0  0  0
  -30.3884  -21.3622   20.9268 C   0  0  2  0  0  0
  -28.8269  -23.8490   20.2522 C   0  0  2  0  0  0
  -33.6140  -20.0399   20.3316 C   0  0  0  0  0  0
  -32.8467  -19.5692   21.5734 C   0  0  0  0  0  0
  -28.0053  -25.1257   19.8821 C   0  0  0  0  0  0
  -29.9306  -15.5071   21.0564 N   0  0  0  0  0  0
  -31.4751  -12.4344   19.1181 H   0  0  0  0  0  0
  -30.3455  -11.3122   19.8222 H   0  0  0  0  0  0
  -29.7428  -11.7869   17.4277 H   0  0  0  0  0  0
  -29.6623  -13.4969   17.7684 H   0  0  0  0  0  0
  -27.8318  -11.3100   18.8132 H   0  0  0  0  0  0
  -27.3713  -12.6402   17.7852 H   0  0  0  0  0  0
  -27.7041  -14.2529   19.5703 H   0  0  0  0  0  0
  -28.6902  -11.9547   21.3290 H   0  0  0  0  0  0
  -28.4658  -13.5856   21.8749 H   0  0  0  0  0  0
  -25.2757   -9.5679   22.4759 H   0  0  0  0  0  0
  -23.9993   -7.4631   22.7469 H   0  0  0  0  0  0
  -21.0828   -8.8779   19.8960 H   0  0  0  0  0  0
  -22.3687  -10.9677   19.6170 H   0  0  0  0  0  0
  -21.2000   -7.6141   23.9714 H   0  0  0  0  0  0
  -21.1490   -6.0517   25.9080 H   0  0  0  0  0  0
  -22.0597   -2.7603   23.2845 H   0  0  0  0  0  0
  -22.4076  -11.9930   22.4817 H   0  0  0  0  0  0
  -21.1108  -13.1319   22.2592 H   0  0  0  0  0  0
  -24.6622  -15.8410   20.5024 H   0  0  0  0  0  0
  -26.2753  -15.6186   20.0512 H   0  0  0  0  0  0
  -26.7137  -32.5497   23.1183 H   0  0  0  0  0  0
  -25.0024  -33.9782   25.0468 H   0  0  0  0  0  0
  -22.6988  -31.3174   21.4240 H   0  0  0  0  0  0
  -23.3741  -35.9682   23.3340 H   0  0  0  0  0  0
  -24.3604  -36.8885   22.2046 H   0  0  0  0  0  0
  -23.7296  -37.6554   23.6622 H   0  0  0  0  0  0
  -26.0871  -31.5851   20.6227 H   0  0  0  0  0  0
  -26.8325  -30.8492   22.0135 H   0  0  0  0  0  0
  -28.0982  -29.0170   21.2057 H   0  0  0  0  0  0
  -25.9318  -26.0407   18.9026 H   0  0  0  0  0  0
  -23.9588  -27.3741   18.9765 H   0  0  0  0  0  0
  -23.7237  -30.6318   19.4150 H   0  0  0  0  0  0
  -22.7424  -29.2723   19.8677 H   0  0  0  0  0  0
  -25.1286  -36.2005   25.0836 H   0  0  0  0  0  0
  -20.9942  -28.3228   24.1415 H   0  0  0  0  0  0
  -20.5688  -26.2269   23.3592 H   0  0  0  0  0  0
  -21.6650  -26.7450   22.1193 H   0  0  0  0  0  0
  -19.6925  -25.6283   21.1228 H   0  0  0  0  0  0
  -19.6680  -27.3187   20.6740 H   0  0  0  0  0  0
  -17.4203  -26.6631   21.4022 H   0  0  0  0  0  0
  -18.0336  -26.0034   22.9005 H   0  0  0  0  0  0
  -19.7925  -30.7216   24.2307 H   0  0  0  0  0  0
  -17.5007  -31.6257   24.5124 H   0  0  0  0  0  0
  -15.5341  -30.2972   23.7619 H   0  0  0  0  0  0
  -15.8654  -28.0757   22.7128 H   0  0  0  0  0  0
  -24.5972  -30.6943   25.7811 H   0  0  0  0  0  0
  -24.8890  -32.2779   26.4928 H   0  0  0  0  0  0
  -25.8118  -30.8833   27.0245 H   0  0  0  0  0  0
  -26.2864  -29.6743   24.1208 H   0  0  0  0  0  0
  -27.4053  -29.7215   25.4620 H   0  0  0  0  0  0
  -27.8727  -30.4263   23.9335 H   0  0  0  0  0  0
  -27.2735  -33.3577   26.2086 H   0  0  0  0  0  0
  -28.3872  -32.6821   25.0289 H   0  0  0  0  0  0
  -28.0778  -31.8379   26.5377 H   0  0  0  0  0  0
  -28.2611  -38.0107   24.7488 H   0  0  0  0  0  0
  -28.1087  -36.2629   24.6325 H   0  0  0  0  0  0
  -27.2297  -37.1502   25.8864 H   0  0  0  0  0  0
  -20.9334  -29.8757   21.6922 H   0  0  0  0  0  0
  -26.0212  -38.2870   24.1342 H   0  0  0  0  0  0
  -28.2570  -19.7269   20.3906 H   0  0  0  0  0  0
  -28.0540  -17.2955   20.4684 H   0  0  0  0  0  0
  -32.2266  -16.9601   21.4769 H   0  0  0  0  0  0
  -28.3599  -21.5079   21.7241 H   0  0  0  0  0  0
  -29.5896  -21.7508   22.9188 H   0  0  0  0  0  0
  -31.1467  -21.6534   18.9026 H   0  0  0  0  0  0
  -29.4270  -21.4441   18.9818 H   0  0  0  0  0  0
  -29.9812  -24.0648   22.0803 H   0  0  0  0  0  0
  -28.2712  -23.8269   22.3531 H   0  0  0  0  0  0
  -29.9010  -23.7602   18.3691 H   0  0  0  0  0  0
  -30.9356  -23.9960   19.7610 H   0  0  0  0  0  0
  -31.3495  -21.7125   21.2979 H   0  0  0  0  0  0
  -28.0895  -23.0965   19.9630 H   0  0  0  0  0  0
  -34.5957  -20.4261   20.6060 H   0  0  0  0  0  0
  -33.0864  -20.8352   19.8085 H   0  0  0  0  0  0
  -33.7654  -19.2215   19.6272 H   0  0  0  0  0  0
  -33.4448  -18.8144   22.0859 H   0  0  0  0  0  0
  -32.7405  -20.3767   22.2974 H   0  0  0  0  0  0
  -27.0572  -24.9146   20.3819 H   0  0  0  0  0  0
  -27.8290  -25.0561   18.8077 H   0  0  0  0  0  0
  -29.0001  -15.2138   21.3098 H   0  0  0  0  0  0
  1 25  1  0  0  0
  1 30  2  0  0  0
  1 86  1  0  0  0
  2  3  1  0  0  0
  2 25  1  0  0  0
  2 87  1  0  0  0
  2 88  1  0  0  0
  3  4  1  0  0  0
  3 89  1  0  0  0
  3 90  1  0  0  0
  4  5  1  0  0  0
  4 91  1  0  0  0
  4 92  1  0  0  0
  5  6  1  0  0  0
  5 26  1  0  0  0
  5 93  1  0  0  0
  6 25  1  0  0  0
  6 94  1  0  0  0
  6 95  1  0  0  0
  7  8  2  0  0  0
  7 26  1  0  0  0
  7 29  1  0  0  0
  8  9  1  0  0  0
  8 22  1  0  0  0
  9 10  1  0  0  0
  9 27  2  0  0  0
 10 11  2  0  0  0
 10 15  1  0  0  0
 11 12  1  0  0  0
 11 96  1  0  0  0
 12 13  2  0  0  0
 12 97  1  0  0  0
 13 14  1  0  0  0
 13 31  1  0  0  0
 14 15  2  0  0  0
 14 98  1  0  0  0
 15 99  1  0  0  0
 16 17  2  0  0  0
 16 21  1  0  0  0
 16 31  1  0  0  0
 17 18  1  0  0  0
 17100  1  0  0  0
 18 19  2  0  0  0
 18101  1  0  0  0
 19 20  1  0  0  0
 19 24  1  0  0  0
 20 21  2  0  0  0
 20102  1  0  0  0
 21 23  1  0  0  0
 22 28  1  0  0  0
 22 32  2  0  0  0
 26 27  1  0  0  0
 28103  1  0  0  0
 28104  1  0  0  0
 29105  1  0  0  0
 29106  1  0  0  0
 33 34  1  0  0  0
 33 66  1  0  0  0
 33 70  2  0  0  0
 34 36  1  0  0  0
 34 59  1  0  0  0
 34107  1  0  0  0
 35 44  2  0  0  0
 35 45  1  0  0  0
 35 68  1  0  0  0
 36 56  1  0  0  0
 36108  1  0  0  0
 37 39  1  0  0  0
 37 47  1  0  0  0
 37 66  1  0  0  0
 37109  1  0  0  0
 38 43  2  0  0  0
 38 46  1  0  0  0
 38 47  1  0  0  0
 39 64  1  0  0  0
 39 67  2  0  0  0
 40 52  1  0  0  0
 40 53  2  0  0  0
 40 58  1  0  0  0
 41110  1  0  0  0
 41111  1  0  0  0
 41112  1  0  0  0
 41 48  1  0  0  0
 42 43  1  0  0  0
 42 66  1  0  0  0
 42113  1  0  0  0
 42114  1  0  0  0
 43 44  1  0  0  0
 44115  1  0  0  0
 45 46  2  0  0  0
 45116  1  0  0  0
 46117  1  0  0  0
 47118  1  0  0  0
 47119  1  0  0  0
 48 56  1  0  0  0
 48 65  1  0  0  0
 48120  1  0  0  0
 49 50  1  0  0  0
 49 53  1  0  0  0
 49 64  1  0  0  0
 49121  1  0  0  0
 50 51  1  0  0  0
 50122  1  0  0  0
 50123  1  0  0  0
 51 52  1  0  0  0
 51124  1  0  0  0
 51125  1  0  0  0
 52126  1  0  0  0
 52127  1  0  0  0
 53 54  1  0  0  0
 54 55  2  0  0  0
 54128  1  0  0  0
 55 57  1  0  0  0
 55129  1  0  0  0
 56 69  2  0  0  0
 57 58  2  0  0  0
 57130  1  0  0  0
 58131  1  0  0  0
 59 60  1  0  0  0
 59 61  1  0  0  0
 59 62  1  0  0  0
 60132  1  0  0  0
 60133  1  0  0  0
 60134  1  0  0  0
 61135  1  0  0  0
 61136  1  0  0  0
 61137  1  0  0  0
 62138  1  0  0  0
 62139  1  0  0  0
 62140  1  0  0  0
 63 65  1  0  0  0
 63141  1  0  0  0
 63142  1  0  0  0
 63143  1  0  0  0
 64144  1  0  0  0
 65145  1  0  0  0
 68 85  1  0  0  0
 71 72  2  0  0  0
 71 74  1  0  0  0
 71146  1  0  0  0
 72 76  1  0  0  0
 72147  1  0  0  0
 73 75  1  0  0  0
 73 76  2  0  0  0
 73148  1  0  0  0
 74 75  2  0  0  0
 74 81  1  0  0  0
 75 84  1  0  0  0
 76 86  1  0  0  0
 77 79  1  0  0  0
 77 81  1  0  0  0
 77149  1  0  0  0
 77150  1  0  0  0
 78 80  1  0  0  0
 78 81  1  0  0  0
 78151  1  0  0  0
 78152  1  0  0  0
 79 82  1  0  0  0
 79153  1  0  0  0
 79154  1  0  0  0
 80 82  1  0  0  0
 80155  1  0  0  0
 80156  1  0  0  0
 81157  1  0  0  0
 82 85  1  0  0  0
 82158  1  0  0  0
 83 84  1  0  0  0
 83159  1  0  0  0
 83160  1  0  0  0
 83161  1  0  0  0
 84162  1  0  0  0
 84163  1  0  0  0
 85164  1  0  0  0
 85165  1  0  0  0
 86166  1  0  0  0
M  ISO  4   1 100  68 101  85 101  86 100
M  END
> <chiral flag>
0

> <version>
0

> <s_m_source_file>
/data/baiqing/PycharmProjects/Reinvent-master-3.2/result/LINK_invent/BTK/process_docking_weight1_custom_product_contain_oxygen_bond_distance_aromatic_linkinvent_7_9_3/rearranged_h_0135.sdf

> <i_m_source_file_index>
6

> <r_mmod_Potential_Energy-OPLS-2005>
81.0699615478516

> <r_mmod_Stretch_Energy-OPLS-2005>
52.1205444335938

> <r_mmod_Bend_Energy-OPLS-2005>
151.530303955078

> <r_mmod_Torsional_Energy-OPLS-2005>
246.365051269531

> <r_mmod_Improper_Torsional_Energy-OPLS-2005>
4.46894598007202

> <r_mmod_Van_der_Waal_Energy-OPLS-2005>
169.656372070312

> <r_mmod_Electrostatic_Energy-OPLS-2005>
-370.036071777344

> <r_mmod_Solvation_Energy-OPLS-2005>
-198.361602783203

> <b_mmod_Minimization_Converged-OPLS-2005>
0

> <r_mmod_RMS_Derivative-OPLS-2005>
1.35794007778168

$$$$
6
                    3D
 Structure written by MMmdl.
162170  0  0  1  0            999 V2000
  -30.6774  -14.4925   20.5337 C   0  0  0  0  0  0
  -30.4304  -12.3075   19.4310 C   0  0  0  0  0  0
  -29.5017  -12.5024   18.2136 C   0  0  0  0  0  0
  -28.0210  -12.3677   18.6237 C   0  0  0  0  0  0
  -27.6648  -13.2032   19.8826 C   0  0  2  0  0  0
  -28.7077  -12.9882   21.0042 C   0  0  0  0  0  0
  -25.2611  -13.8157   20.5697 C   0  0  0  0  0  0
  -24.1850  -13.0442   20.9172 C   0  0  0  0  0  0
  -24.6402  -11.6902   20.8745 C   0  0  0  0  0  0
  -23.9062  -10.4290   21.0416 C   0  0  0  0  0  0
  -24.3612   -9.4206   21.9199 C   0  0  0  0  0  0
  -23.6276   -8.2246   22.0775 C   0  0  0  0  0  0
  -22.4257   -8.0288   21.3555 C   0  0  0  0  0  0
  -21.9891   -9.0271   20.4665 C   0  0  0  0  0  0
  -22.7230  -10.2147   20.3069 C   0  0  0  0  0  0
  -21.6851   -6.0738   22.5284 C   0  0  0  0  0  0
  -21.4020   -6.5648   23.8221 C   0  0  0  0  0  0
  -21.3653   -5.6800   24.9182 C   0  0  0  0  0  0
  -21.6042   -4.3062   24.7233 C   0  0  0  0  0  0
  -21.8814   -3.8149   23.4354 C   0  0  0  0  0  0
  -21.9196   -4.6964   22.3406 C   0  0  0  0  0  0
  -22.7876  -13.5254   21.1826 C   0  0  0  0  0  0
  -22.1660   -4.2157   21.0981 F   0  0  0  0  0  0
  -21.5620   -3.4542   25.7742 F   0  0  0  0  0  0
  -30.0391  -13.2925   20.4531 N   0  0  0  0  0  0
  -26.3046  -12.9313   20.3402 N   0  0  0  0  0  0
  -25.9330  -11.6479   20.5789 N   0  0  0  0  0  0
  -22.0490  -12.8273   22.0383 N   0  0  0  0  0  0
  -25.4323  -15.1880   20.4114 N   0  0  0  0  0  0
  -31.8073  -14.6855   20.0758 O   0  0  0  0  0  0
  -21.6633   -6.8876   21.4238 O   0  0  0  0  0  0
  -22.3569  -14.5556   20.6666 O   0  0  0  0  0  0
  -24.6150  -31.8664   23.2098 C   0  0  0  0  0  0
  -25.9047  -32.4805   23.8389 C   0  0  1  0  0  0
  -27.2323  -27.4159   20.0862 C   0  0  0  0  0  0
  -25.5899  -33.8606   24.2309 N   0  0  0  0  0  0
  -23.4020  -30.4897   21.5521 C   0  0  2  0  0  0
  -24.8450  -28.9541   20.1126 C   0  0  0  0  0  0
  -22.7400  -29.4644   22.5010 C   0  0  0  0  0  0
  -18.0265  -28.1373   22.8503 C   0  0  0  0  0  0
  -24.1480  -36.7308   23.2636 C   0  0  0  0  0  0
  -25.9325  -30.8245   21.3665 C   0  0  0  0  0  0
  -26.0059  -29.4589   20.7092 C   0  0  0  0  0  0
  -27.1972  -28.6961   20.6929 C   0  0  0  0  0  0
  -26.0461  -26.9270   19.4903 C   0  0  0  0  0  0
  -24.8613  -27.6880   19.5037 C   0  0  0  0  0  0
  -23.6072  -29.8218   20.1659 C   0  0  0  0  0  0
  -25.4101  -36.3094   24.0327 C   0  0  1  0  0  0
  -20.5855  -28.3646   23.1337 C   0  0  2  0  0  0
  -20.6748  -26.9383   22.5424 C   0  0  0  0  0  0
  -19.5725  -26.6379   21.5219 C   0  0  0  0  0  0
  -18.1910  -26.7921   22.1638 C   0  0  0  0  0  0
  -19.1518  -28.8831   23.2914 C   0  0  0  0  0  0
  -18.9444  -30.1446   23.8905 C   0  0  0  0  0  0
  -17.6444  -30.6582   24.0563 C   0  0  0  0  0  0
  -25.9032  -34.9462   23.5116 C   0  0  0  0  0  0
  -16.5335  -29.9078   23.6331 C   0  0  0  0  0  0
  -16.7254  -28.6498   23.0348 C   0  0  0  0  0  0
  -26.4461  -31.6607   25.0742 C   0  0  0  0  0  0
  -25.3727  -31.3737   26.1499 C   0  0  0  0  0  0
  -27.0277  -30.3034   24.6157 C   0  0  0  0  0  0
  -27.6028  -32.4326   25.7517 C   0  0  0  0  0  0
  -27.5568  -37.1810   24.8460 C   0  0  0  0  0  0
  -21.4129  -29.3011   22.3751 N   0  0  0  0  0  0
  -26.4280  -37.3784   23.9405 N   0  0  0  0  0  0
  -24.6683  -31.0746   22.1007 N   0  0  0  0  0  0
  -23.4178  -28.8178   23.3045 O   0  0  0  0  0  0
  -28.4259  -26.7132   20.1059 O   0  0  0  0  0  0
  -26.5594  -34.8917   22.4678 O   0  0  0  0  0  0
  -23.5341  -32.1435   23.7473 O   0  0  0  0  0  0
  -28.8529  -17.9048   18.3338 C   0  0  0  0  0  0
  -29.0412  -19.1454   18.9691 C   0  0  0  0  0  0
  -29.1912  -16.7091   18.9964 C   0  0  0  0  0  0
  -29.8943  -17.9960   20.9430 C   0  0  0  0  0  0
  -29.5744  -19.2113   20.2732 C   0  0  0  0  0  0
  -29.7085  -16.7381   20.3123 C   0  0  0  0  0  0
  -29.8331  -20.5427   20.8911 C   0  0  0  0  0  0
  -26.9408  -24.0661   21.0916 C   0  0  0  0  0  0
  -29.2824  -24.6114   21.8803 C   0  0  0  0  0  0
  -28.7062  -21.5835   20.9276 C   0  0  0  0  0  0
  -28.9399  -22.8724   20.0710 C   0  0  0  0  0  0
  -28.5440  -25.3665   19.5945 C   0  0  0  0  0  0
  -28.4142  -24.2266   20.6627 C   0  0  0  0  0  0
  -30.9429  -20.8167   21.4347 N   0  0  0  0  0  0
  -29.9381  -15.5126   21.0159 N   0  0  0  0  0  0
  -31.4747  -12.4114   19.1289 H   0  0  0  0  0  0
  -30.3368  -11.2960   19.8285 H   0  0  0  0  0  0
  -29.7406  -11.7756   17.4359 H   0  0  0  0  0  0
  -29.6760  -13.4853   17.7743 H   0  0  0  0  0  0
  -27.8283  -11.3119   18.8169 H   0  0  0  0  0  0
  -27.3732  -12.6473   17.7919 H   0  0  0  0  0  0
  -27.7015  -14.2507   19.5887 H   0  0  0  0  0  0
  -28.6857  -11.9540   21.3519 H   0  0  0  0  0  0
  -28.4714  -13.5951   21.8790 H   0  0  0  0  0  0
  -25.2760   -9.5690   22.4775 H   0  0  0  0  0  0
  -24.0000   -7.4635   22.7495 H   0  0  0  0  0  0
  -21.0824   -8.8793   19.8971 H   0  0  0  0  0  0
  -22.3693  -10.9691   19.6183 H   0  0  0  0  0  0
  -21.2020   -7.6160   23.9724 H   0  0  0  0  0  0
  -21.1471   -6.0533   25.9087 H   0  0  0  0  0  0
  -22.0595   -2.7611   23.2854 H   0  0  0  0  0  0
  -22.4066  -11.9939   22.4805 H   0  0  0  0  0  0
  -21.1122  -13.1356   22.2570 H   0  0  0  0  0  0
  -24.6666  -15.8417   20.5294 H   0  0  0  0  0  0
  -26.2874  -15.6315   20.1008 H   0  0  0  0  0  0
  -26.7116  -32.5500   23.1148 H   0  0  0  0  0  0
  -25.0040  -33.9771   25.0448 H   0  0  0  0  0  0
  -22.6908  -31.3061   21.4144 H   0  0  0  0  0  0
  -23.3725  -35.9662   23.3316 H   0  0  0  0  0  0
  -24.3560  -36.8910   22.2044 H   0  0  0  0  0  0
  -23.7260  -37.6528   23.6645 H   0  0  0  0  0  0
  -26.0532  -31.5936   20.6021 H   0  0  0  0  0  0
  -26.8159  -30.8698   21.9916 H   0  0  0  0  0  0
  -28.0942  -29.0839   21.1561 H   0  0  0  0  0  0
  -26.0014  -25.9572   19.0199 H   0  0  0  0  0  0
  -23.9669  -27.2902   19.0448 H   0  0  0  0  0  0
  -23.7092  -30.5969   19.4051 H   0  0  0  0  0  0
  -22.7304  -29.2404   19.8755 H   0  0  0  0  0  0
  -25.1283  -36.1948   25.0820 H   0  0  0  0  0  0
  -20.9947  -28.3193   24.1458 H   0  0  0  0  0  0
  -20.5650  -26.2239   23.3599 H   0  0  0  0  0  0
  -21.6620  -26.7421   22.1217 H   0  0  0  0  0  0
  -19.6877  -25.6296   21.1229 H   0  0  0  0  0  0
  -19.6669  -27.3207   20.6761 H   0  0  0  0  0  0
  -17.4174  -26.6670   21.4043 H   0  0  0  0  0  0
  -18.0311  -26.0067   22.9039 H   0  0  0  0  0  0
  -19.7921  -30.7271   24.2265 H   0  0  0  0  0  0
  -17.4995  -31.6265   24.5157 H   0  0  0  0  0  0
  -15.5336  -30.2972   23.7660 H   0  0  0  0  0  0
  -15.8655  -28.0819   22.7047 H   0  0  0  0  0  0
  -24.5893  -30.7083   25.7864 H   0  0  0  0  0  0
  -24.8932  -32.2903   26.4948 H   0  0  0  0  0  0
  -25.8089  -30.8925   27.0263 H   0  0  0  0  0  0
  -26.2846  -29.6833   24.1138 H   0  0  0  0  0  0
  -27.3927  -29.7242   25.4651 H   0  0  0  0  0  0
  -27.8733  -30.4315   23.9394 H   0  0  0  0  0  0
  -27.2632  -33.3596   26.2151 H   0  0  0  0  0  0
  -28.3829  -32.6938   25.0356 H   0  0  0  0  0  0
  -28.0716  -31.8426   26.5406 H   0  0  0  0  0  0
  -28.2595  -38.0094   24.7479 H   0  0  0  0  0  0
  -28.1051  -36.2623   24.6316 H   0  0  0  0  0  0
  -27.2282  -37.1504   25.8863 H   0  0  0  0  0  0
  -20.9277  -29.8737   21.6992 H   0  0  0  0  0  0
  -26.0160  -38.2858   24.1407 H   0  0  0  0  0  0
  -28.4492  -17.8708   17.3313 H   0  0  0  0  0  0
  -28.7916  -20.0563   18.4402 H   0  0  0  0  0  0
  -29.0293  -15.7736   18.4806 H   0  0  0  0  0  0
  -30.2864  -18.0374   21.9496 H   0  0  0  0  0  0
  -26.8218  -23.3406   21.8965 H   0  0  0  0  0  0
  -26.3180  -23.7344   20.2593 H   0  0  0  0  0  0
  -26.5269  -25.0037   21.4600 H   0  0  0  0  0  0
  -29.2925  -23.8390   22.6483 H   0  0  0  0  0  0
  -28.9273  -25.5281   22.3522 H   0  0  0  0  0  0
  -30.3180  -24.7833   21.5822 H   0  0  0  0  0  0
  -28.5649  -21.8442   21.9756 H   0  0  0  0  0  0
  -27.7685  -21.1116   20.6308 H   0  0  0  0  0  0
  -28.4727  -22.7044   19.0997 H   0  0  0  0  0  0
  -30.0025  -22.9816   19.8509 H   0  0  0  0  0  0
  -29.5571  -25.3223   19.1942 H   0  0  0  0  0  0
  -27.9206  -25.1794   18.7214 H   0  0  0  0  0  0
  -31.5946  -20.0424   21.3619 H   0  0  0  0  0  0
  -29.1562  -15.2057   21.5741 H   0  0  0  0  0  0
  1 25  1  0  0  0
  1 30  2  0  0  0
  1 85  1  0  0  0
  2  3  1  0  0  0
  2 25  1  0  0  0
  2 86  1  0  0  0
  2 87  1  0  0  0
  3  4  1  0  0  0
  3 88  1  0  0  0
  3 89  1  0  0  0
  4  5  1  0  0  0
  4 90  1  0  0  0
  4 91  1  0  0  0
  5  6  1  0  0  0
  5 26  1  0  0  0
  5 92  1  0  0  0
  6 25  1  0  0  0
  6 93  1  0  0  0
  6 94  1  0  0  0
  7  8  2  0  0  0
  7 26  1  0  0  0
  7 29  1  0  0  0
  8  9  1  0  0  0
  8 22  1  0  0  0
  9 10  1  0  0  0
  9 27  2  0  0  0
 10 11  2  0  0  0
 10 15  1  0  0  0
 11 12  1  0  0  0
 11 95  1  0  0  0
 12 13  2  0  0  0
 12 96  1  0  0  0
 13 14  1  0  0  0
 13 31  1  0  0  0
 14 15  2  0  0  0
 14 97  1  0  0  0
 15 98  1  0  0  0
 16 17  2  0  0  0
 16 21  1  0  0  0
 16 31  1  0  0  0
 17 18  1  0  0  0
 17 99  1  0  0  0
 18 19  2  0  0  0
 18100  1  0  0  0
 19 20  1  0  0  0
 19 24  1  0  0  0
 20 21  2  0  0  0
 20101  1  0  0  0
 21 23  1  0  0  0
 22 28  1  0  0  0
 22 32  2  0  0  0
 26 27  1  0  0  0
 28102  1  0  0  0
 28103  1  0  0  0
 29104  1  0  0  0
 29105  1  0  0  0
 33 34  1  0  0  0
 33 66  1  0  0  0
 33 70  2  0  0  0
 34 36  1  0  0  0
 34 59  1  0  0  0
 34106  1  0  0  0
 35 44  2  0  0  0
 35 45  1  0  0  0
 35 68  1  0  0  0
 36 56  1  0  0  0
 36107  1  0  0  0
 37 39  1  0  0  0
 37 47  1  0  0  0
 37 66  1  0  0  0
 37108  1  0  0  0
 38 43  2  0  0  0
 38 46  1  0  0  0
 38 47  1  0  0  0
 39 64  1  0  0  0
 39 67  2  0  0  0
 40 52  1  0  0  0
 40 53  2  0  0  0
 40 58  1  0  0  0
 41109  1  0  0  0
 41110  1  0  0  0
 41111  1  0  0  0
 41 48  1  0  0  0
 42 43  1  0  0  0
 42 66  1  0  0  0
 42112  1  0  0  0
 42113  1  0  0  0
 43 44  1  0  0  0
 44114  1  0  0  0
 45 46  2  0  0  0
 45115  1  0  0  0
 46116  1  0  0  0
 47117  1  0  0  0
 47118  1  0  0  0
 48 56  1  0  0  0
 48 65  1  0  0  0
 48119  1  0  0  0
 49 50  1  0  0  0
 49 53  1  0  0  0
 49 64  1  0  0  0
 49120  1  0  0  0
 50 51  1  0  0  0
 50121  1  0  0  0
 50122  1  0  0  0
 51 52  1  0  0  0
 51123  1  0  0  0
 51124  1  0  0  0
 52125  1  0  0  0
 52126  1  0  0  0
 53 54  1  0  0  0
 54 55  2  0  0  0
 54127  1  0  0  0
 55 57  1  0  0  0
 55128  1  0  0  0
 56 69  2  0  0  0
 57 58  2  0  0  0
 57129  1  0  0  0
 58130  1  0  0  0
 59 60  1  0  0  0
 59 61  1  0  0  0
 59 62  1  0  0  0
 60131  1  0  0  0
 60132  1  0  0  0
 60133  1  0  0  0
 61134  1  0  0  0
 61135  1  0  0  0
 61136  1  0  0  0
 62137  1  0  0  0
 62138  1  0  0  0
 62139  1  0  0  0
 63 65  1  0  0  0
 63140  1  0  0  0
 63141  1  0  0  0
 63142  1  0  0  0
 64143  1  0  0  0
 65144  1  0  0  0
 68 82  1  0  0  0
 71 72  2  0  0  0
 71 73  1  0  0  0
 71145  1  0  0  0
 72 75  1  0  0  0
 72146  1  0  0  0
 73 76  2  0  0  0
 73147  1  0  0  0
 74 75  2  0  0  0
 74 76  1  0  0  0
 74148  1  0  0  0
 75 77  1  0  0  0
 76 85  1  0  0  0
 77 80  1  0  0  0
 77 84  2  0  0  0
 78149  1  0  0  0
 78150  1  0  0  0
 78151  1  0  0  0
 78 83  1  0  0  0
 79 83  1  0  0  0
 79152  1  0  0  0
 79153  1  0  0  0
 79154  1  0  0  0
 80 81  1  0  0  0
 80155  1  0  0  0
 80156  1  0  0  0
 81 83  1  0  0  0
 81157  1  0  0  0
 81158  1  0  0  0
 82 83  1  0  0  0
 82159  1  0  0  0
 82160  1  0  0  0
 84161  1  0  0  0
 85162  1  0  0  0
M  ISO  4   1 100  68 101  82 101  85 100
M  END
> <chiral flag>
0

> <version>
0

> <s_m_source_file>
/data/baiqing/PycharmProjects/Reinvent-master-3.2/result/LINK_invent/BTK/process_docking_weight1_custom_product_contain_oxygen_bond_distance_aromatic_linkinvent_7_9_3/rearranged_h_0135.sdf

> <i_m_source_file_index>
7

> <r_mmod_Potential_Energy-OPLS-2005>
-13.9387130737305

> <r_mmod_Stretch_Energy-OPLS-2005>
43.7425918579102

> <r_mmod_Bend_Energy-OPLS-2005>
113.970497131348

> <r_mmod_Torsional_Energy-OPLS-2005>
262.397979736328

> <r_mmod_Improper_Torsional_Energy-OPLS-2005>
6.64469766616821

> <r_mmod_Van_der_Waal_Energy-OPLS-2005>
146.042617797852

> <r_mmod_Electrostatic_Energy-OPLS-2005>
-390.515411376953

> <r_mmod_Solvation_Energy-OPLS-2005>
-211.445190429688

> <b_mmod_Minimization_Converged-OPLS-2005>
0

> <r_mmod_RMS_Derivative-OPLS-2005>
1.91762864589691

$$$$
7
                    3D
 Structure written by MMmdl.
159167  0  0  1  0            999 V2000
  -30.7159  -14.5248   20.4054 C   0  0  0  0  0  0
  -30.4203  -12.2892   19.4408 C   0  0  0  0  0  0
  -29.4909  -12.3853   18.2127 C   0  0  0  0  0  0
  -28.0078  -12.3036   18.6309 C   0  0  0  0  0  0
  -27.6447  -13.2039   19.8429 C   0  0  2  0  0  0
  -28.7029  -13.1108   20.9644 C   0  0  0  0  0  0
  -25.2541  -13.8115   20.5776 C   0  0  0  0  0  0
  -24.1795  -13.0393   20.9207 C   0  0  0  0  0  0
  -24.6373  -11.6883   20.8756 C   0  0  0  0  0  0
  -23.9050  -10.4270   21.0411 C   0  0  0  0  0  0
  -24.3601   -9.4187   21.9185 C   0  0  0  0  0  0
  -23.6272   -8.2228   22.0757 C   0  0  0  0  0  0
  -22.4262   -8.0266   21.3538 C   0  0  0  0  0  0
  -21.9905   -9.0241   20.4642 C   0  0  0  0  0  0
  -22.7231  -10.2119   20.3058 C   0  0  0  0  0  0
  -21.6846   -6.0723   22.5276 C   0  0  0  0  0  0
  -21.4006   -6.5629   23.8211 C   0  0  0  0  0  0
  -21.3656   -5.6783   24.9175 C   0  0  0  0  0  0
  -21.6052   -4.3045   24.7224 C   0  0  0  0  0  0
  -21.8821   -3.8134   23.4348 C   0  0  0  0  0  0
  -21.9189   -4.6950   22.3403 C   0  0  0  0  0  0
  -22.7826  -13.5203   21.1863 C   0  0  0  0  0  0
  -22.1661   -4.2136   21.0979 F   0  0  0  0  0  0
  -21.5646   -3.4536   25.7741 F   0  0  0  0  0  0
  -30.0292  -13.3485   20.3794 N   0  0  0  0  0  0
  -26.2962  -12.9302   20.3336 N   0  0  0  0  0  0
  -25.9304  -11.6471   20.5810 N   0  0  0  0  0  0
  -22.0477  -12.8184   22.0419 N   0  0  0  0  0  0
  -25.4217  -15.1834   20.4366 N   0  0  0  0  0  0
  -31.9433  -14.5865   20.3190 O   0  0  0  0  0  0
  -21.6630   -6.8865   21.4239 O   0  0  0  0  0  0
  -22.3523  -14.5511   20.6716 O   0  0  0  0  0  0
  -24.6116  -31.8695   23.2108 C   0  0  0  0  0  0
  -25.9017  -32.4827   23.8403 C   0  0  1  0  0  0
  -27.2374  -27.4503   20.1065 C   0  0  0  0  0  0
  -25.5891  -33.8624   24.2336 N   0  0  0  0  0  0
  -23.3997  -30.4930   21.5498 C   0  0  2  0  0  0
  -24.8505  -28.9661   20.1070 C   0  0  0  0  0  0
  -22.7388  -29.4673   22.4984 C   0  0  0  0  0  0
  -18.0270  -28.1377   22.8490 C   0  0  0  0  0  0
  -24.1493  -36.7326   23.2643 C   0  0  0  0  0  0
  -25.9262  -30.8438   21.3595 C   0  0  0  0  0  0
  -26.0075  -29.4804   20.7058 C   0  0  0  0  0  0
  -27.2063  -28.7319   20.6989 C   0  0  0  0  0  0
  -26.0669  -26.9527   19.4905 C   0  0  0  0  0  0
  -24.8771  -27.7045   19.4874 C   0  0  0  0  0  0
  -23.6059  -29.8236   20.1636 C   0  0  0  0  0  0
  -25.4113  -36.3120   24.0345 C   0  0  1  0  0  0
  -20.5858  -28.3672   23.1315 C   0  0  2  0  0  0
  -20.6762  -26.9408   22.5421 C   0  0  0  0  0  0
  -19.5753  -26.6390   21.5206 C   0  0  0  0  0  0
  -18.1921  -26.7938   22.1597 C   0  0  0  0  0  0
  -19.1517  -28.8837   23.2904 C   0  0  0  0  0  0
  -18.9441  -30.1444   23.8912 C   0  0  0  0  0  0
  -17.6442  -30.6585   24.0563 C   0  0  0  0  0  0
  -25.9037  -34.9480   23.5136 C   0  0  0  0  0  0
  -16.5333  -29.9080   23.6328 C   0  0  0  0  0  0
  -16.7258  -28.6499   23.0347 C   0  0  0  0  0  0
  -26.4450  -31.6586   25.0715 C   0  0  0  0  0  0
  -25.3721  -31.3646   26.1452 C   0  0  0  0  0  0
  -27.0287  -30.3047   24.6057 C   0  0  0  0  0  0
  -27.6034  -32.4293   25.7482 C   0  0  0  0  0  0
  -27.5588  -37.1818   24.8460 C   0  0  0  0  0  0
  -21.4118  -29.3040   22.3714 N   0  0  0  0  0  0
  -26.4299  -37.3799   23.9408 N   0  0  0  0  0  0
  -24.6641  -31.0819   22.0991 N   0  0  0  0  0  0
  -23.4164  -28.8222   23.3029 O   0  0  0  0  0  0
  -28.3873  -26.6921   20.1550 O   0  0  0  0  0  0
  -26.5597  -34.8927   22.4694 O   0  0  0  0  0  0
  -23.5312  -32.1426   23.7519 O   0  0  0  0  0  0
  -30.5887  -17.3972   21.5663 C   0  0  0  0  0  0
  -30.4554  -18.6590   22.1863 C   0  0  0  0  0  0
  -28.4667  -19.0856   20.8770 C   0  0  0  0  0  0
  -29.6867  -16.9593   20.5608 C   0  0  0  0  0  0
  -29.4039  -19.5235   21.8255 C   0  0  0  0  0  0
  -28.5935  -17.8322   20.2400 C   0  0  0  0  0  0
  -29.9749  -15.7085   19.7657 C   0  0  0  0  0  0
  -29.3064  -23.4697   22.0108 C   0  0  0  0  0  0
  -27.5342  -17.5285   19.1836 C   0  0  0  0  0  0
  -29.2576  -20.9135   22.4414 C   0  0  0  0  0  0
  -29.5865  -22.0631   21.4533 C   0  0  0  0  0  0
  -29.5160  -24.6818   21.0883 C   0  0  0  0  0  0
  -28.1908  -25.3904   20.7328 C   0  0  0  0  0  0
  -29.7248  -15.6830   18.5227 N   0  0  0  0  0  0
  -28.9282  -23.6321   23.1748 O   0  0  0  0  0  0
  -31.4626  -12.3754   19.1286 H   0  0  0  0  0  0
  -30.3250  -11.3139   19.9191 H   0  0  0  0  0  0
  -29.7178  -11.5734   17.5208 H   0  0  0  0  0  0
  -29.6809  -13.2975   17.6512 H   0  0  0  0  0  0
  -27.8045  -11.2609   18.8763 H   0  0  0  0  0  0
  -27.3653  -12.5437   17.7822 H   0  0  0  0  0  0
  -27.6371  -14.2235   19.4693 H   0  0  0  0  0  0
  -28.6801  -12.1307   21.4411 H   0  0  0  0  0  0
  -28.4939  -13.8422   21.7474 H   0  0  0  0  0  0
  -25.2752   -9.5685   22.4752 H   0  0  0  0  0  0
  -23.9990   -7.4637   22.7477 H   0  0  0  0  0  0
  -21.0854   -8.8770   19.8927 H   0  0  0  0  0  0
  -22.3696  -10.9673   19.6173 H   0  0  0  0  0  0
  -21.1992   -7.6137   23.9710 H   0  0  0  0  0  0
  -21.1481   -6.0512   25.9076 H   0  0  0  0  0  0
  -22.0603   -2.7600   23.2854 H   0  0  0  0  0  0
  -22.4109  -11.9845   22.4798 H   0  0  0  0  0  0
  -21.1101  -13.1211   22.2646 H   0  0  0  0  0  0
  -24.6608  -15.8370   20.5860 H   0  0  0  0  0  0
  -26.2993  -15.6350   20.2197 H   0  0  0  0  0  0
  -26.7108  -32.5561   23.1191 H   0  0  0  0  0  0
  -25.0057  -33.9783   25.0489 H   0  0  0  0  0  0
  -22.6873  -31.3091   21.4124 H   0  0  0  0  0  0
  -23.3770  -35.9641   23.3269 H   0  0  0  0  0  0
  -24.3590  -36.8980   22.2066 H   0  0  0  0  0  0
  -23.7225  -37.6506   23.6691 H   0  0  0  0  0  0
  -26.0284  -31.6099   20.5900 H   0  0  0  0  0  0
  -26.8165  -30.9021   21.9729 H   0  0  0  0  0  0
  -28.0978  -29.1219   21.1700 H   0  0  0  0  0  0
  -26.0692  -25.9864   19.0084 H   0  0  0  0  0  0
  -23.9934  -27.3094   19.0050 H   0  0  0  0  0  0
  -23.6958  -30.5968   19.3996 H   0  0  0  0  0  0
  -22.7335  -29.2323   19.8799 H   0  0  0  0  0  0
  -25.1283  -36.1988   25.0840 H   0  0  0  0  0  0
  -20.9950  -28.3255   24.1441 H   0  0  0  0  0  0
  -20.5660  -26.2274   23.3606 H   0  0  0  0  0  0
  -21.6637  -26.7453   22.1227 H   0  0  0  0  0  0
  -19.6916  -25.6300   21.1232 H   0  0  0  0  0  0
  -19.6703  -27.3193   20.6733 H   0  0  0  0  0  0
  -17.4203  -26.6707   21.3981 H   0  0  0  0  0  0
  -18.0298  -26.0060   22.8969 H   0  0  0  0  0  0
  -19.7913  -30.7253   24.2291 H   0  0  0  0  0  0
  -17.4998  -31.6262   24.5169 H   0  0  0  0  0  0
  -15.5335  -30.2977   23.7650 H   0  0  0  0  0  0
  -15.8664  -28.0817   22.7054 H   0  0  0  0  0  0
  -24.5927  -30.6966   25.7759 H   0  0  0  0  0  0
  -24.8872  -32.2778   26.4912 H   0  0  0  0  0  0
  -25.8085  -30.8800   27.0194 H   0  0  0  0  0  0
  -26.2819  -29.6804   24.1142 H   0  0  0  0  0  0
  -27.4105  -29.7276   25.4483 H   0  0  0  0  0  0
  -27.8627  -30.4377   23.9163 H   0  0  0  0  0  0
  -27.2668  -33.3586   26.2081 H   0  0  0  0  0  0
  -28.3833  -32.6842   25.0299 H   0  0  0  0  0  0
  -28.0713  -31.8395   26.5370 H   0  0  0  0  0  0
  -28.2594  -38.0130   24.7534 H   0  0  0  0  0  0
  -28.1100  -36.2659   24.6264 H   0  0  0  0  0  0
  -27.2306  -37.1444   25.8863 H   0  0  0  0  0  0
  -20.9267  -29.8745   21.6927 H   0  0  0  0  0  0
  -26.0194  -38.2876   24.1414 H   0  0  0  0  0  0
  -31.4413  -16.7919   21.8410 H   0  0  0  0  0  0
  -31.1857  -18.9694   22.9225 H   0  0  0  0  0  0
  -27.6478  -19.7402   20.6070 H   0  0  0  0  0  0
  -26.5795  -17.9915   19.4380 H   0  0  0  0  0  0
  -27.3413  -16.4659   19.0639 H   0  0  0  0  0  0
  -27.8426  -17.9275   18.2161 H   0  0  0  0  0  0
  -29.8920  -20.9885   23.3255 H   0  0  0  0  0  0
  -28.2313  -21.0141   22.7981 H   0  0  0  0  0  0
  -30.6348  -22.0070   21.1604 H   0  0  0  0  0  0
  -28.9996  -21.9455   20.5424 H   0  0  0  0  0  0
  -30.0381  -24.3723   20.1837 H   0  0  0  0  0  0
  -30.1737  -25.3781   21.6093 H   0  0  0  0  0  0
  -27.5848  -25.4961   21.6363 H   0  0  0  0  0  0
  -27.6313  -24.7527   20.0473 H   0  0  0  0  0  0
  -29.3106  -16.5585   18.2322 H   0  0  0  0  0  0
  1 25  1  0  0  0
  1 30  2  0  0  0
  1 77  1  0  0  0
  2  3  1  0  0  0
  2 25  1  0  0  0
  2 86  1  0  0  0
  2 87  1  0  0  0
  3  4  1  0  0  0
  3 88  1  0  0  0
  3 89  1  0  0  0
  4  5  1  0  0  0
  4 90  1  0  0  0
  4 91  1  0  0  0
  5  6  1  0  0  0
  5 26  1  0  0  0
  5 92  1  0  0  0
  6 25  1  0  0  0
  6 93  1  0  0  0
  6 94  1  0  0  0
  7  8  2  0  0  0
  7 26  1  0  0  0
  7 29  1  0  0  0
  8  9  1  0  0  0
  8 22  1  0  0  0
  9 10  1  0  0  0
  9 27  2  0  0  0
 10 11  2  0  0  0
 10 15  1  0  0  0
 11 12  1  0  0  0
 11 95  1  0  0  0
 12 13  2  0  0  0
 12 96  1  0  0  0
 13 14  1  0  0  0
 13 31  1  0  0  0
 14 15  2  0  0  0
 14 97  1  0  0  0
 15 98  1  0  0  0
 16 17  2  0  0  0
 16 21  1  0  0  0
 16 31  1  0  0  0
 17 18  1  0  0  0
 17 99  1  0  0  0
 18 19  2  0  0  0
 18100  1  0  0  0
 19 20  1  0  0  0
 19 24  1  0  0  0
 20 21  2  0  0  0
 20101  1  0  0  0
 21 23  1  0  0  0
 22 28  1  0  0  0
 22 32  2  0  0  0
 26 27  1  0  0  0
 28102  1  0  0  0
 28103  1  0  0  0
 29104  1  0  0  0
 29105  1  0  0  0
 33 34  1  0  0  0
 33 66  1  0  0  0
 33 70  2  0  0  0
 34 36  1  0  0  0
 34 59  1  0  0  0
 34106  1  0  0  0
 35 44  2  0  0  0
 35 45  1  0  0  0
 35 68  1  0  0  0
 36 56  1  0  0  0
 36107  1  0  0  0
 37 39  1  0  0  0
 37 47  1  0  0  0
 37 66  1  0  0  0
 37108  1  0  0  0
 38 43  2  0  0  0
 38 46  1  0  0  0
 38 47  1  0  0  0
 39 64  1  0  0  0
 39 67  2  0  0  0
 40 52  1  0  0  0
 40 53  2  0  0  0
 40 58  1  0  0  0
 41109  1  0  0  0
 41110  1  0  0  0
 41111  1  0  0  0
 41 48  1  0  0  0
 42 43  1  0  0  0
 42 66  1  0  0  0
 42112  1  0  0  0
 42113  1  0  0  0
 43 44  1  0  0  0
 44114  1  0  0  0
 45 46  2  0  0  0
 45115  1  0  0  0
 46116  1  0  0  0
 47117  1  0  0  0
 47118  1  0  0  0
 48 56  1  0  0  0
 48 65  1  0  0  0
 48119  1  0  0  0
 49 50  1  0  0  0
 49 53  1  0  0  0
 49 64  1  0  0  0
 49120  1  0  0  0
 50 51  1  0  0  0
 50121  1  0  0  0
 50122  1  0  0  0
 51 52  1  0  0  0
 51123  1  0  0  0
 51124  1  0  0  0
 52125  1  0  0  0
 52126  1  0  0  0
 53 54  1  0  0  0
 54 55  2  0  0  0
 54127  1  0  0  0
 55 57  1  0  0  0
 55128  1  0  0  0
 56 69  2  0  0  0
 57 58  2  0  0  0
 57129  1  0  0  0
 58130  1  0  0  0
 59 60  1  0  0  0
 59 61  1  0  0  0
 59 62  1  0  0  0
 60131  1  0  0  0
 60132  1  0  0  0
 60133  1  0  0  0
 61134  1  0  0  0
 61135  1  0  0  0
 61136  1  0  0  0
 62137  1  0  0  0
 62138  1  0  0  0
 62139  1  0  0  0
 63 65  1  0  0  0
 63140  1  0  0  0
 63141  1  0  0  0
 63142  1  0  0  0
 64143  1  0  0  0
 65144  1  0  0  0
 68 83  1  0  0  0
 71 72  2  0  0  0
 71 74  1  0  0  0
 71145  1  0  0  0
 72 75  1  0  0  0
 72146  1  0  0  0
 73 75  2  0  0  0
 73 76  1  0  0  0
 73147  1  0  0  0
 74 76  2  0  0  0
 74 77  1  0  0  0
 75 80  1  0  0  0
 76 79  1  0  0  0
 77 84  2  0  0  0
 78 81  1  0  0  0
 78 82  1  0  0  0
 78 85  2  0  0  0
 79148  1  0  0  0
 79149  1  0  0  0
 79150  1  0  0  0
 80 81  1  0  0  0
 80151  1  0  0  0
 80152  1  0  0  0
 81153  1  0  0  0
 81154  1  0  0  0
 82 83  1  0  0  0
 82155  1  0  0  0
 82156  1  0  0  0
 83157  1  0  0  0
 83158  1  0  0  0
 84159  1  0  0  0
M  ISO  4   1 100  68 101  77 100  83 101
M  END
> <chiral flag>
0

> <version>
0

> <s_m_source_file>
/data/baiqing/PycharmProjects/Reinvent-master-3.2/result/LINK_invent/BTK/process_docking_weight1_custom_product_contain_oxygen_bond_distance_aromatic_linkinvent_7_9_3/rearranged_h_0135.sdf

> <i_m_source_file_index>
8

> <r_mmod_Potential_Energy-OPLS-2005>
189.011047363281

> <r_mmod_Stretch_Energy-OPLS-2005>
41.6459503173828

> <r_mmod_Bend_Energy-OPLS-2005>
98.0694046020508

> <r_mmod_Torsional_Energy-OPLS-2005>
273.358673095703

> <r_mmod_Improper_Torsional_Energy-OPLS-2005>
26.2325248718262

> <r_mmod_Van_der_Waal_Energy-OPLS-2005>
156.448348999023

> <r_mmod_Electrostatic_Energy-OPLS-2005>
-236.906753540039

> <r_mmod_Solvation_Energy-OPLS-2005>
-207.368835449219

> <b_mmod_Minimization_Converged-OPLS-2005>
0

> <r_mmod_RMS_Derivative-OPLS-2005>
1.93899965286255

$$$$
8
                    3D
 Structure written by MMmdl.
171179  0  0  1  0            999 V2000
  -30.6797  -14.6816   20.6039 C   0  0  0  0  0  0
  -30.4133  -12.4280   19.5257 C   0  0  0  0  0  0
  -29.5255  -12.5545   18.2792 C   0  0  0  0  0  0
  -28.0577  -12.3089   18.6927 C   0  0  0  0  0  0
  -27.6549  -13.2171   19.8870 C   0  0  2  0  0  0
  -28.6486  -13.1508   21.0628 C   0  0  0  0  0  0
  -25.2624  -13.8185   20.5696 C   0  0  0  0  0  0
  -24.1686  -13.0224   20.9171 C   0  0  0  0  0  0
  -24.6437  -11.6941   20.8786 C   0  0  0  0  0  0
  -23.9110  -10.4265   21.0507 C   0  0  0  0  0  0
  -24.3665   -9.4170   21.9239 C   0  0  0  0  0  0
  -23.6310   -8.2178   22.0765 C   0  0  0  0  0  0
  -22.4285   -8.0296   21.3546 C   0  0  0  0  0  0
  -21.9959   -9.0285   20.4662 C   0  0  0  0  0  0
  -22.7324  -10.2178   20.3106 C   0  0  0  0  0  0
  -21.6890   -6.0778   22.5270 C   0  0  0  0  0  0
  -21.4045   -6.5686   23.8219 C   0  0  0  0  0  0
  -21.3611   -5.6831   24.9163 C   0  0  0  0  0  0
  -21.6036   -4.3093   24.7211 C   0  0  0  0  0  0
  -21.8803   -3.8178   23.4325 C   0  0  0  0  0  0
  -21.9211   -4.6998   22.3397 C   0  0  0  0  0  0
  -22.7836  -13.5244   21.1690 C   0  0  0  0  0  0
  -22.1660   -4.2227   21.0977 F   0  0  0  0  0  0
  -21.5588   -3.4535   25.7713 F   0  0  0  0  0  0
  -29.9933  -13.4761   20.5166 N   0  0  0  0  0  0
  -26.2964  -12.9266   20.3228 N   0  0  0  0  0  0
  -25.9330  -11.6478   20.5692 N   0  0  0  0  0  0
  -22.0509  -12.8245   22.0412 N   0  0  0  0  0  0
  -25.4086  -15.1819   20.4219 N   0  0  0  0  0  0
  -31.7865  -14.7731   20.0788 O   0  0  0  0  0  0
  -21.6603   -6.8916   21.4219 O   0  0  0  0  0  0
  -22.3623  -14.5452   20.6616 O   0  0  0  0  0  0
  -24.6309  -31.8407   23.1923 C   0  0  0  0  0  0
  -25.9026  -32.4666   23.8522 C   0  0  1  0  0  0
  -27.3165  -27.2544   20.1293 C   0  0  0  0  0  0
  -25.5691  -33.8523   24.2091 N   0  0  0  0  0  0
  -23.4418  -30.4455   21.5641 C   0  0  2  0  0  0
  -24.9020  -28.9330   20.1405 C   0  0  0  0  0  0
  -22.7312  -29.4467   22.4993 C   0  0  0  0  0  0
  -18.0354  -28.1260   22.8631 C   0  0  0  0  0  0
  -24.1286  -36.7025   23.2785 C   0  0  0  0  0  0
  -26.0230  -30.7674   21.4093 C   0  0  0  0  0  0
  -26.0975  -29.4096   20.6864 C   0  0  0  0  0  0
  -27.2909  -28.6112   20.6744 C   0  0  0  0  0  0
  -26.0426  -26.7791   19.6963 C   0  0  0  0  0  0
  -24.9094  -27.6155   19.6287 C   0  0  0  0  0  0
  -23.6495  -29.7826   20.1892 C   0  0  0  0  0  0
  -25.4057  -36.3055   24.0481 C   0  0  1  0  0  0
  -20.5774  -28.3435   23.1413 C   0  0  2  0  0  0
  -20.6576  -26.9062   22.5586 C   0  0  0  0  0  0
  -19.5648  -26.6263   21.5349 C   0  0  0  0  0  0
  -18.1889  -26.7866   22.1702 C   0  0  0  0  0  0
  -19.1501  -28.8790   23.3006 C   0  0  0  0  0  0
  -18.9455  -30.1416   23.8988 C   0  0  0  0  0  0
  -17.6411  -30.6529   24.0568 C   0  0  0  0  0  0
  -25.9088  -34.9402   23.5198 C   0  0  0  0  0  0
  -16.5372  -29.8990   23.6253 C   0  0  0  0  0  0
  -16.7338  -28.6350   23.0484 C   0  0  0  0  0  0
  -26.4385  -31.6703   25.0917 C   0  0  0  0  0  0
  -25.3527  -31.3844   26.1519 C   0  0  0  0  0  0
  -27.0338  -30.3147   24.6621 C   0  0  0  0  0  0
  -27.5954  -32.4598   25.7502 C   0  0  0  0  0  0
  -27.5466  -37.1686   24.8570 C   0  0  0  0  0  0
  -21.3865  -29.2704   22.3357 N   0  0  0  0  0  0
  -26.4118  -37.3805   23.9581 N   0  0  0  0  0  0
  -24.7223  -31.0269   22.1057 N   0  0  0  0  0  0
  -23.4166  -28.8062   23.3046 O   0  0  0  0  0  0
  -28.4675  -26.3586   20.0518 O   0  0  0  0  0  0
  -26.5851  -34.9061   22.4770 O   0  0  0  0  0  0
  -23.5309  -32.1268   23.7052 O   0  0  0  0  0  0
  -32.3553  -17.7920   20.4171 C   0  0  0  0  0  0
  -32.2603  -20.3980   20.8735 C   0  0  0  0  0  0
  -31.1574  -18.2545   21.0108 C   0  0  0  0  0  0
  -33.1553  -18.7329   19.7307 C   0  0  0  0  0  0
  -31.1323  -19.6980   21.3427 C   0  0  0  0  0  0
  -32.6229  -20.0691   19.5813 C   0  0  0  0  0  0
  -29.7060  -22.3600   18.9737 C   0  0  0  0  0  0
  -34.6230  -18.2390   19.8022 C   0  0  0  0  0  0
  -31.2298  -23.0125   21.7221 C   0  0  0  0  0  0
  -27.7916  -23.3707   17.8361 C   0  0  0  0  0  0
  -30.3229  -20.5414   22.4011 C   0  0  0  0  0  0
  -29.9887  -17.2388   20.8221 C   0  0  0  0  0  0
  -31.1912  -21.9079   18.5722 C   0  0  0  0  0  0
  -31.0019  -21.9201   22.7687 C   0  0  0  0  0  0
  -28.3622  -24.8886   19.6892 C   0  0  0  0  0  0
  -29.0476  -23.8315   18.6436 C   0  0  1  0  0  0
  -30.0586  -15.7688   21.2153 N   0  0  0  0  0  0
  -28.9490  -21.4651   19.3817 O   0  0  0  0  0  0
  -31.5711  -20.4622   18.6719 O   0  0  0  0  0  0
  -31.4599  -12.5179   19.2569 H   0  0  0  0  0  0
  -30.2613  -11.4288   19.9547 H   0  0  0  0  0  0
  -29.8338  -11.8137   17.5418 H   0  0  0  0  0  0
  -29.6128  -13.5389   17.8029 H   0  0  0  0  0  0
  -28.0070  -11.2633   18.9632 H   0  0  0  0  0  0
  -27.3780  -12.4106   17.8356 H   0  0  0  0  0  0
  -27.6638  -14.2240   19.4863 H   0  0  0  0  0  0
  -28.6212  -12.1641   21.5416 H   0  0  0  0  0  0
  -28.2907  -13.8660   21.8056 H   0  0  0  0  0  0
  -25.2865   -9.5598   22.4745 H   0  0  0  0  0  0
  -24.0044   -7.4605   22.7523 H   0  0  0  0  0  0
  -21.0859   -8.8866   19.9004 H   0  0  0  0  0  0
  -22.3861  -10.9687   19.6168 H   0  0  0  0  0  0
  -21.2080   -7.6202   23.9743 H   0  0  0  0  0  0
  -21.1420   -6.0556   25.9085 H   0  0  0  0  0  0
  -22.0638   -2.7650   23.2798 H   0  0  0  0  0  0
  -22.4269  -12.0051   22.4739 H   0  0  0  0  0  0
  -21.1142  -13.1199   22.2471 H   0  0  0  0  0  0
  -24.5992  -15.7893   20.5433 H   0  0  0  0  0  0
  -26.2460  -15.6762   20.1274 H   0  0  0  0  0  0
  -26.7033  -32.5063   23.1251 H   0  0  0  0  0  0
  -24.9437  -33.9677   25.0017 H   0  0  0  0  0  0
  -22.7459  -31.2442   21.3895 H   0  0  0  0  0  0
  -23.3726  -35.9106   23.3534 H   0  0  0  0  0  0
  -24.3373  -36.8477   22.2130 H   0  0  0  0  0  0
  -23.6705  -37.6163   23.6684 H   0  0  0  0  0  0
  -26.2084  -31.5575   20.6949 H   0  0  0  0  0  0
  -26.8560  -30.7092   22.0921 H   0  0  0  0  0  0
  -28.1888  -29.0607   21.0601 H   0  0  0  0  0  0
  -25.8566  -25.7767   19.3953 H   0  0  0  0  0  0
  -24.0104  -27.1251   19.2850 H   0  0  0  0  0  0
  -23.6932  -30.5390   19.4340 H   0  0  0  0  0  0
  -22.7947  -29.1683   19.8985 H   0  0  0  0  0  0
  -25.1108  -36.2044   25.0969 H   0  0  0  0  0  0
  -21.0420  -28.3180   24.1259 H   0  0  0  0  0  0
  -20.5261  -26.2035   23.3823 H   0  0  0  0  0  0
  -21.6389  -26.6723   22.1376 H   0  0  0  0  0  0
  -19.6532  -25.6247   21.1215 H   0  0  0  0  0  0
  -19.6626  -27.3050   20.6905 H   0  0  0  0  0  0
  -17.3976  -26.6876   21.4167 H   0  0  0  0  0  0
  -18.0023  -26.0102   22.9104 H   0  0  0  0  0  0
  -19.7978  -30.7310   24.2209 H   0  0  0  0  0  0
  -17.5017  -31.6276   24.4886 H   0  0  0  0  0  0
  -15.5316  -30.2939   23.7651 H   0  0  0  0  0  0
  -15.8785  -28.0875   22.7036 H   0  0  0  0  0  0
  -24.5798  -30.7128   25.7741 H   0  0  0  0  0  0
  -24.8530  -32.2840   26.5024 H   0  0  0  0  0  0
  -25.7700  -30.8974   27.0329 H   0  0  0  0  0  0
  -26.3067  -29.6690   24.1615 H   0  0  0  0  0  0
  -27.3835  -29.7781   25.5440 H   0  0  0  0  0  0
  -27.8927  -30.4286   24.0071 H   0  0  0  0  0  0
  -27.2697  -33.4007   26.1953 H   0  0  0  0  0  0
  -28.3647  -32.7050   25.0169 H   0  0  0  0  0  0
  -28.0832  -31.8958   26.5410 H   0  0  0  0  0  0
  -28.2654  -37.9851   24.7630 H   0  0  0  0  0  0
  -28.0823  -36.2423   24.6335 H   0  0  0  0  0  0
  -27.2320  -37.1258   25.9035 H   0  0  0  0  0  0
  -20.8963  -29.8332   21.6534 H   0  0  0  0  0  0
  -26.0070  -38.2896   24.1652 H   0  0  0  0  0  0
  -32.7420  -16.7748   20.5646 H   0  0  0  0  0  0
  -33.0907  -20.4691   21.5707 H   0  0  0  0  0  0
  -34.8281  -17.7429   20.7957 H   0  0  0  0  0  0
  -35.4874  -18.9161   19.5778 H   0  0  0  0  0  0
  -34.7061  -17.3967   19.1564 H   0  0  0  0  0  0
  -31.8833  -23.8775   21.9431 H   0  0  0  0  0  0
  -30.2280  -23.3691   21.6657 H   0  0  0  0  0  0
  -31.5390  -22.5309   20.8029 H   0  0  0  0  0  0
  -27.9027  -22.5097   17.2184 H   0  0  0  0  0  0
  -27.2797  -24.1533   17.2728 H   0  0  0  0  0  0
  -27.0327  -23.1155   18.5741 H   0  0  0  0  0  0
  -30.3005  -20.0909   23.4559 H   0  0  0  0  0  0
  -29.3987  -20.9378   21.9828 H   0  0  0  0  0  0
  -29.0255  -17.6047   21.1525 H   0  0  0  0  0  0
  -29.9505  -17.2428   19.7133 H   0  0  0  0  0  0
  -31.9682  -22.5242   18.9698 H   0  0  0  0  0  0
  -31.1967  -22.1790   17.5367 H   0  0  0  0  0  0
  -30.3917  -22.4597   23.4632 H   0  0  0  0  0  0
  -31.8809  -21.7546   23.3294 H   0  0  0  0  0  0
  -27.7487  -24.4317   20.4788 H   0  0  0  0  0  0
  -27.7549  -25.2422   18.8850 H   0  0  0  0  0  0
  -29.6661  -24.3778   17.9800 H   0  0  0  0  0  0
  -29.3157  -15.4861   21.8306 H   0  0  0  0  0  0
  1 25  1  0  0  0
  1 30  2  0  0  0
  1 87  1  0  0  0
  2  3  1  0  0  0
  2 25  1  0  0  0
  2 90  1  0  0  0
  2 91  1  0  0  0
  3  4  1  0  0  0
  3 92  1  0  0  0
  3 93  1  0  0  0
  4  5  1  0  0  0
  4 94  1  0  0  0
  4 95  1  0  0  0
  5  6  1  0  0  0
  5 26  1  0  0  0
  5 96  1  0  0  0
  6 25  1  0  0  0
  6 97  1  0  0  0
  6 98  1  0  0  0
  7  8  2  0  0  0
  7 26  1  0  0  0
  7 29  1  0  0  0
  8  9  1  0  0  0
  8 22  1  0  0  0
  9 10  1  0  0  0
  9 27  2  0  0  0
 10 11  2  0  0  0
 10 15  1  0  0  0
 11 12  1  0  0  0
 11 99  1  0  0  0
 12 13  2  0  0  0
 12100  1  0  0  0
 13 14  1  0  0  0
 13 31  1  0  0  0
 14 15  2  0  0  0
 14101  1  0  0  0
 15102  1  0  0  0
 16 17  2  0  0  0
 16 21  1  0  0  0
 16 31  1  0  0  0
 17 18  1  0  0  0
 17103  1  0  0  0
 18 19  2  0  0  0
 18104  1  0  0  0
 19 20  1  0  0  0
 19 24  1  0  0  0
 20 21  2  0  0  0
 20105  1  0  0  0
 21 23  1  0  0  0
 22 28  1  0  0  0
 22 32  2  0  0  0
 26 27  1  0  0  0
 28106  1  0  0  0
 28107  1  0  0  0
 29108  1  0  0  0
 29109  1  0  0  0
 33 34  1  0  0  0
 33 66  1  0  0  0
 33 70  2  0  0  0
 34 36  1  0  0  0
 34 59  1  0  0  0
 34110  1  0  0  0
 35 44  2  0  0  0
 35 45  1  0  0  0
 35 68  1  0  0  0
 36 56  1  0  0  0
 36111  1  0  0  0
 37 39  1  0  0  0
 37 47  1  0  0  0
 37 66  1  0  0  0
 37112  1  0  0  0
 38 43  2  0  0  0
 38 46  1  0  0  0
 38 47  1  0  0  0
 39 64  1  0  0  0
 39 67  2  0  0  0
 40 52  1  0  0  0
 40 53  2  0  0  0
 40 58  1  0  0  0
 41113  1  0  0  0
 41114  1  0  0  0
 41115  1  0  0  0
 41 48  1  0  0  0
 42 43  1  0  0  0
 42 66  1  0  0  0
 42116  1  0  0  0
 42117  1  0  0  0
 43 44  1  0  0  0
 44118  1  0  0  0
 45 46  2  0  0  0
 45119  1  0  0  0
 46120  1  0  0  0
 47121  1  0  0  0
 47122  1  0  0  0
 48 56  1  0  0  0
 48 65  1  0  0  0
 48123  1  0  0  0
 49 50  1  0  0  0
 49 53  1  0  0  0
 49 64  1  0  0  0
 49124  1  0  0  0
 50 51  1  0  0  0
 50125  1  0  0  0
 50126  1  0  0  0
 51 52  1  0  0  0
 51127  1  0  0  0
 51128  1  0  0  0
 52129  1  0  0  0
 52130  1  0  0  0
 53 54  1  0  0  0
 54 55  2  0  0  0
 54131  1  0  0  0
 55 57  1  0  0  0
 55132  1  0  0  0
 56 69  2  0  0  0
 57 58  2  0  0  0
 57133  1  0  0  0
 58134  1  0  0  0
 59 60  1  0  0  0
 59 61  1  0  0  0
 59 62  1  0  0  0
 60135  1  0  0  0
 60136  1  0  0  0
 60137  1  0  0  0
 61138  1  0  0  0
 61139  1  0  0  0
 61140  1  0  0  0
 62141  1  0  0  0
 62142  1  0  0  0
 62143  1  0  0  0
 63 65  1  0  0  0
 63144  1  0  0  0
 63145  1  0  0  0
 63146  1  0  0  0
 64147  1  0  0  0
 65148  1  0  0  0
 68 85  1  0  0  0
 71 73  2  0  0  0
 71 74  1  0  0  0
 71149  1  0  0  0
 72 75  2  0  0  0
 72 76  1  0  0  0
 72150  1  0  0  0
 73 75  1  0  0  0
 73 82  1  0  0  0
 74 76  2  0  0  0
 74 78  1  0  0  0
 75 81  1  0  0  0
 76 89  1  0  0  0
 77 83  1  0  0  0
 77 86  1  0  0  0
 77 88  2  0  0  0
 78151  1  0  0  0
 78152  1  0  0  0
 78153  1  0  0  0
 79 84  1  0  0  0
 79154  1  0  0  0
 79155  1  0  0  0
 79156  1  0  0  0
 80157  1  0  0  0
 80158  1  0  0  0
 80159  1  0  0  0
 80 86  1  0  0  0
 81 84  1  0  0  0
 81160  1  0  0  0
 81161  1  0  0  0
 82 87  1  0  0  0
 82162  1  0  0  0
 82163  1  0  0  0
 83 89  1  0  0  0
 83164  1  0  0  0
 83165  1  0  0  0
 84166  1  0  0  0
 84167  1  0  0  0
 85 86  1  0  0  0
 85168  1  0  0  0
 85169  1  0  0  0
 86170  1  0  0  0
 87171  1  0  0  0
M  ISO  4   1 100  68 101  85 101  87 100
M  END
> <chiral flag>
0

> <version>
0

> <s_m_source_file>
/data/baiqing/PycharmProjects/Reinvent-master-3.2/result/LINK_invent/BTK/process_docking_weight1_custom_product_contain_oxygen_bond_distance_aromatic_linkinvent_7_9_3/rearranged_h_0135.sdf

> <i_m_source_file_index>
9

> <r_mmod_Potential_Energy-OPLS-2005>
1073.42785644531

> <r_mmod_Stretch_Energy-OPLS-2005>
226.622756958008

> <r_mmod_Bend_Energy-OPLS-2005>
521.689147949219

> <r_mmod_Torsional_Energy-OPLS-2005>
575.060485839844

> <r_mmod_Improper_Torsional_Energy-OPLS-2005>
49.8057174682617

> <r_mmod_Van_der_Waal_Energy-OPLS-2005>
249.757797241211

> <r_mmod_Electrostatic_Energy-OPLS-2005>
-402.774200439453

> <r_mmod_Solvation_Energy-OPLS-2005>
-228.644515991211

> <b_mmod_Minimization_Converged-OPLS-2005>
0

> <r_mmod_RMS_Derivative-OPLS-2005>
62.4356117248535

$$$$
9
                    3D
 Structure written by MMmdl.
163171  0  0  1  0            999 V2000
  -30.7065  -14.4235   20.6208 C   0  0  0  0  0  0
  -30.4268  -12.2914   19.4102 C   0  0  0  0  0  0
  -29.4952  -12.5204   18.2020 C   0  0  0  0  0  0
  -28.0155  -12.3807   18.6123 C   0  0  0  0  0  0
  -27.6683  -13.1995   19.8840 C   0  0  2  0  0  0
  -28.7056  -12.9342   20.9973 C   0  0  0  0  0  0
  -25.2610  -13.8147   20.5655 C   0  0  0  0  0  0
  -24.1847  -13.0433   20.9142 C   0  0  0  0  0  0
  -24.6391  -11.6896   20.8712 C   0  0  0  0  0  0
  -23.9050  -10.4288   21.0397 C   0  0  0  0  0  0
  -24.3602   -9.4210   21.9183 C   0  0  0  0  0  0
  -23.6282   -8.2244   22.0756 C   0  0  0  0  0  0
  -22.4264   -8.0277   21.3541 C   0  0  0  0  0  0
  -21.9891   -9.0251   20.4646 C   0  0  0  0  0  0
  -22.7218  -10.2133   20.3053 C   0  0  0  0  0  0
  -21.6855   -6.0731   22.5278 C   0  0  0  0  0  0
  -21.4018   -6.5635   23.8210 C   0  0  0  0  0  0
  -21.3660   -5.6790   24.9172 C   0  0  0  0  0  0
  -21.6046   -4.3052   24.7226 C   0  0  0  0  0  0
  -21.8819   -3.8141   23.4347 C   0  0  0  0  0  0
  -21.9194   -4.6957   22.3400 C   0  0  0  0  0  0
  -22.7877  -13.5246   21.1821 C   0  0  0  0  0  0
  -22.1663   -4.2138   21.0980 F   0  0  0  0  0  0
  -21.5623   -3.4542   25.7741 F   0  0  0  0  0  0
  -30.0470  -13.2440   20.4639 N   0  0  0  0  0  0
  -26.3054  -12.9305   20.3385 N   0  0  0  0  0  0
  -25.9318  -11.6465   20.5755 N   0  0  0  0  0  0
  -22.0511  -12.8253   22.0385 N   0  0  0  0  0  0
  -25.4341  -15.1860   20.4068 N   0  0  0  0  0  0
  -31.7822  -14.6729   20.0693 O   0  0  0  0  0  0
  -21.6633   -6.8874   21.4239 O   0  0  0  0  0  0
  -22.3565  -14.5559   20.6680 O   0  0  0  0  0  0
  -24.6130  -31.8694   23.2117 C   0  0  0  0  0  0
  -25.9031  -32.4828   23.8404 C   0  0  1  0  0  0
  -27.2352  -27.4493   20.0731 C   0  0  0  0  0  0
  -25.5896  -33.8626   24.2337 N   0  0  0  0  0  0
  -23.3993  -30.4929   21.5533 C   0  0  2  0  0  0
  -24.8438  -28.9601   20.1164 C   0  0  0  0  0  0
  -22.7396  -29.4658   22.5008 C   0  0  0  0  0  0
  -18.0267  -28.1379   22.8494 C   0  0  0  0  0  0
  -24.1487  -36.7316   23.2634 C   0  0  0  0  0  0
  -25.9276  -30.8332   21.3664 C   0  0  0  0  0  0
  -26.0024  -29.4671   20.7173 C   0  0  0  0  0  0
  -27.1961  -28.7115   20.7074 C   0  0  0  0  0  0
  -26.0523  -26.9490   19.4805 C   0  0  0  0  0  0
  -24.8611  -27.6962   19.5042 C   0  0  0  0  0  0
  -23.6063  -29.8263   20.1675 C   0  0  0  0  0  0
  -25.4104  -36.3113   24.0337 C   0  0  1  0  0  0
  -20.5856  -28.3654   23.1331 C   0  0  2  0  0  0
  -20.6759  -26.9394   22.5424 C   0  0  0  0  0  0
  -19.5737  -26.6386   21.5216 C   0  0  0  0  0  0
  -18.1916  -26.7924   22.1626 C   0  0  0  0  0  0
  -19.1516  -28.8833   23.2911 C   0  0  0  0  0  0
  -18.9446  -30.1438   23.8921 C   0  0  0  0  0  0
  -17.6450  -30.6583   24.0570 C   0  0  0  0  0  0
  -25.9032  -34.9478   23.5134 C   0  0  0  0  0  0
  -16.5340  -29.9089   23.6324 C   0  0  0  0  0  0
  -16.7258  -28.6506   23.0344 C   0  0  0  0  0  0
  -26.4469  -31.6598   25.0722 C   0  0  0  0  0  0
  -25.3742  -31.3700   26.1475 C   0  0  0  0  0  0
  -27.0289  -30.3042   24.6080 C   0  0  0  0  0  0
  -27.6055  -32.4310   25.7474 C   0  0  0  0  0  0
  -27.5583  -37.1805   24.8459 C   0  0  0  0  0  0
  -21.4127  -29.3022   22.3744 N   0  0  0  0  0  0
  -26.4289  -37.3798   23.9414 N   0  0  0  0  0  0
  -24.6648  -31.0796   22.1022 N   0  0  0  0  0  0
  -23.4173  -28.8201   23.3049 O   0  0  0  0  0  0
  -28.4184  -26.7414   20.0664 O   0  0  0  0  0  0
  -26.5596  -34.8924   22.4696 O   0  0  0  0  0  0
  -23.5328  -32.1453   23.7515 O   0  0  0  0  0  0
  -30.4885  -18.9114   20.3402 C   0  0  0  0  0  0
  -30.7830  -17.5379   20.4921 C   0  0  0  0  0  0
  -28.4829  -18.6391   21.6767 C   0  0  0  0  0  0
  -29.3311  -19.4852   20.9237 C   0  0  0  0  0  0
  -29.9131  -16.7023   21.2321 C   0  0  0  0  0  0
  -28.7719  -17.2699   21.8295 C   0  0  0  0  0  0
  -28.9866  -20.9276   20.7423 C   0  0  0  0  0  0
  -31.0914  -26.4133   19.4861 C   0  0  0  0  0  0
  -30.5525  -25.0105   17.5092 C   0  0  0  0  0  0
  -30.2418  -24.0656   19.8584 C   0  0  0  0  0  0
  -29.6247  -22.7583   19.3044 C   0  0  0  0  0  0
  -28.6760  -25.9000   18.9387 C   0  0  0  0  0  0
  -30.1227  -25.3328   18.9570 C   0  0  0  0  0  0
  -27.9119  -21.4714   21.1333 N   0  0  0  0  0  0
  -30.0811  -15.3016   21.4183 N   0  0  0  0  0  0
  -29.9902  -21.6346   20.1184 O   0  0  0  0  0  0
  -27.9339  -16.4805   22.5442 F   0  0  0  0  0  0
  -31.4709  -12.3966   19.1093 H   0  0  0  0  0  0
  -30.3275  -11.2698   19.7805 H   0  0  0  0  0  0
  -29.7284  -11.8121   17.4058 H   0  0  0  0  0  0
  -29.6699  -13.5146   17.7863 H   0  0  0  0  0  0
  -27.8185  -11.3225   18.7896 H   0  0  0  0  0  0
  -27.3676  -12.6757   17.7862 H   0  0  0  0  0  0
  -27.7276  -14.2544   19.6150 H   0  0  0  0  0  0
  -28.6731  -11.8854   21.2956 H   0  0  0  0  0  0
  -28.4526  -13.4902   21.9007 H   0  0  0  0  0  0
  -25.2754   -9.5693   22.4753 H   0  0  0  0  0  0
  -23.9994   -7.4643   22.7482 H   0  0  0  0  0  0
  -21.0815   -8.8775   19.8961 H   0  0  0  0  0  0
  -22.3679  -10.9670   19.6161 H   0  0  0  0  0  0
  -21.2012   -7.6145   23.9712 H   0  0  0  0  0  0
  -21.1481   -6.0520   25.9075 H   0  0  0  0  0  0
  -22.0596   -2.7601   23.2854 H   0  0  0  0  0  0
  -22.4115  -11.9914   22.4779 H   0  0  0  0  0  0
  -21.1137  -13.1308   22.2591 H   0  0  0  0  0  0
  -24.6769  -15.8473   20.5394 H   0  0  0  0  0  0
  -26.3082  -15.6291   20.1553 H   0  0  0  0  0  0
  -26.7097  -32.5548   23.1166 H   0  0  0  0  0  0
  -25.0042  -33.9794   25.0479 H   0  0  0  0  0  0
  -22.6865  -31.3085   21.4162 H   0  0  0  0  0  0
  -23.3745  -35.9654   23.3302 H   0  0  0  0  0  0
  -24.3588  -36.8923   22.2049 H   0  0  0  0  0  0
  -23.7237  -37.6521   23.6645 H   0  0  0  0  0  0
  -26.0378  -31.5970   20.5955 H   0  0  0  0  0  0
  -26.8174  -30.8887   21.9817 H   0  0  0  0  0  0
  -28.0920  -29.0986   21.1729 H   0  0  0  0  0  0
  -26.0236  -25.9806   19.0044 H   0  0  0  0  0  0
  -23.9669  -27.2953   19.0465 H   0  0  0  0  0  0
  -23.7126  -30.6018   19.4084 H   0  0  0  0  0  0
  -22.7304  -29.2457   19.8722 H   0  0  0  0  0  0
  -25.1277  -36.1981   25.0830 H   0  0  0  0  0  0
  -20.9940  -28.3220   24.1455 H   0  0  0  0  0  0
  -20.5666  -26.2257   23.3603 H   0  0  0  0  0  0
  -21.6631  -26.7447   22.1214 H   0  0  0  0  0  0
  -19.6899  -25.6305   21.1221 H   0  0  0  0  0  0
  -19.6677  -27.3215   20.6764 H   0  0  0  0  0  0
  -17.4185  -26.6673   21.4030 H   0  0  0  0  0  0
  -18.0316  -26.0067   22.9021 H   0  0  0  0  0  0
  -19.7924  -30.7247   24.2303 H   0  0  0  0  0  0
  -17.5006  -31.6264   24.5169 H   0  0  0  0  0  0
  -15.5342  -30.2998   23.7635 H   0  0  0  0  0  0
  -15.8657  -28.0834   22.7043 H   0  0  0  0  0  0
  -24.5912  -30.7046   25.7817 H   0  0  0  0  0  0
  -24.8938  -32.2855   26.4939 H   0  0  0  0  0  0
  -25.8103  -30.8858   27.0222 H   0  0  0  0  0  0
  -26.2820  -29.6806   24.1149 H   0  0  0  0  0  0
  -27.4083  -29.7270   25.4522 H   0  0  0  0  0  0
  -27.8649  -30.4366   23.9206 H   0  0  0  0  0  0
  -27.2685  -33.3600   26.2087 H   0  0  0  0  0  0
  -28.3841  -32.6883   25.0280 H   0  0  0  0  0  0
  -28.0746  -31.8410   26.5358 H   0  0  0  0  0  0
  -28.2593  -38.0112   24.7530 H   0  0  0  0  0  0
  -28.1086  -36.2647   24.6249 H   0  0  0  0  0  0
  -27.2310  -37.1408   25.8863 H   0  0  0  0  0  0
  -20.9280  -29.8747   21.6974 H   0  0  0  0  0  0
  -26.0179  -38.2873   24.1435 H   0  0  0  0  0  0
  -31.1617  -19.5216   19.7545 H   0  0  0  0  0  0
  -31.6743  -17.1473   20.0244 H   0  0  0  0  0  0
  -27.5902  -19.0271   22.1433 H   0  0  0  0  0  0
  -32.1308  -26.0907   19.4168 H   0  0  0  0  0  0
  -30.8991  -26.6504   20.5335 H   0  0  0  0  0  0
  -30.9990  -27.3413   18.9203 H   0  0  0  0  0  0
  -31.5170  -24.5018   17.4819 H   0  0  0  0  0  0
  -30.6481  -25.9166   16.9098 H   0  0  0  0  0  0
  -29.8263  -24.3762   16.9991 H   0  0  0  0  0  0
  -31.2986  -23.8678   20.0416 H   0  0  0  0  0  0
  -29.8085  -24.2765   20.8373 H   0  0  0  0  0  0
  -30.0439  -22.5378   18.3240 H   0  0  0  0  0  0
  -28.5523  -22.8703   19.1361 H   0  0  0  0  0  0
  -27.9629  -25.0776   18.8888 H   0  0  0  0  0  0
  -28.5292  -26.4992   18.0377 H   0  0  0  0  0  0
  -27.2934  -20.8024   21.5759 H   0  0  0  0  0  0
  -29.3325  -14.8888   21.9554 H   0  0  0  0  0  0
  1 25  1  0  0  0
  1 30  2  0  0  0
  1 85  1  0  0  0
  2  3  1  0  0  0
  2 25  1  0  0  0
  2 88  1  0  0  0
  2 89  1  0  0  0
  3  4  1  0  0  0
  3 90  1  0  0  0
  3 91  1  0  0  0
  4  5  1  0  0  0
  4 92  1  0  0  0
  4 93  1  0  0  0
  5  6  1  0  0  0
  5 26  1  0  0  0
  5 94  1  0  0  0
  6 25  1  0  0  0
  6 95  1  0  0  0
  6 96  1  0  0  0
  7  8  2  0  0  0
  7 26  1  0  0  0
  7 29  1  0  0  0
  8  9  1  0  0  0
  8 22  1  0  0  0
  9 10  1  0  0  0
  9 27  2  0  0  0
 10 11  2  0  0  0
 10 15  1  0  0  0
 11 12  1  0  0  0
 11 97  1  0  0  0
 12 13  2  0  0  0
 12 98  1  0  0  0
 13 14  1  0  0  0
 13 31  1  0  0  0
 14 15  2  0  0  0
 14 99  1  0  0  0
 15100  1  0  0  0
 16 17  2  0  0  0
 16 21  1  0  0  0
 16 31  1  0  0  0
 17 18  1  0  0  0
 17101  1  0  0  0
 18 19  2  0  0  0
 18102  1  0  0  0
 19 20  1  0  0  0
 19 24  1  0  0  0
 20 21  2  0  0  0
 20103  1  0  0  0
 21 23  1  0  0  0
 22 28  1  0  0  0
 22 32  2  0  0  0
 26 27  1  0  0  0
 28104  1  0  0  0
 28105  1  0  0  0
 29106  1  0  0  0
 29107  1  0  0  0
 33 34  1  0  0  0
 33 66  1  0  0  0
 33 70  2  0  0  0
 34 36  1  0  0  0
 34 59  1  0  0  0
 34108  1  0  0  0
 35 44  2  0  0  0
 35 45  1  0  0  0
 35 68  1  0  0  0
 36 56  1  0  0  0
 36109  1  0  0  0
 37 39  1  0  0  0
 37 47  1  0  0  0
 37 66  1  0  0  0
 37110  1  0  0  0
 38 43  2  0  0  0
 38 46  1  0  0  0
 38 47  1  0  0  0
 39 64  1  0  0  0
 39 67  2  0  0  0
 40 52  1  0  0  0
 40 53  2  0  0  0
 40 58  1  0  0  0
 41111  1  0  0  0
 41112  1  0  0  0
 41113  1  0  0  0
 41 48  1  0  0  0
 42 43  1  0  0  0
 42 66  1  0  0  0
 42114  1  0  0  0
 42115  1  0  0  0
 43 44  1  0  0  0
 44116  1  0  0  0
 45 46  2  0  0  0
 45117  1  0  0  0
 46118  1  0  0  0
 47119  1  0  0  0
 47120  1  0  0  0
 48 56  1  0  0  0
 48 65  1  0  0  0
 48121  1  0  0  0
 49 50  1  0  0  0
 49 53  1  0  0  0
 49 64  1  0  0  0
 49122  1  0  0  0
 50 51  1  0  0  0
 50123  1  0  0  0
 50124  1  0  0  0
 51 52  1  0  0  0
 51125  1  0  0  0
 51126  1  0  0  0
 52127  1  0  0  0
 52128  1  0  0  0
 53 54  1  0  0  0
 54 55  2  0  0  0
 54129  1  0  0  0
 55 57  1  0  0  0
 55130  1  0  0  0
 56 69  2  0  0  0
 57 58  2  0  0  0
 57131  1  0  0  0
 58132  1  0  0  0
 59 60  1  0  0  0
 59 61  1  0  0  0
 59 62  1  0  0  0
 60133  1  0  0  0
 60134  1  0  0  0
 60135  1  0  0  0
 61136  1  0  0  0
 61137  1  0  0  0
 61138  1  0  0  0
 62139  1  0  0  0
 62140  1  0  0  0
 62141  1  0  0  0
 63 65  1  0  0  0
 63142  1  0  0  0
 63143  1  0  0  0
 63144  1  0  0  0
 64145  1  0  0  0
 65146  1  0  0  0
 68 82  1  0  0  0
 71 72  2  0  0  0
 71 74  1  0  0  0
 71147  1  0  0  0
 72 75  1  0  0  0
 72148  1  0  0  0
 73 74  2  0  0  0
 73 76  1  0  0  0
 73149  1  0  0  0
 74 77  1  0  0  0
 75 76  2  0  0  0
 75 85  1  0  0  0
 76 87  1  0  0  0
 77 84  2  0  0  0
 77 86  1  0  0  0
 78150  1  0  0  0
 78151  1  0  0  0
 78152  1  0  0  0
 78 83  1  0  0  0
 79 83  1  0  0  0
 79153  1  0  0  0
 79154  1  0  0  0
 79155  1  0  0  0
 80 81  1  0  0  0
 80 83  1  0  0  0
 80156  1  0  0  0
 80157  1  0  0  0
 81 86  1  0  0  0
 81158  1  0  0  0
 81159  1  0  0  0
 82 83  1  0  0  0
 82160  1  0  0  0
 82161  1  0  0  0
 84162  1  0  0  0
 85163  1  0  0  0
M  ISO  4   1 100  68 101  82 101  85 100
M  END
> <chiral flag>
0

> <version>
0

> <s_m_source_file>
/data/baiqing/PycharmProjects/Reinvent-master-3.2/result/LINK_invent/BTK/process_docking_weight1_custom_product_contain_oxygen_bond_distance_aromatic_linkinvent_7_9_3/rearranged_h_0135.sdf

> <i_m_source_file_index>
10

> <r_mmod_Potential_Energy-OPLS-2005>
-90.3265762329102

> <r_mmod_Stretch_Energy-OPLS-2005>
37.7265815734863

> <r_mmod_Bend_Energy-OPLS-2005>
110.325622558594

> <r_mmod_Torsional_Energy-OPLS-2005>
237.803482055664

> <r_mmod_Improper_Torsional_Energy-OPLS-2005>
3.95873188972473

> <r_mmod_Van_der_Waal_Energy-OPLS-2005>
172.171020507812

> <r_mmod_Electrostatic_Energy-OPLS-2005>
-459.024963378906

> <r_mmod_Solvation_Energy-OPLS-2005>
-202.037246704102

> <b_mmod_Minimization_Converged-OPLS-2005>
0

> <r_mmod_RMS_Derivative-OPLS-2005>
1.02605414390564

$$$$
10
                    3D
 Structure written by MMmdl.
163171  0  0  1  0            999 V2000
  -30.6154  -14.6009   20.5329 C   0  0  0  0  0  0
  -30.4461  -12.3736   19.4444 C   0  0  0  0  0  0
  -29.5090  -12.5090   18.2230 C   0  0  0  0  0  0
  -28.0292  -12.3525   18.6304 C   0  0  0  0  0  0
  -27.6582  -13.2086   19.8705 C   0  0  2  0  0  0
  -28.7002  -13.0212   20.9970 C   0  0  0  0  0  0
  -25.2570  -13.8156   20.5677 C   0  0  0  0  0  0
  -24.1820  -13.0435   20.9170 C   0  0  0  0  0  0
  -24.6374  -11.6905   20.8727 C   0  0  0  0  0  0
  -23.9041  -10.4292   21.0402 C   0  0  0  0  0  0
  -24.3593   -9.4207   21.9187 C   0  0  0  0  0  0
  -23.6263   -8.2246   22.0763 C   0  0  0  0  0  0
  -22.4252   -8.0274   21.3543 C   0  0  0  0  0  0
  -21.9879   -9.0251   20.4653 C   0  0  0  0  0  0
  -22.7210  -10.2129   20.3055 C   0  0  0  0  0  0
  -21.6847   -6.0722   22.5273 C   0  0  0  0  0  0
  -21.4021   -6.5629   23.8211 C   0  0  0  0  0  0
  -21.3663   -5.6784   24.9178 C   0  0  0  0  0  0
  -21.6039   -4.3046   24.7230 C   0  0  0  0  0  0
  -21.8821   -3.8133   23.4353 C   0  0  0  0  0  0
  -21.9194   -4.6949   22.3405 C   0  0  0  0  0  0
  -22.7839  -13.5233   21.1837 C   0  0  0  0  0  0
  -22.1662   -4.2135   21.0986 F   0  0  0  0  0  0
  -21.5628   -3.4531   25.7745 F   0  0  0  0  0  0
  -30.0220  -13.3706   20.4449 N   0  0  0  0  0  0
  -26.3001  -12.9325   20.3333 N   0  0  0  0  0  0
  -25.9298  -11.6486   20.5742 N   0  0  0  0  0  0
  -22.0475  -12.8244   22.0411 N   0  0  0  0  0  0
  -25.4291  -15.1884   20.4132 N   0  0  0  0  0  0
  -31.7561  -14.8111   20.1064 O   0  0  0  0  0  0
  -21.6625   -6.8863   21.4235 O   0  0  0  0  0  0
  -22.3527  -14.5537   20.6685 O   0  0  0  0  0  0
  -24.6240  -31.8607   23.2048 C   0  0  0  0  0  0
  -25.9104  -32.4775   23.8363 C   0  0  1  0  0  0
  -27.2239  -27.3369   20.1043 C   0  0  0  0  0  0
  -25.5938  -33.8581   24.2293 N   0  0  0  0  0  0
  -23.4133  -30.4877   21.5452 C   0  0  2  0  0  0
  -24.8573  -28.9410   20.1150 C   0  0  0  0  0  0
  -22.7440  -29.4650   22.4931 C   0  0  0  0  0  0
  -18.0283  -28.1385   22.8470 C   0  0  0  0  0  0
  -24.1492  -36.7289   23.2633 C   0  0  0  0  0  0
  -25.9523  -30.7977   21.3713 C   0  0  0  0  0  0
  -26.0245  -29.4252   20.7151 C   0  0  0  0  0  0
  -27.2058  -28.6314   20.7056 C   0  0  0  0  0  0
  -26.0237  -26.8912   19.5009 C   0  0  0  0  0  0
  -24.8557  -27.6763   19.5090 C   0  0  0  0  0  0
  -23.6269  -29.8218   20.1611 C   0  0  0  0  0  0
  -25.4114  -36.3080   24.0324 C   0  0  1  0  0  0
  -20.5886  -28.3663   23.1250 C   0  0  2  0  0  0
  -20.6780  -26.9407   22.5322 C   0  0  0  0  0  0
  -19.5725  -26.6356   21.5164 C   0  0  0  0  0  0
  -18.1904  -26.7938   22.1583 C   0  0  0  0  0  0
  -19.1547  -28.8828   23.2877 C   0  0  0  0  0  0
  -18.9499  -30.1403   23.8959 C   0  0  0  0  0  0
  -17.6510  -30.6547   24.0657 C   0  0  0  0  0  0
  -25.9047  -34.9450   23.5101 C   0  0  0  0  0  0
  -16.5391  -29.9086   23.6374 C   0  0  0  0  0  0
  -16.7281  -28.6522   23.0346 C   0  0  0  0  0  0
  -26.4504  -31.6581   25.0729 C   0  0  0  0  0  0
  -25.3756  -31.3724   26.1470 C   0  0  0  0  0  0
  -27.0347  -30.3012   24.6175 C   0  0  0  0  0  0
  -27.6063  -32.4311   25.7501 C   0  0  0  0  0  0
  -27.5574  -37.1805   24.8463 C   0  0  0  0  0  0
  -21.4156  -29.3052   22.3666 N   0  0  0  0  0  0
  -26.4291  -37.3772   23.9401 N   0  0  0  0  0  0
  -24.6816  -31.0655   22.0977 N   0  0  0  0  0  0
  -23.4176  -28.8188   23.2998 O   0  0  0  0  0  0
  -28.3796  -26.5505   20.1498 O   0  0  0  0  0  0
  -26.5604  -34.8916   22.4662 O   0  0  0  0  0  0
  -23.5420  -32.1400   23.7400 O   0  0  0  0  0  0
  -29.0063  -19.1291   19.8618 C   0  0  0  0  0  0
  -29.2283  -17.7214   19.8541 C   0  0  0  0  0  0
  -30.1177  -19.2658   21.9848 C   0  0  0  0  0  0
  -30.3471  -17.8525   22.0037 C   0  0  0  0  0  0
  -29.4169  -19.9401   20.9504 C   0  0  0  0  0  0
  -29.8814  -17.0445   20.9194 C   0  0  0  0  0  0
  -31.0732  -17.2670   23.1780 C   0  0  0  0  0  0
  -28.6613  -24.0115   20.5364 C   0  0  0  0  0  0
  -30.9445  -17.9876   24.5151 C   0  0  0  0  0  0
  -29.7055  -22.3947   18.8588 C   0  0  0  0  0  0
  -27.2622  -22.1959   19.4955 C   0  0  0  0  0  0
  -29.0646  -21.4631   21.1660 C   0  0  0  0  0  0
  -28.4503  -25.2105   19.5363 C   0  0  0  0  0  0
  -28.6869  -22.5058   20.0134 C   0  0  0  0  0  0
  -29.7962  -15.5922   20.9844 N   0  0  0  0  0  0
  -31.7521  -16.2370   23.1366 O   0  0  0  0  0  0
  -28.7978  -24.2471   21.7411 O   0  0  0  0  0  0
  -31.4845  -12.5152   19.1395 H   0  0  0  0  0  0
  -30.3936  -11.3693   19.8679 H   0  0  0  0  0  0
  -29.7674  -11.7698   17.4636 H   0  0  0  0  0  0
  -29.6549  -13.4856   17.7594 H   0  0  0  0  0  0
  -27.8516  -11.2964   18.8395 H   0  0  0  0  0  0
  -27.3801  -12.6068   17.7916 H   0  0  0  0  0  0
  -27.6881  -14.2503   19.5478 H   0  0  0  0  0  0
  -28.7047  -11.9870   21.3432 H   0  0  0  0  0  0
  -28.4430  -13.6164   21.8743 H   0  0  0  0  0  0
  -25.2746   -9.5676   22.4756 H   0  0  0  0  0  0
  -23.9966   -7.4634   22.7474 H   0  0  0  0  0  0
  -21.0815   -8.8772   19.8951 H   0  0  0  0  0  0
  -22.3678  -10.9664   19.6156 H   0  0  0  0  0  0
  -21.2022   -7.6140   23.9713 H   0  0  0  0  0  0
  -21.1478   -6.0519   25.9080 H   0  0  0  0  0  0
  -22.0594   -2.7588   23.2865 H   0  0  0  0  0  0
  -22.4075  -11.9901   22.4806 H   0  0  0  0  0  0
  -21.1098  -13.1285   22.2631 H   0  0  0  0  0  0
  -24.6612  -15.8413   20.5229 H   0  0  0  0  0  0
  -26.2848  -15.6340   20.1084 H   0  0  0  0  0  0
  -26.7164  -32.5454   23.1100 H   0  0  0  0  0  0
  -25.0140  -33.9733   25.0477 H   0  0  0  0  0  0
  -22.7067  -31.3078   21.4034 H   0  0  0  0  0  0
  -23.3747  -35.9629   23.3303 H   0  0  0  0  0  0
  -24.3587  -36.8908   22.2047 H   0  0  0  0  0  0
  -23.7260  -37.6500   23.6655 H   0  0  0  0  0  0
  -26.0815  -31.5632   20.6049 H   0  0  0  0  0  0
  -26.8326  -30.8455   22.0004 H   0  0  0  0  0  0
  -28.1035  -29.0011   21.1811 H   0  0  0  0  0  0
  -25.9326  -25.9257   19.0323 H   0  0  0  0  0  0
  -23.9533  -27.2938   19.0524 H   0  0  0  0  0  0
  -23.7453  -30.5981   19.4031 H   0  0  0  0  0  0
  -22.7464  -29.2508   19.8603 H   0  0  0  0  0  0
  -25.1295  -36.1920   25.0819 H   0  0  0  0  0  0
  -21.0008  -28.3207   24.1355 H   0  0  0  0  0  0
  -20.5756  -26.2256   23.3490 H   0  0  0  0  0  0
  -21.6629  -26.7491   22.1040 H   0  0  0  0  0  0
  -19.6865  -25.6247   21.1249 H   0  0  0  0  0  0
  -19.6650  -27.3121   20.6659 H   0  0  0  0  0  0
  -17.4175  -26.6734   21.3976 H   0  0  0  0  0  0
  -18.0272  -26.0062   22.8956 H   0  0  0  0  0  0
  -19.7992  -30.7168   24.2386 H   0  0  0  0  0  0
  -17.5087  -31.6194   24.5340 H   0  0  0  0  0  0
  -15.5405  -30.3000   23.7715 H   0  0  0  0  0  0
  -15.8668  -28.0876   22.7018 H   0  0  0  0  0  0
  -24.5931  -30.7055   25.7828 H   0  0  0  0  0  0
  -24.8944  -32.2892   26.4898 H   0  0  0  0  0  0
  -25.8109  -30.8927   27.0246 H   0  0  0  0  0  0
  -26.2926  -29.6760   24.1201 H   0  0  0  0  0  0
  -27.4053  -29.7274   25.4678 H   0  0  0  0  0  0
  -27.8790  -30.4302   23.9394 H   0  0  0  0  0  0
  -27.2679  -33.3608   26.2091 H   0  0  0  0  0  0
  -28.3884  -32.6878   25.0338 H   0  0  0  0  0  0
  -28.0718  -31.8427   26.5420 H   0  0  0  0  0  0
  -28.2594  -38.0097   24.7498 H   0  0  0  0  0  0
  -28.1069  -36.2633   24.6301 H   0  0  0  0  0  0
  -27.2299  -37.1466   25.8869 H   0  0  0  0  0  0
  -20.9306  -29.8777   21.6893 H   0  0  0  0  0  0
  -26.0168  -38.2849   24.1401 H   0  0  0  0  0  0
  -28.4754  -19.5539   19.0253 H   0  0  0  0  0  0
  -28.8335  -17.1501   19.0261 H   0  0  0  0  0  0
  -30.4539  -19.8630   22.8200 H   0  0  0  0  0  0
  -29.9388  -18.3886   24.6387 H   0  0  0  0  0  0
  -31.6629  -18.8042   24.5740 H   0  0  0  0  0  0
  -31.1386  -17.2991   25.3367 H   0  0  0  0  0  0
  -29.4631  -23.0633   18.0317 H   0  0  0  0  0  0
  -29.7443  -21.3895   18.4439 H   0  0  0  0  0  0
  -30.7113  -22.6415   19.1992 H   0  0  0  0  0  0
  -27.0004  -22.8027   18.6287 H   0  0  0  0  0  0
  -26.5086  -22.3827   20.2630 H   0  0  0  0  0  0
  -27.1401  -21.1603   19.1898 H   0  0  0  0  0  0
  -29.9156  -21.8824   21.7059 H   0  0  0  0  0  0
  -28.2535  -21.4707   21.8962 H   0  0  0  0  0  0
  -27.6272  -24.9825   18.8669 H   0  0  0  0  0  0
  -29.3253  -25.2277   18.8872 H   0  0  0  0  0  0
  -28.9006  -15.2387   21.2853 H   0  0  0  0  0  0
  1 25  1  0  0  0
  1 30  2  0  0  0
  1 85  1  0  0  0
  2  3  1  0  0  0
  2 25  1  0  0  0
  2 88  1  0  0  0
  2 89  1  0  0  0
  3  4  1  0  0  0
  3 90  1  0  0  0
  3 91  1  0  0  0
  4  5  1  0  0  0
  4 92  1  0  0  0
  4 93  1  0  0  0
  5  6  1  0  0  0
  5 26  1  0  0  0
  5 94  1  0  0  0
  6 25  1  0  0  0
  6 95  1  0  0  0
  6 96  1  0  0  0
  7  8  2  0  0  0
  7 26  1  0  0  0
  7 29  1  0  0  0
  8  9  1  0  0  0
  8 22  1  0  0  0
  9 10  1  0  0  0
  9 27  2  0  0  0
 10 11  2  0  0  0
 10 15  1  0  0  0
 11 12  1  0  0  0
 11 97  1  0  0  0
 12 13  2  0  0  0
 12 98  1  0  0  0
 13 14  1  0  0  0
 13 31  1  0  0  0
 14 15  2  0  0  0
 14 99  1  0  0  0
 15100  1  0  0  0
 16 17  2  0  0  0
 16 21  1  0  0  0
 16 31  1  0  0  0
 17 18  1  0  0  0
 17101  1  0  0  0
 18 19  2  0  0  0
 18102  1  0  0  0
 19 20  1  0  0  0
 19 24  1  0  0  0
 20 21  2  0  0  0
 20103  1  0  0  0
 21 23  1  0  0  0
 22 28  1  0  0  0
 22 32  2  0  0  0
 26 27  1  0  0  0
 28104  1  0  0  0
 28105  1  0  0  0
 29106  1  0  0  0
 29107  1  0  0  0
 33 34  1  0  0  0
 33 66  1  0  0  0
 33 70  2  0  0  0
 34 36  1  0  0  0
 34 59  1  0  0  0
 34108  1  0  0  0
 35 44  2  0  0  0
 35 45  1  0  0  0
 35 68  1  0  0  0
 36 56  1  0  0  0
 36109  1  0  0  0
 37 39  1  0  0  0
 37 47  1  0  0  0
 37 66  1  0  0  0
 37110  1  0  0  0
 38 43  2  0  0  0
 38 46  1  0  0  0
 38 47  1  0  0  0
 39 64  1  0  0  0
 39 67  2  0  0  0
 40 52  1  0  0  0
 40 53  2  0  0  0
 40 58  1  0  0  0
 41111  1  0  0  0
 41112  1  0  0  0
 41113  1  0  0  0
 41 48  1  0  0  0
 42 43  1  0  0  0
 42 66  1  0  0  0
 42114  1  0  0  0
 42115  1  0  0  0
 43 44  1  0  0  0
 44116  1  0  0  0
 45 46  2  0  0  0
 45117  1  0  0  0
 46118  1  0  0  0
 47119  1  0  0  0
 47120  1  0  0  0
 48 56  1  0  0  0
 48 65  1  0  0  0
 48121  1  0  0  0
 49 50  1  0  0  0
 49 53  1  0  0  0
 49 64  1  0  0  0
 49122  1  0  0  0
 50 51  1  0  0  0
 50123  1  0  0  0
 50124  1  0  0  0
 51 52  1  0  0  0
 51125  1  0  0  0
 51126  1  0  0  0
 52127  1  0  0  0
 52128  1  0  0  0
 53 54  1  0  0  0
 54 55  2  0  0  0
 54129  1  0  0  0
 55 57  1  0  0  0
 55130  1  0  0  0
 56 69  2  0  0  0
 57 58  2  0  0  0
 57131  1  0  0  0
 58132  1  0  0  0
 59 60  1  0  0  0
 59 61  1  0  0  0
 59 62  1  0  0  0
 60133  1  0  0  0
 60134  1  0  0  0
 60135  1  0  0  0
 61136  1  0  0  0
 61137  1  0  0  0
 61138  1  0  0  0
 62139  1  0  0  0
 62140  1  0  0  0
 62141  1  0  0  0
 63 65  1  0  0  0
 63142  1  0  0  0
 63143  1  0  0  0
 63144  1  0  0  0
 64145  1  0  0  0
 65146  1  0  0  0
 68 83  1  0  0  0
 71 72  2  0  0  0
 71 75  1  0  0  0
 71147  1  0  0  0
 72 76  1  0  0  0
 72148  1  0  0  0
 73 74  1  0  0  0
 73 75  2  0  0  0
 73149  1  0  0  0
 74 76  2  0  0  0
 74 77  1  0  0  0
 75 82  1  0  0  0
 76 85  1  0  0  0
 77 79  1  0  0  0
 77 86  2  0  0  0
 78 83  1  0  0  0
 78 84  1  0  0  0
 78 87  2  0  0  0
 79150  1  0  0  0
 79151  1  0  0  0
 79152  1  0  0  0
 80153  1  0  0  0
 80154  1  0  0  0
 80155  1  0  0  0
 80 84  1  0  0  0
 81 84  1  0  0  0
 81156  1  0  0  0
 81157  1  0  0  0
 81158  1  0  0  0
 82 84  1  0  0  0
 82159  1  0  0  0
 82160  1  0  0  0
 83161  1  0  0  0
 83162  1  0  0  0
 85163  1  0  0  0
M  ISO  4   1 100  68 101  83 101  85 100
M  END
> <chiral flag>
0

> <version>
0

> <s_m_source_file>
/data/baiqing/PycharmProjects/Reinvent-master-3.2/result/LINK_invent/BTK/process_docking_weight1_custom_product_contain_oxygen_bond_distance_aromatic_linkinvent_7_9_3/rearranged_h_0135.sdf

> <i_m_source_file_index>
11

> <r_mmod_Potential_Energy-OPLS-2005>
175.742553710938

> <r_mmod_Stretch_Energy-OPLS-2005>
78.9765701293945

> <r_mmod_Bend_Energy-OPLS-2005>
151.031478881836

> <r_mmod_Torsional_Energy-OPLS-2005>
278.979766845703

> <r_mmod_Improper_Torsional_Energy-OPLS-2005>
5.91240215301514

> <r_mmod_Van_der_Waal_Energy-OPLS-2005>
150.765380859375

> <r_mmod_Electrostatic_Energy-OPLS-2005>
-285.738067626953

> <r_mmod_Solvation_Energy-OPLS-2005>
-241.050964355469

> <b_mmod_Minimization_Converged-OPLS-2005>
0

> <r_mmod_RMS_Derivative-OPLS-2005>
2.05355024337769

$$$$
11
                    3D
 Structure written by MMmdl.
168176  0  0  1  0            999 V2000
  -30.6438  -14.6302   20.4884 C   0  0  0  0  0  0
  -30.4418  -12.3868   19.4452 C   0  0  0  0  0  0
  -29.5085  -12.5028   18.2199 C   0  0  0  0  0  0
  -28.0315  -12.3420   18.6340 C   0  0  0  0  0  0
  -27.6542  -13.2101   19.8630 C   0  0  2  0  0  0
  -28.7046  -13.0802   20.9897 C   0  0  0  0  0  0
  -25.2516  -13.8094   20.5702 C   0  0  0  0  0  0
  -24.1803  -13.0372   20.9210 C   0  0  0  0  0  0
  -24.6392  -11.6863   20.8752 C   0  0  0  0  0  0
  -23.9060  -10.4265   21.0413 C   0  0  0  0  0  0
  -24.3610   -9.4189   21.9192 C   0  0  0  0  0  0
  -23.6283   -8.2231   22.0762 C   0  0  0  0  0  0
  -22.4264   -8.0280   21.3552 C   0  0  0  0  0  0
  -21.9896   -9.0250   20.4651 C   0  0  0  0  0  0
  -22.7233  -10.2123   20.3058 C   0  0  0  0  0  0
  -21.6849   -6.0737   22.5285 C   0  0  0  0  0  0
  -21.4011   -6.5635   23.8216 C   0  0  0  0  0  0
  -21.3655   -5.6787   24.9177 C   0  0  0  0  0  0
  -21.6043   -4.3052   24.7227 C   0  0  0  0  0  0
  -21.8818   -3.8149   23.4347 C   0  0  0  0  0  0
  -21.9190   -4.6965   22.3404 C   0  0  0  0  0  0
  -22.7831  -13.5194   21.1854 C   0  0  0  0  0  0
  -22.1663   -4.2153   21.0983 F   0  0  0  0  0  0
  -21.5624   -3.4537   25.7740 F   0  0  0  0  0  0
  -30.0208  -13.4120   20.4186 N   0  0  0  0  0  0
  -26.2987  -12.9308   20.3324 N   0  0  0  0  0  0
  -25.9322  -11.6467   20.5766 N   0  0  0  0  0  0
  -22.0447  -12.8217   22.0416 N   0  0  0  0  0  0
  -25.4057  -15.1804   20.4139 N   0  0  0  0  0  0
  -31.8182  -14.7793   20.1435 O   0  0  0  0  0  0
  -21.6628   -6.8882   21.4248 O   0  0  0  0  0  0
  -22.3538  -14.5512   20.6703 O   0  0  0  0  0  0
  -24.6234  -31.8622   23.2057 C   0  0  0  0  0  0
  -25.9088  -32.4791   23.8378 C   0  0  1  0  0  0
  -27.2274  -27.3458   20.1088 C   0  0  0  0  0  0
  -25.5908  -33.8593   24.2300 N   0  0  0  0  0  0
  -23.4159  -30.4859   21.5486 C   0  0  2  0  0  0
  -24.8617  -28.9450   20.1151 C   0  0  0  0  0  0
  -22.7465  -29.4629   22.4961 C   0  0  0  0  0  0
  -18.0284  -28.1377   22.8500 C   0  0  0  0  0  0
  -24.1483  -36.7302   23.2640 C   0  0  0  0  0  0
  -25.9554  -30.8000   21.3747 C   0  0  0  0  0  0
  -26.0299  -29.4298   20.7163 C   0  0  0  0  0  0
  -27.2158  -28.6419   20.7033 C   0  0  0  0  0  0
  -26.0361  -26.9094   19.4839 C   0  0  0  0  0  0
  -24.8651  -27.6884   19.4923 C   0  0  0  0  0  0
  -23.6290  -29.8223   20.1636 C   0  0  0  0  0  0
  -25.4104  -36.3092   24.0332 C   0  0  1  0  0  0
  -20.5884  -28.3675   23.1296 C   0  0  2  0  0  0
  -20.6769  -26.9399   22.5417 C   0  0  0  0  0  0
  -19.5740  -26.6382   21.5221 C   0  0  0  0  0  0
  -18.1922  -26.7923   22.1634 C   0  0  0  0  0  0
  -19.1537  -28.8843   23.2895 C   0  0  0  0  0  0
  -18.9462  -30.1446   23.8906 C   0  0  0  0  0  0
  -17.6460  -30.6582   24.0563 C   0  0  0  0  0  0
  -25.9042  -34.9456   23.5117 C   0  0  0  0  0  0
  -16.5352  -29.9083   23.6323 C   0  0  0  0  0  0
  -16.7273  -28.6497   23.0357 C   0  0  0  0  0  0
  -26.4487  -31.6590   25.0734 C   0  0  0  0  0  0
  -25.3733  -31.3720   26.1471 C   0  0  0  0  0  0
  -27.0327  -30.3018   24.6169 C   0  0  0  0  0  0
  -27.6053  -32.4323   25.7493 C   0  0  0  0  0  0
  -27.5573  -37.1800   24.8462 C   0  0  0  0  0  0
  -21.4182  -29.3033   22.3698 N   0  0  0  0  0  0
  -26.4286  -37.3779   23.9405 N   0  0  0  0  0  0
  -24.6833  -31.0654   22.0998 N   0  0  0  0  0  0
  -23.4205  -28.8166   23.3026 O   0  0  0  0  0  0
  -28.3672  -26.5346   20.1186 O   0  0  0  0  0  0
  -26.5617  -34.8917   22.4690 O   0  0  0  0  0  0
  -23.5400  -32.1414   23.7392 O   0  0  0  0  0  0
  -29.1780  -19.3174   19.7081 C   0  0  0  0  0  0
  -31.0390  -17.8599   21.2131 C   0  0  0  0  0  0
  -29.0810  -17.8983   19.7999 C   0  0  0  0  0  0
  -30.1916  -20.0456   20.3714 C   0  0  0  0  0  0
  -30.0132  -17.1290   20.5625 C   0  0  0  0  0  0
  -31.1275  -19.2790   21.1202 C   0  0  0  0  0  0
  -27.2791  -15.9381   16.9335 C   0  0  0  0  0  0
  -29.7835  -24.2859   18.5527 C   0  0  0  0  0  0
  -30.6202  -24.6834   20.8937 C   0  0  0  0  0  0
  -27.9564  -17.2249   19.0357 C   0  0  0  0  0  0
  -30.3782  -21.5861   20.1614 C   0  0  0  0  0  0
  -28.4238  -16.6005   17.7118 C   0  0  0  0  0  0
  -29.1881  -22.6097   20.3980 C   0  0  0  0  0  0
  -28.1930  -25.0847   20.3289 C   0  0  0  0  0  0
  -29.4441  -24.1530   20.0514 C   0  0  0  0  0  0
  -29.8258  -15.6923   20.7539 N   0  0  0  0  0  0
  -32.1476  -19.9055   21.7547 F   0  0  0  0  0  0
  -31.4832  -12.5093   19.1409 H   0  0  0  0  0  0
  -30.3750  -11.3933   19.8905 H   0  0  0  0  0  0
  -29.7707  -11.7512   17.4736 H   0  0  0  0  0  0
  -29.6525  -13.4706   17.7379 H   0  0  0  0  0  0
  -27.8645  -11.2887   18.8624 H   0  0  0  0  0  0
  -27.3792  -12.5775   17.7929 H   0  0  0  0  0  0
  -27.6693  -14.2394   19.5158 H   0  0  0  0  0  0
  -28.7162  -12.0658   21.3905 H   0  0  0  0  0  0
  -28.4564  -13.7299   21.8306 H   0  0  0  0  0  0
  -25.2755   -9.5661   22.4768 H   0  0  0  0  0  0
  -23.9991   -7.4613   22.7470 H   0  0  0  0  0  0
  -21.0830   -8.8771   19.8953 H   0  0  0  0  0  0
  -22.3702  -10.9663   19.6170 H   0  0  0  0  0  0
  -21.2006   -7.6144   23.9721 H   0  0  0  0  0  0
  -21.1474   -6.0518   25.9077 H   0  0  0  0  0  0
  -22.0601   -2.7612   23.2844 H   0  0  0  0  0  0
  -22.4050  -11.9894   22.4840 H   0  0  0  0  0  0
  -21.1075  -13.1278   22.2598 H   0  0  0  0  0  0
  -24.6178  -15.8124   20.5065 H   0  0  0  0  0  0
  -26.2258  -15.6249   20.0306 H   0  0  0  0  0  0
  -26.7159  -32.5467   23.1132 H   0  0  0  0  0  0
  -25.0019  -33.9747   25.0417 H   0  0  0  0  0  0
  -22.7078  -31.3049   21.4078 H   0  0  0  0  0  0
  -23.3738  -35.9642   23.3312 H   0  0  0  0  0  0
  -24.3576  -36.8911   22.2052 H   0  0  0  0  0  0
  -23.7244  -37.6510   23.6659 H   0  0  0  0  0  0
  -26.0869  -31.5659   20.6093 H   0  0  0  0  0  0
  -26.8362  -30.8466   22.0036 H   0  0  0  0  0  0
  -28.1153  -29.0118   21.1752 H   0  0  0  0  0  0
  -25.9819  -25.9657   18.9649 H   0  0  0  0  0  0
  -23.9715  -27.3149   19.0114 H   0  0  0  0  0  0
  -23.7472  -30.5998   19.4081 H   0  0  0  0  0  0
  -22.7492  -29.2513   19.8611 H   0  0  0  0  0  0
  -25.1281  -36.1951   25.0825 H   0  0  0  0  0  0
  -20.9981  -28.3241   24.1413 H   0  0  0  0  0  0
  -20.5673  -26.2280   23.3614 H   0  0  0  0  0  0
  -21.6635  -26.7427   22.1203 H   0  0  0  0  0  0
  -19.6895  -25.6299   21.1234 H   0  0  0  0  0  0
  -19.6665  -27.3204   20.6761 H   0  0  0  0  0  0
  -17.4190  -26.6685   21.4036 H   0  0  0  0  0  0
  -18.0308  -26.0062   22.9024 H   0  0  0  0  0  0
  -19.7935  -30.7265   24.2277 H   0  0  0  0  0  0
  -17.5012  -31.6262   24.5161 H   0  0  0  0  0  0
  -15.5351  -30.2989   23.7631 H   0  0  0  0  0  0
  -15.8676  -28.0811   22.7074 H   0  0  0  0  0  0
  -24.5906  -30.7069   25.7803 H   0  0  0  0  0  0
  -24.8929  -32.2886   26.4905 H   0  0  0  0  0  0
  -25.8070  -30.8894   27.0239 H   0  0  0  0  0  0
  -26.2897  -29.6772   24.1198 H   0  0  0  0  0  0
  -27.4038  -29.7261   25.4659 H   0  0  0  0  0  0
  -27.8762  -30.4306   23.9382 H   0  0  0  0  0  0
  -27.2670  -33.3620   26.2078 H   0  0  0  0  0  0
  -28.3855  -32.6888   25.0314 H   0  0  0  0  0  0
  -28.0738  -31.8451   26.5401 H   0  0  0  0  0  0
  -28.2596  -38.0089   24.7500 H   0  0  0  0  0  0
  -28.1064  -36.2623   24.6298 H   0  0  0  0  0  0
  -27.2298  -37.1460   25.8867 H   0  0  0  0  0  0
  -20.9358  -29.8762   21.6916 H   0  0  0  0  0  0
  -26.0172  -38.2856   24.1405 H   0  0  0  0  0  0
  -28.4701  -19.8569   19.0947 H   0  0  0  0  0  0
  -31.7702  -17.3372   21.8118 H   0  0  0  0  0  0
  -27.6482  -15.4721   16.0191 H   0  0  0  0  0  0
  -26.5216  -16.6694   16.6497 H   0  0  0  0  0  0
  -26.7848  -15.1635   17.5199 H   0  0  0  0  0  0
  -30.7306  -23.8107   18.3004 H   0  0  0  0  0  0
  -29.8646  -25.3322   18.2543 H   0  0  0  0  0  0
  -29.0104  -23.8329   17.9303 H   0  0  0  0  0  0
  -31.5414  -24.1307   20.7116 H   0  0  0  0  0  0
  -30.4003  -24.6221   21.9600 H   0  0  0  0  0  0
  -30.8302  -25.7287   20.6651 H   0  0  0  0  0  0
  -27.1627  -17.9476   18.8419 H   0  0  0  0  0  0
  -27.5174  -16.4734   19.6803 H   0  0  0  0  0  0
  -30.7280  -21.6941   19.1354 H   0  0  0  0  0  0
  -31.2170  -21.8976   20.7819 H   0  0  0  0  0  0
  -28.8826  -17.3695   17.0887 H   0  0  0  0  0  0
  -29.2023  -15.8628   17.9044 H   0  0  0  0  0  0
  -28.8835  -22.5363   21.4427 H   0  0  0  0  0  0
  -28.3257  -22.2703   19.8240 H   0  0  0  0  0  0
  -27.8740  -24.9461   21.3629 H   0  0  0  0  0  0
  -27.3847  -24.6838   19.7223 H   0  0  0  0  0  0
  -28.8739  -15.4089   20.9207 H   0  0  0  0  0  0
  1 25  1  0  0  0
  1 30  2  0  0  0
  1 86  1  0  0  0
  2  3  1  0  0  0
  2 25  1  0  0  0
  2 88  1  0  0  0
  2 89  1  0  0  0
  3  4  1  0  0  0
  3 90  1  0  0  0
  3 91  1  0  0  0
  4  5  1  0  0  0
  4 92  1  0  0  0
  4 93  1  0  0  0
  5  6  1  0  0  0
  5 26  1  0  0  0
  5 94  1  0  0  0
  6 25  1  0  0  0
  6 95  1  0  0  0
  6 96  1  0  0  0
  7  8  2  0  0  0
  7 26  1  0  0  0
  7 29  1  0  0  0
  8  9  1  0  0  0
  8 22  1  0  0  0
  9 10  1  0  0  0
  9 27  2  0  0  0
 10 11  2  0  0  0
 10 15  1  0  0  0
 11 12  1  0  0  0
 11 97  1  0  0  0
 12 13  2  0  0  0
 12 98  1  0  0  0
 13 14  1  0  0  0
 13 31  1  0  0  0
 14 15  2  0  0  0
 14 99  1  0  0  0
 15100  1  0  0  0
 16 17  2  0  0  0
 16 21  1  0  0  0
 16 31  1  0  0  0
 17 18  1  0  0  0
 17101  1  0  0  0
 18 19  2  0  0  0
 18102  1  0  0  0
 19 20  1  0  0  0
 19 24  1  0  0  0
 20 21  2  0  0  0
 20103  1  0  0  0
 21 23  1  0  0  0
 22 28  1  0  0  0
 22 32  2  0  0  0
 26 27  1  0  0  0
 28104  1  0  0  0
 28105  1  0  0  0
 29106  1  0  0  0
 29107  1  0  0  0
 33 34  1  0  0  0
 33 66  1  0  0  0
 33 70  2  0  0  0
 34 36  1  0  0  0
 34 59  1  0  0  0
 34108  1  0  0  0
 35 44  2  0  0  0
 35 45  1  0  0  0
 35 68  1  0  0  0
 36 56  1  0  0  0
 36109  1  0  0  0
 37 39  1  0  0  0
 37 47  1  0  0  0
 37 66  1  0  0  0
 37110  1  0  0  0
 38 43  2  0  0  0
 38 46  1  0  0  0
 38 47  1  0  0  0
 39 64  1  0  0  0
 39 67  2  0  0  0
 40 52  1  0  0  0
 40 53  2  0  0  0
 40 58  1  0  0  0
 41111  1  0  0  0
 41112  1  0  0  0
 41113  1  0  0  0
 41 48  1  0  0  0
 42 43  1  0  0  0
 42 66  1  0  0  0
 42114  1  0  0  0
 42115  1  0  0  0
 43 44  1  0  0  0
 44116  1  0  0  0
 45 46  2  0  0  0
 45117  1  0  0  0
 46118  1  0  0  0
 47119  1  0  0  0
 47120  1  0  0  0
 48 56  1  0  0  0
 48 65  1  0  0  0
 48121  1  0  0  0
 49 50  1  0  0  0
 49 53  1  0  0  0
 49 64  1  0  0  0
 49122  1  0  0  0
 50 51  1  0  0  0
 50123  1  0  0  0
 50124  1  0  0  0
 51 52  1  0  0  0
 51125  1  0  0  0
 51126  1  0  0  0
 52127  1  0  0  0
 52128  1  0  0  0
 53 54  1  0  0  0
 54 55  2  0  0  0
 54129  1  0  0  0
 55 57  1  0  0  0
 55130  1  0  0  0
 56 69  2  0  0  0
 57 58  2  0  0  0
 57131  1  0  0  0
 58132  1  0  0  0
 59 60  1  0  0  0
 59 61  1  0  0  0
 59 62  1  0  0  0
 60133  1  0  0  0
 60134  1  0  0  0
 60135  1  0  0  0
 61136  1  0  0  0
 61137  1  0  0  0
 61138  1  0  0  0
 62139  1  0  0  0
 62140  1  0  0  0
 62141  1  0  0  0
 63 65  1  0  0  0
 63142  1  0  0  0
 63143  1  0  0  0
 63144  1  0  0  0
 64145  1  0  0  0
 65146  1  0  0  0
 68 84  1  0  0  0
 71 73  2  0  0  0
 71 74  1  0  0  0
 71147  1  0  0  0
 72 75  2  0  0  0
 72 76  1  0  0  0
 72148  1  0  0  0
 73 75  1  0  0  0
 73 80  1  0  0  0
 74 76  2  0  0  0
 74 81  1  0  0  0
 75 86  1  0  0  0
 76 87  1  0  0  0
 77 82  1  0  0  0
 77149  1  0  0  0
 77150  1  0  0  0
 77151  1  0  0  0
 78152  1  0  0  0
 78153  1  0  0  0
 78154  1  0  0  0
 78 85  1  0  0  0
 79 85  1  0  0  0
 79155  1  0  0  0
 79156  1  0  0  0
 79157  1  0  0  0
 80 82  1  0  0  0
 80158  1  0  0  0
 80159  1  0  0  0
 81 83  1  0  0  0
 81160  1  0  0  0
 81161  1  0  0  0
 82162  1  0  0  0
 82163  1  0  0  0
 83 85  1  0  0  0
 83164  1  0  0  0
 83165  1  0  0  0
 84 85  1  0  0  0
 84166  1  0  0  0
 84167  1  0  0  0
 86168  1  0  0  0
M  ISO  4   1 100  68 101  84 101  86 100
M  END
> <chiral flag>
0

> <version>
0

> <s_m_source_file>
/data/baiqing/PycharmProjects/Reinvent-master-3.2/result/LINK_invent/BTK/process_docking_weight1_custom_product_contain_oxygen_bond_distance_aromatic_linkinvent_7_9_3/rearranged_h_0135.sdf

> <i_m_source_file_index>
12

> <r_mmod_Potential_Energy-OPLS-2005>
77.1327362060547

> <r_mmod_Stretch_Energy-OPLS-2005>
72.1492309570312

> <r_mmod_Bend_Energy-OPLS-2005>
128.114700317383

> <r_mmod_Torsional_Energy-OPLS-2005>
247.128112792969

> <r_mmod_Improper_Torsional_Energy-OPLS-2005>
6.47865104675293

> <r_mmod_Van_der_Waal_Energy-OPLS-2005>
131.616714477539

> <r_mmod_Electrostatic_Energy-OPLS-2005>
-360.612182617188

> <r_mmod_Solvation_Energy-OPLS-2005>
-188.690002441406

> <b_mmod_Minimization_Converged-OPLS-2005>
0

> <r_mmod_RMS_Derivative-OPLS-2005>
1.28554451465607

$$$$
12
                    3D
 Structure written by MMmdl.
162170  0  0  1  0            999 V2000
  -30.6917  -14.4844   20.5957 C   0  0  0  0  0  0
  -30.4222  -12.3214   19.4276 C   0  0  0  0  0  0
  -29.5028  -12.5131   18.2053 C   0  0  0  0  0  0
  -28.0196  -12.3698   18.6084 C   0  0  0  0  0  0
  -27.6579  -13.2102   19.8636 C   0  0  2  0  0  0
  -28.6929  -12.9944   20.9878 C   0  0  0  0  0  0
  -25.2576  -13.8170   20.5652 C   0  0  0  0  0  0
  -24.1834  -13.0448   20.9154 C   0  0  0  0  0  0
  -24.6384  -11.6914   20.8716 C   0  0  0  0  0  0
  -23.9044  -10.4304   21.0403 C   0  0  0  0  0  0
  -24.3604   -9.4216   21.9166 C   0  0  0  0  0  0
  -23.6300   -8.2246   22.0739 C   0  0  0  0  0  0
  -22.4269   -8.0290   21.3549 C   0  0  0  0  0  0
  -21.9905   -9.0259   20.4654 C   0  0  0  0  0  0
  -22.7221  -10.2145   20.3041 C   0  0  0  0  0  0
  -21.6853   -6.0743   22.5286 C   0  0  0  0  0  0
  -21.4015   -6.5638   23.8221 C   0  0  0  0  0  0
  -21.3653   -5.6791   24.9187 C   0  0  0  0  0  0
  -21.6045   -4.3053   24.7233 C   0  0  0  0  0  0
  -21.8816   -3.8157   23.4351 C   0  0  0  0  0  0
  -21.9197   -4.6973   22.3410 C   0  0  0  0  0  0
  -22.7854  -13.5244   21.1832 C   0  0  0  0  0  0
  -22.1659   -4.2155   21.0984 F   0  0  0  0  0  0
  -21.5633   -3.4536   25.7748 F   0  0  0  0  0  0
  -30.0211  -13.3114   20.4404 N   0  0  0  0  0  0
  -26.3006  -12.9330   20.3275 N   0  0  0  0  0  0
  -25.9299  -11.6485   20.5681 N   0  0  0  0  0  0
  -22.0476  -12.8268   22.0409 N   0  0  0  0  0  0
  -25.4369  -15.1876   20.4068 N   0  0  0  0  0  0
  -31.8125  -14.6713   20.1114 O   0  0  0  0  0  0
  -21.6634   -6.8890   21.4241 O   0  0  0  0  0  0
  -22.3531  -14.5543   20.6673 O   0  0  0  0  0  0
  -24.6179  -31.8717   23.2160 C   0  0  0  0  0  0
  -25.9077  -32.4843   23.8433 C   0  0  1  0  0  0
  -27.2178  -27.4137   20.0870 C   0  0  0  0  0  0
  -25.5920  -33.8638   24.2353 N   0  0  0  0  0  0
  -23.4031  -30.4988   21.5599 C   0  0  2  0  0  0
  -24.8434  -28.9743   20.1150 C   0  0  0  0  0  0
  -22.7438  -29.4659   22.5031 C   0  0  0  0  0  0
  -18.0254  -28.1370   22.8481 C   0  0  0  0  0  0
  -24.1472  -36.7310   23.2631 C   0  0  0  0  0  0
  -25.9385  -30.8243   21.3791 C   0  0  0  0  0  0
  -26.0074  -29.4604   20.7230 C   0  0  0  0  0  0
  -27.1941  -28.6844   20.7163 C   0  0  0  0  0  0
  -26.0298  -26.9631   19.4727 C   0  0  0  0  0  0
  -24.8516  -27.7225   19.4879 C   0  0  0  0  0  0
  -23.6108  -29.8462   20.1692 C   0  0  0  0  0  0
  -25.4091  -36.3131   24.0343 C   0  0  1  0  0  0
  -20.5856  -28.3648   23.1329 C   0  0  2  0  0  0
  -20.6738  -26.9370   22.5454 C   0  0  0  0  0  0
  -19.5737  -26.6377   21.5220 C   0  0  0  0  0  0
  -18.1900  -26.7925   22.1601 C   0  0  0  0  0  0
  -19.1509  -28.8828   23.2896 C   0  0  0  0  0  0
  -18.9441  -30.1429   23.8914 C   0  0  0  0  0  0
  -17.6451  -30.6579   24.0552 C   0  0  0  0  0  0
  -25.9034  -34.9493   23.5145 C   0  0  0  0  0  0
  -16.5336  -29.9080   23.6321 C   0  0  0  0  0  0
  -16.7249  -28.6495   23.0344 C   0  0  0  0  0  0
  -26.4464  -31.6624   25.0775 C   0  0  0  0  0  0
  -25.3728  -31.3843   26.1563 C   0  0  0  0  0  0
  -27.0193  -30.3009   24.6203 C   0  0  0  0  0  0
  -27.6092  -32.4299   25.7504 C   0  0  0  0  0  0
  -27.5591  -37.1781   24.8431 C   0  0  0  0  0  0
  -21.4169  -29.3019   22.3768 N   0  0  0  0  0  0
  -26.4267  -37.3827   23.9437 N   0  0  0  0  0  0
  -24.6715  -31.0796   22.1087 N   0  0  0  0  0  0
  -23.4219  -28.8173   23.3051 O   0  0  0  0  0  0
  -28.3749  -26.6480   20.1135 O   0  0  0  0  0  0
  -26.5592  -34.8939   22.4711 O   0  0  0  0  0  0
  -23.5369  -32.1475   23.7537 O   0  0  0  0  0  0
  -28.7231  -19.6624   19.9857 C   0  0  0  0  0  0
  -29.3432  -18.4086   20.2088 C   0  0  0  0  0  0
  -28.9274  -20.1793   22.3426 C   0  0  0  0  0  0
  -28.5302  -20.5715   21.0500 C   0  0  0  0  0  0
  -29.7895  -18.0309   21.4961 C   0  0  0  0  0  0
  -29.5428  -18.9260   22.5758 C   0  0  0  0  0  0
  -29.9430  -18.5878   24.0011 C   0  0  0  0  0  0
  -27.0616  -23.6620   18.2709 C   0  0  0  0  0  0
  -27.8184  -21.9161   20.8330 C   0  0  0  0  0  0
  -30.6295  -16.7461   21.6760 C   0  0  0  0  0  0
  -28.6431  -23.0489   20.1462 C   0  0  0  0  0  0
  -28.5204  -25.5274   19.2119 C   0  0  0  0  0  0
  -27.7603  -24.1928   19.5496 C   0  0  1  0  0  0
  -30.0345  -15.4721   21.2421 N   0  0  0  0  0  0
  -31.4705  -12.4213   19.1390 H   0  0  0  0  0  0
  -30.3203  -11.3128   19.8296 H   0  0  0  0  0  0
  -29.7524  -11.7896   17.4275 H   0  0  0  0  0  0
  -29.6766  -13.4975   17.7717 H   0  0  0  0  0  0
  -27.8314  -11.3149   18.8032 H   0  0  0  0  0  0
  -27.3751  -12.6431   17.7722 H   0  0  0  0  0  0
  -27.7015  -14.2572   19.5607 H   0  0  0  0  0  0
  -28.6748  -11.9559   21.3246 H   0  0  0  0  0  0
  -28.4413  -13.5899   21.8661 H   0  0  0  0  0  0
  -25.2766   -9.5701   22.4708 H   0  0  0  0  0  0
  -24.0037   -7.4631   22.7432 H   0  0  0  0  0  0
  -21.0849   -8.8792   19.8959 H   0  0  0  0  0  0
  -22.3704  -10.9674   19.6142 H   0  0  0  0  0  0
  -21.1996   -7.6145   23.9721 H   0  0  0  0  0  0
  -21.1466   -6.0523   25.9085 H   0  0  0  0  0  0
  -22.0597   -2.7620   23.2846 H   0  0  0  0  0  0
  -22.4064  -11.9962   22.4872 H   0  0  0  0  0  0
  -21.1085  -13.1306   22.2550 H   0  0  0  0  0  0
  -24.6826  -15.8572   20.5184 H   0  0  0  0  0  0
  -26.3041  -15.6193   20.1112 H   0  0  0  0  0  0
  -26.7165  -32.5540   23.1193 H   0  0  0  0  0  0
  -25.0026  -33.9809   25.0468 H   0  0  0  0  0  0
  -22.6902  -31.3164   21.4313 H   0  0  0  0  0  0
  -23.3774  -35.9600   23.3248 H   0  0  0  0  0  0
  -24.3576  -36.8986   22.2060 H   0  0  0  0  0  0
  -23.7168  -37.6476   23.6676 H   0  0  0  0  0  0
  -26.0637  -31.5896   20.6123 H   0  0  0  0  0  0
  -26.8235  -30.8684   22.0019 H   0  0  0  0  0  0
  -28.0882  -29.0544   21.1971 H   0  0  0  0  0  0
  -25.9681  -26.0144   18.9816 H   0  0  0  0  0  0
  -23.9583  -27.3392   19.0135 H   0  0  0  0  0  0
  -23.7298  -30.6297   19.4197 H   0  0  0  0  0  0
  -22.7301  -29.2765   19.8666 H   0  0  0  0  0  0
  -25.1252  -36.1989   25.0835 H   0  0  0  0  0  0
  -20.9911  -28.3205   24.1465 H   0  0  0  0  0  0
  -20.5595  -26.2256   23.3646 H   0  0  0  0  0  0
  -21.6623  -26.7389   22.1286 H   0  0  0  0  0  0
  -19.6896  -25.6297   21.1227 H   0  0  0  0  0  0
  -19.6695  -27.3214   20.6768 H   0  0  0  0  0  0
  -17.4194  -26.6687   21.3971 H   0  0  0  0  0  0
  -18.0247  -26.0058   22.8989 H   0  0  0  0  0  0
  -19.7931  -30.7209   24.2321 H   0  0  0  0  0  0
  -17.5017  -31.6263   24.5150 H   0  0  0  0  0  0
  -15.5332  -30.2976   23.7667 H   0  0  0  0  0  0
  -15.8644  -28.0817   22.7059 H   0  0  0  0  0  0
  -24.5875  -30.7178   25.7974 H   0  0  0  0  0  0
  -24.8940  -32.3050   26.4919 H   0  0  0  0  0  0
  -25.8084  -30.9113   27.0373 H   0  0  0  0  0  0
  -26.2712  -29.6875   24.1167 H   0  0  0  0  0  0
  -27.3761  -29.7175   25.4694 H   0  0  0  0  0  0
  -27.8669  -30.4209   23.9455 H   0  0  0  0  0  0
  -27.2773  -33.3614   26.2094 H   0  0  0  0  0  0
  -28.3888  -32.6830   25.0308 H   0  0  0  0  0  0
  -28.0766  -31.8404   26.5399 H   0  0  0  0  0  0
  -28.2583  -38.0107   24.7570 H   0  0  0  0  0  0
  -28.1115  -36.2657   24.6105 H   0  0  0  0  0  0
  -27.2355  -37.1288   25.8844 H   0  0  0  0  0  0
  -20.9338  -29.8783   21.7017 H   0  0  0  0  0  0
  -26.0159  -38.2897   24.1523 H   0  0  0  0  0  0
  -28.3981  -19.9251   18.9872 H   0  0  0  0  0  0
  -29.5064  -17.7441   19.3717 H   0  0  0  0  0  0
  -28.7544  -20.8540   23.1703 H   0  0  0  0  0  0
  -29.5179  -19.2979   24.7113 H   0  0  0  0  0  0
  -31.0272  -18.6223   24.1040 H   0  0  0  0  0  0
  -29.5887  -17.5970   24.2877 H   0  0  0  0  0  0
  -26.5950  -22.6891   18.4094 H   0  0  0  0  0  0
  -27.7742  -23.5601   17.4522 H   0  0  0  0  0  0
  -26.2680  -24.3123   17.9109 H   0  0  0  0  0  0
  -27.4504  -22.2922   21.7890 H   0  0  0  0  0  0
  -26.9165  -21.6905   20.2669 H   0  0  0  0  0  0
  -30.9279  -16.6041   22.7121 H   0  0  0  0  0  0
  -31.5669  -16.9277   21.1475 H   0  0  0  0  0  0
  -29.2415  -22.6181   19.3421 H   0  0  0  0  0  0
  -29.3595  -23.4585   20.8610 H   0  0  0  0  0  0
  -28.2457  -25.8800   18.2157 H   0  0  0  0  0  0
  -29.5875  -25.3167   19.1336 H   0  0  0  0  0  0
  -26.9941  -24.4248   20.2901 H   0  0  0  0  0  0
  -29.1034  -15.2683   21.5750 H   0  0  0  0  0  0
  1 25  1  0  0  0
  1 30  2  0  0  0
  1 84  1  0  0  0
  2  3  1  0  0  0
  2 25  1  0  0  0
  2 85  1  0  0  0
  2 86  1  0  0  0
  3  4  1  0  0  0
  3 87  1  0  0  0
  3 88  1  0  0  0
  4  5  1  0  0  0
  4 89  1  0  0  0
  4 90  1  0  0  0
  5  6  1  0  0  0
  5 26  1  0  0  0
  5 91  1  0  0  0
  6 25  1  0  0  0
  6 92  1  0  0  0
  6 93  1  0  0  0
  7  8  2  0  0  0
  7 26  1  0  0  0
  7 29  1  0  0  0
  8  9  1  0  0  0
  8 22  1  0  0  0
  9 10  1  0  0  0
  9 27  2  0  0  0
 10 11  2  0  0  0
 10 15  1  0  0  0
 11 12  1  0  0  0
 11 94  1  0  0  0
 12 13  2  0  0  0
 12 95  1  0  0  0
 13 14  1  0  0  0
 13 31  1  0  0  0
 14 15  2  0  0  0
 14 96  1  0  0  0
 15 97  1  0  0  0
 16 17  2  0  0  0
 16 21  1  0  0  0
 16 31  1  0  0  0
 17 18  1  0  0  0
 17 98  1  0  0  0
 18 19  2  0  0  0
 18 99  1  0  0  0
 19 20  1  0  0  0
 19 24  1  0  0  0
 20 21  2  0  0  0
 20100  1  0  0  0
 21 23  1  0  0  0
 22 28  1  0  0  0
 22 32  2  0  0  0
 26 27  1  0  0  0
 28101  1  0  0  0
 28102  1  0  0  0
 29103  1  0  0  0
 29104  1  0  0  0
 33 34  1  0  0  0
 33 66  1  0  0  0
 33 70  2  0  0  0
 34 36  1  0  0  0
 34 59  1  0  0  0
 34105  1  0  0  0
 35 44  2  0  0  0
 35 45  1  0  0  0
 35 68  1  0  0  0
 36 56  1  0  0  0
 36106  1  0  0  0
 37 39  1  0  0  0
 37 47  1  0  0  0
 37 66  1  0  0  0
 37107  1  0  0  0
 38 43  2  0  0  0
 38 46  1  0  0  0
 38 47  1  0  0  0
 39 64  1  0  0  0
 39 67  2  0  0  0
 40 52  1  0  0  0
 40 53  2  0  0  0
 40 58  1  0  0  0
 41108  1  0  0  0
 41109  1  0  0  0
 41110  1  0  0  0
 41 48  1  0  0  0
 42 43  1  0  0  0
 42 66  1  0  0  0
 42111  1  0  0  0
 42112  1  0  0  0
 43 44  1  0  0  0
 44113  1  0  0  0
 45 46  2  0  0  0
 45114  1  0  0  0
 46115  1  0  0  0
 47116  1  0  0  0
 47117  1  0  0  0
 48 56  1  0  0  0
 48 65  1  0  0  0
 48118  1  0  0  0
 49 50  1  0  0  0
 49 53  1  0  0  0
 49 64  1  0  0  0
 49119  1  0  0  0
 50 51  1  0  0  0
 50120  1  0  0  0
 50121  1  0  0  0
 51 52  1  0  0  0
 51122  1  0  0  0
 51123  1  0  0  0
 52124  1  0  0  0
 52125  1  0  0  0
 53 54  1  0  0  0
 54 55  2  0  0  0
 54126  1  0  0  0
 55 57  1  0  0  0
 55127  1  0  0  0
 56 69  2  0  0  0
 57 58  2  0  0  0
 57128  1  0  0  0
 58129  1  0  0  0
 59 60  1  0  0  0
 59 61  1  0  0  0
 59 62  1  0  0  0
 60130  1  0  0  0
 60131  1  0  0  0
 60132  1  0  0  0
 61133  1  0  0  0
 61134  1  0  0  0
 61135  1  0  0  0
 62136  1  0  0  0
 62137  1  0  0  0
 62138  1  0  0  0
 63 65  1  0  0  0
 63139  1  0  0  0
 63140  1  0  0  0
 63141  1  0  0  0
 64142  1  0  0  0
 65143  1  0  0  0
 68 82  1  0  0  0
 71 72  2  0  0  0
 71 74  1  0  0  0
 71144  1  0  0  0
 72 75  1  0  0  0
 72145  1  0  0  0
 73 74  2  0  0  0
 73 76  1  0  0  0
 73146  1  0  0  0
 74 79  1  0  0  0
 75 76  2  0  0  0
 75 80  1  0  0  0
 76 77  1  0  0  0
 77147  1  0  0  0
 77148  1  0  0  0
 77149  1  0  0  0
 78150  1  0  0  0
 78151  1  0  0  0
 78152  1  0  0  0
 78 83  1  0  0  0
 79 81  1  0  0  0
 79153  1  0  0  0
 79154  1  0  0  0
 80 84  1  0  0  0
 80155  1  0  0  0
 80156  1  0  0  0
 81 83  1  0  0  0
 81157  1  0  0  0
 81158  1  0  0  0
 82 83  1  0  0  0
 82159  1  0  0  0
 82160  1  0  0  0
 83161  1  0  0  0
 84162  1  0  0  0
M  ISO  4   1 100  68 101  82 101  84 100
M  END
> <chiral flag>
0

> <version>
0

> <s_m_source_file>
/data/baiqing/PycharmProjects/Reinvent-master-3.2/result/LINK_invent/BTK/process_docking_weight1_custom_product_contain_oxygen_bond_distance_aromatic_linkinvent_7_9_3/rearranged_h_0135.sdf

> <i_m_source_file_index>
13

> <r_mmod_Potential_Energy-OPLS-2005>
-68.9548110961914

> <r_mmod_Stretch_Energy-OPLS-2005>
44.2633094787598

> <r_mmod_Bend_Energy-OPLS-2005>
111.242530822754

> <r_mmod_Torsional_Energy-OPLS-2005>
207.108947753906

> <r_mmod_Improper_Torsional_Energy-OPLS-2005>
2.86230659484863

> <r_mmod_Van_der_Waal_Energy-OPLS-2005>
160.435989379883

> <r_mmod_Electrostatic_Energy-OPLS-2005>
-413.356689453125

> <r_mmod_Solvation_Energy-OPLS-2005>
-197.99967956543

> <b_mmod_Minimization_Converged-OPLS-2005>
0

> <r_mmod_RMS_Derivative-OPLS-2005>
3.40825390815735

$$$$
13
                    3D
 Structure written by MMmdl.
162170  0  0  1  0            999 V2000
  -30.6201  -14.7065   20.4916 C   0  0  0  0  0  0
  -30.4482  -12.4368   19.4644 C   0  0  0  0  0  0
  -29.5107  -12.4808   18.2366 C   0  0  0  0  0  0
  -28.0424  -12.2977   18.6623 C   0  0  0  0  0  0
  -27.6476  -13.2131   19.8486 C   0  0  2  0  0  0
  -28.6932  -13.1430   20.9837 C   0  0  0  0  0  0
  -25.2568  -13.8144   20.5690 C   0  0  0  0  0  0
  -24.1814  -13.0444   20.9167 C   0  0  0  0  0  0
  -24.6344  -11.6911   20.8712 C   0  0  0  0  0  0
  -23.9013  -10.4300   21.0415 C   0  0  0  0  0  0
  -24.3575   -9.4231   21.9192 C   0  0  0  0  0  0
  -23.6253   -8.2274   22.0763 C   0  0  0  0  0  0
  -22.4229   -8.0289   21.3561 C   0  0  0  0  0  0
  -21.9850   -9.0263   20.4670 C   0  0  0  0  0  0
  -22.7181  -10.2140   20.3077 C   0  0  0  0  0  0
  -21.6864   -6.0724   22.5282 C   0  0  0  0  0  0
  -21.4042   -6.5628   23.8212 C   0  0  0  0  0  0
  -21.3637   -5.6785   24.9166 C   0  0  0  0  0  0
  -21.6035   -4.3049   24.7224 C   0  0  0  0  0  0
  -21.8820   -3.8134   23.4348 C   0  0  0  0  0  0
  -21.9194   -4.6962   22.3407 C   0  0  0  0  0  0
  -22.7843  -13.5291   21.1799 C   0  0  0  0  0  0
  -22.1681   -4.2159   21.0984 F   0  0  0  0  0  0
  -21.5600   -3.4521   25.7728 F   0  0  0  0  0  0
  -29.9954  -13.4872   20.3960 N   0  0  0  0  0  0
  -26.2954  -12.9319   20.3237 N   0  0  0  0  0  0
  -25.9257  -11.6490   20.5700 N   0  0  0  0  0  0
  -22.0424  -12.8361   22.0360 N   0  0  0  0  0  0
  -25.4282  -15.1859   20.4213 N   0  0  0  0  0  0
  -31.8163  -14.8299   20.2181 O   0  0  0  0  0  0
  -21.6639   -6.8855   21.4237 O   0  0  0  0  0  0
  -22.3581  -14.5594   20.6613 O   0  0  0  0  0  0
  -24.6268  -31.8558   23.2007 C   0  0  0  0  0  0
  -25.9064  -32.4786   23.8377 C   0  0  1  0  0  0
  -27.2292  -27.2897   20.1270 C   0  0  0  0  0  0
  -25.5830  -33.8595   24.2254 N   0  0  0  0  0  0
  -23.4269  -30.4777   21.5433 C   0  0  2  0  0  0
  -24.8778  -28.9286   20.1187 C   0  0  0  0  0  0
  -22.7500  -29.4573   22.4922 C   0  0  0  0  0  0
  -18.0265  -28.1416   22.8470 C   0  0  0  0  0  0
  -24.1467  -36.7313   23.2635 C   0  0  0  0  0  0
  -25.9717  -30.7826   21.3783 C   0  0  0  0  0  0
  -26.0490  -29.4071   20.7191 C   0  0  0  0  0  0
  -27.2307  -28.6012   20.7056 C   0  0  0  0  0  0
  -26.0341  -26.8741   19.4977 C   0  0  0  0  0  0
  -24.8737  -27.6720   19.4973 C   0  0  0  0  0  0
  -23.6484  -29.8134   20.1602 C   0  0  0  0  0  0
  -25.4083  -36.3093   24.0324 C   0  0  1  0  0  0
  -20.5873  -28.3694   23.1275 C   0  0  2  0  0  0
  -20.6750  -26.9411   22.5409 C   0  0  0  0  0  0
  -19.5737  -26.6389   21.5205 C   0  0  0  0  0  0
  -18.1913  -26.7947   22.1625 C   0  0  0  0  0  0
  -19.1524  -28.8872   23.2870 C   0  0  0  0  0  0
  -18.9461  -30.1465   23.8907 C   0  0  0  0  0  0
  -17.6474  -30.6622   24.0553 C   0  0  0  0  0  0
  -25.9022  -34.9464   23.5109 C   0  0  0  0  0  0
  -16.5357  -29.9130   23.6331 C   0  0  0  0  0  0
  -16.7253  -28.6542   23.0354 C   0  0  0  0  0  0
  -26.4406  -31.6650   25.0803 C   0  0  0  0  0  0
  -25.3590  -31.3909   26.1522 C   0  0  0  0  0  0
  -27.0201  -30.3021   24.6366 C   0  0  0  0  0  0
  -27.5968  -32.4396   25.7559 C   0  0  0  0  0  0
  -27.5573  -37.1792   24.8433 C   0  0  0  0  0  0
  -21.4197  -29.3046   22.3676 N   0  0  0  0  0  0
  -26.4251  -37.3789   23.9433 N   0  0  0  0  0  0
  -24.6934  -31.0551   22.0977 N   0  0  0  0  0  0
  -23.4201  -28.8088   23.2988 O   0  0  0  0  0  0
  -28.3394  -26.4222   20.1389 O   0  0  0  0  0  0
  -26.5650  -34.8928   22.4716 O   0  0  0  0  0  0
  -23.5407  -32.1352   23.7313 O   0  0  0  0  0  0
  -30.1788  -19.7714   22.3385 C   0  0  0  0  0  0
  -30.3793  -18.5974   23.0973 C   0  0  0  0  0  0
  -29.8077  -18.3833   20.3812 C   0  0  0  0  0  0
  -29.8736  -19.7128   20.9633 C   0  0  0  0  0  0
  -30.2907  -17.3121   22.5236 C   0  0  0  0  0  0
  -30.0249  -17.1612   21.1386 C   0  0  0  0  0  0
  -30.4374  -16.1041   23.4458 C   0  0  0  0  0  0
  -29.0364  -23.7316   18.5090 C   0  0  0  0  0  0
  -30.5777  -24.3013   20.3999 C   0  0  0  0  0  0
  -29.7769  -21.0742   20.1470 C   0  0  0  0  0  0
  -28.9054  -22.3434   20.6526 C   0  0  0  0  0  0
  -28.1406  -24.9915   20.5404 C   0  0  0  0  0  0
  -29.1530  -23.8324   20.0417 C   0  0  0  0  0  0
  -29.7948  -15.8084   20.6092 N   0  0  0  0  0  0
  -31.4869  -12.5797   19.1580 H   0  0  0  0  0  0
  -30.4124  -11.4635   19.9548 H   0  0  0  0  0  0
  -29.7933  -11.7042   17.5235 H   0  0  0  0  0  0
  -29.6272  -13.4304   17.7118 H   0  0  0  0  0  0
  -27.9105  -11.2518   18.9470 H   0  0  0  0  0  0
  -27.3797  -12.4704   17.8148 H   0  0  0  0  0  0
  -27.6423  -14.2279   19.4523 H   0  0  0  0  0  0
  -28.7209  -12.1492   21.4330 H   0  0  0  0  0  0
  -28.4297  -13.8284   21.7912 H   0  0  0  0  0  0
  -25.2717   -9.5742   22.4758 H   0  0  0  0  0  0
  -23.9974   -7.4680   22.7492 H   0  0  0  0  0  0
  -21.0774   -8.8773   19.8969 H   0  0  0  0  0  0
  -22.3622  -10.9678   19.6193 H   0  0  0  0  0  0
  -21.2063   -7.6151   23.9727 H   0  0  0  0  0  0
  -21.1439   -6.0508   25.9070 H   0  0  0  0  0  0
  -22.0601   -2.7608   23.2850 H   0  0  0  0  0  0
  -22.4020  -12.0089   22.4886 H   0  0  0  0  0  0
  -21.1054  -13.1476   22.2502 H   0  0  0  0  0  0
  -24.6570  -15.8303   20.5488 H   0  0  0  0  0  0
  -26.2740  -15.6366   20.0947 H   0  0  0  0  0  0
  -26.7166  -32.5449   23.1161 H   0  0  0  0  0  0
  -24.9796  -33.9757   25.0268 H   0  0  0  0  0  0
  -22.7209  -31.2976   21.3974 H   0  0  0  0  0  0
  -23.3728  -35.9640   23.3252 H   0  0  0  0  0  0
  -24.3547  -36.8997   22.2054 H   0  0  0  0  0  0
  -23.7239  -37.6505   23.6695 H   0  0  0  0  0  0
  -26.1068  -31.5484   20.6130 H   0  0  0  0  0  0
  -26.8473  -30.8310   22.0149 H   0  0  0  0  0  0
  -28.1378  -28.9661   21.1698 H   0  0  0  0  0  0
  -25.9824  -25.9188   18.9984 H   0  0  0  0  0  0
  -23.9749  -27.3072   19.0201 H   0  0  0  0  0  0
  -23.7795  -30.5905   19.4057 H   0  0  0  0  0  0
  -22.7697  -29.2462   19.8489 H   0  0  0  0  0  0
  -25.1261  -36.1911   25.0810 H   0  0  0  0  0  0
  -20.9948  -28.3269   24.1397 H   0  0  0  0  0  0
  -20.5605  -26.2308   23.3610 H   0  0  0  0  0  0
  -21.6623  -26.7408   22.1235 H   0  0  0  0  0  0
  -19.6873  -25.6280   21.1276 H   0  0  0  0  0  0
  -19.6692  -27.3162   20.6706 H   0  0  0  0  0  0
  -17.4155  -26.6645   21.4056 H   0  0  0  0  0  0
  -18.0337  -26.0120   22.9060 H   0  0  0  0  0  0
  -19.7931  -30.7254   24.2318 H   0  0  0  0  0  0
  -17.5031  -31.6303   24.5150 H   0  0  0  0  0  0
  -15.5359  -30.3057   23.7655 H   0  0  0  0  0  0
  -15.8637  -28.0873   22.7108 H   0  0  0  0  0  0
  -24.5715  -30.7301   25.7876 H   0  0  0  0  0  0
  -24.8825  -32.3134   26.4852 H   0  0  0  0  0  0
  -25.7829  -30.9148   27.0370 H   0  0  0  0  0  0
  -26.2820  -29.6879   24.1194 H   0  0  0  0  0  0
  -27.3559  -29.7220   25.4971 H   0  0  0  0  0  0
  -27.8835  -30.4217   23.9822 H   0  0  0  0  0  0
  -27.2547  -33.3666   26.2178 H   0  0  0  0  0  0
  -28.3729  -32.7034   25.0361 H   0  0  0  0  0  0
  -28.0683  -31.8518   26.5447 H   0  0  0  0  0  0
  -28.2544  -38.0138   24.7526 H   0  0  0  0  0  0
  -28.1124  -36.2672   24.6157 H   0  0  0  0  0  0
  -27.2321  -37.1331   25.8846 H   0  0  0  0  0  0
  -20.9365  -29.8836   21.6954 H   0  0  0  0  0  0
  -26.0121  -38.2839   24.1517 H   0  0  0  0  0  0
  -30.2826  -20.7281   22.8304 H   0  0  0  0  0  0
  -30.5902  -18.6950   24.1530 H   0  0  0  0  0  0
  -29.5882  -18.2982   19.3283 H   0  0  0  0  0  0
  -30.5048  -16.4009   24.4940 H   0  0  0  0  0  0
  -31.3406  -15.5392   23.2135 H   0  0  0  0  0  0
  -29.5807  -15.4343   23.3558 H   0  0  0  0  0  0
  -29.8634  -23.1594   18.0861 H   0  0  0  0  0  0
  -29.0480  -24.7176   18.0405 H   0  0  0  0  0  0
  -28.1107  -23.2369   18.2122 H   0  0  0  0  0  0
  -31.3404  -23.6153   20.0359 H   0  0  0  0  0  0
  -30.7105  -24.4028   21.4780 H   0  0  0  0  0  0
  -30.7951  -25.2748   19.9547 H   0  0  0  0  0  0
  -29.4778  -20.8338   19.1265 H   0  0  0  0  0  0
  -30.8115  -21.4077   20.0656 H   0  0  0  0  0  0
  -29.0005  -22.4158   21.7340 H   0  0  0  0  0  0
  -27.8591  -22.0857   20.4908 H   0  0  0  0  0  0
  -28.1628  -25.0012   21.6316 H   0  0  0  0  0  0
  -27.1321  -24.6590   20.3015 H   0  0  0  0  0  0
  -28.8197  -15.5602   20.5548 H   0  0  0  0  0  0
  1 25  1  0  0  0
  1 30  2  0  0  0
  1 84  1  0  0  0
  2  3  1  0  0  0
  2 25  1  0  0  0
  2 85  1  0  0  0
  2 86  1  0  0  0
  3  4  1  0  0  0
  3 87  1  0  0  0
  3 88  1  0  0  0
  4  5  1  0  0  0
  4 89  1  0  0  0
  4 90  1  0  0  0
  5  6  1  0  0  0
  5 26  1  0  0  0
  5 91  1  0  0  0
  6 25  1  0  0  0
  6 92  1  0  0  0
  6 93  1  0  0  0
  7  8  2  0  0  0
  7 26  1  0  0  0
  7 29  1  0  0  0
  8  9  1  0  0  0
  8 22  1  0  0  0
  9 10  1  0  0  0
  9 27  2  0  0  0
 10 11  2  0  0  0
 10 15  1  0  0  0
 11 12  1  0  0  0
 11 94  1  0  0  0
 12 13  2  0  0  0
 12 95  1  0  0  0
 13 14  1  0  0  0
 13 31  1  0  0  0
 14 15  2  0  0  0
 14 96  1  0  0  0
 15 97  1  0  0  0
 16 17  2  0  0  0
 16 21  1  0  0  0
 16 31  1  0  0  0
 17 18  1  0  0  0
 17 98  1  0  0  0
 18 19  2  0  0  0
 18 99  1  0  0  0
 19 20  1  0  0  0
 19 24  1  0  0  0
 20 21  2  0  0  0
 20100  1  0  0  0
 21 23  1  0  0  0
 22 28  1  0  0  0
 22 32  2  0  0  0
 26 27  1  0  0  0
 28101  1  0  0  0
 28102  1  0  0  0
 29103  1  0  0  0
 29104  1  0  0  0
 33 34  1  0  0  0
 33 66  1  0  0  0
 33 70  2  0  0  0
 34 36  1  0  0  0
 34 59  1  0  0  0
 34105  1  0  0  0
 35 44  2  0  0  0
 35 45  1  0  0  0
 35 68  1  0  0  0
 36 56  1  0  0  0
 36106  1  0  0  0
 37 39  1  0  0  0
 37 47  1  0  0  0
 37 66  1  0  0  0
 37107  1  0  0  0
 38 43  2  0  0  0
 38 46  1  0  0  0
 38 47  1  0  0  0
 39 64  1  0  0  0
 39 67  2  0  0  0
 40 52  1  0  0  0
 40 53  2  0  0  0
 40 58  1  0  0  0
 41108  1  0  0  0
 41109  1  0  0  0
 41110  1  0  0  0
 41 48  1  0  0  0
 42 43  1  0  0  0
 42 66  1  0  0  0
 42111  1  0  0  0
 42112  1  0  0  0
 43 44  1  0  0  0
 44113  1  0  0  0
 45 46  2  0  0  0
 45114  1  0  0  0
 46115  1  0  0  0
 47116  1  0  0  0
 47117  1  0  0  0
 48 56  1  0  0  0
 48 65  1  0  0  0
 48118  1  0  0  0
 49 50  1  0  0  0
 49 53  1  0  0  0
 49 64  1  0  0  0
 49119  1  0  0  0
 50 51  1  0  0  0
 50120  1  0  0  0
 50121  1  0  0  0
 51 52  1  0  0  0
 51122  1  0  0  0
 51123  1  0  0  0
 52124  1  0  0  0
 52125  1  0  0  0
 53 54  1  0  0  0
 54 55  2  0  0  0
 54126  1  0  0  0
 55 57  1  0  0  0
 55127  1  0  0  0
 56 69  2  0  0  0
 57 58  2  0  0  0
 57128  1  0  0  0
 58129  1  0  0  0
 59 60  1  0  0  0
 59 61  1  0  0  0
 59 62  1  0  0  0
 60130  1  0  0  0
 60131  1  0  0  0
 60132  1  0  0  0
 61133  1  0  0  0
 61134  1  0  0  0
 61135  1  0  0  0
 62136  1  0  0  0
 62137  1  0  0  0
 62138  1  0  0  0
 63 65  1  0  0  0
 63139  1  0  0  0
 63140  1  0  0  0
 63141  1  0  0  0
 64142  1  0  0  0
 65143  1  0  0  0
 68 82  1  0  0  0
 71 72  2  0  0  0
 71 74  1  0  0  0
 71144  1  0  0  0
 72 75  1  0  0  0
 72145  1  0  0  0
 73 74  2  0  0  0
 73 76  1  0  0  0
 73146  1  0  0  0
 74 80  1  0  0  0
 75 76  2  0  0  0
 75 77  1  0  0  0
 76 84  1  0  0  0
 77147  1  0  0  0
 77148  1  0  0  0
 77149  1  0  0  0
 78150  1  0  0  0
 78151  1  0  0  0
 78152  1  0  0  0
 78 83  1  0  0  0
 79 83  1  0  0  0
 79153  1  0  0  0
 79154  1  0  0  0
 79155  1  0  0  0
 80 81  1  0  0  0
 80156  1  0  0  0
 80157  1  0  0  0
 81 83  1  0  0  0
 81158  1  0  0  0
 81159  1  0  0  0
 82 83  1  0  0  0
 82160  1  0  0  0
 82161  1  0  0  0
 84162  1  0  0  0
M  ISO  4   1 100  68 101  82 101  84 100
M  END
> <chiral flag>
0

> <version>
0

> <s_m_source_file>
/data/baiqing/PycharmProjects/Reinvent-master-3.2/result/LINK_invent/BTK/process_docking_weight1_custom_product_contain_oxygen_bond_distance_aromatic_linkinvent_7_9_3/rearranged_h_0135.sdf

> <i_m_source_file_index>
14

> <r_mmod_Potential_Energy-OPLS-2005>
164.450424194336

> <r_mmod_Stretch_Energy-OPLS-2005>
112.34693145752

> <r_mmod_Bend_Energy-OPLS-2005>
152.161178588867

> <r_mmod_Torsional_Energy-OPLS-2005>
267.224243164062

> <r_mmod_Improper_Torsional_Energy-OPLS-2005>
9.07799816131592

> <r_mmod_Van_der_Waal_Energy-OPLS-2005>
134.015930175781

> <r_mmod_Electrostatic_Energy-OPLS-2005>
-386.710815429688

> <r_mmod_Solvation_Energy-OPLS-2005>
-195.256378173828

> <b_mmod_Minimization_Converged-OPLS-2005>
0

> <r_mmod_RMS_Derivative-OPLS-2005>
4.81595277786255

$$$$
14
                    3D
 Structure written by MMmdl.
163171  0  0  1  0            999 V2000
  -30.7016  -14.4941   20.5034 C   0  0  0  0  0  0
  -30.4147  -12.2935   19.4503 C   0  0  0  0  0  0
  -29.5058  -12.4829   18.2184 C   0  0  0  0  0  0
  -28.0215  -12.3591   18.6190 C   0  0  0  0  0  0
  -27.6584  -13.2153   19.8636 C   0  0  2  0  0  0
  -28.6968  -13.0383   20.9956 C   0  0  0  0  0  0
  -25.2571  -13.8176   20.5663 C   0  0  0  0  0  0
  -24.1834  -13.0443   20.9167 C   0  0  0  0  0  0
  -24.6405  -11.6913   20.8718 C   0  0  0  0  0  0
  -23.9071  -10.4301   21.0396 C   0  0  0  0  0  0
  -24.3616   -9.4216   21.9175 C   0  0  0  0  0  0
  -23.6287   -8.2252   22.0750 C   0  0  0  0  0  0
  -22.4262   -8.0297   21.3548 C   0  0  0  0  0  0
  -21.9902   -9.0269   20.4650 C   0  0  0  0  0  0
  -22.7239  -10.2140   20.3056 C   0  0  0  0  0  0
  -21.6855   -6.0751   22.5275 C   0  0  0  0  0  0
  -21.4034   -6.5649   23.8218 C   0  0  0  0  0  0
  -21.3654   -5.6790   24.9167 C   0  0  0  0  0  0
  -21.6030   -4.3051   24.7216 C   0  0  0  0  0  0
  -21.8819   -3.8154   23.4334 C   0  0  0  0  0  0
  -21.9196   -4.6977   22.3397 C   0  0  0  0  0  0
  -22.7859  -13.5239   21.1833 C   0  0  0  0  0  0
  -22.1659   -4.2168   21.0972 F   0  0  0  0  0  0
  -21.5613   -3.4533   25.7731 F   0  0  0  0  0  0
  -30.0299  -13.3133   20.4388 N   0  0  0  0  0  0
  -26.3004  -12.9363   20.3285 N   0  0  0  0  0  0
  -25.9329  -11.6515   20.5720 N   0  0  0  0  0  0
  -22.0481  -12.8245   22.0387 N   0  0  0  0  0  0
  -25.4277  -15.1894   20.4087 N   0  0  0  0  0  0
  -31.8776  -14.5986   20.1437 O   0  0  0  0  0  0
  -21.6629   -6.8887   21.4239 O   0  0  0  0  0  0
  -22.3550  -14.5547   20.6680 O   0  0  0  0  0  0
  -24.6134  -31.8690   23.2097 C   0  0  0  0  0  0
  -25.9026  -32.4831   23.8392 C   0  0  1  0  0  0
  -27.2271  -27.4300   20.1068 C   0  0  0  0  0  0
  -25.5877  -33.8632   24.2321 N   0  0  0  0  0  0
  -23.4023  -30.4925   21.5507 C   0  0  2  0  0  0
  -24.8500  -28.9623   20.1121 C   0  0  0  0  0  0
  -22.7405  -29.4661   22.4982 C   0  0  0  0  0  0
  -18.0261  -28.1387   22.8484 C   0  0  0  0  0  0
  -24.1483  -36.7322   23.2633 C   0  0  0  0  0  0
  -25.9330  -30.8326   21.3675 C   0  0  0  0  0  0
  -26.0107  -29.4696   20.7102 C   0  0  0  0  0  0
  -27.2060  -28.7126   20.7024 C   0  0  0  0  0  0
  -26.0567  -26.9496   19.4805 C   0  0  0  0  0  0
  -24.8679  -27.7013   19.4917 C   0  0  0  0  0  0
  -23.6122  -29.8291   20.1641 C   0  0  0  0  0  0
  -25.4106  -36.3128   24.0333 C   0  0  1  0  0  0
  -20.5850  -28.3675   23.1316 C   0  0  2  0  0  0
  -20.6756  -26.9411   22.5419 C   0  0  0  0  0  0
  -19.5739  -26.6396   21.5208 C   0  0  0  0  0  0
  -18.1914  -26.7928   22.1620 C   0  0  0  0  0  0
  -19.1509  -28.8842   23.2897 C   0  0  0  0  0  0
  -18.9449  -30.1446   23.8912 C   0  0  0  0  0  0
  -17.6457  -30.6593   24.0574 C   0  0  0  0  0  0
  -25.9035  -34.9487   23.5133 C   0  0  0  0  0  0
  -16.5345  -29.9107   23.6327 C   0  0  0  0  0  0
  -16.7253  -28.6525   23.0341 C   0  0  0  0  0  0
  -26.4457  -31.6611   25.0723 C   0  0  0  0  0  0
  -25.3716  -31.3737   26.1473 C   0  0  0  0  0  0
  -27.0278  -30.3033   24.6132 C   0  0  0  0  0  0
  -27.6037  -32.4327   25.7481 C   0  0  0  0  0  0
  -27.5586  -37.1810   24.8457 C   0  0  0  0  0  0
  -21.4129  -29.3044   22.3723 N   0  0  0  0  0  0
  -26.4296  -37.3810   23.9407 N   0  0  0  0  0  0
  -24.6674  -31.0790   22.1001 N   0  0  0  0  0  0
  -23.4180  -28.8203   23.3021 O   0  0  0  0  0  0
  -28.3559  -26.6398   20.1491 O   0  0  0  0  0  0
  -26.5618  -34.8937   22.4709 O   0  0  0  0  0  0
  -23.5332  -32.1455   23.7486 O   0  0  0  0  0  0
  -30.4996  -19.6088   19.4299 C   0  0  0  0  0  0
  -29.5468  -18.0275   21.0186 C   0  0  0  0  0  0
  -30.9278  -17.2232   19.1850 C   0  0  0  0  0  0
  -29.7107  -19.3769   20.5793 C   0  0  0  0  0  0
  -31.1049  -18.5454   18.7355 C   0  0  0  0  0  0
  -30.1646  -16.9383   20.3453 C   0  0  0  0  0  0
  -29.0724  -20.5342   21.2908 C   0  0  0  0  0  0
  -31.9430  -18.8337   17.5047 C   0  0  0  0  0  0
  -28.9825  -24.0117   18.9045 C   0  0  0  0  0  0
  -30.5438  -24.5988   20.8001 C   0  0  0  0  0  0
  -28.1554  -25.3938   20.8546 C   0  0  0  0  0  0
  -28.6702  -22.9233   21.1685 C   0  0  0  0  0  0
  -29.0962  -24.2314   20.4248 C   0  0  0  0  0  0
  -28.3261  -20.4242   22.3081 N   0  0  0  0  0  0
  -29.9624  -15.5865   20.8107 N   0  0  0  0  0  0
  -29.3930  -21.7594   20.7234 O   0  0  0  0  0  0
  -31.4667  -12.3561   19.1670 H   0  0  0  0  0  0
  -30.2848  -11.2962   19.8734 H   0  0  0  0  0  0
  -29.7506  -11.7436   17.4543 H   0  0  0  0  0  0
  -29.6887  -13.4583   17.7642 H   0  0  0  0  0  0
  -27.8245  -11.3058   18.8232 H   0  0  0  0  0  0
  -27.3821  -12.6302   17.7785 H   0  0  0  0  0  0
  -27.6925  -14.2571   19.5408 H   0  0  0  0  0  0
  -28.6650  -12.0218   21.3926 H   0  0  0  0  0  0
  -28.4685  -13.6921   21.8391 H   0  0  0  0  0  0
  -25.2764   -9.5695   22.4736 H   0  0  0  0  0  0
  -24.0011   -7.4643   22.7460 H   0  0  0  0  0  0
  -21.0841   -8.8793   19.8950 H   0  0  0  0  0  0
  -22.3714  -10.9674   19.6159 H   0  0  0  0  0  0
  -21.2057   -7.6162   23.9736 H   0  0  0  0  0  0
  -21.1461   -6.0510   25.9070 H   0  0  0  0  0  0
  -22.0607   -2.7622   23.2816 H   0  0  0  0  0  0
  -22.4079  -11.9927   22.4819 H   0  0  0  0  0  0
  -21.1098  -13.1280   22.2569 H   0  0  0  0  0  0
  -24.6600  -15.8421   20.5246 H   0  0  0  0  0  0
  -26.2768  -15.6327   20.0825 H   0  0  0  0  0  0
  -26.7092  -32.5549   23.1156 H   0  0  0  0  0  0
  -24.9981  -33.9801   25.0431 H   0  0  0  0  0  0
  -22.6905  -31.3086   21.4121 H   0  0  0  0  0  0
  -23.3756  -35.9644   23.3307 H   0  0  0  0  0  0
  -24.3570  -36.8935   22.2044 H   0  0  0  0  0  0
  -23.7226  -37.6521   23.6650 H   0  0  0  0  0  0
  -26.0517  -31.6028   20.6045 H   0  0  0  0  0  0
  -26.8169  -30.8799   21.9914 H   0  0  0  0  0  0
  -28.0987  -29.0940   21.1766 H   0  0  0  0  0  0
  -26.0606  -25.9830   18.9956 H   0  0  0  0  0  0
  -23.9783  -27.3049   19.0224 H   0  0  0  0  0  0
  -23.7242  -30.6073   19.4084 H   0  0  0  0  0  0
  -22.7368  -29.2514   19.8625 H   0  0  0  0  0  0
  -25.1283  -36.1994   25.0826 H   0  0  0  0  0  0
  -20.9930  -28.3243   24.1439 H   0  0  0  0  0  0
  -20.5650  -26.2283   23.3605 H   0  0  0  0  0  0
  -21.6632  -26.7457   22.1219 H   0  0  0  0  0  0
  -19.6909  -25.6312   21.1226 H   0  0  0  0  0  0
  -19.6677  -27.3218   20.6744 H   0  0  0  0  0  0
  -17.4180  -26.6655   21.4030 H   0  0  0  0  0  0
  -18.0333  -26.0073   22.9021 H   0  0  0  0  0  0
  -19.7931  -30.7243   24.2294 H   0  0  0  0  0  0
  -17.5028  -31.6272   24.5188 H   0  0  0  0  0  0
  -15.5353  -30.3031   23.7644 H   0  0  0  0  0  0
  -15.8646  -28.0865   22.7051 H   0  0  0  0  0  0
  -24.5858  -30.7126   25.7806 H   0  0  0  0  0  0
  -24.8947  -32.2908   26.4940 H   0  0  0  0  0  0
  -25.8050  -30.8874   27.0219 H   0  0  0  0  0  0
  -26.2833  -29.6811   24.1155 H   0  0  0  0  0  0
  -27.3979  -29.7263   25.4618 H   0  0  0  0  0  0
  -27.8705  -30.4322   23.9334 H   0  0  0  0  0  0
  -27.2650  -33.3605   26.2108 H   0  0  0  0  0  0
  -28.3816  -32.6928   25.0287 H   0  0  0  0  0  0
  -28.0744  -31.8426   26.5356 H   0  0  0  0  0  0
  -28.2613  -38.0101   24.7527 H   0  0  0  0  0  0
  -28.1078  -36.2642   24.6261 H   0  0  0  0  0  0
  -27.2310  -37.1436   25.8861 H   0  0  0  0  0  0
  -20.9279  -29.8778   21.6958 H   0  0  0  0  0  0
  -26.0196  -38.2890   24.1420 H   0  0  0  0  0  0
  -30.6476  -20.6144   19.0615 H   0  0  0  0  0  0
  -28.9450  -17.8248   21.8923 H   0  0  0  0  0  0
  -31.3864  -16.4302   18.6113 H   0  0  0  0  0  0
  -32.5368  -19.7379   17.6475 H   0  0  0  0  0  0
  -31.3042  -18.9818   16.6341 H   0  0  0  0  0  0
  -32.6299  -18.0155   17.2852 H   0  0  0  0  0  0
  -29.2135  -24.9218   18.3509 H   0  0  0  0  0  0
  -27.9769  -23.7002   18.6225 H   0  0  0  0  0  0
  -29.6726  -23.2401   18.5626 H   0  0  0  0  0  0
  -30.8732  -25.5020   20.2852 H   0  0  0  0  0  0
  -31.2387  -23.7993   20.5433 H   0  0  0  0  0  0
  -30.6393  -24.7855   21.8703 H   0  0  0  0  0  0
  -28.2930  -25.5959   21.9184 H   0  0  0  0  0  0
  -27.1286  -25.0390   20.7687 H   0  0  0  0  0  0
  -27.6028  -22.7515   21.0106 H   0  0  0  0  0  0
  -28.8072  -23.0604   22.2431 H   0  0  0  0  0  0
  -28.2165  -19.4549   22.5818 H   0  0  0  0  0  0
  -29.0823  -15.3957   21.2640 H   0  0  0  0  0  0
  1 25  1  0  0  0
  1 30  2  0  0  0
  1 85  1  0  0  0
  2  3  1  0  0  0
  2 25  1  0  0  0
  2 87  1  0  0  0
  2 88  1  0  0  0
  3  4  1  0  0  0
  3 89  1  0  0  0
  3 90  1  0  0  0
  4  5  1  0  0  0
  4 91  1  0  0  0
  4 92  1  0  0  0
  5  6  1  0  0  0
  5 26  1  0  0  0
  5 93  1  0  0  0
  6 25  1  0  0  0
  6 94  1  0  0  0
  6 95  1  0  0  0
  7  8  2  0  0  0
  7 26  1  0  0  0
  7 29  1  0  0  0
  8  9  1  0  0  0
  8 22  1  0  0  0
  9 10  1  0  0  0
  9 27  2  0  0  0
 10 11  2  0  0  0
 10 15  1  0  0  0
 11 12  1  0  0  0
 11 96  1  0  0  0
 12 13  2  0  0  0
 12 97  1  0  0  0
 13 14  1  0  0  0
 13 31  1  0  0  0
 14 15  2  0  0  0
 14 98  1  0  0  0
 15 99  1  0  0  0
 16 17  2  0  0  0
 16 21  1  0  0  0
 16 31  1  0  0  0
 17 18  1  0  0  0
 17100  1  0  0  0
 18 19  2  0  0  0
 18101  1  0  0  0
 19 20  1  0  0  0
 19 24  1  0  0  0
 20 21  2  0  0  0
 20102  1  0  0  0
 21 23  1  0  0  0
 22 28  1  0  0  0
 22 32  2  0  0  0
 26 27  1  0  0  0
 28103  1  0  0  0
 28104  1  0  0  0
 29105  1  0  0  0
 29106  1  0  0  0
 33 34  1  0  0  0
 33 66  1  0  0  0
 33 70  2  0  0  0
 34 36  1  0  0  0
 34 59  1  0  0  0
 34107  1  0  0  0
 35 44  2  0  0  0
 35 45  1  0  0  0
 35 68  1  0  0  0
 36 56  1  0  0  0
 36108  1  0  0  0
 37 39  1  0  0  0
 37 47  1  0  0  0
 37 66  1  0  0  0
 37109  1  0  0  0
 38 43  2  0  0  0
 38 46  1  0  0  0
 38 47  1  0  0  0
 39 64  1  0  0  0
 39 67  2  0  0  0
 40 52  1  0  0  0
 40 53  2  0  0  0
 40 58  1  0  0  0
 41110  1  0  0  0
 41111  1  0  0  0
 41112  1  0  0  0
 41 48  1  0  0  0
 42 43  1  0  0  0
 42 66  1  0  0  0
 42113  1  0  0  0
 42114  1  0  0  0
 43 44  1  0  0  0
 44115  1  0  0  0
 45 46  2  0  0  0
 45116  1  0  0  0
 46117  1  0  0  0
 47118  1  0  0  0
 47119  1  0  0  0
 48 56  1  0  0  0
 48 65  1  0  0  0
 48120  1  0  0  0
 49 50  1  0  0  0
 49 53  1  0  0  0
 49 64  1  0  0  0
 49121  1  0  0  0
 50 51  1  0  0  0
 50122  1  0  0  0
 50123  1  0  0  0
 51 52  1  0  0  0
 51124  1  0  0  0
 51125  1  0  0  0
 52126  1  0  0  0
 52127  1  0  0  0
 53 54  1  0  0  0
 54 55  2  0  0  0
 54128  1  0  0  0
 55 57  1  0  0  0
 55129  1  0  0  0
 56 69  2  0  0  0
 57 58  2  0  0  0
 57130  1  0  0  0
 58131  1  0  0  0
 59 60  1  0  0  0
 59 61  1  0  0  0
 59 62  1  0  0  0
 60132  1  0  0  0
 60133  1  0  0  0
 60134  1  0  0  0
 61135  1  0  0  0
 61136  1  0  0  0
 61137  1  0  0  0
 62138  1  0  0  0
 62139  1  0  0  0
 62140  1  0  0  0
 63 65  1  0  0  0
 63141  1  0  0  0
 63142  1  0  0  0
 63143  1  0  0  0
 64144  1  0  0  0
 65145  1  0  0  0
 68 81  1  0  0  0
 71 74  2  0  0  0
 71 75  1  0  0  0
 71146  1  0  0  0
 72 74  1  0  0  0
 72 76  2  0  0  0
 72147  1  0  0  0
 73 75  2  0  0  0
 73 76  1  0  0  0
 73148  1  0  0  0
 74 77  1  0  0  0
 75 78  1  0  0  0
 76 85  1  0  0  0
 77 84  2  0  0  0
 77 86  1  0  0  0
 78149  1  0  0  0
 78150  1  0  0  0
 78151  1  0  0  0
 79152  1  0  0  0
 79153  1  0  0  0
 79154  1  0  0  0
 79 83  1  0  0  0
 80 83  1  0  0  0
 80155  1  0  0  0
 80156  1  0  0  0
 80157  1  0  0  0
 81 83  1  0  0  0
 81158  1  0  0  0
 81159  1  0  0  0
 82 83  1  0  0  0
 82 86  1  0  0  0
 82160  1  0  0  0
 82161  1  0  0  0
 84162  1  0  0  0
 85163  1  0  0  0
M  ISO  4   1 100  68 101  81 101  85 100
M  END
> <chiral flag>
0

> <version>
0

> <s_m_source_file>
/data/baiqing/PycharmProjects/Reinvent-master-3.2/result/LINK_invent/BTK/process_docking_weight1_custom_product_contain_oxygen_bond_distance_aromatic_linkinvent_7_9_3/rearranged_h_0135.sdf

> <i_m_source_file_index>
15

> <r_mmod_Potential_Energy-OPLS-2005>
-31.0731410980225

> <r_mmod_Stretch_Energy-OPLS-2005>
44.8163108825684

> <r_mmod_Bend_Energy-OPLS-2005>
99.0970458984375

> <r_mmod_Torsional_Energy-OPLS-2005>
249.897476196289

> <r_mmod_Improper_Torsional_Energy-OPLS-2005>
4.50909280776978

> <r_mmod_Van_der_Waal_Energy-OPLS-2005>
165.907348632812

> <r_mmod_Electrostatic_Energy-OPLS-2005>
-409.439788818359

> <r_mmod_Solvation_Energy-OPLS-2005>
-206.198547363281

> <b_mmod_Minimization_Converged-OPLS-2005>
0

> <r_mmod_RMS_Derivative-OPLS-2005>
1.96237182617188

$$$$
15
                    3D
 Structure written by MMmdl.
165173  0  0  1  0            999 V2000
  -30.6716  -14.4926   20.5601 C   0  0  0  0  0  0
  -30.4331  -12.3146   19.4093 C   0  0  0  0  0  0
  -29.4939  -12.5043   18.1987 C   0  0  0  0  0  0
  -28.0157  -12.3627   18.6134 C   0  0  0  0  0  0
  -27.6675  -13.1957   19.8759 C   0  0  2  0  0  0
  -28.7127  -12.9610   20.9915 C   0  0  0  0  0  0
  -25.2643  -13.8130   20.5651 C   0  0  0  0  0  0
  -24.1871  -13.0417   20.9138 C   0  0  0  0  0  0
  -24.6406  -11.6887   20.8719 C   0  0  0  0  0  0
  -23.9059  -10.4290   21.0396 C   0  0  0  0  0  0
  -24.3615   -9.4220   21.9179 C   0  0  0  0  0  0
  -23.6288   -8.2257   22.0769 C   0  0  0  0  0  0
  -22.4277   -8.0286   21.3552 C   0  0  0  0  0  0
  -21.9900   -9.0253   20.4660 C   0  0  0  0  0  0
  -22.7222  -10.2133   20.3053 C   0  0  0  0  0  0
  -21.6862   -6.0726   22.5267 C   0  0  0  0  0  0
  -21.4020   -6.5634   23.8198 C   0  0  0  0  0  0
  -21.3663   -5.6793   24.9164 C   0  0  0  0  0  0
  -21.6044   -4.3052   24.7221 C   0  0  0  0  0  0
  -21.8821   -3.8137   23.4343 C   0  0  0  0  0  0
  -21.9204   -4.6953   22.3399 C   0  0  0  0  0  0
  -22.7907  -13.5252   21.1781 C   0  0  0  0  0  0
  -22.1669   -4.2133   21.0976 F   0  0  0  0  0  0
  -21.5634   -3.4541   25.7738 F   0  0  0  0  0  0
  -30.0422  -13.2892   20.4418 N   0  0  0  0  0  0
  -26.3067  -12.9268   20.3362 N   0  0  0  0  0  0
  -25.9334  -11.6448   20.5763 N   0  0  0  0  0  0
  -22.0558  -12.8257   22.0363 N   0  0  0  0  0  0
  -25.4368  -15.1827   20.4039 N   0  0  0  0  0  0
  -31.7787  -14.7210   20.0608 O   0  0  0  0  0  0
  -21.6653   -6.8869   21.4236 O   0  0  0  0  0  0
  -22.3611  -14.5565   20.6650 O   0  0  0  0  0  0
  -24.6153  -31.8632   23.2108 C   0  0  0  0  0  0
  -25.9016  -32.4824   23.8409 C   0  0  1  0  0  0
  -27.2422  -27.4182   20.1010 C   0  0  0  0  0  0
  -25.5851  -33.8609   24.2329 N   0  0  0  0  0  0
  -23.4107  -30.4895   21.5461 C   0  0  2  0  0  0
  -24.8622  -28.9529   20.1223 C   0  0  0  0  0  0
  -22.7464  -29.4590   22.4888 C   0  0  0  0  0  0
  -18.0323  -28.1398   22.8507 C   0  0  0  0  0  0
  -24.1509  -36.7314   23.2648 C   0  0  0  0  0  0
  -25.9438  -30.8239   21.3732 C   0  0  0  0  0  0
  -26.0250  -29.4557   20.7247 C   0  0  0  0  0  0
  -27.2199  -28.6939   20.7176 C   0  0  0  0  0  0
  -26.0692  -26.9412   19.4839 C   0  0  0  0  0  0
  -24.8770  -27.6900   19.5078 C   0  0  0  0  0  0
  -23.6266  -29.8262   20.1620 C   0  0  0  0  0  0
  -25.4118  -36.3105   24.0358 C   0  0  1  0  0  0
  -20.5916  -28.3649   23.1303 C   0  0  2  0  0  0
  -20.6819  -26.9377   22.5398 C   0  0  0  0  0  0
  -19.5785  -26.6387   21.5213 C   0  0  0  0  0  0
  -18.1965  -26.7960   22.1628 C   0  0  0  0  0  0
  -19.1570  -28.8846   23.2913 C   0  0  0  0  0  0
  -18.9477  -30.1474   23.8893 C   0  0  0  0  0  0
  -17.6457  -30.6582   24.0581 C   0  0  0  0  0  0
  -25.9016  -34.9464   23.5150 C   0  0  0  0  0  0
  -16.5357  -29.9076   23.6328 C   0  0  0  0  0  0
  -16.7307  -28.6514   23.0331 C   0  0  0  0  0  0
  -26.4462  -31.6637   25.0757 C   0  0  0  0  0  0
  -25.3674  -31.3760   26.1473 C   0  0  0  0  0  0
  -27.0278  -30.3075   24.6147 C   0  0  0  0  0  0
  -27.6063  -32.4371   25.7492 C   0  0  0  0  0  0
  -27.5603  -37.1822   24.8470 C   0  0  0  0  0  0
  -21.4168  -29.3004   22.3667 N   0  0  0  0  0  0
  -26.4322  -37.3774   23.9409 N   0  0  0  0  0  0
  -24.6747  -31.0737   22.1006 N   0  0  0  0  0  0
  -23.4235  -28.8028   23.2850 O   0  0  0  0  0  0
  -28.3665  -26.6196   20.0074 O   0  0  0  0  0  0
  -26.5609  -34.8910   22.4731 O   0  0  0  0  0  0
  -23.5332  -32.1322   23.7504 O   0  0  0  0  0  0
  -30.5352  -19.0608   20.1804 C   0  0  0  0  0  0
  -30.5610  -17.6412   20.1265 C   0  0  0  0  0  0
  -29.5551  -17.5525   22.3275 C   0  0  0  0  0  0
  -30.0356  -19.7473   21.3149 C   0  0  0  0  0  0
  -29.5332  -18.9717   22.4056 C   0  0  0  0  0  0
  -30.0677  -16.8686   21.2054 C   0  0  0  0  0  0
  -30.0606  -21.2386   21.3814 C   0  0  0  0  0  0
  -28.2107  -18.7555   24.6482 C   0  0  0  0  0  0
  -27.9853  -25.9168   22.3937 C   0  0  0  0  0  0
  -28.9330  -19.6603   23.6402 C   0  0  0  0  0  0
  -29.6133  -24.6357   20.8179 C   0  0  0  0  0  0
  -28.6994  -23.3707   20.8773 C   0  0  0  0  0  0
  -28.9408  -26.0114   21.1841 C   0  0  1  0  0  0
  -30.8051  -21.8190   22.3177 N   0  0  0  0  0  0
  -29.9524  -15.4385   21.1996 N   0  0  0  0  0  0
  -29.3027  -22.0247   20.5849 N   0  3  0  0  0  0
  -31.4746  -12.4297   19.1024 H   0  0  0  0  0  0
  -30.3517  -11.2998   19.8008 H   0  0  0  0  0  0
  -29.7326  -11.7788   17.4195 H   0  0  0  0  0  0
  -29.6554  -13.4885   17.7573 H   0  0  0  0  0  0
  -27.8223  -11.3053   18.7992 H   0  0  0  0  0  0
  -27.3638  -12.6467   17.7860 H   0  0  0  0  0  0
  -27.7170  -14.2452   19.5861 H   0  0  0  0  0  0
  -28.6991  -11.9184   21.3130 H   0  0  0  0  0  0
  -28.4646  -13.5359   21.8846 H   0  0  0  0  0  0
  -25.2770   -9.5699   22.4735 H   0  0  0  0  0  0
  -23.9996   -7.4670   22.7508 H   0  0  0  0  0  0
  -21.0823   -8.8762   19.8981 H   0  0  0  0  0  0
  -22.3670  -10.9664   19.6157 H   0  0  0  0  0  0
  -21.2012   -7.6142   23.9684 H   0  0  0  0  0  0
  -21.1483   -6.0532   25.9061 H   0  0  0  0  0  0
  -22.0602   -2.7597   23.2849 H   0  0  0  0  0  0
  -22.4180  -11.9899   22.4692 H   0  0  0  0  0  0
  -21.1189  -13.1298   22.2593 H   0  0  0  0  0  0
  -24.6664  -15.8338   20.5101 H   0  0  0  0  0  0
  -26.2843  -15.6250   20.0692 H   0  0  0  0  0  0
  -26.7070  -32.5530   23.1156 H   0  0  0  0  0  0
  -24.9996  -33.9752   25.0476 H   0  0  0  0  0  0
  -22.6993  -31.3051   21.4056 H   0  0  0  0  0  0
  -23.3772  -35.9647   23.3318 H   0  0  0  0  0  0
  -24.3626  -36.8915   22.2066 H   0  0  0  0  0  0
  -23.7267  -37.6524   23.6644 H   0  0  0  0  0  0
  -26.0688  -31.5920   20.6089 H   0  0  0  0  0  0
  -26.8270  -30.8697   21.9983 H   0  0  0  0  0  0
  -28.1226  -29.0815   21.1698 H   0  0  0  0  0  0
  -26.0854  -25.9857   18.9794 H   0  0  0  0  0  0
  -23.9822  -27.3019   19.0388 H   0  0  0  0  0  0
  -23.7354  -30.6007   19.4005 H   0  0  0  0  0  0
  -22.7501  -29.2483   19.8635 H   0  0  0  0  0  0
  -25.1295  -36.1984   25.0854 H   0  0  0  0  0  0
  -21.0096  -28.3243   24.1388 H   0  0  0  0  0  0
  -20.5778  -26.2226   23.3569 H   0  0  0  0  0  0
  -21.6669  -26.7425   22.1127 H   0  0  0  0  0  0
  -19.6925  -25.6305   21.1252 H   0  0  0  0  0  0
  -19.6777  -27.3198   20.6754 H   0  0  0  0  0  0
  -17.4239  -26.6739   21.4033 H   0  0  0  0  0  0
  -18.0344  -26.0103   22.9015 H   0  0  0  0  0  0
  -19.7925  -30.7353   24.2237 H   0  0  0  0  0  0
  -17.4972  -31.6261   24.5183 H   0  0  0  0  0  0
  -15.5349  -30.2956   23.7661 H   0  0  0  0  0  0
  -15.8725  -28.0855   22.6986 H   0  0  0  0  0  0
  -24.5849  -30.7138   25.7763 H   0  0  0  0  0  0
  -24.8858  -32.2919   26.4893 H   0  0  0  0  0  0
  -25.7946  -30.8906   27.0247 H   0  0  0  0  0  0
  -26.2810  -29.6899   24.1144 H   0  0  0  0  0  0
  -27.3973  -29.7273   25.4607 H   0  0  0  0  0  0
  -27.8688  -30.4425   23.9349 H   0  0  0  0  0  0
  -27.2713  -33.3691   26.2063 H   0  0  0  0  0  0
  -28.3850  -32.6920   25.0295 H   0  0  0  0  0  0
  -28.0750  -31.8501   26.5408 H   0  0  0  0  0  0
  -28.2600  -38.0129   24.7496 H   0  0  0  0  0  0
  -28.1112  -36.2659   24.6308 H   0  0  0  0  0  0
  -27.2312  -37.1472   25.8867 H   0  0  0  0  0  0
  -20.9300  -29.8711   21.6903 H   0  0  0  0  0  0
  -26.0224  -38.2864   24.1390 H   0  0  0  0  0  0
  -30.9226  -19.6241   19.3433 H   0  0  0  0  0  0
  -30.9408  -17.1539   19.2385 H   0  0  0  0  0  0
  -29.1679  -16.9499   23.1362 H   0  0  0  0  0  0
  -27.7701  -19.3603   25.4410 H   0  0  0  0  0  0
  -28.8932  -18.0503   25.1233 H   0  0  0  0  0  0
  -27.4010  -18.1986   24.1763 H   0  0  0  0  0  0
  -27.0538  -25.4128   22.1357 H   0  0  0  0  0  0
  -27.7275  -26.9068   22.7668 H   0  0  0  0  0  0
  -28.4475  -25.3805   23.2234 H   0  0  0  0  0  0
  -28.2154  -20.4088   23.3012 H   0  0  0  0  0  0
  -29.7245  -20.1954   24.1659 H   0  0  0  0  0  0
  -30.0411  -24.7310   19.8213 H   0  0  0  0  0  0
  -30.4612  -24.4807   21.4847 H   0  0  0  0  0  0
  -27.8743  -23.5164   20.1804 H   0  0  0  0  0  0
  -28.2327  -23.3088   21.8611 H   0  0  0  0  0  0
  -29.7523  -26.6812   21.4751 H   0  0  0  0  0  0
  -31.4158  -21.2334   22.8678 H   0  0  0  0  0  0
  -30.9512  -22.8122   22.3405 H   0  0  0  0  0  0
  -29.1433  -15.0734   21.6771 H   0  0  0  0  0  0
  -28.9039  -21.5464   19.7846 H   0  0  0  0  0  0
  1 25  1  0  0  0
  1 30  2  0  0  0
  1 85  1  0  0  0
  2  3  1  0  0  0
  2 25  1  0  0  0
  2 87  1  0  0  0
  2 88  1  0  0  0
  3  4  1  0  0  0
  3 89  1  0  0  0
  3 90  1  0  0  0
  4  5  1  0  0  0
  4 91  1  0  0  0
  4 92  1  0  0  0
  5  6  1  0  0  0
  5 26  1  0  0  0
  5 93  1  0  0  0
  6 25  1  0  0  0
  6 94  1  0  0  0
  6 95  1  0  0  0
  7  8  2  0  0  0
  7 26  1  0  0  0
  7 29  1  0  0  0
  8  9  1  0  0  0
  8 22  1  0  0  0
  9 10  1  0  0  0
  9 27  2  0  0  0
 10 11  2  0  0  0
 10 15  1  0  0  0
 11 12  1  0  0  0
 11 96  1  0  0  0
 12 13  2  0  0  0
 12 97  1  0  0  0
 13 14  1  0  0  0
 13 31  1  0  0  0
 14 15  2  0  0  0
 14 98  1  0  0  0
 15 99  1  0  0  0
 16 17  2  0  0  0
 16 21  1  0  0  0
 16 31  1  0  0  0
 17 18  1  0  0  0
 17100  1  0  0  0
 18 19  2  0  0  0
 18101  1  0  0  0
 19 20  1  0  0  0
 19 24  1  0  0  0
 20 21  2  0  0  0
 20102  1  0  0  0
 21 23  1  0  0  0
 22 28  1  0  0  0
 22 32  2  0  0  0
 26 27  1  0  0  0
 28103  1  0  0  0
 28104  1  0  0  0
 29105  1  0  0  0
 29106  1  0  0  0
 33 34  1  0  0  0
 33 66  1  0  0  0
 33 70  2  0  0  0
 34 36  1  0  0  0
 34 59  1  0  0  0
 34107  1  0  0  0
 35 44  2  0  0  0
 35 45  1  0  0  0
 35 68  1  0  0  0
 36 56  1  0  0  0
 36108  1  0  0  0
 37 39  1  0  0  0
 37 47  1  0  0  0
 37 66  1  0  0  0
 37109  1  0  0  0
 38 43  2  0  0  0
 38 46  1  0  0  0
 38 47  1  0  0  0
 39 64  1  0  0  0
 39 67  2  0  0  0
 40 52  1  0  0  0
 40 53  2  0  0  0
 40 58  1  0  0  0
 41110  1  0  0  0
 41111  1  0  0  0
 41112  1  0  0  0
 41 48  1  0  0  0
 42 43  1  0  0  0
 42 66  1  0  0  0
 42113  1  0  0  0
 42114  1  0  0  0
 43 44  1  0  0  0
 44115  1  0  0  0
 45 46  2  0  0  0
 45116  1  0  0  0
 46117  1  0  0  0
 47118  1  0  0  0
 47119  1  0  0  0
 48 56  1  0  0  0
 48 65  1  0  0  0
 48120  1  0  0  0
 49 50  1  0  0  0
 49 53  1  0  0  0
 49 64  1  0  0  0
 49121  1  0  0  0
 50 51  1  0  0  0
 50122  1  0  0  0
 50123  1  0  0  0
 51 52  1  0  0  0
 51124  1  0  0  0
 51125  1  0  0  0
 52126  1  0  0  0
 52127  1  0  0  0
 53 54  1  0  0  0
 54 55  2  0  0  0
 54128  1  0  0  0
 55 57  1  0  0  0
 55129  1  0  0  0
 56 69  2  0  0  0
 57 58  2  0  0  0
 57130  1  0  0  0
 58131  1  0  0  0
 59 60  1  0  0  0
 59 61  1  0  0  0
 59 62  1  0  0  0
 60132  1  0  0  0
 60133  1  0  0  0
 60134  1  0  0  0
 61135  1  0  0  0
 61136  1  0  0  0
 61137  1  0  0  0
 62138  1  0  0  0
 62139  1  0  0  0
 62140  1  0  0  0
 63 65  1  0  0  0
 63141  1  0  0  0
 63142  1  0  0  0
 63143  1  0  0  0
 64144  1  0  0  0
 65145  1  0  0  0
 68 83  1  0  0  0
 71 72  2  0  0  0
 71 74  1  0  0  0
 71146  1  0  0  0
 72 76  1  0  0  0
 72147  1  0  0  0
 73 75  1  0  0  0
 73 76  2  0  0  0
 73148  1  0  0  0
 74 75  2  0  0  0
 74 77  1  0  0  0
 75 80  1  0  0  0
 76 85  1  0  0  0
 77 84  1  0  0  0
 77 86  2  0  0  0
 78 80  1  0  0  0
 78149  1  0  0  0
 78150  1  0  0  0
 78151  1  0  0  0
 79152  1  0  0  0
 79153  1  0  0  0
 79154  1  0  0  0
 79 83  1  0  0  0
 80155  1  0  0  0
 80156  1  0  0  0
 81 82  1  0  0  0
 81 83  1  0  0  0
 81157  1  0  0  0
 81158  1  0  0  0
 82 86  1  0  0  0
 82159  1  0  0  0
 82160  1  0  0  0
 83161  1  0  0  0
 84162  1  0  0  0
 84163  1  0  0  0
 85164  1  0  0  0
 86165  1  0  0  0
M  CHG  1  86   1
M  ISO  4   1 100  68 101  83 101  85 100
M  END
> <chiral flag>
0

> <version>
0

> <s_m_source_file>
/data/baiqing/PycharmProjects/Reinvent-master-3.2/result/LINK_invent/BTK/process_docking_weight1_custom_product_contain_oxygen_bond_distance_aromatic_linkinvent_7_9_3/rearranged_h_0135.sdf

> <i_m_source_file_index>
16

> <r_mmod_Potential_Energy-OPLS-2005>
-143.288055419922

> <r_mmod_Stretch_Energy-OPLS-2005>
48.9023208618164

> <r_mmod_Bend_Energy-OPLS-2005>
124.228363037109

> <r_mmod_Torsional_Energy-OPLS-2005>
275.584686279297

> <r_mmod_Improper_Torsional_Energy-OPLS-2005>
4.57754755020142

> <r_mmod_Van_der_Waal_Energy-OPLS-2005>
153.743621826172

> <r_mmod_Electrostatic_Energy-OPLS-2005>
-366.723175048828

> <r_mmod_Solvation_Energy-OPLS-2005>
-398.564147949219

> <b_mmod_Minimization_Converged-OPLS-2005>
0

> <r_mmod_RMS_Derivative-OPLS-2005>
3.58882451057434

$$$$
16
                    3D
 Structure written by MMmdl.
152160  0  0  1  0            999 V2000
  -30.5730  -14.9394   20.3865 C   0  0  0  0  0  0
  -30.4304  -12.5765   19.5064 C   0  0  0  0  0  0
  -29.5158  -12.5016   18.2623 C   0  0  0  0  0  0
  -28.0483  -12.3079   18.6796 C   0  0  0  0  0  0
  -27.6265  -13.2530   19.8359 C   0  0  2  0  0  0
  -28.6690  -13.3019   20.9733 C   0  0  0  0  0  0
  -25.2442  -13.8237   20.5726 C   0  0  0  0  0  0
  -24.1765  -13.0447   20.9232 C   0  0  0  0  0  0
  -24.6392  -11.6936   20.8765 C   0  0  0  0  0  0
  -23.9084  -10.4297   21.0410 C   0  0  0  0  0  0
  -24.3634   -9.4210   21.9185 C   0  0  0  0  0  0
  -23.6307   -8.2247   22.0755 C   0  0  0  0  0  0
  -22.4289   -8.0284   21.3546 C   0  0  0  0  0  0
  -21.9926   -9.0257   20.4647 C   0  0  0  0  0  0
  -22.7256  -10.2135   20.3055 C   0  0  0  0  0  0
  -21.6856   -6.0740   22.5279 C   0  0  0  0  0  0
  -21.4017   -6.5643   23.8214 C   0  0  0  0  0  0
  -21.3660   -5.6794   24.9176 C   0  0  0  0  0  0
  -21.6044   -4.3055   24.7223 C   0  0  0  0  0  0
  -21.8819   -3.8149   23.4345 C   0  0  0  0  0  0
  -21.9195   -4.6968   22.3402 C   0  0  0  0  0  0
  -22.7785  -13.5209   21.1881 C   0  0  0  0  0  0
  -22.1662   -4.2152   21.0979 F   0  0  0  0  0  0
  -21.5628   -3.4540   25.7737 F   0  0  0  0  0  0
  -29.9458  -13.6952   20.3671 N   0  0  0  0  0  0
  -26.2872  -12.9480   20.3260 N   0  0  0  0  0  0
  -25.9327  -11.6604   20.5765 N   0  0  0  0  0  0
  -22.0440  -12.8194   22.0438 N   0  0  0  0  0  0
  -25.4101  -15.1967   20.4153 N   0  0  0  0  0  0
  -31.7878  -14.9455   20.1692 O   0  0  0  0  0  0
  -21.6646   -6.8885   21.4242 O   0  0  0  0  0  0
  -22.3464  -14.5509   20.6723 O   0  0  0  0  0  0
  -24.6431  -31.8440   23.1894 C   0  0  0  0  0  0
  -25.9206  -32.4694   23.8282 C   0  0  1  0  0  0
  -27.2133  -27.1351   20.1515 C   0  0  0  0  0  0
  -25.5962  -33.8503   24.2199 N   0  0  0  0  0  0
  -23.4466  -30.4642   21.5337 C   0  0  2  0  0  0
  -24.8966  -28.8933   20.1058 C   0  0  0  0  0  0
  -22.7559  -29.4550   22.4853 C   0  0  0  0  0  0
  -18.0304  -28.1398   22.8485 C   0  0  0  0  0  0
  -24.1492  -36.7246   23.2645 C   0  0  0  0  0  0
  -26.0025  -30.7154   21.3914 C   0  0  0  0  0  0
  -26.0717  -29.3275   20.7315 C   0  0  0  0  0  0
  -27.2290  -28.4624   20.7423 C   0  0  0  0  0  0
  -26.0193  -26.8117   19.4693 C   0  0  0  0  0  0
  -24.8840  -27.6495   19.4578 C   0  0  0  0  0  0
  -23.6728  -29.7949   20.1519 C   0  0  0  0  0  0
  -25.4126  -36.3034   24.0320 C   0  0  1  0  0  0
  -20.5916  -28.3726   23.1233 C   0  0  2  0  0  0
  -20.6789  -26.9429   22.5402 C   0  0  0  0  0  0
  -19.5762  -26.6384   21.5215 C   0  0  0  0  0  0
  -18.1942  -26.7939   22.1624 C   0  0  0  0  0  0
  -19.1562  -28.8880   23.2853 C   0  0  0  0  0  0
  -18.9477  -30.1475   23.8879 C   0  0  0  0  0  0
  -17.6471  -30.6596   24.0561 C   0  0  0  0  0  0
  -25.9077  -34.9409   23.5067 C   0  0  0  0  0  0
  -16.5364  -29.9088   23.6338 C   0  0  0  0  0  0
  -16.7288  -28.6505   23.0367 C   0  0  0  0  0  0
  -26.4533  -31.6566   25.0722 C   0  0  0  0  0  0
  -25.3719  -31.3740   26.1415 C   0  0  0  0  0  0
  -27.0416  -30.2969   24.6310 C   0  0  0  0  0  0
  -27.6069  -32.4330   25.7499 C   0  0  0  0  0  0
  -27.5578  -37.1781   24.8470 C   0  0  0  0  0  0
  -21.4253  -29.3049   22.3596 N   0  0  0  0  0  0
  -26.4289  -37.3747   23.9412 N   0  0  0  0  0  0
  -24.7171  -31.0292   22.0930 N   0  0  0  0  0  0
  -23.4201  -28.8098   23.3004 O   0  0  0  0  0  0
  -28.2578  -26.1440   20.2523 O   0  0  0  0  0  0
  -26.5656  -34.8906   22.4642 O   0  0  0  0  0  0
  -23.5550  -32.1320   23.7113 O   0  0  0  0  0  0
  -30.1190  -17.4871   19.6846 C   0  0  0  0  0  0
  -29.8466  -18.9996   19.7800 C   0  0  0  0  0  0
  -30.7264  -17.3770   18.4460 C   0  0  0  0  0  0
  -31.1578  -16.2613   17.5493 C   0  0  0  0  0  0
  -29.2686  -20.2492   20.6650 C   0  0  0  0  0  0
  -28.7142  -21.7023   19.9679 C   0  0  0  0  0  0
  -28.8471  -23.2845   20.5524 C   0  0  0  0  0  0
  -28.0296  -24.6318   19.9467 C   0  0  0  0  0  0
  -30.4500  -19.5615   18.7415 N   0  0  0  0  0  0
  -29.8564  -16.1755   20.4445 N   0  0  0  0  0  0
  -30.9546  -18.5844   17.9029 O   0  0  0  0  0  0
  -31.4662  -12.7133   19.1925 H   0  0  0  0  0  0
  -30.4117  -11.6348   20.0577 H   0  0  0  0  0  0
  -29.8291  -11.6849   17.6105 H   0  0  0  0  0  0
  -29.6073  -13.4113   17.6717 H   0  0  0  0  0  0
  -27.9365  -11.2693   18.9929 H   0  0  0  0  0  0
  -27.3882  -12.4385   17.8214 H   0  0  0  0  0  0
  -27.5854  -14.2506   19.3974 H   0  0  0  0  0  0
  -28.7509  -12.3365   21.4748 H   0  0  0  0  0  0
  -28.3733  -14.0249   21.7351 H   0  0  0  0  0  0
  -25.2778   -9.5687   22.4767 H   0  0  0  0  0  0
  -24.0009   -7.4637   22.7479 H   0  0  0  0  0  0
  -21.0857   -8.8782   19.8954 H   0  0  0  0  0  0
  -22.3715  -10.9678   19.6168 H   0  0  0  0  0  0
  -21.2011   -7.6150   23.9717 H   0  0  0  0  0  0
  -21.1481   -6.0525   25.9078 H   0  0  0  0  0  0
  -22.0598   -2.7611   23.2846 H   0  0  0  0  0  0
  -22.4073  -11.9861   22.4826 H   0  0  0  0  0  0
  -21.1051  -13.1206   22.2644 H   0  0  0  0  0  0
  -24.6395  -15.8470   20.5254 H   0  0  0  0  0  0
  -26.2543  -15.6393   20.0758 H   0  0  0  0  0  0
  -26.7267  -32.5300   23.1006 H   0  0  0  0  0  0
  -25.0118  -33.9624   25.0355 H   0  0  0  0  0  0
  -22.7506  -31.2913   21.3798 H   0  0  0  0  0  0
  -23.3773  -35.9558   23.3295 H   0  0  0  0  0  0
  -24.3576  -36.8888   22.2061 H   0  0  0  0  0  0
  -23.7225  -37.6430   23.6687 H   0  0  0  0  0  0
  -26.1626  -31.4699   20.6203 H   0  0  0  0  0  0
  -26.8718  -30.7626   22.0358 H   0  0  0  0  0  0
  -28.1193  -28.7834   21.2643 H   0  0  0  0  0  0
  -25.9272  -25.8680   18.9531 H   0  0  0  0  0  0
  -23.9904  -27.3172   18.9470 H   0  0  0  0  0  0
  -23.8085  -30.5704   19.3970 H   0  0  0  0  0  0
  -22.7880  -29.2364   19.8413 H   0  0  0  0  0  0
  -25.1313  -36.1867   25.0810 H   0  0  0  0  0  0
  -21.0017  -28.3325   24.1351 H   0  0  0  0  0  0
  -20.5692  -26.2341   23.3625 H   0  0  0  0  0  0
  -21.6653  -26.7439   22.1196 H   0  0  0  0  0  0
  -19.6924  -25.6290   21.1258 H   0  0  0  0  0  0
  -19.6698  -27.3184   20.6737 H   0  0  0  0  0  0
  -17.4209  -26.6694   21.4026 H   0  0  0  0  0  0
  -18.0339  -26.0082   22.9021 H   0  0  0  0  0  0
  -19.7952  -30.7299   24.2246 H   0  0  0  0  0  0
  -17.5023  -31.6277   24.5163 H   0  0  0  0  0  0
  -15.5367  -30.2983   23.7671 H   0  0  0  0  0  0
  -15.8689  -28.0811   22.7105 H   0  0  0  0  0  0
  -24.5921  -30.7064   25.7726 H   0  0  0  0  0  0
  -24.8883  -32.2911   26.4784 H   0  0  0  0  0  0
  -25.8005  -30.8951   27.0229 H   0  0  0  0  0  0
  -26.3045  -29.6672   24.1313 H   0  0  0  0  0  0
  -27.4034  -29.7282   25.4887 H   0  0  0  0  0  0
  -27.8944  -30.4219   23.9636 H   0  0  0  0  0  0
  -27.2685  -33.3666   26.2005 H   0  0  0  0  0  0
  -28.3912  -32.6828   25.0340 H   0  0  0  0  0  0
  -28.0703  -31.8500   26.5469 H   0  0  0  0  0  0
  -28.2584  -38.0088   24.7530 H   0  0  0  0  0  0
  -28.1085  -36.2617   24.6287 H   0  0  0  0  0  0
  -27.2293  -37.1414   25.8871 H   0  0  0  0  0  0
  -20.9465  -29.8752   21.6766 H   0  0  0  0  0  0
  -26.0159  -38.2813   24.1426 H   0  0  0  0  0  0
  -30.4328  -15.4527   17.5576 H   0  0  0  0  0  0
  -32.1332  -15.8732   17.8366 H   0  0  0  0  0  0
  -31.2417  -16.6043   16.5185 H   0  0  0  0  0  0
  -30.0619  -20.5302   21.3580 H   0  0  0  0  0  0
  -28.4781  -19.8716   21.3138 H   0  0  0  0  0  0
  -27.6587  -21.5364   19.7506 H   0  0  0  0  0  0
  -29.1637  -21.7626   18.9775 H   0  0  0  0  0  0
  -29.9093  -23.5282   20.5140 H   0  0  0  0  0  0
  -28.6165  -23.2447   21.6170 H   0  0  0  0  0  0
  -26.9867  -24.4235   20.1825 H   0  0  0  0  0  0
  -28.0905  -24.5600   18.8600 H   0  0  0  0  0  0
  -28.9431  -16.1067   20.8707 H   0  0  0  0  0  0
  1 25  1  0  0  0
  1 30  2  0  0  0
  1 80  1  0  0  0
  2  3  1  0  0  0
  2 25  1  0  0  0
  2 82  1  0  0  0
  2 83  1  0  0  0
  3  4  1  0  0  0
  3 84  1  0  0  0
  3 85  1  0  0  0
  4  5  1  0  0  0
  4 86  1  0  0  0
  4 87  1  0  0  0
  5  6  1  0  0  0
  5 26  1  0  0  0
  5 88  1  0  0  0
  6 25  1  0  0  0
  6 89  1  0  0  0
  6 90  1  0  0  0
  7  8  2  0  0  0
  7 26  1  0  0  0
  7 29  1  0  0  0
  8  9  1  0  0  0
  8 22  1  0  0  0
  9 10  1  0  0  0
  9 27  2  0  0  0
 10 11  2  0  0  0
 10 15  1  0  0  0
 11 12  1  0  0  0
 11 91  1  0  0  0
 12 13  2  0  0  0
 12 92  1  0  0  0
 13 14  1  0  0  0
 13 31  1  0  0  0
 14 15  2  0  0  0
 14 93  1  0  0  0
 15 94  1  0  0  0
 16 17  2  0  0  0
 16 21  1  0  0  0
 16 31  1  0  0  0
 17 18  1  0  0  0
 17 95  1  0  0  0
 18 19  2  0  0  0
 18 96  1  0  0  0
 19 20  1  0  0  0
 19 24  1  0  0  0
 20 21  2  0  0  0
 20 97  1  0  0  0
 21 23  1  0  0  0
 22 28  1  0  0  0
 22 32  2  0  0  0
 26 27  1  0  0  0
 28 98  1  0  0  0
 28 99  1  0  0  0
 29100  1  0  0  0
 29101  1  0  0  0
 33 34  1  0  0  0
 33 66  1  0  0  0
 33 70  2  0  0  0
 34 36  1  0  0  0
 34 59  1  0  0  0
 34102  1  0  0  0
 35 44  2  0  0  0
 35 45  1  0  0  0
 35 68  1  0  0  0
 36 56  1  0  0  0
 36103  1  0  0  0
 37 39  1  0  0  0
 37 47  1  0  0  0
 37 66  1  0  0  0
 37104  1  0  0  0
 38 43  2  0  0  0
 38 46  1  0  0  0
 38 47  1  0  0  0
 39 64  1  0  0  0
 39 67  2  0  0  0
 40 52  1  0  0  0
 40 53  2  0  0  0
 40 58  1  0  0  0
 41105  1  0  0  0
 41106  1  0  0  0
 41107  1  0  0  0
 41 48  1  0  0  0
 42 43  1  0  0  0
 42 66  1  0  0  0
 42108  1  0  0  0
 42109  1  0  0  0
 43 44  1  0  0  0
 44110  1  0  0  0
 45 46  2  0  0  0
 45111  1  0  0  0
 46112  1  0  0  0
 47113  1  0  0  0
 47114  1  0  0  0
 48 56  1  0  0  0
 48 65  1  0  0  0
 48115  1  0  0  0
 49 50  1  0  0  0
 49 53  1  0  0  0
 49 64  1  0  0  0
 49116  1  0  0  0
 50 51  1  0  0  0
 50117  1  0  0  0
 50118  1  0  0  0
 51 52  1  0  0  0
 51119  1  0  0  0
 51120  1  0  0  0
 52121  1  0  0  0
 52122  1  0  0  0
 53 54  1  0  0  0
 54 55  2  0  0  0
 54123  1  0  0  0
 55 57  1  0  0  0
 55124  1  0  0  0
 56 69  2  0  0  0
 57 58  2  0  0  0
 57125  1  0  0  0
 58126  1  0  0  0
 59 60  1  0  0  0
 59 61  1  0  0  0
 59 62  1  0  0  0
 60127  1  0  0  0
 60128  1  0  0  0
 60129  1  0  0  0
 61130  1  0  0  0
 61131  1  0  0  0
 61132  1  0  0  0
 62133  1  0  0  0
 62134  1  0  0  0
 62135  1  0  0  0
 63 65  1  0  0  0
 63136  1  0  0  0
 63137  1  0  0  0
 63138  1  0  0  0
 64139  1  0  0  0
 65140  1  0  0  0
 68 78  1  0  0  0
 71 72  1  0  0  0
 71 73  2  0  0  0
 71 80  1  0  0  0
 72 75  1  0  0  0
 72 79  2  0  0  0
 73 74  1  0  0  0
 73 81  1  0  0  0
 74141  1  0  0  0
 74142  1  0  0  0
 74143  1  0  0  0
 75 76  1  0  0  0
 75144  1  0  0  0
 75145  1  0  0  0
 76 77  1  0  0  0
 76146  1  0  0  0
 76147  1  0  0  0
 77 78  1  0  0  0
 77148  1  0  0  0
 77149  1  0  0  0
 78150  1  0  0  0
 78151  1  0  0  0
 79 81  1  0  0  0
 80152  1  0  0  0
M  ISO  4   1 100  68 101  78 101  80 100
M  END
> <chiral flag>
0

> <version>
0

> <s_m_source_file>
/data/baiqing/PycharmProjects/Reinvent-master-3.2/result/LINK_invent/BTK/process_docking_weight1_custom_product_contain_oxygen_bond_distance_aromatic_linkinvent_7_9_3/rearranged_h_0135.sdf

> <i_m_source_file_index>
17

> <r_mmod_Potential_Energy-OPLS-2005>
536.671569824219

> <r_mmod_Stretch_Energy-OPLS-2005>
282.582427978516

> <r_mmod_Bend_Energy-OPLS-2005>
312.890106201172

> <r_mmod_Torsional_Energy-OPLS-2005>
245.500747680664

> <r_mmod_Improper_Torsional_Energy-OPLS-2005>
5.38602352142334

> <r_mmod_Van_der_Waal_Energy-OPLS-2005>
122.284324645996

> <r_mmod_Electrostatic_Energy-OPLS-2005>
-403.80126953125

> <r_mmod_Solvation_Energy-OPLS-2005>
-221.565856933594

> <b_mmod_Minimization_Converged-OPLS-2005>
0

> <r_mmod_RMS_Derivative-OPLS-2005>
0.766429781913757

$$$$
17
                    3D
 Structure written by MMmdl.
160168  0  0  1  0            999 V2000
  -30.6055  -14.7390   20.4668 C   0  0  0  0  0  0
  -30.4428  -12.4557   19.4561 C   0  0  0  0  0  0
  -29.5087  -12.4929   18.2267 C   0  0  0  0  0  0
  -28.0355  -12.3219   18.6475 C   0  0  0  0  0  0
  -27.6425  -13.2244   19.8473 C   0  0  2  0  0  0
  -28.6925  -13.1510   20.9754 C   0  0  0  0  0  0
  -25.2528  -13.8174   20.5716 C   0  0  0  0  0  0
  -24.1808  -13.0430   20.9223 C   0  0  0  0  0  0
  -24.6386  -11.6903   20.8742 C   0  0  0  0  0  0
  -23.9063  -10.4282   21.0405 C   0  0  0  0  0  0
  -24.3619   -9.4199   21.9185 C   0  0  0  0  0  0
  -23.6294   -8.2232   22.0756 C   0  0  0  0  0  0
  -22.4272   -8.0282   21.3551 C   0  0  0  0  0  0
  -21.9914   -9.0251   20.4647 C   0  0  0  0  0  0
  -22.7236  -10.2130   20.3055 C   0  0  0  0  0  0
  -21.6850   -6.0732   22.5267 C   0  0  0  0  0  0
  -21.4009   -6.5640   23.8200 C   0  0  0  0  0  0
  -21.3657   -5.6797   24.9162 C   0  0  0  0  0  0
  -21.6043   -4.3058   24.7205 C   0  0  0  0  0  0
  -21.8826   -3.8150   23.4327 C   0  0  0  0  0  0
  -21.9195   -4.6965   22.3384 C   0  0  0  0  0  0
  -22.7832  -13.5220   21.1872 C   0  0  0  0  0  0
  -22.1671   -4.2159   21.0955 F   0  0  0  0  0  0
  -21.5629   -3.4540   25.7714 F   0  0  0  0  0  0
  -29.9886  -13.5122   20.3847 N   0  0  0  0  0  0
  -26.2945  -12.9365   20.3290 N   0  0  0  0  0  0
  -25.9316  -11.6510   20.5744 N   0  0  0  0  0  0
  -22.0485  -12.8193   22.0419 N   0  0  0  0  0  0
  -25.4243  -15.1893   20.4131 N   0  0  0  0  0  0
  -31.8052  -14.8489   20.1996 O   0  0  0  0  0  0
  -21.6642   -6.8878   21.4233 O   0  0  0  0  0  0
  -22.3511  -14.5529   20.6728 O   0  0  0  0  0  0
  -24.6311  -31.8545   23.1986 C   0  0  0  0  0  0
  -25.9131  -32.4752   23.8335 C   0  0  1  0  0  0
  -27.2170  -27.2476   20.1209 C   0  0  0  0  0  0
  -25.5935  -33.8552   24.2261 N   0  0  0  0  0  0
  -23.4302  -30.4784   21.5436 C   0  0  2  0  0  0
  -24.8752  -28.9278   20.1118 C   0  0  0  0  0  0
  -22.7521  -29.4576   22.4902 C   0  0  0  0  0  0
  -18.0289  -28.1381   22.8468 C   0  0  0  0  0  0
  -24.1478  -36.7268   23.2649 C   0  0  0  0  0  0
  -25.9788  -30.7632   21.3828 C   0  0  0  0  0  0
  -26.0516  -29.3859   20.7206 C   0  0  0  0  0  0
  -27.2255  -28.5603   20.7092 C   0  0  0  0  0  0
  -26.0100  -26.8652   19.4870 C   0  0  0  0  0  0
  -24.8620  -27.6772   19.4837 C   0  0  0  0  0  0
  -23.6495  -29.8186   20.1590 C   0  0  0  0  0  0
  -25.4105  -36.3060   24.0345 C   0  0  1  0  0  0
  -20.5898  -28.3687   23.1244 C   0  0  2  0  0  0
  -20.6769  -26.9401   22.5390 C   0  0  0  0  0  0
  -19.5754  -26.6370   21.5188 C   0  0  0  0  0  0
  -18.1935  -26.7912   22.1611 C   0  0  0  0  0  0
  -19.1549  -28.8854   23.2846 C   0  0  0  0  0  0
  -18.9485  -30.1448   23.8882 C   0  0  0  0  0  0
  -17.6492  -30.6591   24.0552 C   0  0  0  0  0  0
  -25.9053  -34.9433   23.5097 C   0  0  0  0  0  0
  -16.5373  -29.9091   23.6335 C   0  0  0  0  0  0
  -16.7278  -28.6509   23.0351 C   0  0  0  0  0  0
  -26.4489  -31.6588   25.0733 C   0  0  0  0  0  0
  -25.3705  -31.3763   26.1458 C   0  0  0  0  0  0
  -27.0363  -30.3013   24.6238 C   0  0  0  0  0  0
  -27.6038  -32.4356   25.7503 C   0  0  0  0  0  0
  -27.5561  -37.1781   24.8478 C   0  0  0  0  0  0
  -21.4220  -29.3050   22.3647 N   0  0  0  0  0  0
  -26.4269  -37.3767   23.9427 N   0  0  0  0  0  0
  -24.6993  -31.0493   22.0981 N   0  0  0  0  0  0
  -23.4206  -28.8085   23.2988 O   0  0  0  0  0  0
  -28.3101  -26.3416   20.1578 O   0  0  0  0  0  0
  -26.5630  -34.8912   22.4672 O   0  0  0  0  0  0
  -23.5451  -32.1377   23.7288 O   0  0  0  0  0  0
  -30.6959  -18.9149   22.6478 C   0  0  0  0  0  0
  -30.2137  -20.0004   21.8888 C   0  0  0  0  0  0
  -29.5401  -18.4169   20.1751 C   0  0  0  0  0  0
  -30.5973  -17.5747   22.2046 C   0  0  0  0  0  0
  -30.0200  -17.2710   20.9405 C   0  0  0  0  0  0
  -29.6231  -19.8017   20.6266 C   0  0  0  0  0  0
  -31.0855  -16.4856   23.1484 C   0  0  0  0  0  0
  -29.8655  -23.7220   18.8007 C   0  0  0  0  0  0
  -30.1777  -23.9808   21.2702 C   0  0  0  0  0  0
  -28.0240  -24.8560   20.1672 C   0  0  0  0  0  0
  -28.5909  -22.1652   20.4093 C   0  0  0  0  0  0
  -29.1516  -23.6797   20.1642 C   0  0  0  0  0  0
  -29.7815  -15.8525   20.5648 N   0  0  0  0  0  0
  -29.2371  -20.9324   19.8506 O   0  0  0  0  0  0
  -31.4794  -12.5984   19.1453 H   0  0  0  0  0  0
  -30.4094  -11.4821   19.9465 H   0  0  0  0  0  0
  -29.7882  -11.7069   17.5233 H   0  0  0  0  0  0
  -29.6308  -13.4386   17.6981 H   0  0  0  0  0  0
  -27.8933  -11.2757   18.9175 H   0  0  0  0  0  0
  -27.3743  -12.5107   17.8010 H   0  0  0  0  0  0
  -27.6381  -14.2452   19.4661 H   0  0  0  0  0  0
  -28.7322  -12.1477   21.4016 H   0  0  0  0  0  0
  -28.4307  -13.8232   21.7949 H   0  0  0  0  0  0
  -25.2758   -9.5669   22.4768 H   0  0  0  0  0  0
  -24.0004   -7.4610   22.7468 H   0  0  0  0  0  0
  -21.0857   -8.8754   19.8941 H   0  0  0  0  0  0
  -22.3695  -10.9670   19.6169 H   0  0  0  0  0  0
  -21.2009   -7.6148   23.9703 H   0  0  0  0  0  0
  -21.1479   -6.0523   25.9066 H   0  0  0  0  0  0
  -22.0615   -2.7616   23.2808 H   0  0  0  0  0  0
  -22.4123  -11.9841   22.4757 H   0  0  0  0  0  0
  -21.1110  -13.1205   22.2661 H   0  0  0  0  0  0
  -24.6619  -15.8457   20.5360 H   0  0  0  0  0  0
  -26.2641  -15.6266   20.0570 H   0  0  0  0  0  0
  -26.7186  -32.5401   23.1067 H   0  0  0  0  0  0
  -25.0067  -33.9701   25.0391 H   0  0  0  0  0  0
  -22.7261  -31.2995   21.3988 H   0  0  0  0  0  0
  -23.3746  -35.9589   23.3332 H   0  0  0  0  0  0
  -24.3565  -36.8873   22.2052 H   0  0  0  0  0  0
  -23.7210  -37.6470   23.6668 H   0  0  0  0  0  0
  -26.1198  -31.5249   20.6145 H   0  0  0  0  0  0
  -26.8547  -30.8114   22.0175 H   0  0  0  0  0  0
  -28.1241  -28.9051   21.2021 H   0  0  0  0  0  0
  -25.9051  -25.9189   18.9840 H   0  0  0  0  0  0
  -23.9643  -27.3196   18.9962 H   0  0  0  0  0  0
  -23.7842  -30.6004   19.4104 H   0  0  0  0  0  0
  -22.7665  -29.2592   19.8448 H   0  0  0  0  0  0
  -25.1270  -36.1909   25.0836 H   0  0  0  0  0  0
  -20.9991  -28.3275   24.1363 H   0  0  0  0  0  0
  -20.5644  -26.2319   23.3611 H   0  0  0  0  0  0
  -21.6636  -26.7401   22.1201 H   0  0  0  0  0  0
  -19.6924  -25.6277   21.1237 H   0  0  0  0  0  0
  -19.6684  -27.3160   20.6699 H   0  0  0  0  0  0
  -17.4189  -26.6645   21.4027 H   0  0  0  0  0  0
  -18.0350  -26.0039   22.9006 H   0  0  0  0  0  0
  -19.7979  -30.7255   24.2236 H   0  0  0  0  0  0
  -17.5069  -31.6270   24.5163 H   0  0  0  0  0  0
  -15.5385  -30.3017   23.7667 H   0  0  0  0  0  0
  -15.8666  -28.0846   22.7076 H   0  0  0  0  0  0
  -24.5902  -30.7081   25.7797 H   0  0  0  0  0  0
  -24.8857  -32.2939   26.4812 H   0  0  0  0  0  0
  -25.7997  -30.9003   27.0283 H   0  0  0  0  0  0
  -26.2964  -29.6749   24.1245 H   0  0  0  0  0  0
  -27.4043  -29.7284   25.4760 H   0  0  0  0  0  0
  -27.8834  -30.4323   23.9499 H   0  0  0  0  0  0
  -27.2651  -33.3699   26.2002 H   0  0  0  0  0  0
  -28.3867  -32.6860   25.0330 H   0  0  0  0  0  0
  -28.0687  -31.8544   26.5479 H   0  0  0  0  0  0
  -28.2570  -38.0079   24.7501 H   0  0  0  0  0  0
  -28.1058  -36.2606   24.6325 H   0  0  0  0  0  0
  -27.2294  -37.1440   25.8885 H   0  0  0  0  0  0
  -20.9413  -29.8834   21.6895 H   0  0  0  0  0  0
  -26.0160  -38.2839   24.1459 H   0  0  0  0  0  0
  -31.1469  -19.1265   23.6079 H   0  0  0  0  0  0
  -30.3379  -20.9991   22.2820 H   0  0  0  0  0  0
  -29.0817  -18.2296   19.2140 H   0  0  0  0  0  0
  -31.1818  -16.8565   24.1690 H   0  0  0  0  0  0
  -32.0660  -16.1261   22.8343 H   0  0  0  0  0  0
  -30.3942  -15.6433   23.1869 H   0  0  0  0  0  0
  -30.2735  -24.7115   18.5936 H   0  0  0  0  0  0
  -29.1868  -23.4740   17.9845 H   0  0  0  0  0  0
  -30.6931  -23.0137   18.7618 H   0  0  0  0  0  0
  -30.6353  -24.9608   21.1312 H   0  0  0  0  0  0
  -30.9792  -23.2415   21.2846 H   0  0  0  0  0  0
  -29.7120  -23.9757   22.2560 H   0  0  0  0  0  0
  -27.4283  -24.6246   19.2874 H   0  0  0  0  0  0
  -27.3652  -24.6774   21.0184 H   0  0  0  0  0  0
  -27.5988  -22.1509   19.9567 H   0  0  0  0  0  0
  -28.3854  -22.0257   21.4714 H   0  0  0  0  0  0
  -28.8063  -15.6126   20.4847 H   0  0  0  0  0  0
  1 25  1  0  0  0
  1 30  2  0  0  0
  1 83  1  0  0  0
  2  3  1  0  0  0
  2 25  1  0  0  0
  2 85  1  0  0  0
  2 86  1  0  0  0
  3  4  1  0  0  0
  3 87  1  0  0  0
  3 88  1  0  0  0
  4  5  1  0  0  0
  4 89  1  0  0  0
  4 90  1  0  0  0
  5  6  1  0  0  0
  5 26  1  0  0  0
  5 91  1  0  0  0
  6 25  1  0  0  0
  6 92  1  0  0  0
  6 93  1  0  0  0
  7  8  2  0  0  0
  7 26  1  0  0  0
  7 29  1  0  0  0
  8  9  1  0  0  0
  8 22  1  0  0  0
  9 10  1  0  0  0
  9 27  2  0  0  0
 10 11  2  0  0  0
 10 15  1  0  0  0
 11 12  1  0  0  0
 11 94  1  0  0  0
 12 13  2  0  0  0
 12 95  1  0  0  0
 13 14  1  0  0  0
 13 31  1  0  0  0
 14 15  2  0  0  0
 14 96  1  0  0  0
 15 97  1  0  0  0
 16 17  2  0  0  0
 16 21  1  0  0  0
 16 31  1  0  0  0
 17 18  1  0  0  0
 17 98  1  0  0  0
 18 19  2  0  0  0
 18 99  1  0  0  0
 19 20  1  0  0  0
 19 24  1  0  0  0
 20 21  2  0  0  0
 20100  1  0  0  0
 21 23  1  0  0  0
 22 28  1  0  0  0
 22 32  2  0  0  0
 26 27  1  0  0  0
 28101  1  0  0  0
 28102  1  0  0  0
 29103  1  0  0  0
 29104  1  0  0  0
 33 34  1  0  0  0
 33 66  1  0  0  0
 33 70  2  0  0  0
 34 36  1  0  0  0
 34 59  1  0  0  0
 34105  1  0  0  0
 35 44  2  0  0  0
 35 45  1  0  0  0
 35 68  1  0  0  0
 36 56  1  0  0  0
 36106  1  0  0  0
 37 39  1  0  0  0
 37 47  1  0  0  0
 37 66  1  0  0  0
 37107  1  0  0  0
 38 43  2  0  0  0
 38 46  1  0  0  0
 38 47  1  0  0  0
 39 64  1  0  0  0
 39 67  2  0  0  0
 40 52  1  0  0  0
 40 53  2  0  0  0
 40 58  1  0  0  0
 41108  1  0  0  0
 41109  1  0  0  0
 41110  1  0  0  0
 41 48  1  0  0  0
 42 43  1  0  0  0
 42 66  1  0  0  0
 42111  1  0  0  0
 42112  1  0  0  0
 43 44  1  0  0  0
 44113  1  0  0  0
 45 46  2  0  0  0
 45114  1  0  0  0
 46115  1  0  0  0
 47116  1  0  0  0
 47117  1  0  0  0
 48 56  1  0  0  0
 48 65  1  0  0  0
 48118  1  0  0  0
 49 50  1  0  0  0
 49 53  1  0  0  0
 49 64  1  0  0  0
 49119  1  0  0  0
 50 51  1  0  0  0
 50120  1  0  0  0
 50121  1  0  0  0
 51 52  1  0  0  0
 51122  1  0  0  0
 51123  1  0  0  0
 52124  1  0  0  0
 52125  1  0  0  0
 53 54  1  0  0  0
 54 55  2  0  0  0
 54126  1  0  0  0
 55 57  1  0  0  0
 55127  1  0  0  0
 56 69  2  0  0  0
 57 58  2  0  0  0
 57128  1  0  0  0
 58129  1  0  0  0
 59 60  1  0  0  0
 59 61  1  0  0  0
 59 62  1  0  0  0
 60130  1  0  0  0
 60131  1  0  0  0
 60132  1  0  0  0
 61133  1  0  0  0
 61134  1  0  0  0
 61135  1  0  0  0
 62136  1  0  0  0
 62137  1  0  0  0
 62138  1  0  0  0
 63 65  1  0  0  0
 63139  1  0  0  0
 63140  1  0  0  0
 63141  1  0  0  0
 64142  1  0  0  0
 65143  1  0  0  0
 68 80  1  0  0  0
 71 72  2  0  0  0
 71 74  1  0  0  0
 71144  1  0  0  0
 72 76  1  0  0  0
 72145  1  0  0  0
 73 75  1  0  0  0
 73 76  2  0  0  0
 73146  1  0  0  0
 74 75  2  0  0  0
 74 77  1  0  0  0
 75 83  1  0  0  0
 76 84  1  0  0  0
 77147  1  0  0  0
 77148  1  0  0  0
 77149  1  0  0  0
 78150  1  0  0  0
 78151  1  0  0  0
 78152  1  0  0  0
 78 82  1  0  0  0
 79 82  1  0  0  0
 79153  1  0  0  0
 79154  1  0  0  0
 79155  1  0  0  0
 80 82  1  0  0  0
 80156  1  0  0  0
 80157  1  0  0  0
 81 82  1  0  0  0
 81 84  1  0  0  0
 81158  1  0  0  0
 81159  1  0  0  0
 83160  1  0  0  0
M  ISO  4   1 100  68 101  80 101  83 100
M  END
> <chiral flag>
0

> <version>
0

> <s_m_source_file>
/data/baiqing/PycharmProjects/Reinvent-master-3.2/result/LINK_invent/BTK/process_docking_weight1_custom_product_contain_oxygen_bond_distance_aromatic_linkinvent_7_9_3/rearranged_h_0135.sdf

> <i_m_source_file_index>
18

> <r_mmod_Potential_Energy-OPLS-2005>
231.87126159668

> <r_mmod_Stretch_Energy-OPLS-2005>
131.78825378418

> <r_mmod_Bend_Energy-OPLS-2005>
180.94921875

> <r_mmod_Torsional_Energy-OPLS-2005>
265.907104492188

> <r_mmod_Improper_Torsional_Energy-OPLS-2005>
8.04833793640137

> <r_mmod_Van_der_Waal_Energy-OPLS-2005>
139.30549621582

> <r_mmod_Electrostatic_Energy-OPLS-2005>
-377.330963134766

> <r_mmod_Solvation_Energy-OPLS-2005>
-205.630020141602

> <b_mmod_Minimization_Converged-OPLS-2005>
0

> <r_mmod_RMS_Derivative-OPLS-2005>
2.53156638145447

$$$$
18
                    3D
 Structure written by MMmdl.
163171  0  0  1  0            999 V2000
  -30.5227  -14.7974   20.4338 C   0  0  0  0  0  0
  -30.4370  -12.4881   19.4952 C   0  0  0  0  0  0
  -29.5243  -12.5336   18.2504 C   0  0  0  0  0  0
  -28.0479  -12.3431   18.6492 C   0  0  0  0  0  0
  -27.6417  -13.2301   19.8588 C   0  0  2  0  0  0
  -28.6702  -13.1528   21.0036 C   0  0  0  0  0  0
  -25.2501  -13.8158   20.5695 C   0  0  0  0  0  0
  -24.1809  -13.0406   20.9215 C   0  0  0  0  0  0
  -24.6384  -11.6875   20.8724 C   0  0  0  0  0  0
  -23.9040  -10.4271   21.0414 C   0  0  0  0  0  0
  -24.3600   -9.4192   21.9187 C   0  0  0  0  0  0
  -23.6288   -8.2215   22.0732 C   0  0  0  0  0  0
  -22.4288   -8.0251   21.3510 C   0  0  0  0  0  0
  -21.9890   -9.0213   20.4621 C   0  0  0  0  0  0
  -22.7200  -10.2113   20.3049 C   0  0  0  0  0  0
  -21.6885   -6.0720   22.5281 C   0  0  0  0  0  0
  -21.4003   -6.5610   23.8206 C   0  0  0  0  0  0
  -21.3674   -5.6783   24.9167 C   0  0  0  0  0  0
  -21.6052   -4.3039   24.7238 C   0  0  0  0  0  0
  -21.8831   -3.8129   23.4359 C   0  0  0  0  0  0
  -21.9191   -4.6931   22.3410 C   0  0  0  0  0  0
  -22.7822  -13.5216   21.1884 C   0  0  0  0  0  0
  -22.1684   -4.2121   21.0991 F   0  0  0  0  0  0
  -21.5611   -3.4514   25.7745 F   0  0  0  0  0  0
  -29.9723  -13.5341   20.4400 N   0  0  0  0  0  0
  -26.2924  -12.9367   20.3245 N   0  0  0  0  0  0
  -25.9321  -11.6510   20.5722 N   0  0  0  0  0  0
  -22.0457  -12.8206   22.0424 N   0  0  0  0  0  0
  -25.4156  -15.1891   20.4097 N   0  0  0  0  0  0
  -31.6840  -14.9452   20.0307 O   0  0  0  0  0  0
  -21.6646   -6.8851   21.4237 O   0  0  0  0  0  0
  -22.3512  -14.5570   20.6814 O   0  0  0  0  0  0
  -24.6313  -31.8527   23.2008 C   0  0  0  0  0  0
  -25.9110  -32.4741   23.8369 C   0  0  1  0  0  0
  -27.1965  -27.2477   20.1407 C   0  0  0  0  0  0
  -25.5893  -33.8557   24.2236 N   0  0  0  0  0  0
  -23.4307  -30.4792   21.5393 C   0  0  2  0  0  0
  -24.8762  -28.9229   20.1011 C   0  0  0  0  0  0
  -22.7460  -29.4629   22.4872 C   0  0  0  0  0  0
  -18.0290  -28.1406   22.8464 C   0  0  0  0  0  0
  -24.1499  -36.7311   23.2652 C   0  0  0  0  0  0
  -25.9768  -30.7627   21.3783 C   0  0  0  0  0  0
  -26.0450  -29.3794   20.7273 C   0  0  0  0  0  0
  -27.2141  -28.5519   20.7404 C   0  0  0  0  0  0
  -26.0270  -26.8734   19.4626 C   0  0  0  0  0  0
  -24.8716  -27.6771   19.4520 C   0  0  0  0  0  0
  -23.6492  -29.8164   20.1522 C   0  0  0  0  0  0
  -25.4115  -36.3068   24.0319 C   0  0  1  0  0  0
  -20.5884  -28.3707   23.1247 C   0  0  2  0  0  0
  -20.6777  -26.9410   22.5420 C   0  0  0  0  0  0
  -19.5753  -26.6394   21.5217 C   0  0  0  0  0  0
  -18.1928  -26.7946   22.1615 C   0  0  0  0  0  0
  -19.1547  -28.8855   23.2855 C   0  0  0  0  0  0
  -18.9477  -30.1438   23.8896 C   0  0  0  0  0  0
  -17.6482  -30.6585   24.0556 C   0  0  0  0  0  0
  -25.9058  -34.9430   23.5086 C   0  0  0  0  0  0
  -16.5356  -29.9103   23.6328 C   0  0  0  0  0  0
  -16.7270  -28.6528   23.0325 C   0  0  0  0  0  0
  -26.4502  -31.6568   25.0759 C   0  0  0  0  0  0
  -25.3736  -31.3714   26.1496 C   0  0  0  0  0  0
  -27.0360  -30.2990   24.6252 C   0  0  0  0  0  0
  -27.6073  -32.4299   25.7486 C   0  0  0  0  0  0
  -27.5554  -37.1798   24.8453 C   0  0  0  0  0  0
  -21.4158  -29.3086   22.3600 N   0  0  0  0  0  0
  -26.4276  -37.3757   23.9415 N   0  0  0  0  0  0
  -24.7007  -31.0463   22.0981 N   0  0  0  0  0  0
  -23.4159  -28.8188   23.2995 O   0  0  0  0  0  0
  -28.2794  -26.3478   20.1102 O   0  0  0  0  0  0
  -26.5651  -34.8911   22.4678 O   0  0  0  0  0  0
  -23.5436  -32.1381   23.7242 O   0  0  0  0  0  0
  -29.6224  -17.2273   18.6707 C   0  0  0  0  0  0
  -29.0561  -18.4426   20.6881 C   0  0  0  0  0  0
  -29.1796  -18.3338   17.9115 C   0  0  0  0  0  0
  -28.7108  -19.5341   18.5302 C   0  0  0  0  0  0
  -29.5205  -17.2012   20.0771 C   0  0  0  0  0  0
  -28.7215  -19.6599   19.9495 C   0  0  0  0  0  0
  -29.1179  -18.1278   16.4036 C   0  0  0  0  0  0
  -26.5162  -20.3496   17.4937 C   0  0  0  0  0  0
  -26.4073  -23.2186   20.1141 C   0  0  0  0  0  0
  -28.0257  -20.6092   17.6790 C   0  0  0  0  0  0
  -28.2044  -24.9895   20.7635 C   0  0  0  0  0  0
  -28.7481  -22.2136   20.5356 C   0  0  0  0  0  0
  -27.9125  -23.5436   20.0559 C   0  0  2  0  0  0
  -29.7181  -15.8903   20.7645 N   0  0  0  0  0  0
  -28.1597  -20.8294   20.5624 O   0  0  0  0  0  0
  -31.4760  -12.6420   19.1988 H   0  0  0  0  0  0
  -30.4045  -11.5024   19.9627 H   0  0  0  0  0  0
  -29.8247  -11.7537   17.5498 H   0  0  0  0  0  0
  -29.6538  -13.4822   17.7224 H   0  0  0  0  0  0
  -27.9168  -11.2890   18.8962 H   0  0  0  0  0  0
  -27.3981  -12.5351   17.7954 H   0  0  0  0  0  0
  -27.6385  -14.2643   19.5102 H   0  0  0  0  0  0
  -28.6970  -12.1566   21.4473 H   0  0  0  0  0  0
  -28.3813  -13.8177   21.8168 H   0  0  0  0  0  0
  -25.2745   -9.5677   22.4751 H   0  0  0  0  0  0
  -24.0005   -7.4621   22.7462 H   0  0  0  0  0  0
  -21.0812   -8.8731   19.8953 H   0  0  0  0  0  0
  -22.3644  -10.9642   19.6174 H   0  0  0  0  0  0
  -21.1986   -7.6132   23.9703 H   0  0  0  0  0  0
  -21.1501   -6.0507   25.9084 H   0  0  0  0  0  0
  -22.0605   -2.7586   23.2873 H   0  0  0  0  0  0
  -22.4103  -11.9912   22.4885 H   0  0  0  0  0  0
  -21.1041  -13.1209   22.2609 H   0  0  0  0  0  0
  -24.6355  -15.8312   20.4898 H   0  0  0  0  0  0
  -26.2596  -15.6328   20.0715 H   0  0  0  0  0  0
  -26.7162  -32.5359   23.1084 H   0  0  0  0  0  0
  -25.0018  -33.9760   25.0377 H   0  0  0  0  0  0
  -22.7318  -31.3032   21.3887 H   0  0  0  0  0  0
  -23.3728  -35.9660   23.3294 H   0  0  0  0  0  0
  -24.3619  -36.8972   22.2077 H   0  0  0  0  0  0
  -23.7292  -37.6530   23.6701 H   0  0  0  0  0  0
  -26.1058  -31.5115   20.5968 H   0  0  0  0  0  0
  -26.8601  -30.8191   22.0044 H   0  0  0  0  0  0
  -28.1132  -28.8935   21.2361 H   0  0  0  0  0  0
  -26.0163  -25.9447   18.9192 H   0  0  0  0  0  0
  -23.9912  -27.3280   18.9260 H   0  0  0  0  0  0
  -23.7741  -30.5989   19.4037 H   0  0  0  0  0  0
  -22.7680  -29.2556   19.8391 H   0  0  0  0  0  0
  -25.1282  -36.1891   25.0793 H   0  0  0  0  0  0
  -20.9971  -28.3301   24.1356 H   0  0  0  0  0  0
  -20.5652  -26.2328   23.3659 H   0  0  0  0  0  0
  -21.6650  -26.7446   22.1179 H   0  0  0  0  0  0
  -19.6913  -25.6316   21.1237 H   0  0  0  0  0  0
  -19.6673  -27.3219   20.6749 H   0  0  0  0  0  0
  -17.4193  -26.6689   21.4012 H   0  0  0  0  0  0
  -18.0245  -26.0138   22.9053 H   0  0  0  0  0  0
  -19.7971  -30.7229   24.2273 H   0  0  0  0  0  0
  -17.5070  -31.6258   24.5156 H   0  0  0  0  0  0
  -15.5356  -30.2994   23.7686 H   0  0  0  0  0  0
  -15.8691  -28.0855   22.7011 H   0  0  0  0  0  0
  -24.5905  -30.7057   25.7848 H   0  0  0  0  0  0
  -24.8970  -32.2901   26.4903 H   0  0  0  0  0  0
  -25.8080  -30.8920   27.0281 H   0  0  0  0  0  0
  -26.2962  -29.6706   24.1306 H   0  0  0  0  0  0
  -27.4098  -29.7253   25.4739 H   0  0  0  0  0  0
  -27.8781  -30.4289   23.9463 H   0  0  0  0  0  0
  -27.2709  -33.3592   26.2070 H   0  0  0  0  0  0
  -28.3854  -32.6858   25.0287 H   0  0  0  0  0  0
  -28.0792  -31.8451   26.5402 H   0  0  0  0  0  0
  -28.2546  -38.0112   24.7480 H   0  0  0  0  0  0
  -28.1064  -36.2652   24.6234 H   0  0  0  0  0  0
  -27.2314  -37.1384   25.8868 H   0  0  0  0  0  0
  -20.9281  -29.8927   21.6937 H   0  0  0  0  0  0
  -26.0123  -38.2806   24.1449 H   0  0  0  0  0  0
  -29.9347  -16.3284   18.1482 H   0  0  0  0  0  0
  -28.9096  -18.4476   21.7585 H   0  0  0  0  0  0
  -30.0450  -18.4292   15.9223 H   0  0  0  0  0  0
  -28.9436  -17.0704   16.1944 H   0  0  0  0  0  0
  -28.2947  -18.6602   15.9326 H   0  0  0  0  0  0
  -26.0460  -21.1768   16.9572 H   0  0  0  0  0  0
  -26.0079  -20.2423   18.4546 H   0  0  0  0  0  0
  -26.3189  -19.4509   16.9109 H   0  0  0  0  0  0
  -25.7951  -23.9931   19.6551 H   0  0  0  0  0  0
  -26.0712  -23.0839   21.1397 H   0  0  0  0  0  0
  -26.1888  -22.2952   19.5849 H   0  0  0  0  0  0
  -28.5112  -20.7088   16.7084 H   0  0  0  0  0  0
  -28.1449  -21.5908   18.1276 H   0  0  0  0  0  0
  -27.5541  -25.0826   21.6324 H   0  0  0  0  0  0
  -29.1960  -24.8862   21.1990 H   0  0  0  0  0  0
  -29.0201  -22.3957   21.5771 H   0  0  0  0  0  0
  -29.6945  -22.1809   20.0003 H   0  0  0  0  0  0
  -28.1500  -23.6821   19.0006 H   0  0  0  0  0  0
  -28.9446  -15.6495   21.3699 H   0  0  0  0  0  0
  1 25  1  0  0  0
  1 30  2  0  0  0
  1 84  1  0  0  0
  2  3  1  0  0  0
  2 25  1  0  0  0
  2 86  1  0  0  0
  2 87  1  0  0  0
  3  4  1  0  0  0
  3 88  1  0  0  0
  3 89  1  0  0  0
  4  5  1  0  0  0
  4 90  1  0  0  0
  4 91  1  0  0  0
  5  6  1  0  0  0
  5 26  1  0  0  0
  5 92  1  0  0  0
  6 25  1  0  0  0
  6 93  1  0  0  0
  6 94  1  0  0  0
  7  8  2  0  0  0
  7 26  1  0  0  0
  7 29  1  0  0  0
  8  9  1  0  0  0
  8 22  1  0  0  0
  9 10  1  0  0  0
  9 27  2  0  0  0
 10 11  2  0  0  0
 10 15  1  0  0  0
 11 12  1  0  0  0
 11 95  1  0  0  0
 12 13  2  0  0  0
 12 96  1  0  0  0
 13 14  1  0  0  0
 13 31  1  0  0  0
 14 15  2  0  0  0
 14 97  1  0  0  0
 15 98  1  0  0  0
 16 17  2  0  0  0
 16 21  1  0  0  0
 16 31  1  0  0  0
 17 18  1  0  0  0
 17 99  1  0  0  0
 18 19  2  0  0  0
 18100  1  0  0  0
 19 20  1  0  0  0
 19 24  1  0  0  0
 20 21  2  0  0  0
 20101  1  0  0  0
 21 23  1  0  0  0
 22 28  1  0  0  0
 22 32  2  0  0  0
 26 27  1  0  0  0
 28102  1  0  0  0
 28103  1  0  0  0
 29104  1  0  0  0
 29105  1  0  0  0
 33 34  1  0  0  0
 33 66  1  0  0  0
 33 70  2  0  0  0
 34 36  1  0  0  0
 34 59  1  0  0  0
 34106  1  0  0  0
 35 44  2  0  0  0
 35 45  1  0  0  0
 35 68  1  0  0  0
 36 56  1  0  0  0
 36107  1  0  0  0
 37 39  1  0  0  0
 37 47  1  0  0  0
 37 66  1  0  0  0
 37108  1  0  0  0
 38 43  2  0  0  0
 38 46  1  0  0  0
 38 47  1  0  0  0
 39 64  1  0  0  0
 39 67  2  0  0  0
 40 52  1  0  0  0
 40 53  2  0  0  0
 40 58  1  0  0  0
 41109  1  0  0  0
 41110  1  0  0  0
 41111  1  0  0  0
 41 48  1  0  0  0
 42 43  1  0  0  0
 42 66  1  0  0  0
 42112  1  0  0  0
 42113  1  0  0  0
 43 44  1  0  0  0
 44114  1  0  0  0
 45 46  2  0  0  0
 45115  1  0  0  0
 46116  1  0  0  0
 47117  1  0  0  0
 47118  1  0  0  0
 48 56  1  0  0  0
 48 65  1  0  0  0
 48119  1  0  0  0
 49 50  1  0  0  0
 49 53  1  0  0  0
 49 64  1  0  0  0
 49120  1  0  0  0
 50 51  1  0  0  0
 50121  1  0  0  0
 50122  1  0  0  0
 51 52  1  0  0  0
 51123  1  0  0  0
 51124  1  0  0  0
 52125  1  0  0  0
 52126  1  0  0  0
 53 54  1  0  0  0
 54 55  2  0  0  0
 54127  1  0  0  0
 55 57  1  0  0  0
 55128  1  0  0  0
 56 69  2  0  0  0
 57 58  2  0  0  0
 57129  1  0  0  0
 58130  1  0  0  0
 59 60  1  0  0  0
 59 61  1  0  0  0
 59 62  1  0  0  0
 60131  1  0  0  0
 60132  1  0  0  0
 60133  1  0  0  0
 61134  1  0  0  0
 61135  1  0  0  0
 61136  1  0  0  0
 62137  1  0  0  0
 62138  1  0  0  0
 62139  1  0  0  0
 63 65  1  0  0  0
 63140  1  0  0  0
 63141  1  0  0  0
 63142  1  0  0  0
 64143  1  0  0  0
 65144  1  0  0  0
 68 81  1  0  0  0
 71 73  2  0  0  0
 71 75  1  0  0  0
 71145  1  0  0  0
 72 75  2  0  0  0
 72 76  1  0  0  0
 72146  1  0  0  0
 73 74  1  0  0  0
 73 77  1  0  0  0
 74 76  2  0  0  0
 74 80  1  0  0  0
 75 84  1  0  0  0
 76 85  1  0  0  0
 77147  1  0  0  0
 77148  1  0  0  0
 77149  1  0  0  0
 78 80  1  0  0  0
 78150  1  0  0  0
 78151  1  0  0  0
 78152  1  0  0  0
 79153  1  0  0  0
 79154  1  0  0  0
 79155  1  0  0  0
 79 83  1  0  0  0
 80156  1  0  0  0
 80157  1  0  0  0
 81 83  1  0  0  0
 81158  1  0  0  0
 81159  1  0  0  0
 82 83  1  0  0  0
 82 85  1  0  0  0
 82160  1  0  0  0
 82161  1  0  0  0
 83162  1  0  0  0
 84163  1  0  0  0
M  ISO  4   1 100  68 101  81 101  84 100
M  END
> <chiral flag>
0

> <version>
0

> <s_m_source_file>
/data/baiqing/PycharmProjects/Reinvent-master-3.2/result/LINK_invent/BTK/process_docking_weight1_custom_product_contain_oxygen_bond_distance_aromatic_linkinvent_7_9_3/rearranged_h_0135.sdf

> <i_m_source_file_index>
19

> <r_mmod_Potential_Energy-OPLS-2005>
332.673706054688

> <r_mmod_Stretch_Energy-OPLS-2005>
143.314376831055

> <r_mmod_Bend_Energy-OPLS-2005>
202.048202514648

> <r_mmod_Torsional_Energy-OPLS-2005>
313.801544189453

> <r_mmod_Improper_Torsional_Energy-OPLS-2005>
8.45502758026123

> <r_mmod_Van_der_Waal_Energy-OPLS-2005>
131.180953979492

> <r_mmod_Electrostatic_Energy-OPLS-2005>
-366.216003417969

> <r_mmod_Solvation_Energy-OPLS-2005>
-204.383865356445

> <b_mmod_Minimization_Converged-OPLS-2005>
0

> <r_mmod_RMS_Derivative-OPLS-2005>
7.0394115447998

$$$$
19
                    3D
 Structure written by MMmdl.
159167  0  0  1  0            999 V2000
  -30.7549  -14.4056   20.6358 C   0  0  0  0  0  0
  -30.4106  -12.2943   19.4052 C   0  0  0  0  0  0
  -29.4831  -12.5114   18.1952 C   0  0  0  0  0  0
  -28.0065  -12.3746   18.6123 C   0  0  0  0  0  0
  -27.6615  -13.2068   19.8765 C   0  0  2  0  0  0
  -28.7026  -12.9752   20.9940 C   0  0  0  0  0  0
  -25.2584  -13.8164   20.5675 C   0  0  0  0  0  0
  -24.1836  -13.0443   20.9166 C   0  0  0  0  0  0
  -24.6388  -11.6909   20.8735 C   0  0  0  0  0  0
  -23.9053  -10.4295   21.0401 C   0  0  0  0  0  0
  -24.3607   -9.4210   21.9179 C   0  0  0  0  0  0
  -23.6287   -8.2244   22.0752 C   0  0  0  0  0  0
  -22.4271   -8.0279   21.3542 C   0  0  0  0  0  0
  -21.9903   -9.0252   20.4643 C   0  0  0  0  0  0
  -22.7227  -10.2133   20.3051 C   0  0  0  0  0  0
  -21.6852   -6.0731   22.5277 C   0  0  0  0  0  0
  -21.4013   -6.5636   23.8211 C   0  0  0  0  0  0
  -21.3658   -5.6791   24.9173 C   0  0  0  0  0  0
  -21.6045   -4.3055   24.7225 C   0  0  0  0  0  0
  -21.8821   -3.8144   23.4347 C   0  0  0  0  0  0
  -21.9195   -4.6959   22.3401 C   0  0  0  0  0  0
  -22.7859  -13.5237   21.1836 C   0  0  0  0  0  0
  -22.1663   -4.2143   21.0980 F   0  0  0  0  0  0
  -21.5631   -3.4538   25.7739 F   0  0  0  0  0  0
  -30.0353  -13.2689   20.4407 N   0  0  0  0  0  0
  -26.3022  -12.9336   20.3373 N   0  0  0  0  0  0
  -25.9314  -11.6493   20.5765 N   0  0  0  0  0  0
  -22.0506  -12.8232   22.0394 N   0  0  0  0  0  0
  -25.4326  -15.1879   20.4072 N   0  0  0  0  0  0
  -31.8332  -14.6153   20.0713 O   0  0  0  0  0  0
  -21.6640   -6.8871   21.4237 O   0  0  0  0  0  0
  -22.3546  -14.5549   20.6689 O   0  0  0  0  0  0
  -24.6142  -31.8704   23.2129 C   0  0  0  0  0  0
  -25.9033  -32.4846   23.8417 C   0  0  1  0  0  0
  -27.2299  -27.4390   20.0892 C   0  0  0  0  0  0
  -25.5875  -33.8641   24.2343 N   0  0  0  0  0  0
  -23.4008  -30.4952   21.5540 C   0  0  2  0  0  0
  -24.8453  -28.9676   20.1118 C   0  0  0  0  0  0
  -22.7420  -29.4663   22.5010 C   0  0  0  0  0  0
  -18.0270  -28.1365   22.8503 C   0  0  0  0  0  0
  -24.1479  -36.7324   23.2637 C   0  0  0  0  0  0
  -25.9298  -30.8369   21.3659 C   0  0  0  0  0  0
  -26.0063  -29.4735   20.7092 C   0  0  0  0  0  0
  -27.2003  -28.7162   20.6960 C   0  0  0  0  0  0
  -26.0492  -26.9571   19.4743 C   0  0  0  0  0  0
  -24.8621  -27.7087   19.4911 C   0  0  0  0  0  0
  -23.6070  -29.8324   20.1667 C   0  0  0  0  0  0
  -25.4101  -36.3132   24.0338 C   0  0  1  0  0  0
  -20.5865  -28.3658   23.1324 C   0  0  2  0  0  0
  -20.6768  -26.9403   22.5424 C   0  0  0  0  0  0
  -19.5739  -26.6379   21.5228 C   0  0  0  0  0  0
  -18.1918  -26.7920   22.1636 C   0  0  0  0  0  0
  -19.1518  -28.8832   23.2907 C   0  0  0  0  0  0
  -18.9457  -30.1438   23.8919 C   0  0  0  0  0  0
  -17.6461  -30.6582   24.0563 C   0  0  0  0  0  0
  -25.9022  -34.9493   23.5141 C   0  0  0  0  0  0
  -16.5346  -29.9086   23.6324 C   0  0  0  0  0  0
  -16.7261  -28.6495   23.0358 C   0  0  0  0  0  0
  -26.4456  -31.6615   25.0740 C   0  0  0  0  0  0
  -25.3713  -31.3710   26.1482 C   0  0  0  0  0  0
  -27.0282  -30.3059   24.6097 C   0  0  0  0  0  0
  -27.6039  -32.4333   25.7492 C   0  0  0  0  0  0
  -27.5585  -37.1815   24.8464 C   0  0  0  0  0  0
  -21.4151  -29.3024   22.3747 N   0  0  0  0  0  0
  -26.4297  -37.3808   23.9406 N   0  0  0  0  0  0
  -24.6665  -31.0818   22.1022 N   0  0  0  0  0  0
  -23.4205  -28.8207   23.3040 O   0  0  0  0  0  0
  -28.4001  -26.7023   20.1240 O   0  0  0  0  0  0
  -26.5607  -34.8937   22.4719 O   0  0  0  0  0  0
  -23.5340  -32.1452   23.7530 O   0  0  0  0  0  0
  -32.1262  -16.2896   22.6022 C   0  0  0  0  0  0
  -32.1547  -18.6382   23.2378 C   0  0  0  0  0  0
  -30.2422  -17.7349   22.0185 C   0  0  0  0  0  0
  -32.7761  -17.3762   23.2151 C   0  0  0  0  0  0
  -30.8583  -16.4576   21.9973 C   0  0  0  0  0  0
  -30.8998  -18.8339   22.6307 C   0  0  0  0  0  0
  -30.0639  -22.1234   21.4288 C   0  0  0  0  0  0
  -34.1362  -17.1829   23.8544 C   0  0  0  0  0  0
  -29.2050  -22.9704   20.4812 C   0  0  0  0  0  0
  -29.7148  -20.6292   21.5642 C   0  0  0  0  0  0
  -29.4317  -24.5015   20.5843 C   0  0  0  0  0  0
  -28.2794  -25.2855   19.9374 C   0  0  0  0  0  0
  -30.1892  -15.3382   21.4232 N   0  0  0  0  0  0
  -31.0049  -22.6258   22.0554 O   0  0  0  0  0  0
  -30.3746  -20.1019   22.7138 O   0  0  0  0  0  0
  -31.4552  -12.3799   19.1013 H   0  0  0  0  0  0
  -30.3000  -11.2802   19.7934 H   0  0  0  0  0  0
  -29.7162  -11.7934   17.4075 H   0  0  0  0  0  0
  -29.6563  -13.5008   17.7689 H   0  0  0  0  0  0
  -27.8113  -11.3179   18.7996 H   0  0  0  0  0  0
  -27.3545  -12.6606   17.7856 H   0  0  0  0  0  0
  -27.7113  -14.2567   19.5880 H   0  0  0  0  0  0
  -28.6718  -11.9373   21.3299 H   0  0  0  0  0  0
  -28.4607  -13.5696   21.8754 H   0  0  0  0  0  0
  -25.2756   -9.5692   22.4749 H   0  0  0  0  0  0
  -24.0000   -7.4639   22.7476 H   0  0  0  0  0  0
  -21.0832   -8.8767   19.8948 H   0  0  0  0  0  0
  -22.3683  -10.9669   19.6159 H   0  0  0  0  0  0
  -21.2004   -7.6146   23.9709 H   0  0  0  0  0  0
  -21.1479   -6.0523   25.9074 H   0  0  0  0  0  0
  -22.0602   -2.7606   23.2851 H   0  0  0  0  0  0
  -22.4127  -11.9889   22.4777 H   0  0  0  0  0  0
  -21.1125  -13.1258   22.2609 H   0  0  0  0  0  0
  -24.6675  -15.8464   20.5055 H   0  0  0  0  0  0
  -26.2896  -15.6227   20.0891 H   0  0  0  0  0  0
  -26.7114  -32.5558   23.1189 H   0  0  0  0  0  0
  -24.9994  -33.9788   25.0470 H   0  0  0  0  0  0
  -22.6880  -31.3118   21.4208 H   0  0  0  0  0  0
  -23.3743  -35.9656   23.3317 H   0  0  0  0  0  0
  -24.3579  -36.8921   22.2049 H   0  0  0  0  0  0
  -23.7225  -37.6527   23.6651 H   0  0  0  0  0  0
  -26.0425  -31.6066   20.6008 H   0  0  0  0  0  0
  -26.8180  -30.8889   21.9834 H   0  0  0  0  0  0
  -28.0953  -29.0993   21.1670 H   0  0  0  0  0  0
  -26.0224  -26.0016   18.9713 H   0  0  0  0  0  0
  -23.9708  -27.3165   19.0203 H   0  0  0  0  0  0
  -23.7111  -30.6097   19.4090 H   0  0  0  0  0  0
  -22.7325  -29.2488   19.8750 H   0  0  0  0  0  0
  -25.1281  -36.2006   25.0832 H   0  0  0  0  0  0
  -20.9945  -28.3235   24.1447 H   0  0  0  0  0  0
  -20.5700  -26.2272   23.3612 H   0  0  0  0  0  0
  -21.6634  -26.7465   22.1204 H   0  0  0  0  0  0
  -19.6900  -25.6304   21.1235 H   0  0  0  0  0  0
  -19.6665  -27.3211   20.6783 H   0  0  0  0  0  0
  -17.4195  -26.6677   21.4028 H   0  0  0  0  0  0
  -18.0293  -26.0049   22.9015 H   0  0  0  0  0  0
  -19.7928  -30.7233   24.2303 H   0  0  0  0  0  0
  -17.5018  -31.6268   24.5163 H   0  0  0  0  0  0
  -15.5350  -30.2997   23.7636 H   0  0  0  0  0  0
  -15.8654  -28.0821   22.7071 H   0  0  0  0  0  0
  -24.5893  -30.7057   25.7808 H   0  0  0  0  0  0
  -24.8895  -32.2857   26.4940 H   0  0  0  0  0  0
  -25.8053  -30.8872   27.0236 H   0  0  0  0  0  0
  -26.2827  -29.6823   24.1149 H   0  0  0  0  0  0
  -27.4049  -29.7290   25.4550 H   0  0  0  0  0  0
  -27.8665  -30.4383   23.9250 H   0  0  0  0  0  0
  -27.2667  -33.3630   26.2092 H   0  0  0  0  0  0
  -28.3826  -32.6891   25.0293 H   0  0  0  0  0  0
  -28.0727  -31.8435   26.5378 H   0  0  0  0  0  0
  -28.2612  -38.0108   24.7531 H   0  0  0  0  0  0
  -28.1068  -36.2638   24.6275 H   0  0  0  0  0  0
  -27.2303  -37.1449   25.8867 H   0  0  0  0  0  0
  -20.9324  -29.8738   21.6952 H   0  0  0  0  0  0
  -26.0192  -38.2886   24.1411 H   0  0  0  0  0  0
  -32.6045  -15.3196   22.6086 H   0  0  0  0  0  0
  -32.6477  -19.4745   23.7157 H   0  0  0  0  0  0
  -29.2645  -17.8656   21.5758 H   0  0  0  0  0  0
  -34.7290  -16.4605   23.2922 H   0  0  0  0  0  0
  -34.0268  -16.8166   24.8756 H   0  0  0  0  0  0
  -34.6933  -18.1199   23.8833 H   0  0  0  0  0  0
  -28.1650  -22.7433   20.7125 H   0  0  0  0  0  0
  -29.3766  -22.6301   19.4600 H   0  0  0  0  0  0
  -30.0245  -20.1096   20.6562 H   0  0  0  0  0  0
  -28.6366  -20.5104   21.6725 H   0  0  0  0  0  0
  -30.3785  -24.7734   20.1168 H   0  0  0  0  0  0
  -29.5078  -24.7966   21.6317 H   0  0  0  0  0  0
  -27.3588  -24.9186   20.3949 H   0  0  0  0  0  0
  -28.2274  -25.0638   18.8708 H   0  0  0  0  0  0
  -29.2251  -15.1907   21.6817 H   0  0  0  0  0  0
  1 25  1  0  0  0
  1 30  2  0  0  0
  1 83  1  0  0  0
  2  3  1  0  0  0
  2 25  1  0  0  0
  2 86  1  0  0  0
  2 87  1  0  0  0
  3  4  1  0  0  0
  3 88  1  0  0  0
  3 89  1  0  0  0
  4  5  1  0  0  0
  4 90  1  0  0  0
  4 91  1  0  0  0
  5  6  1  0  0  0
  5 26  1  0  0  0
  5 92  1  0  0  0
  6 25  1  0  0  0
  6 93  1  0  0  0
  6 94  1  0  0  0
  7  8  2  0  0  0
  7 26  1  0  0  0
  7 29  1  0  0  0
  8  9  1  0  0  0
  8 22  1  0  0  0
  9 10  1  0  0  0
  9 27  2  0  0  0
 10 11  2  0  0  0
 10 15  1  0  0  0
 11 12  1  0  0  0
 11 95  1  0  0  0
 12 13  2  0  0  0
 12 96  1  0  0  0
 13 14  1  0  0  0
 13 31  1  0  0  0
 14 15  2  0  0  0
 14 97  1  0  0  0
 15 98  1  0  0  0
 16 17  2  0  0  0
 16 21  1  0  0  0
 16 31  1  0  0  0
 17 18  1  0  0  0
 17 99  1  0  0  0
 18 19  2  0  0  0
 18100  1  0  0  0
 19 20  1  0  0  0
 19 24  1  0  0  0
 20 21  2  0  0  0
 20101  1  0  0  0
 21 23  1  0  0  0
 22 28  1  0  0  0
 22 32  2  0  0  0
 26 27  1  0  0  0
 28102  1  0  0  0
 28103  1  0  0  0
 29104  1  0  0  0
 29105  1  0  0  0
 33 34  1  0  0  0
 33 66  1  0  0  0
 33 70  2  0  0  0
 34 36  1  0  0  0
 34 59  1  0  0  0
 34106  1  0  0  0
 35 44  2  0  0  0
 35 45  1  0  0  0
 35 68  1  0  0  0
 36 56  1  0  0  0
 36107  1  0  0  0
 37 39  1  0  0  0
 37 47  1  0  0  0
 37 66  1  0  0  0
 37108  1  0  0  0
 38 43  2  0  0  0
 38 46  1  0  0  0
 38 47  1  0  0  0
 39 64  1  0  0  0
 39 67  2  0  0  0
 40 52  1  0  0  0
 40 53  2  0  0  0
 40 58  1  0  0  0
 41109  1  0  0  0
 41110  1  0  0  0
 41111  1  0  0  0
 41 48  1  0  0  0
 42 43  1  0  0  0
 42 66  1  0  0  0
 42112  1  0  0  0
 42113  1  0  0  0
 43 44  1  0  0  0
 44114  1  0  0  0
 45 46  2  0  0  0
 45115  1  0  0  0
 46116  1  0  0  0
 47117  1  0  0  0
 47118  1  0  0  0
 48 56  1  0  0  0
 48 65  1  0  0  0
 48119  1  0  0  0
 49 50  1  0  0  0
 49 53  1  0  0  0
 49 64  1  0  0  0
 49120  1  0  0  0
 50 51  1  0  0  0
 50121  1  0  0  0
 50122  1  0  0  0
 51 52  1  0  0  0
 51123  1  0  0  0
 51124  1  0  0  0
 52125  1  0  0  0
 52126  1  0  0  0
 53 54  1  0  0  0
 54 55  2  0  0  0
 54127  1  0  0  0
 55 57  1  0  0  0
 55128  1  0  0  0
 56 69  2  0  0  0
 57 58  2  0  0  0
 57129  1  0  0  0
 58130  1  0  0  0
 59 60  1  0  0  0
 59 61  1  0  0  0
 59 62  1  0  0  0
 60131  1  0  0  0
 60132  1  0  0  0
 60133  1  0  0  0
 61134  1  0  0  0
 61135  1  0  0  0
 61136  1  0  0  0
 62137  1  0  0  0
 62138  1  0  0  0
 62139  1  0  0  0
 63 65  1  0  0  0
 63140  1  0  0  0
 63141  1  0  0  0
 63142  1  0  0  0
 64143  1  0  0  0
 65144  1  0  0  0
 68 82  1  0  0  0
 71 74  2  0  0  0
 71 75  1  0  0  0
 71145  1  0  0  0
 72 74  1  0  0  0
 72 76  2  0  0  0
 72146  1  0  0  0
 73 75  2  0  0  0
 73 76  1  0  0  0
 73147  1  0  0  0
 74 78  1  0  0  0
 75 83  1  0  0  0
 76 85  1  0  0  0
 77 79  1  0  0  0
 77 80  1  0  0  0
 77 84  2  0  0  0
 78148  1  0  0  0
 78149  1  0  0  0
 78150  1  0  0  0
 79 81  1  0  0  0
 79151  1  0  0  0
 79152  1  0  0  0
 80 85  1  0  0  0
 80153  1  0  0  0
 80154  1  0  0  0
 81 82  1  0  0  0
 81155  1  0  0  0
 81156  1  0  0  0
 82157  1  0  0  0
 82158  1  0  0  0
 83159  1  0  0  0
M  ISO  4   1 100  68 101  82 101  83 100
M  END
> <chiral flag>
0

> <version>
0

> <s_m_source_file>
/data/baiqing/PycharmProjects/Reinvent-master-3.2/result/LINK_invent/BTK/process_docking_weight1_custom_product_contain_oxygen_bond_distance_aromatic_linkinvent_7_9_3/rearranged_h_0135.sdf

> <i_m_source_file_index>
20

> <r_mmod_Potential_Energy-OPLS-2005>
-39.2492752075195

> <r_mmod_Stretch_Energy-OPLS-2005>
35.2788314819336

> <r_mmod_Bend_Energy-OPLS-2005>
95.182487487793

> <r_mmod_Torsional_Energy-OPLS-2005>
231.504409790039

> <r_mmod_Improper_Torsional_Energy-OPLS-2005>
2.1671302318573

> <r_mmod_Van_der_Waal_Energy-OPLS-2005>
162.70182800293

> <r_mmod_Electrostatic_Energy-OPLS-2005>
-339.63623046875

> <r_mmod_Solvation_Energy-OPLS-2005>
-236.623992919922

> <b_mmod_Minimization_Converged-OPLS-2005>
0

> <r_mmod_RMS_Derivative-OPLS-2005>
1.44590532779694

$$$$
20
                    3D
 Structure written by MMmdl.
164172  0  0  1  0            999 V2000
  -30.7080  -14.4118   20.5749 C   0  0  0  0  0  0
  -30.4219  -12.2683   19.4066 C   0  0  0  0  0  0
  -29.4915  -12.4954   18.1974 C   0  0  0  0  0  0
  -28.0115  -12.3629   18.6122 C   0  0  0  0  0  0
  -27.6636  -13.1941   19.8755 C   0  0  2  0  0  0
  -28.7067  -12.9559   20.9904 C   0  0  0  0  0  0
  -25.2620  -13.8129   20.5683 C   0  0  0  0  0  0
  -24.1841  -13.0424   20.9156 C   0  0  0  0  0  0
  -24.6375  -11.6885   20.8711 C   0  0  0  0  0  0
  -23.9037  -10.4277   21.0387 C   0  0  0  0  0  0
  -24.3588   -9.4201   21.9177 C   0  0  0  0  0  0
  -23.6269   -8.2237   22.0746 C   0  0  0  0  0  0
  -22.4253   -8.0271   21.3538 C   0  0  0  0  0  0
  -21.9883   -9.0246   20.4644 C   0  0  0  0  0  0
  -22.7211  -10.2123   20.3048 C   0  0  0  0  0  0
  -21.6843   -6.0728   22.5273 C   0  0  0  0  0  0
  -21.4016   -6.5630   23.8209 C   0  0  0  0  0  0
  -21.3654   -5.6783   24.9171 C   0  0  0  0  0  0
  -21.6039   -4.3048   24.7222 C   0  0  0  0  0  0
  -21.8824   -3.8140   23.4346 C   0  0  0  0  0  0
  -21.9190   -4.6955   22.3400 C   0  0  0  0  0  0
  -22.7878  -13.5248   21.1844 C   0  0  0  0  0  0
  -22.1668   -4.2143   21.0979 F   0  0  0  0  0  0
  -21.5623   -3.4535   25.7736 F   0  0  0  0  0  0
  -30.0385  -13.2423   20.4317 N   0  0  0  0  0  0
  -26.3031  -12.9270   20.3373 N   0  0  0  0  0  0
  -25.9296  -11.6441   20.5762 N   0  0  0  0  0  0
  -22.0510  -12.8245   22.0402 N   0  0  0  0  0  0
  -25.4399  -15.1840   20.4133 N   0  0  0  0  0  0
  -31.8524  -14.6059   20.1579 O   0  0  0  0  0  0
  -21.6627   -6.8863   21.4232 O   0  0  0  0  0  0
  -22.3563  -14.5561   20.6708 O   0  0  0  0  0  0
  -24.6092  -31.8710   23.2133 C   0  0  0  0  0  0
  -25.9004  -32.4843   23.8408 C   0  0  1  0  0  0
  -27.2352  -27.4832   20.0832 C   0  0  0  0  0  0
  -25.5881  -33.8638   24.2349 N   0  0  0  0  0  0
  -23.3948  -30.4935   21.5533 C   0  0  2  0  0  0
  -24.8413  -28.9619   20.1187 C   0  0  0  0  0  0
  -22.7382  -29.4666   22.5026 C   0  0  0  0  0  0
  -18.0270  -28.1374   22.8504 C   0  0  0  0  0  0
  -24.1478  -36.7319   23.2637 C   0  0  0  0  0  0
  -25.9173  -30.8513   21.3574 C   0  0  0  0  0  0
  -25.9976  -29.4855   20.7120 C   0  0  0  0  0  0
  -27.1998  -28.7508   20.6960 C   0  0  0  0  0  0
  -26.0691  -26.9590   19.4902 C   0  0  0  0  0  0
  -24.8683  -27.6937   19.5101 C   0  0  0  0  0  0
  -23.6000  -29.8225   20.1683 C   0  0  0  0  0  0
  -25.4096  -36.3122   24.0343 C   0  0  1  0  0  0
  -20.5855  -28.3640   23.1345 C   0  0  2  0  0  0
  -20.6751  -26.9383   22.5428 C   0  0  0  0  0  0
  -19.5729  -26.6388   21.5216 C   0  0  0  0  0  0
  -18.1911  -26.7925   22.1633 C   0  0  0  0  0  0
  -19.1519  -28.8828   23.2919 C   0  0  0  0  0  0
  -18.9448  -30.1444   23.8916 C   0  0  0  0  0  0
  -17.6449  -30.6581   24.0569 C   0  0  0  0  0  0
  -25.9020  -34.9487   23.5137 C   0  0  0  0  0  0
  -16.5340  -29.9084   23.6331 C   0  0  0  0  0  0
  -16.7261  -28.6502   23.0351 C   0  0  0  0  0  0
  -26.4455  -31.6609   25.0716 C   0  0  0  0  0  0
  -25.3750  -31.3690   26.1487 C   0  0  0  0  0  0
  -27.0267  -30.3064   24.6035 C   0  0  0  0  0  0
  -27.6043  -32.4314   25.7477 C   0  0  0  0  0  0
  -27.5575  -37.1812   24.8466 C   0  0  0  0  0  0
  -21.4119  -29.3014   22.3759 N   0  0  0  0  0  0
  -26.4287  -37.3801   23.9412 N   0  0  0  0  0  0
  -24.6589  -31.0848   22.1010 N   0  0  0  0  0  0
  -23.4181  -28.8218   23.3053 O   0  0  0  0  0  0
  -28.4049  -26.7746   20.0376 O   0  0  0  0  0  0
  -26.5579  -34.8930   22.4700 O   0  0  0  0  0  0
  -23.5297  -32.1448   23.7556 O   0  0  0  0  0  0
  -30.0611  -18.1745   24.0355 C   0  0  0  0  0  0
  -29.8678  -15.8909   23.2170 C   0  0  0  0  0  0
  -30.2500  -18.6452   22.7185 C   0  0  0  0  0  0
  -30.2585  -17.7275   21.6337 C   0  0  0  0  0  0
  -30.0453  -16.3494   21.8934 C   0  0  0  0  0  0
  -29.8800  -16.8024   24.2859 C   0  0  0  0  0  0
  -28.3557  -24.4312   20.6770 C   0  0  0  0  0  0
  -30.5255  -18.2188   20.2078 C   0  0  0  0  0  0
  -30.6271  -22.2570   20.4027 C   0  0  0  0  0  0
  -30.4255  -20.1399   22.4822 C   0  0  0  0  0  0
  -28.6892  -23.3233   21.6853 C   0  0  0  0  0  0
  -28.5697  -25.8769   21.1334 C   0  0  0  0  0  0
  -29.1200  -20.7977   21.9711 C   0  0  0  0  0  0
  -29.2344  -22.0314   21.0312 C   0  0  2  0  0  0
  -29.9063  -15.4528   20.8125 N   0  0  0  0  0  0
  -27.9345  -24.1641   19.5454 O   0  0  0  0  0  0
  -29.6947  -16.3598   25.5528 F   0  0  0  0  0  0
  -31.4686  -12.3595   19.1112 H   0  0  0  0  0  0
  -30.3049  -11.2555   19.7964 H   0  0  0  0  0  0
  -29.7218  -11.7802   17.4074 H   0  0  0  0  0  0
  -29.6677  -13.4867   17.7750 H   0  0  0  0  0  0
  -27.8153  -11.3068   18.7995 H   0  0  0  0  0  0
  -27.3613  -12.6499   17.7857 H   0  0  0  0  0  0
  -27.7120  -14.2439   19.5871 H   0  0  0  0  0  0
  -28.6688  -11.9223   21.3377 H   0  0  0  0  0  0
  -28.4835  -13.5724   21.8615 H   0  0  0  0  0  0
  -25.2725   -9.5691   22.4755 H   0  0  0  0  0  0
  -23.9983   -7.4634   22.7468 H   0  0  0  0  0  0
  -21.0812   -8.8770   19.8950 H   0  0  0  0  0  0
  -22.3671  -10.9664   19.6162 H   0  0  0  0  0  0
  -21.2027   -7.6140   23.9721 H   0  0  0  0  0  0
  -21.1463   -6.0506   25.9076 H   0  0  0  0  0  0
  -22.0609   -2.7602   23.2851 H   0  0  0  0  0  0
  -22.4077  -11.9882   22.4776 H   0  0  0  0  0  0
  -21.1144  -13.1308   22.2605 H   0  0  0  0  0  0
  -26.3132  -15.6192   20.1408 H   0  0  0  0  0  0
  -24.6896  -15.8509   20.5539 H   0  0  0  0  0  0
  -26.7082  -32.5578   23.1184 H   0  0  0  0  0  0
  -25.0042  -33.9809   25.0500 H   0  0  0  0  0  0
  -22.6805  -31.3078   21.4162 H   0  0  0  0  0  0
  -23.3732  -35.9661   23.3319 H   0  0  0  0  0  0
  -24.3567  -36.8908   22.2047 H   0  0  0  0  0  0
  -23.7242  -37.6537   23.6630 H   0  0  0  0  0  0
  -26.0152  -31.6157   20.5844 H   0  0  0  0  0  0
  -26.8104  -30.9141   21.9670 H   0  0  0  0  0  0
  -28.0978  -29.1549   21.1433 H   0  0  0  0  0  0
  -26.0911  -25.9908   19.0091 H   0  0  0  0  0  0
  -23.9789  -27.2855   19.0500 H   0  0  0  0  0  0
  -23.7004  -30.5942   19.4039 H   0  0  0  0  0  0
  -22.7260  -29.2356   19.8800 H   0  0  0  0  0  0
  -25.1273  -36.1986   25.0836 H   0  0  0  0  0  0
  -20.9957  -28.3196   24.1460 H   0  0  0  0  0  0
  -20.5647  -26.2242   23.3604 H   0  0  0  0  0  0
  -21.6621  -26.7422   22.1222 H   0  0  0  0  0  0
  -19.6872  -25.6306   21.1225 H   0  0  0  0  0  0
  -19.6670  -27.3214   20.6756 H   0  0  0  0  0  0
  -17.4182  -26.6693   21.4033 H   0  0  0  0  0  0
  -18.0301  -26.0064   22.9023 H   0  0  0  0  0  0
  -19.7921  -30.7264   24.2285 H   0  0  0  0  0  0
  -17.4998  -31.6263   24.5163 H   0  0  0  0  0  0
  -15.5339  -30.2983   23.7639 H   0  0  0  0  0  0
  -15.8665  -28.0820   22.7052 H   0  0  0  0  0  0
  -24.5917  -30.7038   25.7830 H   0  0  0  0  0  0
  -24.8949  -32.2839   26.4971 H   0  0  0  0  0  0
  -25.8142  -30.8842   27.0215 H   0  0  0  0  0  0
  -26.2782  -29.6854   24.1099 H   0  0  0  0  0  0
  -27.4072  -29.7267   25.4452 H   0  0  0  0  0  0
  -27.8598  -30.4401   23.9132 H   0  0  0  0  0  0
  -27.2667  -33.3591   26.2107 H   0  0  0  0  0  0
  -28.3832  -32.6914   25.0297 H   0  0  0  0  0  0
  -28.0731  -31.8406   26.5356 H   0  0  0  0  0  0
  -28.2610  -38.0093   24.7509 H   0  0  0  0  0  0
  -28.1060  -36.2631   24.6299 H   0  0  0  0  0  0
  -27.2298  -37.1475   25.8872 H   0  0  0  0  0  0
  -20.9268  -29.8732   21.6984 H   0  0  0  0  0  0
  -26.0179  -38.2878   24.1424 H   0  0  0  0  0  0
  -30.0491  -18.8662   24.8665 H   0  0  0  0  0  0
  -29.6925  -14.8459   23.4253 H   0  0  0  0  0  0
  -31.5680  -18.5257   20.1144 H   0  0  0  0  0  0
  -29.8995  -19.0681   19.9433 H   0  0  0  0  0  0
  -30.3551  -17.4669   19.4401 H   0  0  0  0  0  0
  -30.6206  -23.0826   19.6911 H   0  0  0  0  0  0
  -30.9588  -21.3801   19.8470 H   0  0  0  0  0  0
  -31.3758  -22.4925   21.1604 H   0  0  0  0  0  0
  -31.2558  -20.2452   21.7896 H   0  0  0  0  0  0
  -30.7536  -20.6338   23.3980 H   0  0  0  0  0  0
  -27.7705  -23.1075   22.2307 H   0  0  0  0  0  0
  -29.4013  -23.7041   22.4181 H   0  0  0  0  0  0
  -29.5820  -25.9811   21.5237 H   0  0  0  0  0  0
  -27.8821  -26.1081   21.9484 H   0  0  0  0  0  0
  -28.4743  -21.0144   22.8232 H   0  0  0  0  0  0
  -28.5568  -20.0440   21.4193 H   0  0  0  0  0  0
  -28.5675  -21.8005   20.1976 H   0  0  0  0  0  0
  -29.6429  -15.9060   19.9508 H   0  0  0  0  0  0
  1 25  1  0  0  0
  1 30  2  0  0  0
  1 85  1  0  0  0
  2  3  1  0  0  0
  2 25  1  0  0  0
  2 88  1  0  0  0
  2 89  1  0  0  0
  3  4  1  0  0  0
  3 90  1  0  0  0
  3 91  1  0  0  0
  4  5  1  0  0  0
  4 92  1  0  0  0
  4 93  1  0  0  0
  5  6  1  0  0  0
  5 26  1  0  0  0
  5 94  1  0  0  0
  6 25  1  0  0  0
  6 95  1  0  0  0
  6 96  1  0  0  0
  7  8  2  0  0  0
  7 26  1  0  0  0
  7 29  1  0  0  0
  8  9  1  0  0  0
  8 22  1  0  0  0
  9 10  1  0  0  0
  9 27  2  0  0  0
 10 11  2  0  0  0
 10 15  1  0  0  0
 11 12  1  0  0  0
 11 97  1  0  0  0
 12 13  2  0  0  0
 12 98  1  0  0  0
 13 14  1  0  0  0
 13 31  1  0  0  0
 14 15  2  0  0  0
 14 99  1  0  0  0
 15100  1  0  0  0
 16 17  2  0  0  0
 16 21  1  0  0  0
 16 31  1  0  0  0
 17 18  1  0  0  0
 17101  1  0  0  0
 18 19  2  0  0  0
 18102  1  0  0  0
 19 20  1  0  0  0
 19 24  1  0  0  0
 20 21  2  0  0  0
 20103  1  0  0  0
 21 23  1  0  0  0
 22 28  1  0  0  0
 22 32  2  0  0  0
 26 27  1  0  0  0
 28104  1  0  0  0
 28105  1  0  0  0
 29106  1  0  0  0
 29107  1  0  0  0
 33 34  1  0  0  0
 33 66  1  0  0  0
 33 70  2  0  0  0
 34 36  1  0  0  0
 34 59  1  0  0  0
 34108  1  0  0  0
 35 44  2  0  0  0
 35 45  1  0  0  0
 35 68  1  0  0  0
 36 56  1  0  0  0
 36109  1  0  0  0
 37 39  1  0  0  0
 37 47  1  0  0  0
 37 66  1  0  0  0
 37110  1  0  0  0
 38 43  2  0  0  0
 38 46  1  0  0  0
 38 47  1  0  0  0
 39 64  1  0  0  0
 39 67  2  0  0  0
 40 52  1  0  0  0
 40 53  2  0  0  0
 40 58  1  0  0  0
 41111  1  0  0  0
 41112  1  0  0  0
 41113  1  0  0  0
 41 48  1  0  0  0
 42 43  1  0  0  0
 42 66  1  0  0  0
 42114  1  0  0  0
 42115  1  0  0  0
 43 44  1  0  0  0
 44116  1  0  0  0
 45 46  2  0  0  0
 45117  1  0  0  0
 46118  1  0  0  0
 47119  1  0  0  0
 47120  1  0  0  0
 48 56  1  0  0  0
 48 65  1  0  0  0
 48121  1  0  0  0
 49 50  1  0  0  0
 49 53  1  0  0  0
 49 64  1  0  0  0
 49122  1  0  0  0
 50 51  1  0  0  0
 50123  1  0  0  0
 50124  1  0  0  0
 51 52  1  0  0  0
 51125  1  0  0  0
 51126  1  0  0  0
 52127  1  0  0  0
 52128  1  0  0  0
 53 54  1  0  0  0
 54 55  2  0  0  0
 54129  1  0  0  0
 55 57  1  0  0  0
 55130  1  0  0  0
 56 69  2  0  0  0
 57 58  2  0  0  0
 57131  1  0  0  0
 58132  1  0  0  0
 59 60  1  0  0  0
 59 61  1  0  0  0
 59 62  1  0  0  0
 60133  1  0  0  0
 60134  1  0  0  0
 60135  1  0  0  0
 61136  1  0  0  0
 61137  1  0  0  0
 61138  1  0  0  0
 62139  1  0  0  0
 62140  1  0  0  0
 62141  1  0  0  0
 63 65  1  0  0  0
 63142  1  0  0  0
 63143  1  0  0  0
 63144  1  0  0  0
 64145  1  0  0  0
 65146  1  0  0  0
 68 82  1  0  0  0
 71 73  2  0  0  0
 71 76  1  0  0  0
 71147  1  0  0  0
 72 75  1  0  0  0
 72 76  2  0  0  0
 72148  1  0  0  0
 73 74  1  0  0  0
 73 80  1  0  0  0
 74 75  2  0  0  0
 74 78  1  0  0  0
 75 85  1  0  0  0
 76 87  1  0  0  0
 77 81  1  0  0  0
 77 82  1  0  0  0
 77 86  2  0  0  0
 78149  1  0  0  0
 78150  1  0  0  0
 78151  1  0  0  0
 79152  1  0  0  0
 79153  1  0  0  0
 79154  1  0  0  0
 79 84  1  0  0  0
 80 83  1  0  0  0
 80155  1  0  0  0
 80156  1  0  0  0
 81 84  1  0  0  0
 81157  1  0  0  0
 81158  1  0  0  0
 82159  1  0  0  0
 82160  1  0  0  0
 83 84  1  0  0  0
 83161  1  0  0  0
 83162  1  0  0  0
 84163  1  0  0  0
 85164  1  0  0  0
M  ISO  4   1 100  68 101  82 101  85 100
M  END
> <chiral flag>
0

> <version>
0

> <s_m_source_file>
/data/baiqing/PycharmProjects/Reinvent-master-3.2/result/LINK_invent/BTK/process_docking_weight1_custom_product_contain_oxygen_bond_distance_aromatic_linkinvent_7_9_3/rearranged_h_0135.sdf

> <i_m_source_file_index>
21

> <r_mmod_Potential_Energy-OPLS-2005>
72.3883666992188

> <r_mmod_Stretch_Energy-OPLS-2005>
32.9859580993652

> <r_mmod_Bend_Energy-OPLS-2005>
95.7554016113281

> <r_mmod_Torsional_Energy-OPLS-2005>
313.126525878906

> <r_mmod_Improper_Torsional_Energy-OPLS-2005>
14.8506765365601

> <r_mmod_Van_der_Waal_Energy-OPLS-2005>
160.095321655273

> <r_mmod_Electrostatic_Energy-OPLS-2005>
-347.083862304688

> <r_mmod_Solvation_Energy-OPLS-2005>
-207.189865112305

> <b_mmod_Minimization_Converged-OPLS-2005>
0

> <r_mmod_RMS_Derivative-OPLS-2005>
1.58960723876953

$$$$
21
                    3D
 Structure written by MMmdl.
164173  0  0  1  0            999 V2000
  -30.5588  -14.7585   20.4967 C   0  0  0  0  0  0
  -30.4415  -12.4708   19.4729 C   0  0  0  0  0  0
  -29.5090  -12.4757   18.2380 C   0  0  0  0  0  0
  -28.0360  -12.2969   18.6562 C   0  0  0  0  0  0
  -27.6344  -13.2110   19.8416 C   0  0  2  0  0  0
  -28.6726  -13.1491   20.9808 C   0  0  0  0  0  0
  -25.2502  -13.8156   20.5675 C   0  0  0  0  0  0
  -24.1788  -13.0449   20.9233 C   0  0  0  0  0  0
  -24.6292  -11.6918   20.8744 C   0  0  0  0  0  0
  -23.8972  -10.4310   21.0455 C   0  0  0  0  0  0
  -24.3541   -9.4241   21.9238 C   0  0  0  0  0  0
  -23.6243   -8.2268   22.0786 C   0  0  0  0  0  0
  -22.4239   -8.0278   21.3557 C   0  0  0  0  0  0
  -21.9844   -9.0262   20.4677 C   0  0  0  0  0  0
  -22.7147  -10.2157   20.3123 C   0  0  0  0  0  0
  -21.6866   -6.0709   22.5270 C   0  0  0  0  0  0
  -21.4010   -6.5614   23.8198 C   0  0  0  0  0  0
  -21.3666   -5.6767   24.9166 C   0  0  0  0  0  0
  -21.6080   -4.3038   24.7229 C   0  0  0  0  0  0
  -21.8804   -3.8124   23.4348 C   0  0  0  0  0  0
  -21.9188   -4.6939   22.3393 C   0  0  0  0  0  0
  -22.7798  -13.5318   21.1835 C   0  0  0  0  0  0
  -22.1658   -4.2113   21.0981 F   0  0  0  0  0  0
  -21.5637   -3.4520   25.7745 F   0  0  0  0  0  0
  -29.9704  -13.5193   20.4008 N   0  0  0  0  0  0
  -26.2867  -12.9310   20.3203 N   0  0  0  0  0  0
  -25.9230  -11.6483   20.5742 N   0  0  0  0  0  0
  -22.0404  -12.8420   22.0417 N   0  0  0  0  0  0
  -25.4176  -15.1870   20.3974 N   0  0  0  0  0  0
  -31.7575  -14.9034   20.2264 O   0  0  0  0  0  0
  -21.6647   -6.8853   21.4238 O   0  0  0  0  0  0
  -22.3509  -14.5578   20.6568 O   0  0  0  0  0  0
  -24.6257  -31.8585   23.1949 C   0  0  0  0  0  0
  -25.9104  -32.4780   23.8277 C   0  0  1  0  0  0
  -27.1840  -27.2421   20.1528 C   0  0  0  0  0  0
  -25.5918  -33.8566   24.2236 N   0  0  0  0  0  0
  -23.4191  -30.4797   21.5433 C   0  0  2  0  0  0
  -24.8659  -28.9271   20.1071 C   0  0  0  0  0  0
  -22.7497  -29.4569   22.4946 C   0  0  0  0  0  0
  -18.0299  -28.1255   22.8538 C   0  0  0  0  0  0
  -24.1496  -36.7319   23.2603 C   0  0  0  0  0  0
  -25.9610  -30.7645   21.3763 C   0  0  0  0  0  0
  -26.0344  -29.3805   20.7324 C   0  0  0  0  0  0
  -27.2008  -28.5513   20.7424 C   0  0  0  0  0  0
  -26.0014  -26.8584   19.4967 C   0  0  0  0  0  0
  -24.8579  -27.6782   19.4693 C   0  0  0  0  0  0
  -23.6371  -29.8171   20.1565 C   0  0  0  0  0  0
  -25.4108  -36.3118   24.0323 C   0  0  1  0  0  0
  -20.5897  -28.3659   23.1404 C   0  0  2  0  0  0
  -20.6834  -26.9371   22.5538 C   0  0  0  0  0  0
  -19.5874  -26.6344   21.5284 C   0  0  0  0  0  0
  -18.2032  -26.7775   22.1697 C   0  0  0  0  0  0
  -19.1525  -28.8769   23.2930 C   0  0  0  0  0  0
  -18.9397  -30.1404   23.8888 C   0  0  0  0  0  0
  -17.6396  -30.6537   24.0476 C   0  0  0  0  0  0
  -25.9056  -34.9479   23.5081 C   0  0  0  0  0  0
  -16.5311  -29.8987   23.6262 C   0  0  0  0  0  0
  -16.7276  -28.6353   23.0369 C   0  0  0  0  0  0
  -26.4439  -31.6574   25.0667 C   0  0  0  0  0  0
  -25.3608  -31.3795   26.1366 C   0  0  0  0  0  0
  -27.0209  -30.2997   24.6043 C   0  0  0  0  0  0
  -27.6015  -32.4237   25.7453 C   0  0  0  0  0  0
  -27.5596  -37.1816   24.8447 C   0  0  0  0  0  0
  -21.4174  -29.3094   22.3851 N   0  0  0  0  0  0
  -26.4292  -37.3825   23.9420 N   0  0  0  0  0  0
  -24.6879  -31.0535   22.0952 N   0  0  0  0  0  0
  -23.4270  -28.8054   23.2944 O   0  0  0  0  0  0
  -28.2493  -26.3210   20.1688 O   0  0  0  0  0  0
  -26.5636  -34.8945   22.4681 O   0  0  0  0  0  0
  -23.5432  -32.1374   23.7323 O   0  0  0  0  0  0
  -29.9368  -17.3992   22.4718 C   0  0  0  0  0  0
  -29.6439  -19.8316   22.3004 C   0  0  0  0  0  0
  -29.5048  -18.4347   20.3179 C   0  0  0  0  0  0
  -29.8461  -18.6714   23.0831 C   0  0  0  0  0  0
  -29.8006  -17.2249   21.0773 C   0  0  0  0  0  0
  -29.4083  -19.7647   20.9074 C   0  0  0  0  0  0
  -28.5506  -18.8820   25.3089 C   0  0  0  0  0  0
  -29.5857  -19.9766   25.4192 C   0  0  0  0  0  0
  -29.8716  -18.7378   24.5857 C   0  0  0  0  0  0
  -26.8645  -21.8857   18.3869 C   0  0  0  0  0  0
  -26.9267  -23.2499   19.1045 C   0  0  0  0  0  0
  -28.0204  -24.9461   20.7510 C   0  0  0  0  0  0
  -28.6105  -22.2101   20.8358 C   0  0  0  0  0  0
  -28.2070  -23.5249   19.9594 C   0  0  1  0  0  0
  -29.6880  -15.8346   20.5786 N   0  0  0  0  0  0
  -29.0846  -20.9493   20.1758 O   0  0  0  0  0  0
  -31.4733  -12.6366   19.1614 H   0  0  0  0  0  0
  -30.4254  -11.5021   19.9743 H   0  0  0  0  0  0
  -29.7943  -11.6808   17.5471 H   0  0  0  0  0  0
  -29.6182  -13.4120   17.6847 H   0  0  0  0  0  0
  -27.8935  -11.2493   18.9272 H   0  0  0  0  0  0
  -27.3791  -12.4771   17.8036 H   0  0  0  0  0  0
  -27.6258  -14.2213   19.4329 H   0  0  0  0  0  0
  -28.7184  -12.1516   21.4242 H   0  0  0  0  0  0
  -28.3943  -13.8277   21.7892 H   0  0  0  0  0  0
  -25.2684   -9.5740   22.4817 H   0  0  0  0  0  0
  -23.9959   -7.4663   22.7499 H   0  0  0  0  0  0
  -21.0785   -8.8786   19.8955 H   0  0  0  0  0  0
  -22.3621  -10.9706   19.6235 H   0  0  0  0  0  0
  -21.2008   -7.6121   23.9691 H   0  0  0  0  0  0
  -21.1493   -6.0507   25.9062 H   0  0  0  0  0  0
  -22.0569   -2.7586   23.2875 H   0  0  0  0  0  0
  -22.3916  -12.0148   22.4987 H   0  0  0  0  0  0
  -21.1023  -13.1540   22.2540 H   0  0  0  0  0  0
  -24.6364  -15.8308   20.4875 H   0  0  0  0  0  0
  -26.2310  -15.6157   19.9767 H   0  0  0  0  0  0
  -26.7155  -32.5468   23.0995 H   0  0  0  0  0  0
  -25.0091  -33.9642   25.0390 H   0  0  0  0  0  0
  -22.7125  -31.3015   21.4099 H   0  0  0  0  0  0
  -23.3776  -35.9650   23.3251 H   0  0  0  0  0  0
  -24.3580  -36.8936   22.2019 H   0  0  0  0  0  0
  -23.7189  -37.6484   23.6620 H   0  0  0  0  0  0
  -26.0803  -31.5156   20.5935 H   0  0  0  0  0  0
  -26.8485  -30.8344   21.9933 H   0  0  0  0  0  0
  -28.0940  -28.8876   21.2487 H   0  0  0  0  0  0
  -25.9506  -25.9002   19.0069 H   0  0  0  0  0  0
  -23.9726  -27.3381   18.9492 H   0  0  0  0  0  0
  -23.7554  -30.5935   19.4006 H   0  0  0  0  0  0
  -22.7533  -29.2485   19.8575 H   0  0  0  0  0  0
  -25.1272  -36.1989   25.0811 H   0  0  0  0  0  0
  -20.9932  -28.3236   24.1562 H   0  0  0  0  0  0
  -20.5582  -26.2308   23.3758 H   0  0  0  0  0  0
  -21.6744  -26.7276   22.1507 H   0  0  0  0  0  0
  -19.7098  -25.6269   21.1287 H   0  0  0  0  0  0
  -19.6834  -27.3197   20.6855 H   0  0  0  0  0  0
  -17.4303  -26.6424   21.4118 H   0  0  0  0  0  0
  -18.0541  -25.9861   22.9060 H   0  0  0  0  0  0
  -19.7844  -30.7232   24.2289 H   0  0  0  0  0  0
  -17.4895  -31.6262   24.4981 H   0  0  0  0  0  0
  -15.5278  -30.2880   23.7486 H   0  0  0  0  0  0
  -15.8695  -28.0611   22.7135 H   0  0  0  0  0  0
  -24.5860  -30.7022   25.7747 H   0  0  0  0  0  0
  -24.8660  -32.2979   26.4567 H   0  0  0  0  0  0
  -25.7878  -30.9168   27.0269 H   0  0  0  0  0  0
  -26.2750  -29.6873   24.0948 H   0  0  0  0  0  0
  -27.3794  -29.7135   25.4504 H   0  0  0  0  0  0
  -27.8695  -30.4303   23.9315 H   0  0  0  0  0  0
  -27.2672  -33.3578   26.1990 H   0  0  0  0  0  0
  -28.3871  -32.6674   25.0291 H   0  0  0  0  0  0
  -28.0587  -31.8291   26.5363 H   0  0  0  0  0  0
  -28.2596  -38.0139   24.7566 H   0  0  0  0  0  0
  -28.1101  -36.2656   24.6214 H   0  0  0  0  0  0
  -27.2307  -37.1417   25.8845 H   0  0  0  0  0  0
  -20.9251  -29.9107   21.7388 H   0  0  0  0  0  0
  -26.0194  -38.2907   24.1465 H   0  0  0  0  0  0
  -30.0316  -16.5320   23.1110 H   0  0  0  0  0  0
  -29.6408  -20.7873   22.7987 H   0  0  0  0  0  0
  -29.3093  -18.3351   19.2600 H   0  0  0  0  0  0
  -27.6631  -19.1191   24.7227 H   0  0  0  0  0  0
  -28.3859  -18.2506   26.1817 H   0  0  0  0  0  0
  -30.0747  -20.0682   26.3894 H   0  0  0  0  0  0
  -29.3810  -20.9244   24.9243 H   0  0  0  0  0  0
  -30.5768  -18.0188   24.9984 H   0  0  0  0  0  0
  -26.0580  -21.8601   17.6508 H   0  0  0  0  0  0
  -26.6623  -21.0700   19.0829 H   0  0  0  0  0  0
  -27.7975  -21.6631   17.8656 H   0  0  0  0  0  0
  -26.0289  -23.3351   19.7226 H   0  0  0  0  0  0
  -26.8363  -24.0261   18.3435 H   0  0  0  0  0  0
  -28.7080  -24.9152   21.5997 H   0  0  0  0  0  0
  -27.0334  -24.9307   21.2245 H   0  0  0  0  0  0
  -27.7492  -21.9238   21.4417 H   0  0  0  0  0  0
  -29.3737  -22.5368   21.5444 H   0  0  0  0  0  0
  -29.0471  -23.6772   19.2825 H   0  0  0  0  0  0
  -28.7337  -15.5150   20.5373 H   0  0  0  0  0  0
  1 25  1  0  0  0
  1 30  2  0  0  0
  1 85  1  0  0  0
  2  3  1  0  0  0
  2 25  1  0  0  0
  2 87  1  0  0  0
  2 88  1  0  0  0
  3  4  1  0  0  0
  3 89  1  0  0  0
  3 90  1  0  0  0
  4  5  1  0  0  0
  4 91  1  0  0  0
  4 92  1  0  0  0
  5  6  1  0  0  0
  5 26  1  0  0  0
  5 93  1  0  0  0
  6 25  1  0  0  0
  6 94  1  0  0  0
  6 95  1  0  0  0
  7  8  2  0  0  0
  7 26  1  0  0  0
  7 29  1  0  0  0
  8  9  1  0  0  0
  8 22  1  0  0  0
  9 10  1  0  0  0
  9 27  2  0  0  0
 10 11  2  0  0  0
 10 15  1  0  0  0
 11 12  1  0  0  0
 11 96  1  0  0  0
 12 13  2  0  0  0
 12 97  1  0  0  0
 13 14  1  0  0  0
 13 31  1  0  0  0
 14 15  2  0  0  0
 14 98  1  0  0  0
 15 99  1  0  0  0
 16 17  2  0  0  0
 16 21  1  0  0  0
 16 31  1  0  0  0
 17 18  1  0  0  0
 17100  1  0  0  0
 18 19  2  0  0  0
 18101  1  0  0  0
 19 20  1  0  0  0
 19 24  1  0  0  0
 20 21  2  0  0  0
 20102  1  0  0  0
 21 23  1  0  0  0
 22 28  1  0  0  0
 22 32  2  0  0  0
 26 27  1  0  0  0
 28103  1  0  0  0
 28104  1  0  0  0
 29105  1  0  0  0
 29106  1  0  0  0
 33 34  1  0  0  0
 33 66  1  0  0  0
 33 70  2  0  0  0
 34 36  1  0  0  0
 34 59  1  0  0  0
 34107  1  0  0  0
 35 44  2  0  0  0
 35 45  1  0  0  0
 35 68  1  0  0  0
 36 56  1  0  0  0
 36108  1  0  0  0
 37 39  1  0  0  0
 37 47  1  0  0  0
 37 66  1  0  0  0
 37109  1  0  0  0
 38 43  2  0  0  0
 38 46  1  0  0  0
 38 47  1  0  0  0
 39 64  1  0  0  0
 39 67  2  0  0  0
 40 52  1  0  0  0
 40 53  2  0  0  0
 40 58  1  0  0  0
 41110  1  0  0  0
 41111  1  0  0  0
 41112  1  0  0  0
 41 48  1  0  0  0
 42 43  1  0  0  0
 42 66  1  0  0  0
 42113  1  0  0  0
 42114  1  0  0  0
 43 44  1  0  0  0
 44115  1  0  0  0
 45 46  2  0  0  0
 45116  1  0  0  0
 46117  1  0  0  0
 47118  1  0  0  0
 47119  1  0  0  0
 48 56  1  0  0  0
 48 65  1  0  0  0
 48120  1  0  0  0
 49 50  1  0  0  0
 49 53  1  0  0  0
 49 64  1  0  0  0
 49121  1  0  0  0
 50 51  1  0  0  0
 50122  1  0  0  0
 50123  1  0  0  0
 51 52  1  0  0  0
 51124  1  0  0  0
 51125  1  0  0  0
 52126  1  0  0  0
 52127  1  0  0  0
 53 54  1  0  0  0
 54 55  2  0  0  0
 54128  1  0  0  0
 55 57  1  0  0  0
 55129  1  0  0  0
 56 69  2  0  0  0
 57 58  2  0  0  0
 57130  1  0  0  0
 58131  1  0  0  0
 59 60  1  0  0  0
 59 61  1  0  0  0
 59 62  1  0  0  0
 60132  1  0  0  0
 60133  1  0  0  0
 60134  1  0  0  0
 61135  1  0  0  0
 61136  1  0  0  0
 61137  1  0  0  0
 62138  1  0  0  0
 62139  1  0  0  0
 62140  1  0  0  0
 63 65  1  0  0  0
 63141  1  0  0  0
 63142  1  0  0  0
 63143  1  0  0  0
 64144  1  0  0  0
 65145  1  0  0  0
 68 82  1  0  0  0
 71 74  2  0  0  0
 71 75  1  0  0  0
 71146  1  0  0  0
 72 74  1  0  0  0
 72 76  2  0  0  0
 72147  1  0  0  0
 73 75  2  0  0  0
 73 76  1  0  0  0
 73148  1  0  0  0
 74 79  1  0  0  0
 75 85  1  0  0  0
 76 86  1  0  0  0
 77 78  1  0  0  0
 77 79  1  0  0  0
 77149  1  0  0  0
 77150  1  0  0  0
 78 79  1  0  0  0
 78151  1  0  0  0
 78152  1  0  0  0
 79153  1  0  0  0
 80 81  1  0  0  0
 80154  1  0  0  0
 80155  1  0  0  0
 80156  1  0  0  0
 81157  1  0  0  0
 81158  1  0  0  0
 81 84  1  0  0  0
 82 84  1  0  0  0
 82159  1  0  0  0
 82160  1  0  0  0
 83 84  1  0  0  0
 83 86  1  0  0  0
 83161  1  0  0  0
 83162  1  0  0  0
 84163  1  0  0  0
 85164  1  0  0  0
M  ISO  4   1 100  68 101  82 101  85 100
M  END
> <chiral flag>
0

> <version>
0

> <s_m_source_file>
/data/baiqing/PycharmProjects/Reinvent-master-3.2/result/LINK_invent/BTK/process_docking_weight1_custom_product_contain_oxygen_bond_distance_aromatic_linkinvent_7_9_3/rearranged_h_0135.sdf

> <i_m_source_file_index>
22

> <r_mmod_Potential_Energy-OPLS-2005>
309.672149658203

> <r_mmod_Stretch_Energy-OPLS-2005>
129.131439208984

> <r_mmod_Bend_Energy-OPLS-2005>
179.35676574707

> <r_mmod_Torsional_Energy-OPLS-2005>
309.621673583984

> <r_mmod_Improper_Torsional_Energy-OPLS-2005>
11.7062683105469

> <r_mmod_Van_der_Waal_Energy-OPLS-2005>
132.559982299805

> <r_mmod_Electrostatic_Energy-OPLS-2005>
-345.6201171875

> <r_mmod_Solvation_Energy-OPLS-2005>
-207.778411865234

> <b_mmod_Minimization_Converged-OPLS-2005>
0

> <r_mmod_RMS_Derivative-OPLS-2005>
6.85144186019897

$$$$
22
                    3D
 Structure written by MMmdl.
162170  0  0  1  0            999 V2000
  -30.6242  -14.6863   20.4779 C   0  0  0  0  0  0
  -30.4391  -12.4141   19.4795 C   0  0  0  0  0  0
  -29.5198  -12.5000   18.2410 C   0  0  0  0  0  0
  -28.0408  -12.3351   18.6435 C   0  0  0  0  0  0
  -27.6532  -13.2237   19.8572 C   0  0  2  0  0  0
  -28.6916  -13.1173   20.9958 C   0  0  0  0  0  0
  -25.2583  -13.8184   20.5667 C   0  0  0  0  0  0
  -24.1848  -13.0449   20.9175 C   0  0  0  0  0  0
  -24.6423  -11.6914   20.8695 C   0  0  0  0  0  0
  -23.9085  -10.4292   21.0375 C   0  0  0  0  0  0
  -24.3627   -9.4213   21.9160 C   0  0  0  0  0  0
  -23.6299   -8.2249   22.0732 C   0  0  0  0  0  0
  -22.4281   -8.0271   21.3523 C   0  0  0  0  0  0
  -21.9913   -9.0236   20.4629 C   0  0  0  0  0  0
  -22.7242  -10.2128   20.3039 C   0  0  0  0  0  0
  -21.6866   -6.0740   22.5282 C   0  0  0  0  0  0
  -21.4003   -6.5635   23.8213 C   0  0  0  0  0  0
  -21.3659   -5.6780   24.9175 C   0  0  0  0  0  0
  -21.6050   -4.3043   24.7228 C   0  0  0  0  0  0
  -21.8819   -3.8144   23.4347 C   0  0  0  0  0  0
  -21.9192   -4.6965   22.3401 C   0  0  0  0  0  0
  -22.7864  -13.5229   21.1844 C   0  0  0  0  0  0
  -22.1655   -4.2149   21.0983 F   0  0  0  0  0  0
  -21.5656   -3.4527   25.7748 F   0  0  0  0  0  0
  -30.0080  -13.4584   20.4378 N   0  0  0  0  0  0
  -26.3006  -12.9388   20.3281 N   0  0  0  0  0  0
  -25.9358  -11.6527   20.5722 N   0  0  0  0  0  0
  -22.0487  -12.8210   22.0400 N   0  0  0  0  0  0
  -25.4308  -15.1892   20.4088 N   0  0  0  0  0  0
  -31.7773  -14.8205   20.0579 O   0  0  0  0  0  0
  -21.6642   -6.8868   21.4238 O   0  0  0  0  0  0
  -22.3528  -14.5508   20.6656 O   0  0  0  0  0  0
  -24.6286  -31.8606   23.1988 C   0  0  0  0  0  0
  -25.9141  -32.4784   23.8314 C   0  0  1  0  0  0
  -27.2085  -27.2931   20.1169 C   0  0  0  0  0  0
  -25.5952  -33.8584   24.2259 N   0  0  0  0  0  0
  -23.4218  -30.4844   21.5437 C   0  0  2  0  0  0
  -24.8645  -28.9402   20.1063 C   0  0  0  0  0  0
  -22.7483  -29.4638   22.4931 C   0  0  0  0  0  0
  -18.0286  -28.1399   22.8477 C   0  0  0  0  0  0
  -24.1498  -36.7283   23.2621 C   0  0  0  0  0  0
  -25.9631  -30.7845   21.3718 C   0  0  0  0  0  0
  -26.0360  -29.4110   20.7136 C   0  0  0  0  0  0
  -27.2110  -28.5970   20.7123 C   0  0  0  0  0  0
  -26.0174  -26.8938   19.4675 C   0  0  0  0  0  0
  -24.8578  -27.6884   19.4762 C   0  0  0  0  0  0
  -23.6346  -29.8224   20.1571 C   0  0  0  0  0  0
  -25.4129  -36.3092   24.0320 C   0  0  1  0  0  0
  -20.5894  -28.3700   23.1277 C   0  0  2  0  0  0
  -20.6789  -26.9425   22.5409 C   0  0  0  0  0  0
  -19.5771  -26.6393   21.5214 C   0  0  0  0  0  0
  -18.1941  -26.7936   22.1609 C   0  0  0  0  0  0
  -19.1541  -28.8865   23.2868 C   0  0  0  0  0  0
  -18.9463  -30.1457   23.8901 C   0  0  0  0  0  0
  -17.6464  -30.6600   24.0564 C   0  0  0  0  0  0
  -25.9072  -34.9467   23.5090 C   0  0  0  0  0  0
  -16.5355  -29.9100   23.6322 C   0  0  0  0  0  0
  -16.7267  -28.6515   23.0341 C   0  0  0  0  0  0
  -26.4502  -31.6571   25.0682 C   0  0  0  0  0  0
  -25.3703  -31.3741   26.1384 C   0  0  0  0  0  0
  -27.0298  -30.2978   24.6120 C   0  0  0  0  0  0
  -27.6070  -32.4268   25.7475 C   0  0  0  0  0  0
  -27.5609  -37.1785   24.8453 C   0  0  0  0  0  0
  -21.4193  -29.3058   22.3683 N   0  0  0  0  0  0
  -26.4302  -37.3797   23.9422 N   0  0  0  0  0  0
  -24.6908  -31.0580   22.0963 N   0  0  0  0  0  0
  -23.4199  -28.8180   23.3025 O   0  0  0  0  0  0
  -28.3040  -26.4088   20.1914 O   0  0  0  0  0  0
  -26.5630  -34.8950   22.4654 O   0  0  0  0  0  0
  -23.5452  -32.1427   23.7302 O   0  0  0  0  0  0
  -29.0664  -19.4488   18.7093 C   0  0  0  0  0  0
  -29.3396  -17.0097   18.8125 C   0  0  0  0  0  0
  -29.7198  -18.3743   20.7915 C   0  0  0  0  0  0
  -29.0071  -18.1786   18.0923 C   0  0  0  0  0  0
  -29.4250  -19.5970   20.0669 C   0  0  0  0  0  0
  -29.7028  -17.0595   20.1768 C   0  0  0  0  0  0
  -28.5584  -18.0724   16.6427 C   0  0  0  0  0  0
  -30.4877  -24.2510   20.0674 C   0  0  0  0  0  0
  -28.9915  -23.8851   22.0574 C   0  0  0  0  0  0
  -29.5323  -21.0524   20.6959 C   0  0  0  0  0  0
  -28.7883  -22.3220   20.0270 C   0  0  0  0  0  0
  -28.0740  -24.9534   19.9406 C   0  0  0  0  0  0
  -29.0764  -23.8385   20.5192 C   0  0  0  0  0  0
  -29.8900  -15.7815   20.8838 N   0  0  0  0  0  0
  -31.4828  -12.5317   19.1793 H   0  0  0  0  0  0
  -30.3713  -11.4263   19.9395 H   0  0  0  0  0  0
  -29.7923  -11.7312   17.5162 H   0  0  0  0  0  0
  -29.6647  -13.4591   17.7462 H   0  0  0  0  0  0
  -27.8822  -11.2831   18.8841 H   0  0  0  0  0  0
  -27.3928  -12.5471   17.7923 H   0  0  0  0  0  0
  -27.6604  -14.2526   19.4939 H   0  0  0  0  0  0
  -28.7138  -12.1052   21.4026 H   0  0  0  0  0  0
  -28.4261  -13.7758   21.8230 H   0  0  0  0  0  0
  -25.2770   -9.5695   22.4736 H   0  0  0  0  0  0
  -24.0019   -7.4638   22.7435 H   0  0  0  0  0  0
  -21.0858   -8.8732   19.8917 H   0  0  0  0  0  0
  -22.3676  -10.9651   19.6150 H   0  0  0  0  0  0
  -21.1961   -7.6135   23.9715 H   0  0  0  0  0  0
  -21.1497   -6.0515   25.9079 H   0  0  0  0  0  0
  -22.0598   -2.7613   23.2858 H   0  0  0  0  0  0
  -22.4116  -11.9950   22.4901 H   0  0  0  0  0  0
  -21.1061  -13.1192   22.2491 H   0  0  0  0  0  0
  -24.6710  -15.8488   20.5292 H   0  0  0  0  0  0
  -26.2911  -15.6288   20.1071 H   0  0  0  0  0  0
  -26.7217  -32.5453   23.1060 H   0  0  0  0  0  0
  -25.0104  -33.9714   25.0413 H   0  0  0  0  0  0
  -22.7169  -31.3061   21.4014 H   0  0  0  0  0  0
  -23.3802  -35.9565   23.3230 H   0  0  0  0  0  0
  -24.3604  -36.8967   22.2051 H   0  0  0  0  0  0
  -23.7198  -37.6448   23.6667 H   0  0  0  0  0  0
  -26.0942  -31.5522   20.6067 H   0  0  0  0  0  0
  -26.8453  -30.8329   21.9992 H   0  0  0  0  0  0
  -28.1038  -28.9473   21.2088 H   0  0  0  0  0  0
  -25.9445  -25.9447   18.9577 H   0  0  0  0  0  0
  -23.9596  -27.3222   18.9976 H   0  0  0  0  0  0
  -23.7543  -30.6013   19.4019 H   0  0  0  0  0  0
  -22.7534  -29.2542   19.8510 H   0  0  0  0  0  0
  -25.1314  -36.1936   25.0811 H   0  0  0  0  0  0
  -20.9953  -28.3276   24.1411 H   0  0  0  0  0  0
  -20.5700  -26.2315   23.3612 H   0  0  0  0  0  0
  -21.6654  -26.7479   22.1199 H   0  0  0  0  0  0
  -19.6926  -25.6300   21.1266 H   0  0  0  0  0  0
  -19.6714  -27.3199   20.6748 H   0  0  0  0  0  0
  -17.4212  -26.6679   21.4009 H   0  0  0  0  0  0
  -18.0318  -26.0091   22.9020 H   0  0  0  0  0  0
  -19.7944  -30.7265   24.2281 H   0  0  0  0  0  0
  -17.5027  -31.6274   24.5162 H   0  0  0  0  0  0
  -15.5362  -30.3006   23.7651 H   0  0  0  0  0  0
  -15.8662  -28.0844   22.7049 H   0  0  0  0  0  0
  -24.5881  -30.7091   25.7700 H   0  0  0  0  0  0
  -24.8888  -32.2930   26.4744 H   0  0  0  0  0  0
  -25.7996  -30.8952   27.0193 H   0  0  0  0  0  0
  -26.2844  -29.6769   24.1126 H   0  0  0  0  0  0
  -27.3972  -29.7200   25.4614 H   0  0  0  0  0  0
  -27.8745  -30.4245   23.9337 H   0  0  0  0  0  0
  -27.2677  -33.3560   26.2065 H   0  0  0  0  0  0
  -28.3890  -32.6828   25.0310 H   0  0  0  0  0  0
  -28.0701  -31.8357   26.5385 H   0  0  0  0  0  0
  -28.2572  -38.0135   24.7602 H   0  0  0  0  0  0
  -28.1165  -36.2681   24.6161 H   0  0  0  0  0  0
  -27.2334  -37.1307   25.8850 H   0  0  0  0  0  0
  -20.9366  -29.8778   21.6903 H   0  0  0  0  0  0
  -26.0188  -38.2863   24.1478 H   0  0  0  0  0  0
  -28.8249  -20.3189   18.1145 H   0  0  0  0  0  0
  -29.2777  -16.0530   18.3127 H   0  0  0  0  0  0
  -29.9726  -18.4539   21.8388 H   0  0  0  0  0  0
  -27.6104  -18.5917   16.4876 H   0  0  0  0  0  0
  -28.4115  -17.0338   16.3454 H   0  0  0  0  0  0
  -29.2977  -18.5101   15.9713 H   0  0  0  0  0  0
  -31.2597  -23.5893   20.4590 H   0  0  0  0  0  0
  -30.7201  -25.2654   20.3950 H   0  0  0  0  0  0
  -30.5611  -24.2458   18.9792 H   0  0  0  0  0  0
  -29.7178  -23.2208   22.5253 H   0  0  0  0  0  0
  -28.0009  -23.5924   22.4093 H   0  0  0  0  0  0
  -29.1854  -24.8890   22.4373 H   0  0  0  0  0  0
  -30.5959  -21.2807   20.7518 H   0  0  0  0  0  0
  -29.2041  -20.9791   21.7314 H   0  0  0  0  0  0
  -27.7150  -22.1413   20.0898 H   0  0  0  0  0  0
  -29.0104  -22.3092   18.9614 H   0  0  0  0  0  0
  -27.0906  -24.6821   20.3284 H   0  0  0  0  0  0
  -28.0205  -24.8278   18.8573 H   0  0  0  0  0  0
  -29.1284  -15.5424   21.5023 H   0  0  0  0  0  0
  1 25  1  0  0  0
  1 30  2  0  0  0
  1 84  1  0  0  0
  2  3  1  0  0  0
  2 25  1  0  0  0
  2 85  1  0  0  0
  2 86  1  0  0  0
  3  4  1  0  0  0
  3 87  1  0  0  0
  3 88  1  0  0  0
  4  5  1  0  0  0
  4 89  1  0  0  0
  4 90  1  0  0  0
  5  6  1  0  0  0
  5 26  1  0  0  0
  5 91  1  0  0  0
  6 25  1  0  0  0
  6 92  1  0  0  0
  6 93  1  0  0  0
  7  8  2  0  0  0
  7 26  1  0  0  0
  7 29  1  0  0  0
  8  9  1  0  0  0
  8 22  1  0  0  0
  9 10  1  0  0  0
  9 27  2  0  0  0
 10 11  2  0  0  0
 10 15  1  0  0  0
 11 12  1  0  0  0
 11 94  1  0  0  0
 12 13  2  0  0  0
 12 95  1  0  0  0
 13 14  1  0  0  0
 13 31  1  0  0  0
 14 15  2  0  0  0
 14 96  1  0  0  0
 15 97  1  0  0  0
 16 17  2  0  0  0
 16 21  1  0  0  0
 16 31  1  0  0  0
 17 18  1  0  0  0
 17 98  1  0  0  0
 18 19  2  0  0  0
 18 99  1  0  0  0
 19 20  1  0  0  0
 19 24  1  0  0  0
 20 21  2  0  0  0
 20100  1  0  0  0
 21 23  1  0  0  0
 22 28  1  0  0  0
 22 32  2  0  0  0
 26 27  1  0  0  0
 28101  1  0  0  0
 28102  1  0  0  0
 29103  1  0  0  0
 29104  1  0  0  0
 33 34  1  0  0  0
 33 66  1  0  0  0
 33 70  2  0  0  0
 34 36  1  0  0  0
 34 59  1  0  0  0
 34105  1  0  0  0
 35 44  2  0  0  0
 35 45  1  0  0  0
 35 68  1  0  0  0
 36 56  1  0  0  0
 36106  1  0  0  0
 37 39  1  0  0  0
 37 47  1  0  0  0
 37 66  1  0  0  0
 37107  1  0  0  0
 38 43  2  0  0  0
 38 46  1  0  0  0
 38 47  1  0  0  0
 39 64  1  0  0  0
 39 67  2  0  0  0
 40 52  1  0  0  0
 40 53  2  0  0  0
 40 58  1  0  0  0
 41108  1  0  0  0
 41109  1  0  0  0
 41110  1  0  0  0
 41 48  1  0  0  0
 42 43  1  0  0  0
 42 66  1  0  0  0
 42111  1  0  0  0
 42112  1  0  0  0
 43 44  1  0  0  0
 44113  1  0  0  0
 45 46  2  0  0  0
 45114  1  0  0  0
 46115  1  0  0  0
 47116  1  0  0  0
 47117  1  0  0  0
 48 56  1  0  0  0
 48 65  1  0  0  0
 48118  1  0  0  0
 49 50  1  0  0  0
 49 53  1  0  0  0
 49 64  1  0  0  0
 49119  1  0  0  0
 50 51  1  0  0  0
 50120  1  0  0  0
 50121  1  0  0  0
 51 52  1  0  0  0
 51122  1  0  0  0
 51123  1  0  0  0
 52124  1  0  0  0
 52125  1  0  0  0
 53 54  1  0  0  0
 54 55  2  0  0  0
 54126  1  0  0  0
 55 57  1  0  0  0
 55127  1  0  0  0
 56 69  2  0  0  0
 57 58  2  0  0  0
 57128  1  0  0  0
 58129  1  0  0  0
 59 60  1  0  0  0
 59 61  1  0  0  0
 59 62  1  0  0  0
 60130  1  0  0  0
 60131  1  0  0  0
 60132  1  0  0  0
 61133  1  0  0  0
 61134  1  0  0  0
 61135  1  0  0  0
 62136  1  0  0  0
 62137  1  0  0  0
 62138  1  0  0  0
 63 65  1  0  0  0
 63139  1  0  0  0
 63140  1  0  0  0
 63141  1  0  0  0
 64142  1  0  0  0
 65143  1  0  0  0
 68 82  1  0  0  0
 71 74  2  0  0  0
 71 75  1  0  0  0
 71144  1  0  0  0
 72 74  1  0  0  0
 72 76  2  0  0  0
 72145  1  0  0  0
 73 75  2  0  0  0
 73 76  1  0  0  0
 73146  1  0  0  0
 74 77  1  0  0  0
 75 80  1  0  0  0
 76 84  1  0  0  0
 77147  1  0  0  0
 77148  1  0  0  0
 77149  1  0  0  0
 78150  1  0  0  0
 78151  1  0  0  0
 78152  1  0  0  0
 78 83  1  0  0  0
 79 83  1  0  0  0
 79153  1  0  0  0
 79154  1  0  0  0
 79155  1  0  0  0
 80 81  1  0  0  0
 80156  1  0  0  0
 80157  1  0  0  0
 81 83  1  0  0  0
 81158  1  0  0  0
 81159  1  0  0  0
 82 83  1  0  0  0
 82160  1  0  0  0
 82161  1  0  0  0
 84162  1  0  0  0
M  ISO  4   1 100  68 101  82 101  84 100
M  END
> <chiral flag>
0

> <version>
0

> <s_m_source_file>
/data/baiqing/PycharmProjects/Reinvent-master-3.2/result/LINK_invent/BTK/process_docking_weight1_custom_product_contain_oxygen_bond_distance_aromatic_linkinvent_7_9_3/rearranged_h_0135.sdf

> <i_m_source_file_index>
23

> <r_mmod_Potential_Energy-OPLS-2005>
149.668838500977

> <r_mmod_Stretch_Energy-OPLS-2005>
106.21174621582

> <r_mmod_Bend_Energy-OPLS-2005>
145.256240844727

> <r_mmod_Torsional_Energy-OPLS-2005>
255.195159912109

> <r_mmod_Improper_Torsional_Energy-OPLS-2005>
5.10372686386108

> <r_mmod_Van_der_Waal_Energy-OPLS-2005>
137.035079956055

> <r_mmod_Electrostatic_Energy-OPLS-2005>
-366.044464111328

> <r_mmod_Solvation_Energy-OPLS-2005>
-198.314376831055

> <b_mmod_Minimization_Converged-OPLS-2005>
0

> <r_mmod_RMS_Derivative-OPLS-2005>
3.56095004081726

$$$$
23
                    3D
 Structure written by MMmdl.
165173  0  0  1  0            999 V2000
  -30.5258  -14.8694   20.4291 C   0  0  0  0  0  0
  -30.4469  -12.5277   19.4796 C   0  0  0  0  0  0
  -29.5190  -12.5219   18.2419 C   0  0  0  0  0  0
  -28.0469  -12.3238   18.6525 C   0  0  0  0  0  0
  -27.6361  -13.2318   19.8415 C   0  0  2  0  0  0
  -28.6810  -13.1949   20.9746 C   0  0  0  0  0  0
  -25.2496  -13.8145   20.5771 C   0  0  0  0  0  0
  -24.1799  -13.0386   20.9220 C   0  0  0  0  0  0
  -24.6411  -11.6879   20.8750 C   0  0  0  0  0  0
  -23.9101  -10.4260   21.0395 C   0  0  0  0  0  0
  -24.3643   -9.4157   21.9152 C   0  0  0  0  0  0
  -23.6288   -8.2210   22.0718 C   0  0  0  0  0  0
  -22.4254   -8.0290   21.3522 C   0  0  0  0  0  0
  -21.9921   -9.0277   20.4614 C   0  0  0  0  0  0
  -22.7287  -10.2129   20.3033 C   0  0  0  0  0  0
  -21.6835   -6.0739   22.5295 C   0  0  0  0  0  0
  -21.4016   -6.5625   23.8246 C   0  0  0  0  0  0
  -21.3659   -5.6763   24.9204 C   0  0  0  0  0  0
  -21.6040   -4.3027   24.7238 C   0  0  0  0  0  0
  -21.8808   -3.8140   23.4355 C   0  0  0  0  0  0
  -21.9176   -4.6962   22.3420 C   0  0  0  0  0  0
  -22.7823  -13.5181   21.1878 C   0  0  0  0  0  0
  -22.1644   -4.2161   21.0985 F   0  0  0  0  0  0
  -21.5609   -3.4502   25.7736 F   0  0  0  0  0  0
  -29.9674  -13.5989   20.3901 N   0  0  0  0  0  0
  -26.2920  -12.9380   20.3253 N   0  0  0  0  0  0
  -25.9335  -11.6522   20.5721 N   0  0  0  0  0  0
  -22.0469  -12.8198   22.0459 N   0  0  0  0  0  0
  -25.4145  -15.1863   20.4304 N   0  0  0  0  0  0
  -31.7268  -14.9995   20.1707 O   0  0  0  0  0  0
  -21.6588   -6.8900   21.4264 O   0  0  0  0  0  0
  -22.3527  -14.5481   20.6675 O   0  0  0  0  0  0
  -24.6360  -31.8504   23.1889 C   0  0  0  0  0  0
  -25.9162  -32.4725   23.8253 C   0  0  1  0  0  0
  -27.2186  -27.1866   20.1637 C   0  0  0  0  0  0
  -25.5939  -33.8519   24.2209 N   0  0  0  0  0  0
  -23.4361  -30.4680   21.5372 C   0  0  2  0  0  0
  -24.8862  -28.8915   20.1213 C   0  0  0  0  0  0
  -22.7516  -29.4575   22.4890 C   0  0  0  0  0  0
  -18.0324  -28.1451   22.8399 C   0  0  0  0  0  0
  -24.1490  -36.7266   23.2631 C   0  0  0  0  0  0
  -25.9867  -30.7376   21.3812 C   0  0  0  0  0  0
  -26.0578  -29.3489   20.7374 C   0  0  0  0  0  0
  -27.2279  -28.5101   20.7423 C   0  0  0  0  0  0
  -26.0246  -26.8103   19.5184 C   0  0  0  0  0  0
  -24.8778  -27.6329   19.4967 C   0  0  0  0  0  0
  -23.6612  -29.7923   20.1592 C   0  0  0  0  0  0
  -25.4120  -36.3039   24.0320 C   0  0  1  0  0  0
  -20.5915  -28.3730   23.1330 C   0  0  2  0  0  0
  -20.6802  -26.9433   22.5508 C   0  0  0  0  0  0
  -19.5896  -26.6464   21.5183 C   0  0  0  0  0  0
  -18.1956  -26.8123   22.1298 C   0  0  0  0  0  0
  -19.1561  -28.8876   23.2911 C   0  0  0  0  0  0
  -18.9461  -30.1428   23.9031 C   0  0  0  0  0  0
  -17.6445  -30.6548   24.0662 C   0  0  0  0  0  0
  -25.9067  -34.9418   23.5076 C   0  0  0  0  0  0
  -16.5357  -29.9075   23.6322 C   0  0  0  0  0  0
  -16.7307  -28.6553   23.0247 C   0  0  0  0  0  0
  -26.4497  -31.6557   25.0667 C   0  0  0  0  0  0
  -25.3679  -31.3756   26.1359 C   0  0  0  0  0  0
  -27.0342  -30.2948   24.6203 C   0  0  0  0  0  0
  -27.6049  -32.4281   25.7462 C   0  0  0  0  0  0
  -27.5586  -37.1789   24.8460 C   0  0  0  0  0  0
  -21.4213  -29.3048   22.3655 N   0  0  0  0  0  0
  -26.4288  -37.3745   23.9416 N   0  0  0  0  0  0
  -24.7055  -31.0399   22.0921 N   0  0  0  0  0  0
  -23.4186  -28.8103   23.3008 O   0  0  0  0  0  0
  -28.3138  -26.2721   20.1256 O   0  0  0  0  0  0
  -26.5631  -34.8928   22.4636 O   0  0  0  0  0  0
  -23.5498  -32.1337   23.7162 O   0  0  0  0  0  0
  -30.0900  -19.7359   21.5197 C   0  0  0  0  0  0
  -30.2861  -18.3045   21.4434 C   0  0  0  0  0  0
  -28.7423  -19.6937   19.5843 C   0  0  0  0  0  0
  -29.2859  -20.5170   20.6225 C   0  0  0  0  0  0
  -28.9161  -18.2478   19.5014 C   0  0  0  0  0  0
  -29.6883  -17.4754   20.4484 C   0  0  0  0  0  0
  -26.0196  -16.8496   17.2707 C   0  0  0  0  0  0
  -29.3260  -23.5256   18.7712 C   0  0  0  0  0  0
  -27.0227  -22.9684   19.5632 C   0  0  0  0  0  0
  -29.0406  -22.1153   20.9349 C   0  0  0  0  0  0
  -28.2336  -17.5363   18.3390 C   0  0  0  0  0  0
  -26.7068  -17.7121   18.3359 C   0  0  0  0  0  0
  -28.2735  -24.8698   20.7482 C   0  0  0  0  0  0
  -28.4371  -23.3680   20.0173 C   0  0  0  0  0  0
  -29.6396  -15.9602   20.5319 N   0  0  0  0  0  0
  -31.4825  -12.6843   19.1764 H   0  0  0  0  0  0
  -30.4286  -11.5590   19.9820 H   0  0  0  0  0  0
  -29.8269  -11.7462   17.5400 H   0  0  0  0  0  0
  -29.6188  -13.4708   17.7128 H   0  0  0  0  0  0
  -27.9133  -11.2760   18.9252 H   0  0  0  0  0  0
  -27.3938  -12.5049   17.7986 H   0  0  0  0  0  0
  -27.6144  -14.2472   19.4482 H   0  0  0  0  0  0
  -28.7392  -12.1935   21.4057 H   0  0  0  0  0  0
  -28.3953  -13.8687   21.7844 H   0  0  0  0  0  0
  -25.2789   -9.5610   22.4743 H   0  0  0  0  0  0
  -23.9961   -7.4601   22.7449 H   0  0  0  0  0  0
  -21.0834   -8.8859   19.8920 H   0  0  0  0  0  0
  -22.3784  -10.9689   19.6154 H   0  0  0  0  0  0
  -21.2019   -7.6129   23.9774 H   0  0  0  0  0  0
  -21.1489   -6.0478   25.9116 H   0  0  0  0  0  0
  -22.0586   -2.7603   23.2865 H   0  0  0  0  0  0
  -22.4038  -11.9855   22.4869 H   0  0  0  0  0  0
  -21.1115  -13.1297   22.2669 H   0  0  0  0  0  0
  -24.6234  -15.8173   20.5004 H   0  0  0  0  0  0
  -26.2391  -15.6285   20.0536 H   0  0  0  0  0  0
  -26.7228  -32.5357   23.0988 H   0  0  0  0  0  0
  -25.0090  -33.9614   25.0361 H   0  0  0  0  0  0
  -22.7341  -31.2895   21.3834 H   0  0  0  0  0  0
  -23.3756  -35.9591   23.3276 H   0  0  0  0  0  0
  -24.3579  -36.8892   22.2041 H   0  0  0  0  0  0
  -23.7249  -37.6462   23.6677 H   0  0  0  0  0  0
  -26.1292  -31.4834   20.5970 H   0  0  0  0  0  0
  -26.8651  -30.7969   22.0150 H   0  0  0  0  0  0
  -28.1258  -28.8593   21.2314 H   0  0  0  0  0  0
  -25.9779  -25.8531   19.0226 H   0  0  0  0  0  0
  -23.9894  -27.2761   18.9946 H   0  0  0  0  0  0
  -23.7946  -30.5636   19.3993 H   0  0  0  0  0  0
  -22.7792  -29.2263   19.8524 H   0  0  0  0  0  0
  -25.1311  -36.1855   25.0809 H   0  0  0  0  0  0
  -21.0014  -28.3320   24.1448 H   0  0  0  0  0  0
  -20.5648  -26.2354   23.3714 H   0  0  0  0  0  0
  -21.6697  -26.7437   22.1362 H   0  0  0  0  0  0
  -19.7007  -25.6376   21.1192 H   0  0  0  0  0  0
  -19.7084  -27.3304   20.6769 H   0  0  0  0  0  0
  -17.4516  -26.7324   21.3365 H   0  0  0  0  0  0
  -17.9860  -26.0079   22.8357 H   0  0  0  0  0  0
  -19.7906  -30.7203   24.2509 H   0  0  0  0  0  0
  -17.4999  -31.6204   24.5310 H   0  0  0  0  0  0
  -15.5355  -30.2982   23.7609 H   0  0  0  0  0  0
  -15.8750  -28.0908   22.6802 H   0  0  0  0  0  0
  -24.5925  -30.7015   25.7718 H   0  0  0  0  0  0
  -24.8774  -32.2917   26.4634 H   0  0  0  0  0  0
  -25.7938  -30.9068   27.0232 H   0  0  0  0  0  0
  -26.2935  -29.6685   24.1214 H   0  0  0  0  0  0
  -27.3975  -29.7228   25.4753 H   0  0  0  0  0  0
  -27.8843  -30.4195   23.9492 H   0  0  0  0  0  0
  -27.2693  -33.3635   26.1961 H   0  0  0  0  0  0
  -28.3919  -32.6727   25.0315 H   0  0  0  0  0  0
  -28.0650  -31.8422   26.5421 H   0  0  0  0  0  0
  -28.2584  -38.0109   24.7510 H   0  0  0  0  0  0
  -28.1103  -36.2621   24.6285 H   0  0  0  0  0  0
  -27.2298  -37.1446   25.8863 H   0  0  0  0  0  0
  -20.9376  -29.8762   21.6868 H   0  0  0  0  0  0
  -26.0153  -38.2819   24.1381 H   0  0  0  0  0  0
  -30.5608  -20.2515   22.3448 H   0  0  0  0  0  0
  -30.8738  -17.8288   22.2154 H   0  0  0  0  0  0
  -28.1381  -20.1709   18.8287 H   0  0  0  0  0  0
  -24.9358  -16.9584   17.3256 H   0  0  0  0  0  0
  -26.2511  -15.7918   17.3978 H   0  0  0  0  0  0
  -26.3379  -17.1416   16.2686 H   0  0  0  0  0  0
  -29.4238  -22.5876   18.2244 H   0  0  0  0  0  0
  -30.3286  -23.8619   19.0325 H   0  0  0  0  0  0
  -28.9053  -24.2568   18.0805 H   0  0  0  0  0  0
  -27.0133  -22.0092   19.0539 H   0  0  0  0  0  0
  -26.6009  -23.7002   18.8760 H   0  0  0  0  0  0
  -26.3511  -22.8897   20.4195 H   0  0  0  0  0  0
  -30.0162  -22.4632   21.2779 H   0  0  0  0  0  0
  -28.4292  -22.1122   21.8399 H   0  0  0  0  0  0
  -28.4717  -16.4729   18.3377 H   0  0  0  0  0  0
  -28.6522  -17.9279   17.4119 H   0  0  0  0  0  0
  -26.3099  -17.4633   19.3198 H   0  0  0  0  0  0
  -26.4447  -18.7573   18.1690 H   0  0  0  0  0  0
  -29.0962  -24.9214   21.4621 H   0  0  0  0  0  0
  -27.3963  -24.8297   21.3953 H   0  0  0  0  0  0
  -28.6942  -15.6201   20.6073 H   0  0  0  0  0  0
  1 25  1  0  0  0
  1 30  2  0  0  0
  1 85  1  0  0  0
  2  3  1  0  0  0
  2 25  1  0  0  0
  2 86  1  0  0  0
  2 87  1  0  0  0
  3  4  1  0  0  0
  3 88  1  0  0  0
  3 89  1  0  0  0
  4  5  1  0  0  0
  4 90  1  0  0  0
  4 91  1  0  0  0
  5  6  1  0  0  0
  5 26  1  0  0  0
  5 92  1  0  0  0
  6 25  1  0  0  0
  6 93  1  0  0  0
  6 94  1  0  0  0
  7  8  2  0  0  0
  7 26  1  0  0  0
  7 29  1  0  0  0
  8  9  1  0  0  0
  8 22  1  0  0  0
  9 10  1  0  0  0
  9 27  2  0  0  0
 10 11  2  0  0  0
 10 15  1  0  0  0
 11 12  1  0  0  0
 11 95  1  0  0  0
 12 13  2  0  0  0
 12 96  1  0  0  0
 13 14  1  0  0  0
 13 31  1  0  0  0
 14 15  2  0  0  0
 14 97  1  0  0  0
 15 98  1  0  0  0
 16 17  2  0  0  0
 16 21  1  0  0  0
 16 31  1  0  0  0
 17 18  1  0  0  0
 17 99  1  0  0  0
 18 19  2  0  0  0
 18100  1  0  0  0
 19 20  1  0  0  0
 19 24  1  0  0  0
 20 21  2  0  0  0
 20101  1  0  0  0
 21 23  1  0  0  0
 22 28  1  0  0  0
 22 32  2  0  0  0
 26 27  1  0  0  0
 28102  1  0  0  0
 28103  1  0  0  0
 29104  1  0  0  0
 29105  1  0  0  0
 33 34  1  0  0  0
 33 66  1  0  0  0
 33 70  2  0  0  0
 34 36  1  0  0  0
 34 59  1  0  0  0
 34106  1  0  0  0
 35 44  2  0  0  0
 35 45  1  0  0  0
 35 68  1  0  0  0
 36 56  1  0  0  0
 36107  1  0  0  0
 37 39  1  0  0  0
 37 47  1  0  0  0
 37 66  1  0  0  0
 37108  1  0  0  0
 38 43  2  0  0  0
 38 46  1  0  0  0
 38 47  1  0  0  0
 39 64  1  0  0  0
 39 67  2  0  0  0
 40 52  1  0  0  0
 40 53  2  0  0  0
 40 58  1  0  0  0
 41109  1  0  0  0
 41110  1  0  0  0
 41111  1  0  0  0
 41 48  1  0  0  0
 42 43  1  0  0  0
 42 66  1  0  0  0
 42112  1  0  0  0
 42113  1  0  0  0
 43 44  1  0  0  0
 44114  1  0  0  0
 45 46  2  0  0  0
 45115  1  0  0  0
 46116  1  0  0  0
 47117  1  0  0  0
 47118  1  0  0  0
 48 56  1  0  0  0
 48 65  1  0  0  0
 48119  1  0  0  0
 49 50  1  0  0  0
 49 53  1  0  0  0
 49 64  1  0  0  0
 49120  1  0  0  0
 50 51  1  0  0  0
 50121  1  0  0  0
 50122  1  0  0  0
 51 52  1  0  0  0
 51123  1  0  0  0
 51124  1  0  0  0
 52125  1  0  0  0
 52126  1  0  0  0
 53 54  1  0  0  0
 54 55  2  0  0  0
 54127  1  0  0  0
 55 57  1  0  0  0
 55128  1  0  0  0
 56 69  2  0  0  0
 57 58  2  0  0  0
 57129  1  0  0  0
 58130  1  0  0  0
 59 60  1  0  0  0
 59 61  1  0  0  0
 59 62  1  0  0  0
 60131  1  0  0  0
 60132  1  0  0  0
 60133  1  0  0  0
 61134  1  0  0  0
 61135  1  0  0  0
 61136  1  0  0  0
 62137  1  0  0  0
 62138  1  0  0  0
 62139  1  0  0  0
 63 65  1  0  0  0
 63140  1  0  0  0
 63141  1  0  0  0
 63142  1  0  0  0
 64143  1  0  0  0
 65144  1  0  0  0
 68 83  1  0  0  0
 71 72  2  0  0  0
 71 74  1  0  0  0
 71145  1  0  0  0
 72 76  1  0  0  0
 72146  1  0  0  0
 73 74  2  0  0  0
 73 75  1  0  0  0
 73147  1  0  0  0
 74 80  1  0  0  0
 75 76  2  0  0  0
 75 81  1  0  0  0
 76 85  1  0  0  0
 77 82  1  0  0  0
 77148  1  0  0  0
 77149  1  0  0  0
 77150  1  0  0  0
 78151  1  0  0  0
 78152  1  0  0  0
 78153  1  0  0  0
 78 84  1  0  0  0
 79 84  1  0  0  0
 79154  1  0  0  0
 79155  1  0  0  0
 79156  1  0  0  0
 80 84  1  0  0  0
 80157  1  0  0  0
 80158  1  0  0  0
 81 82  1  0  0  0
 81159  1  0  0  0
 81160  1  0  0  0
 82161  1  0  0  0
 82162  1  0  0  0
 83 84  1  0  0  0
 83163  1  0  0  0
 83164  1  0  0  0
 85165  1  0  0  0
M  ISO  4   1 100  68 101  83 101  85 100
M  END
> <chiral flag>
0

> <version>
0

> <s_m_source_file>
/data/baiqing/PycharmProjects/Reinvent-master-3.2/result/LINK_invent/BTK/process_docking_weight1_custom_product_contain_oxygen_bond_distance_aromatic_linkinvent_7_9_3/rearranged_h_0135.sdf

> <i_m_source_file_index>
24

> <r_mmod_Potential_Energy-OPLS-2005>
428.512878417969

> <r_mmod_Stretch_Energy-OPLS-2005>
195.370254516602

> <r_mmod_Bend_Energy-OPLS-2005>
257.397430419922

> <r_mmod_Torsional_Energy-OPLS-2005>
275.018920898438

> <r_mmod_Improper_Torsional_Energy-OPLS-2005>
7.58251857757568

> <r_mmod_Van_der_Waal_Energy-OPLS-2005>
115.696250915527

> <r_mmod_Electrostatic_Energy-OPLS-2005>
-370.219024658203

> <r_mmod_Solvation_Energy-OPLS-2005>
-193.070709228516

> <b_mmod_Minimization_Converged-OPLS-2005>
0

> <r_mmod_RMS_Derivative-OPLS-2005>
3.82457304000854

$$$$
24
                    3D
 Structure written by MMmdl.
159167  0  0  1  0            999 V2000
  -30.5905  -14.7261   20.4272 C   0  0  0  0  0  0
  -30.4273  -12.4393   19.4644 C   0  0  0  0  0  0
  -29.5074  -12.5159   18.2271 C   0  0  0  0  0  0
  -28.0296  -12.3552   18.6350 C   0  0  0  0  0  0
  -27.6374  -13.2347   19.8518 C   0  0  2  0  0  0
  -28.6820  -13.1490   20.9832 C   0  0  0  0  0  0
  -25.2486  -13.8203   20.5714 C   0  0  0  0  0  0
  -24.1792  -13.0447   20.9209 C   0  0  0  0  0  0
  -24.6389  -11.6927   20.8748 C   0  0  0  0  0  0
  -23.9066  -10.4287   21.0412 C   0  0  0  0  0  0
  -24.3613   -9.4215   21.9197 C   0  0  0  0  0  0
  -23.6301   -8.2248   22.0760 C   0  0  0  0  0  0
  -22.4281   -8.0274   21.3560 C   0  0  0  0  0  0
  -21.9904   -9.0238   20.4660 C   0  0  0  0  0  0
  -22.7221  -10.2127   20.3072 C   0  0  0  0  0  0
  -21.6871   -6.0736   22.5289 C   0  0  0  0  0  0
  -21.4009   -6.5647   23.8219 C   0  0  0  0  0  0
  -21.3676   -5.6799   24.9192 C   0  0  0  0  0  0
  -21.6041   -4.3047   24.7236 C   0  0  0  0  0  0
  -21.8822   -3.8154   23.4353 C   0  0  0  0  0  0
  -21.9200   -4.6966   22.3415 C   0  0  0  0  0  0
  -22.7823  -13.5232   21.1886 C   0  0  0  0  0  0
  -22.1660   -4.2181   21.0987 F   0  0  0  0  0  0
  -21.5651   -3.4502   25.7722 F   0  0  0  0  0  0
  -29.9843  -13.4929   20.4029 N   0  0  0  0  0  0
  -26.2914  -12.9408   20.3304 N   0  0  0  0  0  0
  -25.9316  -11.6551   20.5760 N   0  0  0  0  0  0
  -22.0476  -12.8201   22.0425 N   0  0  0  0  0  0
  -25.4158  -15.1935   20.4155 N   0  0  0  0  0  0
  -31.7984  -14.8114   20.1990 O   0  0  0  0  0  0
  -21.6676   -6.8857   21.4240 O   0  0  0  0  0  0
  -22.3519  -14.5535   20.6733 O   0  0  0  0  0  0
  -24.6288  -31.8581   23.1981 C   0  0  0  0  0  0
  -25.9133  -32.4768   23.8326 C   0  0  1  0  0  0
  -27.2191  -27.2919   20.1281 C   0  0  0  0  0  0
  -25.5968  -33.8571   24.2277 N   0  0  0  0  0  0
  -23.4238  -30.4803   21.5400 C   0  0  2  0  0  0
  -24.8709  -28.9221   20.1114 C   0  0  0  0  0  0
  -22.7487  -29.4614   22.4887 C   0  0  0  0  0  0
  -18.0304  -28.1359   22.8457 C   0  0  0  0  0  0
  -24.1495  -36.7293   23.2627 C   0  0  0  0  0  0
  -25.9656  -30.7821   21.3675 C   0  0  0  0  0  0
  -26.0407  -29.4024   20.7160 C   0  0  0  0  0  0
  -27.2239  -28.6034   20.7011 C   0  0  0  0  0  0
  -26.0301  -26.8586   19.5107 C   0  0  0  0  0  0
  -24.8690  -27.6592   19.4948 C   0  0  0  0  0  0
  -23.6426  -29.8113   20.1559 C   0  0  0  0  0  0
  -25.4121  -36.3078   24.0314 C   0  0  1  0  0  0
  -20.5898  -28.3688   23.1234 C   0  0  2  0  0  0
  -20.6790  -26.9402   22.5388 C   0  0  0  0  0  0
  -19.5783  -26.6360   21.5181 C   0  0  0  0  0  0
  -18.1957  -26.7901   22.1584 C   0  0  0  0  0  0
  -19.1552  -28.8836   23.2849 C   0  0  0  0  0  0
  -18.9474  -30.1435   23.8881 C   0  0  0  0  0  0
  -17.6476  -30.6558   24.0553 C   0  0  0  0  0  0
  -25.9058  -34.9444   23.5089 C   0  0  0  0  0  0
  -16.5367  -29.9058   23.6314 C   0  0  0  0  0  0
  -16.7291  -28.6469   23.0335 C   0  0  0  0  0  0
  -26.4526  -31.6559   25.0688 C   0  0  0  0  0  0
  -25.3773  -31.3660   26.1419 C   0  0  0  0  0  0
  -27.0355  -30.2986   24.6095 C   0  0  0  0  0  0
  -27.6074  -32.4281   25.7496 C   0  0  0  0  0  0
  -27.5594  -37.1799   24.8454 C   0  0  0  0  0  0
  -21.4197  -29.3055   22.3635 N   0  0  0  0  0  0
  -26.4291  -37.3788   23.9415 N   0  0  0  0  0  0
  -24.6922  -31.0562   22.0941 N   0  0  0  0  0  0
  -23.4197  -28.8163   23.2982 O   0  0  0  0  0  0
  -28.3356  -26.4453   20.0945 O   0  0  0  0  0  0
  -26.5606  -34.8918   22.4643 O   0  0  0  0  0  0
  -23.5436  -32.1389   23.7289 O   0  0  0  0  0  0
  -30.1373  -19.9923   19.1045 C   0  0  0  0  0  0
  -30.8336  -18.9506   18.4776 C   0  0  0  0  0  0
  -29.1951  -18.3569   20.6387 C   0  0  0  0  0  0
  -29.2660  -19.7324   20.1694 C   0  0  0  0  0  0
  -30.6856  -17.6002   18.8744 C   0  0  0  0  0  0
  -29.9245  -17.2504   20.0327 C   0  0  0  0  0  0
  -31.2755  -16.5830   17.9143 C   0  0  0  0  0  0
  -28.8269  -23.7816   18.6107 C   0  0  0  0  0  0
  -28.3477  -20.9287   20.6493 C   0  0  0  0  0  0
  -28.9233  -22.4293   20.7976 C   0  0  0  0  0  0
  -28.2969  -25.1289   20.7910 C   0  0  0  0  0  0
  -28.2540  -23.6959   20.0379 C   0  0  1  0  0  0
  -29.7705  -15.8451   20.5068 N   0  0  0  0  0  0
  -31.4688  -12.5663   19.1630 H   0  0  0  0  0  0
  -30.3654  -11.4586   19.9372 H   0  0  0  0  0  0
  -29.7835  -11.7470   17.5036 H   0  0  0  0  0  0
  -29.6487  -13.4753   17.7262 H   0  0  0  0  0  0
  -27.8619  -11.3024   18.8647 H   0  0  0  0  0  0
  -27.3840  -12.5902   17.7867 H   0  0  0  0  0  0
  -27.6311  -14.2627   19.4888 H   0  0  0  0  0  0
  -28.7080  -12.1477   21.4139 H   0  0  0  0  0  0
  -28.4251  -13.8277   21.7995 H   0  0  0  0  0  0
  -25.2766   -9.5711   22.4776 H   0  0  0  0  0  0
  -24.0045   -7.4637   22.7450 H   0  0  0  0  0  0
  -21.0853   -8.8731   19.8942 H   0  0  0  0  0  0
  -22.3676  -10.9664   19.6179 H   0  0  0  0  0  0
  -21.1970   -7.6159   23.9716 H   0  0  0  0  0  0
  -21.1513   -6.0549   25.9098 H   0  0  0  0  0  0
  -22.0581   -2.7620   23.2856 H   0  0  0  0  0  0
  -22.4090  -11.9874   22.4834 H   0  0  0  0  0  0
  -21.1099  -13.1244   22.2616 H   0  0  0  0  0  0
  -24.6371  -15.8385   20.4956 H   0  0  0  0  0  0
  -26.2587  -15.6345   20.0687 H   0  0  0  0  0  0
  -26.7198  -32.5427   23.1068 H   0  0  0  0  0  0
  -25.0222  -33.9742   25.0494 H   0  0  0  0  0  0
  -22.7190  -31.3025   21.3919 H   0  0  0  0  0  0
  -23.3769  -35.9610   23.3243 H   0  0  0  0  0  0
  -24.3602  -36.8970   22.2054 H   0  0  0  0  0  0
  -23.7223  -37.6468   23.6684 H   0  0  0  0  0  0
  -26.0923  -31.5395   20.5920 H   0  0  0  0  0  0
  -26.8474  -30.8398   21.9932 H   0  0  0  0  0  0
  -28.1321  -28.9787   21.1498 H   0  0  0  0  0  0
  -26.0026  -25.8884   19.0331 H   0  0  0  0  0  0
  -23.9759  -27.2922   19.0075 H   0  0  0  0  0  0
  -23.7773  -30.5896   19.4035 H   0  0  0  0  0  0
  -22.7580  -29.2532   19.8429 H   0  0  0  0  0  0
  -25.1292  -36.1923   25.0801 H   0  0  0  0  0  0
  -21.0010  -28.3280   24.1345 H   0  0  0  0  0  0
  -20.5653  -26.2323   23.3609 H   0  0  0  0  0  0
  -21.6666  -26.7414   22.1210 H   0  0  0  0  0  0
  -19.6962  -25.6260   21.1249 H   0  0  0  0  0  0
  -19.6725  -27.3135   20.6679 H   0  0  0  0  0  0
  -17.4233  -26.6642   21.3981 H   0  0  0  0  0  0
  -18.0366  -26.0031   22.8965 H   0  0  0  0  0  0
  -19.7957  -30.7253   24.2243 H   0  0  0  0  0  0
  -17.5026  -31.6234   24.5163 H   0  0  0  0  0  0
  -15.5364  -30.2958   23.7628 H   0  0  0  0  0  0
  -15.8690  -28.0791   22.7044 H   0  0  0  0  0  0
  -24.5974  -30.6991   25.7743 H   0  0  0  0  0  0
  -24.8961  -32.2805   26.4874 H   0  0  0  0  0  0
  -25.8126  -30.8829   27.0172 H   0  0  0  0  0  0
  -26.2892  -29.6734   24.1185 H   0  0  0  0  0  0
  -27.4148  -29.7234   25.4546 H   0  0  0  0  0  0
  -27.8726  -30.4284   23.9237 H   0  0  0  0  0  0
  -27.2682  -33.3572   26.2079 H   0  0  0  0  0  0
  -28.3916  -32.6837   25.0364 H   0  0  0  0  0  0
  -28.0707  -31.8402   26.5427 H   0  0  0  0  0  0
  -28.2540  -38.0166   24.7563 H   0  0  0  0  0  0
  -28.1163  -36.2690   24.6181 H   0  0  0  0  0  0
  -27.2325  -37.1314   25.8860 H   0  0  0  0  0  0
  -20.9362  -29.8823   21.6891 H   0  0  0  0  0  0
  -26.0156  -38.2848   24.1463 H   0  0  0  0  0  0
  -30.2215  -20.9957   18.7071 H   0  0  0  0  0  0
  -31.4445  -19.1965   17.6205 H   0  0  0  0  0  0
  -28.5259  -18.1406   21.4585 H   0  0  0  0  0  0
  -31.3399  -16.9959   16.9073 H   0  0  0  0  0  0
  -30.6378  -15.7052   17.8436 H   0  0  0  0  0  0
  -32.2832  -16.2954   18.2099 H   0  0  0  0  0  0
  -28.6214  -22.8648   18.0551 H   0  0  0  0  0  0
  -29.9071  -23.9273   18.6121 H   0  0  0  0  0  0
  -28.3858  -24.6021   18.0443 H   0  0  0  0  0  0
  -27.9094  -20.6394   21.6067 H   0  0  0  0  0  0
  -27.4987  -20.9611   19.9664 H   0  0  0  0  0  0
  -29.9909  -22.4158   20.5773 H   0  0  0  0  0  0
  -28.9008  -22.6525   21.8644 H   0  0  0  0  0  0
  -29.1947  -25.1290   21.4113 H   0  0  0  0  0  0
  -27.4777  -25.1507   21.5138 H   0  0  0  0  0  0
  -27.1925  -23.4683   19.9255 H   0  0  0  0  0  0
  -28.8531  -15.6331   20.8690 H   0  0  0  0  0  0
  1 25  1  0  0  0
  1 30  2  0  0  0
  1 83  1  0  0  0
  2  3  1  0  0  0
  2 25  1  0  0  0
  2 84  1  0  0  0
  2 85  1  0  0  0
  3  4  1  0  0  0
  3 86  1  0  0  0
  3 87  1  0  0  0
  4  5  1  0  0  0
  4 88  1  0  0  0
  4 89  1  0  0  0
  5  6  1  0  0  0
  5 26  1  0  0  0
  5 90  1  0  0  0
  6 25  1  0  0  0
  6 91  1  0  0  0
  6 92  1  0  0  0
  7  8  2  0  0  0
  7 26  1  0  0  0
  7 29  1  0  0  0
  8  9  1  0  0  0
  8 22  1  0  0  0
  9 10  1  0  0  0
  9 27  2  0  0  0
 10 11  2  0  0  0
 10 15  1  0  0  0
 11 12  1  0  0  0
 11 93  1  0  0  0
 12 13  2  0  0  0
 12 94  1  0  0  0
 13 14  1  0  0  0
 13 31  1  0  0  0
 14 15  2  0  0  0
 14 95  1  0  0  0
 15 96  1  0  0  0
 16 17  2  0  0  0
 16 21  1  0  0  0
 16 31  1  0  0  0
 17 18  1  0  0  0
 17 97  1  0  0  0
 18 19  2  0  0  0
 18 98  1  0  0  0
 19 20  1  0  0  0
 19 24  1  0  0  0
 20 21  2  0  0  0
 20 99  1  0  0  0
 21 23  1  0  0  0
 22 28  1  0  0  0
 22 32  2  0  0  0
 26 27  1  0  0  0
 28100  1  0  0  0
 28101  1  0  0  0
 29102  1  0  0  0
 29103  1  0  0  0
 33 34  1  0  0  0
 33 66  1  0  0  0
 33 70  2  0  0  0
 34 36  1  0  0  0
 34 59  1  0  0  0
 34104  1  0  0  0
 35 44  2  0  0  0
 35 45  1  0  0  0
 35 68  1  0  0  0
 36 56  1  0  0  0
 36105  1  0  0  0
 37 39  1  0  0  0
 37 47  1  0  0  0
 37 66  1  0  0  0
 37106  1  0  0  0
 38 43  2  0  0  0
 38 46  1  0  0  0
 38 47  1  0  0  0
 39 64  1  0  0  0
 39 67  2  0  0  0
 40 52  1  0  0  0
 40 53  2  0  0  0
 40 58  1  0  0  0
 41107  1  0  0  0
 41108  1  0  0  0
 41109  1  0  0  0
 41 48  1  0  0  0
 42 43  1  0  0  0
 42 66  1  0  0  0
 42110  1  0  0  0
 42111  1  0  0  0
 43 44  1  0  0  0
 44112  1  0  0  0
 45 46  2  0  0  0
 45113  1  0  0  0
 46114  1  0  0  0
 47115  1  0  0  0
 47116  1  0  0  0
 48 56  1  0  0  0
 48 65  1  0  0  0
 48117  1  0  0  0
 49 50  1  0  0  0
 49 53  1  0  0  0
 49 64  1  0  0  0
 49118  1  0  0  0
 50 51  1  0  0  0
 50119  1  0  0  0
 50120  1  0  0  0
 51 52  1  0  0  0
 51121  1  0  0  0
 51122  1  0  0  0
 52123  1  0  0  0
 52124  1  0  0  0
 53 54  1  0  0  0
 54 55  2  0  0  0
 54125  1  0  0  0
 55 57  1  0  0  0
 55126  1  0  0  0
 56 69  2  0  0  0
 57 58  2  0  0  0
 57127  1  0  0  0
 58128  1  0  0  0
 59 60  1  0  0  0
 59 61  1  0  0  0
 59 62  1  0  0  0
 60129  1  0  0  0
 60130  1  0  0  0
 60131  1  0  0  0
 61132  1  0  0  0
 61133  1  0  0  0
 61134  1  0  0  0
 62135  1  0  0  0
 62136  1  0  0  0
 62137  1  0  0  0
 63 65  1  0  0  0
 63138  1  0  0  0
 63139  1  0  0  0
 63140  1  0  0  0
 64141  1  0  0  0
 65142  1  0  0  0
 68 81  1  0  0  0
 71 72  2  0  0  0
 71 74  1  0  0  0
 71143  1  0  0  0
 72 75  1  0  0  0
 72144  1  0  0  0
 73 74  2  0  0  0
 73 76  1  0  0  0
 73145  1  0  0  0
 74 79  1  0  0  0
 75 76  2  0  0  0
 75 77  1  0  0  0
 76 83  1  0  0  0
 77146  1  0  0  0
 77147  1  0  0  0
 77148  1  0  0  0
 78149  1  0  0  0
 78150  1  0  0  0
 78151  1  0  0  0
 78 82  1  0  0  0
 79 80  1  0  0  0
 79152  1  0  0  0
 79153  1  0  0  0
 80 82  1  0  0  0
 80154  1  0  0  0
 80155  1  0  0  0
 81 82  1  0  0  0
 81156  1  0  0  0
 81157  1  0  0  0
 82158  1  0  0  0
 83159  1  0  0  0
M  ISO  4   1 100  68 101  81 101  83 100
M  END
> <chiral flag>
0

> <version>
0

> <s_m_source_file>
/data/baiqing/PycharmProjects/Reinvent-master-3.2/result/LINK_invent/BTK/process_docking_weight1_custom_product_contain_oxygen_bond_distance_aromatic_linkinvent_7_9_3/rearranged_h_0135.sdf

> <i_m_source_file_index>
25

> <r_mmod_Potential_Energy-OPLS-2005>
198.381256103516

> <r_mmod_Stretch_Energy-OPLS-2005>
113.24910736084

> <r_mmod_Bend_Energy-OPLS-2005>
164.217910766602

> <r_mmod_Torsional_Energy-OPLS-2005>
286.478820800781

> <r_mmod_Improper_Torsional_Energy-OPLS-2005>
6.2028341293335

> <r_mmod_Van_der_Waal_Energy-OPLS-2005>
133.850692749023

> <r_mmod_Electrostatic_Energy-OPLS-2005>
-379.240234375

> <r_mmod_Solvation_Energy-OPLS-2005>
-198.138031005859

> <b_mmod_Minimization_Converged-OPLS-2005>
0

> <r_mmod_RMS_Derivative-OPLS-2005>
3.98972773551941

$$$$
25
                    3D
 Structure written by MMmdl.
180189  0  0  1  0            999 V2000
  -30.7669  -14.3392   20.7024 C   0  0  0  0  0  0
  -30.4170  -12.2806   19.3797 C   0  0  0  0  0  0
  -29.4817  -12.5280   18.1829 C   0  0  0  0  0  0
  -28.0059  -12.3855   18.6021 C   0  0  0  0  0  0
  -27.6687  -13.1986   19.8792 C   0  0  2  0  0  0
  -28.7080  -12.9253   20.9877 C   0  0  0  0  0  0
  -25.2630  -13.8147   20.5676 C   0  0  0  0  0  0
  -24.1857  -13.0430   20.9164 C   0  0  0  0  0  0
  -24.6400  -11.6899   20.8730 C   0  0  0  0  0  0
  -23.9061  -10.4287   21.0406 C   0  0  0  0  0  0
  -24.3613   -9.4206   21.9184 C   0  0  0  0  0  0
  -23.6291   -8.2240   22.0755 C   0  0  0  0  0  0
  -22.4273   -8.0280   21.3541 C   0  0  0  0  0  0
  -21.9905   -9.0255   20.4647 C   0  0  0  0  0  0
  -22.7236  -10.2134   20.3056 C   0  0  0  0  0  0
  -21.6852   -6.0737   22.5274 C   0  0  0  0  0  0
  -21.4012   -6.5639   23.8210 C   0  0  0  0  0  0
  -21.3656   -5.6795   24.9170 C   0  0  0  0  0  0
  -21.6045   -4.3057   24.7226 C   0  0  0  0  0  0
  -21.8820   -3.8147   23.4344 C   0  0  0  0  0  0
  -21.9193   -4.6963   22.3402 C   0  0  0  0  0  0
  -22.7886  -13.5245   21.1832 C   0  0  0  0  0  0
  -22.1663   -4.2152   21.0979 F   0  0  0  0  0  0
  -21.5627   -3.4538   25.7735 F   0  0  0  0  0  0
  -30.0478  -13.2170   20.4484 N   0  0  0  0  0  0
  -26.3065  -12.9301   20.3381 N   0  0  0  0  0  0
  -25.9326  -11.6464   20.5750 N   0  0  0  0  0  0
  -22.0526  -12.8238   22.0399 N   0  0  0  0  0  0
  -25.4382  -15.1857   20.4086 N   0  0  0  0  0  0
  -31.7890  -14.6296   20.0701 O   0  0  0  0  0  0
  -21.6634   -6.8878   21.4239 O   0  0  0  0  0  0
  -22.3571  -14.5550   20.6686 O   0  0  0  0  0  0
  -24.6118  -31.8706   23.2186 C   0  0  0  0  0  0
  -25.9039  -32.4823   23.8459 C   0  0  1  0  0  0
  -27.2316  -27.4906   20.0718 C   0  0  0  0  0  0
  -25.5929  -33.8624   24.2392 N   0  0  0  0  0  0
  -23.3980  -30.4987   21.5557 C   0  0  2  0  0  0
  -24.8450  -28.9842   20.1021 C   0  0  0  0  0  0
  -22.7382  -29.4686   22.5002 C   0  0  0  0  0  0
  -18.0280  -28.1421   22.8473 C   0  0  0  0  0  0
  -24.1491  -36.7299   23.2648 C   0  0  0  0  0  0
  -25.9249  -30.8520   21.3692 C   0  0  0  0  0  0
  -26.0009  -29.4967   20.7058 C   0  0  0  0  0  0
  -27.1973  -28.7530   20.7009 C   0  0  0  0  0  0
  -26.0773  -27.0063   19.4255 C   0  0  0  0  0  0
  -24.8759  -27.7342   19.4624 C   0  0  0  0  0  0
  -23.6035  -29.8422   20.1651 C   0  0  0  0  0  0
  -25.4108  -36.3102   24.0361 C   0  0  1  0  0  0
  -20.5882  -28.3619   23.1328 C   0  0  2  0  0  0
  -20.6755  -26.9336   22.5463 C   0  0  0  0  0  0
  -19.5758  -26.6369   21.5230 C   0  0  0  0  0  0
  -18.1897  -26.7999   22.1540 C   0  0  0  0  0  0
  -19.1543  -28.8834   23.2917 C   0  0  0  0  0  0
  -18.9481  -30.1441   23.8932 C   0  0  0  0  0  0
  -17.6485  -30.6588   24.0610 C   0  0  0  0  0  0
  -25.9030  -34.9467   23.5155 C   0  0  0  0  0  0
  -16.5366  -29.9110   23.6367 C   0  0  0  0  0  0
  -16.7270  -28.6562   23.0320 C   0  0  0  0  0  0
  -26.4503  -31.6566   25.0731 C   0  0  0  0  0  0
  -25.3781  -31.3619   26.1464 C   0  0  0  0  0  0
  -27.0317  -30.3020   24.6063 C   0  0  0  0  0  0
  -27.6116  -32.4263   25.7455 C   0  0  0  0  0  0
  -27.5588  -37.1786   24.8465 C   0  0  0  0  0  0
  -21.4127  -29.2947   22.3666 N   0  0  0  0  0  0
  -26.4296  -37.3786   23.9421 N   0  0  0  0  0  0
  -24.6625  -31.0859   22.1057 N   0  0  0  0  0  0
  -23.4139  -28.8330   23.3129 O   0  0  0  0  0  0
  -28.3387  -26.6818   20.1051 O   0  0  0  0  0  0
  -26.5562  -34.8902   22.4694 O   0  0  0  0  0  0
  -23.5327  -32.1437   23.7609 O   0  0  0  0  0  0
  -25.0860  -21.9855   19.8996 C   0  0  0  0  0  0
  -25.7446  -20.8652   19.3603 C   0  0  0  0  0  0
  -30.0013  -18.5542   24.9061 C   0  0  0  0  0  0
  -30.9058  -17.5054   24.5716 C   0  0  0  0  0  0
  -26.0623  -21.5082   22.0811 C   0  0  0  0  0  0
  -25.2423  -22.3077   21.2625 C   0  0  0  0  0  0
  -26.5938  -20.0815   20.1693 C   0  0  0  0  0  0
  -26.7772  -20.4206   21.5323 C   0  0  0  0  0  0
  -29.3504  -18.8876   23.7507 C   0  0  0  0  0  0
  -30.7485  -17.2810   23.2322 C   0  0  0  0  0  0
  -28.3065  -19.8820   23.4512 C   0  0  0  0  0  0
  -27.3095  -18.8838   19.5580 C   0  0  0  0  0  0
  -24.7010  -25.7848   22.9232 C   0  0  0  0  0  0
  -28.3732  -25.4597   23.7576 C   0  0  0  0  0  0
  -24.5505  -23.5237   21.8495 C   0  0  0  0  0  0
  -31.3268  -16.3311   22.2445 C   0  0  0  0  0  0
  -30.2924  -15.2773   21.8184 C   0  0  0  0  0  0
  -26.8328  -24.7513   21.8714 C   0  0  0  0  0  0
  -28.8183  -26.3497   21.4151 C   0  0  0  0  0  0
  -25.4848  -24.4981   22.6106 C   0  0  1  0  0  0
  -27.7300  -25.8867   22.4292 C   0  0  2  0  0  0
  -27.6951  -19.6464   22.2825 N   0  0  0  0  0  0
  -28.0441  -20.7932   24.2415 O   0  0  0  0  0  0
  -29.8040  -18.1110   22.7276 O   0  0  0  0  0  0
  -31.4596  -12.3833   19.0749 H   0  0  0  0  0  0
  -30.3140  -11.2546   19.7365 H   0  0  0  0  0  0
  -29.7102  -11.8303   17.3762 H   0  0  0  0  0  0
  -29.6551  -13.5279   17.7825 H   0  0  0  0  0  0
  -27.8082  -11.3266   18.7737 H   0  0  0  0  0  0
  -27.3523  -12.6874   17.7831 H   0  0  0  0  0  0
  -27.7332  -14.2551   19.6183 H   0  0  0  0  0  0
  -28.6661  -11.8789   21.2928 H   0  0  0  0  0  0
  -28.4503  -13.4921   21.8806 H   0  0  0  0  0  0
  -25.2759   -9.5674   22.4760 H   0  0  0  0  0  0
  -23.9997   -7.4629   22.7470 H   0  0  0  0  0  0
  -21.0837   -8.8774   19.8957 H   0  0  0  0  0  0
  -22.3697  -10.9671   19.6163 H   0  0  0  0  0  0
  -21.2003   -7.6147   23.9714 H   0  0  0  0  0  0
  -21.1478   -6.0522   25.9074 H   0  0  0  0  0  0
  -22.0605   -2.7611   23.2843 H   0  0  0  0  0  0
  -22.4132  -11.9892   22.4769 H   0  0  0  0  0  0
  -21.1151  -13.1279   22.2618 H   0  0  0  0  0  0
  -24.6769  -15.8468   20.5157 H   0  0  0  0  0  0
  -26.2982  -15.6155   20.0952 H   0  0  0  0  0  0
  -26.7104  -32.5579   23.1231 H   0  0  0  0  0  0
  -25.0108  -33.9798   25.0555 H   0  0  0  0  0  0
  -22.6854  -31.3155   21.4256 H   0  0  0  0  0  0
  -23.3753  -35.9628   23.3298 H   0  0  0  0  0  0
  -24.3594  -36.8901   22.2065 H   0  0  0  0  0  0
  -23.7230  -37.6501   23.6645 H   0  0  0  0  0  0
  -26.0439  -31.6299   20.6129 H   0  0  0  0  0  0
  -26.8108  -30.8920   21.9899 H   0  0  0  0  0  0
  -28.0841  -29.1405   21.1824 H   0  0  0  0  0  0
  -26.0989  -26.0477   18.9271 H   0  0  0  0  0  0
  -23.9901  -27.3352   18.9875 H   0  0  0  0  0  0
  -23.7029  -30.6254   19.4117 H   0  0  0  0  0  0
  -22.7292  -29.2586   19.8714 H   0  0  0  0  0  0
  -25.1287  -36.1983   25.0859 H   0  0  0  0  0  0
  -21.0013  -28.3192   24.1434 H   0  0  0  0  0  0
  -20.5644  -26.2209   23.3650 H   0  0  0  0  0  0
  -21.6622  -26.7338   22.1261 H   0  0  0  0  0  0
  -19.6882  -25.6282   21.1247 H   0  0  0  0  0  0
  -19.6806  -27.3169   20.6772 H   0  0  0  0  0  0
  -17.4244  -26.6943   21.3836 H   0  0  0  0  0  0
  -18.0117  -26.0107   22.8862 H   0  0  0  0  0  0
  -19.7958  -30.7260   24.2299 H   0  0  0  0  0  0
  -17.5037  -31.6251   24.5247 H   0  0  0  0  0  0
  -15.5371  -30.3013   23.7717 H   0  0  0  0  0  0
  -15.8661  -28.0932   22.6963 H   0  0  0  0  0  0
  -24.5990  -30.6956   25.7744 H   0  0  0  0  0  0
  -24.8946  -32.2747   26.4957 H   0  0  0  0  0  0
  -25.8155  -30.8732   27.0177 H   0  0  0  0  0  0
  -26.2809  -29.6733   24.1266 H   0  0  0  0  0  0
  -27.4240  -29.7322   25.4492 H   0  0  0  0  0  0
  -27.8593  -30.4338   23.9090 H   0  0  0  0  0  0
  -27.2794  -33.3573   26.2066 H   0  0  0  0  0  0
  -28.3896  -32.6792   25.0229 H   0  0  0  0  0  0
  -28.0811  -31.8343   26.5319 H   0  0  0  0  0  0
  -28.2595  -38.0091   24.7517 H   0  0  0  0  0  0
  -28.1085  -36.2620   24.6277 H   0  0  0  0  0  0
  -27.2297  -37.1417   25.8861 H   0  0  0  0  0  0
  -20.9276  -29.8479   21.6732 H   0  0  0  0  0  0
  -26.0188  -38.2861   24.1421 H   0  0  0  0  0  0
  -24.4625  -22.5968   19.2621 H   0  0  0  0  0  0
  -25.6050  -20.6204   18.3165 H   0  0  0  0  0  0
  -29.8299  -19.0059   25.8729 H   0  0  0  0  0  0
  -31.5782  -16.9741   25.2314 H   0  0  0  0  0  0
  -26.1561  -21.7749   23.1229 H   0  0  0  0  0  0
  -27.1087  -18.7972   18.4896 H   0  0  0  0  0  0
  -26.9803  -17.9595   20.0348 H   0  0  0  0  0  0
  -28.3896  -18.9730   19.6862 H   0  0  0  0  0  0
  -23.7089  -25.5593   23.3144 H   0  0  0  0  0  0
  -24.5673  -26.3953   22.0302 H   0  0  0  0  0  0
  -25.1978  -26.3959   23.6762 H   0  0  0  0  0  0
  -27.6232  -25.1781   24.4970 H   0  0  0  0  0  0
  -28.9537  -26.2751   24.1893 H   0  0  0  0  0  0
  -29.0379  -24.6054   23.6150 H   0  0  0  0  0  0
  -24.0500  -24.0598   21.0420 H   0  0  0  0  0  0
  -23.7584  -23.1748   22.5130 H   0  0  0  0  0  0
  -32.2058  -15.8451   22.6694 H   0  0  0  0  0  0
  -31.6729  -16.8928   21.3753 H   0  0  0  0  0  0
  -29.3812  -15.7682   21.4723 H   0  0  0  0  0  0
  -30.0358  -14.6939   22.7020 H   0  0  0  0  0  0
  -26.6089  -24.9314   20.8258 H   0  0  0  0  0  0
  -27.4276  -23.8388   21.8554 H   0  0  0  0  0  0
  -29.5571  -25.5564   21.2955 H   0  0  0  0  0  0
  -29.3576  -27.2047   21.8219 H   0  0  0  0  0  0
  -25.7252  -24.0274   23.5636 H   0  0  0  0  0  0
  -27.1190  -26.7620   22.6440 H   0  0  0  0  0  0
  -28.0737  -18.8398   21.8063 H   0  0  0  0  0  0
  1 25  1  0  0  0
  1 30  2  0  0  0
  1 87  1  0  0  0
  2  3  1  0  0  0
  2 25  1  0  0  0
  2 95  1  0  0  0
  2 96  1  0  0  0
  3  4  1  0  0  0
  3 97  1  0  0  0
  3 98  1  0  0  0
  4  5  1  0  0  0
  4 99  1  0  0  0
  4100  1  0  0  0
  5  6  1  0  0  0
  5 26  1  0  0  0
  5101  1  0  0  0
  6 25  1  0  0  0
  6102  1  0  0  0
  6103  1  0  0  0
  7  8  2  0  0  0
  7 26  1  0  0  0
  7 29  1  0  0  0
  8  9  1  0  0  0
  8 22  1  0  0  0
  9 10  1  0  0  0
  9 27  2  0  0  0
 10 11  2  0  0  0
 10 15  1  0  0  0
 11 12  1  0  0  0
 11104  1  0  0  0
 12 13  2  0  0  0
 12105  1  0  0  0
 13 14  1  0  0  0
 13 31  1  0  0  0
 14 15  2  0  0  0
 14106  1  0  0  0
 15107  1  0  0  0
 16 17  2  0  0  0
 16 21  1  0  0  0
 16 31  1  0  0  0
 17 18  1  0  0  0
 17108  1  0  0  0
 18 19  2  0  0  0
 18109  1  0  0  0
 19 20  1  0  0  0
 19 24  1  0  0  0
 20 21  2  0  0  0
 20110  1  0  0  0
 21 23  1  0  0  0
 22 28  1  0  0  0
 22 32  2  0  0  0
 26 27  1  0  0  0
 28111  1  0  0  0
 28112  1  0  0  0
 29113  1  0  0  0
 29114  1  0  0  0
 33 34  1  0  0  0
 33 66  1  0  0  0
 33 70  2  0  0  0
 34 36  1  0  0  0
 34 59  1  0  0  0
 34115  1  0  0  0
 35 44  2  0  0  0
 35 45  1  0  0  0
 35 68  1  0  0  0
 36 56  1  0  0  0
 36116  1  0  0  0
 37 39  1  0  0  0
 37 47  1  0  0  0
 37 66  1  0  0  0
 37117  1  0  0  0
 38 43  2  0  0  0
 38 46  1  0  0  0
 38 47  1  0  0  0
 39 64  1  0  0  0
 39 67  2  0  0  0
 40 52  1  0  0  0
 40 53  2  0  0  0
 40 58  1  0  0  0
 41118  1  0  0  0
 41119  1  0  0  0
 41120  1  0  0  0
 41 48  1  0  0  0
 42 43  1  0  0  0
 42 66  1  0  0  0
 42121  1  0  0  0
 42122  1  0  0  0
 43 44  1  0  0  0
 44123  1  0  0  0
 45 46  2  0  0  0
 45124  1  0  0  0
 46125  1  0  0  0
 47126  1  0  0  0
 47127  1  0  0  0
 48 56  1  0  0  0
 48 65  1  0  0  0
 48128  1  0  0  0
 49 50  1  0  0  0
 49 53  1  0  0  0
 49 64  1  0  0  0
 49129  1  0  0  0
 50 51  1  0  0  0
 50130  1  0  0  0
 50131  1  0  0  0
 51 52  1  0  0  0
 51132  1  0  0  0
 51133  1  0  0  0
 52134  1  0  0  0
 52135  1  0  0  0
 53 54  1  0  0  0
 54 55  2  0  0  0
 54136  1  0  0  0
 55 57  1  0  0  0
 55137  1  0  0  0
 56 69  2  0  0  0
 57 58  2  0  0  0
 57138  1  0  0  0
 58139  1  0  0  0
 59 60  1  0  0  0
 59 61  1  0  0  0
 59 62  1  0  0  0
 60140  1  0  0  0
 60141  1  0  0  0
 60142  1  0  0  0
 61143  1  0  0  0
 61144  1  0  0  0
 61145  1  0  0  0
 62146  1  0  0  0
 62147  1  0  0  0
 62148  1  0  0  0
 63 65  1  0  0  0
 63149  1  0  0  0
 63150  1  0  0  0
 63151  1  0  0  0
 64152  1  0  0  0
 65153  1  0  0  0
 68 89  1  0  0  0
 71 72  2  0  0  0
 71 76  1  0  0  0
 71154  1  0  0  0
 72 77  1  0  0  0
 72155  1  0  0  0
 73 74  1  0  0  0
 73 79  2  0  0  0
 73156  1  0  0  0
 74 80  2  0  0  0
 74157  1  0  0  0
 75 76  2  0  0  0
 75 78  1  0  0  0
 75158  1  0  0  0
 76 85  1  0  0  0
 77 78  2  0  0  0
 77 82  1  0  0  0
 78 92  1  0  0  0
 79 81  1  0  0  0
 79 94  1  0  0  0
 80 86  1  0  0  0
 80 94  1  0  0  0
 81 92  1  0  0  0
 81 93  2  0  0  0
 82159  1  0  0  0
 82160  1  0  0  0
 82161  1  0  0  0
 83162  1  0  0  0
 83163  1  0  0  0
 83164  1  0  0  0
 83 90  1  0  0  0
 84165  1  0  0  0
 84166  1  0  0  0
 84167  1  0  0  0
 84 91  1  0  0  0
 85 90  1  0  0  0
 85168  1  0  0  0
 85169  1  0  0  0
 86 87  1  0  0  0
 86170  1  0  0  0
 86171  1  0  0  0
 87172  1  0  0  0
 87173  1  0  0  0
 88 90  1  0  0  0
 88 91  1  0  0  0
 88174  1  0  0  0
 88175  1  0  0  0
 89 91  1  0  0  0
 89176  1  0  0  0
 89177  1  0  0  0
 90178  1  0  0  0
 91179  1  0  0  0
 92180  1  0  0  0
M  ISO  4   1 100  68 101  87 100  89 101
M  END
> <chiral flag>
0

> <version>
0

> <s_m_source_file>
/data/baiqing/PycharmProjects/Reinvent-master-3.2/result/LINK_invent/BTK/process_docking_weight1_custom_product_contain_oxygen_bond_distance_aromatic_linkinvent_7_9_3/rearranged_h_0135.sdf

> <i_m_source_file_index>
26

> <r_mmod_Potential_Energy-OPLS-2005>
-68.9871826171875

> <r_mmod_Stretch_Energy-OPLS-2005>
33.7148170471191

> <r_mmod_Bend_Energy-OPLS-2005>
106.943321228027

> <r_mmod_Torsional_Energy-OPLS-2005>
220.713684082031

> <r_mmod_Improper_Torsional_Energy-OPLS-2005>
2.06919097900391

> <r_mmod_Van_der_Waal_Energy-OPLS-2005>
142.546508789062

> <r_mmod_Electrostatic_Energy-OPLS-2005>
-386.511138916016

> <r_mmod_Solvation_Energy-OPLS-2005>
-198.074584960938

> <b_mmod_Minimization_Converged-OPLS-2005>
0

> <r_mmod_RMS_Derivative-OPLS-2005>
2.37080454826355

$$$$
26
                    3D
 Structure written by MMmdl.
163171  0  0  1  0            999 V2000
  -30.6169  -14.6580   20.5007 C   0  0  0  0  0  0
  -30.4372  -12.4039   19.4577 C   0  0  0  0  0  0
  -29.5064  -12.5121   18.2291 C   0  0  0  0  0  0
  -28.0293  -12.3461   18.6389 C   0  0  0  0  0  0
  -27.6502  -13.2201   19.8638 C   0  0  2  0  0  0
  -28.6952  -13.0809   20.9950 C   0  0  0  0  0  0
  -25.2514  -13.8157   20.5649 C   0  0  0  0  0  0
  -24.1813  -13.0416   20.9208 C   0  0  0  0  0  0
  -24.6405  -11.6896   20.8760 C   0  0  0  0  0  0
  -23.9091  -10.4273   21.0422 C   0  0  0  0  0  0
  -24.3634   -9.4182   21.9197 C   0  0  0  0  0  0
  -23.6300   -8.2222   22.0756 C   0  0  0  0  0  0
  -22.4282   -8.0270   21.3543 C   0  0  0  0  0  0
  -21.9927   -9.0253   20.4650 C   0  0  0  0  0  0
  -22.7266  -10.2125   20.3063 C   0  0  0  0  0  0
  -21.6848   -6.0734   22.5288 C   0  0  0  0  0  0
  -21.4010   -6.5642   23.8219 C   0  0  0  0  0  0
  -21.3667   -5.6795   24.9181 C   0  0  0  0  0  0
  -21.6043   -4.3056   24.7235 C   0  0  0  0  0  0
  -21.8814   -3.8149   23.4356 C   0  0  0  0  0  0
  -21.9184   -4.6962   22.3410 C   0  0  0  0  0  0
  -22.7825  -13.5196   21.1882 C   0  0  0  0  0  0
  -22.1647   -4.2144   21.0988 F   0  0  0  0  0  0
  -21.5638   -3.4545   25.7754 F   0  0  0  0  0  0
  -30.0115  -13.4286   20.4335 N   0  0  0  0  0  0
  -26.2965  -12.9362   20.3313 N   0  0  0  0  0  0
  -25.9337  -11.6516   20.5787 N   0  0  0  0  0  0
  -22.0484  -12.8180   22.0447 N   0  0  0  0  0  0
  -25.4146  -15.1865   20.3972 N   0  0  0  0  0  0
  -31.7782  -14.8151   20.1086 O   0  0  0  0  0  0
  -21.6625   -6.8881   21.4249 O   0  0  0  0  0  0
  -22.3495  -14.5496   20.6731 O   0  0  0  0  0  0
  -24.6258  -31.8614   23.2005 C   0  0  0  0  0  0
  -25.9103  -32.4782   23.8342 C   0  0  1  0  0  0
  -27.2285  -27.3247   20.1208 C   0  0  0  0  0  0
  -25.5909  -33.8573   24.2252 N   0  0  0  0  0  0
  -23.4189  -30.4861   21.5420 C   0  0  2  0  0  0
  -24.8661  -28.9420   20.1109 C   0  0  0  0  0  0
  -22.7491  -29.4643   22.4922 C   0  0  0  0  0  0
  -18.0288  -28.1406   22.8477 C   0  0  0  0  0  0
  -24.1479  -36.7300   23.2648 C   0  0  0  0  0  0
  -25.9586  -30.7978   21.3685 C   0  0  0  0  0  0
  -26.0350  -29.4247   20.7118 C   0  0  0  0  0  0
  -27.2183  -28.6286   20.7060 C   0  0  0  0  0  0
  -26.0320  -26.8918   19.5014 C   0  0  0  0  0  0
  -24.8661  -27.6800   19.4981 C   0  0  0  0  0  0
  -23.6342  -29.8227   20.1565 C   0  0  0  0  0  0
  -25.4105  -36.3080   24.0334 C   0  0  1  0  0  0
  -20.5897  -28.3706   23.1272 C   0  0  2  0  0  0
  -20.6765  -26.9427   22.5410 C   0  0  0  0  0  0
  -19.5729  -26.6391   21.5213 C   0  0  0  0  0  0
  -18.1906  -26.7935   22.1630 C   0  0  0  0  0  0
  -19.1553  -28.8866   23.2863 C   0  0  0  0  0  0
  -18.9483  -30.1460   23.8894 C   0  0  0  0  0  0
  -17.6493  -30.6604   24.0568 C   0  0  0  0  0  0
  -25.9043  -34.9454   23.5090 C   0  0  0  0  0  0
  -16.5374  -29.9116   23.6339 C   0  0  0  0  0  0
  -16.7284  -28.6538   23.0345 C   0  0  0  0  0  0
  -26.4478  -31.6603   25.0720 C   0  0  0  0  0  0
  -25.3710  -31.3769   26.1453 C   0  0  0  0  0  0
  -27.0323  -30.3038   24.6153 C   0  0  0  0  0  0
  -27.6027  -32.4359   25.7489 C   0  0  0  0  0  0
  -27.5565  -37.1804   24.8467 C   0  0  0  0  0  0
  -21.4208  -29.3075   22.3682 N   0  0  0  0  0  0
  -26.4272  -37.3783   23.9416 N   0  0  0  0  0  0
  -24.6861  -31.0653   22.0935 N   0  0  0  0  0  0
  -23.4218  -28.8179   23.2996 O   0  0  0  0  0  0
  -28.3556  -26.4863   20.1710 O   0  0  0  0  0  0
  -26.5630  -34.8929   22.4665 O   0  0  0  0  0  0
  -23.5417  -32.1419   23.7329 O   0  0  0  0  0  0
  -30.9168  -17.8437   20.0291 C   0  0  0  0  0  0
  -30.9373  -19.2627   19.8988 C   0  0  0  0  0  0
  -28.8812  -19.4343   21.1141 C   0  0  0  0  0  0
  -28.8493  -18.0064   21.2685 C   0  0  0  0  0  0
  -29.8798  -17.1662   20.7251 C   0  0  0  0  0  0
  -29.9268  -20.1034   20.4303 C   0  0  0  0  0  0
  -26.3577  -18.1091   22.0050 C   0  0  0  0  0  0
  -31.9090  -23.9877   19.8565 C   0  0  0  0  0  0
  -27.7124  -17.3815   22.0840 C   0  0  0  0  0  0
  -30.5049  -24.3465   19.3449 C   0  0  0  0  0  0
  -28.1479  -25.0230   20.0464 C   0  0  0  0  0  0
  -28.9647  -22.4582   20.3158 C   0  0  0  0  0  0
  -29.3543  -24.0186   20.3250 C   0  0  1  0  0  0
  -29.8131  -15.7036   20.8864 N   0  0  0  0  0  0
  -30.0739  -21.5009   20.3000 O   0  0  0  0  0  0
  -31.4770  -12.5325   19.1521 H   0  0  0  0  0  0
  -30.3776  -11.4089   19.9015 H   0  0  0  0  0  0
  -29.7735  -11.7629   17.4833 H   0  0  0  0  0  0
  -29.6460  -13.4833   17.7523 H   0  0  0  0  0  0
  -27.8671  -11.2936   18.8724 H   0  0  0  0  0  0
  -27.3743  -12.5731   17.7969 H   0  0  0  0  0  0
  -27.6635  -14.2539   19.5170 H   0  0  0  0  0  0
  -28.7122  -12.0591   21.3768 H   0  0  0  0  0  0
  -28.4361  -13.7102   21.8476 H   0  0  0  0  0  0
  -25.2782   -9.5637   22.4768 H   0  0  0  0  0  0
  -24.0000   -7.4601   22.7469 H   0  0  0  0  0  0
  -21.0861   -8.8790   19.8949 H   0  0  0  0  0  0
  -22.3750  -10.9672   19.6163 H   0  0  0  0  0  0
  -21.1997   -7.6148   23.9730 H   0  0  0  0  0  0
  -21.1501   -6.0521   25.9087 H   0  0  0  0  0  0
  -22.0588   -2.7612   23.2860 H   0  0  0  0  0  0
  -22.4099  -11.9827   22.4812 H   0  0  0  0  0  0
  -21.1099  -13.1187   22.2676 H   0  0  0  0  0  0
  -24.6433  -15.8342   20.5150 H   0  0  0  0  0  0
  -26.2547  -15.6336   20.0568 H   0  0  0  0  0  0
  -26.7175  -32.5459   23.1102 H   0  0  0  0  0  0
  -25.0019  -33.9711   25.0367 H   0  0  0  0  0  0
  -22.7111  -31.3052   21.3944 H   0  0  0  0  0  0
  -23.3736  -35.9640   23.3312 H   0  0  0  0  0  0
  -24.3579  -36.8926   22.2062 H   0  0  0  0  0  0
  -23.7240  -37.6506   23.6681 H   0  0  0  0  0  0
  -26.0814  -31.5610   20.5989 H   0  0  0  0  0  0
  -26.8417  -30.8509   21.9944 H   0  0  0  0  0  0
  -28.1136  -28.9967   21.1857 H   0  0  0  0  0  0
  -25.9624  -25.9299   19.0183 H   0  0  0  0  0  0
  -23.9706  -27.3010   19.0256 H   0  0  0  0  0  0
  -23.7544  -30.5984   19.3984 H   0  0  0  0  0  0
  -22.7560  -29.2533   19.8495 H   0  0  0  0  0  0
  -25.1278  -36.1925   25.0832 H   0  0  0  0  0  0
  -20.9962  -28.3264   24.1406 H   0  0  0  0  0  0
  -20.5642  -26.2327   23.3628 H   0  0  0  0  0  0
  -21.6625  -26.7422   22.1215 H   0  0  0  0  0  0
  -19.6878  -25.6295   21.1255 H   0  0  0  0  0  0
  -19.6643  -27.3192   20.6730 H   0  0  0  0  0  0
  -17.4171  -26.6700   21.4038 H   0  0  0  0  0  0
  -18.0278  -26.0077   22.9026 H   0  0  0  0  0  0
  -19.7971  -30.7254   24.2256 H   0  0  0  0  0  0
  -17.5074  -31.6282   24.5177 H   0  0  0  0  0  0
  -15.5385  -30.3036   23.7668 H   0  0  0  0  0  0
  -15.8673  -28.0880   22.7048 H   0  0  0  0  0  0
  -24.5868  -30.7119   25.7820 H   0  0  0  0  0  0
  -24.8904  -32.2941   26.4867 H   0  0  0  0  0  0
  -25.8025  -30.8979   27.0244 H   0  0  0  0  0  0
  -26.2887  -29.6803   24.1173 H   0  0  0  0  0  0
  -27.4045  -29.7283   25.4635 H   0  0  0  0  0  0
  -27.8738  -30.4355   23.9350 H   0  0  0  0  0  0
  -27.2621  -33.3675   26.2026 H   0  0  0  0  0  0
  -28.3851  -32.6905   25.0327 H   0  0  0  0  0  0
  -28.0678  -31.8514   26.5438 H   0  0  0  0  0  0
  -28.2584  -38.0097   24.7499 H   0  0  0  0  0  0
  -28.1045  -36.2622   24.6290 H   0  0  0  0  0  0
  -27.2289  -37.1465   25.8874 H   0  0  0  0  0  0
  -20.9382  -29.8886   21.6973 H   0  0  0  0  0  0
  -26.0145  -38.2853   24.1436 H   0  0  0  0  0  0
  -31.7261  -17.2856   19.5833 H   0  0  0  0  0  0
  -31.7612  -19.7195   19.3696 H   0  0  0  0  0  0
  -28.1067  -20.0363   21.5629 H   0  0  0  0  0  0
  -25.5954  -17.5484   22.5472 H   0  0  0  0  0  0
  -26.0184  -18.2079   20.9738 H   0  0  0  0  0  0
  -26.3881  -19.1030   22.4502 H   0  0  0  0  0  0
  -32.6746  -24.4306   19.2193 H   0  0  0  0  0  0
  -32.0824  -22.9132   19.8624 H   0  0  0  0  0  0
  -32.0774  -24.3589   20.8690 H   0  0  0  0  0  0
  -28.0361  -17.3177   23.1228 H   0  0  0  0  0  0
  -27.5410  -16.3551   21.7669 H   0  0  0  0  0  0
  -30.3235  -23.8761   18.3775 H   0  0  0  0  0  0
  -30.5101  -25.4201   19.1551 H   0  0  0  0  0  0
  -27.3315  -24.7491   20.7163 H   0  0  0  0  0  0
  -27.7993  -24.8131   19.0348 H   0  0  0  0  0  0
  -28.3298  -22.2624   21.1798 H   0  0  0  0  0  0
  -28.3502  -22.2494   19.4399 H   0  0  0  0  0  0
  -29.7074  -24.2465   21.3317 H   0  0  0  0  0  0
  -28.9351  -15.3769   21.2590 H   0  0  0  0  0  0
  1 25  1  0  0  0
  1 30  2  0  0  0
  1 84  1  0  0  0
  2  3  1  0  0  0
  2 25  1  0  0  0
  2 86  1  0  0  0
  2 87  1  0  0  0
  3  4  1  0  0  0
  3 88  1  0  0  0
  3 89  1  0  0  0
  4  5  1  0  0  0
  4 90  1  0  0  0
  4 91  1  0  0  0
  5  6  1  0  0  0
  5 26  1  0  0  0
  5 92  1  0  0  0
  6 25  1  0  0  0
  6 93  1  0  0  0
  6 94  1  0  0  0
  7  8  2  0  0  0
  7 26  1  0  0  0
  7 29  1  0  0  0
  8  9  1  0  0  0
  8 22  1  0  0  0
  9 10  1  0  0  0
  9 27  2  0  0  0
 10 11  2  0  0  0
 10 15  1  0  0  0
 11 12  1  0  0  0
 11 95  1  0  0  0
 12 13  2  0  0  0
 12 96  1  0  0  0
 13 14  1  0  0  0
 13 31  1  0  0  0
 14 15  2  0  0  0
 14 97  1  0  0  0
 15 98  1  0  0  0
 16 17  2  0  0  0
 16 21  1  0  0  0
 16 31  1  0  0  0
 17 18  1  0  0  0
 17 99  1  0  0  0
 18 19  2  0  0  0
 18100  1  0  0  0
 19 20  1  0  0  0
 19 24  1  0  0  0
 20 21  2  0  0  0
 20101  1  0  0  0
 21 23  1  0  0  0
 22 28  1  0  0  0
 22 32  2  0  0  0
 26 27  1  0  0  0
 28102  1  0  0  0
 28103  1  0  0  0
 29104  1  0  0  0
 29105  1  0  0  0
 33 34  1  0  0  0
 33 66  1  0  0  0
 33 70  2  0  0  0
 34 36  1  0  0  0
 34 59  1  0  0  0
 34106  1  0  0  0
 35 44  2  0  0  0
 35 45  1  0  0  0
 35 68  1  0  0  0
 36 56  1  0  0  0
 36107  1  0  0  0
 37 39  1  0  0  0
 37 47  1  0  0  0
 37 66  1  0  0  0
 37108  1  0  0  0
 38 43  2  0  0  0
 38 46  1  0  0  0
 38 47  1  0  0  0
 39 64  1  0  0  0
 39 67  2  0  0  0
 40 52  1  0  0  0
 40 53  2  0  0  0
 40 58  1  0  0  0
 41109  1  0  0  0
 41110  1  0  0  0
 41111  1  0  0  0
 41 48  1  0  0  0
 42 43  1  0  0  0
 42 66  1  0  0  0
 42112  1  0  0  0
 42113  1  0  0  0
 43 44  1  0  0  0
 44114  1  0  0  0
 45 46  2  0  0  0
 45115  1  0  0  0
 46116  1  0  0  0
 47117  1  0  0  0
 47118  1  0  0  0
 48 56  1  0  0  0
 48 65  1  0  0  0
 48119  1  0  0  0
 49 50  1  0  0  0
 49 53  1  0  0  0
 49 64  1  0  0  0
 49120  1  0  0  0
 50 51  1  0  0  0
 50121  1  0  0  0
 50122  1  0  0  0
 51 52  1  0  0  0
 51123  1  0  0  0
 51124  1  0  0  0
 52125  1  0  0  0
 52126  1  0  0  0
 53 54  1  0  0  0
 54 55  2  0  0  0
 54127  1  0  0  0
 55 57  1  0  0  0
 55128  1  0  0  0
 56 69  2  0  0  0
 57 58  2  0  0  0
 57129  1  0  0  0
 58130  1  0  0  0
 59 60  1  0  0  0
 59 61  1  0  0  0
 59 62  1  0  0  0
 60131  1  0  0  0
 60132  1  0  0  0
 60133  1  0  0  0
 61134  1  0  0  0
 61135  1  0  0  0
 61136  1  0  0  0
 62137  1  0  0  0
 62138  1  0  0  0
 62139  1  0  0  0
 63 65  1  0  0  0
 63140  1  0  0  0
 63141  1  0  0  0
 63142  1  0  0  0
 64143  1  0  0  0
 65144  1  0  0  0
 68 81  1  0  0  0
 71 72  2  0  0  0
 71 75  1  0  0  0
 71145  1  0  0  0
 72 76  1  0  0  0
 72146  1  0  0  0
 73 74  1  0  0  0
 73 76  2  0  0  0
 73147  1  0  0  0
 74 75  2  0  0  0
 74 79  1  0  0  0
 75 84  1  0  0  0
 76 85  1  0  0  0
 77 79  1  0  0  0
 77148  1  0  0  0
 77149  1  0  0  0
 77150  1  0  0  0
 78 80  1  0  0  0
 78151  1  0  0  0
 78152  1  0  0  0
 78153  1  0  0  0
 79154  1  0  0  0
 79155  1  0  0  0
 80156  1  0  0  0
 80157  1  0  0  0
 80 83  1  0  0  0
 81 83  1  0  0  0
 81158  1  0  0  0
 81159  1  0  0  0
 82 83  1  0  0  0
 82 85  1  0  0  0
 82160  1  0  0  0
 82161  1  0  0  0
 83162  1  0  0  0
 84163  1  0  0  0
M  ISO  4   1 100  68 101  81 101  84 100
M  END
> <chiral flag>
0

> <version>
0

> <s_m_source_file>
/data/baiqing/PycharmProjects/Reinvent-master-3.2/result/LINK_invent/BTK/process_docking_weight1_custom_product_contain_oxygen_bond_distance_aromatic_linkinvent_7_9_3/rearranged_h_0135.sdf

> <i_m_source_file_index>
27

> <r_mmod_Potential_Energy-OPLS-2005>
84.9559173583984

> <r_mmod_Stretch_Energy-OPLS-2005>
85.1338806152344

> <r_mmod_Bend_Energy-OPLS-2005>
152.71711730957

> <r_mmod_Torsional_Energy-OPLS-2005>
226.965301513672

> <r_mmod_Improper_Torsional_Energy-OPLS-2005>
3.7394061088562

> <r_mmod_Van_der_Waal_Energy-OPLS-2005>
144.693557739258

> <r_mmod_Electrostatic_Energy-OPLS-2005>
-376.368194580078

> <r_mmod_Solvation_Energy-OPLS-2005>
-201.834411621094

> <b_mmod_Minimization_Converged-OPLS-2005>
0

> <r_mmod_RMS_Derivative-OPLS-2005>
2.22850298881531

$$$$
27
                    3D
 Structure written by MMmdl.
170178  0  0  1  0            999 V2000
  -30.6348  -14.7247   20.5876 C   0  0  0  0  0  0
  -30.4404  -12.4745   19.4789 C   0  0  0  0  0  0
  -29.5190  -12.5261   18.2384 C   0  0  0  0  0  0
  -28.0426  -12.3418   18.6393 C   0  0  0  0  0  0
  -27.6533  -13.2164   19.8589 C   0  0  2  0  0  0
  -28.6918  -13.0814   20.9920 C   0  0  0  0  0  0
  -25.2559  -13.8058   20.5478 C   0  0  0  0  0  0
  -24.1844  -13.0391   20.9136 C   0  0  0  0  0  0
  -24.6414  -11.6865   20.8750 C   0  0  0  0  0  0
  -23.9069  -10.4266   21.0430 C   0  0  0  0  0  0
  -24.3609   -9.4180   21.9209 C   0  0  0  0  0  0
  -23.6267   -8.2229   22.0771 C   0  0  0  0  0  0
  -22.4255   -8.0281   21.3554 C   0  0  0  0  0  0
  -21.9909   -9.0255   20.4650 C   0  0  0  0  0  0
  -22.7247  -10.2125   20.3064 C   0  0  0  0  0  0
  -21.6832   -6.0732   22.5279 C   0  0  0  0  0  0
  -21.4001   -6.5636   23.8213 C   0  0  0  0  0  0
  -21.3656   -5.6789   24.9177 C   0  0  0  0  0  0
  -21.6040   -4.3052   24.7222 C   0  0  0  0  0  0
  -21.8815   -3.8144   23.4341 C   0  0  0  0  0  0
  -21.9182   -4.6964   22.3401 C   0  0  0  0  0  0
  -22.7880  -13.5227   21.1827 C   0  0  0  0  0  0
  -22.1653   -4.2155   21.0974 F   0  0  0  0  0  0
  -21.5634   -3.4532   25.7732 F   0  0  0  0  0  0
  -29.9937  -13.5001   20.4622 N   0  0  0  0  0  0
  -26.3004  -12.9270   20.3250 N   0  0  0  0  0  0
  -25.9353  -11.6436   20.5767 N   0  0  0  0  0  0
  -22.0512  -12.8238   22.0378 N   0  0  0  0  0  0
  -25.4290  -15.1681   20.3555 N   0  0  0  0  0  0
  -31.6990  -14.8985   19.9805 O   0  0  0  0  0  0
  -21.6615   -6.8881   21.4245 O   0  0  0  0  0  0
  -22.3582  -14.5542   20.6672 O   0  0  0  0  0  0
  -24.6293  -31.8547   23.1988 C   0  0  0  0  0  0
  -25.9118  -32.4744   23.8347 C   0  0  1  0  0  0
  -27.2172  -27.2479   20.1517 C   0  0  0  0  0  0
  -25.5910  -33.8546   24.2249 N   0  0  0  0  0  0
  -23.4288  -30.4772   21.5407 C   0  0  2  0  0  0
  -24.8788  -28.9215   20.1119 C   0  0  0  0  0  0
  -22.7496  -29.4596   22.4900 C   0  0  0  0  0  0
  -18.0291  -28.1375   22.8486 C   0  0  0  0  0  0
  -24.1469  -36.7296   23.2641 C   0  0  0  0  0  0
  -25.9744  -30.7642   21.3802 C   0  0  0  0  0  0
  -26.0493  -29.3841   20.7280 C   0  0  0  0  0  0
  -27.2232  -28.5614   20.7351 C   0  0  0  0  0  0
  -26.0305  -26.8651   19.4877 C   0  0  0  0  0  0
  -24.8760  -27.6718   19.4762 C   0  0  0  0  0  0
  -23.6498  -29.8098   20.1576 C   0  0  0  0  0  0
  -25.4094  -36.3066   24.0317 C   0  0  1  0  0  0
  -20.5895  -28.3705   23.1257 C   0  0  2  0  0  0
  -20.6777  -26.9427   22.5397 C   0  0  0  0  0  0
  -19.5749  -26.6382   21.5204 C   0  0  0  0  0  0
  -18.1928  -26.7926   22.1607 C   0  0  0  0  0  0
  -19.1545  -28.8855   23.2865 C   0  0  0  0  0  0
  -18.9473  -30.1450   23.8888 C   0  0  0  0  0  0
  -17.6483  -30.6588   24.0554 C   0  0  0  0  0  0
  -25.9043  -34.9429   23.5089 C   0  0  0  0  0  0
  -16.5368  -29.9092   23.6326 C   0  0  0  0  0  0
  -16.7278  -28.6497   23.0358 C   0  0  0  0  0  0
  -26.4489  -31.6578   25.0749 C   0  0  0  0  0  0
  -25.3723  -31.3693   26.1480 C   0  0  0  0  0  0
  -27.0347  -30.2988   24.6244 C   0  0  0  0  0  0
  -27.5988  -32.4388   25.7542 C   0  0  0  0  0  0
  -27.5573  -37.1790   24.8446 C   0  0  0  0  0  0
  -21.4202  -29.3055   22.3640 N   0  0  0  0  0  0
  -26.4258  -37.3781   23.9426 N   0  0  0  0  0  0
  -24.6968  -31.0498   22.0974 N   0  0  0  0  0  0
  -23.4189  -28.8134   23.2999 O   0  0  0  0  0  0
  -28.2977  -26.3324   20.1993 O   0  0  0  0  0  0
  -26.5636  -34.8915   22.4673 O   0  0  0  0  0  0
  -23.5440  -32.1395   23.7258 O   0  0  0  0  0  0
  -29.6984  -18.3746   20.8640 C   0  0  0  0  0  0
  -27.6963  -19.5312   21.5851 C   0  0  0  0  0  0
  -29.3063  -17.1143   21.5028 C   0  0  0  0  0  0
  -27.2784  -18.3732   22.2584 C   0  0  0  0  0  0
  -28.0976  -17.2054   22.2887 C   0  0  0  0  0  0
  -28.9399  -19.6248   20.9376 C   0  0  0  0  0  0
  -30.2278  -15.8355   21.6728 C   0  0  0  0  0  0
  -28.0744  -16.4807   24.7424 C   0  0  0  0  0  0
  -23.3956  -18.2292   22.8733 C   0  0  0  0  0  0
  -30.3993  -23.9366   20.8927 C   0  0  0  0  0  0
  -25.9424  -18.4959   23.0055 C   0  0  0  0  0  0
  -27.6848  -16.1222   23.2961 C   0  0  0  0  0  0
  -24.7391  -18.0821   22.1500 C   0  0  0  0  0  0
  -28.0175  -24.8975   20.5906 C   0  0  0  0  0  0
  -28.5559  -22.1565   20.7150 C   0  0  0  0  0  0
  -29.0237  -23.6543   20.2765 C   0  0  2  0  0  0
  -30.7797  -15.6977   22.8067 N   0  0  0  0  0  0
  -29.3570  -20.9060   20.4415 O   0  0  0  0  0  0
  -31.4793  -12.6107   19.1754 H   0  0  0  0  0  0
  -30.4096  -11.4826   19.9327 H   0  0  0  0  0  0
  -29.8103  -11.7511   17.5278 H   0  0  0  0  0  0
  -29.6508  -13.4781   17.7228 H   0  0  0  0  0  0
  -27.8959  -11.2889   18.8810 H   0  0  0  0  0  0
  -27.3915  -12.5519   17.7902 H   0  0  0  0  0  0
  -27.6696  -14.2508   19.5156 H   0  0  0  0  0  0
  -28.7352  -12.0496   21.3436 H   0  0  0  0  0  0
  -28.3969  -13.6530   21.8533 H   0  0  0  0  0  0
  -25.2749   -9.5653   22.4791 H   0  0  0  0  0  0
  -23.9967   -7.4622   22.7499 H   0  0  0  0  0  0
  -21.0842   -8.8779   19.8949 H   0  0  0  0  0  0
  -22.3722  -10.9665   19.6169 H   0  0  0  0  0  0
  -21.1988   -7.6143   23.9721 H   0  0  0  0  0  0
  -21.1482   -6.0511   25.9081 H   0  0  0  0  0  0
  -22.0593   -2.7604   23.2829 H   0  0  0  0  0  0
  -22.4094  -11.9881   22.4768 H   0  0  0  0  0  0
  -21.1132  -13.1288   22.2560 H   0  0  0  0  0  0
  -24.6624  -15.8230   20.4516 H   0  0  0  0  0  0
  -26.2892  -15.6058   20.0526 H   0  0  0  0  0  0
  -26.7178  -32.5395   23.1084 H   0  0  0  0  0  0
  -25.0006  -33.9654   25.0372 H   0  0  0  0  0  0
  -22.7264  -31.2997   21.3920 H   0  0  0  0  0  0
  -23.3737  -35.9616   23.3243 H   0  0  0  0  0  0
  -24.3569  -36.9028   22.2073 H   0  0  0  0  0  0
  -23.7210  -37.6460   23.6736 H   0  0  0  0  0  0
  -26.1097  -31.5189   20.6037 H   0  0  0  0  0  0
  -26.8508  -30.8193   22.0126 H   0  0  0  0  0  0
  -28.1165  -28.9116   21.2344 H   0  0  0  0  0  0
  -25.9772  -25.9175   18.9722 H   0  0  0  0  0  0
  -23.9846  -27.3197   18.9751 H   0  0  0  0  0  0
  -23.7764  -30.5857   19.4017 H   0  0  0  0  0  0
  -22.7677  -29.2443   19.8526 H   0  0  0  0  0  0
  -25.1263  -36.1893   25.0803 H   0  0  0  0  0  0
  -20.9964  -28.3300   24.1387 H   0  0  0  0  0  0
  -20.5689  -26.2321   23.3603 H   0  0  0  0  0  0
  -21.6656  -26.7454   22.1210 H   0  0  0  0  0  0
  -19.6928  -25.6291   21.1252 H   0  0  0  0  0  0
  -19.6688  -27.3166   20.6715 H   0  0  0  0  0  0
  -17.4209  -26.6687   21.3994 H   0  0  0  0  0  0
  -18.0311  -26.0050   22.8973 H   0  0  0  0  0  0
  -19.7955  -30.7248   24.2274 H   0  0  0  0  0  0
  -17.5045  -31.6266   24.5168 H   0  0  0  0  0  0
  -15.5368  -30.2997   23.7649 H   0  0  0  0  0  0
  -15.8672  -28.0810   22.7096 H   0  0  0  0  0  0
  -24.5886  -30.7053   25.7832 H   0  0  0  0  0  0
  -24.8911  -32.2830   26.4958 H   0  0  0  0  0  0
  -25.8070  -30.8852   27.0235 H   0  0  0  0  0  0
  -26.2939  -29.6719   24.1252 H   0  0  0  0  0  0
  -27.4010  -29.7258   25.4775 H   0  0  0  0  0  0
  -27.8831  -30.4267   23.9515 H   0  0  0  0  0  0
  -27.2548  -33.3732   26.2000 H   0  0  0  0  0  0
  -28.3854  -32.6906   25.0419 H   0  0  0  0  0  0
  -28.0582  -31.8612   26.5576 H   0  0  0  0  0  0
  -28.2507  -38.0167   24.7588 H   0  0  0  0  0  0
  -28.1162  -36.2692   24.6152 H   0  0  0  0  0  0
  -27.2307  -37.1311   25.8854 H   0  0  0  0  0  0
  -20.9377  -29.8818   21.6882 H   0  0  0  0  0  0
  -26.0119  -38.2837   24.1495 H   0  0  0  0  0  0
  -30.6578  -18.4004   20.3661 H   0  0  0  0  0  0
  -27.0394  -20.3843   21.6402 H   0  0  0  0  0  0
  -27.6865  -15.7373   25.4386 H   0  0  0  0  0  0
  -27.6993  -17.4520   25.0601 H   0  0  0  0  0  0
  -29.1553  -16.5088   24.8681 H   0  0  0  0  0  0
  -22.5760  -17.9050   22.2310 H   0  0  0  0  0  0
  -23.2055  -19.2636   23.1597 H   0  0  0  0  0  0
  -23.3666  -17.6170   23.7754 H   0  0  0  0  0  0
  -30.7399  -24.9466   20.6633 H   0  0  0  0  0  0
  -31.1460  -23.2384   20.5132 H   0  0  0  0  0  0
  -30.3700  -23.8358   21.9781 H   0  0  0  0  0  0
  -25.8118  -19.5318   23.3212 H   0  0  0  0  0  0
  -25.9266  -17.9346   23.9354 H   0  0  0  0  0  0
  -28.1401  -15.1681   23.1001 H   0  0  0  0  0  0
  -26.6165  -15.9214   23.2154 H   0  0  0  0  0  0
  -24.7254  -18.6523   21.2202 H   0  0  0  0  0  0
  -24.8553  -17.0396   21.8823 H   0  0  0  0  0  0
  -27.8722  -24.9207   21.6726 H   0  0  0  0  0  0
  -27.0491  -24.5830   20.2071 H   0  0  0  0  0  0
  -27.5737  -22.0034   20.2672 H   0  0  0  0  0  0
  -28.3934  -22.1961   21.7928 H   0  0  0  0  0  0
  -29.1457  -23.6363   19.1931 H   0  0  0  0  0  0
  -30.5028  -16.4458   23.4302 H   0  0  0  0  0  0
  1 25  1  0  0  0
  1 30  2  0  0  0
  1 77  1  0  0  0
  2  3  1  0  0  0
  2 25  1  0  0  0
  2 89  1  0  0  0
  2 90  1  0  0  0
  3  4  1  0  0  0
  3 91  1  0  0  0
  3 92  1  0  0  0
  4  5  1  0  0  0
  4 93  1  0  0  0
  4 94  1  0  0  0
  5  6  1  0  0  0
  5 26  1  0  0  0
  5 95  1  0  0  0
  6 25  1  0  0  0
  6 96  1  0  0  0
  6 97  1  0  0  0
  7  8  2  0  0  0
  7 26  1  0  0  0
  7 29  1  0  0  0
  8  9  1  0  0  0
  8 22  1  0  0  0
  9 10  1  0  0  0
  9 27  2  0  0  0
 10 11  2  0  0  0
 10 15  1  0  0  0
 11 12  1  0  0  0
 11 98  1  0  0  0
 12 13  2  0  0  0
 12 99  1  0  0  0
 13 14  1  0  0  0
 13 31  1  0  0  0
 14 15  2  0  0  0
 14100  1  0  0  0
 15101  1  0  0  0
 16 17  2  0  0  0
 16 21  1  0  0  0
 16 31  1  0  0  0
 17 18  1  0  0  0
 17102  1  0  0  0
 18 19  2  0  0  0
 18103  1  0  0  0
 19 20  1  0  0  0
 19 24  1  0  0  0
 20 21  2  0  0  0
 20104  1  0  0  0
 21 23  1  0  0  0
 22 28  1  0  0  0
 22 32  2  0  0  0
 26 27  1  0  0  0
 28105  1  0  0  0
 28106  1  0  0  0
 29107  1  0  0  0
 29108  1  0  0  0
 33 34  1  0  0  0
 33 66  1  0  0  0
 33 70  2  0  0  0
 34 36  1  0  0  0
 34 59  1  0  0  0
 34109  1  0  0  0
 35 44  2  0  0  0
 35 45  1  0  0  0
 35 68  1  0  0  0
 36 56  1  0  0  0
 36110  1  0  0  0
 37 39  1  0  0  0
 37 47  1  0  0  0
 37 66  1  0  0  0
 37111  1  0  0  0
 38 43  2  0  0  0
 38 46  1  0  0  0
 38 47  1  0  0  0
 39 64  1  0  0  0
 39 67  2  0  0  0
 40 52  1  0  0  0
 40 53  2  0  0  0
 40 58  1  0  0  0
 41112  1  0  0  0
 41113  1  0  0  0
 41114  1  0  0  0
 41 48  1  0  0  0
 42 43  1  0  0  0
 42 66  1  0  0  0
 42115  1  0  0  0
 42116  1  0  0  0
 43 44  1  0  0  0
 44117  1  0  0  0
 45 46  2  0  0  0
 45118  1  0  0  0
 46119  1  0  0  0
 47120  1  0  0  0
 47121  1  0  0  0
 48 56  1  0  0  0
 48 65  1  0  0  0
 48122  1  0  0  0
 49 50  1  0  0  0
 49 53  1  0  0  0
 49 64  1  0  0  0
 49123  1  0  0  0
 50 51  1  0  0  0
 50124  1  0  0  0
 50125  1  0  0  0
 51 52  1  0  0  0
 51126  1  0  0  0
 51127  1  0  0  0
 52128  1  0  0  0
 52129  1  0  0  0
 53 54  1  0  0  0
 54 55  2  0  0  0
 54130  1  0  0  0
 55 57  1  0  0  0
 55131  1  0  0  0
 56 69  2  0  0  0
 57 58  2  0  0  0
 57132  1  0  0  0
 58133  1  0  0  0
 59 60  1  0  0  0
 59 61  1  0  0  0
 59 62  1  0  0  0
 60134  1  0  0  0
 60135  1  0  0  0
 60136  1  0  0  0
 61137  1  0  0  0
 61138  1  0  0  0
 61139  1  0  0  0
 62140  1  0  0  0
 62141  1  0  0  0
 62142  1  0  0  0
 63 65  1  0  0  0
 63143  1  0  0  0
 63144  1  0  0  0
 63145  1  0  0  0
 64146  1  0  0  0
 65147  1  0  0  0
 68 84  1  0  0  0
 71 73  2  0  0  0
 71 76  1  0  0  0
 71148  1  0  0  0
 72 74  1  0  0  0
 72 76  2  0  0  0
 72149  1  0  0  0
 73 75  1  0  0  0
 73 77  1  0  0  0
 74 75  2  0  0  0
 74 81  1  0  0  0
 75 82  1  0  0  0
 76 88  1  0  0  0
 77 87  2  0  0  0
 78 82  1  0  0  0
 78150  1  0  0  0
 78151  1  0  0  0
 78152  1  0  0  0
 79 83  1  0  0  0
 79153  1  0  0  0
 79154  1  0  0  0
 79155  1  0  0  0
 80156  1  0  0  0
 80157  1  0  0  0
 80158  1  0  0  0
 80 86  1  0  0  0
 81 83  1  0  0  0
 81159  1  0  0  0
 81160  1  0  0  0
 82161  1  0  0  0
 82162  1  0  0  0
 83163  1  0  0  0
 83164  1  0  0  0
 84 86  1  0  0  0
 84165  1  0  0  0
 84166  1  0  0  0
 85 86  1  0  0  0
 85 88  1  0  0  0
 85167  1  0  0  0
 85168  1  0  0  0
 86169  1  0  0  0
 87170  1  0  0  0
M  ISO  4   1 100  68 101  77 100  84 101
M  END
> <chiral flag>
0

> <version>
0

> <s_m_source_file>
/data/baiqing/PycharmProjects/Reinvent-master-3.2/result/LINK_invent/BTK/process_docking_weight1_custom_product_contain_oxygen_bond_distance_aromatic_linkinvent_7_9_3/rearranged_h_0135.sdf

> <i_m_source_file_index>
28

> <r_mmod_Potential_Energy-OPLS-2005>
466.035308837891

> <r_mmod_Stretch_Energy-OPLS-2005>
165.705001831055

> <r_mmod_Bend_Energy-OPLS-2005>
222.963836669922

> <r_mmod_Torsional_Energy-OPLS-2005>
256.931427001953

> <r_mmod_Improper_Torsional_Energy-OPLS-2005>
8.3661642074585

> <r_mmod_Van_der_Waal_Energy-OPLS-2005>
148.119613647461

> <r_mmod_Electrostatic_Energy-OPLS-2005>
-229.595321655273

> <r_mmod_Solvation_Energy-OPLS-2005>
-190.738555908203

> <b_mmod_Minimization_Converged-OPLS-2005>
0

> <r_mmod_RMS_Derivative-OPLS-2005>
2.46465396881104

$$$$
28
                    3D
 Structure written by MMmdl.
168176  0  0  1  0            999 V2000
  -30.6291  -14.7222   20.5127 C   0  0  0  0  0  0
  -30.4482  -12.4523   19.4625 C   0  0  0  0  0  0
  -29.5179  -12.5275   18.2306 C   0  0  0  0  0  0
  -28.0402  -12.3534   18.6383 C   0  0  0  0  0  0
  -27.6500  -13.2273   19.8582 C   0  0  2  0  0  0
  -28.7005  -13.1268   20.9897 C   0  0  0  0  0  0
  -25.2393  -13.7968   20.5494 C   0  0  0  0  0  0
  -24.1748  -13.0280   20.9168 C   0  0  0  0  0  0
  -24.6402  -11.6805   20.8742 C   0  0  0  0  0  0
  -23.9078  -10.4216   21.0380 C   0  0  0  0  0  0
  -24.3631   -9.4155   21.9162 C   0  0  0  0  0  0
  -23.6280   -8.2211   22.0754 C   0  0  0  0  0  0
  -22.4262   -8.0265   21.3546 C   0  0  0  0  0  0
  -21.9897   -9.0229   20.4643 C   0  0  0  0  0  0
  -22.7246  -10.2077   20.3027 C   0  0  0  0  0  0
  -21.6847   -6.0713   22.5275 C   0  0  0  0  0  0
  -21.4023   -6.5620   23.8205 C   0  0  0  0  0  0
  -21.3644   -5.6770   24.9166 C   0  0  0  0  0  0
  -21.6029   -4.3035   24.7218 C   0  0  0  0  0  0
  -21.8834   -3.8129   23.4339 C   0  0  0  0  0  0
  -21.9200   -4.6944   22.3391 C   0  0  0  0  0  0
  -22.7781  -13.5118   21.1819 C   0  0  0  0  0  0
  -22.1676   -4.2130   21.0970 F   0  0  0  0  0  0
  -21.5602   -3.4528   25.7734 F   0  0  0  0  0  0
  -30.0104  -13.4916   20.4214 N   0  0  0  0  0  0
  -26.2960  -12.9295   20.3287 N   0  0  0  0  0  0
  -25.9357  -11.6446   20.5799 N   0  0  0  0  0  0
  -22.0426  -12.8167   22.0414 N   0  0  0  0  0  0
  -25.3749  -15.1573   20.3513 N   0  0  0  0  0  0
  -31.7978  -14.8644   20.1446 O   0  0  0  0  0  0
  -21.6621   -6.8866   21.4247 O   0  0  0  0  0  0
  -22.3488  -14.5424   20.6648 O   0  0  0  0  0  0
  -24.6279  -31.8590   23.2017 C   0  0  0  0  0  0
  -25.9108  -32.4776   23.8355 C   0  0  1  0  0  0
  -27.2479  -27.3031   20.1521 C   0  0  0  0  0  0
  -25.5905  -33.8561   24.2272 N   0  0  0  0  0  0
  -23.4273  -30.4787   21.5427 C   0  0  2  0  0  0
  -24.8848  -28.9232   20.1290 C   0  0  0  0  0  0
  -22.7501  -29.4612   22.4928 C   0  0  0  0  0  0
  -18.0290  -28.1413   22.8468 C   0  0  0  0  0  0
  -24.1483  -36.7291   23.2638 C   0  0  0  0  0  0
  -25.9699  -30.7817   21.3827 C   0  0  0  0  0  0
  -26.0520  -29.3985   20.7461 C   0  0  0  0  0  0
  -27.2369  -28.5974   20.7612 C   0  0  0  0  0  0
  -26.0634  -26.8849   19.5111 C   0  0  0  0  0  0
  -24.8908  -27.6655   19.5051 C   0  0  0  0  0  0
  -23.6519  -29.8055   20.1628 C   0  0  0  0  0  0
  -25.4098  -36.3068   24.0331 C   0  0  1  0  0  0
  -20.5892  -28.3716   23.1269 C   0  0  2  0  0  0
  -20.6787  -26.9431   22.5411 C   0  0  0  0  0  0
  -19.5760  -26.6397   21.5215 C   0  0  0  0  0  0
  -18.1938  -26.7956   22.1618 C   0  0  0  0  0  0
  -19.1545  -28.8881   23.2866 C   0  0  0  0  0  0
  -18.9467  -30.1472   23.8905 C   0  0  0  0  0  0
  -17.6467  -30.6598   24.0570 C   0  0  0  0  0  0
  -25.9031  -34.9443   23.5105 C   0  0  0  0  0  0
  -16.5358  -29.9100   23.6333 C   0  0  0  0  0  0
  -16.7276  -28.6520   23.0349 C   0  0  0  0  0  0
  -26.4475  -31.6590   25.0733 C   0  0  0  0  0  0
  -25.3704  -31.3762   26.1470 C   0  0  0  0  0  0
  -27.0308  -30.3002   24.6207 C   0  0  0  0  0  0
  -27.6029  -32.4336   25.7497 C   0  0  0  0  0  0
  -27.5571  -37.1803   24.8448 C   0  0  0  0  0  0
  -21.4210  -29.3052   22.3652 N   0  0  0  0  0  0
  -26.4278  -37.3760   23.9404 N   0  0  0  0  0  0
  -24.6933  -31.0569   22.0983 N   0  0  0  0  0  0
  -23.4195  -28.8174   23.3041 O   0  0  0  0  0  0
  -28.3383  -26.4284   20.0138 O   0  0  0  0  0  0
  -26.5607  -34.8917   22.4675 O   0  0  0  0  0  0
  -23.5438  -32.1387   23.7320 O   0  0  0  0  0  0
  -28.8454  -19.4937   21.3029 C   0  0  0  0  0  0
  -31.1632  -18.0324   20.8049 C   0  0  0  0  0  0
  -28.7920  -18.0772   21.1425 C   0  0  0  0  0  0
  -30.0337  -20.2421   21.2320 C   0  0  0  0  0  0
  -29.9569  -17.2738   20.9142 C   0  0  0  0  0  0
  -31.2045  -19.4655   20.9660 C   0  0  0  0  0  0
  -26.5023  -18.0332   20.1156 C   0  0  0  0  0  0
  -31.1379  -24.6935   23.1479 C   0  0  0  0  0  0
  -27.4662  -24.0979   21.9026 C   0  0  0  0  0  0
  -27.4000  -17.4900   21.2427 C   0  0  0  0  0  0
  -30.0238  -21.7455   21.7381 C   0  0  0  0  0  0
  -29.6235  -24.4131   23.1166 C   0  0  0  0  0  0
  -29.5736  -23.0588   20.8963 C   0  0  0  0  0  0
  -29.1076  -25.8695   21.1269 C   0  0  0  0  0  0
  -28.9701  -24.3503   21.6977 C   0  0  1  0  0  0
  -29.8241  -15.7911   20.8545 N   0  0  0  0  0  0
  -32.4089  -20.0867   20.9253 F   0  0  0  0  0  0
  -31.4871  -12.5827   19.1568 H   0  0  0  0  0  0
  -30.3948  -11.4658   19.9248 H   0  0  0  0  0  0
  -29.7948  -11.7698   17.4962 H   0  0  0  0  0  0
  -29.6477  -13.4928   17.7374 H   0  0  0  0  0  0
  -27.8772  -11.3008   18.8703 H   0  0  0  0  0  0
  -27.3940  -12.5824   17.7910 H   0  0  0  0  0  0
  -27.6510  -14.2587   19.5032 H   0  0  0  0  0  0
  -28.7336  -12.1123   21.3901 H   0  0  0  0  0  0
  -28.4333  -13.7685   21.8293 H   0  0  0  0  0  0
  -25.2774   -9.5620   22.4734 H   0  0  0  0  0  0
  -23.9963   -7.4608   22.7488 H   0  0  0  0  0  0
  -21.0808   -8.8741   19.8971 H   0  0  0  0  0  0
  -22.3702  -10.9602   19.6127 H   0  0  0  0  0  0
  -21.2044   -7.6130   23.9710 H   0  0  0  0  0  0
  -21.1431   -6.0491   25.9058 H   0  0  0  0  0  0
  -22.0632   -2.7601   23.2840 H   0  0  0  0  0  0
  -22.4033  -11.9824   22.4784 H   0  0  0  0  0  0
  -21.1036  -13.1197   22.2608 H   0  0  0  0  0  0
  -24.5769  -15.7766   20.4204 H   0  0  0  0  0  0
  -26.1742  -15.5961   19.9152 H   0  0  0  0  0  0
  -26.7197  -32.5466   23.1127 H   0  0  0  0  0  0
  -25.0032  -33.9678   25.0411 H   0  0  0  0  0  0
  -22.7217  -31.2983   21.3922 H   0  0  0  0  0  0
  -23.3738  -35.9631   23.3281 H   0  0  0  0  0  0
  -24.3582  -36.8919   22.2054 H   0  0  0  0  0  0
  -23.7258  -37.6498   23.6674 H   0  0  0  0  0  0
  -26.0986  -31.5342   20.6033 H   0  0  0  0  0  0
  -26.8516  -30.8437   22.0089 H   0  0  0  0  0  0
  -28.1383  -28.9670   21.2299 H   0  0  0  0  0  0
  -26.0459  -25.9245   19.0144 H   0  0  0  0  0  0
  -24.0018  -27.2943   19.0124 H   0  0  0  0  0  0
  -23.7782  -30.5761   19.4014 H   0  0  0  0  0  0
  -22.7737  -29.2329   19.8591 H   0  0  0  0  0  0
  -25.1286  -36.1913   25.0829 H   0  0  0  0  0  0
  -20.9969  -28.3322   24.1396 H   0  0  0  0  0  0
  -20.5692  -26.2326   23.3614 H   0  0  0  0  0  0
  -21.6664  -26.7469   22.1213 H   0  0  0  0  0  0
  -19.6912  -25.6307   21.1247 H   0  0  0  0  0  0
  -19.6703  -27.3204   20.6743 H   0  0  0  0  0  0
  -17.4203  -26.6684   21.4026 H   0  0  0  0  0  0
  -18.0338  -26.0116   22.9029 H   0  0  0  0  0  0
  -19.7942  -30.7285   24.2289 H   0  0  0  0  0  0
  -17.5020  -31.6276   24.5174 H   0  0  0  0  0  0
  -15.5360  -30.3005   23.7654 H   0  0  0  0  0  0
  -15.8671  -28.0832   22.7083 H   0  0  0  0  0  0
  -24.5830  -30.7155   25.7821 H   0  0  0  0  0  0
  -24.8959  -32.2951   26.4927 H   0  0  0  0  0  0
  -25.8029  -30.8918   27.0232 H   0  0  0  0  0  0
  -26.2892  -29.6772   24.1196 H   0  0  0  0  0  0
  -27.3941  -29.7243   25.4728 H   0  0  0  0  0  0
  -27.8786  -30.4263   23.9468 H   0  0  0  0  0  0
  -27.2639  -33.3665   26.2013 H   0  0  0  0  0  0
  -28.3866  -32.6849   25.0338 H   0  0  0  0  0  0
  -28.0651  -31.8495   26.5464 H   0  0  0  0  0  0
  -28.2585  -38.0104   24.7498 H   0  0  0  0  0  0
  -28.1080  -36.2639   24.6271 H   0  0  0  0  0  0
  -27.2296  -37.1449   25.8853 H   0  0  0  0  0  0
  -20.9413  -29.8736   21.6816 H   0  0  0  0  0  0
  -26.0150  -38.2830   24.1426 H   0  0  0  0  0  0
  -27.9372  -20.0239   21.5534 H   0  0  0  0  0  0
  -32.0967  -17.5154   20.6365 H   0  0  0  0  0  0
  -25.4650  -17.7340   20.2522 H   0  0  0  0  0  0
  -26.8404  -17.6755   19.1433 H   0  0  0  0  0  0
  -26.4934  -19.1214   20.0753 H   0  0  0  0  0  0
  -31.5204  -24.5931   24.1641 H   0  0  0  0  0  0
  -31.3687  -25.7067   22.8217 H   0  0  0  0  0  0
  -31.7037  -24.0111   22.5158 H   0  0  0  0  0  0
  -27.2794  -23.1383   22.3855 H   0  0  0  0  0  0
  -26.9404  -24.0971   20.9476 H   0  0  0  0  0  0
  -27.0073  -24.8718   22.5199 H   0  0  0  0  0  0
  -26.9791  -17.7573   22.2134 H   0  0  0  0  0  0
  -27.4298  -16.4040   21.2256 H   0  0  0  0  0  0
  -31.0111  -21.9268   22.1600 H   0  0  0  0  0  0
  -29.3689  -21.6845   22.6051 H   0  0  0  0  0  0
  -29.1386  -25.1862   23.7149 H   0  0  0  0  0  0
  -29.4277  -23.5042   23.6821 H   0  0  0  0  0  0
  -28.8311  -22.7484   20.1603 H   0  0  0  0  0  0
  -30.4300  -23.3806   20.3038 H   0  0  0  0  0  0
  -30.1496  -26.0113   20.8421 H   0  0  0  0  0  0
  -28.9567  -26.5667   21.9528 H   0  0  0  0  0  0
  -28.8899  -15.4703   21.0573 H   0  0  0  0  0  0
  1 25  1  0  0  0
  1 30  2  0  0  0
  1 86  1  0  0  0
  2  3  1  0  0  0
  2 25  1  0  0  0
  2 88  1  0  0  0
  2 89  1  0  0  0
  3  4  1  0  0  0
  3 90  1  0  0  0
  3 91  1  0  0  0
  4  5  1  0  0  0
  4 92  1  0  0  0
  4 93  1  0  0  0
  5  6  1  0  0  0
  5 26  1  0  0  0
  5 94  1  0  0  0
  6 25  1  0  0  0
  6 95  1  0  0  0
  6 96  1  0  0  0
  7  8  2  0  0  0
  7 26  1  0  0  0
  7 29  1  0  0  0
  8  9  1  0  0  0
  8 22  1  0  0  0
  9 10  1  0  0  0
  9 27  2  0  0  0
 10 11  2  0  0  0
 10 15  1  0  0  0
 11 12  1  0  0  0
 11 97  1  0  0  0
 12 13  2  0  0  0
 12 98  1  0  0  0
 13 14  1  0  0  0
 13 31  1  0  0  0
 14 15  2  0  0  0
 14 99  1  0  0  0
 15100  1  0  0  0
 16 17  2  0  0  0
 16 21  1  0  0  0
 16 31  1  0  0  0
 17 18  1  0  0  0
 17101  1  0  0  0
 18 19  2  0  0  0
 18102  1  0  0  0
 19 20  1  0  0  0
 19 24  1  0  0  0
 20 21  2  0  0  0
 20103  1  0  0  0
 21 23  1  0  0  0
 22 28  1  0  0  0
 22 32  2  0  0  0
 26 27  1  0  0  0
 28104  1  0  0  0
 28105  1  0  0  0
 29106  1  0  0  0
 29107  1  0  0  0
 33 34  1  0  0  0
 33 66  1  0  0  0
 33 70  2  0  0  0
 34 36  1  0  0  0
 34 59  1  0  0  0
 34108  1  0  0  0
 35 44  2  0  0  0
 35 45  1  0  0  0
 35 68  1  0  0  0
 36 56  1  0  0  0
 36109  1  0  0  0
 37 39  1  0  0  0
 37 47  1  0  0  0
 37 66  1  0  0  0
 37110  1  0  0  0
 38 43  2  0  0  0
 38 46  1  0  0  0
 38 47  1  0  0  0
 39 64  1  0  0  0
 39 67  2  0  0  0
 40 52  1  0  0  0
 40 53  2  0  0  0
 40 58  1  0  0  0
 41111  1  0  0  0
 41112  1  0  0  0
 41113  1  0  0  0
 41 48  1  0  0  0
 42 43  1  0  0  0
 42 66  1  0  0  0
 42114  1  0  0  0
 42115  1  0  0  0
 43 44  1  0  0  0
 44116  1  0  0  0
 45 46  2  0  0  0
 45117  1  0  0  0
 46118  1  0  0  0
 47119  1  0  0  0
 47120  1  0  0  0
 48 56  1  0  0  0
 48 65  1  0  0  0
 48121  1  0  0  0
 49 50  1  0  0  0
 49 53  1  0  0  0
 49 64  1  0  0  0
 49122  1  0  0  0
 50 51  1  0  0  0
 50123  1  0  0  0
 50124  1  0  0  0
 51 52  1  0  0  0
 51125  1  0  0  0
 51126  1  0  0  0
 52127  1  0  0  0
 52128  1  0  0  0
 53 54  1  0  0  0
 54 55  2  0  0  0
 54129  1  0  0  0
 55 57  1  0  0  0
 55130  1  0  0  0
 56 69  2  0  0  0
 57 58  2  0  0  0
 57131  1  0  0  0
 58132  1  0  0  0
 59 60  1  0  0  0
 59 61  1  0  0  0
 59 62  1  0  0  0
 60133  1  0  0  0
 60134  1  0  0  0
 60135  1  0  0  0
 61136  1  0  0  0
 61137  1  0  0  0
 61138  1  0  0  0
 62139  1  0  0  0
 62140  1  0  0  0
 62141  1  0  0  0
 63 65  1  0  0  0
 63142  1  0  0  0
 63143  1  0  0  0
 63144  1  0  0  0
 64145  1  0  0  0
 65146  1  0  0  0
 68 84  1  0  0  0
 71 73  2  0  0  0
 71 74  1  0  0  0
 71147  1  0  0  0
 72 75  2  0  0  0
 72 76  1  0  0  0
 72148  1  0  0  0
 73 75  1  0  0  0
 73 80  1  0  0  0
 74 76  2  0  0  0
 74 81  1  0  0  0
 75 86  1  0  0  0
 76 87  1  0  0  0
 77 80  1  0  0  0
 77149  1  0  0  0
 77150  1  0  0  0
 77151  1  0  0  0
 78 82  1  0  0  0
 78152  1  0  0  0
 78153  1  0  0  0
 78154  1  0  0  0
 79155  1  0  0  0
 79156  1  0  0  0
 79157  1  0  0  0
 79 85  1  0  0  0
 80158  1  0  0  0
 80159  1  0  0  0
 81 83  1  0  0  0
 81160  1  0  0  0
 81161  1  0  0  0
 82 85  1  0  0  0
 82162  1  0  0  0
 82163  1  0  0  0
 83 85  1  0  0  0
 83164  1  0  0  0
 83165  1  0  0  0
 84 85  1  0  0  0
 84166  1  0  0  0
 84167  1  0  0  0
 86168  1  0  0  0
M  ISO  4   1 100  68 101  84 101  86 100
M  END
> <chiral flag>
0

> <version>
0

> <s_m_source_file>
/data/baiqing/PycharmProjects/Reinvent-master-3.2/result/LINK_invent/BTK/process_docking_weight1_custom_product_contain_oxygen_bond_distance_aromatic_linkinvent_7_9_3/rearranged_h_0135.sdf

> <i_m_source_file_index>
29

> <r_mmod_Potential_Energy-OPLS-2005>
259.972045898438

> <r_mmod_Stretch_Energy-OPLS-2005>
113.251045227051

> <r_mmod_Bend_Energy-OPLS-2005>
223.916091918945

> <r_mmod_Torsional_Energy-OPLS-2005>
259.087066650391

> <r_mmod_Improper_Torsional_Energy-OPLS-2005>
7.01162815093994

> <r_mmod_Van_der_Waal_Energy-OPLS-2005>
143.213027954102

> <r_mmod_Electrostatic_Energy-OPLS-2005>
-368.800231933594

> <r_mmod_Solvation_Energy-OPLS-2005>
-184.922470092773

> <b_mmod_Minimization_Converged-OPLS-2005>
0

> <r_mmod_RMS_Derivative-OPLS-2005>
2.90840101242065

$$$$
29
                    3D
 Structure written by MMmdl.
157165  0  0  1  0            999 V2000
  -31.1144  -14.0047   21.4168 C   0  0  0  0  0  0
  -30.7914  -12.9985   18.7160 C   0  0  0  0  0  0
  -29.2433  -12.7420   17.6699 C   0  0  0  0  0  0
  -27.3936  -13.0274   18.1125 C   0  0  0  0  0  0
  -26.8910  -14.1998   19.6656 C   0  0  2  0  0  0
  -29.9245  -15.0678   20.4773 C   0  0  0  0  0  0
  -24.8983  -14.0120   20.8295 C   0  0  0  0  0  0
  -23.9768  -13.0701   21.0532 C   0  0  0  0  0  0
  -24.5851  -11.7839   20.8937 C   0  0  0  0  0  0
  -23.9345  -10.4571   21.0142 C   0  0  0  0  0  0
  -24.3869   -9.4495   21.8988 C   0  0  0  0  0  0
  -23.6538   -8.2485   22.0657 C   0  0  0  0  0  0
  -22.4504   -8.0396   21.3502 C   0  0  0  0  0  0
  -22.0170   -9.0311   20.4541 C   0  0  0  0  0  0
  -22.7496  -10.2188   20.2846 C   0  0  0  0  0  0
  -21.6994   -6.0809   22.5280 C   0  0  0  0  0  0
  -21.4123   -6.5692   23.8207 C   0  0  0  0  0  0
  -21.3687   -5.6833   24.9159 C   0  0  0  0  0  0
  -21.6036   -4.3085   24.7216 C   0  0  0  0  0  0
  -21.8802   -3.8179   23.4328 C   0  0  0  0  0  0
  -21.9232   -4.7016   22.3391 C   0  0  0  0  0  0
  -22.5665  -13.4444   21.2652 C   0  0  0  0  0  0
  -22.1670   -4.2188   21.0968 F   0  0  0  0  0  0
  -21.5603   -3.4556   25.7715 F   0  0  0  0  0  0
  -30.9606  -14.0435   20.0606 N   0  0  0  0  0  0
  -25.9587  -13.3518   20.4008 N   0  0  0  0  0  0
  -25.8562  -11.9641   20.4972 N   0  0  0  0  0  0
  -21.8779  -12.7163   22.1224 N   0  0  0  0  0  0
  -24.8868  -15.4053   20.8292 N   0  0  0  0  0  0
  -32.2946  -14.2767   21.5445 O   0  0  0  0  0  0
  -21.6834   -6.8982   21.4252 O   0  0  0  0  0  0
  -22.1065  -14.4502   20.7221 O   0  0  0  0  0  0
  -24.7005  -31.7839   23.1427 C   0  0  0  0  0  0
  -25.9526  -32.4372   23.7993 C   0  0  1  0  0  0
  -27.0694  -26.5271   20.1170 C   0  0  0  0  0  0
  -25.6061  -33.8212   24.1860 N   0  0  0  0  0  0
  -23.5199  -30.3980   21.5055 C   0  0  2  0  0  0
  -24.9378  -28.7230   20.0912 C   0  0  0  0  0  0
  -22.7804  -29.4261   22.4660 C   0  0  0  0  0  0
  -18.0353  -28.1436   22.8456 C   0  0  0  0  0  0
  -24.1498  -36.7104   23.2655 C   0  0  0  0  0  0
  -26.1092  -30.4455   21.4301 C   0  0  0  0  0  0
  -26.1374  -29.0028   20.7534 C   0  0  0  0  0  0
  -27.1933  -27.9262   20.7420 C   0  0  0  0  0  0
  -25.8638  -26.5127   19.3919 C   0  0  0  0  0  0
  -24.8502  -27.5107   19.3918 C   0  0  0  0  0  0
  -23.7646  -29.7131   20.1327 C   0  0  0  0  0  0
  -25.4157  -36.2833   24.0259 C   0  0  1  0  0  0
  -20.5994  -28.3793   23.1128 C   0  0  2  0  0  0
  -20.6812  -26.9443   22.5400 C   0  0  0  0  0  0
  -19.5778  -26.6367   21.5228 C   0  0  0  0  0  0
  -18.1966  -26.7961   22.1633 C   0  0  0  0  0  0
  -19.1622  -28.8943   23.2775 C   0  0  0  0  0  0
  -18.9517  -30.1529   23.8817 C   0  0  0  0  0  0
  -17.6501  -30.6609   24.0552 C   0  0  0  0  0  0
  -25.9162  -34.9234   23.4898 C   0  0  0  0  0  0
  -16.5395  -29.9083   23.6359 C   0  0  0  0  0  0
  -16.7330  -28.6516   23.0364 C   0  0  0  0  0  0
  -26.4633  -31.6487   25.0693 C   0  0  0  0  0  0
  -25.3642  -31.3869   26.1268 C   0  0  0  0  0  0
  -27.0586  -30.2803   24.6738 C   0  0  0  0  0  0
  -27.6052  -32.4383   25.7517 C   0  0  0  0  0  0
  -27.5560  -37.1710   24.8462 C   0  0  0  0  0  0
  -21.4443  -29.3026   22.3432 N   0  0  0  0  0  0
  -26.4264  -37.3614   23.9409 N   0  0  0  0  0  0
  -24.8046  -30.9128   22.0766 N   0  0  0  0  0  0
  -23.4221  -28.7840   23.3004 O   0  0  0  0  0  0
  -27.8616  -25.1562   20.1515 O   0  0  0  0  0  0
  -26.5803  -34.8855   22.4521 O   0  0  0  0  0  0
  -23.6002  -32.1009   23.6309 O   0  0  0  0  0  0
  -28.7800  -13.2402   19.9772 C   0  0  0  0  0  0
  -28.4185  -13.2550   21.4271 C   0  0  0  0  0  0
  -28.6502  -15.0734   18.7409 C   0  0  0  0  0  0
  -28.2639  -14.5489   22.0944 C   0  0  0  0  0  0
  -27.8453  -15.9396   21.3268 C   0  0  0  0  0  0
  -28.0951  -16.4606   19.7755 C   0  0  0  0  0  0
  -29.8015  -14.1870   22.6746 C   0  0  0  0  0  0
  -27.9722  -21.6147   20.0538 C   0  0  0  0  0  0
  -27.1813  -16.6546   23.7435 C   0  0  0  0  0  0
  -27.4740  -17.0694   22.2912 C   0  0  0  0  0  0
  -27.5272  -23.4445   19.5942 C   0  0  0  0  0  0
  -27.9110  -19.8353   19.2797 C   0  0  0  0  0  0
  -30.0383  -14.1035   23.9172 N   0  0  0  0  0  0
  -28.4405  -21.5671   21.1954 O   0  0  0  0  0  0
  -27.9926  -18.1297   19.8973 O   0  0  0  0  0  0
  -31.5924  -13.2757   18.0314 H   0  0  0  0  0  0
  -31.0994  -12.0146   19.0755 H   0  0  0  0  0  0
  -29.3056  -11.7210   17.2880 H   0  0  0  0  0  0
  -29.4181  -13.3234   16.7627 H   0  0  0  0  0  0
  -26.9464  -12.0417   18.2362 H   0  0  0  0  0  0
  -26.8855  -13.4153   17.2285 H   0  0  0  0  0  0
  -26.3133  -14.9398   19.0933 H   0  0  0  0  0  0
  -30.1433  -15.9876   21.0897 H   0  0  0  0  0  0
  -30.4680  -15.7449   19.7777 H   0  0  0  0  0  0
  -25.2897   -9.6110   22.4698 H   0  0  0  0  0  0
  -24.0234   -7.4961   22.7473 H   0  0  0  0  0  0
  -21.1081   -8.8823   19.8880 H   0  0  0  0  0  0
  -22.3808  -10.9711   19.6010 H   0  0  0  0  0  0
  -21.2171   -7.6209   23.9725 H   0  0  0  0  0  0
  -21.1514   -6.0557   25.9062 H   0  0  0  0  0  0
  -22.0541   -2.7639   23.2823 H   0  0  0  0  0  0
  -22.2921  -11.9182   22.5796 H   0  0  0  0  0  0
  -20.9187  -12.9573   22.3299 H   0  0  0  0  0  0
  -24.0512  -15.9417   21.0333 H   0  0  0  0  0  0
  -25.7008  -15.9763   20.6444 H   0  0  0  0  0  0
  -26.7612  -32.4750   23.0694 H   0  0  0  0  0  0
  -25.0092  -33.9204   24.9941 H   0  0  0  0  0  0
  -22.8550  -31.2450   21.3236 H   0  0  0  0  0  0
  -23.3789  -35.9402   23.3229 H   0  0  0  0  0  0
  -24.3562  -36.8870   22.2089 H   0  0  0  0  0  0
  -23.7232  -37.6240   23.6806 H   0  0  0  0  0  0
  -26.3539  -31.1704   20.6523 H   0  0  0  0  0  0
  -26.9509  -30.4861   22.1084 H   0  0  0  0  0  0
  -28.0910  -28.1229   21.3109 H   0  0  0  0  0  0
  -25.6357  -25.6077   18.8470 H   0  0  0  0  0  0
  -23.9443  -27.2980   18.8423 H   0  0  0  0  0  0
  -23.9657  -30.4815   19.3855 H   0  0  0  0  0  0
  -22.8555  -29.2146   19.7926 H   0  0  0  0  0  0
  -25.1376  -36.1555   25.0743 H   0  0  0  0  0  0
  -21.0094  -28.3423   24.1250 H   0  0  0  0  0  0
  -20.5692  -26.2411   23.3668 H   0  0  0  0  0  0
  -21.6664  -26.7372   22.1206 H   0  0  0  0  0  0
  -19.6915  -25.6253   21.1315 H   0  0  0  0  0  0
  -19.6722  -27.3132   20.6726 H   0  0  0  0  0  0
  -17.4231  -26.6722   21.4039 H   0  0  0  0  0  0
  -18.0339  -26.0132   22.9055 H   0  0  0  0  0  0
  -19.7986  -30.7382   24.2139 H   0  0  0  0  0  0
  -17.5040  -31.6279   24.5170 H   0  0  0  0  0  0
  -15.5387  -30.2948   23.7727 H   0  0  0  0  0  0
  -15.8741  -28.0808   22.7102 H   0  0  0  0  0  0
  -24.5828  -30.7239   25.7536 H   0  0  0  0  0  0
  -24.8843  -32.3118   26.4470 H   0  0  0  0  0  0
  -25.7747  -30.9140   27.0197 H   0  0  0  0  0  0
  -26.3317  -29.6341   24.1809 H   0  0  0  0  0  0
  -27.4009  -29.7349   25.5543 H   0  0  0  0  0  0
  -27.9312  -30.3882   24.0295 H   0  0  0  0  0  0
  -27.2583  -33.3780   26.1827 H   0  0  0  0  0  0
  -28.3999  -32.6792   25.0445 H   0  0  0  0  0  0
  -28.0575  -31.8700   26.5655 H   0  0  0  0  0  0
  -28.2512  -38.0065   24.7537 H   0  0  0  0  0  0
  -28.1122  -36.2585   24.6254 H   0  0  0  0  0  0
  -27.2280  -37.1301   25.8863 H   0  0  0  0  0  0
  -20.9753  -29.8701   21.6515 H   0  0  0  0  0  0
  -26.0064  -38.2647   24.1439 H   0  0  0  0  0  0
  -28.9308  -12.1809   19.7775 H   0  0  0  0  0  0
  -28.4918  -12.3201   21.9765 H   0  0  0  0  0  0
  -28.9045  -15.2036   17.6971 H   0  0  0  0  0  0
  -26.8530  -17.5186   24.3228 H   0  0  0  0  0  0
  -28.0724  -16.2619   24.2354 H   0  0  0  0  0  0
  -26.3921  -15.9044   23.7963 H   0  0  0  0  0  0
  -26.6037  -17.5929   21.8912 H   0  0  0  0  0  0
  -28.2956  -17.7885   22.3035 H   0  0  0  0  0  0
  -26.4380  -23.4118   19.5731 H   0  0  0  0  0  0
  -27.7982  -23.4864   18.5402 H   0  0  0  0  0  0
  -28.7190  -19.8654   18.5506 H   0  0  0  0  0  0
  -27.0077  -19.8529   18.6715 H   0  0  0  0  0  0
  -29.1912  -14.2520   24.4518 H   0  0  0  0  0  0
  1 25  1  0  0  0
  1 30  2  0  0  0
  1 77  1  0  0  0
  2  3  1  0  0  0
  2 25  1  0  0  0
  2 86  1  0  0  0
  2 87  1  0  0  0
  3  4  1  0  0  0
  3 88  1  0  0  0
  3 89  1  0  0  0
  4  5  1  0  0  0
  4 90  1  0  0  0
  4 91  1  0  0  0
  5  6  1  0  0  0
  5 26  1  0  0  0
  5 92  1  0  0  0
  6 25  1  0  0  0
  6 93  1  0  0  0
  6 94  1  0  0  0
  7  8  2  0  0  0
  7 26  1  0  0  0
  7 29  1  0  0  0
  8  9  1  0  0  0
  8 22  1  0  0  0
  9 10  1  0  0  0
  9 27  2  0  0  0
 10 11  2  0  0  0
 10 15  1  0  0  0
 11 12  1  0  0  0
 11 95  1  0  0  0
 12 13  2  0  0  0
 12 96  1  0  0  0
 13 14  1  0  0  0
 13 31  1  0  0  0
 14 15  2  0  0  0
 14 97  1  0  0  0
 15 98  1  0  0  0
 16 17  2  0  0  0
 16 21  1  0  0  0
 16 31  1  0  0  0
 17 18  1  0  0  0
 17 99  1  0  0  0
 18 19  2  0  0  0
 18100  1  0  0  0
 19 20  1  0  0  0
 19 24  1  0  0  0
 20 21  2  0  0  0
 20101  1  0  0  0
 21 23  1  0  0  0
 22 28  1  0  0  0
 22 32  2  0  0  0
 26 27  1  0  0  0
 28102  1  0  0  0
 28103  1  0  0  0
 29104  1  0  0  0
 29105  1  0  0  0
 33 34  1  0  0  0
 33 66  1  0  0  0
 33 70  2  0  0  0
 34 36  1  0  0  0
 34 59  1  0  0  0
 34106  1  0  0  0
 35 44  2  0  0  0
 35 45  1  0  0  0
 35 68  1  0  0  0
 36 56  1  0  0  0
 36107  1  0  0  0
 37 39  1  0  0  0
 37 47  1  0  0  0
 37 66  1  0  0  0
 37108  1  0  0  0
 38 43  2  0  0  0
 38 46  1  0  0  0
 38 47  1  0  0  0
 39 64  1  0  0  0
 39 67  2  0  0  0
 40 52  1  0  0  0
 40 53  2  0  0  0
 40 58  1  0  0  0
 41109  1  0  0  0
 41110  1  0  0  0
 41111  1  0  0  0
 41 48  1  0  0  0
 42 43  1  0  0  0
 42 66  1  0  0  0
 42112  1  0  0  0
 42113  1  0  0  0
 43 44  1  0  0  0
 44114  1  0  0  0
 45 46  2  0  0  0
 45115  1  0  0  0
 46116  1  0  0  0
 47117  1  0  0  0
 47118  1  0  0  0
 48 56  1  0  0  0
 48 65  1  0  0  0
 48119  1  0  0  0
 49 50  1  0  0  0
 49 53  1  0  0  0
 49 64  1  0  0  0
 49120  1  0  0  0
 50 51  1  0  0  0
 50121  1  0  0  0
 50122  1  0  0  0
 51 52  1  0  0  0
 51123  1  0  0  0
 51124  1  0  0  0
 52125  1  0  0  0
 52126  1  0  0  0
 53 54  1  0  0  0
 54 55  2  0  0  0
 54127  1  0  0  0
 55 57  1  0  0  0
 55128  1  0  0  0
 56 69  2  0  0  0
 57 58  2  0  0  0
 57129  1  0  0  0
 58130  1  0  0  0
 59 60  1  0  0  0
 59 61  1  0  0  0
 59 62  1  0  0  0
 60131  1  0  0  0
 60132  1  0  0  0
 60133  1  0  0  0
 61134  1  0  0  0
 61135  1  0  0  0
 61136  1  0  0  0
 62137  1  0  0  0
 62138  1  0  0  0
 62139  1  0  0  0
 63 65  1  0  0  0
 63140  1  0  0  0
 63141  1  0  0  0
 63142  1  0  0  0
 64143  1  0  0  0
 65144  1  0  0  0
 68 81  1  0  0  0
 71 72  2  0  0  0
 71 73  1  0  0  0
 71145  1  0  0  0
 72 74  1  0  0  0
 72146  1  0  0  0
 73 76  2  0  0  0
 73147  1  0  0  0
 74 75  2  0  0  0
 74 77  1  0  0  0
 75 76  1  0  0  0
 75 80  1  0  0  0
 76 85  1  0  0  0
 77 83  2  0  0  0
 78 81  1  0  0  0
 78 82  1  0  0  0
 78 84  2  0  0  0
 79 80  1  0  0  0
 79148  1  0  0  0
 79149  1  0  0  0
 79150  1  0  0  0
 80151  1  0  0  0
 80152  1  0  0  0
 81153  1  0  0  0
 81154  1  0  0  0
 82 85  1  0  0  0
 82155  1  0  0  0
 82156  1  0  0  0
 83157  1  0  0  0
M  ISO  4   1 100  68 101  77 100  81 101
M  END
> <chiral flag>
0

> <version>
0

> <s_m_source_file>
/data/baiqing/PycharmProjects/Reinvent-master-3.2/result/LINK_invent/BTK/process_docking_weight1_custom_product_contain_oxygen_bond_distance_aromatic_linkinvent_7_9_3/rearranged_h_0135.sdf

> <i_m_source_file_index>
30

> <r_mmod_Potential_Energy-OPLS-2005>
14286.0830078125

> <r_mmod_Stretch_Energy-OPLS-2005>
7461.8310546875

> <r_mmod_Bend_Energy-OPLS-2005>
1424.9990234375

> <r_mmod_Torsional_Energy-OPLS-2005>
458.107299804688

> <r_mmod_Improper_Torsional_Energy-OPLS-2005>
55.4285469055176

> <r_mmod_Van_der_Waal_Energy-OPLS-2005>
3057.2587890625

> <r_mmod_Electrostatic_Energy-OPLS-2005>
-196.074111938477

> <r_mmod_Solvation_Energy-OPLS-2005>
-243.132751464844

> <b_mmod_Minimization_Converged-OPLS-2005>
0

> <r_mmod_RMS_Derivative-OPLS-2005>
5.00242567062378

$$$$
30
                    3D
 Structure written by MMmdl.
162170  0  0  1  0            999 V2000
  -30.7017  -14.4421   20.6016 C   0  0  0  0  0  0
  -30.4244  -12.2970   19.4144 C   0  0  0  0  0  0
  -29.4932  -12.5151   18.2039 C   0  0  0  0  0  0
  -28.0143  -12.3723   18.6157 C   0  0  0  0  0  0
  -27.6650  -13.2014   19.8801 C   0  0  2  0  0  0
  -28.7034  -12.9518   20.9966 C   0  0  0  0  0  0
  -25.2598  -13.8156   20.5679 C   0  0  0  0  0  0
  -24.1842  -13.0441   20.9173 C   0  0  0  0  0  0
  -24.6389  -11.6905   20.8729 C   0  0  0  0  0  0
  -23.9056  -10.4297   21.0403 C   0  0  0  0  0  0
  -24.3611   -9.4212   21.9180 C   0  0  0  0  0  0
  -23.6296   -8.2245   22.0745 C   0  0  0  0  0  0
  -22.4274   -8.0285   21.3542 C   0  0  0  0  0  0
  -21.9905   -9.0261   20.4647 C   0  0  0  0  0  0
  -22.7234  -10.2143   20.3050 C   0  0  0  0  0  0
  -21.6851   -6.0742   22.5283 C   0  0  0  0  0  0
  -21.4004   -6.5641   23.8218 C   0  0  0  0  0  0
  -21.3655   -5.6786   24.9177 C   0  0  0  0  0  0
  -21.6047   -4.3052   24.7222 C   0  0  0  0  0  0
  -21.8821   -3.8152   23.4341 C   0  0  0  0  0  0
  -21.9194   -4.6970   22.3400 C   0  0  0  0  0  0
  -22.7868  -13.5242   21.1850 C   0  0  0  0  0  0
  -22.1666   -4.2160   21.0978 F   0  0  0  0  0  0
  -21.5630   -3.4527   25.7729 F   0  0  0  0  0  0
  -30.0401  -13.2621   20.4565 N   0  0  0  0  0  0
  -26.3033  -12.9319   20.3377 N   0  0  0  0  0  0
  -25.9314  -11.6482   20.5765 N   0  0  0  0  0  0
  -22.0505  -12.8228   22.0400 N   0  0  0  0  0  0
  -25.4333  -15.1870   20.4101 N   0  0  0  0  0  0
  -31.8065  -14.6491   20.0919 O   0  0  0  0  0  0
  -21.6639   -6.8882   21.4244 O   0  0  0  0  0  0
  -22.3557  -14.5560   20.6714 O   0  0  0  0  0  0
  -24.6115  -31.8691   23.2112 C   0  0  0  0  0  0
  -25.9019  -32.4828   23.8399 C   0  0  1  0  0  0
  -27.2390  -27.4575   20.1007 C   0  0  0  0  0  0
  -25.5891  -33.8624   24.2338 N   0  0  0  0  0  0
  -23.3995  -30.4909   21.5502 C   0  0  2  0  0  0
  -24.8485  -28.9547   20.1187 C   0  0  0  0  0  0
  -22.7397  -29.4656   22.5000 C   0  0  0  0  0  0
  -18.0269  -28.1381   22.8486 C   0  0  0  0  0  0
  -24.1481  -36.7299   23.2636 C   0  0  0  0  0  0
  -25.9249  -30.8422   21.3600 C   0  0  0  0  0  0
  -26.0052  -29.4761   20.7121 C   0  0  0  0  0  0
  -27.2062  -28.7342   20.6996 C   0  0  0  0  0  0
  -26.0700  -26.9394   19.5077 C   0  0  0  0  0  0
  -24.8741  -27.6837   19.5144 C   0  0  0  0  0  0
  -23.6079  -29.8181   20.1660 C   0  0  0  0  0  0
  -25.4093  -36.3107   24.0352 C   0  0  1  0  0  0
  -20.5858  -28.3656   23.1336 C   0  0  2  0  0  0
  -20.6748  -26.9390   22.5450 C   0  0  0  0  0  0
  -19.5747  -26.6388   21.5222 C   0  0  0  0  0  0
  -18.1911  -26.7943   22.1590 C   0  0  0  0  0  0
  -19.1520  -28.8834   23.2908 C   0  0  0  0  0  0
  -18.9446  -30.1443   23.8914 C   0  0  0  0  0  0
  -17.6448  -30.6581   24.0571 C   0  0  0  0  0  0
  -25.9032  -34.9478   23.5143 C   0  0  0  0  0  0
  -16.5340  -29.9084   23.6331 C   0  0  0  0  0  0
  -16.7259  -28.6506   23.0343 C   0  0  0  0  0  0
  -26.4457  -31.6603   25.0717 C   0  0  0  0  0  0
  -25.3730  -31.3729   26.1484 C   0  0  0  0  0  0
  -27.0254  -30.3038   24.6073 C   0  0  0  0  0  0
  -27.6069  -32.4295   25.7443 C   0  0  0  0  0  0
  -27.5604  -37.1762   24.8429 C   0  0  0  0  0  0
  -21.4130  -29.3018   22.3738 N   0  0  0  0  0  0
  -26.4263  -37.3810   23.9453 N   0  0  0  0  0  0
  -24.6632  -31.0814   22.0993 N   0  0  0  0  0  0
  -23.4182  -28.8208   23.3039 O   0  0  0  0  0  0
  -28.4037  -26.7327   20.0672 O   0  0  0  0  0  0
  -26.5593  -34.8933   22.4705 O   0  0  0  0  0  0
  -23.5312  -32.1423   23.7524 O   0  0  0  0  0  0
  -31.0806  -17.5282   20.5130 C   0  0  0  0  0  0
  -31.1277  -18.9354   20.5724 C   0  0  0  0  0  0
  -29.2696  -17.5314   22.1318 C   0  0  0  0  0  0
  -29.3092  -18.9444   22.1885 C   0  0  0  0  0  0
  -30.1510  -16.8045   21.2998 C   0  0  0  0  0  0
  -30.2384  -19.6564   21.3950 C   0  0  0  0  0  0
  -29.2622  -23.1677   21.1602 C   0  0  0  0  0  0
  -29.0119  -19.9838   24.4827 C   0  0  0  0  0  0
  -30.4787  -21.9639   19.2492 C   0  0  0  0  0  0
  -28.3645  -19.6798   23.1265 C   0  0  0  0  0  0
  -28.8920  -24.3396   20.2302 C   0  0  0  0  0  0
  -28.4470  -25.6217   20.9670 C   0  0  0  0  0  0
  -29.6308  -21.8045   20.5261 C   0  0  1  0  0  0
  -30.0238  -15.3801   21.2931 N   0  0  0  0  0  0
  -29.2440  -23.3052   22.3885 O   0  0  0  0  0  0
  -30.3460  -21.0253   21.4956 O   0  0  0  0  0  0
  -31.4683  -12.3983   19.1118 H   0  0  0  0  0  0
  -30.3255  -11.2788   19.7937 H   0  0  0  0  0  0
  -29.7315  -11.8046   17.4111 H   0  0  0  0  0  0
  -29.6621  -13.5087   17.7850 H   0  0  0  0  0  0
  -27.8235  -11.3152   18.8049 H   0  0  0  0  0  0
  -27.3618  -12.6533   17.7888 H   0  0  0  0  0  0
  -27.7201  -14.2536   19.5998 H   0  0  0  0  0  0
  -28.6739  -11.9062   21.3082 H   0  0  0  0  0  0
  -28.4570  -13.5209   21.8934 H   0  0  0  0  0  0
  -25.2763   -9.5695   22.4743 H   0  0  0  0  0  0
  -24.0020   -7.4629   22.7450 H   0  0  0  0  0  0
  -21.0836   -8.8784   19.8953 H   0  0  0  0  0  0
  -22.3701  -10.9675   19.6147 H   0  0  0  0  0  0
  -21.1987   -7.6147   23.9723 H   0  0  0  0  0  0
  -21.1468   -6.0511   25.9080 H   0  0  0  0  0  0
  -22.0598   -2.7615   23.2832 H   0  0  0  0  0  0
  -22.4106  -11.9871   22.4763 H   0  0  0  0  0  0
  -21.1129  -13.1267   22.2619 H   0  0  0  0  0  0
  -24.6683  -15.8441   20.5168 H   0  0  0  0  0  0
  -26.2935  -15.6268   20.1068 H   0  0  0  0  0  0
  -26.7092  -32.5555   23.1171 H   0  0  0  0  0  0
  -25.0069  -33.9781   25.0503 H   0  0  0  0  0  0
  -22.6867  -31.3064   21.4108 H   0  0  0  0  0  0
  -23.3782  -35.9589   23.3220 H   0  0  0  0  0  0
  -24.3617  -36.8983   22.2072 H   0  0  0  0  0  0
  -23.7168  -37.6455   23.6689 H   0  0  0  0  0  0
  -26.0325  -31.6079   20.5903 H   0  0  0  0  0  0
  -26.8149  -30.8980   21.9752 H   0  0  0  0  0  0
  -28.1037  -29.1347   21.1504 H   0  0  0  0  0  0
  -26.0901  -25.9659   19.0381 H   0  0  0  0  0  0
  -23.9844  -27.2757   19.0541 H   0  0  0  0  0  0
  -23.7108  -30.5898   19.4021 H   0  0  0  0  0  0
  -22.7342  -29.2316   19.8759 H   0  0  0  0  0  0
  -25.1253  -36.1957   25.0837 H   0  0  0  0  0  0
  -20.9960  -28.3233   24.1453 H   0  0  0  0  0  0
  -20.5632  -26.2266   23.3638 H   0  0  0  0  0  0
  -21.6625  -26.7418   22.1269 H   0  0  0  0  0  0
  -19.6906  -25.6303   21.1240 H   0  0  0  0  0  0
  -19.6728  -27.3210   20.6769 H   0  0  0  0  0  0
  -17.4221  -26.6760   21.3944 H   0  0  0  0  0  0
  -18.0246  -26.0060   22.8947 H   0  0  0  0  0  0
  -19.7926  -30.7250   24.2288 H   0  0  0  0  0  0
  -17.5010  -31.6262   24.5178 H   0  0  0  0  0  0
  -15.5341  -30.2986   23.7653 H   0  0  0  0  0  0
  -15.8663  -28.0837   22.7028 H   0  0  0  0  0  0
  -24.5951  -30.6992   25.7872 H   0  0  0  0  0  0
  -24.8852  -32.2881   26.4851 H   0  0  0  0  0  0
  -25.8108  -30.9008   27.0292 H   0  0  0  0  0  0
  -26.2772  -29.6821   24.1142 H   0  0  0  0  0  0
  -27.4031  -29.7251   25.4515 H   0  0  0  0  0  0
  -27.8618  -30.4346   23.9200 H   0  0  0  0  0  0
  -27.2733  -33.3597   26.2060 H   0  0  0  0  0  0
  -28.3847  -32.6842   25.0228 H   0  0  0  0  0  0
  -28.0782  -31.8387   26.5314 H   0  0  0  0  0  0
  -28.2530  -38.0150   24.7623 H   0  0  0  0  0  0
  -28.1177  -36.2695   24.6025 H   0  0  0  0  0  0
  -27.2375  -37.1150   25.8835 H   0  0  0  0  0  0
  -20.9288  -29.8724   21.6949 H   0  0  0  0  0  0
  -26.0146  -38.2863   24.1563 H   0  0  0  0  0  0
  -31.7777  -17.0340   19.8543 H   0  0  0  0  0  0
  -31.8692  -19.4597   19.9870 H   0  0  0  0  0  0
  -28.5547  -17.0025   22.7473 H   0  0  0  0  0  0
  -28.3182  -20.5157   25.1343 H   0  0  0  0  0  0
  -29.8983  -20.6080   24.3639 H   0  0  0  0  0  0
  -29.3100  -19.0678   24.9931 H   0  0  0  0  0  0
  -29.9611  -22.5559   18.4948 H   0  0  0  0  0  0
  -30.6861  -21.0022   18.7844 H   0  0  0  0  0  0
  -31.4328  -22.4470   19.4636 H   0  0  0  0  0  0
  -27.4628  -19.0849   23.2760 H   0  0  0  0  0  0
  -28.0333  -20.6076   22.6608 H   0  0  0  0  0  0
  -28.1136  -24.0158   19.5399 H   0  0  0  0  0  0
  -29.7698  -24.5715   19.6281 H   0  0  0  0  0  0
  -29.1606  -25.8757   21.7523 H   0  0  0  0  0  0
  -27.4894  -25.4512   21.4643 H   0  0  0  0  0  0
  -28.6971  -21.2973   20.2782 H   0  0  0  0  0  0
  -29.2037  -15.0196   21.7555 H   0  0  0  0  0  0
  1 25  1  0  0  0
  1 30  2  0  0  0
  1 84  1  0  0  0
  2  3  1  0  0  0
  2 25  1  0  0  0
  2 87  1  0  0  0
  2 88  1  0  0  0
  3  4  1  0  0  0
  3 89  1  0  0  0
  3 90  1  0  0  0
  4  5  1  0  0  0
  4 91  1  0  0  0
  4 92  1  0  0  0
  5  6  1  0  0  0
  5 26  1  0  0  0
  5 93  1  0  0  0
  6 25  1  0  0  0
  6 94  1  0  0  0
  6 95  1  0  0  0
  7  8  2  0  0  0
  7 26  1  0  0  0
  7 29  1  0  0  0
  8  9  1  0  0  0
  8 22  1  0  0  0
  9 10  1  0  0  0
  9 27  2  0  0  0
 10 11  2  0  0  0
 10 15  1  0  0  0
 11 12  1  0  0  0
 11 96  1  0  0  0
 12 13  2  0  0  0
 12 97  1  0  0  0
 13 14  1  0  0  0
 13 31  1  0  0  0
 14 15  2  0  0  0
 14 98  1  0  0  0
 15 99  1  0  0  0
 16 17  2  0  0  0
 16 21  1  0  0  0
 16 31  1  0  0  0
 17 18  1  0  0  0
 17100  1  0  0  0
 18 19  2  0  0  0
 18101  1  0  0  0
 19 20  1  0  0  0
 19 24  1  0  0  0
 20 21  2  0  0  0
 20102  1  0  0  0
 21 23  1  0  0  0
 22 28  1  0  0  0
 22 32  2  0  0  0
 26 27  1  0  0  0
 28103  1  0  0  0
 28104  1  0  0  0
 29105  1  0  0  0
 29106  1  0  0  0
 33 34  1  0  0  0
 33 66  1  0  0  0
 33 70  2  0  0  0
 34 36  1  0  0  0
 34 59  1  0  0  0
 34107  1  0  0  0
 35 44  2  0  0  0
 35 45  1  0  0  0
 35 68  1  0  0  0
 36 56  1  0  0  0
 36108  1  0  0  0
 37 39  1  0  0  0
 37 47  1  0  0  0
 37 66  1  0  0  0
 37109  1  0  0  0
 38 43  2  0  0  0
 38 46  1  0  0  0
 38 47  1  0  0  0
 39 64  1  0  0  0
 39 67  2  0  0  0
 40 52  1  0  0  0
 40 53  2  0  0  0
 40 58  1  0  0  0
 41110  1  0  0  0
 41111  1  0  0  0
 41112  1  0  0  0
 41 48  1  0  0  0
 42 43  1  0  0  0
 42 66  1  0  0  0
 42113  1  0  0  0
 42114  1  0  0  0
 43 44  1  0  0  0
 44115  1  0  0  0
 45 46  2  0  0  0
 45116  1  0  0  0
 46117  1  0  0  0
 47118  1  0  0  0
 47119  1  0  0  0
 48 56  1  0  0  0
 48 65  1  0  0  0
 48120  1  0  0  0
 49 50  1  0  0  0
 49 53  1  0  0  0
 49 64  1  0  0  0
 49121  1  0  0  0
 50 51  1  0  0  0
 50122  1  0  0  0
 50123  1  0  0  0
 51 52  1  0  0  0
 51124  1  0  0  0
 51125  1  0  0  0
 52126  1  0  0  0
 52127  1  0  0  0
 53 54  1  0  0  0
 54 55  2  0  0  0
 54128  1  0  0  0
 55 57  1  0  0  0
 55129  1  0  0  0
 56 69  2  0  0  0
 57 58  2  0  0  0
 57130  1  0  0  0
 58131  1  0  0  0
 59 60  1  0  0  0
 59 61  1  0  0  0
 59 62  1  0  0  0
 60132  1  0  0  0
 60133  1  0  0  0
 60134  1  0  0  0
 61135  1  0  0  0
 61136  1  0  0  0
 61137  1  0  0  0
 62138  1  0  0  0
 62139  1  0  0  0
 62140  1  0  0  0
 63 65  1  0  0  0
 63141  1  0  0  0
 63142  1  0  0  0
 63143  1  0  0  0
 64144  1  0  0  0
 65145  1  0  0  0
 68 82  1  0  0  0
 71 72  2  0  0  0
 71 75  1  0  0  0
 71146  1  0  0  0
 72 76  1  0  0  0
 72147  1  0  0  0
 73 74  1  0  0  0
 73 75  2  0  0  0
 73148  1  0  0  0
 74 76  2  0  0  0
 74 80  1  0  0  0
 75 84  1  0  0  0
 76 86  1  0  0  0
 77 81  1  0  0  0
 77 83  1  0  0  0
 77 85  2  0  0  0
 78 80  1  0  0  0
 78149  1  0  0  0
 78150  1  0  0  0
 78151  1  0  0  0
 79152  1  0  0  0
 79153  1  0  0  0
 79154  1  0  0  0
 79 83  1  0  0  0
 80155  1  0  0  0
 80156  1  0  0  0
 81 82  1  0  0  0
 81157  1  0  0  0
 81158  1  0  0  0
 82159  1  0  0  0
 82160  1  0  0  0
 83 86  1  0  0  0
 83161  1  0  0  0
 84162  1  0  0  0
M  ISO  4   1 100  68 101  82 101  84 100
M  END
> <chiral flag>
0

> <version>
0

> <s_m_source_file>
/data/baiqing/PycharmProjects/Reinvent-master-3.2/result/LINK_invent/BTK/process_docking_weight1_custom_product_contain_oxygen_bond_distance_aromatic_linkinvent_7_9_3/rearranged_h_0135.sdf

> <i_m_source_file_index>
31

> <r_mmod_Potential_Energy-OPLS-2005>
-50.7468070983887

> <r_mmod_Stretch_Energy-OPLS-2005>
36.1615371704102

> <r_mmod_Bend_Energy-OPLS-2005>
96.3318176269531

> <r_mmod_Torsional_Energy-OPLS-2005>
266.181365966797

> <r_mmod_Improper_Torsional_Energy-OPLS-2005>
2.82191562652588

> <r_mmod_Van_der_Waal_Energy-OPLS-2005>
151.119476318359

> <r_mmod_Electrostatic_Energy-OPLS-2005>
-392.445495605469

> <r_mmod_Solvation_Energy-OPLS-2005>
-219.866821289062

> <b_mmod_Minimization_Converged-OPLS-2005>
0

> <r_mmod_RMS_Derivative-OPLS-2005>
1.10000109672546

$$$$
31
                    3D
 Structure written by MMmdl.
156164  0  0  1  0            999 V2000
  -30.6573  -14.6744   20.4539 C   0  0  0  0  0  0
  -30.4225  -12.4057   19.4766 C   0  0  0  0  0  0
  -29.5099  -12.4977   18.2353 C   0  0  0  0  0  0
  -28.0323  -12.3411   18.6428 C   0  0  0  0  0  0
  -27.6453  -13.2328   19.8538 C   0  0  2  0  0  0
  -28.6884  -13.1511   20.9907 C   0  0  0  0  0  0
  -25.2523  -13.8207   20.5698 C   0  0  0  0  0  0
  -24.1812  -13.0451   20.9207 C   0  0  0  0  0  0
  -24.6405  -11.6934   20.8752 C   0  0  0  0  0  0
  -23.9073  -10.4309   21.0408 C   0  0  0  0  0  0
  -24.3621   -9.4219   21.9180 C   0  0  0  0  0  0
  -23.6300   -8.2249   22.0751 C   0  0  0  0  0  0
  -22.4277   -8.0282   21.3549 C   0  0  0  0  0  0
  -21.9917   -9.0258   20.4653 C   0  0  0  0  0  0
  -22.7245  -10.2141   20.3063 C   0  0  0  0  0  0
  -21.6860   -6.0734   22.5279 C   0  0  0  0  0  0
  -21.4020   -6.5639   23.8212 C   0  0  0  0  0  0
  -21.3665   -5.6792   24.9169 C   0  0  0  0  0  0
  -21.6044   -4.3048   24.7223 C   0  0  0  0  0  0
  -21.8818   -3.8147   23.4347 C   0  0  0  0  0  0
  -21.9195   -4.6965   22.3403 C   0  0  0  0  0  0
  -22.7830  -13.5233   21.1859 C   0  0  0  0  0  0
  -22.1659   -4.2149   21.0977 F   0  0  0  0  0  0
  -21.5629   -3.4536   25.7735 F   0  0  0  0  0  0
  -29.9997  -13.4699   20.4136 N   0  0  0  0  0  0
  -26.2956  -12.9420   20.3290 N   0  0  0  0  0  0
  -25.9336  -11.6562   20.5761 N   0  0  0  0  0  0
  -22.0461  -12.8244   22.0418 N   0  0  0  0  0  0
  -25.4218  -15.1928   20.4115 N   0  0  0  0  0  0
  -31.8548  -14.7225   20.1605 O   0  0  0  0  0  0
  -21.6651   -6.8878   21.4239 O   0  0  0  0  0  0
  -22.3516  -14.5522   20.6675 O   0  0  0  0  0  0
  -24.6279  -31.8592   23.2023 C   0  0  0  0  0  0
  -25.9117  -32.4775   23.8360 C   0  0  1  0  0  0
  -27.2206  -27.2971   20.1156 C   0  0  0  0  0  0
  -25.5936  -33.8581   24.2287 N   0  0  0  0  0  0
  -23.4237  -30.4842   21.5437 C   0  0  2  0  0  0
  -24.8700  -28.9395   20.1082 C   0  0  0  0  0  0
  -22.7485  -29.4625   22.4900 C   0  0  0  0  0  0
  -18.0295  -28.1377   22.8477 C   0  0  0  0  0  0
  -24.1490  -36.7295   23.2639 C   0  0  0  0  0  0
  -25.9675  -30.7805   21.3795 C   0  0  0  0  0  0
  -26.0393  -29.4074   20.7198 C   0  0  0  0  0  0
  -27.2166  -28.5969   20.7181 C   0  0  0  0  0  0
  -26.0289  -26.8993   19.4638 C   0  0  0  0  0  0
  -24.8673  -27.6915   19.4719 C   0  0  0  0  0  0
  -23.6408  -29.8235   20.1578 C   0  0  0  0  0  0
  -25.4113  -36.3086   24.0333 C   0  0  1  0  0  0
  -20.5898  -28.3701   23.1255 C   0  0  2  0  0  0
  -20.6783  -26.9419   22.5395 C   0  0  0  0  0  0
  -19.5765  -26.6377   21.5196 C   0  0  0  0  0  0
  -18.1946  -26.7923   22.1610 C   0  0  0  0  0  0
  -19.1547  -28.8852   23.2867 C   0  0  0  0  0  0
  -18.9472  -30.1446   23.8901 C   0  0  0  0  0  0
  -17.6474  -30.6586   24.0554 C   0  0  0  0  0  0
  -25.9047  -34.9454   23.5102 C   0  0  0  0  0  0
  -16.5363  -29.9086   23.6318 C   0  0  0  0  0  0
  -16.7282  -28.6492   23.0356 C   0  0  0  0  0  0
  -26.4497  -31.6595   25.0742 C   0  0  0  0  0  0
  -25.3729  -31.3738   26.1469 C   0  0  0  0  0  0
  -27.0342  -30.3018   24.6208 C   0  0  0  0  0  0
  -27.6051  -32.4335   25.7517 C   0  0  0  0  0  0
  -27.5578  -37.1806   24.8463 C   0  0  0  0  0  0
  -21.4197  -29.3060   22.3646 N   0  0  0  0  0  0
  -26.4289  -37.3781   23.9405 N   0  0  0  0  0  0
  -24.6919  -31.0582   22.0984 N   0  0  0  0  0  0
  -23.4193  -28.8158   23.2991 O   0  0  0  0  0  0
  -28.3223  -26.4184   20.1855 O   0  0  0  0  0  0
  -26.5610  -34.8923   22.4665 O   0  0  0  0  0  0
  -23.5434  -32.1406   23.7324 O   0  0  0  0  0  0
  -31.4803  -18.6880   18.6616 C   0  0  0  0  0  0
  -30.9092  -19.8387   19.2307 C   0  0  0  0  0  0
  -31.1391  -17.4036   19.1211 C   0  0  0  0  0  0
  -29.6129  -18.4120   20.7208 C   0  0  0  0  0  0
  -29.9411  -19.7471   20.2504 C   0  0  0  0  0  0
  -30.2259  -17.2087   20.1861 C   0  0  0  0  0  0
  -28.7555  -22.0668   18.5307 C   0  0  0  0  0  0
  -29.4344  -21.1029   20.8944 C   0  0  0  0  0  0
  -29.0819  -23.8183   20.4128 C   0  0  0  0  0  0
  -28.0925  -24.9716   19.9056 C   0  0  0  0  0  0
  -28.7192  -22.2864   20.0542 C   0  0  1  0  0  0
  -29.9234  -15.8320   20.6409 N   0  0  0  0  0  0
  -31.4702  -12.4954   19.1848 H   0  0  0  0  0  0
  -30.3305  -11.4266   19.9489 H   0  0  0  0  0  0
  -29.7802  -11.7279   17.5110 H   0  0  0  0  0  0
  -29.6578  -13.4563   17.7350 H   0  0  0  0  0  0
  -27.8706  -11.2919   18.8917 H   0  0  0  0  0  0
  -27.3824  -12.5536   17.7932 H   0  0  0  0  0  0
  -27.6469  -14.2597   19.4858 H   0  0  0  0  0  0
  -28.7034  -12.1541   21.4338 H   0  0  0  0  0  0
  -28.4348  -13.8408   21.7973 H   0  0  0  0  0  0
  -25.2767   -9.5695   22.4753 H   0  0  0  0  0  0
  -24.0014   -7.4643   22.7469 H   0  0  0  0  0  0
  -21.0847   -8.8779   19.8963 H   0  0  0  0  0  0
  -22.3700  -10.9674   19.6168 H   0  0  0  0  0  0
  -21.2011   -7.6146   23.9716 H   0  0  0  0  0  0
  -21.1487   -6.0517   25.9072 H   0  0  0  0  0  0
  -22.0594   -2.7611   23.2844 H   0  0  0  0  0  0
  -22.4080  -11.9924   22.4841 H   0  0  0  0  0  0
  -21.1064  -13.1258   22.2580 H   0  0  0  0  0  0
  -24.6527  -15.8449   20.5198 H   0  0  0  0  0  0
  -26.2680  -15.6334   20.0727 H   0  0  0  0  0  0
  -26.7186  -32.5439   23.1107 H   0  0  0  0  0  0
  -25.0106  -33.9728   25.0450 H   0  0  0  0  0  0
  -22.7203  -31.3072   21.4000 H   0  0  0  0  0  0
  -23.3753  -35.9625   23.3294 H   0  0  0  0  0  0
  -24.3583  -36.8921   22.2055 H   0  0  0  0  0  0
  -23.7241  -37.6498   23.6658 H   0  0  0  0  0  0
  -26.1043  -31.5430   20.6115 H   0  0  0  0  0  0
  -26.8459  -30.8271   22.0114 H   0  0  0  0  0  0
  -28.1093  -28.9468   21.2171 H   0  0  0  0  0  0
  -25.9566  -25.9544   18.9469 H   0  0  0  0  0  0
  -23.9736  -27.3305   18.9824 H   0  0  0  0  0  0
  -23.7685  -30.6035   19.4059 H   0  0  0  0  0  0
  -22.7597  -29.2589   19.8472 H   0  0  0  0  0  0
  -25.1291  -36.1938   25.0826 H   0  0  0  0  0  0
  -20.9997  -28.3282   24.1372 H   0  0  0  0  0  0
  -20.5669  -26.2323   23.3606 H   0  0  0  0  0  0
  -21.6656  -26.7439   22.1205 H   0  0  0  0  0  0
  -19.6933  -25.6283   21.1248 H   0  0  0  0  0  0
  -19.6706  -27.3169   20.6712 H   0  0  0  0  0  0
  -17.4216  -26.6663   21.4011 H   0  0  0  0  0  0
  -18.0355  -26.0060   22.9005 H   0  0  0  0  0  0
  -19.7952  -30.7244   24.2289 H   0  0  0  0  0  0
  -17.5037  -31.6270   24.5151 H   0  0  0  0  0  0
  -15.5366  -30.2994   23.7635 H   0  0  0  0  0  0
  -15.8680  -28.0801   22.7090 H   0  0  0  0  0  0
  -24.5900  -30.7089   25.7801 H   0  0  0  0  0  0
  -24.8931  -32.2910   26.4896 H   0  0  0  0  0  0
  -25.8061  -30.8921   27.0245 H   0  0  0  0  0  0
  -26.2924  -29.6773   24.1218 H   0  0  0  0  0  0
  -27.4021  -29.7269   25.4715 H   0  0  0  0  0  0
  -27.8803  -30.4303   23.9453 H   0  0  0  0  0  0
  -27.2651  -33.3628   26.2100 H   0  0  0  0  0  0
  -28.3866  -32.6906   25.0355 H   0  0  0  0  0  0
  -28.0715  -31.8464   26.5439 H   0  0  0  0  0  0
  -28.2592  -38.0108   24.7507 H   0  0  0  0  0  0
  -28.1081  -36.2637   24.6288 H   0  0  0  0  0  0
  -27.2298  -37.1456   25.8868 H   0  0  0  0  0  0
  -20.9370  -29.8808   21.6883 H   0  0  0  0  0  0
  -26.0172  -38.2854   24.1412 H   0  0  0  0  0  0
  -32.2070  -18.7906   17.8681 H   0  0  0  0  0  0
  -31.2401  -20.8058   18.8800 H   0  0  0  0  0  0
  -31.6105  -16.5688   18.6247 H   0  0  0  0  0  0
  -28.9050  -18.3151   21.5320 H   0  0  0  0  0  0
  -28.4730  -21.0473   18.2653 H   0  0  0  0  0  0
  -29.7426  -22.2680   18.1152 H   0  0  0  0  0  0
  -28.0524  -22.7236   18.0190 H   0  0  0  0  0  0
  -30.3191  -21.5360   21.3629 H   0  0  0  0  0  0
  -28.7883  -20.8474   21.7358 H   0  0  0  0  0  0
  -29.1479  -23.9022   21.4972 H   0  0  0  0  0  0
  -30.0855  -24.0348   20.0445 H   0  0  0  0  0  0
  -27.1216  -24.6938   20.3166 H   0  0  0  0  0  0
  -28.0060  -24.8825   18.8228 H   0  0  0  0  0  0
  -27.6641  -22.1794   20.3114 H   0  0  0  0  0  0
  -29.0017  -15.6922   21.0264 H   0  0  0  0  0  0
  1 25  1  0  0  0
  1 30  2  0  0  0
  1 82  1  0  0  0
  2  3  1  0  0  0
  2 25  1  0  0  0
  2 83  1  0  0  0
  2 84  1  0  0  0
  3  4  1  0  0  0
  3 85  1  0  0  0
  3 86  1  0  0  0
  4  5  1  0  0  0
  4 87  1  0  0  0
  4 88  1  0  0  0
  5  6  1  0  0  0
  5 26  1  0  0  0
  5 89  1  0  0  0
  6 25  1  0  0  0
  6 90  1  0  0  0
  6 91  1  0  0  0
  7  8  2  0  0  0
  7 26  1  0  0  0
  7 29  1  0  0  0
  8  9  1  0  0  0
  8 22  1  0  0  0
  9 10  1  0  0  0
  9 27  2  0  0  0
 10 11  2  0  0  0
 10 15  1  0  0  0
 11 12  1  0  0  0
 11 92  1  0  0  0
 12 13  2  0  0  0
 12 93  1  0  0  0
 13 14  1  0  0  0
 13 31  1  0  0  0
 14 15  2  0  0  0
 14 94  1  0  0  0
 15 95  1  0  0  0
 16 17  2  0  0  0
 16 21  1  0  0  0
 16 31  1  0  0  0
 17 18  1  0  0  0
 17 96  1  0  0  0
 18 19  2  0  0  0
 18 97  1  0  0  0
 19 20  1  0  0  0
 19 24  1  0  0  0
 20 21  2  0  0  0
 20 98  1  0  0  0
 21 23  1  0  0  0
 22 28  1  0  0  0
 22 32  2  0  0  0
 26 27  1  0  0  0
 28 99  1  0  0  0
 28100  1  0  0  0
 29101  1  0  0  0
 29102  1  0  0  0
 33 34  1  0  0  0
 33 66  1  0  0  0
 33 70  2  0  0  0
 34 36  1  0  0  0
 34 59  1  0  0  0
 34103  1  0  0  0
 35 44  2  0  0  0
 35 45  1  0  0  0
 35 68  1  0  0  0
 36 56  1  0  0  0
 36104  1  0  0  0
 37 39  1  0  0  0
 37 47  1  0  0  0
 37 66  1  0  0  0
 37105  1  0  0  0
 38 43  2  0  0  0
 38 46  1  0  0  0
 38 47  1  0  0  0
 39 64  1  0  0  0
 39 67  2  0  0  0
 40 52  1  0  0  0
 40 53  2  0  0  0
 40 58  1  0  0  0
 41106  1  0  0  0
 41107  1  0  0  0
 41108  1  0  0  0
 41 48  1  0  0  0
 42 43  1  0  0  0
 42 66  1  0  0  0
 42109  1  0  0  0
 42110  1  0  0  0
 43 44  1  0  0  0
 44111  1  0  0  0
 45 46  2  0  0  0
 45112  1  0  0  0
 46113  1  0  0  0
 47114  1  0  0  0
 47115  1  0  0  0
 48 56  1  0  0  0
 48 65  1  0  0  0
 48116  1  0  0  0
 49 50  1  0  0  0
 49 53  1  0  0  0
 49 64  1  0  0  0
 49117  1  0  0  0
 50 51  1  0  0  0
 50118  1  0  0  0
 50119  1  0  0  0
 51 52  1  0  0  0
 51120  1  0  0  0
 51121  1  0  0  0
 52122  1  0  0  0
 52123  1  0  0  0
 53 54  1  0  0  0
 54 55  2  0  0  0
 54124  1  0  0  0
 55 57  1  0  0  0
 55125  1  0  0  0
 56 69  2  0  0  0
 57 58  2  0  0  0
 57126  1  0  0  0
 58127  1  0  0  0
 59 60  1  0  0  0
 59 61  1  0  0  0
 59 62  1  0  0  0
 60128  1  0  0  0
 60129  1  0  0  0
 60130  1  0  0  0
 61131  1  0  0  0
 61132  1  0  0  0
 61133  1  0  0  0
 62134  1  0  0  0
 62135  1  0  0  0
 62136  1  0  0  0
 63 65  1  0  0  0
 63137  1  0  0  0
 63138  1  0  0  0
 63139  1  0  0  0
 64140  1  0  0  0
 65141  1  0  0  0
 68 80  1  0  0  0
 71 72  2  0  0  0
 71 73  1  0  0  0
 71142  1  0  0  0
 72 75  1  0  0  0
 72143  1  0  0  0
 73 76  2  0  0  0
 73144  1  0  0  0
 74 75  2  0  0  0
 74 76  1  0  0  0
 74145  1  0  0  0
 75 78  1  0  0  0
 76 82  1  0  0  0
 77146  1  0  0  0
 77147  1  0  0  0
 77148  1  0  0  0
 77 81  1  0  0  0
 78 81  1  0  0  0
 78149  1  0  0  0
 78150  1  0  0  0
 79 80  1  0  0  0
 79 81  1  0  0  0
 79151  1  0  0  0
 79152  1  0  0  0
 80153  1  0  0  0
 80154  1  0  0  0
 81155  1  0  0  0
 82156  1  0  0  0
M  ISO  4   1 100  68 101  80 101  82 100
M  END
> <chiral flag>
0

> <version>
0

> <s_m_source_file>
/data/baiqing/PycharmProjects/Reinvent-master-3.2/result/LINK_invent/BTK/process_docking_weight1_custom_product_contain_oxygen_bond_distance_aromatic_linkinvent_7_9_3/rearranged_h_0135.sdf

> <i_m_source_file_index>
32

> <r_mmod_Potential_Energy-OPLS-2005>
152.123321533203

> <r_mmod_Stretch_Energy-OPLS-2005>
104.598556518555

> <r_mmod_Bend_Energy-OPLS-2005>
151.065338134766

> <r_mmod_Torsional_Energy-OPLS-2005>
226.822036743164

> <r_mmod_Improper_Torsional_Energy-OPLS-2005>
4.88794994354248

> <r_mmod_Van_der_Waal_Energy-OPLS-2005>
151.586563110352

> <r_mmod_Electrostatic_Energy-OPLS-2005>
-350.476989746094

> <r_mmod_Solvation_Energy-OPLS-2005>
-200.789001464844

> <b_mmod_Minimization_Converged-OPLS-2005>
0

> <r_mmod_RMS_Derivative-OPLS-2005>
1.41314578056335

$$$$
32
                    3D
 Structure written by MMmdl.
170178  0  0  1  0            999 V2000
  -30.6970  -14.4375   20.5759 C   0  0  0  0  0  0
  -30.4205  -12.2852   19.4082 C   0  0  0  0  0  0
  -29.4915  -12.5085   18.1970 C   0  0  0  0  0  0
  -28.0101  -12.3743   18.6068 C   0  0  0  0  0  0
  -27.6625  -13.1996   19.8746 C   0  0  2  0  0  0
  -28.7062  -12.9564   20.9883 C   0  0  0  0  0  0
  -25.2610  -13.8131   20.5706 C   0  0  0  0  0  0
  -24.1845  -13.0421   20.9154 C   0  0  0  0  0  0
  -24.6391  -11.6886   20.8708 C   0  0  0  0  0  0
  -23.9054  -10.4281   21.0390 C   0  0  0  0  0  0
  -24.3606   -9.4204   21.9174 C   0  0  0  0  0  0
  -23.6280   -8.2241   22.0748 C   0  0  0  0  0  0
  -22.4264   -8.0279   21.3541 C   0  0  0  0  0  0
  -21.9900   -9.0248   20.4639 C   0  0  0  0  0  0
  -22.7228  -10.2125   20.3042 C   0  0  0  0  0  0
  -21.6849   -6.0731   22.5275 C   0  0  0  0  0  0
  -21.4012   -6.5634   23.8208 C   0  0  0  0  0  0
  -21.3659   -5.6787   24.9167 C   0  0  0  0  0  0
  -21.6050   -4.3050   24.7223 C   0  0  0  0  0  0
  -21.8819   -3.8139   23.4342 C   0  0  0  0  0  0
  -21.9190   -4.6957   22.3400 C   0  0  0  0  0  0
  -22.7873  -13.5236   21.1826 C   0  0  0  0  0  0
  -22.1663   -4.2144   21.0978 F   0  0  0  0  0  0
  -21.5627   -3.4535   25.7737 F   0  0  0  0  0  0
  -30.0353  -13.2580   20.4396 N   0  0  0  0  0  0
  -26.3039  -12.9294   20.3374 N   0  0  0  0  0  0
  -25.9319  -11.6457   20.5749 N   0  0  0  0  0  0
  -22.0520  -12.8231   22.0380 N   0  0  0  0  0  0
  -25.4324  -15.1850   20.4214 N   0  0  0  0  0  0
  -31.8384  -14.6010   20.1325 O   0  0  0  0  0  0
  -21.6630   -6.8876   21.4240 O   0  0  0  0  0  0
  -22.3556  -14.5549   20.6683 O   0  0  0  0  0  0
  -24.6142  -31.8683   23.2121 C   0  0  0  0  0  0
  -25.9049  -32.4820   23.8403 C   0  0  1  0  0  0
  -27.2422  -27.4546   20.0721 C   0  0  0  0  0  0
  -25.5919  -33.8619   24.2345 N   0  0  0  0  0  0
  -23.3989  -30.4929   21.5529 C   0  0  2  0  0  0
  -24.8435  -28.9596   20.1167 C   0  0  0  0  0  0
  -22.7388  -29.4671   22.5019 C   0  0  0  0  0  0
  -18.0262  -28.1380   22.8492 C   0  0  0  0  0  0
  -24.1479  -36.7294   23.2637 C   0  0  0  0  0  0
  -25.9265  -30.8380   21.3620 C   0  0  0  0  0  0
  -26.0025  -29.4741   20.7079 C   0  0  0  0  0  0
  -27.1992  -28.7255   20.6886 C   0  0  0  0  0  0
  -26.0521  -26.9384   19.5058 C   0  0  0  0  0  0
  -24.8607  -27.6877   19.5201 C   0  0  0  0  0  0
  -23.6044  -29.8234   20.1678 C   0  0  0  0  0  0
  -25.4102  -36.3109   24.0343 C   0  0  1  0  0  0
  -20.5846  -28.3656   23.1321 C   0  0  2  0  0  0
  -20.6754  -26.9396   22.5412 C   0  0  0  0  0  0
  -19.5732  -26.6384   21.5210 C   0  0  0  0  0  0
  -18.1909  -26.7931   22.1618 C   0  0  0  0  0  0
  -19.1509  -28.8839   23.2905 C   0  0  0  0  0  0
  -18.9443  -30.1448   23.8917 C   0  0  0  0  0  0
  -17.6445  -30.6588   24.0574 C   0  0  0  0  0  0
  -25.9029  -34.9474   23.5134 C   0  0  0  0  0  0
  -16.5334  -29.9087   23.6341 C   0  0  0  0  0  0
  -16.7250  -28.6501   23.0363 C   0  0  0  0  0  0
  -26.4488  -31.6598   25.0727 C   0  0  0  0  0  0
  -25.3768  -31.3675   26.1481 C   0  0  0  0  0  0
  -27.0343  -30.3053   24.6097 C   0  0  0  0  0  0
  -27.6057  -32.4322   25.7500 C   0  0  0  0  0  0
  -27.5574  -37.1805   24.8470 C   0  0  0  0  0  0
  -21.4120  -29.3029   22.3743 N   0  0  0  0  0  0
  -26.4288  -37.3793   23.9415 N   0  0  0  0  0  0
  -24.6647  -31.0797   22.1012 N   0  0  0  0  0  0
  -23.4167  -28.8222   23.3063 O   0  0  0  0  0  0
  -28.4396  -26.7674   20.0941 O   0  0  0  0  0  0
  -26.5572  -34.8921   22.4685 O   0  0  0  0  0  0
  -23.5345  -32.1437   23.7528 O   0  0  0  0  0  0
  -27.9685  -17.5600   19.3684 C   0  0  0  0  0  0
  -29.1503  -19.1707   20.7608 C   0  0  0  0  0  0
  -26.9332  -19.7194   19.8700 C   0  0  0  0  0  0
  -29.0954  -17.9057   20.1391 C   0  0  0  0  0  0
  -26.8893  -18.4556   19.2293 C   0  0  0  0  0  0
  -28.0788  -20.0815   20.6197 C   0  0  0  0  0  0
  -24.8754  -20.7892   20.6580 C   0  0  0  0  0  0
  -25.8304  -20.6841   19.7193 C   0  0  0  0  0  0
  -28.5505  -23.5732   20.4368 C   0  0  0  0  0  0
  -25.6983  -18.0423   18.3788 C   0  0  0  0  0  0
  -25.8428  -21.5531   18.4766 C   0  0  0  0  0  0
  -30.3504  -15.9323   22.5997 C   0  0  0  0  0  0
  -30.2564  -16.9265   20.2443 C   0  0  0  0  0  0
  -29.4584  -24.5697   19.7052 C   0  0  0  0  0  0
  -29.1422  -22.1853   20.7282 C   0  0  0  0  0  0
  -28.7375  -25.7884   19.0920 C   0  0  0  0  0  0
  -29.9637  -15.6842   21.1320 C   0  0  1  0  0  0
  -27.4015  -23.8721   20.7794 O   0  0  0  0  0  0
  -28.1241  -21.3149   21.2220 O   0  0  0  0  0  0
  -31.4658  -12.3792   19.1085 H   0  0  0  0  0  0
  -30.3121  -11.2690   19.7896 H   0  0  0  0  0  0
  -29.7259  -11.7956   17.4052 H   0  0  0  0  0  0
  -29.6684  -13.5007   17.7783 H   0  0  0  0  0  0
  -27.8086  -11.3176   18.7854 H   0  0  0  0  0  0
  -27.3630  -12.6698   17.7799 H   0  0  0  0  0  0
  -27.7091  -14.2486   19.5850 H   0  0  0  0  0  0
  -28.6765  -11.9139   21.3086 H   0  0  0  0  0  0
  -28.4828  -13.5346   21.8852 H   0  0  0  0  0  0
  -25.2749   -9.5684   22.4746 H   0  0  0  0  0  0
  -23.9982   -7.4633   22.7474 H   0  0  0  0  0  0
  -21.0829   -8.8768   19.8951 H   0  0  0  0  0  0
  -22.3685  -10.9657   19.6143 H   0  0  0  0  0  0
  -21.2007   -7.6141   23.9710 H   0  0  0  0  0  0
  -21.1479   -6.0517   25.9069 H   0  0  0  0  0  0
  -22.0600   -2.7601   23.2841 H   0  0  0  0  0  0
  -22.4132  -11.9876   22.4742 H   0  0  0  0  0  0
  -21.1135  -13.1254   22.2578 H   0  0  0  0  0  0
  -24.6671  -15.8361   20.5543 H   0  0  0  0  0  0
  -26.2992  -15.6408   20.1705 H   0  0  0  0  0  0
  -26.7117  -32.5534   23.1164 H   0  0  0  0  0  0
  -25.0146  -33.9785   25.0543 H   0  0  0  0  0  0
  -22.6875  -31.3095   21.4135 H   0  0  0  0  0  0
  -23.3752  -35.9616   23.3313 H   0  0  0  0  0  0
  -24.3567  -36.8896   22.2048 H   0  0  0  0  0  0
  -23.7218  -37.6493   23.6643 H   0  0  0  0  0  0
  -26.0359  -31.6056   20.5947 H   0  0  0  0  0  0
  -26.8150  -30.8906   21.9796 H   0  0  0  0  0  0
  -28.0970  -29.1254   21.1393 H   0  0  0  0  0  0
  -26.0042  -25.9508   19.0745 H   0  0  0  0  0  0
  -23.9620  -27.2740   19.0833 H   0  0  0  0  0  0
  -23.7071  -30.5963   19.4049 H   0  0  0  0  0  0
  -22.7294  -29.2397   19.8765 H   0  0  0  0  0  0
  -25.1281  -36.1970   25.0837 H   0  0  0  0  0  0
  -20.9924  -28.3220   24.1446 H   0  0  0  0  0  0
  -20.5647  -26.2271   23.3599 H   0  0  0  0  0  0
  -21.6630  -26.7446   22.1208 H   0  0  0  0  0  0
  -19.6888  -25.6296   21.1239 H   0  0  0  0  0  0
  -19.6678  -27.3204   20.6750 H   0  0  0  0  0  0
  -17.4179  -26.6689   21.4019 H   0  0  0  0  0  0
  -18.0301  -26.0061   22.9000 H   0  0  0  0  0  0
  -19.7919  -30.7258   24.2293 H   0  0  0  0  0  0
  -17.5001  -31.6278   24.5152 H   0  0  0  0  0  0
  -15.5335  -30.2995   23.7658 H   0  0  0  0  0  0
  -15.8646  -28.0824   22.7082 H   0  0  0  0  0  0
  -24.5957  -30.7001   25.7821 H   0  0  0  0  0  0
  -24.8945  -32.2817   26.4947 H   0  0  0  0  0  0
  -25.8139  -30.8839   27.0227 H   0  0  0  0  0  0
  -26.2893  -29.6778   24.1187 H   0  0  0  0  0  0
  -27.4177  -29.7315   25.4545 H   0  0  0  0  0  0
  -27.8693  -30.4395   23.9215 H   0  0  0  0  0  0
  -27.2679  -33.3628   26.2072 H   0  0  0  0  0  0
  -28.3878  -32.6864   25.0336 H   0  0  0  0  0  0
  -28.0710  -31.8450   26.5427 H   0  0  0  0  0  0
  -28.2596  -38.0098   24.7521 H   0  0  0  0  0  0
  -28.1069  -36.2631   24.6302 H   0  0  0  0  0  0
  -27.2288  -37.1456   25.8873 H   0  0  0  0  0  0
  -20.9277  -29.8747   21.6965 H   0  0  0  0  0  0
  -26.0177  -38.2870   24.1425 H   0  0  0  0  0  0
  -27.9393  -16.6009   18.8693 H   0  0  0  0  0  0
  -30.0162  -19.4442   21.3474 H   0  0  0  0  0  0
  -24.8888  -20.1651   21.5400 H   0  0  0  0  0  0
  -24.0670  -21.4999   20.5641 H   0  0  0  0  0  0
  -25.7389  -16.9839   18.1203 H   0  0  0  0  0  0
  -25.6789  -18.6070   17.4471 H   0  0  0  0  0  0
  -24.7615  -18.2173   18.9085 H   0  0  0  0  0  0
  -26.7559  -22.1464   18.4398 H   0  0  0  0  0  0
  -24.9945  -22.2378   18.4603 H   0  0  0  0  0  0
  -25.8014  -20.9428   17.5752 H   0  0  0  0  0  0
  -29.8089  -16.7876   23.0044 H   0  0  0  0  0  0
  -31.4169  -16.1334   22.7041 H   0  0  0  0  0  0
  -30.1121  -15.0692   23.2222 H   0  0  0  0  0  0
  -31.1520  -17.4407   20.5951 H   0  0  0  0  0  0
  -30.4842  -16.6226   19.2204 H   0  0  0  0  0  0
  -29.9543  -24.0198   18.9054 H   0  0  0  0  0  0
  -30.2446  -24.8989   20.3840 H   0  0  0  0  0  0
  -29.9343  -22.2773   21.4714 H   0  0  0  0  0  0
  -29.5913  -21.7960   19.8131 H   0  0  0  0  0  0
  -27.8997  -25.4540   18.4862 H   0  0  0  0  0  0
  -29.4155  -26.2663   18.3848 H   0  0  0  0  0  0
  -28.8908  -15.5164   21.0855 H   0  0  0  0  0  0
  1 25  1  0  0  0
  1 30  2  0  0  0
  1 87  1  0  0  0
  2  3  1  0  0  0
  2 25  1  0  0  0
  2 90  1  0  0  0
  2 91  1  0  0  0
  3  4  1  0  0  0
  3 92  1  0  0  0
  3 93  1  0  0  0
  4  5  1  0  0  0
  4 94  1  0  0  0
  4 95  1  0  0  0
  5  6  1  0  0  0
  5 26  1  0  0  0
  5 96  1  0  0  0
  6 25  1  0  0  0
  6 97  1  0  0  0
  6 98  1  0  0  0
  7  8  2  0  0  0
  7 26  1  0  0  0
  7 29  1  0  0  0
  8  9  1  0  0  0
  8 22  1  0  0  0
  9 10  1  0  0  0
  9 27  2  0  0  0
 10 11  2  0  0  0
 10 15  1  0  0  0
 11 12  1  0  0  0
 11 99  1  0  0  0
 12 13  2  0  0  0
 12100  1  0  0  0
 13 14  1  0  0  0
 13 31  1  0  0  0
 14 15  2  0  0  0
 14101  1  0  0  0
 15102  1  0  0  0
 16 17  2  0  0  0
 16 21  1  0  0  0
 16 31  1  0  0  0
 17 18  1  0  0  0
 17103  1  0  0  0
 18 19  2  0  0  0
 18104  1  0  0  0
 19 20  1  0  0  0
 19 24  1  0  0  0
 20 21  2  0  0  0
 20105  1  0  0  0
 21 23  1  0  0  0
 22 28  1  0  0  0
 22 32  2  0  0  0
 26 27  1  0  0  0
 28106  1  0  0  0
 28107  1  0  0  0
 29108  1  0  0  0
 29109  1  0  0  0
 33 34  1  0  0  0
 33 66  1  0  0  0
 33 70  2  0  0  0
 34 36  1  0  0  0
 34 59  1  0  0  0
 34110  1  0  0  0
 35 44  2  0  0  0
 35 45  1  0  0  0
 35 68  1  0  0  0
 36 56  1  0  0  0
 36111  1  0  0  0
 37 39  1  0  0  0
 37 47  1  0  0  0
 37 66  1  0  0  0
 37112  1  0  0  0
 38 43  2  0  0  0
 38 46  1  0  0  0
 38 47  1  0  0  0
 39 64  1  0  0  0
 39 67  2  0  0  0
 40 52  1  0  0  0
 40 53  2  0  0  0
 40 58  1  0  0  0
 41113  1  0  0  0
 41114  1  0  0  0
 41115  1  0  0  0
 41 48  1  0  0  0
 42 43  1  0  0  0
 42 66  1  0  0  0
 42116  1  0  0  0
 42117  1  0  0  0
 43 44  1  0  0  0
 44118  1  0  0  0
 45 46  2  0  0  0
 45119  1  0  0  0
 46120  1  0  0  0
 47121  1  0  0  0
 47122  1  0  0  0
 48 56  1  0  0  0
 48 65  1  0  0  0
 48123  1  0  0  0
 49 50  1  0  0  0
 49 53  1  0  0  0
 49 64  1  0  0  0
 49124  1  0  0  0
 50 51  1  0  0  0
 50125  1  0  0  0
 50126  1  0  0  0
 51 52  1  0  0  0
 51127  1  0  0  0
 51128  1  0  0  0
 52129  1  0  0  0
 52130  1  0  0  0
 53 54  1  0  0  0
 54 55  2  0  0  0
 54131  1  0  0  0
 55 57  1  0  0  0
 55132  1  0  0  0
 56 69  2  0  0  0
 57 58  2  0  0  0
 57133  1  0  0  0
 58134  1  0  0  0
 59 60  1  0  0  0
 59 61  1  0  0  0
 59 62  1  0  0  0
 60135  1  0  0  0
 60136  1  0  0  0
 60137  1  0  0  0
 61138  1  0  0  0
 61139  1  0  0  0
 61140  1  0  0  0
 62141  1  0  0  0
 62142  1  0  0  0
 62143  1  0  0  0
 63 65  1  0  0  0
 63144  1  0  0  0
 63145  1  0  0  0
 63146  1  0  0  0
 64147  1  0  0  0
 65148  1  0  0  0
 68 86  1  0  0  0
 71 74  2  0  0  0
 71 75  1  0  0  0
 71149  1  0  0  0
 72 74  1  0  0  0
 72 76  2  0  0  0
 72150  1  0  0  0
 73 75  2  0  0  0
 73 76  1  0  0  0
 73 78  1  0  0  0
 74 83  1  0  0  0
 75 80  1  0  0  0
 76 89  1  0  0  0
 77 78  2  0  0  0
 77151  1  0  0  0
 77152  1  0  0  0
 78 81  1  0  0  0
 79 84  1  0  0  0
 79 85  1  0  0  0
 79 88  2  0  0  0
 80153  1  0  0  0
 80154  1  0  0  0
 80155  1  0  0  0
 81156  1  0  0  0
 81157  1  0  0  0
 81158  1  0  0  0
 82159  1  0  0  0
 82160  1  0  0  0
 82161  1  0  0  0
 82 87  1  0  0  0
 83 87  1  0  0  0
 83162  1  0  0  0
 83163  1  0  0  0
 84 86  1  0  0  0
 84164  1  0  0  0
 84165  1  0  0  0
 85 89  1  0  0  0
 85166  1  0  0  0
 85167  1  0  0  0
 86168  1  0  0  0
 86169  1  0  0  0
 87170  1  0  0  0
M  ISO  4   1 100  68 101  86 101  87 100
M  END
> <chiral flag>
0

> <version>
0

> <s_m_source_file>
/data/baiqing/PycharmProjects/Reinvent-master-3.2/result/LINK_invent/BTK/process_docking_weight1_custom_product_contain_oxygen_bond_distance_aromatic_linkinvent_7_9_3/rearranged_h_0135.sdf

> <i_m_source_file_index>
33

> <r_mmod_Potential_Energy-OPLS-2005>
3.86844110488892

> <r_mmod_Stretch_Energy-OPLS-2005>
35.5646591186523

> <r_mmod_Bend_Energy-OPLS-2005>
100.322326660156

> <r_mmod_Torsional_Energy-OPLS-2005>
225.684997558594

> <r_mmod_Improper_Torsional_Energy-OPLS-2005>
3.63465237617493

> <r_mmod_Van_der_Waal_Energy-OPLS-2005>
138.446640014648

> <r_mmod_Electrostatic_Energy-OPLS-2005>
-305.148406982422

> <r_mmod_Solvation_Energy-OPLS-2005>
-206.087707519531

> <b_mmod_Minimization_Converged-OPLS-2005>
0

> <r_mmod_RMS_Derivative-OPLS-2005>
1.01299595832825

$$$$
33
                    3D
 Structure written by MMmdl.
160168  0  0  1  0            999 V2000
  -30.7501  -14.3806   20.6643 C   0  0  0  0  0  0
  -30.4171  -12.2874   19.4023 C   0  0  0  0  0  0
  -29.4877  -12.5138   18.1952 C   0  0  0  0  0  0
  -28.0088  -12.3772   18.6082 C   0  0  0  0  0  0
  -27.6631  -13.2042   19.8739 C   0  0  2  0  0  0
  -28.6984  -12.9454   20.9889 C   0  0  0  0  0  0
  -25.2609  -13.8178   20.5715 C   0  0  0  0  0  0
  -24.1846  -13.0454   20.9180 C   0  0  0  0  0  0
  -24.6388  -11.6914   20.8718 C   0  0  0  0  0  0
  -23.9049  -10.4302   21.0391 C   0  0  0  0  0  0
  -24.3598   -9.4222   21.9175 C   0  0  0  0  0  0
  -23.6281   -8.2252   22.0738 C   0  0  0  0  0  0
  -22.4267   -8.0288   21.3531 C   0  0  0  0  0  0
  -21.9901   -9.0258   20.4633 C   0  0  0  0  0  0
  -22.7222  -10.2144   20.3039 C   0  0  0  0  0  0
  -21.6864   -6.0733   22.5278 C   0  0  0  0  0  0
  -21.4015   -6.5618   23.8218 C   0  0  0  0  0  0
  -21.3661   -5.6765   24.9173 C   0  0  0  0  0  0
  -21.6055   -4.3029   24.7219 C   0  0  0  0  0  0
  -21.8818   -3.8129   23.4333 C   0  0  0  0  0  0
  -21.9198   -4.6954   22.3398 C   0  0  0  0  0  0
  -22.7867  -13.5260   21.1824 C   0  0  0  0  0  0
  -22.1671   -4.2142   21.0975 F   0  0  0  0  0  0
  -21.5635   -3.4514   25.7730 F   0  0  0  0  0  0
  -30.0400  -13.2426   20.4521 N   0  0  0  0  0  0
  -26.3025  -12.9335   20.3349 N   0  0  0  0  0  0
  -25.9307  -11.6491   20.5722 N   0  0  0  0  0  0
  -22.0488  -12.8273   22.0378 N   0  0  0  0  0  0
  -25.4391  -15.1897   20.4157 N   0  0  0  0  0  0
  -31.7986  -14.6472   20.0682 O   0  0  0  0  0  0
  -21.6632   -6.8887   21.4250 O   0  0  0  0  0  0
  -22.3555  -14.5560   20.6661 O   0  0  0  0  0  0
  -24.6107  -31.8699   23.2133 C   0  0  0  0  0  0
  -25.9017  -32.4837   23.8402 C   0  0  1  0  0  0
  -27.2382  -27.4745   20.0921 C   0  0  0  0  0  0
  -25.5910  -33.8636   24.2349 N   0  0  0  0  0  0
  -23.3974  -30.4930   21.5524 C   0  0  2  0  0  0
  -24.8459  -28.9616   20.1152 C   0  0  0  0  0  0
  -22.7389  -29.4667   22.5006 C   0  0  0  0  0  0
  -18.0274  -28.1377   22.8491 C   0  0  0  0  0  0
  -24.1488  -36.7313   23.2637 C   0  0  0  0  0  0
  -25.9199  -30.8476   21.3605 C   0  0  0  0  0  0
  -26.0014  -29.4831   20.7117 C   0  0  0  0  0  0
  -27.2018  -28.7456   20.7008 C   0  0  0  0  0  0
  -26.0739  -26.9566   19.4898 C   0  0  0  0  0  0
  -24.8753  -27.6961   19.5000 C   0  0  0  0  0  0
  -23.6048  -29.8233   20.1659 C   0  0  0  0  0  0
  -25.4106  -36.3119   24.0347 C   0  0  1  0  0  0
  -20.5867  -28.3653   23.1343 C   0  0  2  0  0  0
  -20.6763  -26.9392   22.5435 C   0  0  0  0  0  0
  -19.5760  -26.6393   21.5217 C   0  0  0  0  0  0
  -18.1935  -26.7940   22.1609 C   0  0  0  0  0  0
  -19.1527  -28.8827   23.2920 C   0  0  0  0  0  0
  -18.9448  -30.1433   23.8934 C   0  0  0  0  0  0
  -17.6455  -30.6568   24.0585 C   0  0  0  0  0  0
  -25.9029  -34.9484   23.5144 C   0  0  0  0  0  0
  -16.5348  -29.9076   23.6315 C   0  0  0  0  0  0
  -16.7270  -28.6490   23.0339 C   0  0  0  0  0  0
  -26.4474  -31.6595   25.0703 C   0  0  0  0  0  0
  -25.3781  -31.3661   26.1475 C   0  0  0  0  0  0
  -27.0284  -30.3053   24.6023 C   0  0  0  0  0  0
  -27.6061  -32.4297   25.7458 C   0  0  0  0  0  0
  -27.5585  -37.1808   24.8472 C   0  0  0  0  0  0
  -21.4123  -29.3026   22.3744 N   0  0  0  0  0  0
  -26.4296  -37.3804   23.9419 N   0  0  0  0  0  0
  -24.6609  -31.0824   22.1025 N   0  0  0  0  0  0
  -23.4183  -28.8196   23.3019 O   0  0  0  0  0  0
  -28.3945  -26.7409   20.0805 O   0  0  0  0  0  0
  -26.5572  -34.8930   22.4689 O   0  0  0  0  0  0
  -23.5312  -32.1406   23.7564 O   0  0  0  0  0  0
  -29.0220  -19.7338   22.7426 C   0  0  0  0  0  0
  -29.8281  -18.5948   22.9098 C   0  0  0  0  0  0
  -29.2893  -17.8897   20.6498 C   0  0  0  0  0  0
  -28.3377  -19.9820   21.5261 C   0  0  0  0  0  0
  -29.9606  -17.6611   21.8677 C   0  0  0  0  0  0
  -28.4811  -19.0354   20.4657 C   0  0  0  0  0  0
  -27.4534  -21.1954   21.4341 C   0  0  0  0  0  0
  -27.9731  -24.4718   20.8658 C   0  0  0  0  0  0
  -27.8094  -19.2045   19.1093 C   0  0  0  0  0  0
  -30.8430  -16.4395   22.0689 C   0  0  0  0  0  0
  -27.8167  -22.3863   22.3378 C   0  0  0  0  0  0
  -27.1724  -23.7316   21.9377 C   0  0  0  0  0  0
  -28.5047  -25.8698   21.2079 C   0  0  0  0  0  0
  -30.2372  -15.2023   21.5853 N   0  0  0  0  0  0
  -26.4701  -21.2747   20.6922 O   0  0  0  0  0  0
  -28.1834  -23.9553   19.7653 O   0  0  0  0  0  0
  -31.4627  -12.3844   19.1034 H   0  0  0  0  0  0
  -30.3156  -11.2691   19.7803 H   0  0  0  0  0  0
  -29.7188  -11.7992   17.4047 H   0  0  0  0  0  0
  -29.6635  -13.5050   17.7746 H   0  0  0  0  0  0
  -27.8188  -11.3206   18.7984 H   0  0  0  0  0  0
  -27.3562  -12.6601   17.7806 H   0  0  0  0  0  0
  -27.7210  -14.2576   19.5964 H   0  0  0  0  0  0
  -28.6598  -11.8999   21.2983 H   0  0  0  0  0  0
  -28.4436  -13.5169   21.8808 H   0  0  0  0  0  0
  -25.2752   -9.5698   22.4742 H   0  0  0  0  0  0
  -23.9995   -7.4641   22.7441 H   0  0  0  0  0  0
  -21.0839   -8.8772   19.8937 H   0  0  0  0  0  0
  -22.3689  -10.9671   19.6120 H   0  0  0  0  0  0
  -21.2002   -7.6122   23.9730 H   0  0  0  0  0  0
  -21.1489   -6.0481   25.9084 H   0  0  0  0  0  0
  -22.0599   -2.7596   23.2831 H   0  0  0  0  0  0
  -22.4066  -11.9926   22.4781 H   0  0  0  0  0  0
  -21.1103  -13.1315   22.2552 H   0  0  0  0  0  0
  -24.6857  -15.8581   20.5334 H   0  0  0  0  0  0
  -26.3065  -15.6224   20.1225 H   0  0  0  0  0  0
  -26.7084  -32.5569   23.1161 H   0  0  0  0  0  0
  -25.0115  -33.9802   25.0532 H   0  0  0  0  0  0
  -22.6867  -31.3104   21.4162 H   0  0  0  0  0  0
  -23.3757  -35.9644   23.3312 H   0  0  0  0  0  0
  -24.3583  -36.8897   22.2048 H   0  0  0  0  0  0
  -23.7229  -37.6525   23.6624 H   0  0  0  0  0  0
  -26.0216  -31.6157   20.5927 H   0  0  0  0  0  0
  -26.8116  -30.9053   21.9734 H   0  0  0  0  0  0
  -28.0952  -29.1490   21.1585 H   0  0  0  0  0  0
  -26.0990  -25.9849   19.0163 H   0  0  0  0  0  0
  -23.9909  -27.2914   19.0264 H   0  0  0  0  0  0
  -23.7062  -30.5987   19.4056 H   0  0  0  0  0  0
  -22.7305  -29.2382   19.8740 H   0  0  0  0  0  0
  -25.1283  -36.1989   25.0845 H   0  0  0  0  0  0
  -20.9976  -28.3241   24.1465 H   0  0  0  0  0  0
  -20.5636  -26.2244   23.3597 H   0  0  0  0  0  0
  -21.6646  -26.7437   22.1260 H   0  0  0  0  0  0
  -19.6906  -25.6296   21.1253 H   0  0  0  0  0  0
  -19.6732  -27.3200   20.6749 H   0  0  0  0  0  0
  -17.4216  -26.6704   21.4003 H   0  0  0  0  0  0
  -18.0323  -26.0070   22.8996 H   0  0  0  0  0  0
  -19.7937  -30.7226   24.2313 H   0  0  0  0  0  0
  -17.5013  -31.6227   24.5224 H   0  0  0  0  0  0
  -15.5349  -30.2988   23.7613 H   0  0  0  0  0  0
  -15.8663  -28.0819   22.7048 H   0  0  0  0  0  0
  -24.5967  -30.6988   25.7817 H   0  0  0  0  0  0
  -24.8960  -32.2796   26.4967 H   0  0  0  0  0  0
  -25.8184  -30.8809   27.0198 H   0  0  0  0  0  0
  -26.2779  -29.6813   24.1153 H   0  0  0  0  0  0
  -27.4155  -29.7287   25.4433 H   0  0  0  0  0  0
  -27.8582  -30.4387   23.9079 H   0  0  0  0  0  0
  -27.2695  -33.3581   26.2090 H   0  0  0  0  0  0
  -28.3850  -32.6878   25.0271 H   0  0  0  0  0  0
  -28.0760  -31.8387   26.5327 H   0  0  0  0  0  0
  -28.2618  -38.0092   24.7526 H   0  0  0  0  0  0
  -28.1067  -36.2627   24.6297 H   0  0  0  0  0  0
  -27.2311  -37.1470   25.8878 H   0  0  0  0  0  0
  -20.9258  -29.8734   21.6973 H   0  0  0  0  0  0
  -26.0192  -38.2894   24.1409 H   0  0  0  0  0  0
  -28.9334  -20.4084   23.5827 H   0  0  0  0  0  0
  -30.3419  -18.4365   23.8485 H   0  0  0  0  0  0
  -29.4025  -17.1783   19.8414 H   0  0  0  0  0  0
  -28.2629  -18.5550   18.3607 H   0  0  0  0  0  0
  -27.9006  -20.2282   18.7425 H   0  0  0  0  0  0
  -26.7526  -18.9419   19.1723 H   0  0  0  0  0  0
  -31.0544  -16.3120   23.1308 H   0  0  0  0  0  0
  -31.8044  -16.6363   21.5921 H   0  0  0  0  0  0
  -27.4834  -22.1356   23.3438 H   0  0  0  0  0  0
  -28.9006  -22.4867   22.3880 H   0  0  0  0  0  0
  -26.1469  -23.6000   21.5916 H   0  0  0  0  0  0
  -27.1131  -24.3685   22.8194 H   0  0  0  0  0  0
  -29.5561  -25.7830   21.4822 H   0  0  0  0  0  0
  -27.9807  -26.2729   22.0755 H   0  0  0  0  0  0
  -29.3699  -14.9185   22.0153 H   0  0  0  0  0  0
  1 25  1  0  0  0
  1 30  2  0  0  0
  1 84  1  0  0  0
  2  3  1  0  0  0
  2 25  1  0  0  0
  2 87  1  0  0  0
  2 88  1  0  0  0
  3  4  1  0  0  0
  3 89  1  0  0  0
  3 90  1  0  0  0
  4  5  1  0  0  0
  4 91  1  0  0  0
  4 92  1  0  0  0
  5  6  1  0  0  0
  5 26  1  0  0  0
  5 93  1  0  0  0
  6 25  1  0  0  0
  6 94  1  0  0  0
  6 95  1  0  0  0
  7  8  2  0  0  0
  7 26  1  0  0  0
  7 29  1  0  0  0
  8  9  1  0  0  0
  8 22  1  0  0  0
  9 10  1  0  0  0
  9 27  2  0  0  0
 10 11  2  0  0  0
 10 15  1  0  0  0
 11 12  1  0  0  0
 11 96  1  0  0  0
 12 13  2  0  0  0
 12 97  1  0  0  0
 13 14  1  0  0  0
 13 31  1  0  0  0
 14 15  2  0  0  0
 14 98  1  0  0  0
 15 99  1  0  0  0
 16 17  2  0  0  0
 16 21  1  0  0  0
 16 31  1  0  0  0
 17 18  1  0  0  0
 17100  1  0  0  0
 18 19  2  0  0  0
 18101  1  0  0  0
 19 20  1  0  0  0
 19 24  1  0  0  0
 20 21  2  0  0  0
 20102  1  0  0  0
 21 23  1  0  0  0
 22 28  1  0  0  0
 22 32  2  0  0  0
 26 27  1  0  0  0
 28103  1  0  0  0
 28104  1  0  0  0
 29105  1  0  0  0
 29106  1  0  0  0
 33 34  1  0  0  0
 33 66  1  0  0  0
 33 70  2  0  0  0
 34 36  1  0  0  0
 34 59  1  0  0  0
 34107  1  0  0  0
 35 44  2  0  0  0
 35 45  1  0  0  0
 35 68  1  0  0  0
 36 56  1  0  0  0
 36108  1  0  0  0
 37 39  1  0  0  0
 37 47  1  0  0  0
 37 66  1  0  0  0
 37109  1  0  0  0
 38 43  2  0  0  0
 38 46  1  0  0  0
 38 47  1  0  0  0
 39 64  1  0  0  0
 39 67  2  0  0  0
 40 52  1  0  0  0
 40 53  2  0  0  0
 40 58  1  0  0  0
 41110  1  0  0  0
 41111  1  0  0  0
 41112  1  0  0  0
 41 48  1  0  0  0
 42 43  1  0  0  0
 42 66  1  0  0  0
 42113  1  0  0  0
 42114  1  0  0  0
 43 44  1  0  0  0
 44115  1  0  0  0
 45 46  2  0  0  0
 45116  1  0  0  0
 46117  1  0  0  0
 47118  1  0  0  0
 47119  1  0  0  0
 48 56  1  0  0  0
 48 65  1  0  0  0
 48120  1  0  0  0
 49 50  1  0  0  0
 49 53  1  0  0  0
 49 64  1  0  0  0
 49121  1  0  0  0
 50 51  1  0  0  0
 50122  1  0  0  0
 50123  1  0  0  0
 51 52  1  0  0  0
 51124  1  0  0  0
 51125  1  0  0  0
 52126  1  0  0  0
 52127  1  0  0  0
 53 54  1  0  0  0
 54 55  2  0  0  0
 54128  1  0  0  0
 55 57  1  0  0  0
 55129  1  0  0  0
 56 69  2  0  0  0
 57 58  2  0  0  0
 57130  1  0  0  0
 58131  1  0  0  0
 59 60  1  0  0  0
 59 61  1  0  0  0
 59 62  1  0  0  0
 60132  1  0  0  0
 60133  1  0  0  0
 60134  1  0  0  0
 61135  1  0  0  0
 61136  1  0  0  0
 61137  1  0  0  0
 62138  1  0  0  0
 62139  1  0  0  0
 62140  1  0  0  0
 63 65  1  0  0  0
 63141  1  0  0  0
 63142  1  0  0  0
 63143  1  0  0  0
 64144  1  0  0  0
 65145  1  0  0  0
 68 83  1  0  0  0
 71 72  2  0  0  0
 71 74  1  0  0  0
 71146  1  0  0  0
 72 75  1  0  0  0
 72147  1  0  0  0
 73 75  2  0  0  0
 73 76  1  0  0  0
 73148  1  0  0  0
 74 76  2  0  0  0
 74 77  1  0  0  0
 75 80  1  0  0  0
 76 79  1  0  0  0
 77 81  1  0  0  0
 77 85  2  0  0  0
 78 82  1  0  0  0
 78 83  1  0  0  0
 78 86  2  0  0  0
 79149  1  0  0  0
 79150  1  0  0  0
 79151  1  0  0  0
 80 84  1  0  0  0
 80152  1  0  0  0
 80153  1  0  0  0
 81 82  1  0  0  0
 81154  1  0  0  0
 81155  1  0  0  0
 82156  1  0  0  0
 82157  1  0  0  0
 83158  1  0  0  0
 83159  1  0  0  0
 84160  1  0  0  0
M  ISO  4   1 100  68 101  83 101  84 100
M  END
> <chiral flag>
0

> <version>
0

> <s_m_source_file>
/data/baiqing/PycharmProjects/Reinvent-master-3.2/result/LINK_invent/BTK/process_docking_weight1_custom_product_contain_oxygen_bond_distance_aromatic_linkinvent_7_9_3/rearranged_h_0135.sdf

> <i_m_source_file_index>
34

> <r_mmod_Potential_Energy-OPLS-2005>
-116.976860046387

> <r_mmod_Stretch_Energy-OPLS-2005>
34.3047943115234

> <r_mmod_Bend_Energy-OPLS-2005>
86.3062438964844

> <r_mmod_Torsional_Energy-OPLS-2005>
249.300857543945

> <r_mmod_Improper_Torsional_Energy-OPLS-2005>
1.74704194068909

> <r_mmod_Van_der_Waal_Energy-OPLS-2005>
158.410690307617

> <r_mmod_Electrostatic_Energy-OPLS-2005>
-420.529449462891

> <r_mmod_Solvation_Energy-OPLS-2005>
-233.230865478516

> <b_mmod_Minimization_Converged-OPLS-2005>
0

> <r_mmod_RMS_Derivative-OPLS-2005>
2.33802556991577

$$$$
34
                    3D
 Structure written by MMmdl.
181189  0  0  1  0            999 V2000
  -30.7277  -14.4047   20.6592 C   0  0  0  0  0  0
  -30.4335  -12.2987   19.3986 C   0  0  0  0  0  0
  -29.4985  -12.5256   18.1925 C   0  0  0  0  0  0
  -28.0183  -12.3813   18.5992 C   0  0  0  0  0  0
  -27.6695  -13.1945   19.8709 C   0  0  2  0  0  0
  -28.7079  -12.9297   20.9848 C   0  0  0  0  0  0
  -25.2637  -13.8110   20.5649 C   0  0  0  0  0  0
  -24.1861  -13.0409   20.9118 C   0  0  0  0  0  0
  -24.6385  -11.6868   20.8659 C   0  0  0  0  0  0
  -23.9022  -10.4277   21.0360 C   0  0  0  0  0  0
  -24.3574   -9.4217   21.9158 C   0  0  0  0  0  0
  -23.6264   -8.2253   22.0766 C   0  0  0  0  0  0
  -22.4250   -8.0255   21.3544 C   0  0  0  0  0  0
  -21.9867   -9.0225   20.4661 C   0  0  0  0  0  0
  -22.7185  -10.2105   20.3027 C   0  0  0  0  0  0
  -21.6872   -6.0695   22.5261 C   0  0  0  0  0  0
  -21.4032   -6.5608   23.8190 C   0  0  0  0  0  0
  -21.3667   -5.6761   24.9149 C   0  0  0  0  0  0
  -21.6049   -4.3021   24.7220 C   0  0  0  0  0  0
  -21.8820   -3.8117   23.4344 C   0  0  0  0  0  0
  -21.9215   -4.6931   22.3392 C   0  0  0  0  0  0
  -22.7893  -13.5254   21.1769 C   0  0  0  0  0  0
  -22.1686   -4.2114   21.0976 F   0  0  0  0  0  0
  -21.5644   -3.4515   25.7740 F   0  0  0  0  0  0
  -30.0547  -13.2398   20.4632 N   0  0  0  0  0  0
  -26.3058  -12.9262   20.3272 N   0  0  0  0  0  0
  -25.9303  -11.6419   20.5640 N   0  0  0  0  0  0
  -22.0479  -12.8304   22.0318 N   0  0  0  0  0  0
  -25.4369  -15.1849   20.4186 N   0  0  0  0  0  0
  -31.7589  -14.7069   20.0491 O   0  0  0  0  0  0
  -21.6630   -6.8845   21.4232 O   0  0  0  0  0  0
  -22.3613  -14.5575   20.6631 O   0  0  0  0  0  0
  -24.6130  -31.8689   23.2115 C   0  0  0  0  0  0
  -25.9031  -32.4831   23.8403 C   0  0  1  0  0  0
  -27.2380  -27.4423   20.0985 C   0  0  0  0  0  0
  -25.5902  -33.8626   24.2340 N   0  0  0  0  0  0
  -23.4002  -30.4921   21.5521 C   0  0  2  0  0  0
  -24.8462  -28.9614   20.1171 C   0  0  0  0  0  0
  -22.7413  -29.4650   22.4999 C   0  0  0  0  0  0
  -18.0263  -28.1382   22.8485 C   0  0  0  0  0  0
  -24.1486  -36.7309   23.2637 C   0  0  0  0  0  0
  -25.9280  -30.8397   21.3612 C   0  0  0  0  0  0
  -26.0063  -29.4751   20.7088 C   0  0  0  0  0  0
  -27.2041  -28.7249   20.6910 C   0  0  0  0  0  0
  -26.0527  -26.9414   19.5050 C   0  0  0  0  0  0
  -24.8647  -27.6954   19.5110 C   0  0  0  0  0  0
  -23.6073  -29.8248   20.1663 C   0  0  0  0  0  0
  -25.4106  -36.3115   24.0340 C   0  0  1  0  0  0
  -20.5852  -28.3662   23.1327 C   0  0  2  0  0  0
  -20.6755  -26.9406   22.5424 C   0  0  0  0  0  0
  -19.5742  -26.6390   21.5208 C   0  0  0  0  0  0
  -18.1911  -26.7928   22.1613 C   0  0  0  0  0  0
  -19.1512  -28.8841   23.2897 C   0  0  0  0  0  0
  -18.9444  -30.1445   23.8900 C   0  0  0  0  0  0
  -17.6448  -30.6594   24.0559 C   0  0  0  0  0  0
  -25.9026  -34.9481   23.5137 C   0  0  0  0  0  0
  -16.5334  -29.9093   23.6332 C   0  0  0  0  0  0
  -16.7252  -28.6515   23.0345 C   0  0  0  0  0  0
  -26.4470  -31.6601   25.0722 C   0  0  0  0  0  0
  -25.3756  -31.3709   26.1491 C   0  0  0  0  0  0
  -27.0270  -30.3037   24.6080 C   0  0  0  0  0  0
  -27.6069  -32.4303   25.7476 C   0  0  0  0  0  0
  -27.5582  -37.1804   24.8465 C   0  0  0  0  0  0
  -21.4141  -29.3029   22.3755 N   0  0  0  0  0  0
  -26.4292  -37.3803   23.9416 N   0  0  0  0  0  0
  -24.6654  -31.0802   22.1002 N   0  0  0  0  0  0
  -23.4199  -28.8189   23.3030 O   0  0  0  0  0  0
  -28.4238  -26.7303   20.1172 O   0  0  0  0  0  0
  -26.5585  -34.8931   22.4689 O   0  0  0  0  0  0
  -23.5331  -32.1421   23.7524 O   0  0  0  0  0  0
  -28.6146  -18.3981   20.5654 C   0  0  0  0  0  0
  -29.3127  -19.3259   21.3587 C   0  0  0  0  0  0
  -28.9521  -17.0345   20.6149 C   0  0  0  0  0  0
  -30.7142  -17.5300   22.2282 C   0  0  0  0  0  0
  -30.3813  -18.9065   22.1785 C   0  0  0  0  0  0
  -29.9954  -16.5889   21.4555 C   0  0  0  0  0  0
  -30.9195  -22.3172   20.2706 C   0  0  0  0  0  0
  -31.6093  -21.6224   21.2096 C   0  0  0  0  0  0
  -34.0700  -22.0508   20.6849 C   0  0  0  0  0  0
  -28.6140  -22.4259   19.3105 C   0  0  0  0  0  0
  -32.0266  -23.7366   23.3278 C   0  0  0  0  0  0
  -31.6204  -22.0450   25.1324 C   0  0  0  0  0  0
  -30.6467  -25.0123   19.0215 C   0  0  0  0  0  0
  -31.1110  -19.8927   23.0886 C   0  0  0  0  0  0
  -32.9508  -21.0078   20.8173 C   0  0  0  0  0  0
  -28.3359  -25.3047   20.0115 C   0  0  0  0  0  0
  -29.5746  -23.0494   20.3451 C   0  0  2  0  0  0
  -31.1665  -21.4003   22.6705 C   0  0  1  0  0  0
  -32.0353  -22.2322   23.6601 C   0  0  0  0  0  0
  -29.7092  -24.6018   20.1744 C   0  0  1  0  0  0
  -30.2110  -15.1966   21.6098 N   0  0  0  0  0  0
  -31.4766  -12.4166   19.0961 H   0  0  0  0  0  0
  -30.3422  -11.2746   19.7640 H   0  0  0  0  0  0
  -29.7368  -11.8192   17.3955 H   0  0  0  0  0  0
  -29.6687  -13.5197   17.7743 H   0  0  0  0  0  0
  -27.8167  -11.3230   18.7680 H   0  0  0  0  0  0
  -27.3729  -12.6871   17.7746 H   0  0  0  0  0  0
  -27.7227  -14.2452   19.5917 H   0  0  0  0  0  0
  -28.6757  -11.8809   21.2809 H   0  0  0  0  0  0
  -28.4448  -13.4854   21.8845 H   0  0  0  0  0  0
  -25.2740   -9.5702   22.4705 H   0  0  0  0  0  0
  -23.9962   -7.4676   22.7516 H   0  0  0  0  0  0
  -21.0779   -8.8742   19.9010 H   0  0  0  0  0  0
  -22.3641  -10.9614   19.6101 H   0  0  0  0  0  0
  -21.2011   -7.6106   23.9682 H   0  0  0  0  0  0
  -21.1495   -6.0486   25.9047 H   0  0  0  0  0  0
  -22.0599   -2.7582   23.2842 H   0  0  0  0  0  0
  -22.4029  -11.9999   22.4816 H   0  0  0  0  0  0
  -21.1103  -13.1420   22.2406 H   0  0  0  0  0  0
  -24.6847  -15.8469   20.5760 H   0  0  0  0  0  0
  -26.3086  -15.6325   20.1721 H   0  0  0  0  0  0
  -26.7092  -32.5552   23.1158 H   0  0  0  0  0  0
  -25.0090  -33.9795   25.0515 H   0  0  0  0  0  0
  -22.6872  -31.3071   21.4148 H   0  0  0  0  0  0
  -23.3754  -35.9634   23.3302 H   0  0  0  0  0  0
  -24.3591  -36.8924   22.2053 H   0  0  0  0  0  0
  -23.7233  -37.6513   23.6645 H   0  0  0  0  0  0
  -26.0367  -31.6052   20.5912 H   0  0  0  0  0  0
  -26.8174  -30.8942   21.9771 H   0  0  0  0  0  0
  -28.1016  -29.1228   21.1441 H   0  0  0  0  0  0
  -26.0168  -25.9744   19.0272 H   0  0  0  0  0  0
  -23.9733  -27.2948   19.0486 H   0  0  0  0  0  0
  -23.7156  -30.5960   19.4032 H   0  0  0  0  0  0
  -22.7327  -29.2405   19.8749 H   0  0  0  0  0  0
  -25.1276  -36.1978   25.0832 H   0  0  0  0  0  0
  -20.9926  -28.3219   24.1452 H   0  0  0  0  0  0
  -20.5661  -26.2267   23.3603 H   0  0  0  0  0  0
  -21.6631  -26.7460   22.1229 H   0  0  0  0  0  0
  -19.6912  -25.6305   21.1236 H   0  0  0  0  0  0
  -19.6686  -27.3197   20.6737 H   0  0  0  0  0  0
  -17.4194  -26.6681   21.4001 H   0  0  0  0  0  0
  -18.0302  -26.0070   22.9010 H   0  0  0  0  0  0
  -19.7916  -30.7257   24.2279 H   0  0  0  0  0  0
  -17.5005  -31.6275   24.5161 H   0  0  0  0  0  0
  -15.5335  -30.2995   23.7662 H   0  0  0  0  0  0
  -15.8650  -28.0841   22.7049 H   0  0  0  0  0  0
  -24.5922  -30.7054   25.7846 H   0  0  0  0  0  0
  -24.8946  -32.2861   26.4949 H   0  0  0  0  0  0
  -25.8126  -30.8883   27.0242 H   0  0  0  0  0  0
  -26.2781  -29.6824   24.1148 H   0  0  0  0  0  0
  -27.4049  -29.7252   25.4521 H   0  0  0  0  0  0
  -27.8630  -30.4340   23.9202 H   0  0  0  0  0  0
  -27.2716  -33.3607   26.2069 H   0  0  0  0  0  0
  -28.3870  -32.6850   25.0288 H   0  0  0  0  0  0
  -28.0746  -31.8413   26.5378 H   0  0  0  0  0  0
  -28.2605  -38.0098   24.7513 H   0  0  0  0  0  0
  -28.1069  -36.2628   24.6271 H   0  0  0  0  0  0
  -27.2313  -37.1452   25.8876 H   0  0  0  0  0  0
  -20.9307  -29.8748   21.6972 H   0  0  0  0  0  0
  -26.0179  -38.2882   24.1417 H   0  0  0  0  0  0
  -27.7987  -18.7309   19.9387 H   0  0  0  0  0  0
  -29.0120  -20.3629   21.3426 H   0  0  0  0  0  0
  -28.3829  -16.3352   20.0223 H   0  0  0  0  0  0
  -31.4974  -17.1925   22.8931 H   0  0  0  0  0  0
  -31.3733  -22.3730   19.2911 H   0  0  0  0  0  0
  -34.9898  -21.5880   20.3265 H   0  0  0  0  0  0
  -34.2970  -22.5217   21.6405 H   0  0  0  0  0  0
  -33.7999  -22.8384   19.9809 H   0  0  0  0  0  0
  -28.6147  -21.3380   19.3598 H   0  0  0  0  0  0
  -28.8892  -22.6980   18.2917 H   0  0  0  0  0  0
  -27.5820  -22.7399   19.4709 H   0  0  0  0  0  0
  -32.6612  -24.2972   24.0149 H   0  0  0  0  0  0
  -31.0191  -24.1466   23.4001 H   0  0  0  0  0  0
  -32.3961  -23.9399   22.3223 H   0  0  0  0  0  0
  -32.1785  -22.7132   25.7888 H   0  0  0  0  0  0
  -31.8166  -21.0324   25.4865 H   0  0  0  0  0  0
  -30.5597  -22.2537   25.2747 H   0  0  0  0  0  0
  -30.6870  -26.0967   18.9189 H   0  0  0  0  0  0
  -30.3132  -24.6059   18.0664 H   0  0  0  0  0  0
  -31.6709  -24.6800   19.1892 H   0  0  0  0  0  0
  -32.1212  -19.5195   23.2594 H   0  0  0  0  0  0
  -30.6085  -19.8076   24.0515 H   0  0  0  0  0  0
  -32.8263  -20.4966   19.8614 H   0  0  0  0  0  0
  -33.2613  -20.2357   21.5200 H   0  0  0  0  0  0
  -27.6432  -24.9381   20.7710 H   0  0  0  0  0  0
  -27.9328  -25.0423   19.0334 H   0  0  0  0  0  0
  -29.1277  -22.8774   21.3214 H   0  0  0  0  0  0
  -30.1498  -21.7700   22.7739 H   0  0  0  0  0  0
  -33.0665  -21.8863   23.5811 H   0  0  0  0  0  0
  -30.1560  -24.9810   21.0952 H   0  0  0  0  0  0
  -29.4992  -14.7226   22.1483 H   0  0  0  0  0  0
  1 25  1  0  0  0
  1 30  2  0  0  0
  1 91  1  0  0  0
  2  3  1  0  0  0
  2 25  1  0  0  0
  2 92  1  0  0  0
  2 93  1  0  0  0
  3  4  1  0  0  0
  3 94  1  0  0  0
  3 95  1  0  0  0
  4  5  1  0  0  0
  4 96  1  0  0  0
  4 97  1  0  0  0
  5  6  1  0  0  0
  5 26  1  0  0  0
  5 98  1  0  0  0
  6 25  1  0  0  0
  6 99  1  0  0  0
  6100  1  0  0  0
  7  8  2  0  0  0
  7 26  1  0  0  0
  7 29  1  0  0  0
  8  9  1  0  0  0
  8 22  1  0  0  0
  9 10  1  0  0  0
  9 27  2  0  0  0
 10 11  2  0  0  0
 10 15  1  0  0  0
 11 12  1  0  0  0
 11101  1  0  0  0
 12 13  2  0  0  0
 12102  1  0  0  0
 13 14  1  0  0  0
 13 31  1  0  0  0
 14 15  2  0  0  0
 14103  1  0  0  0
 15104  1  0  0  0
 16 17  2  0  0  0
 16 21  1  0  0  0
 16 31  1  0  0  0
 17 18  1  0  0  0
 17105  1  0  0  0
 18 19  2  0  0  0
 18106  1  0  0  0
 19 20  1  0  0  0
 19 24  1  0  0  0
 20 21  2  0  0  0
 20107  1  0  0  0
 21 23  1  0  0  0
 22 28  1  0  0  0
 22 32  2  0  0  0
 26 27  1  0  0  0
 28108  1  0  0  0
 28109  1  0  0  0
 29110  1  0  0  0
 29111  1  0  0  0
 33 34  1  0  0  0
 33 66  1  0  0  0
 33 70  2  0  0  0
 34 36  1  0  0  0
 34 59  1  0  0  0
 34112  1  0  0  0
 35 44  2  0  0  0
 35 45  1  0  0  0
 35 68  1  0  0  0
 36 56  1  0  0  0
 36113  1  0  0  0
 37 39  1  0  0  0
 37 47  1  0  0  0
 37 66  1  0  0  0
 37114  1  0  0  0
 38 43  2  0  0  0
 38 46  1  0  0  0
 38 47  1  0  0  0
 39 64  1  0  0  0
 39 67  2  0  0  0
 40 52  1  0  0  0
 40 53  2  0  0  0
 40 58  1  0  0  0
 41115  1  0  0  0
 41116  1  0  0  0
 41117  1  0  0  0
 41 48  1  0  0  0
 42 43  1  0  0  0
 42 66  1  0  0  0
 42118  1  0  0  0
 42119  1  0  0  0
 43 44  1  0  0  0
 44120  1  0  0  0
 45 46  2  0  0  0
 45121  1  0  0  0
 46122  1  0  0  0
 47123  1  0  0  0
 47124  1  0  0  0
 48 56  1  0  0  0
 48 65  1  0  0  0
 48125  1  0  0  0
 49 50  1  0  0  0
 49 53  1  0  0  0
 49 64  1  0  0  0
 49126  1  0  0  0
 50 51  1  0  0  0
 50127  1  0  0  0
 50128  1  0  0  0
 51 52  1  0  0  0
 51129  1  0  0  0
 51130  1  0  0  0
 52131  1  0  0  0
 52132  1  0  0  0
 53 54  1  0  0  0
 54 55  2  0  0  0
 54133  1  0  0  0
 55 57  1  0  0  0
 55134  1  0  0  0
 56 69  2  0  0  0
 57 58  2  0  0  0
 57135  1  0  0  0
 58136  1  0  0  0
 59 60  1  0  0  0
 59 61  1  0  0  0
 59 62  1  0  0  0
 60137  1  0  0  0
 60138  1  0  0  0
 60139  1  0  0  0
 61140  1  0  0  0
 61141  1  0  0  0
 61142  1  0  0  0
 62143  1  0  0  0
 62144  1  0  0  0
 62145  1  0  0  0
 63 65  1  0  0  0
 63146  1  0  0  0
 63147  1  0  0  0
 63148  1  0  0  0
 64149  1  0  0  0
 65150  1  0  0  0
 68 86  1  0  0  0
 71 72  2  0  0  0
 71 73  1  0  0  0
 71151  1  0  0  0
 72 75  1  0  0  0
 72152  1  0  0  0
 73 76  2  0  0  0
 73153  1  0  0  0
 74 75  2  0  0  0
 74 76  1  0  0  0
 74154  1  0  0  0
 75 84  1  0  0  0
 76 91  1  0  0  0
 77 78  2  0  0  0
 77 87  1  0  0  0
 77155  1  0  0  0
 78 85  1  0  0  0
 78 88  1  0  0  0
 79 85  1  0  0  0
 79156  1  0  0  0
 79157  1  0  0  0
 79158  1  0  0  0
 80159  1  0  0  0
 80160  1  0  0  0
 80161  1  0  0  0
 80 87  1  0  0  0
 81162  1  0  0  0
 81163  1  0  0  0
 81164  1  0  0  0
 81 89  1  0  0  0
 82 89  1  0  0  0
 82165  1  0  0  0
 82166  1  0  0  0
 82167  1  0  0  0
 83168  1  0  0  0
 83169  1  0  0  0
 83170  1  0  0  0
 83 90  1  0  0  0
 84171  1  0  0  0
 84172  1  0  0  0
 84 88  1  0  0  0
 85173  1  0  0  0
 85174  1  0  0  0
 86 90  1  0  0  0
 86175  1  0  0  0
 86176  1  0  0  0
 87 90  1  0  0  0
 87177  1  0  0  0
 88 89  1  0  0  0
 88178  1  0  0  0
 89179  1  0  0  0
 90180  1  0  0  0
 91181  1  0  0  0
M  ISO  4   1 100  68 101  86 101  91 100
M  END
> <chiral flag>
0

> <version>
0

> <s_m_source_file>
/data/baiqing/PycharmProjects/Reinvent-master-3.2/result/LINK_invent/BTK/process_docking_weight1_custom_product_contain_oxygen_bond_distance_aromatic_linkinvent_7_9_3/rearranged_h_0135.sdf

> <i_m_source_file_index>
35

> <r_mmod_Potential_Energy-OPLS-2005>
40.051685333252

> <r_mmod_Stretch_Energy-OPLS-2005>
41.6886558532715

> <r_mmod_Bend_Energy-OPLS-2005>
113.736030578613

> <r_mmod_Torsional_Energy-OPLS-2005>
262.848785400391

> <r_mmod_Improper_Torsional_Energy-OPLS-2005>
5.55621004104614

> <r_mmod_Van_der_Waal_Energy-OPLS-2005>
152.978134155273

> <r_mmod_Electrostatic_Energy-OPLS-2005>
-357.911956787109

> <r_mmod_Solvation_Energy-OPLS-2005>
-188.004776000977

> <b_mmod_Minimization_Converged-OPLS-2005>
0

> <r_mmod_RMS_Derivative-OPLS-2005>
2.52015590667725

$$$$
35
                    3D
 Structure written by MMmdl.
174182  0  0  1  0            999 V2000
  -30.5917  -14.7404   20.4225 C   0  0  0  0  0  0
  -30.4428  -12.4245   19.5052 C   0  0  0  0  0  0
  -29.5241  -12.4148   18.2620 C   0  0  0  0  0  0
  -28.0336  -12.3232   18.6537 C   0  0  0  0  0  0
  -27.6446  -13.2288   19.8547 C   0  0  2  0  0  0
  -28.6858  -13.1573   20.9920 C   0  0  0  0  0  0
  -25.2506  -13.8210   20.5680 C   0  0  0  0  0  0
  -24.1797  -13.0443   20.9188 C   0  0  0  0  0  0
  -24.6398  -11.6928   20.8765 C   0  0  0  0  0  0
  -23.9072  -10.4299   21.0425 C   0  0  0  0  0  0
  -24.3629   -9.4210   21.9189 C   0  0  0  0  0  0
  -23.6309   -8.2245   22.0762 C   0  0  0  0  0  0
  -22.4291   -8.0283   21.3551 C   0  0  0  0  0  0
  -21.9920   -9.0249   20.4643 C   0  0  0  0  0  0
  -22.7247  -10.2136   20.3066 C   0  0  0  0  0  0
  -21.6852   -6.0730   22.5279 C   0  0  0  0  0  0
  -21.4012   -6.5639   23.8208 C   0  0  0  0  0  0
  -21.3662   -5.6797   24.9171 C   0  0  0  0  0  0
  -21.6044   -4.3058   24.7226 C   0  0  0  0  0  0
  -21.8819   -3.8143   23.4349 C   0  0  0  0  0  0
  -21.9194   -4.6955   22.3400 C   0  0  0  0  0  0
  -22.7812  -13.5210   21.1837 C   0  0  0  0  0  0
  -22.1656   -4.2138   21.0979 F   0  0  0  0  0  0
  -21.5640   -3.4546   25.7742 F   0  0  0  0  0  0
  -29.9881  -13.5036   20.4114 N   0  0  0  0  0  0
  -26.2943  -12.9413   20.3319 N   0  0  0  0  0  0
  -25.9332  -11.6555   20.5821 N   0  0  0  0  0  0
  -22.0480  -12.8193   22.0412 N   0  0  0  0  0  0
  -25.4171  -15.1926   20.4052 N   0  0  0  0  0  0
  -31.7830  -14.8446   20.1144 O   0  0  0  0  0  0
  -21.6653   -6.8880   21.4246 O   0  0  0  0  0  0
  -22.3470  -14.5493   20.6667 O   0  0  0  0  0  0
  -24.6301  -31.8568   23.2009 C   0  0  0  0  0  0
  -25.9138  -32.4754   23.8352 C   0  0  1  0  0  0
  -27.2200  -27.2701   20.1450 C   0  0  0  0  0  0
  -25.5949  -33.8561   24.2279 N   0  0  0  0  0  0
  -23.4269  -30.4762   21.5448 C   0  0  2  0  0  0
  -24.8753  -28.9215   20.1185 C   0  0  0  0  0  0
  -22.7502  -29.4592   22.4950 C   0  0  0  0  0  0
  -18.0290  -28.1381   22.8501 C   0  0  0  0  0  0
  -24.1494  -36.7281   23.2639 C   0  0  0  0  0  0
  -25.9708  -30.7693   21.3827 C   0  0  0  0  0  0
  -26.0438  -29.3893   20.7346 C   0  0  0  0  0  0
  -27.2203  -28.5740   20.7416 C   0  0  0  0  0  0
  -26.0420  -26.8793   19.4770 C   0  0  0  0  0  0
  -24.8783  -27.6715   19.4803 C   0  0  0  0  0  0
  -23.6450  -29.8071   20.1624 C   0  0  0  0  0  0
  -25.4123  -36.3070   24.0325 C   0  0  1  0  0  0
  -20.5896  -28.3688   23.1292 C   0  0  2  0  0  0
  -20.6784  -26.9411   22.5424 C   0  0  0  0  0  0
  -19.5758  -26.6396   21.5222 C   0  0  0  0  0  0
  -18.1932  -26.7933   22.1629 C   0  0  0  0  0  0
  -19.1547  -28.8856   23.2883 C   0  0  0  0  0  0
  -18.9466  -30.1467   23.8884 C   0  0  0  0  0  0
  -17.6462  -30.6584   24.0568 C   0  0  0  0  0  0
  -25.9072  -34.9438   23.5108 C   0  0  0  0  0  0
  -16.5352  -29.9075   23.6338 C   0  0  0  0  0  0
  -16.7282  -28.6495   23.0359 C   0  0  0  0  0  0
  -26.4513  -31.6561   25.0729 C   0  0  0  0  0  0
  -25.3738  -31.3689   26.1449 C   0  0  0  0  0  0
  -27.0371  -30.2979   24.6204 C   0  0  0  0  0  0
  -27.6071  -32.4305   25.7497 C   0  0  0  0  0  0
  -27.5581  -37.1798   24.8462 C   0  0  0  0  0  0
  -21.4213  -29.3021   22.3679 N   0  0  0  0  0  0
  -26.4292  -37.3775   23.9413 N   0  0  0  0  0  0
  -24.6943  -31.0530   22.0978 N   0  0  0  0  0  0
  -23.4197  -28.8156   23.3074 O   0  0  0  0  0  0
  -28.3268  -26.3956   20.1051 O   0  0  0  0  0  0
  -26.5640  -34.8906   22.4670 O   0  0  0  0  0  0
  -23.5454  -32.1397   23.7294 O   0  0  0  0  0  0
  -29.6266  -19.6833   18.4581 C   0  0  0  0  0  0
  -29.9058  -18.4812   17.7964 C   0  0  0  0  0  0
  -29.4924  -18.4545   20.5463 C   0  0  0  0  0  0
  -29.3848  -19.7284   19.8418 C   0  0  0  0  0  0
  -29.9271  -17.2383   18.4679 C   0  0  0  0  0  0
  -29.7937  -17.1828   19.8914 C   0  0  0  0  0  0
  -29.6429  -16.1212   16.1188 C   0  0  0  0  0  0
  -31.5645  -23.2979   22.3129 C   0  0  0  0  0  0
  -31.0483  -22.2277   19.6042 C   0  0  0  0  0  0
  -26.9771  -24.4654   21.1268 C   0  0  0  0  0  0
  -28.9949  -25.5290   22.1523 C   0  0  0  0  0  0
  -28.8726  -21.1327   20.4154 C   0  0  0  0  0  0
  -29.9586  -15.9695   17.6175 C   0  0  0  0  0  0
  -30.3214  -22.4507   21.9854 C   0  0  0  0  0  0
  -29.2336  -23.9356   20.0362 C   0  0  0  0  0  0
  -29.8128  -22.4599   20.5183 C   0  0  1  0  0  0
  -28.3644  -25.0684   20.8253 C   0  0  0  0  0  0
  -29.7898  -15.8639   20.5924 N   0  0  0  0  0  0
  -31.4847  -12.5473   19.2045 H   0  0  0  0  0  0
  -30.3976  -11.4662   20.0253 H   0  0  0  0  0  0
  -29.7823  -11.5672   17.6272 H   0  0  0  0  0  0
  -29.7063  -13.2896   17.6476 H   0  0  0  0  0  0
  -27.8301  -11.2815   18.9030 H   0  0  0  0  0  0
  -27.4049  -12.5492   17.7920 H   0  0  0  0  0  0
  -27.6384  -14.2497   19.4756 H   0  0  0  0  0  0
  -28.7151  -12.1585   21.4291 H   0  0  0  0  0  0
  -28.4290  -13.8366   21.8053 H   0  0  0  0  0  0
  -25.2781   -9.5684   22.4748 H   0  0  0  0  0  0
  -24.0009   -7.4644   22.7499 H   0  0  0  0  0  0
  -21.0841   -8.8760   19.8949 H   0  0  0  0  0  0
  -22.3699  -10.9667   19.6173 H   0  0  0  0  0  0
  -21.1997   -7.6148   23.9699 H   0  0  0  0  0  0
  -21.1487   -6.0538   25.9075 H   0  0  0  0  0  0
  -22.0597   -2.7602   23.2862 H   0  0  0  0  0  0
  -22.4127  -11.9869   22.4784 H   0  0  0  0  0  0
  -21.1101  -13.1216   22.2647 H   0  0  0  0  0  0
  -24.6429  -15.8420   20.4949 H   0  0  0  0  0  0
  -26.2620  -15.6340   20.0657 H   0  0  0  0  0  0
  -26.7203  -32.5412   23.1096 H   0  0  0  0  0  0
  -25.0077  -33.9719   25.0405 H   0  0  0  0  0  0
  -22.7225  -31.2968   21.3965 H   0  0  0  0  0  0
  -23.3773  -35.9594   23.3281 H   0  0  0  0  0  0
  -24.3584  -36.8931   22.2058 H   0  0  0  0  0  0
  -23.7234  -37.6470   23.6680 H   0  0  0  0  0  0
  -26.1082  -31.5249   20.6081 H   0  0  0  0  0  0
  -26.8485  -30.8213   22.0148 H   0  0  0  0  0  0
  -28.1177  -28.9289   21.2301 H   0  0  0  0  0  0
  -26.0170  -25.9352   18.9537 H   0  0  0  0  0  0
  -23.9893  -27.3122   18.9794 H   0  0  0  0  0  0
  -23.7645  -30.5809   19.4029 H   0  0  0  0  0  0
  -22.7658  -29.2334   19.8630 H   0  0  0  0  0  0
  -25.1297  -36.1926   25.0817 H   0  0  0  0  0  0
  -20.9968  -28.3261   24.1422 H   0  0  0  0  0  0
  -20.5693  -26.2286   23.3620 H   0  0  0  0  0  0
  -21.6653  -26.7444   22.1213 H   0  0  0  0  0  0
  -19.6922  -25.6313   21.1245 H   0  0  0  0  0  0
  -19.6703  -27.3210   20.6756 H   0  0  0  0  0  0
  -17.4212  -26.6701   21.4016 H   0  0  0  0  0  0
  -18.0305  -26.0053   22.9003 H   0  0  0  0  0  0
  -19.7938  -30.7301   24.2234 H   0  0  0  0  0  0
  -17.5012  -31.6270   24.5170 H   0  0  0  0  0  0
  -15.5355  -30.2966   23.7680 H   0  0  0  0  0  0
  -15.8685  -28.0820   22.7062 H   0  0  0  0  0  0
  -24.5931  -30.7018   25.7771 H   0  0  0  0  0  0
  -24.8903  -32.2840   26.4877 H   0  0  0  0  0  0
  -25.8056  -30.8876   27.0235 H   0  0  0  0  0  0
  -26.2953  -29.6727   24.1222 H   0  0  0  0  0  0
  -27.4052  -29.7233   25.4717 H   0  0  0  0  0  0
  -27.8825  -30.4259   23.9439 H   0  0  0  0  0  0
  -27.2683  -33.3612   26.2065 H   0  0  0  0  0  0
  -28.3878  -32.6868   25.0316 H   0  0  0  0  0  0
  -28.0746  -31.8446   26.5426 H   0  0  0  0  0  0
  -28.2583  -38.0111   24.7537 H   0  0  0  0  0  0
  -28.1102  -36.2652   24.6255 H   0  0  0  0  0  0
  -27.2306  -37.1388   25.8864 H   0  0  0  0  0  0
  -20.9407  -29.8715   21.6854 H   0  0  0  0  0  0
  -26.0176  -38.2849   24.1425 H   0  0  0  0  0  0
  -29.5337  -20.5783   17.8610 H   0  0  0  0  0  0
  -30.0302  -18.5390   16.7262 H   0  0  0  0  0  0
  -29.2954  -18.4424   21.6088 H   0  0  0  0  0  0
  -29.5767  -15.1422   15.6456 H   0  0  0  0  0  0
  -30.4199  -16.6748   15.5913 H   0  0  0  0  0  0
  -28.6866  -16.6203   15.9581 H   0  0  0  0  0  0
  -31.7004  -23.3772   23.3920 H   0  0  0  0  0  0
  -31.5050  -24.3075   21.9103 H   0  0  0  0  0  0
  -32.4686  -22.8401   21.9097 H   0  0  0  0  0  0
  -31.5670  -21.2981   19.8384 H   0  0  0  0  0  0
  -31.7900  -23.0220   19.6883 H   0  0  0  0  0  0
  -30.7743  -22.2080   18.5509 H   0  0  0  0  0  0
  -26.3254  -25.1630   21.6545 H   0  0  0  0  0  0
  -27.0681  -23.5853   21.7636 H   0  0  0  0  0  0
  -26.4706  -24.1386   20.2199 H   0  0  0  0  0  0
  -29.0703  -24.7408   22.8937 H   0  0  0  0  0  0
  -28.3963  -26.3119   22.6177 H   0  0  0  0  0  0
  -29.9871  -25.9508   21.9928 H   0  0  0  0  0  0
  -28.3845  -20.9483   21.3727 H   0  0  0  0  0  0
  -28.0422  -21.4031   19.7630 H   0  0  0  0  0  0
  -29.1870  -15.3211   18.0261 H   0  0  0  0  0  0
  -30.9221  -15.4723   17.7279 H   0  0  0  0  0  0
  -29.5008  -22.7009   22.6537 H   0  0  0  0  0  0
  -30.5740  -21.4245   22.2589 H   0  0  0  0  0  0
  -28.7145  -23.7517   19.0943 H   0  0  0  0  0  0
  -30.1110  -24.5052   19.7278 H   0  0  0  0  0  0
  -28.9329  -15.6648   21.0866 H   0  0  0  0  0  0
  1 25  1  0  0  0
  1 30  2  0  0  0
  1 88  1  0  0  0
  2  3  1  0  0  0
  2 25  1  0  0  0
  2 89  1  0  0  0
  2 90  1  0  0  0
  3  4  1  0  0  0
  3 91  1  0  0  0
  3 92  1  0  0  0
  4  5  1  0  0  0
  4 93  1  0  0  0
  4 94  1  0  0  0
  5  6  1  0  0  0
  5 26  1  0  0  0
  5 95  1  0  0  0
  6 25  1  0  0  0
  6 96  1  0  0  0
  6 97  1  0  0  0
  7  8  2  0  0  0
  7 26  1  0  0  0
  7 29  1  0  0  0
  8  9  1  0  0  0
  8 22  1  0  0  0
  9 10  1  0  0  0
  9 27  2  0  0  0
 10 11  2  0  0  0
 10 15  1  0  0  0
 11 12  1  0  0  0
 11 98  1  0  0  0
 12 13  2  0  0  0
 12 99  1  0  0  0
 13 14  1  0  0  0
 13 31  1  0  0  0
 14 15  2  0  0  0
 14100  1  0  0  0
 15101  1  0  0  0
 16 17  2  0  0  0
 16 21  1  0  0  0
 16 31  1  0  0  0
 17 18  1  0  0  0
 17102  1  0  0  0
 18 19  2  0  0  0
 18103  1  0  0  0
 19 20  1  0  0  0
 19 24  1  0  0  0
 20 21  2  0  0  0
 20104  1  0  0  0
 21 23  1  0  0  0
 22 28  1  0  0  0
 22 32  2  0  0  0
 26 27  1  0  0  0
 28105  1  0  0  0
 28106  1  0  0  0
 29107  1  0  0  0
 29108  1  0  0  0
 33 34  1  0  0  0
 33 66  1  0  0  0
 33 70  2  0  0  0
 34 36  1  0  0  0
 34 59  1  0  0  0
 34109  1  0  0  0
 35 44  2  0  0  0
 35 45  1  0  0  0
 35 68  1  0  0  0
 36 56  1  0  0  0
 36110  1  0  0  0
 37 39  1  0  0  0
 37 47  1  0  0  0
 37 66  1  0  0  0
 37111  1  0  0  0
 38 43  2  0  0  0
 38 46  1  0  0  0
 38 47  1  0  0  0
 39 64  1  0  0  0
 39 67  2  0  0  0
 40 52  1  0  0  0
 40 53  2  0  0  0
 40 58  1  0  0  0
 41112  1  0  0  0
 41113  1  0  0  0
 41114  1  0  0  0
 41 48  1  0  0  0
 42 43  1  0  0  0
 42 66  1  0  0  0
 42115  1  0  0  0
 42116  1  0  0  0
 43 44  1  0  0  0
 44117  1  0  0  0
 45 46  2  0  0  0
 45118  1  0  0  0
 46119  1  0  0  0
 47120  1  0  0  0
 47121  1  0  0  0
 48 56  1  0  0  0
 48 65  1  0  0  0
 48122  1  0  0  0
 49 50  1  0  0  0
 49 53  1  0  0  0
 49 64  1  0  0  0
 49123  1  0  0  0
 50 51  1  0  0  0
 50124  1  0  0  0
 50125  1  0  0  0
 51 52  1  0  0  0
 51126  1  0  0  0
 51127  1  0  0  0
 52128  1  0  0  0
 52129  1  0  0  0
 53 54  1  0  0  0
 54 55  2  0  0  0
 54130  1  0  0  0
 55 57  1  0  0  0
 55131  1  0  0  0
 56 69  2  0  0  0
 57 58  2  0  0  0
 57132  1  0  0  0
 58133  1  0  0  0
 59 60  1  0  0  0
 59 61  1  0  0  0
 59 62  1  0  0  0
 60134  1  0  0  0
 60135  1  0  0  0
 60136  1  0  0  0
 61137  1  0  0  0
 61138  1  0  0  0
 61139  1  0  0  0
 62140  1  0  0  0
 62141  1  0  0  0
 62142  1  0  0  0
 63 65  1  0  0  0
 63143  1  0  0  0
 63144  1  0  0  0
 63145  1  0  0  0
 64146  1  0  0  0
 65147  1  0  0  0
 68 87  1  0  0  0
 71 72  2  0  0  0
 71 74  1  0  0  0
 71148  1  0  0  0
 72 75  1  0  0  0
 72149  1  0  0  0
 73 74  2  0  0  0
 73 76  1  0  0  0
 73150  1  0  0  0
 74 82  1  0  0  0
 75 76  2  0  0  0
 75 83  1  0  0  0
 76 88  1  0  0  0
 77 83  1  0  0  0
 77151  1  0  0  0
 77152  1  0  0  0
 77153  1  0  0  0
 78 84  1  0  0  0
 78154  1  0  0  0
 78155  1  0  0  0
 78156  1  0  0  0
 79157  1  0  0  0
 79158  1  0  0  0
 79159  1  0  0  0
 79 86  1  0  0  0
 80160  1  0  0  0
 80161  1  0  0  0
 80162  1  0  0  0
 80 87  1  0  0  0
 81 87  1  0  0  0
 81163  1  0  0  0
 81164  1  0  0  0
 81165  1  0  0  0
 82 86  1  0  0  0
 82166  1  0  0  0
 82167  1  0  0  0
 83168  1  0  0  0
 83169  1  0  0  0
 84 86  1  0  0  0
 84170  1  0  0  0
 84171  1  0  0  0
 85 86  1  0  0  0
 85 87  1  0  0  0
 85172  1  0  0  0
 85173  1  0  0  0
 88174  1  0  0  0
M  ISO  4   1 100  68 101  87 101  88 100
M  END
> <chiral flag>
0

> <version>
0

> <s_m_source_file>
/data/baiqing/PycharmProjects/Reinvent-master-3.2/result/LINK_invent/BTK/process_docking_weight1_custom_product_contain_oxygen_bond_distance_aromatic_linkinvent_7_9_3/rearranged_h_0135.sdf

> <i_m_source_file_index>
36

> <r_mmod_Potential_Energy-OPLS-2005>
317.750701904297

> <r_mmod_Stretch_Energy-OPLS-2005>
144.812957763672

> <r_mmod_Bend_Energy-OPLS-2005>
219.426528930664

> <r_mmod_Torsional_Energy-OPLS-2005>
292.909759521484

> <r_mmod_Improper_Torsional_Energy-OPLS-2005>
6.94668006896973

> <r_mmod_Van_der_Waal_Energy-OPLS-2005>
153.713272094727

> <r_mmod_Electrostatic_Energy-OPLS-2005>
-393.021789550781

> <r_mmod_Solvation_Energy-OPLS-2005>
-188.550979614258

> <b_mmod_Minimization_Converged-OPLS-2005>
0

> <r_mmod_RMS_Derivative-OPLS-2005>
2.64979076385498

$$$$
36
                    3D
 Structure written by MMmdl.
170178  0  0  1  0            999 V2000
  -30.7445  -14.4344   20.5699 C   0  0  0  0  0  0
  -30.4068  -12.2776   19.4306 C   0  0  0  0  0  0
  -29.4924  -12.4940   18.2082 C   0  0  0  0  0  0
  -28.0126  -12.3648   18.6147 C   0  0  0  0  0  0
  -27.6589  -13.2135   19.8661 C   0  0  2  0  0  0
  -28.6992  -13.0286   20.9936 C   0  0  0  0  0  0
  -25.2589  -13.8182   20.5674 C   0  0  0  0  0  0
  -24.1837  -13.0449   20.9160 C   0  0  0  0  0  0
  -24.6392  -11.6918   20.8707 C   0  0  0  0  0  0
  -23.9051  -10.4309   21.0390 C   0  0  0  0  0  0
  -24.3606   -9.4221   21.9159 C   0  0  0  0  0  0
  -23.6295   -8.2258   22.0745 C   0  0  0  0  0  0
  -22.4278   -8.0285   21.3544 C   0  0  0  0  0  0
  -21.9906   -9.0248   20.4639 C   0  0  0  0  0  0
  -22.7224  -10.2136   20.3040 C   0  0  0  0  0  0
  -21.6860   -6.0724   22.5270 C   0  0  0  0  0  0
  -21.4019   -6.5634   23.8201 C   0  0  0  0  0  0
  -21.3660   -5.6787   24.9164 C   0  0  0  0  0  0
  -21.6047   -4.3049   24.7218 C   0  0  0  0  0  0
  -21.8824   -3.8137   23.4340 C   0  0  0  0  0  0
  -21.9208   -4.6952   22.3398 C   0  0  0  0  0  0
  -22.7866  -13.5248   21.1835 C   0  0  0  0  0  0
  -22.1681   -4.2134   21.0979 F   0  0  0  0  0  0
  -21.5627   -3.4543   25.7739 F   0  0  0  0  0  0
  -30.0357  -13.2825   20.4400 N   0  0  0  0  0  0
  -26.3017  -12.9364   20.3323 N   0  0  0  0  0  0
  -25.9321  -11.6508   20.5726 N   0  0  0  0  0  0
  -22.0529  -12.8224   22.0389 N   0  0  0  0  0  0
  -25.4341  -15.1899   20.4102 N   0  0  0  0  0  0
  -31.8805  -14.5365   20.1000 O   0  0  0  0  0  0
  -21.6654   -6.8868   21.4232 O   0  0  0  0  0  0
  -22.3551  -14.5558   20.6702 O   0  0  0  0  0  0
  -24.6103  -31.8697   23.2123 C   0  0  0  0  0  0
  -25.9014  -32.4829   23.8403 C   0  0  1  0  0  0
  -27.2388  -27.4681   20.1017 C   0  0  0  0  0  0
  -25.5887  -33.8626   24.2339 N   0  0  0  0  0  0
  -23.3979  -30.4920   21.5502 C   0  0  2  0  0  0
  -24.8478  -28.9601   20.1151 C   0  0  0  0  0  0
  -22.7385  -29.4659   22.4994 C   0  0  0  0  0  0
  -18.0265  -28.1376   22.8490 C   0  0  0  0  0  0
  -24.1485  -36.7322   23.2639 C   0  0  0  0  0  0
  -25.9208  -30.8471   21.3604 C   0  0  0  0  0  0
  -26.0015  -29.4814   20.7147 C   0  0  0  0  0  0
  -27.2012  -28.7407   20.7111 C   0  0  0  0  0  0
  -26.0783  -26.9559   19.4901 C   0  0  0  0  0  0
  -24.8783  -27.6942   19.5011 C   0  0  0  0  0  0
  -23.6060  -29.8217   20.1645 C   0  0  0  0  0  0
  -25.4109  -36.3121   24.0337 C   0  0  1  0  0  0
  -20.5849  -28.3657   23.1327 C   0  0  2  0  0  0
  -20.6753  -26.9396   22.5425 C   0  0  0  0  0  0
  -19.5744  -26.6384   21.5208 C   0  0  0  0  0  0
  -18.1916  -26.7926   22.1609 C   0  0  0  0  0  0
  -19.1514  -28.8832   23.2907 C   0  0  0  0  0  0
  -18.9446  -30.1438   23.8919 C   0  0  0  0  0  0
  -17.6450  -30.6584   24.0567 C   0  0  0  0  0  0
  -25.9032  -34.9477   23.5134 C   0  0  0  0  0  0
  -16.5340  -29.9093   23.6323 C   0  0  0  0  0  0
  -16.7254  -28.6509   23.0345 C   0  0  0  0  0  0
  -26.4469  -31.6588   25.0707 C   0  0  0  0  0  0
  -25.3754  -31.3683   26.1471 C   0  0  0  0  0  0
  -27.0299  -30.3039   24.6044 C   0  0  0  0  0  0
  -27.6054  -32.4301   25.7463 C   0  0  0  0  0  0
  -27.5583  -37.1813   24.8464 C   0  0  0  0  0  0
  -21.4116  -29.3028   22.3734 N   0  0  0  0  0  0
  -26.4300  -37.3801   23.9404 N   0  0  0  0  0  0
  -24.6608  -31.0832   22.1008 N   0  0  0  0  0  0
  -23.4169  -28.8200   23.3027 O   0  0  0  0  0  0
  -28.3865  -26.7181   20.0804 O   0  0  0  0  0  0
  -26.5590  -34.8925   22.4692 O   0  0  0  0  0  0
  -23.5306  -32.1426   23.7543 O   0  0  0  0  0  0
  -28.7055  -19.9444   21.7250 C   0  0  0  0  0  0
  -29.3731  -20.9664   21.0171 C   0  0  0  0  0  0
  -29.2226  -18.6329   21.7592 C   0  0  0  0  0  0
  -31.0881  -19.3749   20.3900 C   0  0  0  0  0  0
  -30.5842  -20.6931   20.3408 C   0  0  0  0  0  0
  -30.4205  -18.3381   21.0788 C   0  0  0  0  0  0
  -31.3950  -21.6743   19.5828 C   0  0  0  0  0  0
  -31.6528  -22.9927   19.7502 C   0  0  0  0  0  0
  -32.6032  -23.6800   18.7752 C   0  0  0  0  0  0
  -30.6784  -25.9289   23.0026 C   0  0  0  0  0  0
  -30.7612  -27.7720   21.3320 C   0  0  0  0  0  0
  -31.0458  -16.9457   21.0554 C   0  0  0  0  0  0
  -31.1223  -23.8817   20.8798 C   0  0  0  0  0  0
  -30.1011  -15.7107   21.1640 C   0  0  0  0  0  0
  -31.0576  -25.3941   20.5377 C   0  0  0  0  0  0
  -28.7842  -26.2182   21.3604 C   0  0  0  0  0  0
  -30.3174  -26.3103   21.5514 C   0  0  0  0  0  0
  -31.4551  -12.3365   19.1317 H   0  0  0  0  0  0
  -30.2755  -11.2731   19.8372 H   0  0  0  0  0  0
  -29.7279  -11.7705   17.4271 H   0  0  0  0  0  0
  -29.6743  -13.4806   17.7775 H   0  0  0  0  0  0
  -27.8159  -11.3100   18.8114 H   0  0  0  0  0  0
  -27.3677  -12.6383   17.7791 H   0  0  0  0  0  0
  -27.6955  -14.2555   19.5490 H   0  0  0  0  0  0
  -28.6561  -12.0139   21.3918 H   0  0  0  0  0  0
  -28.4735  -13.6871   21.8324 H   0  0  0  0  0  0
  -25.2760   -9.5706   22.4723 H   0  0  0  0  0  0
  -24.0017   -7.4648   22.7462 H   0  0  0  0  0  0
  -21.0848   -8.8750   19.8946 H   0  0  0  0  0  0
  -22.3674  -10.9661   19.6146 H   0  0  0  0  0  0
  -21.2012   -7.6145   23.9697 H   0  0  0  0  0  0
  -21.1482   -6.0522   25.9064 H   0  0  0  0  0  0
  -22.0609   -2.7600   23.2847 H   0  0  0  0  0  0
  -22.4185  -11.9901   22.4773 H   0  0  0  0  0  0
  -21.1131  -13.1203   22.2598 H   0  0  0  0  0  0
  -24.6762  -15.8548   20.5226 H   0  0  0  0  0  0
  -26.2998  -15.6244   20.1132 H   0  0  0  0  0  0
  -26.7087  -32.5569   23.1175 H   0  0  0  0  0  0
  -25.0054  -33.9794   25.0495 H   0  0  0  0  0  0
  -22.6851  -31.3072   21.4105 H   0  0  0  0  0  0
  -23.3742  -35.9662   23.3321 H   0  0  0  0  0  0
  -24.3587  -36.8922   22.2054 H   0  0  0  0  0  0
  -23.7237  -37.6529   23.6646 H   0  0  0  0  0  0
  -26.0243  -31.6114   20.5891 H   0  0  0  0  0  0
  -26.8120  -30.9069   21.9729 H   0  0  0  0  0  0
  -28.0921  -29.1422   21.1709 H   0  0  0  0  0  0
  -26.1043  -25.9831   19.0188 H   0  0  0  0  0  0
  -23.9918  -27.2884   19.0328 H   0  0  0  0  0  0
  -23.7085  -30.5947   19.4019 H   0  0  0  0  0  0
  -22.7330  -29.2355   19.8722 H   0  0  0  0  0  0
  -25.1284  -36.1996   25.0829 H   0  0  0  0  0  0
  -20.9943  -28.3226   24.1446 H   0  0  0  0  0  0
  -20.5652  -26.2263   23.3608 H   0  0  0  0  0  0
  -21.6629  -26.7438   22.1226 H   0  0  0  0  0  0
  -19.6913  -25.6300   21.1229 H   0  0  0  0  0  0
  -19.6695  -27.3202   20.6747 H   0  0  0  0  0  0
  -17.4189  -26.6678   21.4006 H   0  0  0  0  0  0
  -18.0315  -26.0059   22.8996 H   0  0  0  0  0  0
  -19.7923  -30.7244   24.2305 H   0  0  0  0  0  0
  -17.5009  -31.6268   24.5164 H   0  0  0  0  0  0
  -15.5348  -30.3007   23.7637 H   0  0  0  0  0  0
  -15.8649  -28.0843   22.7048 H   0  0  0  0  0  0
  -24.5916  -30.7046   25.7811 H   0  0  0  0  0  0
  -24.8962  -32.2836   26.4952 H   0  0  0  0  0  0
  -25.8124  -30.8826   27.0204 H   0  0  0  0  0  0
  -26.2818  -29.6795   24.1151 H   0  0  0  0  0  0
  -27.4143  -29.7281   25.4470 H   0  0  0  0  0  0
  -27.8618  -30.4374   23.9127 H   0  0  0  0  0  0
  -27.2674  -33.3582   26.2083 H   0  0  0  0  0  0
  -28.3836  -32.6890   25.0272 H   0  0  0  0  0  0
  -28.0748  -31.8398   26.5343 H   0  0  0  0  0  0
  -28.2606  -38.0106   24.7511 H   0  0  0  0  0  0
  -28.1070  -36.2635   24.6287 H   0  0  0  0  0  0
  -27.2305  -37.1466   25.8870 H   0  0  0  0  0  0
  -20.9271  -29.8752   21.6961 H   0  0  0  0  0  0
  -26.0192  -38.2879   24.1416 H   0  0  0  0  0  0
  -27.7780  -20.1662   22.2340 H   0  0  0  0  0  0
  -28.9123  -21.9403   20.9773 H   0  0  0  0  0  0
  -28.6900  -17.8606   22.2977 H   0  0  0  0  0  0
  -32.0153  -19.1546   19.8772 H   0  0  0  0  0  0
  -31.8726  -21.2228   18.7239 H   0  0  0  0  0  0
  -33.0504  -22.9806   18.0676 H   0  0  0  0  0  0
  -33.4237  -24.1547   19.3149 H   0  0  0  0  0  0
  -32.0864  -24.4389   18.1875 H   0  0  0  0  0  0
  -31.7581  -25.9151   23.1542 H   0  0  0  0  0  0
  -30.2925  -24.9453   23.2716 H   0  0  0  0  0  0
  -30.2586  -26.6379   23.7177 H   0  0  0  0  0  0
  -31.8291  -27.8987   21.5095 H   0  0  0  0  0  0
  -30.2387  -28.4513   22.0068 H   0  0  0  0  0  0
  -30.5600  -28.1030   20.3131 H   0  0  0  0  0  0
  -31.7970  -16.8965   21.8442 H   0  0  0  0  0  0
  -31.6011  -16.9058   20.1173 H   0  0  0  0  0  0
  -31.7857  -23.7364   21.7325 H   0  0  0  0  0  0
  -30.1425  -23.5522   21.2005 H   0  0  0  0  0  0
  -29.1900  -15.9023   20.5982 H   0  0  0  0  0  0
  -29.8128  -15.5467   22.2023 H   0  0  0  0  0  0
  -30.5989  -25.5253   19.5561 H   0  0  0  0  0  0
  -32.0814  -25.7555   20.4334 H   0  0  0  0  0  0
  -28.2845  -26.7452   22.1758 H   0  0  0  0  0  0
  -28.4538  -25.1820   21.4340 H   0  0  0  0  0  0
  1 25  1  0  0  0
  1 30  2  0  0  0
  1 84  1  0  0  0
  2  3  1  0  0  0
  2 25  1  0  0  0
  2 88  1  0  0  0
  2 89  1  0  0  0
  3  4  1  0  0  0
  3 90  1  0  0  0
  3 91  1  0  0  0
  4  5  1  0  0  0
  4 92  1  0  0  0
  4 93  1  0  0  0
  5  6  1  0  0  0
  5 26  1  0  0  0
  5 94  1  0  0  0
  6 25  1  0  0  0
  6 95  1  0  0  0
  6 96  1  0  0  0
  7  8  2  0  0  0
  7 26  1  0  0  0
  7 29  1  0  0  0
  8  9  1  0  0  0
  8 22  1  0  0  0
  9 10  1  0  0  0
  9 27  2  0  0  0
 10 11  2  0  0  0
 10 15  1  0  0  0
 11 12  1  0  0  0
 11 97  1  0  0  0
 12 13  2  0  0  0
 12 98  1  0  0  0
 13 14  1  0  0  0
 13 31  1  0  0  0
 14 15  2  0  0  0
 14 99  1  0  0  0
 15100  1  0  0  0
 16 17  2  0  0  0
 16 21  1  0  0  0
 16 31  1  0  0  0
 17 18  1  0  0  0
 17101  1  0  0  0
 18 19  2  0  0  0
 18102  1  0  0  0
 19 20  1  0  0  0
 19 24  1  0  0  0
 20 21  2  0  0  0
 20103  1  0  0  0
 21 23  1  0  0  0
 22 28  1  0  0  0
 22 32  2  0  0  0
 26 27  1  0  0  0
 28104  1  0  0  0
 28105  1  0  0  0
 29106  1  0  0  0
 29107  1  0  0  0
 33 34  1  0  0  0
 33 66  1  0  0  0
 33 70  2  0  0  0
 34 36  1  0  0  0
 34 59  1  0  0  0
 34108  1  0  0  0
 35 44  2  0  0  0
 35 45  1  0  0  0
 35 68  1  0  0  0
 36 56  1  0  0  0
 36109  1  0  0  0
 37 39  1  0  0  0
 37 47  1  0  0  0
 37 66  1  0  0  0
 37110  1  0  0  0
 38 43  2  0  0  0
 38 46  1  0  0  0
 38 47  1  0  0  0
 39 64  1  0  0  0
 39 67  2  0  0  0
 40 52  1  0  0  0
 40 53  2  0  0  0
 40 58  1  0  0  0
 41111  1  0  0  0
 41112  1  0  0  0
 41113  1  0  0  0
 41 48  1  0  0  0
 42 43  1  0  0  0
 42 66  1  0  0  0
 42114  1  0  0  0
 42115  1  0  0  0
 43 44  1  0  0  0
 44116  1  0  0  0
 45 46  2  0  0  0
 45117  1  0  0  0
 46118  1  0  0  0
 47119  1  0  0  0
 47120  1  0  0  0
 48 56  1  0  0  0
 48 65  1  0  0  0
 48121  1  0  0  0
 49 50  1  0  0  0
 49 53  1  0  0  0
 49 64  1  0  0  0
 49122  1  0  0  0
 50 51  1  0  0  0
 50123  1  0  0  0
 50124  1  0  0  0
 51 52  1  0  0  0
 51125  1  0  0  0
 51126  1  0  0  0
 52127  1  0  0  0
 52128  1  0  0  0
 53 54  1  0  0  0
 54 55  2  0  0  0
 54129  1  0  0  0
 55 57  1  0  0  0
 55130  1  0  0  0
 56 69  2  0  0  0
 57 58  2  0  0  0
 57131  1  0  0  0
 58132  1  0  0  0
 59 60  1  0  0  0
 59 61  1  0  0  0
 59 62  1  0  0  0
 60133  1  0  0  0
 60134  1  0  0  0
 60135  1  0  0  0
 61136  1  0  0  0
 61137  1  0  0  0
 61138  1  0  0  0
 62139  1  0  0  0
 62140  1  0  0  0
 62141  1  0  0  0
 63 65  1  0  0  0
 63142  1  0  0  0
 63143  1  0  0  0
 63144  1  0  0  0
 64145  1  0  0  0
 65146  1  0  0  0
 68 86  1  0  0  0
 71 72  2  0  0  0
 71 73  1  0  0  0
 71147  1  0  0  0
 72 75  1  0  0  0
 72148  1  0  0  0
 73 76  2  0  0  0
 73149  1  0  0  0
 74 75  2  0  0  0
 74 76  1  0  0  0
 74150  1  0  0  0
 75 77  1  0  0  0
 76 82  1  0  0  0
 77 78  2  0  0  0
 77151  1  0  0  0
 78 79  1  0  0  0
 78 83  1  0  0  0
 79152  1  0  0  0
 79153  1  0  0  0
 79154  1  0  0  0
 80155  1  0  0  0
 80156  1  0  0  0
 80157  1  0  0  0
 80 87  1  0  0  0
 81 87  1  0  0  0
 81158  1  0  0  0
 81159  1  0  0  0
 81160  1  0  0  0
 82 84  1  0  0  0
 82161  1  0  0  0
 82162  1  0  0  0
 83 85  1  0  0  0
 83163  1  0  0  0
 83164  1  0  0  0
 84165  1  0  0  0
 84166  1  0  0  0
 85 87  1  0  0  0
 85167  1  0  0  0
 85168  1  0  0  0
 86 87  1  0  0  0
 86169  1  0  0  0
 86170  1  0  0  0
M  ISO  4   1 100  68 101  84 100  86 101
M  END
> <chiral flag>
0

> <version>
0

> <s_m_source_file>
/data/baiqing/PycharmProjects/Reinvent-master-3.2/result/LINK_invent/BTK/process_docking_weight1_custom_product_contain_oxygen_bond_distance_aromatic_linkinvent_7_9_3/rearranged_h_0135.sdf

> <i_m_source_file_index>
37

> <r_mmod_Potential_Energy-OPLS-2005>
29.6458415985107

> <r_mmod_Stretch_Energy-OPLS-2005>
36.8189964294434

> <r_mmod_Bend_Energy-OPLS-2005>
114.581741333008

> <r_mmod_Torsional_Energy-OPLS-2005>
227.252990722656

> <r_mmod_Improper_Torsional_Energy-OPLS-2005>
3.29948663711548

> <r_mmod_Van_der_Waal_Energy-OPLS-2005>
162.937103271484

> <r_mmod_Electrostatic_Energy-OPLS-2005>
-350.573364257812

> <r_mmod_Solvation_Energy-OPLS-2005>
-176.973937988281

> <b_mmod_Minimization_Converged-OPLS-2005>
0

> <r_mmod_RMS_Derivative-OPLS-2005>
1.71064639091492

$$$$
37
                    3D
 Structure written by MMmdl.
171179  0  0  1  0            999 V2000
  -30.6843  -14.4996   20.4838 C   0  0  0  0  0  0
  -30.4234  -12.2873   19.4465 C   0  0  0  0  0  0
  -29.4936  -12.4156   18.2192 C   0  0  0  0  0  0
  -28.0107  -12.3320   18.6284 C   0  0  0  0  0  0
  -27.6566  -13.2049   19.8629 C   0  0  2  0  0  0
  -28.6997  -13.0306   20.9909 C   0  0  0  0  0  0
  -25.2580  -13.8165   20.5652 C   0  0  0  0  0  0
  -24.1832  -13.0447   20.9162 C   0  0  0  0  0  0
  -24.6386  -11.6915   20.8753 C   0  0  0  0  0  0
  -23.9059  -10.4295   21.0405 C   0  0  0  0  0  0
  -24.3618   -9.4211   21.9177 C   0  0  0  0  0  0
  -23.6304   -8.2241   22.0749 C   0  0  0  0  0  0
  -22.4289   -8.0272   21.3539 C   0  0  0  0  0  0
  -21.9918   -9.0242   20.4640 C   0  0  0  0  0  0
  -22.7236  -10.2128   20.3051 C   0  0  0  0  0  0
  -21.6848   -6.0732   22.5276 C   0  0  0  0  0  0
  -21.4007   -6.5641   23.8206 C   0  0  0  0  0  0
  -21.3666   -5.6791   24.9172 C   0  0  0  0  0  0
  -21.6050   -4.3051   24.7216 C   0  0  0  0  0  0
  -21.8824   -3.8141   23.4341 C   0  0  0  0  0  0
  -21.9194   -4.6959   22.3397 C   0  0  0  0  0  0
  -22.7852  -13.5241   21.1823 C   0  0  0  0  0  0
  -22.1656   -4.2143   21.0978 F   0  0  0  0  0  0
  -21.5643   -3.4537   25.7729 F   0  0  0  0  0  0
  -30.0278  -13.3096   20.4282 N   0  0  0  0  0  0
  -26.3005  -12.9330   20.3331 N   0  0  0  0  0  0
  -25.9312  -11.6500   20.5808 N   0  0  0  0  0  0
  -22.0494  -12.8238   22.0388 N   0  0  0  0  0  0
  -25.4318  -15.1882   20.4048 N   0  0  0  0  0  0
  -31.8600  -14.6361   20.1345 O   0  0  0  0  0  0
  -21.6646   -6.8876   21.4237 O   0  0  0  0  0  0
  -22.3541  -14.5545   20.6678 O   0  0  0  0  0  0
  -24.6139  -31.8695   23.2107 C   0  0  0  0  0  0
  -25.9034  -32.4831   23.8405 C   0  0  1  0  0  0
  -27.2278  -27.4458   20.1086 C   0  0  0  0  0  0
  -25.5891  -33.8629   24.2335 N   0  0  0  0  0  0
  -23.4007  -30.4926   21.5513 C   0  0  2  0  0  0
  -24.8474  -28.9599   20.1136 C   0  0  0  0  0  0
  -22.7401  -29.4671   22.5000 C   0  0  0  0  0  0
  -18.0265  -28.1375   22.8496 C   0  0  0  0  0  0
  -24.1477  -36.7323   23.2639 C   0  0  0  0  0  0
  -25.9272  -30.8401   21.3604 C   0  0  0  0  0  0
  -26.0064  -29.4750   20.7095 C   0  0  0  0  0  0
  -27.2044  -28.7261   20.7026 C   0  0  0  0  0  0
  -26.0602  -26.9430   19.4996 C   0  0  0  0  0  0
  -24.8686  -27.6929   19.5021 C   0  0  0  0  0  0
  -23.6080  -29.8250   20.1655 C   0  0  0  0  0  0
  -25.4100  -36.3120   24.0338 C   0  0  1  0  0  0
  -20.5854  -28.3662   23.1327 C   0  0  2  0  0  0
  -20.6757  -26.9403   22.5421 C   0  0  0  0  0  0
  -19.5739  -26.6386   21.5217 C   0  0  0  0  0  0
  -18.1913  -26.7924   22.1624 C   0  0  0  0  0  0
  -19.1512  -28.8837   23.2905 C   0  0  0  0  0  0
  -18.9447  -30.1442   23.8916 C   0  0  0  0  0  0
  -17.6454  -30.6587   24.0570 C   0  0  0  0  0  0
  -25.9034  -34.9486   23.5133 C   0  0  0  0  0  0
  -16.5344  -29.9089   23.6326 C   0  0  0  0  0  0
  -16.7256  -28.6502   23.0352 C   0  0  0  0  0  0
  -26.4463  -31.6603   25.0725 C   0  0  0  0  0  0
  -25.3736  -31.3700   26.1479 C   0  0  0  0  0  0
  -27.0295  -30.3053   24.6079 C   0  0  0  0  0  0
  -27.6040  -32.4322   25.7485 C   0  0  0  0  0  0
  -27.5577  -37.1817   24.8466 C   0  0  0  0  0  0
  -21.4134  -29.3035   22.3738 N   0  0  0  0  0  0
  -26.4289  -37.3804   23.9409 N   0  0  0  0  0  0
  -24.6651  -31.0815   22.1000 N   0  0  0  0  0  0
  -23.4178  -28.8222   23.3049 O   0  0  0  0  0  0
  -28.3672  -26.6795   20.1253 O   0  0  0  0  0  0
  -26.5598  -34.8937   22.4699 O   0  0  0  0  0  0
  -23.5331  -32.1442   23.7514 O   0  0  0  0  0  0
  -29.8627  -16.2601   18.2860 C   0  0  0  0  0  0
  -29.2302  -17.8939   19.9668 C   0  0  0  0  0  0
  -29.4881  -17.1406   17.2630 C   0  0  0  0  0  0
  -28.9070  -18.8343   18.9454 C   0  0  0  0  0  0
  -28.9689  -18.4156   17.5834 C   0  0  0  0  0  0
  -29.6909  -16.5883   19.6481 C   0  0  0  0  0  0
  -29.6393  -16.6751   15.8217 C   0  0  0  0  0  0
  -28.4917  -19.2965   16.4377 C   0  0  0  0  0  0
  -28.6748  -22.6001   17.0866 C   0  0  0  0  0  0
  -30.7408  -23.3819   18.1714 C   0  0  0  0  0  0
  -28.5149  -20.2829   19.3160 C   0  0  0  0  0  0
  -29.6671  -21.3054   19.0762 C   0  0  0  0  0  0
  -29.1280  -24.3702   20.5301 C   0  0  0  0  0  0
  -28.4824  -23.6546   19.3221 C   0  0  0  0  0  0
  -28.2888  -25.5642   21.0264 C   0  0  0  0  0  0
  -29.3749  -22.7173   18.4545 C   0  0  0  0  0  0
  -29.9024  -15.5875   20.6593 N   0  0  0  0  0  0
  -31.4672  -12.3797   19.1397 H   0  0  0  0  0  0
  -30.3311  -11.2952   19.8912 H   0  0  0  0  0  0
  -29.7183  -11.6208   17.5067 H   0  0  0  0  0  0
  -29.6757  -13.3414   17.6827 H   0  0  0  0  0  0
  -27.7988  -11.2847   18.8475 H   0  0  0  0  0  0
  -27.3718  -12.5963   17.7842 H   0  0  0  0  0  0
  -27.6889  -14.2414   19.5281 H   0  0  0  0  0  0
  -28.6733  -12.0141   21.3859 H   0  0  0  0  0  0
  -28.4760  -13.6872   21.8327 H   0  0  0  0  0  0
  -25.2762   -9.5694   22.4754 H   0  0  0  0  0  0
  -24.0011   -7.4641   22.7481 H   0  0  0  0  0  0
  -21.0839   -8.8761   19.8959 H   0  0  0  0  0  0
  -22.3682  -10.9668   19.6164 H   0  0  0  0  0  0
  -21.1992   -7.6145   23.9709 H   0  0  0  0  0  0
  -21.1488   -6.0516   25.9077 H   0  0  0  0  0  0
  -22.0602   -2.7599   23.2834 H   0  0  0  0  0  0
  -22.4110  -11.9907   22.4781 H   0  0  0  0  0  0
  -21.1112  -13.1265   22.2585 H   0  0  0  0  0  0
  -24.6674  -15.8469   20.5071 H   0  0  0  0  0  0
  -26.2884  -15.6233   20.0854 H   0  0  0  0  0  0
  -26.7108  -32.5552   23.1181 H   0  0  0  0  0  0
  -25.0025  -33.9790   25.0465 H   0  0  0  0  0  0
  -22.6894  -31.3092   21.4137 H   0  0  0  0  0  0
  -23.3737  -35.9659   23.3315 H   0  0  0  0  0  0
  -24.3570  -36.8926   22.2052 H   0  0  0  0  0  0
  -23.7231  -37.6532   23.6645 H   0  0  0  0  0  0
  -26.0340  -31.6049   20.5900 H   0  0  0  0  0  0
  -26.8181  -30.8974   21.9746 H   0  0  0  0  0  0
  -28.0995  -29.1167   21.1661 H   0  0  0  0  0  0
  -26.0728  -25.9679   19.0332 H   0  0  0  0  0  0
  -23.9794  -27.2912   19.0364 H   0  0  0  0  0  0
  -23.7137  -30.6006   19.4061 H   0  0  0  0  0  0
  -22.7330  -29.2432   19.8705 H   0  0  0  0  0  0
  -25.1274  -36.1992   25.0833 H   0  0  0  0  0  0
  -20.9939  -28.3222   24.1452 H   0  0  0  0  0  0
  -20.5663  -26.2276   23.3602 H   0  0  0  0  0  0
  -21.6627  -26.7454   22.1217 H   0  0  0  0  0  0
  -19.6904  -25.6301   21.1237 H   0  0  0  0  0  0
  -19.6682  -27.3206   20.6752 H   0  0  0  0  0  0
  -17.4190  -26.6678   21.4016 H   0  0  0  0  0  0
  -18.0314  -26.0055   22.9011 H   0  0  0  0  0  0
  -19.7925  -30.7241   24.2297 H   0  0  0  0  0  0
  -17.5016  -31.6270   24.5165 H   0  0  0  0  0  0
  -15.5345  -30.3007   23.7641 H   0  0  0  0  0  0
  -15.8653  -28.0836   22.7060 H   0  0  0  0  0  0
  -24.5894  -30.7066   25.7811 H   0  0  0  0  0  0
  -24.8946  -32.2857   26.4960 H   0  0  0  0  0  0
  -25.8094  -30.8840   27.0218 H   0  0  0  0  0  0
  -26.2836  -29.6823   24.1131 H   0  0  0  0  0  0
  -27.4079  -29.7272   25.4519 H   0  0  0  0  0  0
  -27.8659  -30.4385   23.9213 H   0  0  0  0  0  0
  -27.2654  -33.3605   26.2101 H   0  0  0  0  0  0
  -28.3830  -32.6916   25.0302 H   0  0  0  0  0  0
  -28.0736  -31.8432   26.5374 H   0  0  0  0  0  0
  -28.2605  -38.0103   24.7507 H   0  0  0  0  0  0
  -28.1058  -36.2639   24.6291 H   0  0  0  0  0  0
  -27.2302  -37.1472   25.8870 H   0  0  0  0  0  0
  -20.9289  -29.8760   21.6966 H   0  0  0  0  0  0
  -26.0182  -38.2884   24.1404 H   0  0  0  0  0  0
  -30.2564  -15.3018   17.9967 H   0  0  0  0  0  0
  -29.1297  -18.1808   21.0047 H   0  0  0  0  0  0
  -30.2862  -15.8001   15.7488 H   0  0  0  0  0  0
  -30.0778  -17.4530   15.1959 H   0  0  0  0  0  0
  -28.6681  -16.4031   15.4074 H   0  0  0  0  0  0
  -27.9865  -18.7044   15.6751 H   0  0  0  0  0  0
  -29.3394  -19.7915   15.9651 H   0  0  0  0  0  0
  -27.7572  -20.0333   16.7426 H   0  0  0  0  0  0
  -29.2260  -21.9574   16.4045 H   0  0  0  0  0  0
  -28.6042  -23.5713   16.5933 H   0  0  0  0  0  0
  -27.6560  -22.2257   17.1788 H   0  0  0  0  0  0
  -31.2942  -22.8426   17.4010 H   0  0  0  0  0  0
  -31.3800  -23.3960   19.0549 H   0  0  0  0  0  0
  -30.6286  -24.4106   17.8256 H   0  0  0  0  0  0
  -28.2341  -20.3165   20.3701 H   0  0  0  0  0  0
  -27.6046  -20.5709   18.7955 H   0  0  0  0  0  0
  -30.3817  -20.8215   18.4093 H   0  0  0  0  0  0
  -30.2145  -21.4249   20.0118 H   0  0  0  0  0  0
  -30.1220  -24.7481   20.3009 H   0  0  0  0  0  0
  -29.2547  -23.6510   21.3398 H   0  0  0  0  0  0
  -28.1013  -24.4456   18.6734 H   0  0  0  0  0  0
  -27.5941  -23.1143   19.6521 H   0  0  0  0  0  0
  -28.6668  -25.8959   21.9948 H   0  0  0  0  0  0
  -27.2625  -25.2325   21.1996 H   0  0  0  0  0  0
  -29.1084  -15.4385   21.2638 H   0  0  0  0  0  0
  1 25  1  0  0  0
  1 30  2  0  0  0
  1 87  1  0  0  0
  2  3  1  0  0  0
  2 25  1  0  0  0
  2 88  1  0  0  0
  2 89  1  0  0  0
  3  4  1  0  0  0
  3 90  1  0  0  0
  3 91  1  0  0  0
  4  5  1  0  0  0
  4 92  1  0  0  0
  4 93  1  0  0  0
  5  6  1  0  0  0
  5 26  1  0  0  0
  5 94  1  0  0  0
  6 25  1  0  0  0
  6 95  1  0  0  0
  6 96  1  0  0  0
  7  8  2  0  0  0
  7 26  1  0  0  0
  7 29  1  0  0  0
  8  9  1  0  0  0
  8 22  1  0  0  0
  9 10  1  0  0  0
  9 27  2  0  0  0
 10 11  2  0  0  0
 10 15  1  0  0  0
 11 12  1  0  0  0
 11 97  1  0  0  0
 12 13  2  0  0  0
 12 98  1  0  0  0
 13 14  1  0  0  0
 13 31  1  0  0  0
 14 15  2  0  0  0
 14 99  1  0  0  0
 15100  1  0  0  0
 16 17  2  0  0  0
 16 21  1  0  0  0
 16 31  1  0  0  0
 17 18  1  0  0  0
 17101  1  0  0  0
 18 19  2  0  0  0
 18102  1  0  0  0
 19 20  1  0  0  0
 19 24  1  0  0  0
 20 21  2  0  0  0
 20103  1  0  0  0
 21 23  1  0  0  0
 22 28  1  0  0  0
 22 32  2  0  0  0
 26 27  1  0  0  0
 28104  1  0  0  0
 28105  1  0  0  0
 29106  1  0  0  0
 29107  1  0  0  0
 33 34  1  0  0  0
 33 66  1  0  0  0
 33 70  2  0  0  0
 34 36  1  0  0  0
 34 59  1  0  0  0
 34108  1  0  0  0
 35 44  2  0  0  0
 35 45  1  0  0  0
 35 68  1  0  0  0
 36 56  1  0  0  0
 36109  1  0  0  0
 37 39  1  0  0  0
 37 47  1  0  0  0
 37 66  1  0  0  0
 37110  1  0  0  0
 38 43  2  0  0  0
 38 46  1  0  0  0
 38 47  1  0  0  0
 39 64  1  0  0  0
 39 67  2  0  0  0
 40 52  1  0  0  0
 40 53  2  0  0  0
 40 58  1  0  0  0
 41111  1  0  0  0
 41112  1  0  0  0
 41113  1  0  0  0
 41 48  1  0  0  0
 42 43  1  0  0  0
 42 66  1  0  0  0
 42114  1  0  0  0
 42115  1  0  0  0
 43 44  1  0  0  0
 44116  1  0  0  0
 45 46  2  0  0  0
 45117  1  0  0  0
 46118  1  0  0  0
 47119  1  0  0  0
 47120  1  0  0  0
 48 56  1  0  0  0
 48 65  1  0  0  0
 48121  1  0  0  0
 49 50  1  0  0  0
 49 53  1  0  0  0
 49 64  1  0  0  0
 49122  1  0  0  0
 50 51  1  0  0  0
 50123  1  0  0  0
 50124  1  0  0  0
 51 52  1  0  0  0
 51125  1  0  0  0
 51126  1  0  0  0
 52127  1  0  0  0
 52128  1  0  0  0
 53 54  1  0  0  0
 54 55  2  0  0  0
 54129  1  0  0  0
 55 57  1  0  0  0
 55130  1  0  0  0
 56 69  2  0  0  0
 57 58  2  0  0  0
 57131  1  0  0  0
 58132  1  0  0  0
 59 60  1  0  0  0
 59 61  1  0  0  0
 59 62  1  0  0  0
 60133  1  0  0  0
 60134  1  0  0  0
 60135  1  0  0  0
 61136  1  0  0  0
 61137  1  0  0  0
 61138  1  0  0  0
 62139  1  0  0  0
 62140  1  0  0  0
 62141  1  0  0  0
 63 65  1  0  0  0
 63142  1  0  0  0
 63143  1  0  0  0
 63144  1  0  0  0
 64145  1  0  0  0
 65146  1  0  0  0
 68 85  1  0  0  0
 71 73  2  0  0  0
 71 76  1  0  0  0
 71147  1  0  0  0
 72 74  1  0  0  0
 72 76  2  0  0  0
 72148  1  0  0  0
 73 75  1  0  0  0
 73 77  1  0  0  0
 74 75  2  0  0  0
 74 81  1  0  0  0
 75 78  1  0  0  0
 76 87  1  0  0  0
 77149  1  0  0  0
 77150  1  0  0  0
 77151  1  0  0  0
 78152  1  0  0  0
 78153  1  0  0  0
 78154  1  0  0  0
 79155  1  0  0  0
 79156  1  0  0  0
 79157  1  0  0  0
 79 86  1  0  0  0
 80 86  1  0  0  0
 80158  1  0  0  0
 80159  1  0  0  0
 80160  1  0  0  0
 81 82  1  0  0  0
 81161  1  0  0  0
 81162  1  0  0  0
 82 86  1  0  0  0
 82163  1  0  0  0
 82164  1  0  0  0
 83 84  1  0  0  0
 83 85  1  0  0  0
 83165  1  0  0  0
 83166  1  0  0  0
 84 86  1  0  0  0
 84167  1  0  0  0
 84168  1  0  0  0
 85169  1  0  0  0
 85170  1  0  0  0
 87171  1  0  0  0
M  ISO  4   1 100  68 101  85 101  87 100
M  END
> <chiral flag>
0

> <version>
0

> <s_m_source_file>
/data/baiqing/PycharmProjects/Reinvent-master-3.2/result/LINK_invent/BTK/process_docking_weight1_custom_product_contain_oxygen_bond_distance_aromatic_linkinvent_7_9_3/rearranged_h_0135.sdf

> <i_m_source_file_index>
38

> <r_mmod_Potential_Energy-OPLS-2005>
49.8613319396973

> <r_mmod_Stretch_Energy-OPLS-2005>
43.0172119140625

> <r_mmod_Bend_Energy-OPLS-2005>
110.746520996094

> <r_mmod_Torsional_Energy-OPLS-2005>
305.117279052734

> <r_mmod_Improper_Torsional_Energy-OPLS-2005>
9.61369705200195

> <r_mmod_Van_der_Waal_Energy-OPLS-2005>
158.884094238281

> <r_mmod_Electrostatic_Energy-OPLS-2005>
-404.545196533203

> <r_mmod_Solvation_Energy-OPLS-2005>
-192.477066040039

> <b_mmod_Minimization_Converged-OPLS-2005>
0

> <r_mmod_RMS_Derivative-OPLS-2005>
1.45351910591125

$$$$
38
                    3D
 Structure written by MMmdl.
160168  0  0  1  0            999 V2000
  -30.6858  -14.6599   20.3982 C   0  0  0  0  0  0
  -30.4169  -12.3782   19.4822 C   0  0  0  0  0  0
  -29.5203  -12.4556   18.2319 C   0  0  0  0  0  0
  -28.0388  -12.3146   18.6365 C   0  0  0  0  0  0
  -27.6429  -13.2269   19.8322 C   0  0  2  0  0  0
  -28.6861  -13.1885   20.9690 C   0  0  0  0  0  0
  -25.2525  -13.8126   20.5730 C   0  0  0  0  0  0
  -24.1802  -13.0376   20.9210 C   0  0  0  0  0  0
  -24.6411  -11.6876   20.8758 C   0  0  0  0  0  0
  -23.9074  -10.4257   21.0420 C   0  0  0  0  0  0
  -24.3657   -9.4172   21.9203 C   0  0  0  0  0  0
  -23.6339   -8.2197   22.0771 C   0  0  0  0  0  0
  -22.4304   -8.0255   21.3553 C   0  0  0  0  0  0
  -21.9910   -9.0193   20.4636 C   0  0  0  0  0  0
  -22.7231  -10.2093   20.3064 C   0  0  0  0  0  0
  -21.6848   -6.0746   22.5304 C   0  0  0  0  0  0
  -21.3993   -6.5654   23.8238 C   0  0  0  0  0  0
  -21.3677   -5.6812   24.9204 C   0  0  0  0  0  0
  -21.6067   -4.3068   24.7260 C   0  0  0  0  0  0
  -21.8812   -3.8164   23.4371 C   0  0  0  0  0  0
  -21.9177   -4.6974   22.3430 C   0  0  0  0  0  0
  -22.7840  -13.5146   21.1888 C   0  0  0  0  0  0
  -22.1645   -4.2163   21.1010 F   0  0  0  0  0  0
  -21.5666   -3.4553   25.7774 F   0  0  0  0  0  0
  -30.0017  -13.4712   20.3769 N   0  0  0  0  0  0
  -26.2960  -12.9343   20.3219 N   0  0  0  0  0  0
  -25.9319  -11.6491   20.5692 N   0  0  0  0  0  0
  -22.0494  -12.8145   22.0474 N   0  0  0  0  0  0
  -25.4203  -15.1860   20.4278 N   0  0  0  0  0  0
  -31.9017  -14.6800   20.1965 O   0  0  0  0  0  0
  -21.6648   -6.8868   21.4261 O   0  0  0  0  0  0
  -22.3489  -14.5445   20.6770 O   0  0  0  0  0  0
  -24.6205  -31.8600   23.2080 C   0  0  0  0  0  0
  -25.9061  -32.4798   23.8420 C   0  0  1  0  0  0
  -27.2730  -27.3959   20.1203 C   0  0  0  0  0  0
  -25.5883  -33.8593   24.2338 N   0  0  0  0  0  0
  -23.4195  -30.4826   21.5403 C   0  0  2  0  0  0
  -24.8828  -28.9337   20.1304 C   0  0  0  0  0  0
  -22.7445  -29.4663   22.4899 C   0  0  0  0  0  0
  -18.0298  -28.1382   22.8507 C   0  0  0  0  0  0
  -24.1487  -36.7315   23.2652 C   0  0  0  0  0  0
  -25.9551  -30.8128   21.3776 C   0  0  0  0  0  0
  -26.0401  -29.4384   20.7388 C   0  0  0  0  0  0
  -27.2414  -28.6768   20.7358 C   0  0  0  0  0  0
  -26.0972  -26.9136   19.5152 C   0  0  0  0  0  0
  -24.9056  -27.6647   19.5200 C   0  0  0  0  0  0
  -23.6461  -29.8071   20.1593 C   0  0  0  0  0  0
  -25.4105  -36.3094   24.0354 C   0  0  1  0  0  0
  -20.5891  -28.3708   23.1260 C   0  0  2  0  0  0
  -20.6790  -26.9421   22.5412 C   0  0  0  0  0  0
  -19.5778  -26.6403   21.5201 C   0  0  0  0  0  0
  -18.1942  -26.7959   22.1613 C   0  0  0  0  0  0
  -19.1531  -28.8866   23.2904 C   0  0  0  0  0  0
  -18.9473  -30.1465   23.8930 C   0  0  0  0  0  0
  -17.6469  -30.6593   24.0588 C   0  0  0  0  0  0
  -25.9037  -34.9460   23.5150 C   0  0  0  0  0  0
  -16.5368  -29.9104   23.6333 C   0  0  0  0  0  0
  -16.7293  -28.6524   23.0363 C   0  0  0  0  0  0
  -26.4471  -31.6602   25.0758 C   0  0  0  0  0  0
  -25.3767  -31.3732   26.1522 C   0  0  0  0  0  0
  -27.0313  -30.3040   24.6200 C   0  0  0  0  0  0
  -27.6040  -32.4322   25.7513 C   0  0  0  0  0  0
  -27.5590  -37.1801   24.8457 C   0  0  0  0  0  0
  -21.4160  -29.3070   22.3625 N   0  0  0  0  0  0
  -26.4294  -37.3780   23.9419 N   0  0  0  0  0  0
  -24.6822  -31.0673   22.0995 N   0  0  0  0  0  0
  -23.4167  -28.8193   23.2966 O   0  0  0  0  0  0
  -28.4313  -26.6567   19.9251 O   0  0  0  0  0  0
  -26.5589  -34.8912   22.4705 O   0  0  0  0  0  0
  -23.5375  -32.1332   23.7431 O   0  0  0  0  0  0
  -31.4538  -17.3755   19.0898 C   0  0  0  0  0  0
  -31.7807  -18.6558   18.5961 C   0  0  0  0  0  0
  -29.6488  -18.3625   20.3815 C   0  0  0  0  0  0
  -29.9597  -19.6713   19.8664 C   0  0  0  0  0  0
  -30.3762  -17.1805   19.9959 C   0  0  0  0  0  0
  -31.0447  -19.7907   18.9740 C   0  0  0  0  0  0
  -28.4474  -23.2658   20.6364 C   0  0  0  0  0  0
  -29.2812  -22.1943   20.8151 C   0  0  0  0  0  0
  -30.2068  -21.4530   23.1103 C   0  0  0  0  0  0
  -29.0036  -20.8983   20.0001 C   0  0  0  0  0  0
  -28.2968  -24.5811   21.4362 C   0  0  0  0  0  0
  -30.4561  -22.2107   21.7960 C   0  0  0  0  0  0
  -29.0251  -25.8848   20.9875 C   0  0  0  0  0  0
  -29.9653  -15.8295   20.4089 N   0  0  0  0  0  0
  -31.3441  -20.9851   18.4096 F   0  0  0  0  0  0
  -31.4708  -12.4462   19.2051 H   0  0  0  0  0  0
  -30.3016  -11.4182   19.9864 H   0  0  0  0  0  0
  -29.7939  -11.6628   17.5298 H   0  0  0  0  0  0
  -29.6928  -13.3938   17.7041 H   0  0  0  0  0  0
  -27.8755  -11.2658   18.8977 H   0  0  0  0  0  0
  -27.3949  -12.5137   17.7772 H   0  0  0  0  0  0
  -27.6240  -14.2459   19.4381 H   0  0  0  0  0  0
  -28.6929  -12.2149   21.4639 H   0  0  0  0  0  0
  -28.4432  -13.9251   21.7383 H   0  0  0  0  0  0
  -25.2808   -9.5676   22.4743 H   0  0  0  0  0  0
  -24.0083   -7.4576   22.7465 H   0  0  0  0  0  0
  -21.0859   -8.8649   19.8906 H   0  0  0  0  0  0
  -22.3663  -10.9623   19.6156 H   0  0  0  0  0  0
  -21.1952   -7.6150   23.9742 H   0  0  0  0  0  0
  -21.1537   -6.0559   25.9117 H   0  0  0  0  0  0
  -22.0580   -2.7625   23.2887 H   0  0  0  0  0  0
  -22.4153  -11.9871   22.4934 H   0  0  0  0  0  0
  -21.1066  -13.1107   22.2582 H   0  0  0  0  0  0
  -24.6551  -15.8334   20.5828 H   0  0  0  0  0  0
  -26.2843  -15.6480   20.1799 H   0  0  0  0  0  0
  -26.7150  -32.5517   23.1212 H   0  0  0  0  0  0
  -25.0051  -33.9758   25.0499 H   0  0  0  0  0  0
  -22.7196  -31.3021   21.3825 H   0  0  0  0  0  0
  -23.3735  -35.9657   23.3292 H   0  0  0  0  0  0
  -24.3608  -36.8941   22.2070 H   0  0  0  0  0  0
  -23.7237  -37.6529   23.6658 H   0  0  0  0  0  0
  -26.0771  -31.5712   20.6023 H   0  0  0  0  0  0
  -26.8368  -30.8704   22.0010 H   0  0  0  0  0  0
  -28.1437  -29.0822   21.1761 H   0  0  0  0  0  0
  -26.1225  -25.9514   19.0211 H   0  0  0  0  0  0
  -24.0233  -27.2675   19.0380 H   0  0  0  0  0  0
  -23.7708  -30.5752   19.3954 H   0  0  0  0  0  0
  -22.7728  -29.2253   19.8557 H   0  0  0  0  0  0
  -25.1291  -36.1972   25.0852 H   0  0  0  0  0  0
  -21.0044  -28.3288   24.1345 H   0  0  0  0  0  0
  -20.5659  -26.2326   23.3619 H   0  0  0  0  0  0
  -21.6658  -26.7422   22.1197 H   0  0  0  0  0  0
  -19.6923  -25.6298   21.1260 H   0  0  0  0  0  0
  -19.6723  -27.3204   20.6712 H   0  0  0  0  0  0
  -17.4214  -26.6746   21.3996 H   0  0  0  0  0  0
  -18.0324  -26.0080   22.8987 H   0  0  0  0  0  0
  -19.7920  -30.7288   24.2316 H   0  0  0  0  0  0
  -17.5005  -31.6271   24.5171 H   0  0  0  0  0  0
  -15.5373  -30.3015   23.7619 H   0  0  0  0  0  0
  -15.8701  -28.0853   22.7050 H   0  0  0  0  0  0
  -24.5882  -30.7146   25.7856 H   0  0  0  0  0  0
  -24.9050  -32.2911   26.5048 H   0  0  0  0  0  0
  -25.8145  -30.8825   27.0232 H   0  0  0  0  0  0
  -26.2888  -29.6787   24.1235 H   0  0  0  0  0  0
  -27.4006  -29.7298   25.4711 H   0  0  0  0  0  0
  -27.8760  -30.4322   23.9430 H   0  0  0  0  0  0
  -27.2650  -33.3564   26.2204 H   0  0  0  0  0  0
  -28.3805  -32.6983   25.0329 H   0  0  0  0  0  0
  -28.0780  -31.8398   26.5349 H   0  0  0  0  0  0
  -28.2579  -38.0122   24.7493 H   0  0  0  0  0  0
  -28.1097  -36.2641   24.6253 H   0  0  0  0  0  0
  -27.2322  -37.1437   25.8866 H   0  0  0  0  0  0
  -20.9288  -29.8784   21.6845 H   0  0  0  0  0  0
  -26.0174  -38.2862   24.1404 H   0  0  0  0  0  0
  -32.0369  -16.5484   18.7122 H   0  0  0  0  0  0
  -32.5725  -18.7673   17.8681 H   0  0  0  0  0  0
  -28.7922  -18.2631   21.0296 H   0  0  0  0  0  0
  -27.7155  -23.1796   19.8461 H   0  0  0  0  0  0
  -31.1010  -21.4744   23.7340 H   0  0  0  0  0  0
  -29.9636  -20.4044   22.9357 H   0  0  0  0  0  0
  -29.3958  -21.8955   23.6898 H   0  0  0  0  0  0
  -28.0205  -20.5341   20.2926 H   0  0  0  0  0  0
  -28.8666  -21.2586   18.9754 H   0  0  0  0  0  0
  -28.6059  -24.3637   22.4559 H   0  0  0  0  0  0
  -27.2306  -24.8051   21.5034 H   0  0  0  0  0  0
  -30.7240  -23.2433   22.0392 H   0  0  0  0  0  0
  -31.3347  -21.7967   21.2973 H   0  0  0  0  0  0
  -30.0432  -25.6283   20.6847 H   0  0  0  0  0  0
  -29.1322  -26.5435   21.8512 H   0  0  0  0  0  0
  -28.9749  -15.7165   20.5827 H   0  0  0  0  0  0
  1 25  1  0  0  0
  1 30  2  0  0  0
  1 84  1  0  0  0
  2  3  1  0  0  0
  2 25  1  0  0  0
  2 86  1  0  0  0
  2 87  1  0  0  0
  3  4  1  0  0  0
  3 88  1  0  0  0
  3 89  1  0  0  0
  4  5  1  0  0  0
  4 90  1  0  0  0
  4 91  1  0  0  0
  5  6  1  0  0  0
  5 26  1  0  0  0
  5 92  1  0  0  0
  6 25  1  0  0  0
  6 93  1  0  0  0
  6 94  1  0  0  0
  7  8  2  0  0  0
  7 26  1  0  0  0
  7 29  1  0  0  0
  8  9  1  0  0  0
  8 22  1  0  0  0
  9 10  1  0  0  0
  9 27  2  0  0  0
 10 11  2  0  0  0
 10 15  1  0  0  0
 11 12  1  0  0  0
 11 95  1  0  0  0
 12 13  2  0  0  0
 12 96  1  0  0  0
 13 14  1  0  0  0
 13 31  1  0  0  0
 14 15  2  0  0  0
 14 97  1  0  0  0
 15 98  1  0  0  0
 16 17  2  0  0  0
 16 21  1  0  0  0
 16 31  1  0  0  0
 17 18  1  0  0  0
 17 99  1  0  0  0
 18 19  2  0  0  0
 18100  1  0  0  0
 19 20  1  0  0  0
 19 24  1  0  0  0
 20 21  2  0  0  0
 20101  1  0  0  0
 21 23  1  0  0  0
 22 28  1  0  0  0
 22 32  2  0  0  0
 26 27  1  0  0  0
 28102  1  0  0  0
 28103  1  0  0  0
 29104  1  0  0  0
 29105  1  0  0  0
 33 34  1  0  0  0
 33 66  1  0  0  0
 33 70  2  0  0  0
 34 36  1  0  0  0
 34 59  1  0  0  0
 34106  1  0  0  0
 35 44  2  0  0  0
 35 45  1  0  0  0
 35 68  1  0  0  0
 36 56  1  0  0  0
 36107  1  0  0  0
 37 39  1  0  0  0
 37 47  1  0  0  0
 37 66  1  0  0  0
 37108  1  0  0  0
 38 43  2  0  0  0
 38 46  1  0  0  0
 38 47  1  0  0  0
 39 64  1  0  0  0
 39 67  2  0  0  0
 40 52  1  0  0  0
 40 53  2  0  0  0
 40 58  1  0  0  0
 41109  1  0  0  0
 41110  1  0  0  0
 41111  1  0  0  0
 41 48  1  0  0  0
 42 43  1  0  0  0
 42 66  1  0  0  0
 42112  1  0  0  0
 42113  1  0  0  0
 43 44  1  0  0  0
 44114  1  0  0  0
 45 46  2  0  0  0
 45115  1  0  0  0
 46116  1  0  0  0
 47117  1  0  0  0
 47118  1  0  0  0
 48 56  1  0  0  0
 48 65  1  0  0  0
 48119  1  0  0  0
 49 50  1  0  0  0
 49 53  1  0  0  0
 49 64  1  0  0  0
 49120  1  0  0  0
 50 51  1  0  0  0
 50121  1  0  0  0
 50122  1  0  0  0
 51 52  1  0  0  0
 51123  1  0  0  0
 51124  1  0  0  0
 52125  1  0  0  0
 52126  1  0  0  0
 53 54  1  0  0  0
 54 55  2  0  0  0
 54127  1  0  0  0
 55 57  1  0  0  0
 55128  1  0  0  0
 56 69  2  0  0  0
 57 58  2  0  0  0
 57129  1  0  0  0
 58130  1  0  0  0
 59 60  1  0  0  0
 59 61  1  0  0  0
 59 62  1  0  0  0
 60131  1  0  0  0
 60132  1  0  0  0
 60133  1  0  0  0
 61134  1  0  0  0
 61135  1  0  0  0
 61136  1  0  0  0
 62137  1  0  0  0
 62138  1  0  0  0
 62139  1  0  0  0
 63 65  1  0  0  0
 63140  1  0  0  0
 63141  1  0  0  0
 63142  1  0  0  0
 64143  1  0  0  0
 65144  1  0  0  0
 68 83  1  0  0  0
 71 72  2  0  0  0
 71 75  1  0  0  0
 71145  1  0  0  0
 72 76  1  0  0  0
 72146  1  0  0  0
 73 74  1  0  0  0
 73 75  2  0  0  0
 73147  1  0  0  0
 74 76  2  0  0  0
 74 80  1  0  0  0
 75 84  1  0  0  0
 76 85  1  0  0  0
 77 78  2  0  0  0
 77 81  1  0  0  0
 77148  1  0  0  0
 78 80  1  0  0  0
 78 82  1  0  0  0
 79 82  1  0  0  0
 79149  1  0  0  0
 79150  1  0  0  0
 79151  1  0  0  0
 80152  1  0  0  0
 80153  1  0  0  0
 81 83  1  0  0  0
 81154  1  0  0  0
 81155  1  0  0  0
 82156  1  0  0  0
 82157  1  0  0  0
 83158  1  0  0  0
 83159  1  0  0  0
 84160  1  0  0  0
M  ISO  4   1 100  68 101  83 101  84 100
M  END
> <chiral flag>
0

> <version>
0

> <s_m_source_file>
/data/baiqing/PycharmProjects/Reinvent-master-3.2/result/LINK_invent/BTK/process_docking_weight1_custom_product_contain_oxygen_bond_distance_aromatic_linkinvent_7_9_3/rearranged_h_0135.sdf

> <i_m_source_file_index>
39

> <r_mmod_Potential_Energy-OPLS-2005>
107.412590026855

> <r_mmod_Stretch_Energy-OPLS-2005>
64.2964477539062

> <r_mmod_Bend_Energy-OPLS-2005>
152.876541137695

> <r_mmod_Torsional_Energy-OPLS-2005>
267.754852294922

> <r_mmod_Improper_Torsional_Energy-OPLS-2005>
8.85067272186279

> <r_mmod_Van_der_Waal_Energy-OPLS-2005>
134.152084350586

> <r_mmod_Electrostatic_Energy-OPLS-2005>
-375.037628173828

> <r_mmod_Solvation_Energy-OPLS-2005>
-195.514739990234

> <b_mmod_Minimization_Converged-OPLS-2005>
0

> <r_mmod_RMS_Derivative-OPLS-2005>
7.84001874923706

$$$$
39
                    3D
 Structure written by MMmdl.
165173  0  0  1  0            999 V2000
  -30.7312  -14.4773   20.5860 C   0  0  0  0  0  0
  -30.4182  -12.3175   19.4298 C   0  0  0  0  0  0
  -29.4942  -12.5091   18.2108 C   0  0  0  0  0  0
  -28.0175  -12.3623   18.6249 C   0  0  0  0  0  0
  -27.6606  -13.2131   19.8736 C   0  0  2  0  0  0
  -28.7031  -13.0202   20.9982 C   0  0  0  0  0  0
  -25.2587  -13.8179   20.5692 C   0  0  0  0  0  0
  -24.1840  -13.0448   20.9180 C   0  0  0  0  0  0
  -24.6399  -11.6914   20.8740 C   0  0  0  0  0  0
  -23.9063  -10.4295   21.0408 C   0  0  0  0  0  0
  -24.3614   -9.4209   21.9186 C   0  0  0  0  0  0
  -23.6287   -8.2245   22.0759 C   0  0  0  0  0  0
  -22.4270   -8.0282   21.3547 C   0  0  0  0  0  0
  -21.9905   -9.0257   20.4652 C   0  0  0  0  0  0
  -22.7235  -10.2136   20.3060 C   0  0  0  0  0  0
  -21.6853   -6.0733   22.5276 C   0  0  0  0  0  0
  -21.4016   -6.5637   23.8210 C   0  0  0  0  0  0
  -21.3661   -5.6793   24.9172 C   0  0  0  0  0  0
  -21.6048   -4.3055   24.7228 C   0  0  0  0  0  0
  -21.8817   -3.8145   23.4348 C   0  0  0  0  0  0
  -21.9192   -4.6959   22.3404 C   0  0  0  0  0  0
  -22.7862  -13.5249   21.1834 C   0  0  0  0  0  0
  -22.1659   -4.2144   21.0982 F   0  0  0  0  0  0
  -21.5628   -3.4540   25.7742 F   0  0  0  0  0  0
  -30.0339  -13.3155   20.4421 N   0  0  0  0  0  0
  -26.3026  -12.9359   20.3375 N   0  0  0  0  0  0
  -25.9333  -11.6511   20.5779 N   0  0  0  0  0  0
  -22.0496  -12.8252   22.0391 N   0  0  0  0  0  0
  -25.4312  -15.1894   20.4094 N   0  0  0  0  0  0
  -31.8465  -14.6419   20.0854 O   0  0  0  0  0  0
  -21.6636   -6.8877   21.4240 O   0  0  0  0  0  0
  -22.3552  -14.5551   20.6672 O   0  0  0  0  0  0
  -24.6182  -31.8686   23.2139 C   0  0  0  0  0  0
  -25.9071  -32.4825   23.8423 C   0  0  1  0  0  0
  -27.2042  -27.3827   20.1118 C   0  0  0  0  0  0
  -25.5922  -33.8625   24.2340 N   0  0  0  0  0  0
  -23.4073  -30.4973   21.5551 C   0  0  2  0  0  0
  -24.8519  -28.9727   20.1106 C   0  0  0  0  0  0
  -22.7426  -29.4669   22.4976 C   0  0  0  0  0  0
  -18.0287  -28.1373   22.8496 C   0  0  0  0  0  0
  -24.1488  -36.7314   23.2636 C   0  0  0  0  0  0
  -25.9449  -30.8150   21.3833 C   0  0  0  0  0  0
  -26.0152  -29.4476   20.7309 C   0  0  0  0  0  0
  -27.1953  -28.6564   20.7390 C   0  0  0  0  0  0
  -26.0478  -26.9896   19.4099 C   0  0  0  0  0  0
  -24.8650  -27.7416   19.4444 C   0  0  0  0  0  0
  -23.6179  -29.8438   20.1657 C   0  0  0  0  0  0
  -25.4110  -36.3114   24.0336 C   0  0  1  0  0  0
  -20.5876  -28.3675   23.1307 C   0  0  2  0  0  0
  -20.6783  -26.9411   22.5413 C   0  0  0  0  0  0
  -19.5757  -26.6387   21.5220 C   0  0  0  0  0  0
  -18.1938  -26.7917   22.1639 C   0  0  0  0  0  0
  -19.1534  -28.8839   23.2900 C   0  0  0  0  0  0
  -18.9456  -30.1443   23.8915 C   0  0  0  0  0  0
  -17.6459  -30.6578   24.0566 C   0  0  0  0  0  0
  -25.9043  -34.9477   23.5134 C   0  0  0  0  0  0
  -16.5352  -29.9078   23.6327 C   0  0  0  0  0  0
  -16.7280  -28.6494   23.0353 C   0  0  0  0  0  0
  -26.4481  -31.6608   25.0758 C   0  0  0  0  0  0
  -25.3733  -31.3727   26.1495 C   0  0  0  0  0  0
  -27.0309  -30.3039   24.6166 C   0  0  0  0  0  0
  -27.6059  -32.4322   25.7515 C   0  0  0  0  0  0
  -27.5580  -37.1817   24.8465 C   0  0  0  0  0  0
  -21.4150  -29.3051   22.3715 N   0  0  0  0  0  0
  -26.4297  -37.3797   23.9406 N   0  0  0  0  0  0
  -24.6748  -31.0753   22.1076 N   0  0  0  0  0  0
  -23.4182  -28.8197   23.3019 O   0  0  0  0  0  0
  -28.3203  -26.5583   20.1061 O   0  0  0  0  0  0
  -26.5597  -34.8925   22.4688 O   0  0  0  0  0  0
  -23.5361  -32.1462   23.7500 O   0  0  0  0  0  0
  -29.9286  -19.2847   20.9998 C   0  0  0  0  0  0
  -28.7911  -20.1713   21.0449 C   0  0  0  0  0  0
  -29.6810  -17.9734   21.3524 C   0  0  0  0  0  0
  -27.6640  -19.4677   21.4545 C   0  0  0  0  0  0
  -26.2400  -19.8863   21.6483 C   0  0  0  0  0  0
  -31.3087  -16.8326   22.8834 C   0  0  0  0  0  0
  -25.9897  -24.2558   20.6740 C   0  0  0  0  0  0
  -27.7702  -23.8702   18.8615 C   0  0  0  0  0  0
  -28.9268  -21.6525   20.6160 C   0  0  0  0  0  0
  -27.8374  -22.6676   21.1013 C   0  0  0  0  0  0
  -28.3035  -25.3159   20.8910 C   0  0  0  0  0  0
  -30.6703  -16.8307   21.4860 C   0  0  2  0  0  0
  -27.5097  -24.0431   20.3755 C   0  0  0  0  0  0
  -30.1062  -15.4863   21.2270 N   0  0  0  0  0  0
  -28.0137  -17.7853   21.7828 S   0  0  0  0  0  0
  -31.4641  -12.4020   19.1293 H   0  0  0  0  0  0
  -30.3097  -11.3121   19.8390 H   0  0  0  0  0  0
  -29.7395  -11.7843   17.4332 H   0  0  0  0  0  0
  -29.6589  -13.4954   17.7742 H   0  0  0  0  0  0
  -27.8354  -11.3067   18.8320 H   0  0  0  0  0  0
  -27.3638  -12.6235   17.7922 H   0  0  0  0  0  0
  -27.6989  -14.2576   19.5634 H   0  0  0  0  0  0
  -28.6799  -11.9932   21.3656 H   0  0  0  0  0  0
  -28.4616  -13.6439   21.8592 H   0  0  0  0  0  0
  -25.2762   -9.5680   22.4755 H   0  0  0  0  0  0
  -23.9991   -7.4644   22.7487 H   0  0  0  0  0  0
  -21.0830   -8.8783   19.8966 H   0  0  0  0  0  0
  -22.3698  -10.9673   19.6167 H   0  0  0  0  0  0
  -21.2007   -7.6146   23.9711 H   0  0  0  0  0  0
  -21.1487   -6.0524   25.9076 H   0  0  0  0  0  0
  -22.0594   -2.7606   23.2853 H   0  0  0  0  0  0
  -22.4097  -11.9911   22.4786 H   0  0  0  0  0  0
  -21.1124  -13.1301   22.2600 H   0  0  0  0  0  0
  -24.6677  -15.8471   20.5204 H   0  0  0  0  0  0
  -26.2885  -15.6273   20.0966 H   0  0  0  0  0  0
  -26.7140  -32.5520   23.1181 H   0  0  0  0  0  0
  -25.0083  -33.9792   25.0492 H   0  0  0  0  0  0
  -22.6972  -31.3160   21.4212 H   0  0  0  0  0  0
  -23.3747  -35.9652   23.3314 H   0  0  0  0  0  0
  -24.3581  -36.8912   22.2048 H   0  0  0  0  0  0
  -23.7243  -37.6527   23.6635 H   0  0  0  0  0  0
  -26.0699  -31.5788   20.6142 H   0  0  0  0  0  0
  -26.8293  -30.8627   22.0069 H   0  0  0  0  0  0
  -28.0869  -29.0104   21.2375 H   0  0  0  0  0  0
  -26.0291  -26.0810   18.8379 H   0  0  0  0  0  0
  -23.9844  -27.3842   18.9289 H   0  0  0  0  0  0
  -23.7330  -30.6253   19.4141 H   0  0  0  0  0  0
  -22.7401  -29.2709   19.8612 H   0  0  0  0  0  0
  -25.1286  -36.1986   25.0830 H   0  0  0  0  0  0
  -20.9963  -28.3237   24.1429 H   0  0  0  0  0  0
  -20.5700  -26.2283   23.3603 H   0  0  0  0  0  0
  -21.6653  -26.7458   22.1203 H   0  0  0  0  0  0
  -19.6928  -25.6302   21.1240 H   0  0  0  0  0  0
  -19.6689  -27.3204   20.6757 H   0  0  0  0  0  0
  -17.4207  -26.6654   21.4047 H   0  0  0  0  0  0
  -18.0352  -26.0057   22.9035 H   0  0  0  0  0  0
  -19.7932  -30.7258   24.2287 H   0  0  0  0  0  0
  -17.5016  -31.6261   24.5162 H   0  0  0  0  0  0
  -15.5353  -30.2981   23.7641 H   0  0  0  0  0  0
  -15.8681  -28.0815   22.7059 H   0  0  0  0  0  0
  -24.5914  -30.7067   25.7829 H   0  0  0  0  0  0
  -24.8919  -32.2886   26.4927 H   0  0  0  0  0  0
  -25.8077  -30.8906   27.0262 H   0  0  0  0  0  0
  -26.2869  -29.6815   24.1182 H   0  0  0  0  0  0
  -27.4016  -29.7264   25.4645 H   0  0  0  0  0  0
  -27.8738  -30.4341   23.9375 H   0  0  0  0  0  0
  -27.2685  -33.3614   26.2118 H   0  0  0  0  0  0
  -28.3854  -32.6893   25.0332 H   0  0  0  0  0  0
  -28.0743  -31.8430   26.5409 H   0  0  0  0  0  0
  -28.2611  -38.0101   24.7502 H   0  0  0  0  0  0
  -28.1063  -36.2634   24.6306 H   0  0  0  0  0  0
  -27.2296  -37.1487   25.8868 H   0  0  0  0  0  0
  -20.9307  -29.8792   21.6955 H   0  0  0  0  0  0
  -26.0187  -38.2879   24.1399 H   0  0  0  0  0  0
  -30.9049  -19.6462   20.7074 H   0  0  0  0  0  0
  -25.8013  -20.2470   20.7177 H   0  0  0  0  0  0
  -26.1535  -20.6583   22.4128 H   0  0  0  0  0  0
  -25.6249  -19.0484   21.9779 H   0  0  0  0  0  0
  -30.5615  -16.6854   23.6642 H   0  0  0  0  0  0
  -31.8103  -17.7803   23.0820 H   0  0  0  0  0  0
  -32.0548  -16.0434   22.9840 H   0  0  0  0  0  0
  -25.5633  -23.5466   21.3841 H   0  0  0  0  0  0
  -25.3769  -24.1808   19.7757 H   0  0  0  0  0  0
  -25.7843  -25.2098   21.1543 H   0  0  0  0  0  0
  -27.2228  -23.0191   18.4551 H   0  0  0  0  0  0
  -28.8307  -23.7126   18.6637 H   0  0  0  0  0  0
  -27.4961  -24.7412   18.2731 H   0  0  0  0  0  0
  -28.9555  -21.6507   19.5286 H   0  0  0  0  0  0
  -29.9014  -22.0358   20.9200 H   0  0  0  0  0  0
  -26.9441  -22.0952   20.9137 H   0  0  0  0  0  0
  -27.8940  -22.8000   22.1824 H   0  0  0  0  0  0
  -29.3509  -25.0265   20.9823 H   0  0  0  0  0  0
  -27.9945  -25.5551   21.9100 H   0  0  0  0  0  0
  -31.4686  -17.0170   20.7643 H   0  0  0  0  0  0
  -29.1818  -15.2955   21.5814 H   0  0  0  0  0  0
  1 25  1  0  0  0
  1 30  2  0  0  0
  1 84  1  0  0  0
  2  3  1  0  0  0
  2 25  1  0  0  0
  2 86  1  0  0  0
  2 87  1  0  0  0
  3  4  1  0  0  0
  3 88  1  0  0  0
  3 89  1  0  0  0
  4  5  1  0  0  0
  4 90  1  0  0  0
  4 91  1  0  0  0
  5  6  1  0  0  0
  5 26  1  0  0  0
  5 92  1  0  0  0
  6 25  1  0  0  0
  6 93  1  0  0  0
  6 94  1  0  0  0
  7  8  2  0  0  0
  7 26  1  0  0  0
  7 29  1  0  0  0
  8  9  1  0  0  0
  8 22  1  0  0  0
  9 10  1  0  0  0
  9 27  2  0  0  0
 10 11  2  0  0  0
 10 15  1  0  0  0
 11 12  1  0  0  0
 11 95  1  0  0  0
 12 13  2  0  0  0
 12 96  1  0  0  0
 13 14  1  0  0  0
 13 31  1  0  0  0
 14 15  2  0  0  0
 14 97  1  0  0  0
 15 98  1  0  0  0
 16 17  2  0  0  0
 16 21  1  0  0  0
 16 31  1  0  0  0
 17 18  1  0  0  0
 17 99  1  0  0  0
 18 19  2  0  0  0
 18100  1  0  0  0
 19 20  1  0  0  0
 19 24  1  0  0  0
 20 21  2  0  0  0
 20101  1  0  0  0
 21 23  1  0  0  0
 22 28  1  0  0  0
 22 32  2  0  0  0
 26 27  1  0  0  0
 28102  1  0  0  0
 28103  1  0  0  0
 29104  1  0  0  0
 29105  1  0  0  0
 33 34  1  0  0  0
 33 66  1  0  0  0
 33 70  2  0  0  0
 34 36  1  0  0  0
 34 59  1  0  0  0
 34106  1  0  0  0
 35 44  2  0  0  0
 35 45  1  0  0  0
 35 68  1  0  0  0
 36 56  1  0  0  0
 36107  1  0  0  0
 37 39  1  0  0  0
 37 47  1  0  0  0
 37 66  1  0  0  0
 37108  1  0  0  0
 38 43  2  0  0  0
 38 46  1  0  0  0
 38 47  1  0  0  0
 39 64  1  0  0  0
 39 67  2  0  0  0
 40 52  1  0  0  0
 40 53  2  0  0  0
 40 58  1  0  0  0
 41109  1  0  0  0
 41110  1  0  0  0
 41111  1  0  0  0
 41 48  1  0  0  0
 42 43  1  0  0  0
 42 66  1  0  0  0
 42112  1  0  0  0
 42113  1  0  0  0
 43 44  1  0  0  0
 44114  1  0  0  0
 45 46  2  0  0  0
 45115  1  0  0  0
 46116  1  0  0  0
 47117  1  0  0  0
 47118  1  0  0  0
 48 56  1  0  0  0
 48 65  1  0  0  0
 48119  1  0  0  0
 49 50  1  0  0  0
 49 53  1  0  0  0
 49 64  1  0  0  0
 49120  1  0  0  0
 50 51  1  0  0  0
 50121  1  0  0  0
 50122  1  0  0  0
 51 52  1  0  0  0
 51123  1  0  0  0
 51124  1  0  0  0
 52125  1  0  0  0
 52126  1  0  0  0
 53 54  1  0  0  0
 54 55  2  0  0  0
 54127  1  0  0  0
 55 57  1  0  0  0
 55128  1  0  0  0
 56 69  2  0  0  0
 57 58  2  0  0  0
 57129  1  0  0  0
 58130  1  0  0  0
 59 60  1  0  0  0
 59 61  1  0  0  0
 59 62  1  0  0  0
 60131  1  0  0  0
 60132  1  0  0  0
 60133  1  0  0  0
 61134  1  0  0  0
 61135  1  0  0  0
 61136  1  0  0  0
 62137  1  0  0  0
 62138  1  0  0  0
 62139  1  0  0  0
 63 65  1  0  0  0
 63140  1  0  0  0
 63141  1  0  0  0
 63142  1  0  0  0
 64143  1  0  0  0
 65144  1  0  0  0
 68 81  1  0  0  0
 71 72  1  0  0  0
 71 73  2  0  0  0
 71145  1  0  0  0
 72 74  2  0  0  0
 72 79  1  0  0  0
 73 82  1  0  0  0
 73 85  1  0  0  0
 74 75  1  0  0  0
 74 85  1  0  0  0
 75146  1  0  0  0
 75147  1  0  0  0
 75148  1  0  0  0
 76149  1  0  0  0
 76150  1  0  0  0
 76151  1  0  0  0
 76 82  1  0  0  0
 77152  1  0  0  0
 77153  1  0  0  0
 77154  1  0  0  0
 77 83  1  0  0  0
 78 83  1  0  0  0
 78155  1  0  0  0
 78156  1  0  0  0
 78157  1  0  0  0
 79 80  1  0  0  0
 79158  1  0  0  0
 79159  1  0  0  0
 80 83  1  0  0  0
 80160  1  0  0  0
 80161  1  0  0  0
 81 83  1  0  0  0
 81162  1  0  0  0
 81163  1  0  0  0
 82 84  1  0  0  0
 82164  1  0  0  0
 84165  1  0  0  0
M  ISO  4   1 100  68 101  81 101  84 100
M  END
> <chiral flag>
0

> <version>
0

> <s_m_source_file>
/data/baiqing/PycharmProjects/Reinvent-master-3.2/result/LINK_invent/BTK/process_docking_weight1_custom_product_contain_oxygen_bond_distance_aromatic_linkinvent_7_9_3/rearranged_h_0135.sdf

> <i_m_source_file_index>
40

> <r_mmod_Potential_Energy-OPLS-2005>
12.9132471084595

> <r_mmod_Stretch_Energy-OPLS-2005>
55.2856750488281

> <r_mmod_Bend_Energy-OPLS-2005>
154.403396606445

> <r_mmod_Torsional_Energy-OPLS-2005>
226.309906005859

> <r_mmod_Improper_Torsional_Energy-OPLS-2005>
2.66029477119446

> <r_mmod_Van_der_Waal_Energy-OPLS-2005>
146.933364868164

> <r_mmod_Electrostatic_Energy-OPLS-2005>
-408.867767333984

> <r_mmod_Solvation_Energy-OPLS-2005>
-185.390548706055

> <b_mmod_Minimization_Converged-OPLS-2005>
0

> <r_mmod_RMS_Derivative-OPLS-2005>
0.85415256023407

$$$$
40
                    3D
 Structure written by MMmdl.
154163  0  0  1  0            999 V2000
  -30.6732  -14.5215   20.5381 C   0  0  0  0  0  0
  -30.4217  -12.3268   19.4312 C   0  0  0  0  0  0
  -29.4945  -12.4947   18.2087 C   0  0  0  0  0  0
  -28.0152  -12.3552   18.6201 C   0  0  0  0  0  0
  -27.6547  -13.2078   19.8660 C   0  0  2  0  0  0
  -28.6971  -13.0198   20.9910 C   0  0  0  0  0  0
  -25.2562  -13.8160   20.5656 C   0  0  0  0  0  0
  -24.1827  -13.0440   20.9185 C   0  0  0  0  0  0
  -24.6384  -11.6907   20.8747 C   0  0  0  0  0  0
  -23.9056  -10.4295   21.0414 C   0  0  0  0  0  0
  -24.3610   -9.4210   21.9191 C   0  0  0  0  0  0
  -23.6292   -8.2240   22.0755 C   0  0  0  0  0  0
  -22.4276   -8.0277   21.3541 C   0  0  0  0  0  0
  -21.9908   -9.0251   20.4644 C   0  0  0  0  0  0
  -22.7230  -10.2137   20.3061 C   0  0  0  0  0  0
  -21.6852   -6.0737   22.5280 C   0  0  0  0  0  0
  -21.4010   -6.5643   23.8212 C   0  0  0  0  0  0
  -21.3654   -5.6797   24.9175 C   0  0  0  0  0  0
  -21.6043   -4.3060   24.7226 C   0  0  0  0  0  0
  -21.8820   -3.8150   23.4347 C   0  0  0  0  0  0
  -21.9192   -4.6966   22.3404 C   0  0  0  0  0  0
  -22.7852  -13.5241   21.1847 C   0  0  0  0  0  0
  -22.1663   -4.2149   21.0983 F   0  0  0  0  0  0
  -21.5627   -3.4545   25.7738 F   0  0  0  0  0  0
  -30.0204  -13.3310   20.4299 N   0  0  0  0  0  0
  -26.2985  -12.9327   20.3317 N   0  0  0  0  0  0
  -25.9306  -11.6492   20.5760 N   0  0  0  0  0  0
  -22.0497  -12.8228   22.0403 N   0  0  0  0  0  0
  -25.4302  -15.1873   20.4013 N   0  0  0  0  0  0
  -31.8316  -14.6691   20.1347 O   0  0  0  0  0  0
  -21.6639   -6.8875   21.4241 O   0  0  0  0  0  0
  -22.3542  -14.5551   20.6700 O   0  0  0  0  0  0
  -24.6171  -31.8656   23.2062 C   0  0  0  0  0  0
  -25.9048  -32.4816   23.8370 C   0  0  1  0  0  0
  -27.2322  -27.3993   20.1128 C   0  0  0  0  0  0
  -25.5887  -33.8613   24.2296 N   0  0  0  0  0  0
  -23.4081  -30.4859   21.5479 C   0  0  2  0  0  0
  -24.8574  -28.9438   20.1175 C   0  0  0  0  0  0
  -22.7435  -29.4636   22.4977 C   0  0  0  0  0  0
  -18.0275  -28.1375   22.8495 C   0  0  0  0  0  0
  -24.1488  -36.7312   23.2633 C   0  0  0  0  0  0
  -25.9390  -30.8189   21.3662 C   0  0  0  0  0  0
  -26.0188  -29.4489   20.7171 C   0  0  0  0  0  0
  -27.2125  -28.6839   20.7122 C   0  0  0  0  0  0
  -26.0583  -26.9161   19.5028 C   0  0  0  0  0  0
  -24.8729  -27.6773   19.5063 C   0  0  0  0  0  0
  -23.6204  -29.8145   20.1644 C   0  0  0  0  0  0
  -25.4107  -36.3108   24.0333 C   0  0  1  0  0  0
  -20.5864  -28.3667   23.1307 C   0  0  2  0  0  0
  -20.6768  -26.9403   22.5413 C   0  0  0  0  0  0
  -19.5749  -26.6382   21.5220 C   0  0  0  0  0  0
  -18.1922  -26.7925   22.1627 C   0  0  0  0  0  0
  -19.1525  -28.8837   23.2894 C   0  0  0  0  0  0
  -18.9457  -30.1437   23.8914 C   0  0  0  0  0  0
  -17.6463  -30.6588   24.0558 C   0  0  0  0  0  0
  -25.9037  -34.9477   23.5118 C   0  0  0  0  0  0
  -16.5354  -29.9090   23.6314 C   0  0  0  0  0  0
  -16.7266  -28.6496   23.0349 C   0  0  0  0  0  0
  -26.4464  -31.6608   25.0713 C   0  0  0  0  0  0
  -25.3720  -31.3748   26.1463 C   0  0  0  0  0  0
  -27.0267  -30.3034   24.6106 C   0  0  0  0  0  0
  -27.6054  -32.4307   25.7462 C   0  0  0  0  0  0
  -27.5592  -37.1797   24.8451 C   0  0  0  0  0  0
  -21.4159  -29.3031   22.3722 N   0  0  0  0  0  0
  -26.4294  -37.3795   23.9414 N   0  0  0  0  0  0
  -24.6729  -31.0710   22.0989 N   0  0  0  0  0  0
  -23.4192  -28.8182   23.3034 O   0  0  0  0  0  0
  -28.3690  -26.6139   20.0885 O   0  0  0  0  0  0
  -26.5609  -34.8936   22.4685 O   0  0  0  0  0  0
  -23.5355  -32.1435   23.7428 O   0  0  0  0  0  0
  -31.5123  -18.8817   21.2497 C   0  0  0  0  0  0
  -31.4941  -17.4537   21.2135 C   0  0  0  0  0  0
  -30.2915  -19.4771   21.0441 C   0  0  0  0  0  0
  -30.2545  -16.9042   20.9822 C   0  0  0  0  0  0
  -29.0843  -23.0660   20.8828 C   0  0  0  0  0  0
  -28.2848  -24.1198   20.5605 C   0  0  0  0  0  0
  -30.3322  -23.1546   21.7332 C   0  0  0  0  0  0
  -28.8824  -21.5883   20.5119 C   0  0  0  0  0  0
  -31.0378  -21.8054   21.5728 C   0  0  0  0  0  0
  -28.4241  -25.5663   21.0842 C   0  0  0  0  0  0
  -30.0350  -20.8731   21.0763 N   0  0  0  0  0  0
  -29.9088  -15.5757   20.9254 N   0  0  0  0  0  0
  -29.0807  -18.2202   20.7926 S   0  0  0  0  0  0
  -31.4661  -12.4276   19.1317 H   0  0  0  0  0  0
  -30.3277  -11.3237   19.8493 H   0  0  0  0  0  0
  -29.7391  -11.7544   17.4453 H   0  0  0  0  0  0
  -29.6568  -13.4712   17.7495 H   0  0  0  0  0  0
  -27.8284  -11.3010   18.8270 H   0  0  0  0  0  0
  -27.3656  -12.6173   17.7843 H   0  0  0  0  0  0
  -27.6889  -14.2497   19.5481 H   0  0  0  0  0  0
  -28.6828  -11.9918   21.3550 H   0  0  0  0  0  0
  -28.4601  -13.6417   21.8554 H   0  0  0  0  0  0
  -25.2757   -9.5686   22.4758 H   0  0  0  0  0  0
  -24.0003   -7.4632   22.7477 H   0  0  0  0  0  0
  -21.0837   -8.8769   19.8948 H   0  0  0  0  0  0
  -22.3692  -10.9673   19.6168 H   0  0  0  0  0  0
  -21.2004   -7.6152   23.9710 H   0  0  0  0  0  0
  -21.1473   -6.0531   25.9074 H   0  0  0  0  0  0
  -22.0603   -2.7613   23.2852 H   0  0  0  0  0  0
  -22.4119  -11.9890   22.4785 H   0  0  0  0  0  0
  -21.1111  -13.1240   22.2610 H   0  0  0  0  0  0
  -24.6621  -15.8429   20.4937 H   0  0  0  0  0  0
  -26.2718  -15.6148   20.0355 H   0  0  0  0  0  0
  -26.7119  -32.5524   23.1134 H   0  0  0  0  0  0
  -25.0022  -33.9760   25.0434 H   0  0  0  0  0  0
  -22.6988  -31.3034   21.4052 H   0  0  0  0  0  0
  -23.3775  -35.9617   23.3260 H   0  0  0  0  0  0
  -24.3595  -36.8964   22.2053 H   0  0  0  0  0  0
  -23.7214  -37.6492   23.6684 H   0  0  0  0  0  0
  -26.0506  -31.5823   20.5948 H   0  0  0  0  0  0
  -26.8257  -30.8763   21.9860 H   0  0  0  0  0  0
  -28.1096  -29.0675   21.1782 H   0  0  0  0  0  0
  -26.0628  -25.9457   19.0274 H   0  0  0  0  0  0
  -23.9811  -27.2828   19.0392 H   0  0  0  0  0  0
  -23.7320  -30.5885   19.4040 H   0  0  0  0  0  0
  -22.7445  -29.2345   19.8684 H   0  0  0  0  0  0
  -25.1285  -36.1966   25.0826 H   0  0  0  0  0  0
  -20.9942  -28.3246   24.1431 H   0  0  0  0  0  0
  -20.5688  -26.2280   23.3606 H   0  0  0  0  0  0
  -21.6636  -26.7455   22.1197 H   0  0  0  0  0  0
  -19.6915  -25.6301   21.1234 H   0  0  0  0  0  0
  -19.6686  -27.3200   20.6759 H   0  0  0  0  0  0
  -17.4192  -26.6660   21.4034 H   0  0  0  0  0  0
  -18.0322  -26.0072   22.9020 H   0  0  0  0  0  0
  -19.7938  -30.7227   24.2314 H   0  0  0  0  0  0
  -17.5026  -31.6275   24.5148 H   0  0  0  0  0  0
  -15.5352  -30.2997   23.7640 H   0  0  0  0  0  0
  -15.8663  -28.0823   22.7066 H   0  0  0  0  0  0
  -24.5814  -30.7205   25.7783 H   0  0  0  0  0  0
  -24.9017  -32.2932   26.4990 H   0  0  0  0  0  0
  -25.8033  -30.8819   27.0181 H   0  0  0  0  0  0
  -26.2802  -29.6812   24.1161 H   0  0  0  0  0  0
  -27.4012  -29.7265   25.4569 H   0  0  0  0  0  0
  -27.8660  -30.4322   23.9266 H   0  0  0  0  0  0
  -27.2715  -33.3633   26.2019 H   0  0  0  0  0  0
  -28.3881  -32.6807   25.0290 H   0  0  0  0  0  0
  -28.0698  -31.8428   26.5388 H   0  0  0  0  0  0
  -28.2570  -38.0135   24.7560 H   0  0  0  0  0  0
  -28.1126  -36.2666   24.6201 H   0  0  0  0  0  0
  -27.2311  -37.1344   25.8850 H   0  0  0  0  0  0
  -20.9335  -29.8768   21.6948 H   0  0  0  0  0  0
  -26.0188  -38.2864   24.1463 H   0  0  0  0  0  0
  -32.4348  -19.4138   21.4329 H   0  0  0  0  0  0
  -32.4012  -16.8879   21.3739 H   0  0  0  0  0  0
  -27.4039  -23.9328   19.9648 H   0  0  0  0  0  0
  -30.0350  -23.2996   22.7725 H   0  0  0  0  0  0
  -30.9782  -23.9840   21.4416 H   0  0  0  0  0  0
  -28.8380  -21.4670   19.4285 H   0  0  0  0  0  0
  -27.9486  -21.2174   20.9376 H   0  0  0  0  0  0
  -31.4705  -21.4709   22.5175 H   0  0  0  0  0  0
  -31.8466  -21.8822   20.8436 H   0  0  0  0  0  0
  -29.3735  -25.6766   21.6069 H   0  0  0  0  0  0
  -27.6554  -25.7168   21.8452 H   0  0  0  0  0  0
  -28.9414  -15.3543   21.1086 H   0  0  0  0  0  0
  1 25  1  0  0  0
  1 30  2  0  0  0
  1 82  1  0  0  0
  2  3  1  0  0  0
  2 25  1  0  0  0
  2 84  1  0  0  0
  2 85  1  0  0  0
  3  4  1  0  0  0
  3 86  1  0  0  0
  3 87  1  0  0  0
  4  5  1  0  0  0
  4 88  1  0  0  0
  4 89  1  0  0  0
  5  6  1  0  0  0
  5 26  1  0  0  0
  5 90  1  0  0  0
  6 25  1  0  0  0
  6 91  1  0  0  0
  6 92  1  0  0  0
  7  8  2  0  0  0
  7 26  1  0  0  0
  7 29  1  0  0  0
  8  9  1  0  0  0
  8 22  1  0  0  0
  9 10  1  0  0  0
  9 27  2  0  0  0
 10 11  2  0  0  0
 10 15  1  0  0  0
 11 12  1  0  0  0
 11 93  1  0  0  0
 12 13  2  0  0  0
 12 94  1  0  0  0
 13 14  1  0  0  0
 13 31  1  0  0  0
 14 15  2  0  0  0
 14 95  1  0  0  0
 15 96  1  0  0  0
 16 17  2  0  0  0
 16 21  1  0  0  0
 16 31  1  0  0  0
 17 18  1  0  0  0
 17 97  1  0  0  0
 18 19  2  0  0  0
 18 98  1  0  0  0
 19 20  1  0  0  0
 19 24  1  0  0  0
 20 21  2  0  0  0
 20 99  1  0  0  0
 21 23  1  0  0  0
 22 28  1  0  0  0
 22 32  2  0  0  0
 26 27  1  0  0  0
 28100  1  0  0  0
 28101  1  0  0  0
 29102  1  0  0  0
 29103  1  0  0  0
 33 34  1  0  0  0
 33 66  1  0  0  0
 33 70  2  0  0  0
 34 36  1  0  0  0
 34 59  1  0  0  0
 34104  1  0  0  0
 35 44  2  0  0  0
 35 45  1  0  0  0
 35 68  1  0  0  0
 36 56  1  0  0  0
 36105  1  0  0  0
 37 39  1  0  0  0
 37 47  1  0  0  0
 37 66  1  0  0  0
 37106  1  0  0  0
 38 43  2  0  0  0
 38 46  1  0  0  0
 38 47  1  0  0  0
 39 64  1  0  0  0
 39 67  2  0  0  0
 40 52  1  0  0  0
 40 53  2  0  0  0
 40 58  1  0  0  0
 41107  1  0  0  0
 41108  1  0  0  0
 41109  1  0  0  0
 41 48  1  0  0  0
 42 43  1  0  0  0
 42 66  1  0  0  0
 42110  1  0  0  0
 42111  1  0  0  0
 43 44  1  0  0  0
 44112  1  0  0  0
 45 46  2  0  0  0
 45113  1  0  0  0
 46114  1  0  0  0
 47115  1  0  0  0
 47116  1  0  0  0
 48 56  1  0  0  0
 48 65  1  0  0  0
 48117  1  0  0  0
 49 50  1  0  0  0
 49 53  1  0  0  0
 49 64  1  0  0  0
 49118  1  0  0  0
 50 51  1  0  0  0
 50119  1  0  0  0
 50120  1  0  0  0
 51 52  1  0  0  0
 51121  1  0  0  0
 51122  1  0  0  0
 52123  1  0  0  0
 52124  1  0  0  0
 53 54  1  0  0  0
 54 55  2  0  0  0
 54125  1  0  0  0
 55 57  1  0  0  0
 55126  1  0  0  0
 56 69  2  0  0  0
 57 58  2  0  0  0
 57127  1  0  0  0
 58128  1  0  0  0
 59 60  1  0  0  0
 59 61  1  0  0  0
 59 62  1  0  0  0
 60129  1  0  0  0
 60130  1  0  0  0
 60131  1  0  0  0
 61132  1  0  0  0
 61133  1  0  0  0
 61134  1  0  0  0
 62135  1  0  0  0
 62136  1  0  0  0
 62137  1  0  0  0
 63 65  1  0  0  0
 63138  1  0  0  0
 63139  1  0  0  0
 63140  1  0  0  0
 64141  1  0  0  0
 65142  1  0  0  0
 68 80  1  0  0  0
 71 72  1  0  0  0
 71 73  2  0  0  0
 71143  1  0  0  0
 72 74  2  0  0  0
 72144  1  0  0  0
 73 81  1  0  0  0
 73 83  1  0  0  0
 74 82  1  0  0  0
 74 83  1  0  0  0
 75 76  2  0  0  0
 75 77  1  0  0  0
 75 78  1  0  0  0
 76 80  1  0  0  0
 76145  1  0  0  0
 77 79  1  0  0  0
 77146  1  0  0  0
 77147  1  0  0  0
 78 81  1  0  0  0
 78148  1  0  0  0
 78149  1  0  0  0
 79 81  1  0  0  0
 79150  1  0  0  0
 79151  1  0  0  0
 80152  1  0  0  0
 80153  1  0  0  0
 82154  1  0  0  0
M  ISO  4   1 100  68 101  80 101  82 100
M  END
> <chiral flag>
0

> <version>
0

> <s_m_source_file>
/data/baiqing/PycharmProjects/Reinvent-master-3.2/result/LINK_invent/BTK/process_docking_weight1_custom_product_contain_oxygen_bond_distance_aromatic_linkinvent_7_9_3/rearranged_h_0135.sdf

> <i_m_source_file_index>
41

> <r_mmod_Potential_Energy-OPLS-2005>
11.5130167007446

> <r_mmod_Stretch_Energy-OPLS-2005>
42.5873870849609

> <r_mmod_Bend_Energy-OPLS-2005>
138.079864501953

> <r_mmod_Torsional_Energy-OPLS-2005>
257.235992431641

> <r_mmod_Improper_Torsional_Energy-OPLS-2005>
4.9262752532959

> <r_mmod_Van_der_Waal_Energy-OPLS-2005>
123.875686645508

> <r_mmod_Electrostatic_Energy-OPLS-2005>
-349.506500244141

> <r_mmod_Solvation_Energy-OPLS-2005>
-225.790390014648

> <b_mmod_Minimization_Converged-OPLS-2005>
0

> <r_mmod_RMS_Derivative-OPLS-2005>
1.5241733789444

$$$$
41
                    3D
 Structure written by MMmdl.
161170  0  0  1  0            999 V2000
  -30.7233  -14.4292   20.6203 C   0  0  0  0  0  0
  -30.4193  -12.2909   19.4311 C   0  0  0  0  0  0
  -29.4991  -12.5039   18.2130 C   0  0  0  0  0  0
  -28.0199  -12.3611   18.6227 C   0  0  0  0  0  0
  -27.6641  -13.2023   19.8785 C   0  0  2  0  0  0
  -28.6990  -12.9739   21.0039 C   0  0  0  0  0  0
  -25.2607  -13.8155   20.5671 C   0  0  0  0  0  0
  -24.1842  -13.0446   20.9172 C   0  0  0  0  0  0
  -24.6378  -11.6907   20.8729 C   0  0  0  0  0  0
  -23.9045  -10.4297   21.0408 C   0  0  0  0  0  0
  -24.3595   -9.4214   21.9183 C   0  0  0  0  0  0
  -23.6276   -8.2244   22.0746 C   0  0  0  0  0  0
  -22.4259   -8.0277   21.3540 C   0  0  0  0  0  0
  -21.9903   -9.0245   20.4635 C   0  0  0  0  0  0
  -22.7225  -10.2132   20.3048 C   0  0  0  0  0  0
  -21.6842   -6.0728   22.5280 C   0  0  0  0  0  0
  -21.4007   -6.5632   23.8213 C   0  0  0  0  0  0
  -21.3669   -5.6781   24.9173 C   0  0  0  0  0  0
  -21.6048   -4.3046   24.7218 C   0  0  0  0  0  0
  -21.8815   -3.8142   23.4338 C   0  0  0  0  0  0
  -21.9187   -4.6961   22.3395 C   0  0  0  0  0  0
  -22.7870  -13.5261   21.1834 C   0  0  0  0  0  0
  -22.1655   -4.2155   21.0970 F   0  0  0  0  0  0
  -21.5640   -3.4525   25.7727 F   0  0  0  0  0  0
  -30.0366  -13.2680   20.4613 N   0  0  0  0  0  0
  -26.3027  -12.9307   20.3362 N   0  0  0  0  0  0
  -25.9300  -11.6472   20.5761 N   0  0  0  0  0  0
  -22.0478  -12.8253   22.0363 N   0  0  0  0  0  0
  -25.4369  -15.1855   20.4058 N   0  0  0  0  0  0
  -31.8169  -14.6413   20.0869 O   0  0  0  0  0  0
  -21.6625   -6.8874   21.4242 O   0  0  0  0  0  0
  -22.3573  -14.5585   20.6699 O   0  0  0  0  0  0
  -24.6168  -31.8671   23.2107 C   0  0  0  0  0  0
  -25.9057  -32.4812   23.8418 C   0  0  1  0  0  0
  -27.2414  -27.4443   20.1023 C   0  0  0  0  0  0
  -25.5928  -33.8612   24.2360 N   0  0  0  0  0  0
  -23.4057  -30.4910   21.5487 C   0  0  2  0  0  0
  -24.8547  -28.9573   20.1137 C   0  0  0  0  0  0
  -22.7432  -29.4647   22.4963 C   0  0  0  0  0  0
  -18.0280  -28.1375   22.8489 C   0  0  0  0  0  0
  -24.1474  -36.7303   23.2636 C   0  0  0  0  0  0
  -25.9336  -30.8387   21.3605 C   0  0  0  0  0  0
  -26.0136  -29.4741   20.7065 C   0  0  0  0  0  0
  -27.2131  -28.7272   20.6910 C   0  0  0  0  0  0
  -26.0684  -26.9379   19.5024 C   0  0  0  0  0  0
  -24.8765  -27.6893   19.5051 C   0  0  0  0  0  0
  -23.6171  -29.8247   20.1624 C   0  0  0  0  0  0
  -25.4096  -36.3104   24.0340 C   0  0  1  0  0  0
  -20.5871  -28.3659   23.1302 C   0  0  2  0  0  0
  -20.6762  -26.9392   22.5407 C   0  0  0  0  0  0
  -19.5738  -26.6387   21.5205 C   0  0  0  0  0  0
  -18.1917  -26.7924   22.1617 C   0  0  0  0  0  0
  -19.1528  -28.8834   23.2895 C   0  0  0  0  0  0
  -18.9457  -30.1436   23.8914 C   0  0  0  0  0  0
  -17.6456  -30.6576   24.0567 C   0  0  0  0  0  0
  -25.9027  -34.9466   23.5136 C   0  0  0  0  0  0
  -16.5349  -29.9083   23.6320 C   0  0  0  0  0  0
  -16.7268  -28.6503   23.0337 C   0  0  0  0  0  0
  -26.4484  -31.6581   25.0738 C   0  0  0  0  0  0
  -25.3756  -31.3673   26.1494 C   0  0  0  0  0  0
  -27.0315  -30.3034   24.6087 C   0  0  0  0  0  0
  -27.6076  -32.4291   25.7486 C   0  0  0  0  0  0
  -27.5565  -37.1803   24.8474 C   0  0  0  0  0  0
  -21.4158  -29.3025   22.3708 N   0  0  0  0  0  0
  -26.4279  -37.3791   23.9422 N   0  0  0  0  0  0
  -24.6704  -31.0791   22.0994 N   0  0  0  0  0  0
  -23.4199  -28.8174   23.3001 O   0  0  0  0  0  0
  -28.4039  -26.7048   20.1186 O   0  0  0  0  0  0
  -26.5550  -34.8895   22.4675 O   0  0  0  0  0  0
  -23.5362  -32.1411   23.7502 O   0  0  0  0  0  0
  -28.4052  -18.4021   24.1095 C   0  0  0  0  0  0
  -27.9102  -19.5307   23.4288 C   0  0  0  0  0  0
  -29.2482  -17.4908   23.4462 C   0  0  0  0  0  0
  -29.1337  -18.8663   21.4318 C   0  0  0  0  0  0
  -28.2478  -19.7651   22.0777 C   0  0  0  0  0  0
  -29.6258  -17.7226   22.1080 C   0  0  0  0  0  0
  -28.3483  -22.2530   21.2592 C   0  0  0  0  0  0
  -28.0959  -22.8921   20.1082 C   0  0  0  0  0  0
  -27.2237  -22.0674   19.1931 C   0  0  0  0  0  0
  -27.1223  -20.6996   19.9000 C   0  0  0  0  0  0
  -27.5912  -20.9471   21.3524 C   0  0  1  0  0  0
  -30.5876  -16.7638   21.4167 C   0  0  0  0  0  0
  -28.5456  -24.2807   19.6607 C   0  0  0  0  0  0
  -28.2930  -25.3940   20.6973 C   0  0  0  0  0  0
  -30.0979  -15.3894   21.3174 N   0  0  0  0  0  0
  -31.4676  -12.3792   19.1417 H   0  0  0  0  0  0
  -30.3071  -11.2789   19.8235 H   0  0  0  0  0  0
  -29.7420  -11.7848   17.4300 H   0  0  0  0  0  0
  -29.6742  -13.4935   17.7864 H   0  0  0  0  0  0
  -27.8338  -11.3054   18.8255 H   0  0  0  0  0  0
  -27.3708  -12.6289   17.7885 H   0  0  0  0  0  0
  -27.7156  -14.2508   19.5826 H   0  0  0  0  0  0
  -28.6681  -11.9375   21.3432 H   0  0  0  0  0  0
  -28.4524  -13.5702   21.8830 H   0  0  0  0  0  0
  -25.2731   -9.5696   22.4774 H   0  0  0  0  0  0
  -23.9981   -7.4639   22.7471 H   0  0  0  0  0  0
  -21.0834   -8.8746   19.8942 H   0  0  0  0  0  0
  -22.3669  -10.9656   19.6154 H   0  0  0  0  0  0
  -21.1984   -7.6140   23.9720 H   0  0  0  0  0  0
  -21.1511   -6.0508   25.9081 H   0  0  0  0  0  0
  -22.0590   -2.7609   23.2823 H   0  0  0  0  0  0
  -22.4030  -11.9880   22.4736 H   0  0  0  0  0  0
  -21.1103  -13.1316   22.2535 H   0  0  0  0  0  0
  -24.6783  -15.8495   20.5136 H   0  0  0  0  0  0
  -26.2981  -15.6165   20.0930 H   0  0  0  0  0  0
  -26.7145  -32.5543   23.1199 H   0  0  0  0  0  0
  -25.0211  -33.9807   25.0593 H   0  0  0  0  0  0
  -22.6959  -31.3089   21.4083 H   0  0  0  0  0  0
  -23.3728  -35.9645   23.3314 H   0  0  0  0  0  0
  -24.3584  -36.8901   22.2053 H   0  0  0  0  0  0
  -23.7221  -37.6513   23.6631 H   0  0  0  0  0  0
  -26.0444  -31.6043   20.5915 H   0  0  0  0  0  0
  -26.8237  -30.8935   21.9765 H   0  0  0  0  0  0
  -28.1110  -29.1217   21.1465 H   0  0  0  0  0  0
  -26.0780  -25.9650   19.0323 H   0  0  0  0  0  0
  -23.9869  -27.2899   19.0382 H   0  0  0  0  0  0
  -23.7349  -30.6021   19.4069 H   0  0  0  0  0  0
  -22.7418  -29.2492   19.8578 H   0  0  0  0  0  0
  -25.1257  -36.1984   25.0831 H   0  0  0  0  0  0
  -20.9976  -28.3220   24.1415 H   0  0  0  0  0  0
  -20.5651  -26.2264   23.3592 H   0  0  0  0  0  0
  -21.6630  -26.7423   22.1197 H   0  0  0  0  0  0
  -19.6889  -25.6307   21.1211 H   0  0  0  0  0  0
  -19.6670  -27.3218   20.6751 H   0  0  0  0  0  0
  -17.4185  -26.6686   21.4012 H   0  0  0  0  0  0
  -18.0303  -26.0056   22.9003 H   0  0  0  0  0  0
  -19.7933  -30.7244   24.2292 H   0  0  0  0  0  0
  -17.5014  -31.6260   24.5160 H   0  0  0  0  0  0
  -15.5347  -30.2993   23.7627 H   0  0  0  0  0  0
  -15.8670  -28.0837   22.7026 H   0  0  0  0  0  0
  -24.5948  -30.6987   25.7848 H   0  0  0  0  0  0
  -24.8914  -32.2811   26.4951 H   0  0  0  0  0  0
  -25.8131  -30.8869   27.0252 H   0  0  0  0  0  0
  -26.2862  -29.6804   24.1128 H   0  0  0  0  0  0
  -27.4081  -29.7255   25.4536 H   0  0  0  0  0  0
  -27.8689  -30.4369   23.9232 H   0  0  0  0  0  0
  -27.2728  -33.3592   26.2084 H   0  0  0  0  0  0
  -28.3871  -32.6839   25.0293 H   0  0  0  0  0  0
  -28.0741  -31.8390   26.5387 H   0  0  0  0  0  0
  -28.2594  -38.0087   24.7516 H   0  0  0  0  0  0
  -28.1036  -36.2618   24.6299 H   0  0  0  0  0  0
  -27.2287  -37.1470   25.8877 H   0  0  0  0  0  0
  -20.9318  -29.8792   21.6971 H   0  0  0  0  0  0
  -26.0162  -38.2860   24.1441 H   0  0  0  0  0  0
  -28.1297  -18.2307   25.1411 H   0  0  0  0  0  0
  -27.2486  -20.2097   23.9503 H   0  0  0  0  0  0
  -29.6188  -16.6222   23.9746 H   0  0  0  0  0  0
  -29.4331  -19.0388   20.4077 H   0  0  0  0  0  0
  -28.9306  -22.6396   22.0839 H   0  0  0  0  0  0
  -27.6643  -21.9760   18.1993 H   0  0  0  0  0  0
  -26.2458  -22.5423   19.0964 H   0  0  0  0  0  0
  -27.7884  -20.0152   19.3774 H   0  0  0  0  0  0
  -26.1231  -20.2645   19.8527 H   0  0  0  0  0  0
  -26.6976  -21.1978   21.9268 H   0  0  0  0  0  0
  -30.8199  -17.1358   20.4173 H   0  0  0  0  0  0
  -31.5257  -16.7655   21.9745 H   0  0  0  0  0  0
  -28.0051  -24.5263   18.7455 H   0  0  0  0  0  0
  -29.6000  -24.2436   19.3856 H   0  0  0  0  0  0
  -27.3234  -25.2458   21.1761 H   0  0  0  0  0  0
  -29.0251  -25.3151   21.5016 H   0  0  0  0  0  0
  -29.1992  -15.1750   21.7212 H   0  0  0  0  0  0
  1 25  1  0  0  0
  1 30  2  0  0  0
  1 85  1  0  0  0
  2  3  1  0  0  0
  2 25  1  0  0  0
  2 86  1  0  0  0
  2 87  1  0  0  0
  3  4  1  0  0  0
  3 88  1  0  0  0
  3 89  1  0  0  0
  4  5  1  0  0  0
  4 90  1  0  0  0
  4 91  1  0  0  0
  5  6  1  0  0  0
  5 26  1  0  0  0
  5 92  1  0  0  0
  6 25  1  0  0  0
  6 93  1  0  0  0
  6 94  1  0  0  0
  7  8  2  0  0  0
  7 26  1  0  0  0
  7 29  1  0  0  0
  8  9  1  0  0  0
  8 22  1  0  0  0
  9 10  1  0  0  0
  9 27  2  0  0  0
 10 11  2  0  0  0
 10 15  1  0  0  0
 11 12  1  0  0  0
 11 95  1  0  0  0
 12 13  2  0  0  0
 12 96  1  0  0  0
 13 14  1  0  0  0
 13 31  1  0  0  0
 14 15  2  0  0  0
 14 97  1  0  0  0
 15 98  1  0  0  0
 16 17  2  0  0  0
 16 21  1  0  0  0
 16 31  1  0  0  0
 17 18  1  0  0  0
 17 99  1  0  0  0
 18 19  2  0  0  0
 18100  1  0  0  0
 19 20  1  0  0  0
 19 24  1  0  0  0
 20 21  2  0  0  0
 20101  1  0  0  0
 21 23  1  0  0  0
 22 28  1  0  0  0
 22 32  2  0  0  0
 26 27  1  0  0  0
 28102  1  0  0  0
 28103  1  0  0  0
 29104  1  0  0  0
 29105  1  0  0  0
 33 34  1  0  0  0
 33 66  1  0  0  0
 33 70  2  0  0  0
 34 36  1  0  0  0
 34 59  1  0  0  0
 34106  1  0  0  0
 35 44  2  0  0  0
 35 45  1  0  0  0
 35 68  1  0  0  0
 36 56  1  0  0  0
 36107  1  0  0  0
 37 39  1  0  0  0
 37 47  1  0  0  0
 37 66  1  0  0  0
 37108  1  0  0  0
 38 43  2  0  0  0
 38 46  1  0  0  0
 38 47  1  0  0  0
 39 64  1  0  0  0
 39 67  2  0  0  0
 40 52  1  0  0  0
 40 53  2  0  0  0
 40 58  1  0  0  0
 41109  1  0  0  0
 41110  1  0  0  0
 41111  1  0  0  0
 41 48  1  0  0  0
 42 43  1  0  0  0
 42 66  1  0  0  0
 42112  1  0  0  0
 42113  1  0  0  0
 43 44  1  0  0  0
 44114  1  0  0  0
 45 46  2  0  0  0
 45115  1  0  0  0
 46116  1  0  0  0
 47117  1  0  0  0
 47118  1  0  0  0
 48 56  1  0  0  0
 48 65  1  0  0  0
 48119  1  0  0  0
 49 50  1  0  0  0
 49 53  1  0  0  0
 49 64  1  0  0  0
 49120  1  0  0  0
 50 51  1  0  0  0
 50121  1  0  0  0
 50122  1  0  0  0
 51 52  1  0  0  0
 51123  1  0  0  0
 51124  1  0  0  0
 52125  1  0  0  0
 52126  1  0  0  0
 53 54  1  0  0  0
 54 55  2  0  0  0
 54127  1  0  0  0
 55 57  1  0  0  0
 55128  1  0  0  0
 56 69  2  0  0  0
 57 58  2  0  0  0
 57129  1  0  0  0
 58130  1  0  0  0
 59 60  1  0  0  0
 59 61  1  0  0  0
 59 62  1  0  0  0
 60131  1  0  0  0
 60132  1  0  0  0
 60133  1  0  0  0
 61134  1  0  0  0
 61135  1  0  0  0
 61136  1  0  0  0
 62137  1  0  0  0
 62138  1  0  0  0
 62139  1  0  0  0
 63 65  1  0  0  0
 63140  1  0  0  0
 63141  1  0  0  0
 63142  1  0  0  0
 64143  1  0  0  0
 65144  1  0  0  0
 68 84  1  0  0  0
 71 72  2  0  0  0
 71 73  1  0  0  0
 71145  1  0  0  0
 72 75  1  0  0  0
 72146  1  0  0  0
 73 76  2  0  0  0
 73147  1  0  0  0
 74 75  2  0  0  0
 74 76  1  0  0  0
 74148  1  0  0  0
 75 81  1  0  0  0
 76 82  1  0  0  0
 77 78  2  0  0  0
 77 81  1  0  0  0
 77149  1  0  0  0
 78 79  1  0  0  0
 78 83  1  0  0  0
 79 80  1  0  0  0
 79150  1  0  0  0
 79151  1  0  0  0
 80 81  1  0  0  0
 80152  1  0  0  0
 80153  1  0  0  0
 81154  1  0  0  0
 82 85  1  0  0  0
 82155  1  0  0  0
 82156  1  0  0  0
 83 84  1  0  0  0
 83157  1  0  0  0
 83158  1  0  0  0
 84159  1  0  0  0
 84160  1  0  0  0
 85161  1  0  0  0
M  ISO  4   1 100  68 101  84 101  85 100
M  END
> <chiral flag>
0

> <version>
0

> <s_m_source_file>
/data/baiqing/PycharmProjects/Reinvent-master-3.2/result/LINK_invent/BTK/process_docking_weight1_custom_product_contain_oxygen_bond_distance_aromatic_linkinvent_7_9_3/rearranged_h_0135.sdf

> <i_m_source_file_index>
42

> <r_mmod_Potential_Energy-OPLS-2005>
-34.3752861022949

> <r_mmod_Stretch_Energy-OPLS-2005>
34.6367797851562

> <r_mmod_Bend_Energy-OPLS-2005>
139.748031616211

> <r_mmod_Torsional_Energy-OPLS-2005>
243.546539306641

> <r_mmod_Improper_Torsional_Energy-OPLS-2005>
2.69986748695374

> <r_mmod_Van_der_Waal_Energy-OPLS-2005>
145.905197143555

> <r_mmod_Electrostatic_Energy-OPLS-2005>
-415.900268554688

> <r_mmod_Solvation_Energy-OPLS-2005>
-195.118728637695

> <b_mmod_Minimization_Converged-OPLS-2005>
0

> <r_mmod_RMS_Derivative-OPLS-2005>
1.85808622837067

$$$$
42
                    3D
 Structure written by MMmdl.
157165  0  0  1  0            999 V2000
  -30.5529  -14.6928   20.5221 C   0  0  0  0  0  0
  -30.4532  -12.4322   19.4605 C   0  0  0  0  0  0
  -29.5168  -12.5154   18.2329 C   0  0  0  0  0  0
  -28.0384  -12.3439   18.6403 C   0  0  0  0  0  0
  -27.6528  -13.2078   19.8671 C   0  0  2  0  0  0
  -28.6928  -13.0507   20.9973 C   0  0  0  0  0  0
  -25.2564  -13.8152   20.5669 C   0  0  0  0  0  0
  -24.1813  -13.0432   20.9139 C   0  0  0  0  0  0
  -24.6362  -11.6895   20.8700 C   0  0  0  0  0  0
  -23.9016  -10.4284   21.0369 C   0  0  0  0  0  0
  -24.3572   -9.4215   21.9150 C   0  0  0  0  0  0
  -23.6256   -8.2255   22.0748 C   0  0  0  0  0  0
  -22.4257   -8.0258   21.3533 C   0  0  0  0  0  0
  -21.9859   -9.0225   20.4646 C   0  0  0  0  0  0
  -22.7180  -10.2111   20.3037 C   0  0  0  0  0  0
  -21.6858   -6.0696   22.5250 C   0  0  0  0  0  0
  -21.4019   -6.5607   23.8177 C   0  0  0  0  0  0
  -21.3673   -5.6766   24.9139 C   0  0  0  0  0  0
  -21.6053   -4.3029   24.7210 C   0  0  0  0  0  0
  -21.8828   -3.8117   23.4330 C   0  0  0  0  0  0
  -21.9202   -4.6923   22.3371 C   0  0  0  0  0  0
  -22.7841  -13.5228   21.1805 C   0  0  0  0  0  0
  -22.1668   -4.2109   21.0959 F   0  0  0  0  0  0
  -21.5633   -3.4514   25.7724 F   0  0  0  0  0  0
  -30.0014  -13.4372   20.4459 N   0  0  0  0  0  0
  -26.2969  -12.9304   20.3284 N   0  0  0  0  0  0
  -25.9284  -11.6464   20.5698 N   0  0  0  0  0  0
  -22.0497  -12.8248   22.0393 N   0  0  0  0  0  0
  -25.4306  -15.1871   20.4140 N   0  0  0  0  0  0
  -31.6948  -14.9109   20.1030 O   0  0  0  0  0  0
  -21.6647   -6.8847   21.4223 O   0  0  0  0  0  0
  -22.3529  -14.5537   20.6664 O   0  0  0  0  0  0
  -24.6278  -31.8628   23.1988 C   0  0  0  0  0  0
  -25.9133  -32.4809   23.8318 C   0  0  1  0  0  0
  -27.2188  -27.2870   20.1533 C   0  0  0  0  0  0
  -25.5932  -33.8601   24.2280 N   0  0  0  0  0  0
  -23.4238  -30.4798   21.5418 C   0  0  2  0  0  0
  -24.8683  -28.9150   20.1292 C   0  0  0  0  0  0
  -22.7485  -29.4649   22.4955 C   0  0  0  0  0  0
  -18.0301  -28.1438   22.8501 C   0  0  0  0  0  0
  -24.1465  -36.7254   23.2630 C   0  0  0  0  0  0
  -25.9621  -30.7840   21.3706 C   0  0  0  0  0  0
  -26.0377  -29.4007   20.7293 C   0  0  0  0  0  0
  -27.2177  -28.5993   20.7238 C   0  0  0  0  0  0
  -26.0329  -26.8541   19.5328 C   0  0  0  0  0  0
  -24.8681  -27.6466   19.5220 C   0  0  0  0  0  0
  -23.6432  -29.8048   20.1615 C   0  0  0  0  0  0
  -25.4099  -36.3088   24.0323 C   0  0  1  0  0  0
  -20.5896  -28.3758   23.1297 C   0  0  2  0  0  0
  -20.6793  -26.9496   22.5420 C   0  0  0  0  0  0
  -19.5752  -26.6452   21.5222 C   0  0  0  0  0  0
  -18.1937  -26.7988   22.1645 C   0  0  0  0  0  0
  -19.1546  -28.8915   23.2895 C   0  0  0  0  0  0
  -18.9464  -30.1503   23.8925 C   0  0  0  0  0  0
  -17.6462  -30.6631   24.0590 C   0  0  0  0  0  0
  -25.9035  -34.9468   23.5114 C   0  0  0  0  0  0
  -16.5356  -29.9143   23.6335 C   0  0  0  0  0  0
  -16.7291  -28.6561   23.0371 C   0  0  0  0  0  0
  -26.4484  -31.6615   25.0695 C   0  0  0  0  0  0
  -25.3702  -31.3756   26.1424 C   0  0  0  0  0  0
  -27.0304  -30.3045   24.6122 C   0  0  0  0  0  0
  -27.6050  -32.4336   25.7473 C   0  0  0  0  0  0
  -27.5560  -37.1790   24.8459 C   0  0  0  0  0  0
  -21.4215  -29.3074   22.3658 N   0  0  0  0  0  0
  -26.4274  -37.3787   23.9409 N   0  0  0  0  0  0
  -24.6908  -31.0577   22.0959 N   0  0  0  0  0  0
  -23.4179  -28.8249   23.3100 O   0  0  0  0  0  0
  -28.3592  -26.4767   20.0842 O   0  0  0  0  0  0
  -26.5589  -34.8944   22.4669 O   0  0  0  0  0  0
  -23.5455  -32.1450   23.7322 O   0  0  0  0  0  0
  -29.3422  -17.8809   19.7221 C   0  0  0  0  0  0
  -29.6583  -17.9238   22.0986 C   0  0  0  0  0  0
  -29.0388  -19.2870   19.7338 C   0  0  0  0  0  0
  -29.3569  -19.3198   22.1051 C   0  0  0  0  0  0
  -29.6643  -17.1492   20.9054 C   0  0  0  0  0  0
  -29.0179  -20.0563   20.9364 C   0  0  0  0  0  0
  -25.4035  -22.6911   20.0140 C   0  0  0  0  0  0
  -26.3815  -23.5833   20.7988 C   0  0  0  0  0  0
  -28.5686  -22.3953   19.9774 C   0  0  0  0  0  0
  -28.4593  -25.1137   20.6891 C   0  0  0  0  0  0
  -27.7510  -23.7942   20.1121 C   0  0  1  0  0  0
  -29.7060  -15.6804   20.9844 N   0  0  0  0  0  0
  -28.6465  -21.4247   21.0828 O   0  0  0  0  0  0
  -31.4882  -12.5986   19.1572 H   0  0  0  0  0  0
  -30.4268  -11.4353   19.9035 H   0  0  0  0  0  0
  -29.7919  -11.7552   17.5000 H   0  0  0  0  0  0
  -29.6457  -13.4795   17.7375 H   0  0  0  0  0  0
  -27.8741  -11.2900   18.8613 H   0  0  0  0  0  0
  -27.3907  -12.5812   17.7968 H   0  0  0  0  0  0
  -27.6758  -14.2436   19.5290 H   0  0  0  0  0  0
  -28.7222  -12.0183   21.3473 H   0  0  0  0  0  0
  -28.4212  -13.6464   21.8694 H   0  0  0  0  0  0
  -25.2722   -9.5696   22.4701 H   0  0  0  0  0  0
  -23.9962   -7.4654   22.7473 H   0  0  0  0  0  0
  -21.0773   -8.8740   19.8946 H   0  0  0  0  0  0
  -22.3619  -10.9639   19.6141 H   0  0  0  0  0  0
  -21.2021   -7.6116   23.9658 H   0  0  0  0  0  0
  -21.1486   -6.0500   25.9037 H   0  0  0  0  0  0
  -22.0607   -2.7578   23.2836 H   0  0  0  0  0  0
  -22.4149  -11.9931   22.4788 H   0  0  0  0  0  0
  -21.1111  -13.1287   22.2610 H   0  0  0  0  0  0
  -24.6672  -15.8428   20.5347 H   0  0  0  0  0  0
  -26.2830  -15.6269   20.0911 H   0  0  0  0  0  0
  -26.7217  -32.5457   23.1059 H   0  0  0  0  0  0
  -25.0099  -33.9720   25.0457 H   0  0  0  0  0  0
  -22.7183  -31.3002   21.3890 H   0  0  0  0  0  0
  -23.3731  -35.9571   23.3327 H   0  0  0  0  0  0
  -24.3531  -36.8859   22.2026 H   0  0  0  0  0  0
  -23.7217  -37.6469   23.6637 H   0  0  0  0  0  0
  -26.0832  -31.5396   20.5943 H   0  0  0  0  0  0
  -26.8459  -30.8542   21.9931 H   0  0  0  0  0  0
  -28.1248  -28.9726   21.1758 H   0  0  0  0  0  0
  -26.0025  -25.8882   19.0515 H   0  0  0  0  0  0
  -23.9751  -27.2638   19.0489 H   0  0  0  0  0  0
  -23.7763  -30.5745   19.4000 H   0  0  0  0  0  0
  -22.7631  -29.2370   19.8553 H   0  0  0  0  0  0
  -25.1296  -36.1926   25.0812 H   0  0  0  0  0  0
  -20.9977  -28.3355   24.1418 H   0  0  0  0  0  0
  -20.5706  -26.2393   23.3636 H   0  0  0  0  0  0
  -21.6678  -26.7543   22.1203 H   0  0  0  0  0  0
  -19.6911  -25.6352   21.1280 H   0  0  0  0  0  0
  -19.6669  -27.3236   20.6724 H   0  0  0  0  0  0
  -17.4216  -26.6749   21.4041 H   0  0  0  0  0  0
  -18.0341  -26.0117   22.9028 H   0  0  0  0  0  0
  -19.7932  -30.7329   24.2300 H   0  0  0  0  0  0
  -17.5018  -31.6304   24.5218 H   0  0  0  0  0  0
  -15.5357  -30.3062   23.7641 H   0  0  0  0  0  0
  -15.8693  -28.0881   22.7078 H   0  0  0  0  0  0
  -24.5891  -30.7103   25.7729 H   0  0  0  0  0  0
  -24.8851  -32.2923   26.4804 H   0  0  0  0  0  0
  -25.8015  -30.8958   27.0227 H   0  0  0  0  0  0
  -26.2888  -29.6855   24.1070 H   0  0  0  0  0  0
  -27.3934  -29.7257   25.4617 H   0  0  0  0  0  0
  -27.8772  -30.4309   23.9375 H   0  0  0  0  0  0
  -27.2669  -33.3630   26.2062 H   0  0  0  0  0  0
  -28.3845  -32.6949   25.0304 H   0  0  0  0  0  0
  -28.0726  -31.8453   26.5388 H   0  0  0  0  0  0
  -28.2603  -38.0072   24.7556 H   0  0  0  0  0  0
  -28.1068  -36.2626   24.6263 H   0  0  0  0  0  0
  -27.2286  -37.1406   25.8869 H   0  0  0  0  0  0
  -20.9450  -29.8724   21.6769 H   0  0  0  0  0  0
  -26.0152  -38.2851   24.1492 H   0  0  0  0  0  0
  -29.2643  -17.3479   18.7853 H   0  0  0  0  0  0
  -29.8478  -17.4354   23.0450 H   0  0  0  0  0  0
  -28.7574  -19.7552   18.8003 H   0  0  0  0  0  0
  -29.3598  -19.8371   23.0545 H   0  0  0  0  0  0
  -25.1760  -23.1135   19.0330 H   0  0  0  0  0  0
  -24.4550  -22.5903   20.5441 H   0  0  0  0  0  0
  -25.8001  -21.6860   19.8684 H   0  0  0  0  0  0
  -26.5335  -23.1733   21.7971 H   0  0  0  0  0  0
  -25.8975  -24.5456   20.9639 H   0  0  0  0  0  0
  -29.5885  -22.6130   19.6597 H   0  0  0  0  0  0
  -28.1165  -21.8691   19.1379 H   0  0  0  0  0  0
  -29.5280  -24.9052   20.6375 H   0  0  0  0  0  0
  -28.2570  -25.1981   21.7575 H   0  0  0  0  0  0
  -27.5389  -24.0635   19.0770 H   0  0  0  0  0  0
  -28.8694  -15.2820   21.3869 H   0  0  0  0  0  0
  1 25  1  0  0  0
  1 30  2  0  0  0
  1 82  1  0  0  0
  2  3  1  0  0  0
  2 25  1  0  0  0
  2 84  1  0  0  0
  2 85  1  0  0  0
  3  4  1  0  0  0
  3 86  1  0  0  0
  3 87  1  0  0  0
  4  5  1  0  0  0
  4 88  1  0  0  0
  4 89  1  0  0  0
  5  6  1  0  0  0
  5 26  1  0  0  0
  5 90  1  0  0  0
  6 25  1  0  0  0
  6 91  1  0  0  0
  6 92  1  0  0  0
  7  8  2  0  0  0
  7 26  1  0  0  0
  7 29  1  0  0  0
  8  9  1  0  0  0
  8 22  1  0  0  0
  9 10  1  0  0  0
  9 27  2  0  0  0
 10 11  2  0  0  0
 10 15  1  0  0  0
 11 12  1  0  0  0
 11 93  1  0  0  0
 12 13  2  0  0  0
 12 94  1  0  0  0
 13 14  1  0  0  0
 13 31  1  0  0  0
 14 15  2  0  0  0
 14 95  1  0  0  0
 15 96  1  0  0  0
 16 17  2  0  0  0
 16 21  1  0  0  0
 16 31  1  0  0  0
 17 18  1  0  0  0
 17 97  1  0  0  0
 18 19  2  0  0  0
 18 98  1  0  0  0
 19 20  1  0  0  0
 19 24  1  0  0  0
 20 21  2  0  0  0
 20 99  1  0  0  0
 21 23  1  0  0  0
 22 28  1  0  0  0
 22 32  2  0  0  0
 26 27  1  0  0  0
 28100  1  0  0  0
 28101  1  0  0  0
 29102  1  0  0  0
 29103  1  0  0  0
 33 34  1  0  0  0
 33 66  1  0  0  0
 33 70  2  0  0  0
 34 36  1  0  0  0
 34 59  1  0  0  0
 34104  1  0  0  0
 35 44  2  0  0  0
 35 45  1  0  0  0
 35 68  1  0  0  0
 36 56  1  0  0  0
 36105  1  0  0  0
 37 39  1  0  0  0
 37 47  1  0  0  0
 37 66  1  0  0  0
 37106  1  0  0  0
 38 43  2  0  0  0
 38 46  1  0  0  0
 38 47  1  0  0  0
 39 64  1  0  0  0
 39 67  2  0  0  0
 40 52  1  0  0  0
 40 53  2  0  0  0
 40 58  1  0  0  0
 41107  1  0  0  0
 41108  1  0  0  0
 41109  1  0  0  0
 41 48  1  0  0  0
 42 43  1  0  0  0
 42 66  1  0  0  0
 42110  1  0  0  0
 42111  1  0  0  0
 43 44  1  0  0  0
 44112  1  0  0  0
 45 46  2  0  0  0
 45113  1  0  0  0
 46114  1  0  0  0
 47115  1  0  0  0
 47116  1  0  0  0
 48 56  1  0  0  0
 48 65  1  0  0  0
 48117  1  0  0  0
 49 50  1  0  0  0
 49 53  1  0  0  0
 49 64  1  0  0  0
 49118  1  0  0  0
 50 51  1  0  0  0
 50119  1  0  0  0
 50120  1  0  0  0
 51 52  1  0  0  0
 51121  1  0  0  0
 51122  1  0  0  0
 52123  1  0  0  0
 52124  1  0  0  0
 53 54  1  0  0  0
 54 55  2  0  0  0
 54125  1  0  0  0
 55 57  1  0  0  0
 55126  1  0  0  0
 56 69  2  0  0  0
 57 58  2  0  0  0
 57127  1  0  0  0
 58128  1  0  0  0
 59 60  1  0  0  0
 59 61  1  0  0  0
 59 62  1  0  0  0
 60129  1  0  0  0
 60130  1  0  0  0
 60131  1  0  0  0
 61132  1  0  0  0
 61133  1  0  0  0
 61134  1  0  0  0
 62135  1  0  0  0
 62136  1  0  0  0
 62137  1  0  0  0
 63 65  1  0  0  0
 63138  1  0  0  0
 63139  1  0  0  0
 63140  1  0  0  0
 64141  1  0  0  0
 65142  1  0  0  0
 68 80  1  0  0  0
 71 73  2  0  0  0
 71 75  1  0  0  0
 71143  1  0  0  0
 72 74  1  0  0  0
 72 75  2  0  0  0
 72144  1  0  0  0
 73 76  1  0  0  0
 73145  1  0  0  0
 74 76  2  0  0  0
 74146  1  0  0  0
 75 82  1  0  0  0
 76 83  1  0  0  0
 77 78  1  0  0  0
 77147  1  0  0  0
 77148  1  0  0  0
 77149  1  0  0  0
 78150  1  0  0  0
 78151  1  0  0  0
 78 81  1  0  0  0
 79 81  1  0  0  0
 79 83  1  0  0  0
 79152  1  0  0  0
 79153  1  0  0  0
 80 81  1  0  0  0
 80154  1  0  0  0
 80155  1  0  0  0
 81156  1  0  0  0
 82157  1  0  0  0
M  ISO  4   1 100  68 101  80 101  82 100
M  END
> <chiral flag>
0

> <version>
0

> <s_m_source_file>
/data/baiqing/PycharmProjects/Reinvent-master-3.2/result/LINK_invent/BTK/process_docking_weight1_custom_product_contain_oxygen_bond_distance_aromatic_linkinvent_7_9_3/rearranged_h_0135.sdf

> <i_m_source_file_index>
43

> <r_mmod_Potential_Energy-OPLS-2005>
190.184692382812

> <r_mmod_Stretch_Energy-OPLS-2005>
97.4437408447266

> <r_mmod_Bend_Energy-OPLS-2005>
195.43229675293

> <r_mmod_Torsional_Energy-OPLS-2005>
274.258148193359

> <r_mmod_Improper_Torsional_Energy-OPLS-2005>
5.49303197860718

> <r_mmod_Van_der_Waal_Energy-OPLS-2005>
129.149627685547

> <r_mmod_Electrostatic_Energy-OPLS-2005>
-365.725219726562

> <r_mmod_Solvation_Energy-OPLS-2005>
-208.040954589844

> <b_mmod_Minimization_Converged-OPLS-2005>
0

> <r_mmod_RMS_Derivative-OPLS-2005>
4.66766119003296

$$$$
43
                    3D
 Structure written by MMmdl.
170178  0  0  1  0            999 V2000
  -30.6997  -14.4401   20.5439 C   0  0  0  0  0  0
  -30.4271  -12.2756   19.4264 C   0  0  0  0  0  0
  -29.5028  -12.4939   18.2110 C   0  0  0  0  0  0
  -28.0196  -12.3607   18.6180 C   0  0  0  0  0  0
  -27.6640  -13.1794   19.8893 C   0  0  2  0  0  0
  -28.7106  -12.9559   21.0052 C   0  0  0  0  0  0
  -25.2615  -13.8067   20.5697 C   0  0  0  0  0  0
  -24.1831  -13.0380   20.9137 C   0  0  0  0  0  0
  -24.6376  -11.6847   20.8730 C   0  0  0  0  0  0
  -23.9026  -10.4257   21.0399 C   0  0  0  0  0  0
  -24.3595   -9.4177   21.9178 C   0  0  0  0  0  0
  -23.6290   -8.2210   22.0764 C   0  0  0  0  0  0
  -22.4264   -8.0253   21.3561 C   0  0  0  0  0  0
  -21.9881   -9.0214   20.4655 C   0  0  0  0  0  0
  -22.7199  -10.2098   20.3044 C   0  0  0  0  0  0
  -21.6834   -6.0705   22.5292 C   0  0  0  0  0  0
  -21.4011   -6.5621   23.8224 C   0  0  0  0  0  0
  -21.3657   -5.6778   24.9191 C   0  0  0  0  0  0
  -21.6044   -4.3044   24.7238 C   0  0  0  0  0  0
  -21.8826   -3.8123   23.4368 C   0  0  0  0  0  0
  -21.9205   -4.6938   22.3417 C   0  0  0  0  0  0
  -22.7864  -13.5213   21.1802 C   0  0  0  0  0  0
  -22.1661   -4.2127   21.0990 F   0  0  0  0  0  0
  -21.5632   -3.4537   25.7753 F   0  0  0  0  0  0
  -30.0453  -13.2530   20.4527 N   0  0  0  0  0  0
  -26.3035  -12.9180   20.3442 N   0  0  0  0  0  0
  -25.9296  -11.6372   20.5808 N   0  0  0  0  0  0
  -22.0484  -12.8253   22.0385 N   0  0  0  0  0  0
  -25.4324  -15.1795   20.4122 N   0  0  0  0  0  0
  -31.8371  -14.6329   20.1000 O   0  0  0  0  0  0
  -21.6631   -6.8852   21.4254 O   0  0  0  0  0  0
  -22.3585  -14.5533   20.6662 O   0  0  0  0  0  0
  -24.6102  -31.8711   23.2125 C   0  0  0  0  0  0
  -25.9025  -32.4827   23.8405 C   0  0  1  0  0  0
  -27.2257  -27.4715   20.0975 C   0  0  0  0  0  0
  -25.5898  -33.8640   24.2344 N   0  0  0  0  0  0
  -23.3937  -30.4957   21.5519 C   0  0  2  0  0  0
  -24.8411  -28.9722   20.1091 C   0  0  0  0  0  0
  -22.7380  -29.4670   22.4999 C   0  0  0  0  0  0
  -18.0275  -28.1392   22.8510 C   0  0  0  0  0  0
  -24.1477  -36.7338   23.2625 C   0  0  0  0  0  0
  -25.9195  -30.8458   21.3645 C   0  0  0  0  0  0
  -25.9962  -29.4840   20.7147 C   0  0  0  0  0  0
  -27.1916  -28.7372   20.7150 C   0  0  0  0  0  0
  -26.0694  -26.9831   19.4545 C   0  0  0  0  0  0
  -24.8693  -27.7177   19.4765 C   0  0  0  0  0  0
  -23.6001  -29.8334   20.1636 C   0  0  0  0  0  0
  -25.4101  -36.3136   24.0322 C   0  0  1  0  0  0
  -20.5864  -28.3672   23.1383 C   0  0  2  0  0  0
  -20.6778  -26.9411   22.5469 C   0  0  0  0  0  0
  -19.5771  -26.6415   21.5251 C   0  0  0  0  0  0
  -18.1941  -26.7937   22.1647 C   0  0  0  0  0  0
  -19.1519  -28.8846   23.2930 C   0  0  0  0  0  0
  -18.9439  -30.1479   23.8894 C   0  0  0  0  0  0
  -17.6430  -30.6598   24.0584 C   0  0  0  0  0  0
  -25.9026  -34.9494   23.5126 C   0  0  0  0  0  0
  -16.5332  -29.9089   23.6334 C   0  0  0  0  0  0
  -16.7264  -28.6523   23.0332 C   0  0  0  0  0  0
  -26.4472  -31.6589   25.0709 C   0  0  0  0  0  0
  -25.3765  -31.3685   26.1462 C   0  0  0  0  0  0
  -27.0268  -30.3014   24.6073 C   0  0  0  0  0  0
  -27.6049  -32.4303   25.7468 C   0  0  0  0  0  0
  -27.5583  -37.1812   24.8451 C   0  0  0  0  0  0
  -21.4116  -29.3033   22.3771 N   0  0  0  0  0  0
  -26.4288  -37.3825   23.9415 N   0  0  0  0  0  0
  -24.6584  -31.0858   22.1008 N   0  0  0  0  0  0
  -23.4187  -28.8211   23.3010 O   0  0  0  0  0  0
  -28.3784  -26.7279   20.1216 O   0  0  0  0  0  0
  -26.5596  -34.8939   22.4693 O   0  0  0  0  0  0
  -23.5316  -32.1463   23.7569 O   0  0  0  0  0  0
  -28.7681  -17.9088   18.4584 C   0  0  0  0  0  0
  -30.1659  -19.0753   20.0788 C   0  0  0  0  0  0
  -29.0287  -16.6977   19.1135 C   0  0  0  0  0  0
  -30.3989  -17.8622   20.7617 C   0  0  0  0  0  0
  -29.3224  -19.1077   18.9434 C   0  0  0  0  0  0
  -29.8186  -16.6676   20.2844 C   0  0  0  0  0  0
  -27.6195  -23.2198   21.4900 C   0  0  0  0  0  0
  -25.4475  -21.3285   18.1828 C   0  0  0  0  0  0
  -30.2344  -20.9449   17.4950 C   0  0  0  0  0  0
  -27.6788  -24.4246   20.5515 C   0  0  0  0  0  0
  -26.6600  -22.0988   21.0739 C   0  0  0  0  0  0
  -26.0348  -20.4189   19.2757 C   0  0  0  0  0  0
  -28.3908  -21.4817   19.1683 C   0  0  0  0  0  0
  -28.3699  -25.6825   21.1012 C   0  0  0  0  0  0
  -28.9977  -20.4122   18.2325 C   0  0  2  0  0  0
  -27.2086  -21.0319   20.0788 C   0  0  1  0  0  0
  -29.9539  -15.4520   21.0016 N   0  0  0  0  0  0
  -28.2846  -23.1503   22.5276 O   0  0  0  0  0  0
  -31.4723  -12.3686   19.1301 H   0  0  0  0  0  0
  -30.3182  -11.2621   19.8154 H   0  0  0  0  0  0
  -29.7446  -11.7753   17.4266 H   0  0  0  0  0  0
  -29.6822  -13.4823   17.7862 H   0  0  0  0  0  0
  -27.8209  -11.3034   18.7968 H   0  0  0  0  0  0
  -27.3750  -12.6531   17.7889 H   0  0  0  0  0  0
  -27.6910  -14.2248   19.6150 H   0  0  0  0  0  0
  -28.6844  -11.9177   21.3430 H   0  0  0  0  0  0
  -28.4816  -13.5551   21.8876 H   0  0  0  0  0  0
  -25.2734   -9.5670   22.4772 H   0  0  0  0  0  0
  -23.9999   -7.4599   22.7495 H   0  0  0  0  0  0
  -21.0796   -8.8712   19.8992 H   0  0  0  0  0  0
  -22.3626  -10.9634   19.6167 H   0  0  0  0  0  0
  -21.1996   -7.6126   23.9734 H   0  0  0  0  0  0
  -21.1470   -6.0495   25.9095 H   0  0  0  0  0  0
  -22.0620   -2.7591   23.2866 H   0  0  0  0  0  0
  -22.4058  -11.9912   22.4791 H   0  0  0  0  0  0
  -21.1131  -13.1372   22.2616 H   0  0  0  0  0  0
  -24.6604  -15.8253   20.5315 H   0  0  0  0  0  0
  -26.2927  -15.6389   20.1414 H   0  0  0  0  0  0
  -26.7108  -32.5558   23.1187 H   0  0  0  0  0  0
  -25.0063  -33.9820   25.0499 H   0  0  0  0  0  0
  -22.6796  -31.3106   21.4188 H   0  0  0  0  0  0
  -23.3729  -35.9673   23.3307 H   0  0  0  0  0  0
  -24.3563  -36.8937   22.2026 H   0  0  0  0  0  0
  -23.7222  -37.6547   23.6636 H   0  0  0  0  0  0
  -26.0313  -31.6096   20.5945 H   0  0  0  0  0  0
  -26.8083  -30.8984   21.9801 H   0  0  0  0  0  0
  -28.0809  -29.1282   21.1902 H   0  0  0  0  0  0
  -26.0885  -26.0436   18.9231 H   0  0  0  0  0  0
  -23.9873  -27.3265   18.9873 H   0  0  0  0  0  0
  -23.7050  -30.6114   19.4053 H   0  0  0  0  0  0
  -22.7272  -29.2474   19.8685 H   0  0  0  0  0  0
  -25.1279  -36.1997   25.0807 H   0  0  0  0  0  0
  -20.9968  -28.3256   24.1499 H   0  0  0  0  0  0
  -20.5710  -26.2259   23.3640 H   0  0  0  0  0  0
  -21.6648  -26.7484   22.1239 H   0  0  0  0  0  0
  -19.6971  -25.6338   21.1252 H   0  0  0  0  0  0
  -19.6721  -27.3259   20.6807 H   0  0  0  0  0  0
  -17.4233  -26.6719   21.4024 H   0  0  0  0  0  0
  -18.0301  -26.0071   22.9029 H   0  0  0  0  0  0
  -19.7927  -30.7318   24.2227 H   0  0  0  0  0  0
  -17.4991  -31.6263   24.5215 H   0  0  0  0  0  0
  -15.5335  -30.2971   23.7661 H   0  0  0  0  0  0
  -15.8688  -28.0847   22.6999 H   0  0  0  0  0  0
  -24.5971  -30.6971   25.7847 H   0  0  0  0  0  0
  -24.8912  -32.2830   26.4879 H   0  0  0  0  0  0
  -25.8148  -30.8913   27.0233 H   0  0  0  0  0  0
  -26.2779  -29.6782   24.1143 H   0  0  0  0  0  0
  -27.4047  -29.7234   25.4525 H   0  0  0  0  0  0
  -27.8648  -30.4311   23.9205 H   0  0  0  0  0  0
  -27.2658  -33.3600   26.2050 H   0  0  0  0  0  0
  -28.3850  -32.6844   25.0284 H   0  0  0  0  0  0
  -28.0715  -31.8404   26.5365 H   0  0  0  0  0  0
  -28.2606  -38.0112   24.7548 H   0  0  0  0  0  0
  -28.1084  -36.2650   24.6235 H   0  0  0  0  0  0
  -27.2313  -37.1415   25.8858 H   0  0  0  0  0  0
  -20.9234  -29.8772   21.7041 H   0  0  0  0  0  0
  -26.0174  -38.2900   24.1445 H   0  0  0  0  0  0
  -28.1318  -17.9028   17.5847 H   0  0  0  0  0  0
  -30.6198  -19.9868   20.4397 H   0  0  0  0  0  0
  -28.6028  -15.8044   18.6920 H   0  0  0  0  0  0
  -31.0134  -17.8636   21.6519 H   0  0  0  0  0  0
  -24.5825  -20.8578   17.7143 H   0  0  0  0  0  0
  -26.1739  -21.5214   17.3931 H   0  0  0  0  0  0
  -25.1195  -22.2925   18.5747 H   0  0  0  0  0  0
  -30.6397  -20.1951   16.8159 H   0  0  0  0  0  0
  -31.0267  -21.2218   18.1914 H   0  0  0  0  0  0
  -29.9899  -21.8290   16.9051 H   0  0  0  0  0  0
  -26.6451  -24.6430   20.3085 H   0  0  0  0  0  0
  -28.1674  -24.1373   19.6229 H   0  0  0  0  0  0
  -25.7819  -22.5866   20.6519 H   0  0  0  0  0  0
  -26.2961  -21.5980   21.9724 H   0  0  0  0  0  0
  -26.3563  -19.4869   18.8129 H   0  0  0  0  0  0
  -25.2379  -20.1336   19.9638 H   0  0  0  0  0  0
  -28.0874  -22.3283   18.5520 H   0  0  0  0  0  0
  -29.2023  -21.8401   19.8028 H   0  0  0  0  0  0
  -29.4049  -25.4552   21.3609 H   0  0  0  0  0  0
  -27.8837  -26.0150   22.0212 H   0  0  0  0  0  0
  -28.2480  -20.1910   17.4690 H   0  0  0  0  0  0
  -27.5942  -20.2353   20.7165 H   0  0  0  0  0  0
  -29.0940  -15.1251   21.4153 H   0  0  0  0  0  0
  1 25  1  0  0  0
  1 30  2  0  0  0
  1 87  1  0  0  0
  2  3  1  0  0  0
  2 25  1  0  0  0
  2 89  1  0  0  0
  2 90  1  0  0  0
  3  4  1  0  0  0
  3 91  1  0  0  0
  3 92  1  0  0  0
  4  5  1  0  0  0
  4 93  1  0  0  0
  4 94  1  0  0  0
  5  6  1  0  0  0
  5 26  1  0  0  0
  5 95  1  0  0  0
  6 25  1  0  0  0
  6 96  1  0  0  0
  6 97  1  0  0  0
  7  8  2  0  0  0
  7 26  1  0  0  0
  7 29  1  0  0  0
  8  9  1  0  0  0
  8 22  1  0  0  0
  9 10  1  0  0  0
  9 27  2  0  0  0
 10 11  2  0  0  0
 10 15  1  0  0  0
 11 12  1  0  0  0
 11 98  1  0  0  0
 12 13  2  0  0  0
 12 99  1  0  0  0
 13 14  1  0  0  0
 13 31  1  0  0  0
 14 15  2  0  0  0
 14100  1  0  0  0
 15101  1  0  0  0
 16 17  2  0  0  0
 16 21  1  0  0  0
 16 31  1  0  0  0
 17 18  1  0  0  0
 17102  1  0  0  0
 18 19  2  0  0  0
 18103  1  0  0  0
 19 20  1  0  0  0
 19 24  1  0  0  0
 20 21  2  0  0  0
 20104  1  0  0  0
 21 23  1  0  0  0
 22 28  1  0  0  0
 22 32  2  0  0  0
 26 27  1  0  0  0
 28105  1  0  0  0
 28106  1  0  0  0
 29107  1  0  0  0
 29108  1  0  0  0
 33 34  1  0  0  0
 33 66  1  0  0  0
 33 70  2  0  0  0
 34 36  1  0  0  0
 34 59  1  0  0  0
 34109  1  0  0  0
 35 44  2  0  0  0
 35 45  1  0  0  0
 35 68  1  0  0  0
 36 56  1  0  0  0
 36110  1  0  0  0
 37 39  1  0  0  0
 37 47  1  0  0  0
 37 66  1  0  0  0
 37111  1  0  0  0
 38 43  2  0  0  0
 38 46  1  0  0  0
 38 47  1  0  0  0
 39 64  1  0  0  0
 39 67  2  0  0  0
 40 52  1  0  0  0
 40 53  2  0  0  0
 40 58  1  0  0  0
 41112  1  0  0  0
 41113  1  0  0  0
 41114  1  0  0  0
 41 48  1  0  0  0
 42 43  1  0  0  0
 42 66  1  0  0  0
 42115  1  0  0  0
 42116  1  0  0  0
 43 44  1  0  0  0
 44117  1  0  0  0
 45 46  2  0  0  0
 45118  1  0  0  0
 46119  1  0  0  0
 47120  1  0  0  0
 47121  1  0  0  0
 48 56  1  0  0  0
 48 65  1  0  0  0
 48122  1  0  0  0
 49 50  1  0  0  0
 49 53  1  0  0  0
 49 64  1  0  0  0
 49123  1  0  0  0
 50 51  1  0  0  0
 50124  1  0  0  0
 50125  1  0  0  0
 51 52  1  0  0  0
 51126  1  0  0  0
 51127  1  0  0  0
 52128  1  0  0  0
 52129  1  0  0  0
 53 54  1  0  0  0
 54 55  2  0  0  0
 54130  1  0  0  0
 55 57  1  0  0  0
 55131  1  0  0  0
 56 69  2  0  0  0
 57 58  2  0  0  0
 57132  1  0  0  0
 58133  1  0  0  0
 59 60  1  0  0  0
 59 61  1  0  0  0
 59 62  1  0  0  0
 60134  1  0  0  0
 60135  1  0  0  0
 60136  1  0  0  0
 61137  1  0  0  0
 61138  1  0  0  0
 61139  1  0  0  0
 62140  1  0  0  0
 62141  1  0  0  0
 62142  1  0  0  0
 63 65  1  0  0  0
 63143  1  0  0  0
 63144  1  0  0  0
 63145  1  0  0  0
 64146  1  0  0  0
 65147  1  0  0  0
 68 84  1  0  0  0
 71 73  2  0  0  0
 71 75  1  0  0  0
 71148  1  0  0  0
 72 74  1  0  0  0
 72 75  2  0  0  0
 72149  1  0  0  0
 73 76  1  0  0  0
 73150  1  0  0  0
 74 76  2  0  0  0
 74151  1  0  0  0
 75 85  1  0  0  0
 76 87  1  0  0  0
 77 80  1  0  0  0
 77 81  1  0  0  0
 77 88  2  0  0  0
 78 82  1  0  0  0
 78152  1  0  0  0
 78153  1  0  0  0
 78154  1  0  0  0
 79155  1  0  0  0
 79156  1  0  0  0
 79157  1  0  0  0
 79 85  1  0  0  0
 80 84  1  0  0  0
 80158  1  0  0  0
 80159  1  0  0  0
 81160  1  0  0  0
 81161  1  0  0  0
 81 86  1  0  0  0
 82 86  1  0  0  0
 82162  1  0  0  0
 82163  1  0  0  0
 83 85  1  0  0  0
 83 86  1  0  0  0
 83164  1  0  0  0
 83165  1  0  0  0
 84166  1  0  0  0
 84167  1  0  0  0
 85168  1  0  0  0
 86169  1  0  0  0
 87170  1  0  0  0
M  ISO  4   1 100  68 101  84 101  87 100
M  END
> <chiral flag>
0

> <version>
0

> <s_m_source_file>
/data/baiqing/PycharmProjects/Reinvent-master-3.2/result/LINK_invent/BTK/process_docking_weight1_custom_product_contain_oxygen_bond_distance_aromatic_linkinvent_7_9_3/rearranged_h_0135.sdf

> <i_m_source_file_index>
44

> <r_mmod_Potential_Energy-OPLS-2005>
-5.10727262496948

> <r_mmod_Stretch_Energy-OPLS-2005>
33.9645156860352

> <r_mmod_Bend_Energy-OPLS-2005>
101.892028808594

> <r_mmod_Torsional_Energy-OPLS-2005>
282.645446777344

> <r_mmod_Improper_Torsional_Energy-OPLS-2005>
7.42218542098999

> <r_mmod_Van_der_Waal_Energy-OPLS-2005>
151.434005737305

> <r_mmod_Electrostatic_Energy-OPLS-2005>
-384.029113769531

> <r_mmod_Solvation_Energy-OPLS-2005>
-210.356399536133

> <b_mmod_Minimization_Converged-OPLS-2005>
0

> <r_mmod_RMS_Derivative-OPLS-2005>
3.68422555923462

$$$$
44
                    3D
 Structure written by MMmdl.
166174  0  0  1  0            999 V2000
  -30.6906  -14.5722   20.6007 C   0  0  0  0  0  0
  -30.4282  -12.3793   19.4527 C   0  0  0  0  0  0
  -29.5038  -12.5315   18.2254 C   0  0  0  0  0  0
  -28.0264  -12.3663   18.6290 C   0  0  0  0  0  0
  -27.6573  -13.2156   19.8730 C   0  0  2  0  0  0
  -28.6929  -13.0247   21.0015 C   0  0  0  0  0  0
  -25.2548  -13.8167   20.5641 C   0  0  0  0  0  0
  -24.1824  -13.0437   20.9185 C   0  0  0  0  0  0
  -24.6391  -11.6910   20.8740 C   0  0  0  0  0  0
  -23.9056  -10.4295   21.0405 C   0  0  0  0  0  0
  -24.3609   -9.4213   21.9183 C   0  0  0  0  0  0
  -23.6287   -8.2245   22.0751 C   0  0  0  0  0  0
  -22.4271   -8.0280   21.3542 C   0  0  0  0  0  0
  -21.9906   -9.0255   20.4644 C   0  0  0  0  0  0
  -22.7230  -10.2136   20.3055 C   0  0  0  0  0  0
  -21.6849   -6.0734   22.5278 C   0  0  0  0  0  0
  -21.4010   -6.5637   23.8213 C   0  0  0  0  0  0
  -21.3662   -5.6791   24.9178 C   0  0  0  0  0  0
  -21.6046   -4.3052   24.7228 C   0  0  0  0  0  0
  -21.8818   -3.8145   23.4348 C   0  0  0  0  0  0
  -21.9192   -4.6962   22.3404 C   0  0  0  0  0  0
  -22.7851  -13.5235   21.1857 C   0  0  0  0  0  0
  -22.1661   -4.2147   21.0982 F   0  0  0  0  0  0
  -21.5632   -3.4535   25.7743 F   0  0  0  0  0  0
  -30.0225  -13.3757   20.4689 N   0  0  0  0  0  0
  -26.2995  -12.9356   20.3330 N   0  0  0  0  0  0
  -25.9320  -11.6508   20.5753 N   0  0  0  0  0  0
  -22.0498  -12.8230   22.0423 N   0  0  0  0  0  0
  -25.4214  -15.1872   20.3956 N   0  0  0  0  0  0
  -31.7572  -14.7770   20.0103 O   0  0  0  0  0  0
  -21.6636   -6.8877   21.4240 O   0  0  0  0  0  0
  -22.3533  -14.5539   20.6705 O   0  0  0  0  0  0
  -24.6217  -31.8629   23.2075 C   0  0  0  0  0  0
  -25.9081  -32.4794   23.8387 C   0  0  1  0  0  0
  -27.2217  -27.3461   20.1203 C   0  0  0  0  0  0
  -25.5910  -33.8596   24.2304 N   0  0  0  0  0  0
  -23.4149  -30.4862   21.5495 C   0  0  2  0  0  0
  -24.8616  -28.9429   20.1179 C   0  0  0  0  0  0
  -22.7452  -29.4632   22.4967 C   0  0  0  0  0  0
  -18.0282  -28.1376   22.8494 C   0  0  0  0  0  0
  -24.1484  -36.7303   23.2642 C   0  0  0  0  0  0
  -25.9533  -30.7970   21.3806 C   0  0  0  0  0  0
  -26.0261  -29.4244   20.7301 C   0  0  0  0  0  0
  -27.2097  -28.6332   20.7303 C   0  0  0  0  0  0
  -26.0539  -26.9296   19.4546 C   0  0  0  0  0  0
  -24.8746  -27.6966   19.4725 C   0  0  0  0  0  0
  -23.6293  -29.8211   20.1645 C   0  0  0  0  0  0
  -25.4112  -36.3096   24.0331 C   0  0  1  0  0  0
  -20.5877  -28.3677   23.1295 C   0  0  2  0  0  0
  -20.6770  -26.9405   22.5413 C   0  0  0  0  0  0
  -19.5747  -26.6378   21.5214 C   0  0  0  0  0  0
  -18.1925  -26.7923   22.1627 C   0  0  0  0  0  0
  -19.1532  -28.8846   23.2890 C   0  0  0  0  0  0
  -18.9456  -30.1453   23.8901 C   0  0  0  0  0  0
  -17.6455  -30.6585   24.0561 C   0  0  0  0  0  0
  -25.9044  -34.9460   23.5117 C   0  0  0  0  0  0
  -16.5347  -29.9082   23.6329 C   0  0  0  0  0  0
  -16.7270  -28.6495   23.0358 C   0  0  0  0  0  0
  -26.4484  -31.6599   25.0745 C   0  0  0  0  0  0
  -25.3724  -31.3704   26.1470 C   0  0  0  0  0  0
  -27.0345  -30.3031   24.6193 C   0  0  0  0  0  0
  -27.6047  -32.4343   25.7501 C   0  0  0  0  0  0
  -27.5584  -37.1804   24.8469 C   0  0  0  0  0  0
  -21.4171  -29.3033   22.3693 N   0  0  0  0  0  0
  -26.4298  -37.3783   23.9407 N   0  0  0  0  0  0
  -24.6815  -31.0656   22.1024 N   0  0  0  0  0  0
  -23.4186  -28.8175   23.3041 O   0  0  0  0  0  0
  -28.3504  -26.5293   20.0961 O   0  0  0  0  0  0
  -26.5616  -34.8916   22.4686 O   0  0  0  0  0  0
  -23.5388  -32.1422   23.7412 O   0  0  0  0  0  0
  -30.7770  -17.8292   20.3018 C   0  0  0  0  0  0
  -30.5641  -19.1804   19.9047 C   0  0  0  0  0  0
  -28.4516  -19.1804   21.0414 C   0  0  0  0  0  0
  -29.8340  -17.0938   21.0733 C   0  0  0  0  0  0
  -29.3897  -19.8882   20.2596 C   0  0  0  0  0  0
  -28.6513  -17.8260   21.4428 C   0  0  0  0  0  0
  -30.1299  -15.6631   21.5692 C   0  0  0  0  0  0
  -27.5672  -17.6465   23.7373 C   0  0  0  0  0  0
  -26.6877  -23.4107   19.9283 C   0  0  0  0  0  0
  -28.6492  -24.1331   18.4902 C   0  0  0  0  0  0
  -29.0490  -21.2839   19.6459 C   0  0  0  0  0  0
  -27.5208  -17.2122   22.2656 C   0  0  0  0  0  0
  -28.9846  -22.6042   20.5278 C   0  0  0  0  0  0
  -28.3112  -25.2125   20.7627 C   0  0  0  0  0  0
  -28.1722  -23.8520   19.9288 C   0  0  0  0  0  0
  -29.9591  -15.3834   22.7951 N   0  0  0  0  0  0
  -31.4718  -12.4891   19.1529 H   0  0  0  0  0  0
  -30.3509  -11.3723   19.8656 H   0  0  0  0  0  0
  -29.7669  -11.7993   17.4611 H   0  0  0  0  0  0
  -29.6532  -13.5134   17.7738 H   0  0  0  0  0  0
  -27.8546  -11.3097   18.8384 H   0  0  0  0  0  0
  -27.3748  -12.6193   17.7919 H   0  0  0  0  0  0
  -27.6935  -14.2611   19.5659 H   0  0  0  0  0  0
  -28.6959  -11.9878   21.3407 H   0  0  0  0  0  0
  -28.3997  -13.6047   21.8739 H   0  0  0  0  0  0
  -25.2753   -9.5694   22.4759 H   0  0  0  0  0  0
  -24.0001   -7.4637   22.7469 H   0  0  0  0  0  0
  -21.0838   -8.8769   19.8950 H   0  0  0  0  0  0
  -22.3683  -10.9672   19.6166 H   0  0  0  0  0  0
  -21.1996   -7.6144   23.9719 H   0  0  0  0  0  0
  -21.1485   -6.0519   25.9084 H   0  0  0  0  0  0
  -22.0595   -2.7606   23.2849 H   0  0  0  0  0  0
  -22.4114  -11.9898   22.4821 H   0  0  0  0  0  0
  -21.1117  -13.1256   22.2629 H   0  0  0  0  0  0
  -24.6456  -15.8343   20.4828 H   0  0  0  0  0  0
  -26.2630  -15.6225   20.0416 H   0  0  0  0  0  0
  -26.7146  -32.5476   23.1136 H   0  0  0  0  0  0
  -25.0036  -33.9744   25.0436 H   0  0  0  0  0  0
  -22.7072  -31.3058   21.4083 H   0  0  0  0  0  0
  -23.3745  -35.9638   23.3308 H   0  0  0  0  0  0
  -24.3570  -36.8928   22.2057 H   0  0  0  0  0  0
  -23.7233  -37.6503   23.6667 H   0  0  0  0  0  0
  -26.0840  -31.5583   20.6108 H   0  0  0  0  0  0
  -26.8342  -30.8463   22.0091 H   0  0  0  0  0  0
  -28.1060  -28.9984   21.2119 H   0  0  0  0  0  0
  -26.0601  -26.0266   18.8721 H   0  0  0  0  0  0
  -23.9925  -27.3344   18.9623 H   0  0  0  0  0  0
  -23.7471  -30.5975   19.4078 H   0  0  0  0  0  0
  -22.7500  -29.2489   19.8637 H   0  0  0  0  0  0
  -25.1289  -36.1960   25.0823 H   0  0  0  0  0  0
  -20.9973  -28.3247   24.1414 H   0  0  0  0  0  0
  -20.5686  -26.2279   23.3605 H   0  0  0  0  0  0
  -21.6638  -26.7445   22.1201 H   0  0  0  0  0  0
  -19.6903  -25.6289   21.1244 H   0  0  0  0  0  0
  -19.6684  -27.3184   20.6742 H   0  0  0  0  0  0
  -17.4200  -26.6682   21.4024 H   0  0  0  0  0  0
  -18.0319  -26.0062   22.9019 H   0  0  0  0  0  0
  -19.7929  -30.7267   24.2275 H   0  0  0  0  0  0
  -17.5009  -31.6266   24.5161 H   0  0  0  0  0  0
  -15.5349  -30.2984   23.7651 H   0  0  0  0  0  0
  -15.8669  -28.0813   22.7077 H   0  0  0  0  0  0
  -24.5911  -30.7045   25.7784 H   0  0  0  0  0  0
  -24.8891  -32.2851   26.4912 H   0  0  0  0  0  0
  -25.8056  -30.8867   27.0234 H   0  0  0  0  0  0
  -26.2917  -29.6763   24.1244 H   0  0  0  0  0  0
  -27.4077  -29.7309   25.4696 H   0  0  0  0  0  0
  -27.8770  -30.4330   23.9397 H   0  0  0  0  0  0
  -27.2663  -33.3651   26.2067 H   0  0  0  0  0  0
  -28.3846  -32.6901   25.0316 H   0  0  0  0  0  0
  -28.0727  -31.8482   26.5420 H   0  0  0  0  0  0
  -28.2604  -38.0102   24.7533 H   0  0  0  0  0  0
  -28.1080  -36.2635   24.6288 H   0  0  0  0  0  0
  -27.2296  -37.1445   25.8870 H   0  0  0  0  0  0
  -20.9345  -29.8749   21.6902 H   0  0  0  0  0  0
  -26.0186  -38.2860   24.1415 H   0  0  0  0  0  0
  -31.7021  -17.3559   20.0054 H   0  0  0  0  0  0
  -31.3091  -19.6637   19.2873 H   0  0  0  0  0  0
  -27.5307  -19.6792   21.3124 H   0  0  0  0  0  0
  -26.7449  -17.2008   24.2976 H   0  0  0  0  0  0
  -27.4808  -18.7295   23.8321 H   0  0  0  0  0  0
  -28.4965  -17.3463   24.2198 H   0  0  0  0  0  0
  -26.4944  -22.5970   19.2313 H   0  0  0  0  0  0
  -25.9918  -24.1944   19.6646 H   0  0  0  0  0  0
  -26.3823  -23.0672   20.9173 H   0  0  0  0  0  0
  -28.5124  -23.2748   17.8326 H   0  0  0  0  0  0
  -29.7062  -24.3999   18.4741 H   0  0  0  0  0  0
  -28.0977  -24.9598   18.0420 H   0  0  0  0  0  0
  -28.0895  -21.1349   19.1543 H   0  0  0  0  0  0
  -29.7455  -21.4610   18.8257 H   0  0  0  0  0  0
  -27.5025  -16.1258   22.1878 H   0  0  0  0  0  0
  -26.5704  -17.5333   21.8365 H   0  0  0  0  0  0
  -30.0072  -22.9095   20.7527 H   0  0  0  0  0  0
  -28.5490  -22.3485   21.4945 H   0  0  0  0  0  0
  -29.2630  -25.1617   21.2914 H   0  0  0  0  0  0
  -27.5674  -25.2344   21.5615 H   0  0  0  0  0  0
  -29.6104  -16.1931   23.2928 H   0  0  0  0  0  0
  1 25  1  0  0  0
  1 30  2  0  0  0
  1 77  1  0  0  0
  2  3  1  0  0  0
  2 25  1  0  0  0
  2 87  1  0  0  0
  2 88  1  0  0  0
  3  4  1  0  0  0
  3 89  1  0  0  0
  3 90  1  0  0  0
  4  5  1  0  0  0
  4 91  1  0  0  0
  4 92  1  0  0  0
  5  6  1  0  0  0
  5 26  1  0  0  0
  5 93  1  0  0  0
  6 25  1  0  0  0
  6 94  1  0  0  0
  6 95  1  0  0  0
  7  8  2  0  0  0
  7 26  1  0  0  0
  7 29  1  0  0  0
  8  9  1  0  0  0
  8 22  1  0  0  0
  9 10  1  0  0  0
  9 27  2  0  0  0
 10 11  2  0  0  0
 10 15  1  0  0  0
 11 12  1  0  0  0
 11 96  1  0  0  0
 12 13  2  0  0  0
 12 97  1  0  0  0
 13 14  1  0  0  0
 13 31  1  0  0  0
 14 15  2  0  0  0
 14 98  1  0  0  0
 15 99  1  0  0  0
 16 17  2  0  0  0
 16 21  1  0  0  0
 16 31  1  0  0  0
 17 18  1  0  0  0
 17100  1  0  0  0
 18 19  2  0  0  0
 18101  1  0  0  0
 19 20  1  0  0  0
 19 24  1  0  0  0
 20 21  2  0  0  0
 20102  1  0  0  0
 21 23  1  0  0  0
 22 28  1  0  0  0
 22 32  2  0  0  0
 26 27  1  0  0  0
 28103  1  0  0  0
 28104  1  0  0  0
 29105  1  0  0  0
 29106  1  0  0  0
 33 34  1  0  0  0
 33 66  1  0  0  0
 33 70  2  0  0  0
 34 36  1  0  0  0
 34 59  1  0  0  0
 34107  1  0  0  0
 35 44  2  0  0  0
 35 45  1  0  0  0
 35 68  1  0  0  0
 36 56  1  0  0  0
 36108  1  0  0  0
 37 39  1  0  0  0
 37 47  1  0  0  0
 37 66  1  0  0  0
 37109  1  0  0  0
 38 43  2  0  0  0
 38 46  1  0  0  0
 38 47  1  0  0  0
 39 64  1  0  0  0
 39 67  2  0  0  0
 40 52  1  0  0  0
 40 53  2  0  0  0
 40 58  1  0  0  0
 41110  1  0  0  0
 41111  1  0  0  0
 41112  1  0  0  0
 41 48  1  0  0  0
 42 43  1  0  0  0
 42 66  1  0  0  0
 42113  1  0  0  0
 42114  1  0  0  0
 43 44  1  0  0  0
 44115  1  0  0  0
 45 46  2  0  0  0
 45116  1  0  0  0
 46117  1  0  0  0
 47118  1  0  0  0
 47119  1  0  0  0
 48 56  1  0  0  0
 48 65  1  0  0  0
 48120  1  0  0  0
 49 50  1  0  0  0
 49 53  1  0  0  0
 49 64  1  0  0  0
 49121  1  0  0  0
 50 51  1  0  0  0
 50122  1  0  0  0
 50123  1  0  0  0
 51 52  1  0  0  0
 51124  1  0  0  0
 51125  1  0  0  0
 52126  1  0  0  0
 52127  1  0  0  0
 53 54  1  0  0  0
 54 55  2  0  0  0
 54128  1  0  0  0
 55 57  1  0  0  0
 55129  1  0  0  0
 56 69  2  0  0  0
 57 58  2  0  0  0
 57130  1  0  0  0
 58131  1  0  0  0
 59 60  1  0  0  0
 59 61  1  0  0  0
 59 62  1  0  0  0
 60132  1  0  0  0
 60133  1  0  0  0
 60134  1  0  0  0
 61135  1  0  0  0
 61136  1  0  0  0
 61137  1  0  0  0
 62138  1  0  0  0
 62139  1  0  0  0
 62140  1  0  0  0
 63 65  1  0  0  0
 63141  1  0  0  0
 63142  1  0  0  0
 63143  1  0  0  0
 64144  1  0  0  0
 65145  1  0  0  0
 68 84  1  0  0  0
 71 72  2  0  0  0
 71 74  1  0  0  0
 71146  1  0  0  0
 72 75  1  0  0  0
 72147  1  0  0  0
 73 75  2  0  0  0
 73 76  1  0  0  0
 73148  1  0  0  0
 74 76  2  0  0  0
 74 77  1  0  0  0
 75 81  1  0  0  0
 76 82  1  0  0  0
 77 86  2  0  0  0
 78 82  1  0  0  0
 78149  1  0  0  0
 78150  1  0  0  0
 78151  1  0  0  0
 79152  1  0  0  0
 79153  1  0  0  0
 79154  1  0  0  0
 79 85  1  0  0  0
 80 85  1  0  0  0
 80155  1  0  0  0
 80156  1  0  0  0
 80157  1  0  0  0
 81 83  1  0  0  0
 81158  1  0  0  0
 81159  1  0  0  0
 82160  1  0  0  0
 82161  1  0  0  0
 83 85  1  0  0  0
 83162  1  0  0  0
 83163  1  0  0  0
 84 85  1  0  0  0
 84164  1  0  0  0
 84165  1  0  0  0
 86166  1  0  0  0
M  ISO  4   1 100  68 101  77 100  84 101
M  END
> <chiral flag>
0

> <version>
0

> <s_m_source_file>
/data/baiqing/PycharmProjects/Reinvent-master-3.2/result/LINK_invent/BTK/process_docking_weight1_custom_product_contain_oxygen_bond_distance_aromatic_linkinvent_7_9_3/rearranged_h_0135.sdf

> <i_m_source_file_index>
45

> <r_mmod_Potential_Energy-OPLS-2005>
268.132202148438

> <r_mmod_Stretch_Energy-OPLS-2005>
84.5241928100586

> <r_mmod_Bend_Energy-OPLS-2005>
149.792602539062

> <r_mmod_Torsional_Energy-OPLS-2005>
254.415634155273

> <r_mmod_Improper_Torsional_Energy-OPLS-2005>
3.85221743583679

> <r_mmod_Van_der_Waal_Energy-OPLS-2005>
145.217224121094

> <r_mmod_Electrostatic_Energy-OPLS-2005>
-225.305023193359

> <r_mmod_Solvation_Energy-OPLS-2005>
-175.12971496582

> <b_mmod_Minimization_Converged-OPLS-2005>
0

> <r_mmod_RMS_Derivative-OPLS-2005>
0.704051315784454

$$$$
45
                    3D
 Structure written by MMmdl.
159167  0  0  1  0            999 V2000
  -30.7380  -14.4112   20.6300 C   0  0  0  0  0  0
  -30.4152  -12.2924   19.4065 C   0  0  0  0  0  0
  -29.4857  -12.5119   18.1973 C   0  0  0  0  0  0
  -28.0085  -12.3725   18.6129 C   0  0  0  0  0  0
  -27.6624  -13.2034   19.8770 C   0  0  2  0  0  0
  -28.7019  -12.9620   20.9941 C   0  0  0  0  0  0
  -25.2590  -13.8159   20.5671 C   0  0  0  0  0  0
  -24.1838  -13.0439   20.9170 C   0  0  0  0  0  0
  -24.6385  -11.6904   20.8731 C   0  0  0  0  0  0
  -23.9052  -10.4292   21.0404 C   0  0  0  0  0  0
  -24.3609   -9.4210   21.9182 C   0  0  0  0  0  0
  -23.6288   -8.2244   22.0753 C   0  0  0  0  0  0
  -22.4271   -8.0281   21.3542 C   0  0  0  0  0  0
  -21.9903   -9.0253   20.4644 C   0  0  0  0  0  0
  -22.7226  -10.2134   20.3053 C   0  0  0  0  0  0
  -21.6854   -6.0735   22.5279 C   0  0  0  0  0  0
  -21.4013   -6.5639   23.8211 C   0  0  0  0  0  0
  -21.3659   -5.6793   24.9174 C   0  0  0  0  0  0
  -21.6044   -4.3055   24.7226 C   0  0  0  0  0  0
  -21.8820   -3.8146   23.4346 C   0  0  0  0  0  0
  -21.9191   -4.6963   22.3402 C   0  0  0  0  0  0
  -22.7863  -13.5241   21.1842 C   0  0  0  0  0  0
  -22.1661   -4.2149   21.0980 F   0  0  0  0  0  0
  -21.5630   -3.4539   25.7738 F   0  0  0  0  0  0
  -30.0372  -13.2610   20.4463 N   0  0  0  0  0  0
  -26.3021  -12.9320   20.3370 N   0  0  0  0  0  0
  -25.9308  -11.6482   20.5760 N   0  0  0  0  0  0
  -22.0507  -12.8231   22.0401 N   0  0  0  0  0  0
  -25.4327  -15.1875   20.4078 N   0  0  0  0  0  0
  -31.8236  -14.6244   20.0808 O   0  0  0  0  0  0
  -21.6637   -6.8877   21.4239 O   0  0  0  0  0  0
  -22.3549  -14.5549   20.6696 O   0  0  0  0  0  0
  -24.6102  -31.8709   23.2120 C   0  0  0  0  0  0
  -25.9017  -32.4834   23.8402 C   0  0  1  0  0  0
  -27.2462  -27.4686   20.1017 C   0  0  0  0  0  0
  -25.5890  -33.8629   24.2337 N   0  0  0  0  0  0
  -23.3962  -30.4926   21.5514 C   0  0  2  0  0  0
  -24.8460  -28.9577   20.1189 C   0  0  0  0  0  0
  -22.7386  -29.4667   22.5011 C   0  0  0  0  0  0
  -18.0269  -28.1363   22.8496 C   0  0  0  0  0  0
  -24.1488  -36.7318   23.2638 C   0  0  0  0  0  0
  -25.9184  -30.8478   21.3584 C   0  0  0  0  0  0
  -25.9997  -29.4805   20.7157 C   0  0  0  0  0  0
  -27.2018  -28.7442   20.7087 C   0  0  0  0  0  0
  -26.0830  -26.9579   19.4922 C   0  0  0  0  0  0
  -24.8800  -27.6916   19.5060 C   0  0  0  0  0  0
  -23.6039  -29.8191   20.1673 C   0  0  0  0  0  0
  -25.4106  -36.3113   24.0338 C   0  0  1  0  0  0
  -20.5856  -28.3648   23.1330 C   0  0  2  0  0  0
  -20.6765  -26.9391   22.5419 C   0  0  0  0  0  0
  -19.5745  -26.6381   21.5212 C   0  0  0  0  0  0
  -18.1919  -26.7914   22.1620 C   0  0  0  0  0  0
  -19.1517  -28.8821   23.2912 C   0  0  0  0  0  0
  -18.9450  -30.1431   23.8917 C   0  0  0  0  0  0
  -17.6456  -30.6578   24.0559 C   0  0  0  0  0  0
  -25.9026  -34.9478   23.5133 C   0  0  0  0  0  0
  -16.5346  -29.9081   23.6318 C   0  0  0  0  0  0
  -16.7261  -28.6492   23.0345 C   0  0  0  0  0  0
  -26.4471  -31.6595   25.0708 C   0  0  0  0  0  0
  -25.3753  -31.3681   26.1469 C   0  0  0  0  0  0
  -27.0294  -30.3045   24.6033 C   0  0  0  0  0  0
  -27.6051  -32.4308   25.7471 C   0  0  0  0  0  0
  -27.5584  -37.1811   24.8464 C   0  0  0  0  0  0
  -21.4119  -29.3022   22.3741 N   0  0  0  0  0  0
  -26.4294  -37.3797   23.9409 N   0  0  0  0  0  0
  -24.6594  -31.0844   22.0999 N   0  0  0  0  0  0
  -23.4175  -28.8220   23.3049 O   0  0  0  0  0  0
  -28.3952  -26.7152   20.0370 O   0  0  0  0  0  0
  -26.5585  -34.8928   22.4694 O   0  0  0  0  0  0
  -23.5309  -32.1455   23.7540 O   0  0  0  0  0  0
  -32.4185  -18.0978   22.5132 C   0  0  0  0  0  0
  -31.5115  -19.1683   22.6078 C   0  0  0  0  0  0
  -31.9743  -16.8305   22.0943 C   0  0  0  0  0  0
  -29.7082  -17.7046   21.8606 C   0  0  0  0  0  0
  -30.1528  -18.9818   22.2765 C   0  0  0  0  0  0
  -30.6156  -16.6238   21.7579 C   0  0  0  0  0  0
  -29.1741  -20.1407   22.4283 C   0  0  0  0  0  0
  -29.5240  -21.3826   21.5793 C   0  0  0  0  0  0
  -28.7447  -22.6364   22.0223 C   0  0  0  0  0  0
  -29.1521  -23.9178   21.2683 C   0  0  0  0  0  0
  -28.6061  -25.1959   21.9336 C   0  0  0  0  0  0
  -29.0870  -26.4980   21.2665 C   0  0  0  0  0  0
  -30.1220  -15.3436   21.3789 N   0  0  0  0  0  0
  -31.4597  -12.3859   19.1031 H   0  0  0  0  0  0
  -30.3100  -11.2769   19.7910 H   0  0  0  0  0  0
  -29.7201  -11.7970   17.4073 H   0  0  0  0  0  0
  -29.6568  -13.5032   17.7743 H   0  0  0  0  0  0
  -27.8151  -11.3153   18.7997 H   0  0  0  0  0  0
  -27.3565  -12.6570   17.7860 H   0  0  0  0  0  0
  -27.7147  -14.2547   19.5923 H   0  0  0  0  0  0
  -28.6711  -11.9210   21.3191 H   0  0  0  0  0  0
  -28.4575  -13.5449   21.8829 H   0  0  0  0  0  0
  -25.2756   -9.5688   22.4752 H   0  0  0  0  0  0
  -24.0000   -7.4638   22.7472 H   0  0  0  0  0  0
  -21.0837   -8.8768   19.8950 H   0  0  0  0  0  0
  -22.3685  -10.9671   19.6162 H   0  0  0  0  0  0
  -21.2005   -7.6148   23.9714 H   0  0  0  0  0  0
  -21.1483   -6.0524   25.9077 H   0  0  0  0  0  0
  -22.0599   -2.7609   23.2846 H   0  0  0  0  0  0
  -22.4126  -11.9886   22.4771 H   0  0  0  0  0  0
  -21.1128  -13.1258   22.2620 H   0  0  0  0  0  0
  -24.6675  -15.8451   20.5116 H   0  0  0  0  0  0
  -26.2877  -15.6233   20.0849 H   0  0  0  0  0  0
  -26.7091  -32.5568   23.1177 H   0  0  0  0  0  0
  -25.0068  -33.9796   25.0501 H   0  0  0  0  0  0
  -22.6821  -31.3067   21.4118 H   0  0  0  0  0  0
  -23.3740  -35.9663   23.3311 H   0  0  0  0  0  0
  -24.3588  -36.8919   22.2051 H   0  0  0  0  0  0
  -23.7246  -37.6530   23.6644 H   0  0  0  0  0  0
  -26.0208  -31.6108   20.5852 H   0  0  0  0  0  0
  -26.8094  -30.9089   21.9711 H   0  0  0  0  0  0
  -28.0911  -29.1696   21.1516 H   0  0  0  0  0  0
  -26.1106  -25.9887   19.0134 H   0  0  0  0  0  0
  -23.9950  -27.2818   19.0388 H   0  0  0  0  0  0
  -23.7068  -30.5917   19.4042 H   0  0  0  0  0  0
  -22.7301  -29.2331   19.8766 H   0  0  0  0  0  0
  -25.1280  -36.1987   25.0831 H   0  0  0  0  0  0
  -20.9948  -28.3215   24.1451 H   0  0  0  0  0  0
  -20.5664  -26.2255   23.3597 H   0  0  0  0  0  0
  -21.6638  -26.7445   22.1213 H   0  0  0  0  0  0
  -19.6907  -25.6300   21.1223 H   0  0  0  0  0  0
  -19.6685  -27.3203   20.6750 H   0  0  0  0  0  0
  -17.4193  -26.6666   21.4015 H   0  0  0  0  0  0
  -18.0317  -26.0041   22.9002 H   0  0  0  0  0  0
  -19.7930  -30.7236   24.2297 H   0  0  0  0  0  0
  -17.5015  -31.6258   24.5158 H   0  0  0  0  0  0
  -15.5347  -30.2990   23.7632 H   0  0  0  0  0  0
  -15.8657  -28.0819   22.7054 H   0  0  0  0  0  0
  -24.5922  -30.7029   25.7812 H   0  0  0  0  0  0
  -24.8952  -32.2828   26.4951 H   0  0  0  0  0  0
  -25.8131  -30.8833   27.0204 H   0  0  0  0  0  0
  -26.2816  -29.6803   24.1122 H   0  0  0  0  0  0
  -27.4126  -29.7278   25.4461 H   0  0  0  0  0  0
  -27.8624  -30.4377   23.9123 H   0  0  0  0  0  0
  -27.2668  -33.3591   26.2094 H   0  0  0  0  0  0
  -28.3845  -32.6898   25.0287 H   0  0  0  0  0  0
  -28.0735  -31.8397   26.5353 H   0  0  0  0  0  0
  -28.2604  -38.0107   24.7521 H   0  0  0  0  0  0
  -28.1075  -36.2642   24.6279 H   0  0  0  0  0  0
  -27.2304  -37.1450   25.8867 H   0  0  0  0  0  0
  -20.9270  -29.8728   21.6956 H   0  0  0  0  0  0
  -26.0183  -38.2877   24.1410 H   0  0  0  0  0  0
  -33.4571  -18.2451   22.7753 H   0  0  0  0  0  0
  -31.8637  -20.1316   22.9509 H   0  0  0  0  0  0
  -32.6887  -16.0203   22.0513 H   0  0  0  0  0  0
  -28.6637  -17.5550   21.6230 H   0  0  0  0  0  0
  -29.1615  -20.4114   23.4853 H   0  0  0  0  0  0
  -28.1617  -19.8102   22.1916 H   0  0  0  0  0  0
  -29.3491  -21.1742   20.5233 H   0  0  0  0  0  0
  -30.5878  -21.6021   21.6720 H   0  0  0  0  0  0
  -28.9157  -22.7874   23.0891 H   0  0  0  0  0  0
  -27.6726  -22.4687   21.9081 H   0  0  0  0  0  0
  -28.8153  -23.8630   20.2324 H   0  0  0  0  0  0
  -30.2407  -23.9836   21.2335 H   0  0  0  0  0  0
  -28.9364  -25.2107   22.9731 H   0  0  0  0  0  0
  -27.5160  -25.1745   21.9661 H   0  0  0  0  0  0
  -30.1562  -26.4413   21.0596 H   0  0  0  0  0  0
  -28.9695  -27.3235   21.9678 H   0  0  0  0  0  0
  -29.1747  -15.1248   21.6472 H   0  0  0  0  0  0
  1 25  1  0  0  0
  1 30  2  0  0  0
  1 83  1  0  0  0
  2  3  1  0  0  0
  2 25  1  0  0  0
  2 84  1  0  0  0
  2 85  1  0  0  0
  3  4  1  0  0  0
  3 86  1  0  0  0
  3 87  1  0  0  0
  4  5  1  0  0  0
  4 88  1  0  0  0
  4 89  1  0  0  0
  5  6  1  0  0  0
  5 26  1  0  0  0
  5 90  1  0  0  0
  6 25  1  0  0  0
  6 91  1  0  0  0
  6 92  1  0  0  0
  7  8  2  0  0  0
  7 26  1  0  0  0
  7 29  1  0  0  0
  8  9  1  0  0  0
  8 22  1  0  0  0
  9 10  1  0  0  0
  9 27  2  0  0  0
 10 11  2  0  0  0
 10 15  1  0  0  0
 11 12  1  0  0  0
 11 93  1  0  0  0
 12 13  2  0  0  0
 12 94  1  0  0  0
 13 14  1  0  0  0
 13 31  1  0  0  0
 14 15  2  0  0  0
 14 95  1  0  0  0
 15 96  1  0  0  0
 16 17  2  0  0  0
 16 21  1  0  0  0
 16 31  1  0  0  0
 17 18  1  0  0  0
 17 97  1  0  0  0
 18 19  2  0  0  0
 18 98  1  0  0  0
 19 20  1  0  0  0
 19 24  1  0  0  0
 20 21  2  0  0  0
 20 99  1  0  0  0
 21 23  1  0  0  0
 22 28  1  0  0  0
 22 32  2  0  0  0
 26 27  1  0  0  0
 28100  1  0  0  0
 28101  1  0  0  0
 29102  1  0  0  0
 29103  1  0  0  0
 33 34  1  0  0  0
 33 66  1  0  0  0
 33 70  2  0  0  0
 34 36  1  0  0  0
 34 59  1  0  0  0
 34104  1  0  0  0
 35 44  2  0  0  0
 35 45  1  0  0  0
 35 68  1  0  0  0
 36 56  1  0  0  0
 36105  1  0  0  0
 37 39  1  0  0  0
 37 47  1  0  0  0
 37 66  1  0  0  0
 37106  1  0  0  0
 38 43  2  0  0  0
 38 46  1  0  0  0
 38 47  1  0  0  0
 39 64  1  0  0  0
 39 67  2  0  0  0
 40 52  1  0  0  0
 40 53  2  0  0  0
 40 58  1  0  0  0
 41107  1  0  0  0
 41108  1  0  0  0
 41109  1  0  0  0
 41 48  1  0  0  0
 42 43  1  0  0  0
 42 66  1  0  0  0
 42110  1  0  0  0
 42111  1  0  0  0
 43 44  1  0  0  0
 44112  1  0  0  0
 45 46  2  0  0  0
 45113  1  0  0  0
 46114  1  0  0  0
 47115  1  0  0  0
 47116  1  0  0  0
 48 56  1  0  0  0
 48 65  1  0  0  0
 48117  1  0  0  0
 49 50  1  0  0  0
 49 53  1  0  0  0
 49 64  1  0  0  0
 49118  1  0  0  0
 50 51  1  0  0  0
 50119  1  0  0  0
 50120  1  0  0  0
 51 52  1  0  0  0
 51121  1  0  0  0
 51122  1  0  0  0
 52123  1  0  0  0
 52124  1  0  0  0
 53 54  1  0  0  0
 54 55  2  0  0  0
 54125  1  0  0  0
 55 57  1  0  0  0
 55126  1  0  0  0
 56 69  2  0  0  0
 57 58  2  0  0  0
 57127  1  0  0  0
 58128  1  0  0  0
 59 60  1  0  0  0
 59 61  1  0  0  0
 59 62  1  0  0  0
 60129  1  0  0  0
 60130  1  0  0  0
 60131  1  0  0  0
 61132  1  0  0  0
 61133  1  0  0  0
 61134  1  0  0  0
 62135  1  0  0  0
 62136  1  0  0  0
 62137  1  0  0  0
 63 65  1  0  0  0
 63138  1  0  0  0
 63139  1  0  0  0
 63140  1  0  0  0
 64141  1  0  0  0
 65142  1  0  0  0
 68 82  1  0  0  0
 71 72  2  0  0  0
 71 73  1  0  0  0
 71143  1  0  0  0
 72 75  1  0  0  0
 72144  1  0  0  0
 73 76  2  0  0  0
 73145  1  0  0  0
 74 75  2  0  0  0
 74 76  1  0  0  0
 74146  1  0  0  0
 75 77  1  0  0  0
 76 83  1  0  0  0
 77 78  1  0  0  0
 77147  1  0  0  0
 77148  1  0  0  0
 78 79  1  0  0  0
 78149  1  0  0  0
 78150  1  0  0  0
 79 80  1  0  0  0
 79151  1  0  0  0
 79152  1  0  0  0
 80 81  1  0  0  0
 80153  1  0  0  0
 80154  1  0  0  0
 81 82  1  0  0  0
 81155  1  0  0  0
 81156  1  0  0  0
 82157  1  0  0  0
 82158  1  0  0  0
 83159  1  0  0  0
M  ISO  4   1 100  68 101  82 101  83 100
M  END
> <chiral flag>
0

> <version>
0

> <s_m_source_file>
/data/baiqing/PycharmProjects/Reinvent-master-3.2/result/LINK_invent/BTK/process_docking_weight1_custom_product_contain_oxygen_bond_distance_aromatic_linkinvent_7_9_3/rearranged_h_0135.sdf

> <i_m_source_file_index>
46

> <r_mmod_Potential_Energy-OPLS-2005>
-41.1566009521484

> <r_mmod_Stretch_Energy-OPLS-2005>
32.6671104431152

> <r_mmod_Bend_Energy-OPLS-2005>
89.2167129516602

> <r_mmod_Torsional_Energy-OPLS-2005>
224.56379699707

> <r_mmod_Improper_Torsional_Energy-OPLS-2005>
2.5322470664978

> <r_mmod_Van_der_Waal_Energy-OPLS-2005>
154.438674926758

> <r_mmod_Electrostatic_Energy-OPLS-2005>
-353.976379394531

> <r_mmod_Solvation_Energy-OPLS-2005>
-197.657775878906

> <b_mmod_Minimization_Converged-OPLS-2005>
0

> <r_mmod_RMS_Derivative-OPLS-2005>
0.805867612361908

$$$$
46
                    3D
 Structure written by MMmdl.
165173  0  0  1  0            999 V2000
  -30.6088  -14.7129   20.4946 C   0  0  0  0  0  0
  -30.4389  -12.4454   19.4471 C   0  0  0  0  0  0
  -29.4986  -12.4870   18.2223 C   0  0  0  0  0  0
  -28.0303  -12.2996   18.6530 C   0  0  0  0  0  0
  -27.6384  -13.2143   19.8430 C   0  0  2  0  0  0
  -28.6879  -13.1393   20.9721 C   0  0  0  0  0  0
  -25.2512  -13.8173   20.5689 C   0  0  0  0  0  0
  -24.1777  -13.0436   20.9222 C   0  0  0  0  0  0
  -24.6341  -11.6917   20.8759 C   0  0  0  0  0  0
  -23.9014  -10.4301   21.0414 C   0  0  0  0  0  0
  -24.3582   -9.4224   21.9194 C   0  0  0  0  0  0
  -23.6278   -8.2247   22.0757 C   0  0  0  0  0  0
  -22.4266   -8.0274   21.3539 C   0  0  0  0  0  0
  -21.9890   -9.0242   20.4646 C   0  0  0  0  0  0
  -22.7187  -10.2136   20.3066 C   0  0  0  0  0  0
  -21.6852   -6.0732   22.5265 C   0  0  0  0  0  0
  -21.3999   -6.5632   23.8199 C   0  0  0  0  0  0
  -21.3666   -5.6788   24.9163 C   0  0  0  0  0  0
  -21.6061   -4.3056   24.7213 C   0  0  0  0  0  0
  -21.8810   -3.8141   23.4332 C   0  0  0  0  0  0
  -21.9188   -4.6958   22.3388 C   0  0  0  0  0  0
  -22.7810  -13.5248   21.1887 C   0  0  0  0  0  0
  -22.1657   -4.2143   21.0966 F   0  0  0  0  0  0
  -21.5649   -3.4540   25.7729 F   0  0  0  0  0  0
  -29.9877  -13.4927   20.3855 N   0  0  0  0  0  0
  -26.2907  -12.9339   20.3266 N   0  0  0  0  0  0
  -25.9261  -11.6507   20.5758 N   0  0  0  0  0  0
  -22.0425  -12.8236   22.0419 N   0  0  0  0  0  0
  -25.4232  -15.1888   20.4073 N   0  0  0  0  0  0
  -31.8059  -14.8377   20.2201 O   0  0  0  0  0  0
  -21.6635   -6.8867   21.4229 O   0  0  0  0  0  0
  -22.3518  -14.5566   20.6755 O   0  0  0  0  0  0
  -24.6299  -31.8551   23.2022 C   0  0  0  0  0  0
  -25.9125  -32.4747   23.8362 C   0  0  1  0  0  0
  -27.2176  -27.2808   20.1166 C   0  0  0  0  0  0
  -25.5936  -33.8542   24.2269 N   0  0  0  0  0  0
  -23.4257  -30.4805   21.5447 C   0  0  2  0  0  0
  -24.8698  -28.9345   20.1108 C   0  0  0  0  0  0
  -22.7510  -29.4591   22.4915 C   0  0  0  0  0  0
  -18.0328  -28.1374   22.8447 C   0  0  0  0  0  0
  -24.1485  -36.7265   23.2651 C   0  0  0  0  0  0
  -25.9716  -30.7784   21.3747 C   0  0  0  0  0  0
  -26.0440  -29.4026   20.7153 C   0  0  0  0  0  0
  -27.2215  -28.5897   20.7043 C   0  0  0  0  0  0
  -26.0159  -26.8790   19.4860 C   0  0  0  0  0  0
  -24.8607  -27.6795   19.4880 C   0  0  0  0  0  0
  -23.6407  -29.8189   20.1595 C   0  0  0  0  0  0
  -25.4109  -36.3037   24.0344 C   0  0  1  0  0  0
  -20.5926  -28.3665   23.1243 C   0  0  2  0  0  0
  -20.6822  -26.9380   22.5381 C   0  0  0  0  0  0
  -19.5802  -26.6361   21.5174 C   0  0  0  0  0  0
  -18.1977  -26.7902   22.1592 C   0  0  0  0  0  0
  -19.1577  -28.8836   23.2848 C   0  0  0  0  0  0
  -18.9497  -30.1446   23.8856 C   0  0  0  0  0  0
  -17.6491  -30.6572   24.0537 C   0  0  0  0  0  0
  -25.9049  -34.9419   23.5090 C   0  0  0  0  0  0
  -16.5384  -29.9060   23.6322 C   0  0  0  0  0  0
  -16.7309  -28.6498   23.0305 C   0  0  0  0  0  0
  -26.4507  -31.6608   25.0758 C   0  0  0  0  0  0
  -25.3756  -31.3762   26.1506 C   0  0  0  0  0  0
  -27.0372  -30.3044   24.6215 C   0  0  0  0  0  0
  -27.6033  -32.4396   25.7530 C   0  0  0  0  0  0
  -27.5571  -37.1767   24.8474 C   0  0  0  0  0  0
  -21.4233  -29.3007   22.3630 N   0  0  0  0  0  0
  -26.4282  -37.3729   23.9415 N   0  0  0  0  0  0
  -24.6951  -31.0544   22.0966 N   0  0  0  0  0  0
  -23.4213  -28.8108   23.2986 O   0  0  0  0  0  0
  -28.3233  -26.4035   20.1517 O   0  0  0  0  0  0
  -26.5601  -34.8882   22.4643 O   0  0  0  0  0  0
  -23.5456  -32.1366   23.7330 O   0  0  0  0  0  0
  -30.0662  -18.5160   23.2305 C   0  0  0  0  0  0
  -29.8339  -18.4030   20.4653 C   0  0  0  0  0  0
  -29.9808  -19.7243   22.5076 C   0  0  0  0  0  0
  -30.0435  -17.2515   22.6059 C   0  0  0  0  0  0
  -29.8381  -19.7173   21.0925 C   0  0  0  0  0  0
  -29.9573  -17.1501   21.1943 C   0  0  0  0  0  0
  -30.0657  -21.0073   23.3190 C   0  0  0  0  0  0
  -30.0503  -16.0200   23.5016 C   0  0  0  0  0  0
  -29.9737  -23.9262   18.8795 C   0  0  0  0  0  0
  -30.2672  -24.3229   21.3368 C   0  0  0  0  0  0
  -29.8553  -21.0906   20.2767 C   0  0  0  0  0  0
  -28.8398  -22.3231   20.5537 C   0  0  0  0  0  0
  -28.0686  -24.9282   20.2137 C   0  0  0  0  0  0
  -29.2749  -23.8617   20.2522 C   0  0  0  0  0  0
  -29.7768  -15.8098   20.6049 N   0  0  0  0  0  0
  -31.4724  -12.5946   19.1291 H   0  0  0  0  0  0
  -30.4086  -11.4675   19.9299 H   0  0  0  0  0  0
  -29.7771  -11.7110   17.5084 H   0  0  0  0  0  0
  -29.6074  -13.4395   17.7003 H   0  0  0  0  0  0
  -27.9066  -11.2549   18.9444 H   0  0  0  0  0  0
  -27.3604  -12.4550   17.8075 H   0  0  0  0  0  0
  -27.6341  -14.2304   19.4504 H   0  0  0  0  0  0
  -28.7229  -12.1382   21.4026 H   0  0  0  0  0  0
  -28.4219  -13.8128   21.7871 H   0  0  0  0  0  0
  -25.2715   -9.5726   22.4788 H   0  0  0  0  0  0
  -23.9998   -7.4636   22.7474 H   0  0  0  0  0  0
  -21.0835   -8.8735   19.8946 H   0  0  0  0  0  0
  -22.3618  -10.9680   19.6198 H   0  0  0  0  0  0
  -21.1967   -7.6132   23.9688 H   0  0  0  0  0  0
  -21.1522   -6.0525   25.9068 H   0  0  0  0  0  0
  -22.0590   -2.7604   23.2818 H   0  0  0  0  0  0
  -22.4014  -11.9887   22.4807 H   0  0  0  0  0  0
  -21.1071  -13.1322   22.2652 H   0  0  0  0  0  0
  -24.6562  -15.8437   20.5100 H   0  0  0  0  0  0
  -26.2682  -15.6276   20.0665 H   0  0  0  0  0  0
  -26.7200  -32.5397   23.1122 H   0  0  0  0  0  0
  -25.0114  -33.9674   25.0432 H   0  0  0  0  0  0
  -22.7243  -31.3061   21.4001 H   0  0  0  0  0  0
  -23.3743  -35.9600   23.3310 H   0  0  0  0  0  0
  -24.3604  -36.8862   22.2068 H   0  0  0  0  0  0
  -23.7233  -37.6459   23.6688 H   0  0  0  0  0  0
  -26.1029  -31.5392   20.6041 H   0  0  0  0  0  0
  -26.8524  -30.8325   22.0035 H   0  0  0  0  0  0
  -28.1206  -28.9453   21.1877 H   0  0  0  0  0  0
  -25.9286  -25.9293   18.9840 H   0  0  0  0  0  0
  -23.9580  -27.3193   19.0142 H   0  0  0  0  0  0
  -23.7700  -30.5994   19.4097 H   0  0  0  0  0  0
  -22.7583  -29.2562   19.8458 H   0  0  0  0  0  0
  -25.1276  -36.1887   25.0839 H   0  0  0  0  0  0
  -21.0036  -28.3235   24.1359 H   0  0  0  0  0  0
  -20.5719  -26.2263   23.3577 H   0  0  0  0  0  0
  -21.6688  -26.7398   22.1163 H   0  0  0  0  0  0
  -19.6968  -25.6263   21.1229 H   0  0  0  0  0  0
  -19.6763  -27.3148   20.6682 H   0  0  0  0  0  0
  -17.4237  -26.6621   21.4014 H   0  0  0  0  0  0
  -18.0420  -26.0058   22.9014 H   0  0  0  0  0  0
  -19.7980  -30.7280   24.2196 H   0  0  0  0  0  0
  -17.5047  -31.6243   24.5150 H   0  0  0  0  0  0
  -15.5382  -30.2940   23.7684 H   0  0  0  0  0  0
  -15.8716  -28.0832   22.6973 H   0  0  0  0  0  0
  -24.5925  -30.7101   25.7879 H   0  0  0  0  0  0
  -24.8984  -32.2950   26.4945 H   0  0  0  0  0  0
  -25.8109  -30.8968   27.0282 H   0  0  0  0  0  0
  -26.2950  -29.6780   24.1265 H   0  0  0  0  0  0
  -27.4097  -29.7319   25.4715 H   0  0  0  0  0  0
  -27.8823  -30.4348   23.9438 H   0  0  0  0  0  0
  -27.2599  -33.3711   26.2052 H   0  0  0  0  0  0
  -28.3876  -32.6940   25.0390 H   0  0  0  0  0  0
  -28.0690  -31.8601   26.5506 H   0  0  0  0  0  0
  -28.2546  -38.0094   24.7508 H   0  0  0  0  0  0
  -28.1100  -36.2607   24.6325 H   0  0  0  0  0  0
  -27.2305  -37.1434   25.8881 H   0  0  0  0  0  0
  -20.9442  -29.8707   21.6804 H   0  0  0  0  0  0
  -26.0159  -38.2794   24.1462 H   0  0  0  0  0  0
  -30.1376  -18.5610   24.3092 H   0  0  0  0  0  0
  -29.7374  -18.3551   19.3895 H   0  0  0  0  0  0
  -29.0717  -21.3248   23.6305 H   0  0  0  0  0  0
  -30.5400  -21.8186   22.7713 H   0  0  0  0  0  0
  -30.6552  -20.8589   24.2235 H   0  0  0  0  0  0
  -30.0123  -16.2883   24.5580 H   0  0  0  0  0  0
  -30.9479  -15.4213   23.3485 H   0  0  0  0  0  0
  -29.1761  -15.4006   23.3029 H   0  0  0  0  0  0
  -30.9062  -23.3614   18.8735 H   0  0  0  0  0  0
  -30.2151  -24.9543   18.6051 H   0  0  0  0  0  0
  -29.3409  -23.5226   18.0876 H   0  0  0  0  0  0
  -31.1571  -23.6923   21.3664 H   0  0  0  0  0  0
  -29.8140  -24.3044   22.3293 H   0  0  0  0  0  0
  -30.6050  -25.3455   21.1575 H   0  0  0  0  0  0
  -29.7811  -20.8451   19.2166 H   0  0  0  0  0  0
  -30.8701  -21.4705   20.3902 H   0  0  0  0  0  0
  -28.5086  -22.2813   21.5888 H   0  0  0  0  0  0
  -27.9273  -22.1167   19.9926 H   0  0  0  0  0  0
  -27.4364  -24.7554   21.0861 H   0  0  0  0  0  0
  -27.4734  -24.6275   19.3518 H   0  0  0  0  0  0
  -28.8077  -15.5444   20.5300 H   0  0  0  0  0  0
  1 25  1  0  0  0
  1 30  2  0  0  0
  1 85  1  0  0  0
  2  3  1  0  0  0
  2 25  1  0  0  0
  2 86  1  0  0  0
  2 87  1  0  0  0
  3  4  1  0  0  0
  3 88  1  0  0  0
  3 89  1  0  0  0
  4  5  1  0  0  0
  4 90  1  0  0  0
  4 91  1  0  0  0
  5  6  1  0  0  0
  5 26  1  0  0  0
  5 92  1  0  0  0
  6 25  1  0  0  0
  6 93  1  0  0  0
  6 94  1  0  0  0
  7  8  2  0  0  0
  7 26  1  0  0  0
  7 29  1  0  0  0
  8  9  1  0  0  0
  8 22  1  0  0  0
  9 10  1  0  0  0
  9 27  2  0  0  0
 10 11  2  0  0  0
 10 15  1  0  0  0
 11 12  1  0  0  0
 11 95  1  0  0  0
 12 13  2  0  0  0
 12 96  1  0  0  0
 13 14  1  0  0  0
 13 31  1  0  0  0
 14 15  2  0  0  0
 14 97  1  0  0  0
 15 98  1  0  0  0
 16 17  2  0  0  0
 16 21  1  0  0  0
 16 31  1  0  0  0
 17 18  1  0  0  0
 17 99  1  0  0  0
 18 19  2  0  0  0
 18100  1  0  0  0
 19 20  1  0  0  0
 19 24  1  0  0  0
 20 21  2  0  0  0
 20101  1  0  0  0
 21 23  1  0  0  0
 22 28  1  0  0  0
 22 32  2  0  0  0
 26 27  1  0  0  0
 28102  1  0  0  0
 28103  1  0  0  0
 29104  1  0  0  0
 29105  1  0  0  0
 33 34  1  0  0  0
 33 66  1  0  0  0
 33 70  2  0  0  0
 34 36  1  0  0  0
 34 59  1  0  0  0
 34106  1  0  0  0
 35 44  2  0  0  0
 35 45  1  0  0  0
 35 68  1  0  0  0
 36 56  1  0  0  0
 36107  1  0  0  0
 37 39  1  0  0  0
 37 47  1  0  0  0
 37 66  1  0  0  0
 37108  1  0  0  0
 38 43  2  0  0  0
 38 46  1  0  0  0
 38 47  1  0  0  0
 39 64  1  0  0  0
 39 67  2  0  0  0
 40 52  1  0  0  0
 40 53  2  0  0  0
 40 58  1  0  0  0
 41109  1  0  0  0
 41110  1  0  0  0
 41111  1  0  0  0
 41 48  1  0  0  0
 42 43  1  0  0  0
 42 66  1  0  0  0
 42112  1  0  0  0
 42113  1  0  0  0
 43 44  1  0  0  0
 44114  1  0  0  0
 45 46  2  0  0  0
 45115  1  0  0  0
 46116  1  0  0  0
 47117  1  0  0  0
 47118  1  0  0  0
 48 56  1  0  0  0
 48 65  1  0  0  0
 48119  1  0  0  0
 49 50  1  0  0  0
 49 53  1  0  0  0
 49 64  1  0  0  0
 49120  1  0  0  0
 50 51  1  0  0  0
 50121  1  0  0  0
 50122  1  0  0  0
 51 52  1  0  0  0
 51123  1  0  0  0
 51124  1  0  0  0
 52125  1  0  0  0
 52126  1  0  0  0
 53 54  1  0  0  0
 54 55  2  0  0  0
 54127  1  0  0  0
 55 57  1  0  0  0
 55128  1  0  0  0
 56 69  2  0  0  0
 57 58  2  0  0  0
 57129  1  0  0  0
 58130  1  0  0  0
 59 60  1  0  0  0
 59 61  1  0  0  0
 59 62  1  0  0  0
 60131  1  0  0  0
 60132  1  0  0  0
 60133  1  0  0  0
 61134  1  0  0  0
 61135  1  0  0  0
 61136  1  0  0  0
 62137  1  0  0  0
 62138  1  0  0  0
 62139  1  0  0  0
 63 65  1  0  0  0
 63140  1  0  0  0
 63141  1  0  0  0
 63142  1  0  0  0
 64143  1  0  0  0
 65144  1  0  0  0
 68 83  1  0  0  0
 71 73  2  0  0  0
 71 74  1  0  0  0
 71145  1  0  0  0
 72 75  2  0  0  0
 72 76  1  0  0  0
 72146  1  0  0  0
 73 75  1  0  0  0
 73 77  1  0  0  0
 74 76  2  0  0  0
 74 78  1  0  0  0
 75 81  1  0  0  0
 76 85  1  0  0  0
 77147  1  0  0  0
 77148  1  0  0  0
 77149  1  0  0  0
 78150  1  0  0  0
 78151  1  0  0  0
 78152  1  0  0  0
 79153  1  0  0  0
 79154  1  0  0  0
 79155  1  0  0  0
 79 84  1  0  0  0
 80 84  1  0  0  0
 80156  1  0  0  0
 80157  1  0  0  0
 80158  1  0  0  0
 81 82  1  0  0  0
 81159  1  0  0  0
 81160  1  0  0  0
 82 84  1  0  0  0
 82161  1  0  0  0
 82162  1  0  0  0
 83 84  1  0  0  0
 83163  1  0  0  0
 83164  1  0  0  0
 85165  1  0  0  0
M  ISO  4   1 100  68 101  83 101  85 100
M  END
> <chiral flag>
0

> <version>
0

> <s_m_source_file>
/data/baiqing/PycharmProjects/Reinvent-master-3.2/result/LINK_invent/BTK/process_docking_weight1_custom_product_contain_oxygen_bond_distance_aromatic_linkinvent_7_9_3/rearranged_h_0135.sdf

> <i_m_source_file_index>
47

> <r_mmod_Potential_Energy-OPLS-2005>
169.822891235352

> <r_mmod_Stretch_Energy-OPLS-2005>
115.540817260742

> <r_mmod_Bend_Energy-OPLS-2005>
160.127349853516

> <r_mmod_Torsional_Energy-OPLS-2005>
265.59912109375

> <r_mmod_Improper_Torsional_Energy-OPLS-2005>
10.5491819381714

> <r_mmod_Van_der_Waal_Energy-OPLS-2005>
139.06037902832

> <r_mmod_Electrostatic_Energy-OPLS-2005>
-399.206634521484

> <r_mmod_Solvation_Energy-OPLS-2005>
-197.097747802734

> <b_mmod_Minimization_Converged-OPLS-2005>
0

> <r_mmod_RMS_Derivative-OPLS-2005>
3.13198709487915

$$$$
47
                    3D
 Structure written by MMmdl.
160168  0  0  1  0            999 V2000
  -30.6107  -14.8001   20.3823 C   0  0  0  0  0  0
  -30.4091  -12.4820   19.4794 C   0  0  0  0  0  0
  -29.4950  -12.4992   18.2366 C   0  0  0  0  0  0
  -28.0252  -12.3084   18.6536 C   0  0  0  0  0  0
  -27.6178  -13.2369   19.8274 C   0  0  2  0  0  0
  -28.6619  -13.2597   20.9601 C   0  0  0  0  0  0
  -25.2415  -13.8219   20.5705 C   0  0  0  0  0  0
  -24.1723  -13.0436   20.9222 C   0  0  0  0  0  0
  -24.6334  -11.6920   20.8753 C   0  0  0  0  0  0
  -23.9019  -10.4288   21.0409 C   0  0  0  0  0  0
  -24.3585   -9.4201   21.9177 C   0  0  0  0  0  0
  -23.6271   -8.2231   22.0757 C   0  0  0  0  0  0
  -22.4262   -8.0258   21.3544 C   0  0  0  0  0  0
  -21.9876   -9.0219   20.4650 C   0  0  0  0  0  0
  -22.7184  -10.2109   20.3055 C   0  0  0  0  0  0
  -21.6850   -6.0704   22.5264 C   0  0  0  0  0  0
  -21.4010   -6.5623   23.8190 C   0  0  0  0  0  0
  -21.3661   -5.6797   24.9166 C   0  0  0  0  0  0
  -21.6051   -4.3060   24.7233 C   0  0  0  0  0  0
  -21.8819   -3.8126   23.4364 C   0  0  0  0  0  0
  -21.9187   -4.6928   22.3406 C   0  0  0  0  0  0
  -22.7752  -13.5205   21.1897 C   0  0  0  0  0  0
  -22.1663   -4.2100   21.0993 F   0  0  0  0  0  0
  -21.5627   -3.4557   25.7761 F   0  0  0  0  0  0
  -29.9564  -13.5849   20.3595 N   0  0  0  0  0  0
  -26.2814  -12.9404   20.3230 N   0  0  0  0  0  0
  -25.9261  -11.6552   20.5754 N   0  0  0  0  0  0
  -22.0444  -12.8178   22.0484 N   0  0  0  0  0  0
  -25.4136  -15.1931   20.4149 N   0  0  0  0  0  0
  -31.8245  -14.7998   20.1615 O   0  0  0  0  0  0
  -21.6648   -6.8833   21.4221 O   0  0  0  0  0  0
  -22.3411  -14.5491   20.6738 O   0  0  0  0  0  0
  -24.6388  -31.8497   23.1914 C   0  0  0  0  0  0
  -25.9178  -32.4720   23.8314 C   0  0  1  0  0  0
  -27.1940  -27.1978   20.1445 C   0  0  0  0  0  0
  -25.5939  -33.8526   24.2237 N   0  0  0  0  0  0
  -23.4376  -30.4704   21.5371 C   0  0  2  0  0  0
  -24.8781  -28.9050   20.1103 C   0  0  0  0  0  0
  -22.7540  -29.4565   22.4886 C   0  0  0  0  0  0
  -18.0297  -28.1368   22.8483 C   0  0  0  0  0  0
  -24.1492  -36.7270   23.2652 C   0  0  0  0  0  0
  -25.9872  -30.7445   21.3779 C   0  0  0  0  0  0
  -26.0559  -29.3615   20.7204 C   0  0  0  0  0  0
  -27.2233  -28.5246   20.7132 C   0  0  0  0  0  0
  -25.9936  -26.8138   19.5177 C   0  0  0  0  0  0
  -24.8556  -27.6439   19.4948 C   0  0  0  0  0  0
  -23.6582  -29.8060   20.1528 C   0  0  0  0  0  0
  -25.4122  -36.3054   24.0338 C   0  0  1  0  0  0
  -20.5906  -28.3691   23.1242 C   0  0  2  0  0  0
  -20.6766  -26.9404   22.5388 C   0  0  0  0  0  0
  -19.5744  -26.6360   21.5188 C   0  0  0  0  0  0
  -18.1936  -26.7898   22.1621 C   0  0  0  0  0  0
  -19.1553  -28.8842   23.2853 C   0  0  0  0  0  0
  -18.9471  -30.1439   23.8880 C   0  0  0  0  0  0
  -17.6469  -30.6563   24.0552 C   0  0  0  0  0  0
  -25.9066  -34.9429   23.5095 C   0  0  0  0  0  0
  -16.5363  -29.9059   23.6324 C   0  0  0  0  0  0
  -16.7286  -28.6475   23.0361 C   0  0  0  0  0  0
  -26.4499  -31.6570   25.0740 C   0  0  0  0  0  0
  -25.3693  -31.3770   26.1452 C   0  0  0  0  0  0
  -27.0365  -30.2972   24.6289 C   0  0  0  0  0  0
  -27.6048  -32.4326   25.7517 C   0  0  0  0  0  0
  -27.5577  -37.1811   24.8487 C   0  0  0  0  0  0
  -21.4241  -29.3037   22.3630 N   0  0  0  0  0  0
  -26.4294  -37.3755   23.9412 N   0  0  0  0  0  0
  -24.7080  -31.0426   22.0904 N   0  0  0  0  0  0
  -23.4205  -28.8117   23.3023 O   0  0  0  0  0  0
  -28.2619  -26.2639   20.1485 O   0  0  0  0  0  0
  -26.5651  -34.8909   22.4673 O   0  0  0  0  0  0
  -23.5515  -32.1337   23.7153 O   0  0  0  0  0  0
  -29.0494  -16.6938   19.3817 C   0  0  0  0  0  0
  -28.6994  -18.0813   19.1971 C   0  0  0  0  0  0
  -30.0150  -18.6783   21.0810 C   0  0  0  0  0  0
  -29.9265  -16.2279   20.4109 C   0  0  0  0  0  0
  -29.2087  -19.1448   20.0096 C   0  0  0  0  0  0
  -30.3662  -17.2929   21.2771 C   0  0  0  0  0  0
  -31.3272  -16.9893   22.4103 C   0  0  0  0  0  0
  -27.4811  -23.3768   18.5212 C   0  0  0  0  0  0
  -29.8727  -23.8315   19.1397 C   0  0  0  0  0  0
  -29.1360  -20.6913   19.5568 C   0  0  0  0  0  0
  -28.5477  -21.9817   20.3838 C   0  0  0  0  0  0
  -28.0358  -24.8109   20.5672 C   0  0  0  0  0  0
  -28.4810  -23.4905   19.6877 C   0  0  0  0  0  0
  -31.4509  -12.5816   19.1736 H   0  0  0  0  0  0
  -30.3415  -11.5263   20.0007 H   0  0  0  0  0  0
  -29.7873  -11.7157   17.5357 H   0  0  0  0  0  0
  -29.6048  -13.4476   17.7098 H   0  0  0  0  0  0
  -27.8989  -11.2648   18.9423 H   0  0  0  0  0  0
  -27.3641  -12.4674   17.8008 H   0  0  0  0  0  0
  -27.5765  -14.2376   19.4032 H   0  0  0  0  0  0
  -28.7057  -12.3036   21.4838 H   0  0  0  0  0  0
  -28.3935  -14.0123   21.7033 H   0  0  0  0  0  0
  -25.2719   -9.5696   22.4765 H   0  0  0  0  0  0
  -23.9970   -7.4631   22.7502 H   0  0  0  0  0  0
  -21.0795   -8.8714   19.8976 H   0  0  0  0  0  0
  -22.3596  -10.9641   19.6177 H   0  0  0  0  0  0
  -21.2015   -7.6133   23.9663 H   0  0  0  0  0  0
  -21.1490   -6.0553   25.9060 H   0  0  0  0  0  0
  -22.0603   -2.7586   23.2894 H   0  0  0  0  0  0
  -22.4090  -11.9783   22.4745 H   0  0  0  0  0  0
  -21.1076  -13.1163   22.2799 H   0  0  0  0  0  0
  -24.6540  -15.8534   20.5405 H   0  0  0  0  0  0
  -26.2848  -15.6379   20.1504 H   0  0  0  0  0  0
  -26.7265  -32.5331   23.1081 H   0  0  0  0  0  0
  -25.0099  -33.9670   25.0383 H   0  0  0  0  0  0
  -22.7389  -31.2942   21.3883 H   0  0  0  0  0  0
  -23.3740  -35.9619   23.3324 H   0  0  0  0  0  0
  -24.3585  -36.8861   22.2061 H   0  0  0  0  0  0
  -23.7243  -37.6480   23.6659 H   0  0  0  0  0  0
  -26.1371  -31.5027   20.6083 H   0  0  0  0  0  0
  -26.8596  -30.7913   22.0174 H   0  0  0  0  0  0
  -28.1319  -28.8692   21.1866 H   0  0  0  0  0  0
  -25.9231  -25.8393   19.0571 H   0  0  0  0  0  0
  -23.9556  -27.2904   19.0117 H   0  0  0  0  0  0
  -23.7948  -30.5808   19.3969 H   0  0  0  0  0  0
  -22.7735  -29.2478   19.8442 H   0  0  0  0  0  0
  -25.1295  -36.1925   25.0829 H   0  0  0  0  0  0
  -21.0003  -28.3242   24.1366 H   0  0  0  0  0  0
  -20.5610  -26.2319   23.3600 H   0  0  0  0  0  0
  -21.6637  -26.7380   22.1227 H   0  0  0  0  0  0
  -19.6905  -25.6260   21.1239 H   0  0  0  0  0  0
  -19.6660  -27.3147   20.6686 H   0  0  0  0  0  0
  -17.4195  -26.6633   21.4031 H   0  0  0  0  0  0
  -18.0357  -26.0035   22.9012 H   0  0  0  0  0  0
  -19.7948  -30.7245   24.2248 H   0  0  0  0  0  0
  -17.5026  -31.6246   24.5139 H   0  0  0  0  0  0
  -15.5358  -30.2962   23.7622 H   0  0  0  0  0  0
  -15.8692  -28.0762   22.7109 H   0  0  0  0  0  0
  -24.5863  -30.7125   25.7779 H   0  0  0  0  0  0
  -24.8895  -32.2957   26.4836 H   0  0  0  0  0  0
  -25.7972  -30.8975   27.0260 H   0  0  0  0  0  0
  -26.2988  -29.6711   24.1254 H   0  0  0  0  0  0
  -27.3944  -29.7257   25.4858 H   0  0  0  0  0  0
  -27.8904  -30.4222   23.9629 H   0  0  0  0  0  0
  -27.2650  -33.3631   26.2079 H   0  0  0  0  0  0
  -28.3864  -32.6868   25.0350 H   0  0  0  0  0  0
  -28.0717  -31.8465   26.5439 H   0  0  0  0  0  0
  -28.2624  -38.0072   24.7462 H   0  0  0  0  0  0
  -28.1034  -36.2598   24.6393 H   0  0  0  0  0  0
  -27.2309  -37.1567   25.8896 H   0  0  0  0  0  0
  -20.9433  -29.8813   21.6885 H   0  0  0  0  0  0
  -26.0171  -38.2851   24.1323 H   0  0  0  0  0  0
  -28.7089  -15.9873   18.6367 H   0  0  0  0  0  0
  -28.0924  -18.3284   18.3345 H   0  0  0  0  0  0
  -30.4540  -19.4285   21.7234 H   0  0  0  0  0  0
  -32.3377  -16.8747   22.0189 H   0  0  0  0  0  0
  -31.0455  -16.0725   22.9270 H   0  0  0  0  0  0
  -31.3370  -17.7964   23.1423 H   0  0  0  0  0  0
  -27.7419  -22.5784   17.8276 H   0  0  0  0  0  0
  -27.4179  -24.3039   17.9509 H   0  0  0  0  0  0
  -26.4805  -23.1561   18.8954 H   0  0  0  0  0  0
  -30.2916  -23.0289   18.5348 H   0  0  0  0  0  0
  -30.5683  -24.0393   19.9541 H   0  0  0  0  0  0
  -29.8311  -24.7214   18.5105 H   0  0  0  0  0  0
  -28.6701  -20.6805   18.5729 H   0  0  0  0  0  0
  -30.1778  -20.9367   19.3489 H   0  0  0  0  0  0
  -29.1387  -22.0647   21.2946 H   0  0  0  0  0  0
  -27.5454  -21.7174   20.7247 H   0  0  0  0  0  0
  -28.5944  -24.7243   21.5014 H   0  0  0  0  0  0
  -26.9985  -24.6784   20.8768 H   0  0  0  0  0  0
  1 25  1  0  0  0
  1 30  2  0  0  0
  1 74  1  0  0  0
  2  3  1  0  0  0
  2 25  1  0  0  0
  2 84  1  0  0  0
  2 85  1  0  0  0
  3  4  1  0  0  0
  3 86  1  0  0  0
  3 87  1  0  0  0
  4  5  1  0  0  0
  4 88  1  0  0  0
  4 89  1  0  0  0
  5  6  1  0  0  0
  5 26  1  0  0  0
  5 90  1  0  0  0
  6 25  1  0  0  0
  6 91  1  0  0  0
  6 92  1  0  0  0
  7  8  2  0  0  0
  7 26  1  0  0  0
  7 29  1  0  0  0
  8  9  1  0  0  0
  8 22  1  0  0  0
  9 10  1  0  0  0
  9 27  2  0  0  0
 10 11  2  0  0  0
 10 15  1  0  0  0
 11 12  1  0  0  0
 11 93  1  0  0  0
 12 13  2  0  0  0
 12 94  1  0  0  0
 13 14  1  0  0  0
 13 31  1  0  0  0
 14 15  2  0  0  0
 14 95  1  0  0  0
 15 96  1  0  0  0
 16 17  2  0  0  0
 16 21  1  0  0  0
 16 31  1  0  0  0
 17 18  1  0  0  0
 17 97  1  0  0  0
 18 19  2  0  0  0
 18 98  1  0  0  0
 19 20  1  0  0  0
 19 24  1  0  0  0
 20 21  2  0  0  0
 20 99  1  0  0  0
 21 23  1  0  0  0
 22 28  1  0  0  0
 22 32  2  0  0  0
 26 27  1  0  0  0
 28100  1  0  0  0
 28101  1  0  0  0
 29102  1  0  0  0
 29103  1  0  0  0
 33 34  1  0  0  0
 33 66  1  0  0  0
 33 70  2  0  0  0
 34 36  1  0  0  0
 34 59  1  0  0  0
 34104  1  0  0  0
 35 44  2  0  0  0
 35 45  1  0  0  0
 35 68  1  0  0  0
 36 56  1  0  0  0
 36105  1  0  0  0
 37 39  1  0  0  0
 37 47  1  0  0  0
 37 66  1  0  0  0
 37106  1  0  0  0
 38 43  2  0  0  0
 38 46  1  0  0  0
 38 47  1  0  0  0
 39 64  1  0  0  0
 39 67  2  0  0  0
 40 52  1  0  0  0
 40 53  2  0  0  0
 40 58  1  0  0  0
 41107  1  0  0  0
 41108  1  0  0  0
 41109  1  0  0  0
 41 48  1  0  0  0
 42 43  1  0  0  0
 42 66  1  0  0  0
 42110  1  0  0  0
 42111  1  0  0  0
 43 44  1  0  0  0
 44112  1  0  0  0
 45 46  2  0  0  0
 45113  1  0  0  0
 46114  1  0  0  0
 47115  1  0  0  0
 47116  1  0  0  0
 48 56  1  0  0  0
 48 65  1  0  0  0
 48117  1  0  0  0
 49 50  1  0  0  0
 49 53  1  0  0  0
 49 64  1  0  0  0
 49118  1  0  0  0
 50 51  1  0  0  0
 50119  1  0  0  0
 50120  1  0  0  0
 51 52  1  0  0  0
 51121  1  0  0  0
 51122  1  0  0  0
 52123  1  0  0  0
 52124  1  0  0  0
 53 54  1  0  0  0
 54 55  2  0  0  0
 54125  1  0  0  0
 55 57  1  0  0  0
 55126  1  0  0  0
 56 69  2  0  0  0
 57 58  2  0  0  0
 57127  1  0  0  0
 58128  1  0  0  0
 59 60  1  0  0  0
 59 61  1  0  0  0
 59 62  1  0  0  0
 60129  1  0  0  0
 60130  1  0  0  0
 60131  1  0  0  0
 61132  1  0  0  0
 61133  1  0  0  0
 61134  1  0  0  0
 62135  1  0  0  0
 62136  1  0  0  0
 62137  1  0  0  0
 63 65  1  0  0  0
 63138  1  0  0  0
 63139  1  0  0  0
 63140  1  0  0  0
 64141  1  0  0  0
 65142  1  0  0  0
 68 82  1  0  0  0
 71 72  2  0  0  0
 71 74  1  0  0  0
 71143  1  0  0  0
 72 75  1  0  0  0
 72144  1  0  0  0
 73 75  2  0  0  0
 73 76  1  0  0  0
 73145  1  0  0  0
 74 76  2  0  0  0
 75 80  1  0  0  0
 76 77  1  0  0  0
 77146  1  0  0  0
 77147  1  0  0  0
 77148  1  0  0  0
 78149  1  0  0  0
 78150  1  0  0  0
 78151  1  0  0  0
 78 83  1  0  0  0
 79 83  1  0  0  0
 79152  1  0  0  0
 79153  1  0  0  0
 79154  1  0  0  0
 80 81  1  0  0  0
 80155  1  0  0  0
 80156  1  0  0  0
 81 83  1  0  0  0
 81157  1  0  0  0
 81158  1  0  0  0
 82 83  1  0  0  0
 82159  1  0  0  0
 82160  1  0  0  0
M  ISO  4   1 100  68 101  74 100  82 101
M  END
> <chiral flag>
0

> <version>
0

> <s_m_source_file>
/data/baiqing/PycharmProjects/Reinvent-master-3.2/result/LINK_invent/BTK/process_docking_weight1_custom_product_contain_oxygen_bond_distance_aromatic_linkinvent_7_9_3/rearranged_h_0135.sdf

> <i_m_source_file_index>
48

> <r_mmod_Potential_Energy-OPLS-2005>
422.691925048828

> <r_mmod_Stretch_Energy-OPLS-2005>
159.177108764648

> <r_mmod_Bend_Energy-OPLS-2005>
208.957931518555

> <r_mmod_Torsional_Energy-OPLS-2005>
247.847915649414

> <r_mmod_Improper_Torsional_Energy-OPLS-2005>
9.21913433074951

> <r_mmod_Van_der_Waal_Energy-OPLS-2005>
128.838500976562

> <r_mmod_Electrostatic_Energy-OPLS-2005>
-280.627899169922

> <r_mmod_Solvation_Energy-OPLS-2005>
-176.292022705078

> <b_mmod_Minimization_Converged-OPLS-2005>
0

> <r_mmod_RMS_Derivative-OPLS-2005>
4.15607309341431

$$$$
48
                    3D
 Structure written by MMmdl.
159167  0  0  1  0            999 V2000
  -30.6147  -14.5817   20.4942 C   0  0  0  0  0  0
  -30.4245  -12.3669   19.4086 C   0  0  0  0  0  0
  -29.4862  -12.5465   18.1943 C   0  0  0  0  0  0
  -28.0047  -12.4019   18.6002 C   0  0  0  0  0  0
  -27.6512  -13.2185   19.8698 C   0  0  2  0  0  0
  -28.7006  -13.0089   20.9840 C   0  0  0  0  0  0
  -25.2530  -13.8197   20.5703 C   0  0  0  0  0  0
  -24.1828  -13.0434   20.9205 C   0  0  0  0  0  0
  -24.6423  -11.6914   20.8801 C   0  0  0  0  0  0
  -23.9125  -10.4293   21.0477 C   0  0  0  0  0  0
  -24.3662   -9.4191   21.9245 C   0  0  0  0  0  0
  -23.6317   -8.2230   22.0801 C   0  0  0  0  0  0
  -22.4292   -8.0297   21.3587 C   0  0  0  0  0  0
  -21.9976   -9.0270   20.4653 C   0  0  0  0  0  0
  -22.7326  -10.2131   20.3079 C   0  0  0  0  0  0
  -21.6838   -6.0779   22.5313 C   0  0  0  0  0  0
  -21.3995   -6.5674   23.8250 C   0  0  0  0  0  0
  -21.3652   -5.6817   24.9208 C   0  0  0  0  0  0
  -21.6044   -4.3079   24.7246 C   0  0  0  0  0  0
  -21.8815   -3.8191   23.4358 C   0  0  0  0  0  0
  -21.9189   -4.7011   22.3424 C   0  0  0  0  0  0
  -22.7831  -13.5192   21.1882 C   0  0  0  0  0  0
  -22.1652   -4.2191   21.0993 F   0  0  0  0  0  0
  -21.5648   -3.4552   25.7758 F   0  0  0  0  0  0
  -30.0161  -13.3550   20.4229 N   0  0  0  0  0  0
  -26.2981  -12.9389   20.3369 N   0  0  0  0  0  0
  -25.9341  -11.6544   20.5784 N   0  0  0  0  0  0
  -22.0476  -12.8117   22.0366 N   0  0  0  0  0  0
  -25.4209  -15.1926   20.4116 N   0  0  0  0  0  0
  -31.7791  -14.7551   20.1250 O   0  0  0  0  0  0
  -21.6630   -6.8915   21.4273 O   0  0  0  0  0  0
  -22.3535  -14.5530   20.6786 O   0  0  0  0  0  0
  -24.6252  -31.8648   23.2085 C   0  0  0  0  0  0
  -25.9121  -32.4785   23.8406 C   0  0  1  0  0  0
  -27.1896  -27.3370   20.1187 C   0  0  0  0  0  0
  -25.5947  -33.8606   24.2295 N   0  0  0  0  0  0
  -23.4154  -30.4907   21.5508 C   0  0  2  0  0  0
  -24.8527  -28.9527   20.1083 C   0  0  0  0  0  0
  -22.7478  -29.4645   22.4969 C   0  0  0  0  0  0
  -18.0281  -28.1381   22.8517 C   0  0  0  0  0  0
  -24.1479  -36.7259   23.2645 C   0  0  0  0  0  0
  -25.9586  -30.7930   21.3846 C   0  0  0  0  0  0
  -26.0216  -29.4283   20.7167 C   0  0  0  0  0  0
  -27.1995  -28.6312   20.7099 C   0  0  0  0  0  0
  -26.0089  -26.9097   19.4756 C   0  0  0  0  0  0
  -24.8473  -27.7006   19.4766 C   0  0  0  0  0  0
  -23.6245  -29.8337   20.1623 C   0  0  0  0  0  0
  -25.4116  -36.3091   24.0329 C   0  0  1  0  0  0
  -20.5882  -28.3674   23.1287 C   0  0  2  0  0  0
  -20.6779  -26.9415   22.5401 C   0  0  0  0  0  0
  -19.5730  -26.6404   21.5220 C   0  0  0  0  0  0
  -18.1910  -26.7938   22.1647 C   0  0  0  0  0  0
  -19.1541  -28.8847   23.2889 C   0  0  0  0  0  0
  -18.9457  -30.1455   23.8885 C   0  0  0  0  0  0
  -17.6450  -30.6587   24.0564 C   0  0  0  0  0  0
  -25.9081  -34.9462   23.5105 C   0  0  0  0  0  0
  -16.5344  -29.9079   23.6342 C   0  0  0  0  0  0
  -16.7281  -28.6509   23.0382 C   0  0  0  0  0  0
  -26.4505  -31.6618   25.0796 C   0  0  0  0  0  0
  -25.3715  -31.3630   26.1475 C   0  0  0  0  0  0
  -27.0451  -30.3086   24.6274 C   0  0  0  0  0  0
  -27.6008  -32.4404   25.7602 C   0  0  0  0  0  0
  -27.5587  -37.1788   24.8466 C   0  0  0  0  0  0
  -21.4198  -29.3034   22.3694 N   0  0  0  0  0  0
  -26.4283  -37.3808   23.9429 N   0  0  0  0  0  0
  -24.6833  -31.0677   22.1012 N   0  0  0  0  0  0
  -23.4229  -28.8190   23.3029 O   0  0  0  0  0  0
  -28.2910  -26.4902   20.1598 O   0  0  0  0  0  0
  -26.5660  -34.8919   22.4678 O   0  0  0  0  0  0
  -23.5415  -32.1474   23.7413 O   0  0  0  0  0  0
  -30.8535  -19.1289   19.7677 C   0  0  0  0  0  0
  -28.5748  -19.2064   20.5394 C   0  0  0  0  0  0
  -30.9195  -17.7358   20.0457 C   0  0  0  0  0  0
  -28.6426  -17.8093   20.8255 C   0  0  0  0  0  0
  -29.6799  -19.8998   19.9885 C   0  0  0  0  0  0
  -29.8076  -17.0335   20.5722 C   0  0  0  0  0  0
  -28.6678  -24.2152   18.2533 C   0  0  0  0  0  0
  -30.4152  -24.4121   20.0574 C   0  0  0  0  0  0
  -29.6484  -21.3958   19.5201 C   0  0  0  0  0  0
  -28.7092  -22.4937   20.1805 C   0  0  0  0  0  0
  -28.0563  -25.0762   20.5164 C   0  0  0  0  0  0
  -28.9560  -24.0247   19.7555 C   0  0  0  0  0  0
  -29.7766  -15.6029   20.8358 N   0  0  0  0  0  0
  -31.4640  -12.4905   19.0989 H   0  0  0  0  0  0
  -30.3482  -11.3563   19.8079 H   0  0  0  0  0  0
  -29.7297  -11.8296   17.4093 H   0  0  0  0  0  0
  -29.6413  -13.5375   17.7620 H   0  0  0  0  0  0
  -27.7892  -11.3452   18.7563 H   0  0  0  0  0  0
  -27.3664  -12.7218   17.7765 H   0  0  0  0  0  0
  -27.6778  -14.2678   19.5774 H   0  0  0  0  0  0
  -28.6991  -11.9671   21.3131 H   0  0  0  0  0  0
  -28.4659  -13.6001   21.8689 H   0  0  0  0  0  0
  -25.2826   -9.5638   22.4804 H   0  0  0  0  0  0
  -24.0044   -7.4615   22.7517 H   0  0  0  0  0  0
  -21.0954   -8.8796   19.8898 H   0  0  0  0  0  0
  -22.3889  -10.9675   19.6155 H   0  0  0  0  0  0
  -21.1953   -7.6179   23.9762 H   0  0  0  0  0  0
  -21.1481   -6.0555   25.9115 H   0  0  0  0  0  0
  -22.0590   -2.7653   23.2867 H   0  0  0  0  0  0
  -22.4089  -11.9719   22.4637 H   0  0  0  0  0  0
  -21.1092  -13.1136   22.2609 H   0  0  0  0  0  0
  -24.6457  -15.8387   20.5110 H   0  0  0  0  0  0
  -26.2609  -15.6363   20.0642 H   0  0  0  0  0  0
  -26.7193  -32.5419   23.1153 H   0  0  0  0  0  0
  -25.0089  -33.9778   25.0429 H   0  0  0  0  0  0
  -22.7069  -31.3101   21.4141 H   0  0  0  0  0  0
  -23.3805  -35.9527   23.3279 H   0  0  0  0  0  0
  -24.3550  -36.8939   22.2065 H   0  0  0  0  0  0
  -23.7168  -37.6412   23.6705 H   0  0  0  0  0  0
  -26.1109  -31.5618   20.6268 H   0  0  0  0  0  0
  -26.8346  -30.8163   22.0226 H   0  0  0  0  0  0
  -28.1012  -28.9900   21.1864 H   0  0  0  0  0  0
  -25.9720  -25.9546   18.9728 H   0  0  0  0  0  0
  -23.9520  -27.3377   18.9911 H   0  0  0  0  0  0
  -23.7450  -30.6160   19.4117 H   0  0  0  0  0  0
  -22.7441  -29.2667   19.8570 H   0  0  0  0  0  0
  -25.1277  -36.1955   25.0823 H   0  0  0  0  0  0
  -20.9951  -28.3250   24.1411 H   0  0  0  0  0  0
  -20.5716  -26.2285   23.3589 H   0  0  0  0  0  0
  -21.6638  -26.7460   22.1166 H   0  0  0  0  0  0
  -19.6880  -25.6319   21.1227 H   0  0  0  0  0  0
  -19.6637  -27.3242   20.6757 H   0  0  0  0  0  0
  -17.4186  -26.6737   21.4038 H   0  0  0  0  0  0
  -18.0260  -26.0055   22.9007 H   0  0  0  0  0  0
  -19.7931  -30.7291   24.2262 H   0  0  0  0  0  0
  -17.5000  -31.6260   24.5187 H   0  0  0  0  0  0
  -15.5348  -30.2968   23.7672 H   0  0  0  0  0  0
  -15.8709  -28.0818   22.7085 H   0  0  0  0  0  0
  -24.5888  -30.7035   25.7714 H   0  0  0  0  0  0
  -24.8878  -32.2724   26.5039 H   0  0  0  0  0  0
  -25.8010  -30.8671   27.0190 H   0  0  0  0  0  0
  -26.3093  -29.6764   24.1294 H   0  0  0  0  0  0
  -27.4205  -29.7389   25.4793 H   0  0  0  0  0  0
  -27.8900  -30.4477   23.9521 H   0  0  0  0  0  0
  -27.2590  -33.3718   26.2134 H   0  0  0  0  0  0
  -28.3839  -32.6980   25.0458 H   0  0  0  0  0  0
  -28.0671  -31.8587   26.5570 H   0  0  0  0  0  0
  -28.2527  -38.0161   24.7641 H   0  0  0  0  0  0
  -28.1164  -36.2686   24.6179 H   0  0  0  0  0  0
  -27.2278  -37.1306   25.8855 H   0  0  0  0  0  0
  -20.9401  -29.8755   21.6885 H   0  0  0  0  0  0
  -26.0155  -38.2868   24.1480 H   0  0  0  0  0  0
  -31.7284  -19.6035   19.3412 H   0  0  0  0  0  0
  -27.6510  -19.7353   20.7239 H   0  0  0  0  0  0
  -31.8379  -17.2124   19.8233 H   0  0  0  0  0  0
  -27.7621  -17.3260   21.2237 H   0  0  0  0  0  0
  -29.2319  -23.5255   17.6263 H   0  0  0  0  0  0
  -28.9362  -25.2216   17.9287 H   0  0  0  0  0  0
  -27.6061  -24.0859   18.0379 H   0  0  0  0  0  0
  -31.1224  -23.9236   19.3889 H   0  0  0  0  0  0
  -30.6764  -24.1489   21.0832 H   0  0  0  0  0  0
  -30.5701  -25.4857   19.9541 H   0  0  0  0  0  0
  -29.4274  -21.3716   18.4521 H   0  0  0  0  0  0
  -30.6788  -21.7404   19.5981 H   0  0  0  0  0  0
  -28.8011  -22.4142   21.2644 H   0  0  0  0  0  0
  -27.6713  -22.2329   19.9640 H   0  0  0  0  0  0
  -28.2514  -24.9860   21.5846 H   0  0  0  0  0  0
  -27.0157  -24.7714   20.4196 H   0  0  0  0  0  0
  -28.8821  -15.2563   21.1443 H   0  0  0  0  0  0
  1 25  1  0  0  0
  1 30  2  0  0  0
  1 83  1  0  0  0
  2  3  1  0  0  0
  2 25  1  0  0  0
  2 84  1  0  0  0
  2 85  1  0  0  0
  3  4  1  0  0  0
  3 86  1  0  0  0
  3 87  1  0  0  0
  4  5  1  0  0  0
  4 88  1  0  0  0
  4 89  1  0  0  0
  5  6  1  0  0  0
  5 26  1  0  0  0
  5 90  1  0  0  0
  6 25  1  0  0  0
  6 91  1  0  0  0
  6 92  1  0  0  0
  7  8  2  0  0  0
  7 26  1  0  0  0
  7 29  1  0  0  0
  8  9  1  0  0  0
  8 22  1  0  0  0
  9 10  1  0  0  0
  9 27  2  0  0  0
 10 11  2  0  0  0
 10 15  1  0  0  0
 11 12  1  0  0  0
 11 93  1  0  0  0
 12 13  2  0  0  0
 12 94  1  0  0  0
 13 14  1  0  0  0
 13 31  1  0  0  0
 14 15  2  0  0  0
 14 95  1  0  0  0
 15 96  1  0  0  0
 16 17  2  0  0  0
 16 21  1  0  0  0
 16 31  1  0  0  0
 17 18  1  0  0  0
 17 97  1  0  0  0
 18 19  2  0  0  0
 18 98  1  0  0  0
 19 20  1  0  0  0
 19 24  1  0  0  0
 20 21  2  0  0  0
 20 99  1  0  0  0
 21 23  1  0  0  0
 22 28  1  0  0  0
 22 32  2  0  0  0
 26 27  1  0  0  0
 28100  1  0  0  0
 28101  1  0  0  0
 29102  1  0  0  0
 29103  1  0  0  0
 33 34  1  0  0  0
 33 66  1  0  0  0
 33 70  2  0  0  0
 34 36  1  0  0  0
 34 59  1  0  0  0
 34104  1  0  0  0
 35 44  2  0  0  0
 35 45  1  0  0  0
 35 68  1  0  0  0
 36 56  1  0  0  0
 36105  1  0  0  0
 37 39  1  0  0  0
 37 47  1  0  0  0
 37 66  1  0  0  0
 37106  1  0  0  0
 38 43  2  0  0  0
 38 46  1  0  0  0
 38 47  1  0  0  0
 39 64  1  0  0  0
 39 67  2  0  0  0
 40 52  1  0  0  0
 40 53  2  0  0  0
 40 58  1  0  0  0
 41107  1  0  0  0
 41108  1  0  0  0
 41109  1  0  0  0
 41 48  1  0  0  0
 42 43  1  0  0  0
 42 66  1  0  0  0
 42110  1  0  0  0
 42111  1  0  0  0
 43 44  1  0  0  0
 44112  1  0  0  0
 45 46  2  0  0  0
 45113  1  0  0  0
 46114  1  0  0  0
 47115  1  0  0  0
 47116  1  0  0  0
 48 56  1  0  0  0
 48 65  1  0  0  0
 48117  1  0  0  0
 49 50  1  0  0  0
 49 53  1  0  0  0
 49 64  1  0  0  0
 49118  1  0  0  0
 50 51  1  0  0  0
 50119  1  0  0  0
 50120  1  0  0  0
 51 52  1  0  0  0
 51121  1  0  0  0
 51122  1  0  0  0
 52123  1  0  0  0
 52124  1  0  0  0
 53 54  1  0  0  0
 54 55  2  0  0  0
 54125  1  0  0  0
 55 57  1  0  0  0
 55126  1  0  0  0
 56 69  2  0  0  0
 57 58  2  0  0  0
 57127  1  0  0  0
 58128  1  0  0  0
 59 60  1  0  0  0
 59 61  1  0  0  0
 59 62  1  0  0  0
 60129  1  0  0  0
 60130  1  0  0  0
 60131  1  0  0  0
 61132  1  0  0  0
 61133  1  0  0  0
 61134  1  0  0  0
 62135  1  0  0  0
 62136  1  0  0  0
 62137  1  0  0  0
 63 65  1  0  0  0
 63138  1  0  0  0
 63139  1  0  0  0
 63140  1  0  0  0
 64141  1  0  0  0
 65142  1  0  0  0
 68 81  1  0  0  0
 71 73  2  0  0  0
 71 75  1  0  0  0
 71143  1  0  0  0
 72 74  1  0  0  0
 72 75  2  0  0  0
 72144  1  0  0  0
 73 76  1  0  0  0
 73145  1  0  0  0
 74 76  2  0  0  0
 74146  1  0  0  0
 75 79  1  0  0  0
 76 83  1  0  0  0
 77147  1  0  0  0
 77148  1  0  0  0
 77149  1  0  0  0
 77 82  1  0  0  0
 78 82  1  0  0  0
 78150  1  0  0  0
 78151  1  0  0  0
 78152  1  0  0  0
 79 80  1  0  0  0
 79153  1  0  0  0
 79154  1  0  0  0
 80 82  1  0  0  0
 80155  1  0  0  0
 80156  1  0  0  0
 81 82  1  0  0  0
 81157  1  0  0  0
 81158  1  0  0  0
 83159  1  0  0  0
M  ISO  4   1 100  68 101  81 101  83 100
M  END
> <chiral flag>
0

> <version>
0

> <s_m_source_file>
/data/baiqing/PycharmProjects/Reinvent-master-3.2/result/LINK_invent/BTK/process_docking_weight1_custom_product_contain_oxygen_bond_distance_aromatic_linkinvent_7_9_3/rearranged_h_0135.sdf

> <i_m_source_file_index>
49

> <r_mmod_Potential_Energy-OPLS-2005>
61.0021133422852

> <r_mmod_Stretch_Energy-OPLS-2005>
68.8914413452148

> <r_mmod_Bend_Energy-OPLS-2005>
133.617828369141

> <r_mmod_Torsional_Energy-OPLS-2005>
236.130462646484

> <r_mmod_Improper_Torsional_Energy-OPLS-2005>
4.96655750274658

> <r_mmod_Van_der_Waal_Energy-OPLS-2005>
147.445678710938

> <r_mmod_Electrostatic_Energy-OPLS-2005>
-375.495269775391

> <r_mmod_Solvation_Energy-OPLS-2005>
-193.725555419922

> <b_mmod_Minimization_Converged-OPLS-2005>
0

> <r_mmod_RMS_Derivative-OPLS-2005>
4.85659694671631

$$$$
49
                    3D
 Structure written by MMmdl.
159167  0  0  1  0            999 V2000
  -30.5848  -14.7392   20.4614 C   0  0  0  0  0  0
  -30.4393  -12.4474   19.4752 C   0  0  0  0  0  0
  -29.5133  -12.5132   18.2391 C   0  0  0  0  0  0
  -28.0385  -12.3348   18.6498 C   0  0  0  0  0  0
  -27.6466  -13.2239   19.8594 C   0  0  2  0  0  0
  -28.6901  -13.1316   20.9952 C   0  0  0  0  0  0
  -25.2508  -13.8114   20.5657 C   0  0  0  0  0  0
  -24.1799  -13.0391   20.9196 C   0  0  0  0  0  0
  -24.6394  -11.6876   20.8752 C   0  0  0  0  0  0
  -23.9068  -10.4264   21.0413 C   0  0  0  0  0  0
  -24.3617   -9.4181   21.9192 C   0  0  0  0  0  0
  -23.6284   -8.2225   22.0759 C   0  0  0  0  0  0
  -22.4269   -8.0269   21.3546 C   0  0  0  0  0  0
  -21.9907   -9.0245   20.4649 C   0  0  0  0  0  0
  -22.7242  -10.2118   20.3060 C   0  0  0  0  0  0
  -21.6848   -6.0730   22.5277 C   0  0  0  0  0  0
  -21.4007   -6.5633   23.8209 C   0  0  0  0  0  0
  -21.3655   -5.6788   24.9173 C   0  0  0  0  0  0
  -21.6045   -4.3052   24.7223 C   0  0  0  0  0  0
  -21.8821   -3.8144   23.4345 C   0  0  0  0  0  0
  -21.9190   -4.6958   22.3401 C   0  0  0  0  0  0
  -22.7828  -13.5202   21.1854 C   0  0  0  0  0  0
  -22.1662   -4.2146   21.0979 F   0  0  0  0  0  0
  -21.5631   -3.4539   25.7737 F   0  0  0  0  0  0
  -29.9957  -13.4938   20.4253 N   0  0  0  0  0  0
  -26.2959  -12.9336   20.3310 N   0  0  0  0  0  0
  -25.9333  -11.6490   20.5783 N   0  0  0  0  0  0
  -22.0470  -12.8206   22.0416 N   0  0  0  0  0  0
  -25.4160  -15.1800   20.3990 N   0  0  0  0  0  0
  -31.7554  -14.8753   20.0886 O   0  0  0  0  0  0
  -21.6630   -6.8872   21.4240 O   0  0  0  0  0  0
  -22.3519  -14.5513   20.6702 O   0  0  0  0  0  0
  -24.6290  -31.8542   23.1968 C   0  0  0  0  0  0
  -25.9117  -32.4747   23.8322 C   0  0  1  0  0  0
  -27.2300  -27.2704   20.1211 C   0  0  0  0  0  0
  -25.5915  -33.8551   24.2241 N   0  0  0  0  0  0
  -23.4250  -30.4746   21.5403 C   0  0  2  0  0  0
  -24.8725  -28.9170   20.1096 C   0  0  0  0  0  0
  -22.7490  -29.4587   22.4925 C   0  0  0  0  0  0
  -18.0283  -28.1370   22.8484 C   0  0  0  0  0  0
  -24.1483  -36.7278   23.2643 C   0  0  0  0  0  0
  -25.9689  -30.7685   21.3750 C   0  0  0  0  0  0
  -26.0406  -29.3915   20.7170 C   0  0  0  0  0  0
  -27.2165  -28.5784   20.7125 C   0  0  0  0  0  0
  -26.0336  -26.8510   19.4978 C   0  0  0  0  0  0
  -24.8734  -27.6547   19.4927 C   0  0  0  0  0  0
  -23.6415  -29.8027   20.1575 C   0  0  0  0  0  0
  -25.4111  -36.3066   24.0326 C   0  0  1  0  0  0
  -20.5887  -28.3675   23.1278 C   0  0  2  0  0  0
  -20.6764  -26.9394   22.5414 C   0  0  0  0  0  0
  -19.5747  -26.6370   21.5208 C   0  0  0  0  0  0
  -18.1924  -26.7913   22.1618 C   0  0  0  0  0  0
  -19.1538  -28.8841   23.2875 C   0  0  0  0  0  0
  -18.9466  -30.1444   23.8891 C   0  0  0  0  0  0
  -17.6468  -30.6577   24.0556 C   0  0  0  0  0  0
  -25.9056  -34.9436   23.5091 C   0  0  0  0  0  0
  -16.5357  -29.9072   23.6333 C   0  0  0  0  0  0
  -16.7273  -28.6488   23.0354 C   0  0  0  0  0  0
  -26.4485  -31.6583   25.0725 C   0  0  0  0  0  0
  -25.3711  -31.3725   26.1451 C   0  0  0  0  0  0
  -27.0340  -30.3006   24.6211 C   0  0  0  0  0  0
  -27.6041  -32.4336   25.7490 C   0  0  0  0  0  0
  -27.5577  -37.1787   24.8462 C   0  0  0  0  0  0
  -21.4195  -29.3029   22.3678 N   0  0  0  0  0  0
  -26.4281  -37.3771   23.9420 N   0  0  0  0  0  0
  -24.6932  -31.0513   22.0936 N   0  0  0  0  0  0
  -23.4198  -28.8141   23.3028 O   0  0  0  0  0  0
  -28.3654  -26.4338   20.2027 O   0  0  0  0  0  0
  -26.5646  -34.8914   22.4671 O   0  0  0  0  0  0
  -23.5444  -32.1362   23.7271 O   0  0  0  0  0  0
  -30.4124  -19.1084   19.5750 C   0  0  0  0  0  0
  -29.4176  -19.4899   20.4497 C   0  0  0  0  0  0
  -29.0598  -18.2059   21.0618 C   0  0  0  0  0  0
  -29.8632  -17.1943   20.5276 C   0  0  0  0  0  0
  -26.5708  -18.2108   21.5648 C   0  0  0  0  0  0
  -30.7179  -22.5379   20.0807 C   0  0  0  0  0  0
  -28.7837  -20.9381   20.7412 C   0  0  0  0  0  0
  -27.9893  -18.0114   22.1128 C   0  0  0  0  0  0
  -28.4674  -23.7043   20.5224 C   0  0  0  0  0  0
  -28.4825  -25.0543   19.6238 C   0  0  0  0  0  0
  -29.1943  -22.3328   20.0165 C   0  0  1  0  0  0
  -29.7805  -15.8177   20.7958 N   0  0  0  0  0  0
  -30.7008  -17.7547   19.6146 O   0  0  0  0  0  0
  -31.4798  -12.5790   19.1736 H   0  0  0  0  0  0
  -30.3884  -11.4636   19.9444 H   0  0  0  0  0  0
  -29.7954  -11.7482   17.5146 H   0  0  0  0  0  0
  -29.6386  -13.4734   17.7355 H   0  0  0  0  0  0
  -27.8931  -11.2841   18.9034 H   0  0  0  0  0  0
  -27.3816  -12.5363   17.8030 H   0  0  0  0  0  0
  -27.6480  -14.2507   19.4929 H   0  0  0  0  0  0
  -28.7231  -12.1228   21.4093 H   0  0  0  0  0  0
  -28.4211  -13.7868   21.8251 H   0  0  0  0  0  0
  -25.2764   -9.5655   22.4766 H   0  0  0  0  0  0
  -23.9987   -7.4618   22.7485 H   0  0  0  0  0  0
  -21.0836   -8.8766   19.8959 H   0  0  0  0  0  0
  -22.3705  -10.9659   19.6168 H   0  0  0  0  0  0
  -21.1994   -7.6142   23.9711 H   0  0  0  0  0  0
  -21.1478   -6.0519   25.9075 H   0  0  0  0  0  0
  -22.0605   -2.7608   23.2847 H   0  0  0  0  0  0
  -22.4082  -11.9854   22.4787 H   0  0  0  0  0  0
  -21.1103  -13.1253   22.2651 H   0  0  0  0  0  0
  -24.6435  -15.8281   20.5022 H   0  0  0  0  0  0
  -26.2577  -15.6182   20.0503 H   0  0  0  0  0  0
  -26.7184  -32.5388   23.1060 H   0  0  0  0  0  0
  -25.0042  -33.9698   25.0372 H   0  0  0  0  0  0
  -22.7206  -31.2954   21.3921 H   0  0  0  0  0  0
  -23.3756  -35.9599   23.3287 H   0  0  0  0  0  0
  -24.3578  -36.8924   22.2064 H   0  0  0  0  0  0
  -23.7222  -37.6465   23.6684 H   0  0  0  0  0  0
  -26.1083  -31.5300   20.6062 H   0  0  0  0  0  0
  -26.8458  -30.8160   22.0091 H   0  0  0  0  0  0
  -28.1120  -28.9391   21.1988 H   0  0  0  0  0  0
  -25.9567  -25.8801   19.0343 H   0  0  0  0  0  0
  -23.9747  -27.2812   19.0213 H   0  0  0  0  0  0
  -23.7604  -30.5759   19.3980 H   0  0  0  0  0  0
  -22.7604  -29.2326   19.8575 H   0  0  0  0  0  0
  -25.1286  -36.1910   25.0818 H   0  0  0  0  0  0
  -20.9973  -28.3241   24.1399 H   0  0  0  0  0  0
  -20.5640  -26.2284   23.3614 H   0  0  0  0  0  0
  -21.6633  -26.7398   22.1223 H   0  0  0  0  0  0
  -19.6909  -25.6278   21.1239 H   0  0  0  0  0  0
  -19.6689  -27.3178   20.6735 H   0  0  0  0  0  0
  -17.4196  -26.6669   21.4017 H   0  0  0  0  0  0
  -18.0318  -26.0041   22.8999 H   0  0  0  0  0  0
  -19.7946  -30.7257   24.2254 H   0  0  0  0  0  0
  -17.5022  -31.6259   24.5153 H   0  0  0  0  0  0
  -15.5357  -30.2971   23.7658 H   0  0  0  0  0  0
  -15.8669  -28.0804   22.7077 H   0  0  0  0  0  0
  -24.5900  -30.7053   25.7783 H   0  0  0  0  0  0
  -24.8886  -32.2888   26.4869 H   0  0  0  0  0  0
  -25.8038  -30.8920   27.0237 H   0  0  0  0  0  0
  -26.2926  -29.6751   24.1224 H   0  0  0  0  0  0
  -27.4014  -29.7270   25.4729 H   0  0  0  0  0  0
  -27.8795  -30.4288   23.9450 H   0  0  0  0  0  0
  -27.2654  -33.3652   26.2033 H   0  0  0  0  0  0
  -28.3856  -32.6876   25.0317 H   0  0  0  0  0  0
  -28.0694  -31.8487   26.5433 H   0  0  0  0  0  0
  -28.2571  -38.0107   24.7544 H   0  0  0  0  0  0
  -28.1099  -36.2644   24.6234 H   0  0  0  0  0  0
  -27.2313  -37.1366   25.8868 H   0  0  0  0  0  0
  -20.9380  -29.8763   21.6896 H   0  0  0  0  0  0
  -26.0155  -38.2839   24.1448 H   0  0  0  0  0  0
  -31.0148  -19.6525   18.8616 H   0  0  0  0  0  0
  -25.8248  -17.9190   22.3048 H   0  0  0  0  0  0
  -26.4082  -17.6143   20.6693 H   0  0  0  0  0  0
  -26.3748  -19.2480   21.3016 H   0  0  0  0  0  0
  -31.2647  -21.7165   19.6249 H   0  0  0  0  0  0
  -31.0561  -22.6230   21.1140 H   0  0  0  0  0  0
  -31.0256  -23.4438   19.5593 H   0  0  0  0  0  0
  -28.8922  -21.0909   21.8154 H   0  0  0  0  0  0
  -27.7119  -20.8305   20.5840 H   0  0  0  0  0  0
  -28.1707  -18.7061   22.9336 H   0  0  0  0  0  0
  -28.0773  -17.0118   22.5392 H   0  0  0  0  0  0
  -27.4219  -23.4749   20.7290 H   0  0  0  0  0  0
  -28.8896  -23.9530   21.4963 H   0  0  0  0  0  0
  -27.8101  -24.9227   18.7784 H   0  0  0  0  0  0
  -29.4617  -25.0831   19.1482 H   0  0  0  0  0  0
  -28.9294  -22.2124   18.9646 H   0  0  0  0  0  0
  -28.9092  -15.5327   21.2134 H   0  0  0  0  0  0
  1 25  1  0  0  0
  1 30  2  0  0  0
  1 82  1  0  0  0
  2  3  1  0  0  0
  2 25  1  0  0  0
  2 84  1  0  0  0
  2 85  1  0  0  0
  3  4  1  0  0  0
  3 86  1  0  0  0
  3 87  1  0  0  0
  4  5  1  0  0  0
  4 88  1  0  0  0
  4 89  1  0  0  0
  5  6  1  0  0  0
  5 26  1  0  0  0
  5 90  1  0  0  0
  6 25  1  0  0  0
  6 91  1  0  0  0
  6 92  1  0  0  0
  7  8  2  0  0  0
  7 26  1  0  0  0
  7 29  1  0  0  0
  8  9  1  0  0  0
  8 22  1  0  0  0
  9 10  1  0  0  0
  9 27  2  0  0  0
 10 11  2  0  0  0
 10 15  1  0  0  0
 11 12  1  0  0  0
 11 93  1  0  0  0
 12 13  2  0  0  0
 12 94  1  0  0  0
 13 14  1  0  0  0
 13 31  1  0  0  0
 14 15  2  0  0  0
 14 95  1  0  0  0
 15 96  1  0  0  0
 16 17  2  0  0  0
 16 21  1  0  0  0
 16 31  1  0  0  0
 17 18  1  0  0  0
 17 97  1  0  0  0
 18 19  2  0  0  0
 18 98  1  0  0  0
 19 20  1  0  0  0
 19 24  1  0  0  0
 20 21  2  0  0  0
 20 99  1  0  0  0
 21 23  1  0  0  0
 22 28  1  0  0  0
 22 32  2  0  0  0
 26 27  1  0  0  0
 28100  1  0  0  0
 28101  1  0  0  0
 29102  1  0  0  0
 29103  1  0  0  0
 33 34  1  0  0  0
 33 66  1  0  0  0
 33 70  2  0  0  0
 34 36  1  0  0  0
 34 59  1  0  0  0
 34104  1  0  0  0
 35 44  2  0  0  0
 35 45  1  0  0  0
 35 68  1  0  0  0
 36 56  1  0  0  0
 36105  1  0  0  0
 37 39  1  0  0  0
 37 47  1  0  0  0
 37 66  1  0  0  0
 37106  1  0  0  0
 38 43  2  0  0  0
 38 46  1  0  0  0
 38 47  1  0  0  0
 39 64  1  0  0  0
 39 67  2  0  0  0
 40 52  1  0  0  0
 40 53  2  0  0  0
 40 58  1  0  0  0
 41107  1  0  0  0
 41108  1  0  0  0
 41109  1  0  0  0
 41 48  1  0  0  0
 42 43  1  0  0  0
 42 66  1  0  0  0
 42110  1  0  0  0
 42111  1  0  0  0
 43 44  1  0  0  0
 44112  1  0  0  0
 45 46  2  0  0  0
 45113  1  0  0  0
 46114  1  0  0  0
 47115  1  0  0  0
 47116  1  0  0  0
 48 56  1  0  0  0
 48 65  1  0  0  0
 48117  1  0  0  0
 49 50  1  0  0  0
 49 53  1  0  0  0
 49 64  1  0  0  0
 49118  1  0  0  0
 50 51  1  0  0  0
 50119  1  0  0  0
 50120  1  0  0  0
 51 52  1  0  0  0
 51121  1  0  0  0
 51122  1  0  0  0
 52123  1  0  0  0
 52124  1  0  0  0
 53 54  1  0  0  0
 54 55  2  0  0  0
 54125  1  0  0  0
 55 57  1  0  0  0
 55126  1  0  0  0
 56 69  2  0  0  0
 57 58  2  0  0  0
 57127  1  0  0  0
 58128  1  0  0  0
 59 60  1  0  0  0
 59 61  1  0  0  0
 59 62  1  0  0  0
 60129  1  0  0  0
 60130  1  0  0  0
 60131  1  0  0  0
 61132  1  0  0  0
 61133  1  0  0  0
 61134  1  0  0  0
 62135  1  0  0  0
 62136  1  0  0  0
 62137  1  0  0  0
 63 65  1  0  0  0
 63138  1  0  0  0
 63139  1  0  0  0
 63140  1  0  0  0
 64141  1  0  0  0
 65142  1  0  0  0
 68 80  1  0  0  0
 71 72  2  0  0  0
 71 83  1  0  0  0
 71143  1  0  0  0
 72 73  1  0  0  0
 72 77  1  0  0  0
 73 74  2  0  0  0
 73 78  1  0  0  0
 74 82  1  0  0  0
 74 83  1  0  0  0
 75 78  1  0  0  0
 75144  1  0  0  0
 75145  1  0  0  0
 75146  1  0  0  0
 76147  1  0  0  0
 76148  1  0  0  0
 76149  1  0  0  0
 76 81  1  0  0  0
 77 81  1  0  0  0
 77150  1  0  0  0
 77151  1  0  0  0
 78152  1  0  0  0
 78153  1  0  0  0
 79 80  1  0  0  0
 79 81  1  0  0  0
 79154  1  0  0  0
 79155  1  0  0  0
 80156  1  0  0  0
 80157  1  0  0  0
 81158  1  0  0  0
 82159  1  0  0  0
M  ISO  4   1 100  68 101  80 101  82 100
M  END
> <chiral flag>
0

> <version>
0

> <s_m_source_file>
/data/baiqing/PycharmProjects/Reinvent-master-3.2/result/LINK_invent/BTK/process_docking_weight1_custom_product_contain_oxygen_bond_distance_aromatic_linkinvent_7_9_3/rearranged_h_0135.sdf

> <i_m_source_file_index>
50

> <r_mmod_Potential_Energy-OPLS-2005>
131.575576782227

> <r_mmod_Stretch_Energy-OPLS-2005>
118.211288452148

> <r_mmod_Bend_Energy-OPLS-2005>
191.228439331055

> <r_mmod_Torsional_Energy-OPLS-2005>
208.421051025391

> <r_mmod_Improper_Torsional_Energy-OPLS-2005>
3.60935664176941

> <r_mmod_Van_der_Waal_Energy-OPLS-2005>
110.953971862793

> <r_mmod_Electrostatic_Energy-OPLS-2005>
-371.20068359375

> <r_mmod_Solvation_Energy-OPLS-2005>
-207.45198059082

> <b_mmod_Minimization_Converged-OPLS-2005>
0

> <r_mmod_RMS_Derivative-OPLS-2005>
0.878076791763306

$$$$
50
                    3D
 Structure written by MMmdl.
160168  0  0  1  0            999 V2000
  -30.6570  -14.5577   20.5277 C   0  0  0  0  0  0
  -30.4410  -12.3421   19.4596 C   0  0  0  0  0  0
  -29.5142  -12.4979   18.2310 C   0  0  0  0  0  0
  -28.0331  -12.3474   18.6377 C   0  0  0  0  0  0
  -27.6640  -13.2092   19.8757 C   0  0  2  0  0  0
  -28.7053  -13.0227   21.0080 C   0  0  0  0  0  0
  -25.2583  -13.8172   20.5663 C   0  0  0  0  0  0
  -24.1823  -13.0450   20.9177 C   0  0  0  0  0  0
  -24.6377  -11.6919   20.8738 C   0  0  0  0  0  0
  -23.9051  -10.4287   21.0397 C   0  0  0  0  0  0
  -24.3602   -9.4208   21.9169 C   0  0  0  0  0  0
  -23.6266   -8.2252   22.0763 C   0  0  0  0  0  0
  -22.4247   -8.0282   21.3555 C   0  0  0  0  0  0
  -21.9873   -9.0261   20.4662 C   0  0  0  0  0  0
  -22.7219  -10.2115   20.3062 C   0  0  0  0  0  0
  -21.6835   -6.0724   22.5270 C   0  0  0  0  0  0
  -21.4018   -6.5630   23.8203 C   0  0  0  0  0  0
  -21.3674   -5.6787   24.9167 C   0  0  0  0  0  0
  -21.6048   -4.3049   24.7226 C   0  0  0  0  0  0
  -21.8824   -3.8142   23.4345 C   0  0  0  0  0  0
  -21.9181   -4.6956   22.3396 C   0  0  0  0  0  0
  -22.7821  -13.5257   21.1828 C   0  0  0  0  0  0
  -22.1649   -4.2149   21.0966 F   0  0  0  0  0  0
  -21.5637   -3.4539   25.7740 F   0  0  0  0  0  0
  -30.0369  -13.3422   20.4656 N   0  0  0  0  0  0
  -26.3022  -12.9338   20.3323 N   0  0  0  0  0  0
  -25.9310  -11.6505   20.5754 N   0  0  0  0  0  0
  -22.0434  -12.8284   22.0353 N   0  0  0  0  0  0
  -25.4311  -15.1873   20.4058 N   0  0  0  0  0  0
  -31.7760  -14.7513   20.0447 O   0  0  0  0  0  0
  -21.6642   -6.8849   21.4225 O   0  0  0  0  0  0
  -22.3509  -14.5566   20.6667 O   0  0  0  0  0  0
  -24.6147  -31.8647   23.2046 C   0  0  0  0  0  0
  -25.9017  -32.4798   23.8366 C   0  0  1  0  0  0
  -27.2477  -27.4043   20.1080 C   0  0  0  0  0  0
  -25.5851  -33.8598   24.2308 N   0  0  0  0  0  0
  -23.4078  -30.4829   21.5466 C   0  0  2  0  0  0
  -24.8600  -28.9463   20.1158 C   0  0  0  0  0  0
  -22.7417  -29.4611   22.4966 C   0  0  0  0  0  0
  -18.0264  -28.1324   22.8498 C   0  0  0  0  0  0
  -24.1482  -36.7329   23.2643 C   0  0  0  0  0  0
  -25.9400  -30.8236   21.3603 C   0  0  0  0  0  0
  -26.0216  -29.4542   20.7109 C   0  0  0  0  0  0
  -27.2196  -28.6959   20.6987 C   0  0  0  0  0  0
  -26.0676  -26.9271   19.4960 C   0  0  0  0  0  0
  -24.8821  -27.6837   19.5001 C   0  0  0  0  0  0
  -23.6187  -29.8101   20.1637 C   0  0  0  0  0  0
  -25.4089  -36.3112   24.0355 C   0  0  1  0  0  0
  -20.5860  -28.3632   23.1299 C   0  0  2  0  0  0
  -20.6742  -26.9350   22.5415 C   0  0  0  0  0  0
  -19.5719  -26.6346   21.5200 C   0  0  0  0  0  0
  -18.1903  -26.7878   22.1624 C   0  0  0  0  0  0
  -19.1520  -28.8796   23.2899 C   0  0  0  0  0  0
  -18.9446  -30.1407   23.8922 C   0  0  0  0  0  0
  -17.6452  -30.6556   24.0537 C   0  0  0  0  0  0
  -25.9027  -34.9467   23.5148 C   0  0  0  0  0  0
  -16.5336  -29.9066   23.6291 C   0  0  0  0  0  0
  -16.7255  -28.6450   23.0359 C   0  0  0  0  0  0
  -26.4447  -31.6560   25.0698 C   0  0  0  0  0  0
  -25.3719  -31.3676   26.1466 C   0  0  0  0  0  0
  -27.0248  -30.2987   24.6053 C   0  0  0  0  0  0
  -27.6024  -32.4284   25.7452 C   0  0  0  0  0  0
  -27.5583  -37.1805   24.8454 C   0  0  0  0  0  0
  -21.4144  -29.3012   22.3723 N   0  0  0  0  0  0
  -26.4285  -37.3785   23.9422 N   0  0  0  0  0  0
  -24.6721  -31.0718   22.0945 N   0  0  0  0  0  0
  -23.4174  -28.8162   23.3031 O   0  0  0  0  0  0
  -28.4052  -26.6377   20.1149 O   0  0  0  0  0  0
  -26.5617  -34.8926   22.4726 O   0  0  0  0  0  0
  -23.5331  -32.1407   23.7407 O   0  0  0  0  0  0
  -31.5302  -18.1937   21.3079 C   0  0  0  0  0  0
  -32.1722  -19.4103   21.6083 C   0  0  0  0  0  0
  -29.7051  -19.4501   20.3055 C   0  0  0  0  0  0
  -30.2912  -18.1894   20.6457 C   0  0  0  0  0  0
  -31.6006  -20.6534   21.2482 C   0  0  0  0  0  0
  -30.3348  -20.6979   20.6053 C   0  0  0  0  0  0
  -32.4240  -21.9076   21.4893 C   0  0  0  0  0  0
  -30.6088  -25.1906   21.3715 C   0  0  0  0  0  0
  -29.6383  -16.8560   20.2056 C   0  0  0  0  0  0
  -28.2488  -25.2337   20.4569 C   0  0  0  0  0  0
  -29.3932  -22.9370   21.0505 C   0  0  0  0  0  0
  -29.5824  -24.4155   20.5212 C   0  0  2  0  0  0
  -29.8841  -15.5880   20.9516 N   0  0  0  0  0  0
  -29.7846  -21.8910   20.1254 O   0  0  0  0  0  0
  -31.4849  -12.4534   19.1616 H   0  0  0  0  0  0
  -30.3654  -11.3388   19.8779 H   0  0  0  0  0  0
  -29.7702  -11.7591   17.4731 H   0  0  0  0  0  0
  -29.6752  -13.4719   17.7624 H   0  0  0  0  0  0
  -27.8534  -11.2927   18.8537 H   0  0  0  0  0  0
  -27.3864  -12.5958   17.7941 H   0  0  0  0  0  0
  -27.7029  -14.2498   19.5500 H   0  0  0  0  0  0
  -28.6902  -11.9935   21.3737 H   0  0  0  0  0  0
  -28.4550  -13.6419   21.8699 H   0  0  0  0  0  0
  -25.2738   -9.5725   22.4742 H   0  0  0  0  0  0
  -23.9999   -7.4656   22.7497 H   0  0  0  0  0  0
  -21.0802   -8.8793   19.8956 H   0  0  0  0  0  0
  -22.3686  -10.9666   19.6182 H   0  0  0  0  0  0
  -21.2019   -7.6139   23.9724 H   0  0  0  0  0  0
  -21.1485   -6.0498   25.9063 H   0  0  0  0  0  0
  -22.0587   -2.7616   23.2846 H   0  0  0  0  0  0
  -22.4042  -11.9964   22.4818 H   0  0  0  0  0  0
  -21.1077  -13.1386   22.2582 H   0  0  0  0  0  0
  -24.6725  -15.8493   20.5245 H   0  0  0  0  0  0
  -26.2797  -15.6219   20.0697 H   0  0  0  0  0  0
  -26.7098  -32.5504   23.1128 H   0  0  0  0  0  0
  -24.9925  -33.9745   25.0410 H   0  0  0  0  0  0
  -22.6972  -31.2999   21.4016 H   0  0  0  0  0  0
  -23.3740  -35.9662   23.3271 H   0  0  0  0  0  0
  -24.3605  -36.8968   22.2067 H   0  0  0  0  0  0
  -23.7240  -37.6532   23.6674 H   0  0  0  0  0  0
  -26.0555  -31.5839   20.5864 H   0  0  0  0  0  0
  -26.8253  -30.8810   21.9816 H   0  0  0  0  0  0
  -28.1149  -29.0905   21.1592 H   0  0  0  0  0  0
  -26.0487  -25.9710   18.9958 H   0  0  0  0  0  0
  -23.9978  -27.2850   19.0228 H   0  0  0  0  0  0
  -23.7177  -30.5809   19.3985 H   0  0  0  0  0  0
  -22.7449  -29.2232   19.8742 H   0  0  0  0  0  0
  -25.1251  -36.1984   25.0849 H   0  0  0  0  0  0
  -20.9965  -28.3178   24.1410 H   0  0  0  0  0  0
  -20.5590  -26.2230   23.3604 H   0  0  0  0  0  0
  -21.6614  -26.7350   22.1230 H   0  0  0  0  0  0
  -19.6872  -25.6267   21.1207 H   0  0  0  0  0  0
  -19.6640  -27.3171   20.6740 H   0  0  0  0  0  0
  -17.4162  -26.6622   21.4035 H   0  0  0  0  0  0
  -18.0302  -26.0009   22.9010 H   0  0  0  0  0  0
  -19.7928  -30.7187   24.2314 H   0  0  0  0  0  0
  -17.5012  -31.6245   24.5111 H   0  0  0  0  0  0
  -15.5345  -30.2971   23.7594 H   0  0  0  0  0  0
  -15.8651  -28.0764   22.7105 H   0  0  0  0  0  0
  -24.5897  -30.7000   25.7834 H   0  0  0  0  0  0
  -24.8905  -32.2835   26.4900 H   0  0  0  0  0  0
  -25.8098  -30.8880   27.0227 H   0  0  0  0  0  0
  -26.2776  -29.6783   24.1090 H   0  0  0  0  0  0
  -27.3995  -29.7180   25.4487 H   0  0  0  0  0  0
  -27.8620  -30.4279   23.9192 H   0  0  0  0  0  0
  -27.2634  -33.3581   26.2017 H   0  0  0  0  0  0
  -28.3817  -32.6830   25.0268 H   0  0  0  0  0  0
  -28.0685  -31.8413   26.5365 H   0  0  0  0  0  0
  -28.2573  -38.0128   24.7531 H   0  0  0  0  0  0
  -28.1113  -36.2668   24.6223 H   0  0  0  0  0  0
  -27.2332  -37.1385   25.8865 H   0  0  0  0  0  0
  -20.9293  -29.8771   21.6988 H   0  0  0  0  0  0
  -26.0176  -38.2866   24.1433 H   0  0  0  0  0  0
  -32.0158  -17.2577   21.5433 H   0  0  0  0  0  0
  -33.1458  -19.3786   22.0773 H   0  0  0  0  0  0
  -28.7681  -19.4600   19.7664 H   0  0  0  0  0  0
  -33.4791  -21.6679   21.6264 H   0  0  0  0  0  0
  -32.0935  -22.4275   22.3885 H   0  0  0  0  0  0
  -32.3573  -22.5849   20.6388 H   0  0  0  0  0  0
  -30.8185  -26.1697   20.9387 H   0  0  0  0  0  0
  -31.5602  -24.6661   21.4488 H   0  0  0  0  0  0
  -30.2301  -25.3562   22.3815 H   0  0  0  0  0  0
  -29.8869  -16.6908   19.1564 H   0  0  0  0  0  0
  -28.5586  -17.0120   20.2189 H   0  0  0  0  0  0
  -27.7544  -25.1845   21.4287 H   0  0  0  0  0  0
  -27.5954  -24.7304   19.7462 H   0  0  0  0  0  0
  -28.3380  -22.7749   21.2740 H   0  0  0  0  0  0
  -29.8882  -22.8145   22.0129 H   0  0  0  0  0  0
  -29.9789  -24.3576   19.5067 H   0  0  0  0  0  0
  -29.0884  -15.2825   21.4909 H   0  0  0  0  0  0
  1 25  1  0  0  0
  1 30  2  0  0  0
  1 83  1  0  0  0
  2  3  1  0  0  0
  2 25  1  0  0  0
  2 85  1  0  0  0
  2 86  1  0  0  0
  3  4  1  0  0  0
  3 87  1  0  0  0
  3 88  1  0  0  0
  4  5  1  0  0  0
  4 89  1  0  0  0
  4 90  1  0  0  0
  5  6  1  0  0  0
  5 26  1  0  0  0
  5 91  1  0  0  0
  6 25  1  0  0  0
  6 92  1  0  0  0
  6 93  1  0  0  0
  7  8  2  0  0  0
  7 26  1  0  0  0
  7 29  1  0  0  0
  8  9  1  0  0  0
  8 22  1  0  0  0
  9 10  1  0  0  0
  9 27  2  0  0  0
 10 11  2  0  0  0
 10 15  1  0  0  0
 11 12  1  0  0  0
 11 94  1  0  0  0
 12 13  2  0  0  0
 12 95  1  0  0  0
 13 14  1  0  0  0
 13 31  1  0  0  0
 14 15  2  0  0  0
 14 96  1  0  0  0
 15 97  1  0  0  0
 16 17  2  0  0  0
 16 21  1  0  0  0
 16 31  1  0  0  0
 17 18  1  0  0  0
 17 98  1  0  0  0
 18 19  2  0  0  0
 18 99  1  0  0  0
 19 20  1  0  0  0
 19 24  1  0  0  0
 20 21  2  0  0  0
 20100  1  0  0  0
 21 23  1  0  0  0
 22 28  1  0  0  0
 22 32  2  0  0  0
 26 27  1  0  0  0
 28101  1  0  0  0
 28102  1  0  0  0
 29103  1  0  0  0
 29104  1  0  0  0
 33 34  1  0  0  0
 33 66  1  0  0  0
 33 70  2  0  0  0
 34 36  1  0  0  0
 34 59  1  0  0  0
 34105  1  0  0  0
 35 44  2  0  0  0
 35 45  1  0  0  0
 35 68  1  0  0  0
 36 56  1  0  0  0
 36106  1  0  0  0
 37 39  1  0  0  0
 37 47  1  0  0  0
 37 66  1  0  0  0
 37107  1  0  0  0
 38 43  2  0  0  0
 38 46  1  0  0  0
 38 47  1  0  0  0
 39 64  1  0  0  0
 39 67  2  0  0  0
 40 52  1  0  0  0
 40 53  2  0  0  0
 40 58  1  0  0  0
 41108  1  0  0  0
 41109  1  0  0  0
 41110  1  0  0  0
 41 48  1  0  0  0
 42 43  1  0  0  0
 42 66  1  0  0  0
 42111  1  0  0  0
 42112  1  0  0  0
 43 44  1  0  0  0
 44113  1  0  0  0
 45 46  2  0  0  0
 45114  1  0  0  0
 46115  1  0  0  0
 47116  1  0  0  0
 47117  1  0  0  0
 48 56  1  0  0  0
 48 65  1  0  0  0
 48118  1  0  0  0
 49 50  1  0  0  0
 49 53  1  0  0  0
 49 64  1  0  0  0
 49119  1  0  0  0
 50 51  1  0  0  0
 50120  1  0  0  0
 50121  1  0  0  0
 51 52  1  0  0  0
 51122  1  0  0  0
 51123  1  0  0  0
 52124  1  0  0  0
 52125  1  0  0  0
 53 54  1  0  0  0
 54 55  2  0  0  0
 54126  1  0  0  0
 55 57  1  0  0  0
 55127  1  0  0  0
 56 69  2  0  0  0
 57 58  2  0  0  0
 57128  1  0  0  0
 58129  1  0  0  0
 59 60  1  0  0  0
 59 61  1  0  0  0
 59 62  1  0  0  0
 60130  1  0  0  0
 60131  1  0  0  0
 60132  1  0  0  0
 61133  1  0  0  0
 61134  1  0  0  0
 61135  1  0  0  0
 62136  1  0  0  0
 62137  1  0  0  0
 62138  1  0  0  0
 63 65  1  0  0  0
 63139  1  0  0  0
 63140  1  0  0  0
 63141  1  0  0  0
 64142  1  0  0  0
 65143  1  0  0  0
 68 80  1  0  0  0
 71 72  2  0  0  0
 71 74  1  0  0  0
 71144  1  0  0  0
 72 75  1  0  0  0
 72145  1  0  0  0
 73 74  2  0  0  0
 73 76  1  0  0  0
 73146  1  0  0  0
 74 79  1  0  0  0
 75 76  2  0  0  0
 75 77  1  0  0  0
 76 84  1  0  0  0
 77147  1  0  0  0
 77148  1  0  0  0
 77149  1  0  0  0
 78150  1  0  0  0
 78151  1  0  0  0
 78152  1  0  0  0
 78 82  1  0  0  0
 79 83  1  0  0  0
 79153  1  0  0  0
 79154  1  0  0  0
 80 82  1  0  0  0
 80155  1  0  0  0
 80156  1  0  0  0
 81 82  1  0  0  0
 81 84  1  0  0  0
 81157  1  0  0  0
 81158  1  0  0  0
 82159  1  0  0  0
 83160  1  0  0  0
M  ISO  4   1 100  68 101  80 101  83 100
M  END
> <chiral flag>
0

> <version>
0

> <s_m_source_file>
/data/baiqing/PycharmProjects/Reinvent-master-3.2/result/LINK_invent/BTK/process_docking_weight1_custom_product_contain_oxygen_bond_distance_aromatic_linkinvent_7_9_3/rearranged_h_0135.sdf

> <i_m_source_file_index>
51

> <r_mmod_Potential_Energy-OPLS-2005>
-20.3154850006104

> <r_mmod_Stretch_Energy-OPLS-2005>
55.7253913879395

> <r_mmod_Bend_Energy-OPLS-2005>
115.145713806152

> <r_mmod_Torsional_Energy-OPLS-2005>
272.252288818359

> <r_mmod_Improper_Torsional_Energy-OPLS-2005>
8.85735702514648

> <r_mmod_Van_der_Waal_Energy-OPLS-2005>
143.767517089844

> <r_mmod_Electrostatic_Energy-OPLS-2005>
-421.450164794922

> <r_mmod_Solvation_Energy-OPLS-2005>
-216.993225097656

> <b_mmod_Minimization_Converged-OPLS-2005>
0

> <r_mmod_RMS_Derivative-OPLS-2005>
3.9560911655426

$$$$
51
                    3D
 Structure written by MMmdl.
159167  0  0  1  0            999 V2000
  -30.5005  -15.0029   20.4119 C   0  0  0  0  0  0
  -30.4470  -12.6306   19.4770 C   0  0  0  0  0  0
  -29.5185  -12.5242   18.2450 C   0  0  0  0  0  0
  -28.0553  -12.2984   18.6759 C   0  0  0  0  0  0
  -27.6230  -13.2434   19.8264 C   0  0  2  0  0  0
  -28.6708  -13.2954   20.9546 C   0  0  0  0  0  0
  -25.2454  -13.8199   20.5715 C   0  0  0  0  0  0
  -24.1775  -13.0428   20.9235 C   0  0  0  0  0  0
  -24.6388  -11.6911   20.8765 C   0  0  0  0  0  0
  -23.9072  -10.4286   21.0417 C   0  0  0  0  0  0
  -24.3625   -9.4202   21.9194 C   0  0  0  0  0  0
  -23.6297   -8.2238   22.0759 C   0  0  0  0  0  0
  -22.4280   -8.0279   21.3545 C   0  0  0  0  0  0
  -21.9917   -9.0255   20.4649 C   0  0  0  0  0  0
  -22.7247  -10.2131   20.3064 C   0  0  0  0  0  0
  -21.6852   -6.0739   22.5278 C   0  0  0  0  0  0
  -21.4012   -6.5640   23.8211 C   0  0  0  0  0  0
  -21.3659   -5.6791   24.9171 C   0  0  0  0  0  0
  -21.6044   -4.3054   24.7221 C   0  0  0  0  0  0
  -21.8821   -3.8149   23.4341 C   0  0  0  0  0  0
  -21.9192   -4.6967   22.3398 C   0  0  0  0  0  0
  -22.7795  -13.5205   21.1884 C   0  0  0  0  0  0
  -22.1663   -4.2154   21.0976 F   0  0  0  0  0  0
  -21.5630   -3.4537   25.7734 F   0  0  0  0  0  0
  -29.9265  -13.7334   20.3324 N   0  0  0  0  0  0
  -26.2861  -12.9415   20.3218 N   0  0  0  0  0  0
  -25.9315  -11.6552   20.5736 N   0  0  0  0  0  0
  -22.0445  -12.8195   22.0437 N   0  0  0  0  0  0
  -25.4107  -15.1934   20.4145 N   0  0  0  0  0  0
  -31.7269  -15.0665   20.2658 O   0  0  0  0  0  0
  -21.6639   -6.8882   21.4240 O   0  0  0  0  0  0
  -22.3483  -14.5515   20.6729 O   0  0  0  0  0  0
  -24.6463  -31.8398   23.1831 C   0  0  0  0  0  0
  -25.9219  -32.4670   23.8243 C   0  0  1  0  0  0
  -27.2165  -27.0981   20.1668 C   0  0  0  0  0  0
  -25.5955  -33.8474   24.2161 N   0  0  0  0  0  0
  -23.4518  -30.4557   21.5303 C   0  0  2  0  0  0
  -24.8996  -28.8642   20.1208 C   0  0  0  0  0  0
  -22.7583  -29.4519   22.4855 C   0  0  0  0  0  0
  -18.0308  -28.1392   22.8473 C   0  0  0  0  0  0
  -24.1489  -36.7239   23.2647 C   0  0  0  0  0  0
  -26.0092  -30.7015   21.3854 C   0  0  0  0  0  0
  -26.0789  -29.3052   20.7348 C   0  0  0  0  0  0
  -27.2409  -28.4409   20.7314 C   0  0  0  0  0  0
  -26.0104  -26.7557   19.5248 C   0  0  0  0  0  0
  -24.8783  -27.6034   19.5010 C   0  0  0  0  0  0
  -23.6804  -29.7759   20.1542 C   0  0  0  0  0  0
  -25.4123  -36.3009   24.0317 C   0  0  1  0  0  0
  -20.5923  -28.3717   23.1231 C   0  0  2  0  0  0
  -20.6788  -26.9417   22.5404 C   0  0  0  0  0  0
  -19.5763  -26.6377   21.5209 C   0  0  0  0  0  0
  -18.1946  -26.7928   22.1616 C   0  0  0  0  0  0
  -19.1568  -28.8874   23.2843 C   0  0  0  0  0  0
  -18.9486  -30.1470   23.8871 C   0  0  0  0  0  0
  -17.6483  -30.6593   24.0555 C   0  0  0  0  0  0
  -25.9079  -34.9393   23.5051 C   0  0  0  0  0  0
  -16.5372  -29.9085   23.6334 C   0  0  0  0  0  0
  -16.7292  -28.6502   23.0353 C   0  0  0  0  0  0
  -26.4527  -31.6553   25.0700 C   0  0  0  0  0  0
  -25.3698  -31.3756   26.1388 C   0  0  0  0  0  0
  -27.0404  -30.2949   24.6301 C   0  0  0  0  0  0
  -27.6047  -32.4338   25.7487 C   0  0  0  0  0  0
  -27.5567  -37.1772   24.8468 C   0  0  0  0  0  0
  -21.4272  -29.3042   22.3604 N   0  0  0  0  0  0
  -26.4277  -37.3725   23.9415 N   0  0  0  0  0  0
  -24.7227  -31.0220   22.0882 N   0  0  0  0  0  0
  -23.4210  -28.8079   23.3027 O   0  0  0  0  0  0
  -28.3027  -26.1427   20.1179 O   0  0  0  0  0  0
  -26.5667  -34.8899   22.4631 O   0  0  0  0  0  0
  -23.5578  -32.1292   23.7036 O   0  0  0  0  0  0
  -29.2737  -20.2967   22.0291 C   0  0  0  0  0  0
  -29.4894  -19.1197   22.7822 C   0  0  0  0  0  0
  -29.4321  -18.9127   20.0447 C   0  0  0  0  0  0
  -29.2460  -20.2866   20.6240 C   0  0  0  0  0  0
  -29.6839  -17.8358   22.2087 C   0  0  0  0  0  0
  -29.6684  -17.6369   20.8009 C   0  0  0  0  0  0
  -29.8514  -16.6636   23.1640 C   0  0  0  0  0  0
  -27.4135  -24.6831   21.9109 C   0  0  0  0  0  0
  -29.8139  -24.7096   21.2598 C   0  0  0  0  0  0
  -29.2400  -21.7773   19.8815 C   0  0  0  0  0  0
  -28.2115  -23.1508   19.9694 C   0  0  0  0  0  0
  -28.3799  -24.6820   20.7121 C   0  0  0  0  0  0
  -29.6744  -16.1716   20.2956 N   0  0  0  0  0  0
  -31.4708  -12.8232   19.1528 H   0  0  0  0  0  0
  -30.4753  -11.6905   20.0300 H   0  0  0  0  0  0
  -29.8462  -11.7136   17.5921 H   0  0  0  0  0  0
  -29.5872  -13.4399   17.6552 H   0  0  0  0  0  0
  -27.9688  -11.2619   19.0049 H   0  0  0  0  0  0
  -27.3849  -12.4032   17.8223 H   0  0  0  0  0  0
  -27.5740  -14.2369   19.3809 H   0  0  0  0  0  0
  -28.7820  -12.3252   21.4409 H   0  0  0  0  0  0
  -28.3617  -13.9990   21.7287 H   0  0  0  0  0  0
  -25.2769   -9.5675   22.4770 H   0  0  0  0  0  0
  -24.0002   -7.4630   22.7480 H   0  0  0  0  0  0
  -21.0849   -8.8780   19.8955 H   0  0  0  0  0  0
  -22.3712  -10.9675   19.6178 H   0  0  0  0  0  0
  -21.2005   -7.6149   23.9714 H   0  0  0  0  0  0
  -21.1481   -6.0521   25.9074 H   0  0  0  0  0  0
  -22.0602   -2.7611   23.2836 H   0  0  0  0  0  0
  -22.4057  -11.9846   22.4810 H   0  0  0  0  0  0
  -21.1071  -13.1226   22.2659 H   0  0  0  0  0  0
  -24.6406  -15.8420   20.5359 H   0  0  0  0  0  0
  -26.2535  -15.6418   20.0817 H   0  0  0  0  0  0
  -26.7287  -32.5258   23.0969 H   0  0  0  0  0  0
  -25.0062  -33.9576   25.0283 H   0  0  0  0  0  0
  -22.7568  -31.2824   21.3692 H   0  0  0  0  0  0
  -23.3752  -35.9568   23.3297 H   0  0  0  0  0  0
  -24.3572  -36.8886   22.2064 H   0  0  0  0  0  0
  -23.7251  -37.6433   23.6696 H   0  0  0  0  0  0
  -26.1651  -31.4508   20.6078 H   0  0  0  0  0  0
  -26.8799  -30.7573   22.0277 H   0  0  0  0  0  0
  -28.1505  -28.7827   21.2040 H   0  0  0  0  0  0
  -25.9372  -25.7901   19.0442 H   0  0  0  0  0  0
  -23.9777  -27.2603   19.0104 H   0  0  0  0  0  0
  -23.8265  -30.5466   19.3962 H   0  0  0  0  0  0
  -22.7934  -29.2224   19.8401 H   0  0  0  0  0  0
  -25.1310  -36.1826   25.0808 H   0  0  0  0  0  0
  -21.0009  -28.3306   24.1354 H   0  0  0  0  0  0
  -20.5678  -26.2328   23.3624 H   0  0  0  0  0  0
  -21.6654  -26.7413   22.1203 H   0  0  0  0  0  0
  -19.6927  -25.6282   21.1253 H   0  0  0  0  0  0
  -19.6705  -27.3174   20.6732 H   0  0  0  0  0  0
  -17.4210  -26.6678   21.4022 H   0  0  0  0  0  0
  -18.0342  -26.0073   22.9019 H   0  0  0  0  0  0
  -19.7968  -30.7285   24.2229 H   0  0  0  0  0  0
  -17.5042  -31.6271   24.5162 H   0  0  0  0  0  0
  -15.5373  -30.2981   23.7678 H   0  0  0  0  0  0
  -15.8688  -28.0821   22.7075 H   0  0  0  0  0  0
  -24.5884  -30.7099   25.7700 H   0  0  0  0  0  0
  -24.8875  -32.2944   26.4735 H   0  0  0  0  0  0
  -25.7964  -30.8974   27.0215 H   0  0  0  0  0  0
  -26.3024  -29.6662   24.1302 H   0  0  0  0  0  0
  -27.4010  -29.7259   25.4878 H   0  0  0  0  0  0
  -27.8932  -30.4187   23.9623 H   0  0  0  0  0  0
  -27.2630  -33.3667   26.1987 H   0  0  0  0  0  0
  -28.3892  -32.6861   25.0339 H   0  0  0  0  0  0
  -28.0677  -31.8520   26.5468 H   0  0  0  0  0  0
  -28.2565  -38.0081   24.7500 H   0  0  0  0  0  0
  -28.1079  -36.2605   24.6304 H   0  0  0  0  0  0
  -27.2285  -37.1429   25.8870 H   0  0  0  0  0  0
  -20.9495  -29.8748   21.6769 H   0  0  0  0  0  0
  -26.0138  -38.2786   24.1427 H   0  0  0  0  0  0
  -29.1682  -21.2383   22.5507 H   0  0  0  0  0  0
  -29.5031  -19.2169   23.8590 H   0  0  0  0  0  0
  -29.4104  -18.8358   18.9666 H   0  0  0  0  0  0
  -29.7568  -16.9735   24.2047 H   0  0  0  0  0  0
  -30.8337  -16.2060   23.0470 H   0  0  0  0  0  0
  -29.0879  -15.9074   22.9848 H   0  0  0  0  0  0
  -27.5332  -23.7841   22.5160 H   0  0  0  0  0  0
  -26.3754  -24.7120   21.5794 H   0  0  0  0  0  0
  -27.5739  -25.5409   22.5640 H   0  0  0  0  0  0
  -30.0259  -23.8301   21.8687 H   0  0  0  0  0  0
  -29.9897  -25.5864   21.8844 H   0  0  0  0  0  0
  -30.5414  -24.7338   20.4480 H   0  0  0  0  0  0
  -29.2105  -21.4960   18.8286 H   0  0  0  0  0  0
  -30.2568  -22.1509   20.0022 H   0  0  0  0  0  0
  -27.2043  -22.7813   20.1619 H   0  0  0  0  0  0
  -28.1460  -23.4445   18.9211 H   0  0  0  0  0  0
  -28.7584  -15.8965   19.9780 H   0  0  0  0  0  0
  1 25  1  0  0  0
  1 30  2  0  0  0
  1 83  1  0  0  0
  2  3  1  0  0  0
  2 25  1  0  0  0
  2 84  1  0  0  0
  2 85  1  0  0  0
  3  4  1  0  0  0
  3 86  1  0  0  0
  3 87  1  0  0  0
  4  5  1  0  0  0
  4 88  1  0  0  0
  4 89  1  0  0  0
  5  6  1  0  0  0
  5 26  1  0  0  0
  5 90  1  0  0  0
  6 25  1  0  0  0
  6 91  1  0  0  0
  6 92  1  0  0  0
  7  8  2  0  0  0
  7 26  1  0  0  0
  7 29  1  0  0  0
  8  9  1  0  0  0
  8 22  1  0  0  0
  9 10  1  0  0  0
  9 27  2  0  0  0
 10 11  2  0  0  0
 10 15  1  0  0  0
 11 12  1  0  0  0
 11 93  1  0  0  0
 12 13  2  0  0  0
 12 94  1  0  0  0
 13 14  1  0  0  0
 13 31  1  0  0  0
 14 15  2  0  0  0
 14 95  1  0  0  0
 15 96  1  0  0  0
 16 17  2  0  0  0
 16 21  1  0  0  0
 16 31  1  0  0  0
 17 18  1  0  0  0
 17 97  1  0  0  0
 18 19  2  0  0  0
 18 98  1  0  0  0
 19 20  1  0  0  0
 19 24  1  0  0  0
 20 21  2  0  0  0
 20 99  1  0  0  0
 21 23  1  0  0  0
 22 28  1  0  0  0
 22 32  2  0  0  0
 26 27  1  0  0  0
 28100  1  0  0  0
 28101  1  0  0  0
 29102  1  0  0  0
 29103  1  0  0  0
 33 34  1  0  0  0
 33 66  1  0  0  0
 33 70  2  0  0  0
 34 36  1  0  0  0
 34 59  1  0  0  0
 34104  1  0  0  0
 35 44  2  0  0  0
 35 45  1  0  0  0
 35 68  1  0  0  0
 36 56  1  0  0  0
 36105  1  0  0  0
 37 39  1  0  0  0
 37 47  1  0  0  0
 37 66  1  0  0  0
 37106  1  0  0  0
 38 43  2  0  0  0
 38 46  1  0  0  0
 38 47  1  0  0  0
 39 64  1  0  0  0
 39 67  2  0  0  0
 40 52  1  0  0  0
 40 53  2  0  0  0
 40 58  1  0  0  0
 41107  1  0  0  0
 41108  1  0  0  0
 41109  1  0  0  0
 41 48  1  0  0  0
 42 43  1  0  0  0
 42 66  1  0  0  0
 42110  1  0  0  0
 42111  1  0  0  0
 43 44  1  0  0  0
 44112  1  0  0  0
 45 46  2  0  0  0
 45113  1  0  0  0
 46114  1  0  0  0
 47115  1  0  0  0
 47116  1  0  0  0
 48 56  1  0  0  0
 48 65  1  0  0  0
 48117  1  0  0  0
 49 50  1  0  0  0
 49 53  1  0  0  0
 49 64  1  0  0  0
 49118  1  0  0  0
 50 51  1  0  0  0
 50119  1  0  0  0
 50120  1  0  0  0
 51 52  1  0  0  0
 51121  1  0  0  0
 51122  1  0  0  0
 52123  1  0  0  0
 52124  1  0  0  0
 53 54  1  0  0  0
 54 55  2  0  0  0
 54125  1  0  0  0
 55 57  1  0  0  0
 55126  1  0  0  0
 56 69  2  0  0  0
 57 58  2  0  0  0
 57127  1  0  0  0
 58128  1  0  0  0
 59 60  1  0  0  0
 59 61  1  0  0  0
 59 62  1  0  0  0
 60129  1  0  0  0
 60130  1  0  0  0
 60131  1  0  0  0
 61132  1  0  0  0
 61133  1  0  0  0
 61134  1  0  0  0
 62135  1  0  0  0
 62136  1  0  0  0
 62137  1  0  0  0
 63 65  1  0  0  0
 63138  1  0  0  0
 63139  1  0  0  0
 63140  1  0  0  0
 64141  1  0  0  0
 65142  1  0  0  0
 68 82  1  0  0  0
 71 72  2  0  0  0
 71 74  1  0  0  0
 71143  1  0  0  0
 72 75  1  0  0  0
 72144  1  0  0  0
 73 74  2  0  0  0
 73 76  1  0  0  0
 73145  1  0  0  0
 74 80  1  0  0  0
 75 76  2  0  0  0
 75 77  1  0  0  0
 76 83  1  0  0  0
 77146  1  0  0  0
 77147  1  0  0  0
 77148  1  0  0  0
 78149  1  0  0  0
 78150  1  0  0  0
 78151  1  0  0  0
 78 82  1  0  0  0
 79 82  1  0  0  0
 79152  1  0  0  0
 79153  1  0  0  0
 79154  1  0  0  0
 80 81  1  0  0  0
 80155  1  0  0  0
 80156  1  0  0  0
 81 82  1  0  0  0
 81157  1  0  0  0
 81158  1  0  0  0
 83159  1  0  0  0
M  ISO  4   1 100  68 101  82 101  83 100
M  END
> <chiral flag>
0

> <version>
0

> <s_m_source_file>
/data/baiqing/PycharmProjects/Reinvent-master-3.2/result/LINK_invent/BTK/process_docking_weight1_custom_product_contain_oxygen_bond_distance_aromatic_linkinvent_7_9_3/rearranged_h_0135.sdf

> <i_m_source_file_index>
52

> <r_mmod_Potential_Energy-OPLS-2005>
705.279846191406

> <r_mmod_Stretch_Energy-OPLS-2005>
308.408264160156

> <r_mmod_Bend_Energy-OPLS-2005>
343.421508789062

> <r_mmod_Torsional_Energy-OPLS-2005>
294.538726806641

> <r_mmod_Improper_Torsional_Energy-OPLS-2005>
12.452507019043

> <r_mmod_Van_der_Waal_Energy-OPLS-2005>
122.31494140625

> <r_mmod_Electrostatic_Energy-OPLS-2005>
-404.983947753906

> <r_mmod_Solvation_Energy-OPLS-2005>
-197.540100097656

> <b_mmod_Minimization_Converged-OPLS-2005>
0

> <r_mmod_RMS_Derivative-OPLS-2005>
0.996872365474701

$$$$
52
                    3D
 Structure written by MMmdl.
161169  0  0  1  0            999 V2000
  -30.6900  -14.4528   20.6020 C   0  0  0  0  0  0
  -30.4298  -12.3026   19.4161 C   0  0  0  0  0  0
  -29.4969  -12.5114   18.2046 C   0  0  0  0  0  0
  -28.0172  -12.3698   18.6153 C   0  0  0  0  0  0
  -27.6661  -13.1997   19.8790 C   0  0  2  0  0  0
  -28.7037  -12.9482   20.9959 C   0  0  0  0  0  0
  -25.2611  -13.8145   20.5673 C   0  0  0  0  0  0
  -24.1846  -13.0436   20.9164 C   0  0  0  0  0  0
  -24.6383  -11.6898   20.8719 C   0  0  0  0  0  0
  -23.9047  -10.4293   21.0396 C   0  0  0  0  0  0
  -24.3606   -9.4212   21.9177 C   0  0  0  0  0  0
  -23.6287   -8.2243   22.0749 C   0  0  0  0  0  0
  -22.4269   -8.0280   21.3543 C   0  0  0  0  0  0
  -21.9898   -9.0253   20.4648 C   0  0  0  0  0  0
  -22.7219  -10.2134   20.3049 C   0  0  0  0  0  0
  -21.6852   -6.0734   22.5281 C   0  0  0  0  0  0
  -21.4009   -6.5636   23.8213 C   0  0  0  0  0  0
  -21.3657   -5.6789   24.9177 C   0  0  0  0  0  0
  -21.6045   -4.3054   24.7225 C   0  0  0  0  0  0
  -21.8820   -3.8143   23.4346 C   0  0  0  0  0  0
  -21.9194   -4.6962   22.3404 C   0  0  0  0  0  0
  -22.7874  -13.5249   21.1837 C   0  0  0  0  0  0
  -22.1666   -4.2149   21.0981 F   0  0  0  0  0  0
  -21.5628   -3.4533   25.7735 F   0  0  0  0  0  0
  -30.0406  -13.2653   20.4582 N   0  0  0  0  0  0
  -26.3040  -12.9299   20.3363 N   0  0  0  0  0  0
  -25.9308  -11.6467   20.5745 N   0  0  0  0  0  0
  -22.0507  -12.8247   22.0393 N   0  0  0  0  0  0
  -25.4356  -15.1862   20.4100 N   0  0  0  0  0  0
  -31.7906  -14.6769   20.0874 O   0  0  0  0  0  0
  -21.6637   -6.8874   21.4241 O   0  0  0  0  0  0
  -22.3566  -14.5561   20.6692 O   0  0  0  0  0  0
  -24.6140  -31.8689   23.2103 C   0  0  0  0  0  0
  -25.9039  -32.4829   23.8392 C   0  0  1  0  0  0
  -27.2371  -27.4377   20.0814 C   0  0  0  0  0  0
  -25.5901  -33.8627   24.2325 N   0  0  0  0  0  0
  -23.4009  -30.4937   21.5500 C   0  0  2  0  0  0
  -24.8451  -28.9579   20.1150 C   0  0  0  0  0  0
  -22.7400  -29.4670   22.4978 C   0  0  0  0  0  0
  -18.0278  -28.1383   22.8490 C   0  0  0  0  0  0
  -24.1486  -36.7309   23.2637 C   0  0  0  0  0  0
  -25.9298  -30.8315   21.3649 C   0  0  0  0  0  0
  -26.0041  -29.4649   20.7143 C   0  0  0  0  0  0
  -27.1971  -28.7078   20.7026 C   0  0  0  0  0  0
  -26.0518  -26.9391   19.4903 C   0  0  0  0  0  0
  -24.8627  -27.6921   19.5057 C   0  0  0  0  0  0
  -23.6088  -29.8265   20.1643 C   0  0  0  0  0  0
  -25.4105  -36.3118   24.0343 C   0  0  1  0  0  0
  -20.5865  -28.3670   23.1317 C   0  0  2  0  0  0
  -20.6765  -26.9404   22.5428 C   0  0  0  0  0  0
  -19.5755  -26.6392   21.5208 C   0  0  0  0  0  0
  -18.1926  -26.7936   22.1609 C   0  0  0  0  0  0
  -19.1526  -28.8840   23.2906 C   0  0  0  0  0  0
  -18.9457  -30.1442   23.8924 C   0  0  0  0  0  0
  -17.6459  -30.6588   24.0570 C   0  0  0  0  0  0
  -25.9034  -34.9483   23.5128 C   0  0  0  0  0  0
  -16.5350  -29.9094   23.6323 C   0  0  0  0  0  0
  -16.7268  -28.6509   23.0347 C   0  0  0  0  0  0
  -26.4468  -31.6612   25.0720 C   0  0  0  0  0  0
  -25.3739  -31.3747   26.1480 C   0  0  0  0  0  0
  -27.0276  -30.3044   24.6101 C   0  0  0  0  0  0
  -27.6067  -32.4322   25.7458 C   0  0  0  0  0  0
  -27.5595  -37.1792   24.8452 C   0  0  0  0  0  0
  -21.4131  -29.3035   22.3712 N   0  0  0  0  0  0
  -26.4285  -37.3810   23.9430 N   0  0  0  0  0  0
  -24.6663  -31.0792   22.1000 N   0  0  0  0  0  0
  -23.4176  -28.8216   23.3019 O   0  0  0  0  0  0
  -28.4310  -26.7397   20.0845 O   0  0  0  0  0  0
  -26.5589  -34.8936   22.4686 O   0  0  0  0  0  0
  -23.5335  -32.1441   23.7501 O   0  0  0  0  0  0
  -30.8220  -18.9575   20.3652 C   0  0  0  0  0  0
  -30.8343  -17.5466   20.3394 C   0  0  0  0  0  0
  -29.2915  -17.5142   22.2122 C   0  0  0  0  0  0
  -30.0571  -19.6655   21.3185 C   0  0  0  0  0  0
  -29.2739  -18.9285   22.2452 C   0  0  0  0  0  0
  -30.0755  -16.8048   21.2762 C   0  0  0  0  0  0
  -29.1492  -23.4621   20.5875 C   0  0  0  0  0  0
  -29.1646  -19.7856   24.6307 C   0  0  0  0  0  0
  -30.1465  -21.1959   21.3517 C   0  0  0  0  0  0
  -28.4179  -19.6128   23.3027 C   0  0  0  0  0  0
  -29.0505  -21.9252   20.5374 C   0  0  0  0  0  0
  -28.1020  -24.2602   19.7943 C   0  0  0  0  0  0
  -28.5957  -25.6112   19.2132 C   0  0  0  0  0  0
  -30.0093  -15.3765   21.3086 N   0  0  0  0  0  0
  -30.0276  -24.0300   21.2436 O   0  0  0  0  0  0
  -31.4728  -12.4139   19.1135 H   0  0  0  0  0  0
  -30.3406  -11.2845   19.7979 H   0  0  0  0  0  0
  -29.7359  -11.7934   17.4188 H   0  0  0  0  0  0
  -29.6662  -13.5005   17.7761 H   0  0  0  0  0  0
  -27.8256  -11.3126   18.8035 H   0  0  0  0  0  0
  -27.3676  -12.6527   17.7862 H   0  0  0  0  0  0
  -27.7210  -14.2518   19.5984 H   0  0  0  0  0  0
  -28.6783  -11.9016   21.3029 H   0  0  0  0  0  0
  -28.4526  -13.5112   21.8956 H   0  0  0  0  0  0
  -25.2754   -9.5691   22.4745 H   0  0  0  0  0  0
  -24.0004   -7.4634   22.7459 H   0  0  0  0  0  0
  -21.0831   -8.8766   19.8954 H   0  0  0  0  0  0
  -22.3676  -10.9670   19.6154 H   0  0  0  0  0  0
  -21.1996   -7.6146   23.9716 H   0  0  0  0  0  0
  -21.1476   -6.0518   25.9081 H   0  0  0  0  0  0
  -22.0599   -2.7605   23.2844 H   0  0  0  0  0  0
  -22.4108  -11.9906   22.4792 H   0  0  0  0  0  0
  -21.1125  -13.1280   22.2588 H   0  0  0  0  0  0
  -24.6736  -15.8457   20.5242 H   0  0  0  0  0  0
  -26.2979  -15.6246   20.1111 H   0  0  0  0  0  0
  -26.7109  -32.5539   23.1154 H   0  0  0  0  0  0
  -25.0072  -33.9792   25.0484 H   0  0  0  0  0  0
  -22.6901  -31.3108   21.4122 H   0  0  0  0  0  0
  -23.3770  -35.9617   23.3274 H   0  0  0  0  0  0
  -24.3598  -36.8947   22.2059 H   0  0  0  0  0  0
  -23.7200  -37.6492   23.6658 H   0  0  0  0  0  0
  -26.0437  -31.5965   20.5956 H   0  0  0  0  0  0
  -26.8183  -30.8843   21.9823 H   0  0  0  0  0  0
  -28.0930  -29.0986   21.1640 H   0  0  0  0  0  0
  -26.0207  -25.9693   19.0172 H   0  0  0  0  0  0
  -23.9687  -27.2928   19.0466 H   0  0  0  0  0  0
  -23.7188  -30.6015   19.4046 H   0  0  0  0  0  0
  -22.7323  -29.2472   19.8680 H   0  0  0  0  0  0
  -25.1275  -36.1978   25.0833 H   0  0  0  0  0  0
  -20.9971  -28.3252   24.1433 H   0  0  0  0  0  0
  -20.5659  -26.2280   23.3617 H   0  0  0  0  0  0
  -21.6642  -26.7446   22.1234 H   0  0  0  0  0  0
  -19.6918  -25.6306   21.1234 H   0  0  0  0  0  0
  -19.6711  -27.3209   20.6745 H   0  0  0  0  0  0
  -17.4208  -26.6713   21.3990 H   0  0  0  0  0  0
  -18.0311  -26.0066   22.8989 H   0  0  0  0  0  0
  -19.7932  -30.7244   24.2318 H   0  0  0  0  0  0
  -17.5019  -31.6269   24.5173 H   0  0  0  0  0  0
  -15.5352  -30.3007   23.7630 H   0  0  0  0  0  0
  -15.8670  -28.0833   22.7052 H   0  0  0  0  0  0
  -24.5908  -30.7085   25.7839 H   0  0  0  0  0  0
  -24.8926  -32.2913   26.4900 H   0  0  0  0  0  0
  -25.8096  -30.8949   27.0251 H   0  0  0  0  0  0
  -26.2799  -29.6818   24.1169 H   0  0  0  0  0  0
  -27.4049  -29.7279   25.4557 H   0  0  0  0  0  0
  -27.8646  -30.4350   23.9237 H   0  0  0  0  0  0
  -27.2712  -33.3625   26.2054 H   0  0  0  0  0  0
  -28.3850  -32.6877   25.0253 H   0  0  0  0  0  0
  -28.0762  -31.8431   26.5346 H   0  0  0  0  0  0
  -28.2586  -38.0118   24.7562 H   0  0  0  0  0  0
  -28.1115  -36.2656   24.6182 H   0  0  0  0  0  0
  -27.2336  -37.1341   25.8859 H   0  0  0  0  0  0
  -20.9283  -29.8742   21.6926 H   0  0  0  0  0  0
  -26.0177  -38.2880   24.1479 H   0  0  0  0  0  0
  -31.4220  -19.4984   19.6462 H   0  0  0  0  0  0
  -31.4342  -17.0571   19.5866 H   0  0  0  0  0  0
  -28.6948  -16.9678   22.9302 H   0  0  0  0  0  0
  -28.5330  -20.2760   25.3718 H   0  0  0  0  0  0
  -30.0626  -20.3915   24.5069 H   0  0  0  0  0  0
  -29.4665  -18.8214   25.0406 H   0  0  0  0  0  0
  -31.1265  -21.4893   20.9728 H   0  0  0  0  0  0
  -30.1329  -21.5369   22.3870 H   0  0  0  0  0  0
  -27.5180  -19.0186   23.4688 H   0  0  0  0  0  0
  -28.0601  -20.5777   22.9454 H   0  0  0  0  0  0
  -29.1043  -21.6151   19.4939 H   0  0  0  0  0  0
  -28.0628  -21.6387   20.8968 H   0  0  0  0  0  0
  -27.2168  -24.4066   20.4123 H   0  0  0  0  0  0
  -27.7906  -23.6255   18.9646 H   0  0  0  0  0  0
  -28.1262  -25.8023   18.2476 H   0  0  0  0  0  0
  -29.6589  -25.5398   18.9798 H   0  0  0  0  0  0
  -29.2224  -14.9960   21.8115 H   0  0  0  0  0  0
  1 25  1  0  0  0
  1 30  2  0  0  0
  1 84  1  0  0  0
  2  3  1  0  0  0
  2 25  1  0  0  0
  2 86  1  0  0  0
  2 87  1  0  0  0
  3  4  1  0  0  0
  3 88  1  0  0  0
  3 89  1  0  0  0
  4  5  1  0  0  0
  4 90  1  0  0  0
  4 91  1  0  0  0
  5  6  1  0  0  0
  5 26  1  0  0  0
  5 92  1  0  0  0
  6 25  1  0  0  0
  6 93  1  0  0  0
  6 94  1  0  0  0
  7  8  2  0  0  0
  7 26  1  0  0  0
  7 29  1  0  0  0
  8  9  1  0  0  0
  8 22  1  0  0  0
  9 10  1  0  0  0
  9 27  2  0  0  0
 10 11  2  0  0  0
 10 15  1  0  0  0
 11 12  1  0  0  0
 11 95  1  0  0  0
 12 13  2  0  0  0
 12 96  1  0  0  0
 13 14  1  0  0  0
 13 31  1  0  0  0
 14 15  2  0  0  0
 14 97  1  0  0  0
 15 98  1  0  0  0
 16 17  2  0  0  0
 16 21  1  0  0  0
 16 31  1  0  0  0
 17 18  1  0  0  0
 17 99  1  0  0  0
 18 19  2  0  0  0
 18100  1  0  0  0
 19 20  1  0  0  0
 19 24  1  0  0  0
 20 21  2  0  0  0
 20101  1  0  0  0
 21 23  1  0  0  0
 22 28  1  0  0  0
 22 32  2  0  0  0
 26 27  1  0  0  0
 28102  1  0  0  0
 28103  1  0  0  0
 29104  1  0  0  0
 29105  1  0  0  0
 33 34  1  0  0  0
 33 66  1  0  0  0
 33 70  2  0  0  0
 34 36  1  0  0  0
 34 59  1  0  0  0
 34106  1  0  0  0
 35 44  2  0  0  0
 35 45  1  0  0  0
 35 68  1  0  0  0
 36 56  1  0  0  0
 36107  1  0  0  0
 37 39  1  0  0  0
 37 47  1  0  0  0
 37 66  1  0  0  0
 37108  1  0  0  0
 38 43  2  0  0  0
 38 46  1  0  0  0
 38 47  1  0  0  0
 39 64  1  0  0  0
 39 67  2  0  0  0
 40 52  1  0  0  0
 40 53  2  0  0  0
 40 58  1  0  0  0
 41109  1  0  0  0
 41110  1  0  0  0
 41111  1  0  0  0
 41 48  1  0  0  0
 42 43  1  0  0  0
 42 66  1  0  0  0
 42112  1  0  0  0
 42113  1  0  0  0
 43 44  1  0  0  0
 44114  1  0  0  0
 45 46  2  0  0  0
 45115  1  0  0  0
 46116  1  0  0  0
 47117  1  0  0  0
 47118  1  0  0  0
 48 56  1  0  0  0
 48 65  1  0  0  0
 48119  1  0  0  0
 49 50  1  0  0  0
 49 53  1  0  0  0
 49 64  1  0  0  0
 49120  1  0  0  0
 50 51  1  0  0  0
 50121  1  0  0  0
 50122  1  0  0  0
 51 52  1  0  0  0
 51123  1  0  0  0
 51124  1  0  0  0
 52125  1  0  0  0
 52126  1  0  0  0
 53 54  1  0  0  0
 54 55  2  0  0  0
 54127  1  0  0  0
 55 57  1  0  0  0
 55128  1  0  0  0
 56 69  2  0  0  0
 57 58  2  0  0  0
 57129  1  0  0  0
 58130  1  0  0  0
 59 60  1  0  0  0
 59 61  1  0  0  0
 59 62  1  0  0  0
 60131  1  0  0  0
 60132  1  0  0  0
 60133  1  0  0  0
 61134  1  0  0  0
 61135  1  0  0  0
 61136  1  0  0  0
 62137  1  0  0  0
 62138  1  0  0  0
 62139  1  0  0  0
 63 65  1  0  0  0
 63140  1  0  0  0
 63141  1  0  0  0
 63142  1  0  0  0
 64143  1  0  0  0
 65144  1  0  0  0
 68 83  1  0  0  0
 71 72  2  0  0  0
 71 74  1  0  0  0
 71145  1  0  0  0
 72 76  1  0  0  0
 72146  1  0  0  0
 73 75  1  0  0  0
 73 76  2  0  0  0
 73147  1  0  0  0
 74 75  2  0  0  0
 74 79  1  0  0  0
 75 80  1  0  0  0
 76 84  1  0  0  0
 77 81  1  0  0  0
 77 82  1  0  0  0
 77 85  2  0  0  0
 78 80  1  0  0  0
 78148  1  0  0  0
 78149  1  0  0  0
 78150  1  0  0  0
 79 81  1  0  0  0
 79151  1  0  0  0
 79152  1  0  0  0
 80153  1  0  0  0
 80154  1  0  0  0
 81155  1  0  0  0
 81156  1  0  0  0
 82 83  1  0  0  0
 82157  1  0  0  0
 82158  1  0  0  0
 83159  1  0  0  0
 83160  1  0  0  0
 84161  1  0  0  0
M  ISO  4   1 100  68 101  83 101  84 100
M  END
> <chiral flag>
0

> <version>
0

> <s_m_source_file>
/data/baiqing/PycharmProjects/Reinvent-master-3.2/result/LINK_invent/BTK/process_docking_weight1_custom_product_contain_oxygen_bond_distance_aromatic_linkinvent_7_9_3/rearranged_h_0135.sdf

> <i_m_source_file_index>
53

> <r_mmod_Potential_Energy-OPLS-2005>
-114.50479888916

> <r_mmod_Stretch_Energy-OPLS-2005>
37.5996894836426

> <r_mmod_Bend_Energy-OPLS-2005>
105.287071228027

> <r_mmod_Torsional_Energy-OPLS-2005>
196.773040771484

> <r_mmod_Improper_Torsional_Energy-OPLS-2005>
2.61482310295105

> <r_mmod_Van_der_Waal_Energy-OPLS-2005>
155.970489501953

> <r_mmod_Electrostatic_Energy-OPLS-2005>
-403.827850341797

> <r_mmod_Solvation_Energy-OPLS-2005>
-219.694290161133

> <b_mmod_Minimization_Converged-OPLS-2005>
0

> <r_mmod_RMS_Derivative-OPLS-2005>
0.762343049049377

$$$$
53
                    3D
 Structure written by MMmdl.
175183  0  0  1  0            999 V2000
  -30.6499  -14.6060   20.5278 C   0  0  0  0  0  0
  -30.4360  -12.3768   19.4504 C   0  0  0  0  0  0
  -29.5065  -12.5102   18.2238 C   0  0  0  0  0  0
  -28.0284  -12.3558   18.6333 C   0  0  0  0  0  0
  -27.6559  -13.2183   19.8684 C   0  0  2  0  0  0
  -28.7002  -13.0571   20.9971 C   0  0  0  0  0  0
  -25.2510  -13.8127   20.5565 C   0  0  0  0  0  0
  -24.1815  -13.0404   20.9176 C   0  0  0  0  0  0
  -24.6408  -11.6888   20.8761 C   0  0  0  0  0  0
  -23.9078  -10.4272   21.0422 C   0  0  0  0  0  0
  -24.3621   -9.4185   21.9198 C   0  0  0  0  0  0
  -23.6288   -8.2228   22.0763 C   0  0  0  0  0  0
  -22.4276   -8.0268   21.3548 C   0  0  0  0  0  0
  -21.9920   -9.0243   20.4654 C   0  0  0  0  0  0
  -22.7253  -10.2120   20.3068 C   0  0  0  0  0  0
  -21.6850   -6.0731   22.5275 C   0  0  0  0  0  0
  -21.4010   -6.5638   23.8205 C   0  0  0  0  0  0
  -21.3659   -5.6795   24.9166 C   0  0  0  0  0  0
  -21.6044   -4.3056   24.7221 C   0  0  0  0  0  0
  -21.8820   -3.8148   23.4343 C   0  0  0  0  0  0
  -21.9190   -4.6963   22.3399 C   0  0  0  0  0  0
  -22.7835  -13.5199   21.1833 C   0  0  0  0  0  0
  -22.1662   -4.2147   21.0974 F   0  0  0  0  0  0
  -21.5633   -3.4540   25.7735 F   0  0  0  0  0  0
  -30.0218  -13.3908   20.4398 N   0  0  0  0  0  0
  -26.2991  -12.9347   20.3326 N   0  0  0  0  0  0
  -25.9342  -11.6503   20.5799 N   0  0  0  0  0  0
  -22.0488  -12.8198   22.0412 N   0  0  0  0  0  0
  -25.4104  -15.1819   20.3719 N   0  0  0  0  0  0
  -31.7997  -14.7627   20.1079 O   0  0  0  0  0  0
  -21.6637   -6.8871   21.4236 O   0  0  0  0  0  0
  -22.3513  -14.5500   20.6673 O   0  0  0  0  0  0
  -24.6229  -31.8623   23.2021 C   0  0  0  0  0  0
  -25.9082  -32.4807   23.8349 C   0  0  1  0  0  0
  -27.2337  -27.3457   20.1172 C   0  0  0  0  0  0
  -25.5882  -33.8600   24.2281 N   0  0  0  0  0  0
  -23.4169  -30.4860   21.5439 C   0  0  2  0  0  0
  -24.8642  -28.9418   20.1118 C   0  0  0  0  0  0
  -22.7473  -29.4652   22.4945 C   0  0  0  0  0  0
  -18.0298  -28.1389   22.8518 C   0  0  0  0  0  0
  -24.1487  -36.7295   23.2648 C   0  0  0  0  0  0
  -25.9540  -30.8046   21.3668 C   0  0  0  0  0  0
  -26.0302  -29.4318   20.7137 C   0  0  0  0  0  0
  -27.2164  -28.6446   20.7044 C   0  0  0  0  0  0
  -26.0420  -26.8986   19.4994 C   0  0  0  0  0  0
  -24.8707  -27.6800   19.4975 C   0  0  0  0  0  0
  -23.6313  -29.8191   20.1596 C   0  0  0  0  0  0
  -25.4096  -36.3098   24.0357 C   0  0  1  0  0  0
  -20.5900  -28.3673   23.1310 C   0  0  2  0  0  0
  -20.6773  -26.9393   22.5426 C   0  0  0  0  0  0
  -19.5737  -26.6380   21.5239 C   0  0  0  0  0  0
  -18.1926  -26.7946   22.1653 C   0  0  0  0  0  0
  -19.1554  -28.8843   23.2926 C   0  0  0  0  0  0
  -18.9479  -30.1452   23.8918 C   0  0  0  0  0  0
  -17.6483  -30.6585   24.0568 C   0  0  0  0  0  0
  -25.9026  -34.9474   23.5125 C   0  0  0  0  0  0
  -16.5368  -29.9093   23.6325 C   0  0  0  0  0  0
  -16.7292  -28.6518   23.0349 C   0  0  0  0  0  0
  -26.4452  -31.6606   25.0702 C   0  0  0  0  0  0
  -25.3697  -31.3728   26.1438 C   0  0  0  0  0  0
  -27.0267  -30.3044   24.6086 C   0  0  0  0  0  0
  -27.6014  -32.4316   25.7473 C   0  0  0  0  0  0
  -27.5579  -37.1792   24.8467 C   0  0  0  0  0  0
  -21.4182  -29.3054   22.3710 N   0  0  0  0  0  0
  -26.4275  -37.3787   23.9431 N   0  0  0  0  0  0
  -24.6835  -31.0675   22.0953 N   0  0  0  0  0  0
  -23.4217  -28.8205   23.3015 O   0  0  0  0  0  0
  -28.3717  -26.5303   20.1681 O   0  0  0  0  0  0
  -26.5613  -34.8941   22.4702 O   0  0  0  0  0  0
  -23.5397  -32.1396   23.7367 O   0  0  0  0  0  0
  -29.0555  -19.3513   21.3575 C   0  0  0  0  0  0
  -31.0731  -17.7765   20.2208 C   0  0  0  0  0  0
  -28.9969  -17.9300   21.4397 C   0  0  0  0  0  0
  -30.1254  -20.0235   20.7235 C   0  0  0  0  0  0
  -30.0075  -17.0996   20.8712 C   0  0  0  0  0  0
  -31.1462  -19.2041   20.1611 C   0  0  0  0  0  0
  -27.8298  -17.3070   22.1823 C   0  0  0  0  0  0
  -35.9154  -20.0302   20.2351 C   0  0  0  0  0  0
  -34.6635  -20.8268   18.1865 C   0  0  0  0  0  0
  -30.6128  -24.5179   19.5972 C   0  0  0  0  0  0
  -29.7643  -24.4901   21.9649 C   0  0  0  0  0  0
  -30.2879  -21.5815   20.8148 C   0  0  0  0  0  0
  -29.1284  -22.5763   20.3849 C   0  0  0  0  0  0
  -33.5062  -19.3037   19.8656 C   0  0  0  0  0  0
  -28.1947  -25.0703   20.0725 C   0  0  0  0  0  0
  -34.5442  -20.4225   19.6646 C   0  0  0  0  0  0
  -29.4179  -24.1505   20.5013 C   0  0  0  0  0  0
  -29.8809  -15.6438   20.9747 N   0  0  0  0  0  0
  -32.2184  -19.8343   19.5750 O   0  0  0  0  0  0
  -31.4785  -12.4935   19.1474 H   0  0  0  0  0  0
  -30.3631  -11.3770   19.8816 H   0  0  0  0  0  0
  -29.7642  -11.7633   17.4717 H   0  0  0  0  0  0
  -29.6572  -13.4824   17.7529 H   0  0  0  0  0  0
  -27.8563  -11.3014   18.8539 H   0  0  0  0  0  0
  -27.3765  -12.5992   17.7946 H   0  0  0  0  0  0
  -27.6808  -14.2579   19.5413 H   0  0  0  0  0  0
  -28.7025  -12.0313   21.3693 H   0  0  0  0  0  0
  -28.4465  -13.6805   21.8556 H   0  0  0  0  0  0
  -25.2763   -9.5652   22.4774 H   0  0  0  0  0  0
  -23.9987   -7.4621   22.7484 H   0  0  0  0  0  0
  -21.0851   -8.8760   19.8958 H   0  0  0  0  0  0
  -22.3710  -10.9657   19.6178 H   0  0  0  0  0  0
  -21.2005   -7.6146   23.9702 H   0  0  0  0  0  0
  -21.1482   -6.0529   25.9069 H   0  0  0  0  0  0
  -22.0604   -2.7607   23.2839 H   0  0  0  0  0  0
  -22.4109  -11.9861   22.4792 H   0  0  0  0  0  0
  -21.1110  -13.1230   22.2629 H   0  0  0  0  0  0
  -24.6208  -15.8161   20.4218 H   0  0  0  0  0  0
  -26.2217  -15.5957   19.9322 H   0  0  0  0  0  0
  -26.7143  -32.5477   23.1095 H   0  0  0  0  0  0
  -24.9982  -33.9740   25.0393 H   0  0  0  0  0  0
  -22.7110  -31.3057   21.3997 H   0  0  0  0  0  0
  -23.3767  -35.9609   23.3295 H   0  0  0  0  0  0
  -24.3586  -36.8915   22.2064 H   0  0  0  0  0  0
  -23.7226  -37.6491   23.6656 H   0  0  0  0  0  0
  -26.0711  -31.5677   20.5967 H   0  0  0  0  0  0
  -26.8414  -30.8604   21.9861 H   0  0  0  0  0  0
  -28.1126  -29.0193   21.1782 H   0  0  0  0  0  0
  -25.9913  -25.9339   19.0177 H   0  0  0  0  0  0
  -23.9767  -27.2981   19.0237 H   0  0  0  0  0  0
  -23.7512  -30.5963   19.4044 H   0  0  0  0  0  0
  -22.7526  -29.2479   19.8539 H   0  0  0  0  0  0
  -25.1278  -36.1938   25.0850 H   0  0  0  0  0  0
  -20.9987  -28.3212   24.1429 H   0  0  0  0  0  0
  -20.5663  -26.2267   23.3619 H   0  0  0  0  0  0
  -21.6647  -26.7412   22.1206 H   0  0  0  0  0  0
  -19.6878  -25.6292   21.1252 H   0  0  0  0  0  0
  -19.6669  -27.3204   20.6782 H   0  0  0  0  0  0
  -17.4192  -26.6728   21.4052 H   0  0  0  0  0  0
  -18.0291  -26.0074   22.9027 H   0  0  0  0  0  0
  -19.7957  -30.7280   24.2268 H   0  0  0  0  0  0
  -17.5038  -31.6271   24.5166 H   0  0  0  0  0  0
  -15.5369  -30.3002   23.7636 H   0  0  0  0  0  0
  -15.8699  -28.0841   22.7030 H   0  0  0  0  0  0
  -24.5883  -30.7055   25.7772 H   0  0  0  0  0  0
  -24.8861  -32.2892   26.4840 H   0  0  0  0  0  0
  -25.8033  -30.8926   27.0229 H   0  0  0  0  0  0
  -26.2799  -29.6831   24.1120 H   0  0  0  0  0  0
  -27.4028  -29.7240   25.4526 H   0  0  0  0  0  0
  -27.8646  -30.4369   23.9235 H   0  0  0  0  0  0
  -27.2630  -33.3628   26.2022 H   0  0  0  0  0  0
  -28.3829  -32.6853   25.0302 H   0  0  0  0  0  0
  -28.0660  -31.8452   26.5410 H   0  0  0  0  0  0
  -28.2577  -38.0114   24.7538 H   0  0  0  0  0  0
  -28.1105  -36.2647   24.6242 H   0  0  0  0  0  0
  -27.2313  -37.1369   25.8878 H   0  0  0  0  0  0
  -20.9325  -29.8810   21.6971 H   0  0  0  0  0  0
  -26.0173  -38.2864   24.1456 H   0  0  0  0  0  0
  -28.2856  -19.9428   21.8340 H   0  0  0  0  0  0
  -31.8604  -17.1996   19.7620 H   0  0  0  0  0  0
  -27.1223  -18.0619   22.5288 H   0  0  0  0  0  0
  -28.1823  -16.7549   23.0538 H   0  0  0  0  0  0
  -27.2903  -16.6228   21.5326 H   0  0  0  0  0  0
  -36.6372  -20.8381   20.1120 H   0  0  0  0  0  0
  -36.3169  -19.1464   19.7382 H   0  0  0  0  0  0
  -35.8534  -19.8131   21.3024 H   0  0  0  0  0  0
  -35.3796  -21.6393   18.0579 H   0  0  0  0  0  0
  -33.7072  -21.1711   17.7901 H   0  0  0  0  0  0
  -34.9959  -19.9893   17.5718 H   0  0  0  0  0  0
  -31.5406  -24.0428   19.9183 H   0  0  0  0  0  0
  -30.7951  -25.5939   19.6006 H   0  0  0  0  0  0
  -30.4323  -24.2222   18.5627 H   0  0  0  0  0  0
  -30.6721  -23.9888   22.2979 H   0  0  0  0  0  0
  -28.9606  -24.1978   22.6418 H   0  0  0  0  0  0
  -29.9300  -25.5600   22.0980 H   0  0  0  0  0  0
  -31.1809  -21.8606   20.2600 H   0  0  0  0  0  0
  -30.5384  -21.7768   21.8569 H   0  0  0  0  0  0
  -28.2444  -22.3445   20.9796 H   0  0  0  0  0  0
  -28.8506  -22.3444   19.3558 H   0  0  0  0  0  0
  -33.5423  -18.9568   20.9007 H   0  0  0  0  0  0
  -33.7289  -18.4497   19.2243 H   0  0  0  0  0  0
  -27.3383  -24.7843   20.6843 H   0  0  0  0  0  0
  -27.9286  -24.8250   19.0435 H   0  0  0  0  0  0
  -34.2004  -21.2937   20.2246 H   0  0  0  0  0  0
  -29.0013  -15.3323   21.3556 H   0  0  0  0  0  0
  1 25  1  0  0  0
  1 30  2  0  0  0
  1 88  1  0  0  0
  2  3  1  0  0  0
  2 25  1  0  0  0
  2 90  1  0  0  0
  2 91  1  0  0  0
  3  4  1  0  0  0
  3 92  1  0  0  0
  3 93  1  0  0  0
  4  5  1  0  0  0
  4 94  1  0  0  0
  4 95  1  0  0  0
  5  6  1  0  0  0
  5 26  1  0  0  0
  5 96  1  0  0  0
  6 25  1  0  0  0
  6 97  1  0  0  0
  6 98  1  0  0  0
  7  8  2  0  0  0
  7 26  1  0  0  0
  7 29  1  0  0  0
  8  9  1  0  0  0
  8 22  1  0  0  0
  9 10  1  0  0  0
  9 27  2  0  0  0
 10 11  2  0  0  0
 10 15  1  0  0  0
 11 12  1  0  0  0
 11 99  1  0  0  0
 12 13  2  0  0  0
 12100  1  0  0  0
 13 14  1  0  0  0
 13 31  1  0  0  0
 14 15  2  0  0  0
 14101  1  0  0  0
 15102  1  0  0  0
 16 17  2  0  0  0
 16 21  1  0  0  0
 16 31  1  0  0  0
 17 18  1  0  0  0
 17103  1  0  0  0
 18 19  2  0  0  0
 18104  1  0  0  0
 19 20  1  0  0  0
 19 24  1  0  0  0
 20 21  2  0  0  0
 20105  1  0  0  0
 21 23  1  0  0  0
 22 28  1  0  0  0
 22 32  2  0  0  0
 26 27  1  0  0  0
 28106  1  0  0  0
 28107  1  0  0  0
 29108  1  0  0  0
 29109  1  0  0  0
 33 34  1  0  0  0
 33 66  1  0  0  0
 33 70  2  0  0  0
 34 36  1  0  0  0
 34 59  1  0  0  0
 34110  1  0  0  0
 35 44  2  0  0  0
 35 45  1  0  0  0
 35 68  1  0  0  0
 36 56  1  0  0  0
 36111  1  0  0  0
 37 39  1  0  0  0
 37 47  1  0  0  0
 37 66  1  0  0  0
 37112  1  0  0  0
 38 43  2  0  0  0
 38 46  1  0  0  0
 38 47  1  0  0  0
 39 64  1  0  0  0
 39 67  2  0  0  0
 40 52  1  0  0  0
 40 53  2  0  0  0
 40 58  1  0  0  0
 41113  1  0  0  0
 41114  1  0  0  0
 41115  1  0  0  0
 41 48  1  0  0  0
 42 43  1  0  0  0
 42 66  1  0  0  0
 42116  1  0  0  0
 42117  1  0  0  0
 43 44  1  0  0  0
 44118  1  0  0  0
 45 46  2  0  0  0
 45119  1  0  0  0
 46120  1  0  0  0
 47121  1  0  0  0
 47122  1  0  0  0
 48 56  1  0  0  0
 48 65  1  0  0  0
 48123  1  0  0  0
 49 50  1  0  0  0
 49 53  1  0  0  0
 49 64  1  0  0  0
 49124  1  0  0  0
 50 51  1  0  0  0
 50125  1  0  0  0
 50126  1  0  0  0
 51 52  1  0  0  0
 51127  1  0  0  0
 51128  1  0  0  0
 52129  1  0  0  0
 52130  1  0  0  0
 53 54  1  0  0  0
 54 55  2  0  0  0
 54131  1  0  0  0
 55 57  1  0  0  0
 55132  1  0  0  0
 56 69  2  0  0  0
 57 58  2  0  0  0
 57133  1  0  0  0
 58134  1  0  0  0
 59 60  1  0  0  0
 59 61  1  0  0  0
 59 62  1  0  0  0
 60135  1  0  0  0
 60136  1  0  0  0
 60137  1  0  0  0
 61138  1  0  0  0
 61139  1  0  0  0
 61140  1  0  0  0
 62141  1  0  0  0
 62142  1  0  0  0
 62143  1  0  0  0
 63 65  1  0  0  0
 63144  1  0  0  0
 63145  1  0  0  0
 63146  1  0  0  0
 64147  1  0  0  0
 65148  1  0  0  0
 68 85  1  0  0  0
 71 73  2  0  0  0
 71 74  1  0  0  0
 71149  1  0  0  0
 72 75  2  0  0  0
 72 76  1  0  0  0
 72150  1  0  0  0
 73 75  1  0  0  0
 73 77  1  0  0  0
 74 76  2  0  0  0
 74 82  1  0  0  0
 75 88  1  0  0  0
 76 89  1  0  0  0
 77151  1  0  0  0
 77152  1  0  0  0
 77153  1  0  0  0
 78154  1  0  0  0
 78155  1  0  0  0
 78156  1  0  0  0
 78 86  1  0  0  0
 79 86  1  0  0  0
 79157  1  0  0  0
 79158  1  0  0  0
 79159  1  0  0  0
 80160  1  0  0  0
 80161  1  0  0  0
 80162  1  0  0  0
 80 87  1  0  0  0
 81 87  1  0  0  0
 81163  1  0  0  0
 81164  1  0  0  0
 81165  1  0  0  0
 82 83  1  0  0  0
 82166  1  0  0  0
 82167  1  0  0  0
 83 87  1  0  0  0
 83168  1  0  0  0
 83169  1  0  0  0
 84 86  1  0  0  0
 84 89  1  0  0  0
 84170  1  0  0  0
 84171  1  0  0  0
 85 87  1  0  0  0
 85172  1  0  0  0
 85173  1  0  0  0
 86174  1  0  0  0
 88175  1  0  0  0
M  ISO  4   1 100  68 101  85 101  88 100
M  END
> <chiral flag>
0

> <version>
0

> <s_m_source_file>
/data/baiqing/PycharmProjects/Reinvent-master-3.2/result/LINK_invent/BTK/process_docking_weight1_custom_product_contain_oxygen_bond_distance_aromatic_linkinvent_7_9_3/rearranged_h_0135.sdf

> <i_m_source_file_index>
54

> <r_mmod_Potential_Energy-OPLS-2005>
49.0549278259277

> <r_mmod_Stretch_Energy-OPLS-2005>
75.6866226196289

> <r_mmod_Bend_Energy-OPLS-2005>
136.965713500977

> <r_mmod_Torsional_Energy-OPLS-2005>
237.267501831055

> <r_mmod_Improper_Torsional_Energy-OPLS-2005>
4.93610572814941

> <r_mmod_Van_der_Waal_Energy-OPLS-2005>
149.298492431641

> <r_mmod_Electrostatic_Energy-OPLS-2005>
-399.7138671875

> <r_mmod_Solvation_Energy-OPLS-2005>
-192.279342651367

> <b_mmod_Minimization_Converged-OPLS-2005>
0

> <r_mmod_RMS_Derivative-OPLS-2005>
1.98268795013428

$$$$
54
                    3D
 Structure written by MMmdl.
159167  0  0  1  0            999 V2000
  -30.6410  -14.6846   20.4691 C   0  0  0  0  0  0
  -30.4314  -12.4135   19.4838 C   0  0  0  0  0  0
  -29.5191  -12.5046   18.2405 C   0  0  0  0  0  0
  -28.0415  -12.3400   18.6453 C   0  0  0  0  0  0
  -27.6497  -13.2313   19.8556 C   0  0  2  0  0  0
  -28.6892  -13.1433   20.9978 C   0  0  0  0  0  0
  -25.2539  -13.8194   20.5681 C   0  0  0  0  0  0
  -24.1813  -13.0443   20.9169 C   0  0  0  0  0  0
  -24.6398  -11.6913   20.8705 C   0  0  0  0  0  0
  -23.9064  -10.4292   21.0385 C   0  0  0  0  0  0
  -24.3607   -9.4208   21.9169 C   0  0  0  0  0  0
  -23.6283   -8.2246   22.0754 C   0  0  0  0  0  0
  -22.4263   -8.0279   21.3553 C   0  0  0  0  0  0
  -21.9893   -9.0253   20.4655 C   0  0  0  0  0  0
  -22.7224  -10.2132   20.3048 C   0  0  0  0  0  0
  -21.6863   -6.0716   22.5265 C   0  0  0  0  0  0
  -21.4026   -6.5622   23.8198 C   0  0  0  0  0  0
  -21.3658   -5.6777   24.9167 C   0  0  0  0  0  0
  -21.6049   -4.3041   24.7222 C   0  0  0  0  0  0
  -21.8822   -3.8127   23.4343 C   0  0  0  0  0  0
  -21.9198   -4.6942   22.3391 C   0  0  0  0  0  0
  -22.7836  -13.5241   21.1825 C   0  0  0  0  0  0
  -22.1670   -4.2120   21.0974 F   0  0  0  0  0  0
  -21.5620   -3.4526   25.7740 F   0  0  0  0  0  0
  -30.0054  -13.4674   20.4316 N   0  0  0  0  0  0
  -26.2972  -12.9410   20.3265 N   0  0  0  0  0  0
  -25.9332  -11.6551   20.5711 N   0  0  0  0  0  0
  -22.0481  -12.8258   22.0406 N   0  0  0  0  0  0
  -25.4234  -15.1921   20.4124 N   0  0  0  0  0  0
  -31.8118  -14.7861   20.0878 O   0  0  0  0  0  0
  -21.6649   -6.8861   21.4234 O   0  0  0  0  0  0
  -22.3515  -14.5528   20.6639 O   0  0  0  0  0  0
  -24.6273  -31.8610   23.2001 C   0  0  0  0  0  0
  -25.9110  -32.4783   23.8362 C   0  0  1  0  0  0
  -27.2182  -27.2973   20.1193 C   0  0  0  0  0  0
  -25.5909  -33.8585   24.2271 N   0  0  0  0  0  0
  -23.4240  -30.4836   21.5443 C   0  0  2  0  0  0
  -24.8690  -28.9398   20.1080 C   0  0  0  0  0  0
  -22.7502  -29.4624   22.4933 C   0  0  0  0  0  0
  -18.0284  -28.1396   22.8481 C   0  0  0  0  0  0
  -24.1488  -36.7299   23.2638 C   0  0  0  0  0  0
  -25.9688  -30.7784   21.3826 C   0  0  0  0  0  0
  -26.0384  -29.4071   20.7218 C   0  0  0  0  0  0
  -27.2140  -28.5969   20.7200 C   0  0  0  0  0  0
  -26.0306  -26.9016   19.4596 C   0  0  0  0  0  0
  -24.8706  -27.6942   19.4649 C   0  0  0  0  0  0
  -23.6397  -29.8217   20.1590 C   0  0  0  0  0  0
  -25.4116  -36.3090   24.0327 C   0  0  1  0  0  0
  -20.5890  -28.3697   23.1276 C   0  0  2  0  0  0
  -20.6775  -26.9419   22.5417 C   0  0  0  0  0  0
  -19.5749  -26.6391   21.5219 C   0  0  0  0  0  0
  -18.1923  -26.7938   22.1619 C   0  0  0  0  0  0
  -19.1541  -28.8864   23.2869 C   0  0  0  0  0  0
  -18.9459  -30.1464   23.8897 C   0  0  0  0  0  0
  -17.6460  -30.6593   24.0566 C   0  0  0  0  0  0
  -25.9055  -34.9455   23.5100 C   0  0  0  0  0  0
  -16.5352  -29.9100   23.6330 C   0  0  0  0  0  0
  -16.7270  -28.6515   23.0357 C   0  0  0  0  0  0
  -26.4474  -31.6622   25.0762 C   0  0  0  0  0  0
  -25.3675  -31.3816   26.1476 C   0  0  0  0  0  0
  -27.0309  -30.3022   24.6275 C   0  0  0  0  0  0
  -27.6043  -32.4374   25.7512 C   0  0  0  0  0  0
  -27.5590  -37.1808   24.8455 C   0  0  0  0  0  0
  -21.4217  -29.3042   22.3673 N   0  0  0  0  0  0
  -26.4299  -37.3782   23.9404 N   0  0  0  0  0  0
  -24.6921  -31.0599   22.0970 N   0  0  0  0  0  0
  -23.4216  -28.8171   23.3022 O   0  0  0  0  0  0
  -28.3239  -26.4270   20.1982 O   0  0  0  0  0  0
  -26.5641  -34.8928   22.4684 O   0  0  0  0  0  0
  -23.5423  -32.1440   23.7289 O   0  0  0  0  0  0
  -30.2203  -18.4294   18.0657 C   0  0  0  0  0  0
  -29.9699  -19.6462   18.7287 C   0  0  0  0  0  0
  -30.2248  -17.2037   18.7600 C   0  0  0  0  0  0
  -29.6841  -18.4055   20.8044 C   0  0  0  0  0  0
  -29.6964  -19.6824   20.1122 C   0  0  0  0  0  0
  -29.9651  -17.1417   20.1480 C   0  0  0  0  0  0
  -30.5234  -24.3067   20.4909 C   0  0  0  0  0  0
  -28.6623  -23.8469   22.1194 C   0  0  0  0  0  0
  -29.5196  -21.0889   20.8216 C   0  0  0  0  0  0
  -28.9141  -22.3647   20.0364 C   0  0  0  0  0  0
  -28.1464  -24.9740   19.9048 C   0  0  0  0  0  0
  -29.0549  -23.8650   20.6294 C   0  0  0  0  0  0
  -29.9110  -15.8120   20.7879 N   0  0  0  0  0  0
  -31.4778  -12.5133   19.1921 H   0  0  0  0  0  0
  -30.3522  -11.4303   19.9501 H   0  0  0  0  0  0
  -29.7992  -11.7376   17.5168 H   0  0  0  0  0  0
  -29.6621  -13.4650   17.7414 H   0  0  0  0  0  0
  -27.8889  -11.2906   18.8997 H   0  0  0  0  0  0
  -27.3917  -12.5472   17.7935 H   0  0  0  0  0  0
  -27.6557  -14.2577   19.4864 H   0  0  0  0  0  0
  -28.7008  -12.1455   21.4393 H   0  0  0  0  0  0
  -28.4282  -13.8279   21.8065 H   0  0  0  0  0  0
  -25.2755   -9.5692   22.4739 H   0  0  0  0  0  0
  -23.9994   -7.4647   22.7472 H   0  0  0  0  0  0
  -21.0820   -8.8762   19.8975 H   0  0  0  0  0  0
  -22.3668  -10.9661   19.6147 H   0  0  0  0  0  0
  -21.2036   -7.6130   23.9693 H   0  0  0  0  0  0
  -21.1477   -6.0510   25.9064 H   0  0  0  0  0  0
  -22.0608   -2.7587   23.2847 H   0  0  0  0  0  0
  -22.4096  -11.9954   22.4866 H   0  0  0  0  0  0
  -21.1082  -13.1293   22.2558 H   0  0  0  0  0  0
  -24.6537  -15.8439   20.5169 H   0  0  0  0  0  0
  -26.2761  -15.6341   20.0933 H   0  0  0  0  0  0
  -26.7185  -32.5445   23.1118 H   0  0  0  0  0  0
  -25.0009  -33.9732   25.0380 H   0  0  0  0  0  0
  -22.7170  -31.3038   21.4020 H   0  0  0  0  0  0
  -23.3758  -35.9622   23.3296 H   0  0  0  0  0  0
  -24.3566  -36.8926   22.2052 H   0  0  0  0  0  0
  -23.7239  -37.6498   23.6666 H   0  0  0  0  0  0
  -26.1183  -31.5410   20.6176 H   0  0  0  0  0  0
  -26.8422  -30.8175   22.0214 H   0  0  0  0  0  0
  -28.1082  -28.9458   21.2173 H   0  0  0  0  0  0
  -25.9662  -25.9615   18.9324 H   0  0  0  0  0  0
  -23.9796  -27.3394   18.9639 H   0  0  0  0  0  0
  -23.7593  -30.5999   19.4038 H   0  0  0  0  0  0
  -22.7585  -29.2524   19.8578 H   0  0  0  0  0  0
  -25.1298  -36.1948   25.0821 H   0  0  0  0  0  0
  -20.9972  -28.3282   24.1400 H   0  0  0  0  0  0
  -20.5674  -26.2316   23.3626 H   0  0  0  0  0  0
  -21.6644  -26.7451   22.1215 H   0  0  0  0  0  0
  -19.6907  -25.6301   21.1256 H   0  0  0  0  0  0
  -19.6677  -27.3196   20.6744 H   0  0  0  0  0  0
  -17.4201  -26.6691   21.4011 H   0  0  0  0  0  0
  -18.0293  -26.0089   22.9016 H   0  0  0  0  0  0
  -19.7940  -30.7272   24.2274 H   0  0  0  0  0  0
  -17.5019  -31.6269   24.5183 H   0  0  0  0  0  0
  -15.5352  -30.3002   23.7657 H   0  0  0  0  0  0
  -15.8670  -28.0833   22.7081 H   0  0  0  0  0  0
  -24.5809  -30.7213   25.7807 H   0  0  0  0  0  0
  -24.8902  -32.3006   26.4901 H   0  0  0  0  0  0
  -25.7947  -30.8984   27.0272 H   0  0  0  0  0  0
  -26.2902  -29.6795   24.1245 H   0  0  0  0  0  0
  -27.3900  -29.7276   25.4827 H   0  0  0  0  0  0
  -27.8824  -30.4282   23.9583 H   0  0  0  0  0  0
  -27.2652  -33.3659   26.2131 H   0  0  0  0  0  0
  -28.3812  -32.6992   25.0311 H   0  0  0  0  0  0
  -28.0777  -31.8503   26.5395 H   0  0  0  0  0  0
  -28.2613  -38.0102   24.7508 H   0  0  0  0  0  0
  -28.1082  -36.2640   24.6265 H   0  0  0  0  0  0
  -27.2303  -37.1436   25.8854 H   0  0  0  0  0  0
  -20.9411  -29.8775   21.6885 H   0  0  0  0  0  0
  -26.0184  -38.2856   24.1411 H   0  0  0  0  0  0
  -30.4155  -18.4332   17.0026 H   0  0  0  0  0  0
  -30.0103  -20.5556   18.1472 H   0  0  0  0  0  0
  -30.4118  -16.3002   18.1965 H   0  0  0  0  0  0
  -29.4764  -18.4059   21.8657 H   0  0  0  0  0  0
  -31.1999  -23.6256   21.0056 H   0  0  0  0  0  0
  -30.6854  -25.2991   20.9139 H   0  0  0  0  0  0
  -30.8261  -24.3452   19.4441 H   0  0  0  0  0  0
  -29.3049  -23.1852   22.7012 H   0  0  0  0  0  0
  -27.6329  -23.5110   22.2523 H   0  0  0  0  0  0
  -28.7371  -24.8410   22.5623 H   0  0  0  0  0  0
  -30.5128  -21.3616   21.1775 H   0  0  0  0  0  0
  -28.9308  -20.9245   21.7246 H   0  0  0  0  0  0
  -27.8588  -22.1583   19.8580 H   0  0  0  0  0  0
  -29.3571  -22.4022   19.0424 H   0  0  0  0  0  0
  -27.1237  -24.6804   20.1409 H   0  0  0  0  0  0
  -28.2482  -24.8572   18.8247 H   0  0  0  0  0  0
  -29.0833  -15.6387   21.3388 H   0  0  0  0  0  0
  1 25  1  0  0  0
  1 30  2  0  0  0
  1 83  1  0  0  0
  2  3  1  0  0  0
  2 25  1  0  0  0
  2 84  1  0  0  0
  2 85  1  0  0  0
  3  4  1  0  0  0
  3 86  1  0  0  0
  3 87  1  0  0  0
  4  5  1  0  0  0
  4 88  1  0  0  0
  4 89  1  0  0  0
  5  6  1  0  0  0
  5 26  1  0  0  0
  5 90  1  0  0  0
  6 25  1  0  0  0
  6 91  1  0  0  0
  6 92  1  0  0  0
  7  8  2  0  0  0
  7 26  1  0  0  0
  7 29  1  0  0  0
  8  9  1  0  0  0
  8 22  1  0  0  0
  9 10  1  0  0  0
  9 27  2  0  0  0
 10 11  2  0  0  0
 10 15  1  0  0  0
 11 12  1  0  0  0
 11 93  1  0  0  0
 12 13  2  0  0  0
 12 94  1  0  0  0
 13 14  1  0  0  0
 13 31  1  0  0  0
 14 15  2  0  0  0
 14 95  1  0  0  0
 15 96  1  0  0  0
 16 17  2  0  0  0
 16 21  1  0  0  0
 16 31  1  0  0  0
 17 18  1  0  0  0
 17 97  1  0  0  0
 18 19  2  0  0  0
 18 98  1  0  0  0
 19 20  1  0  0  0
 19 24  1  0  0  0
 20 21  2  0  0  0
 20 99  1  0  0  0
 21 23  1  0  0  0
 22 28  1  0  0  0
 22 32  2  0  0  0
 26 27  1  0  0  0
 28100  1  0  0  0
 28101  1  0  0  0
 29102  1  0  0  0
 29103  1  0  0  0
 33 34  1  0  0  0
 33 66  1  0  0  0
 33 70  2  0  0  0
 34 36  1  0  0  0
 34 59  1  0  0  0
 34104  1  0  0  0
 35 44  2  0  0  0
 35 45  1  0  0  0
 35 68  1  0  0  0
 36 56  1  0  0  0
 36105  1  0  0  0
 37 39  1  0  0  0
 37 47  1  0  0  0
 37 66  1  0  0  0
 37106  1  0  0  0
 38 43  2  0  0  0
 38 46  1  0  0  0
 38 47  1  0  0  0
 39 64  1  0  0  0
 39 67  2  0  0  0
 40 52  1  0  0  0
 40 53  2  0  0  0
 40 58  1  0  0  0
 41107  1  0  0  0
 41108  1  0  0  0
 41109  1  0  0  0
 41 48  1  0  0  0
 42 43  1  0  0  0
 42 66  1  0  0  0
 42110  1  0  0  0
 42111  1  0  0  0
 43 44  1  0  0  0
 44112  1  0  0  0
 45 46  2  0  0  0
 45113  1  0  0  0
 46114  1  0  0  0
 47115  1  0  0  0
 47116  1  0  0  0
 48 56  1  0  0  0
 48 65  1  0  0  0
 48117  1  0  0  0
 49 50  1  0  0  0
 49 53  1  0  0  0
 49 64  1  0  0  0
 49118  1  0  0  0
 50 51  1  0  0  0
 50119  1  0  0  0
 50120  1  0  0  0
 51 52  1  0  0  0
 51121  1  0  0  0
 51122  1  0  0  0
 52123  1  0  0  0
 52124  1  0  0  0
 53 54  1  0  0  0
 54 55  2  0  0  0
 54125  1  0  0  0
 55 57  1  0  0  0
 55126  1  0  0  0
 56 69  2  0  0  0
 57 58  2  0  0  0
 57127  1  0  0  0
 58128  1  0  0  0
 59 60  1  0  0  0
 59 61  1  0  0  0
 59 62  1  0  0  0
 60129  1  0  0  0
 60130  1  0  0  0
 60131  1  0  0  0
 61132  1  0  0  0
 61133  1  0  0  0
 61134  1  0  0  0
 62135  1  0  0  0
 62136  1  0  0  0
 62137  1  0  0  0
 63 65  1  0  0  0
 63138  1  0  0  0
 63139  1  0  0  0
 63140  1  0  0  0
 64141  1  0  0  0
 65142  1  0  0  0
 68 81  1  0  0  0
 71 72  2  0  0  0
 71 73  1  0  0  0
 71143  1  0  0  0
 72 75  1  0  0  0
 72144  1  0  0  0
 73 76  2  0  0  0
 73145  1  0  0  0
 74 75  2  0  0  0
 74 76  1  0  0  0
 74146  1  0  0  0
 75 79  1  0  0  0
 76 83  1  0  0  0
 77147  1  0  0  0
 77148  1  0  0  0
 77149  1  0  0  0
 77 82  1  0  0  0
 78 82  1  0  0  0
 78150  1  0  0  0
 78151  1  0  0  0
 78152  1  0  0  0
 79 80  1  0  0  0
 79153  1  0  0  0
 79154  1  0  0  0
 80 82  1  0  0  0
 80155  1  0  0  0
 80156  1  0  0  0
 81 82  1  0  0  0
 81157  1  0  0  0
 81158  1  0  0  0
 83159  1  0  0  0
M  ISO  4   1 100  68 101  81 101  83 100
M  END
> <chiral flag>
0

> <version>
0

> <s_m_source_file>
/data/baiqing/PycharmProjects/Reinvent-master-3.2/result/LINK_invent/BTK/process_docking_weight1_custom_product_contain_oxygen_bond_distance_aromatic_linkinvent_7_9_3/rearranged_h_0135.sdf

> <i_m_source_file_index>
55

> <r_mmod_Potential_Energy-OPLS-2005>
142.815521240234

> <r_mmod_Stretch_Energy-OPLS-2005>
104.606811523438

> <r_mmod_Bend_Energy-OPLS-2005>
145.346267700195

> <r_mmod_Torsional_Energy-OPLS-2005>
244.158004760742

> <r_mmod_Improper_Torsional_Energy-OPLS-2005>
4.63461065292358

> <r_mmod_Van_der_Waal_Energy-OPLS-2005>
142.589614868164

> <r_mmod_Electrostatic_Energy-OPLS-2005>
-364.641204833984

> <r_mmod_Solvation_Energy-OPLS-2005>
-198.513946533203

> <b_mmod_Minimization_Converged-OPLS-2005>
0

> <r_mmod_RMS_Derivative-OPLS-2005>
2.31451678276062

$$$$
55
                    3D
 Structure written by MMmdl.
163171  0  0  1  0            999 V2000
  -30.7397  -14.4013   20.6519 C   0  0  0  0  0  0
  -30.4268  -12.2892   19.4164 C   0  0  0  0  0  0
  -29.4967  -12.5244   18.2092 C   0  0  0  0  0  0
  -28.0153  -12.3834   18.6121 C   0  0  0  0  0  0
  -27.6690  -13.2024   19.8830 C   0  0  2  0  0  0
  -28.7045  -12.9377   20.9995 C   0  0  0  0  0  0
  -25.2614  -13.8163   20.5647 C   0  0  0  0  0  0
  -24.1865  -13.0452   20.9122 C   0  0  0  0  0  0
  -24.6435  -11.6910   20.8738 C   0  0  0  0  0  0
  -23.9104  -10.4307   21.0433 C   0  0  0  0  0  0
  -24.3653   -9.4211   21.9210 C   0  0  0  0  0  0
  -23.6314   -8.2254   22.0767 C   0  0  0  0  0  0
  -22.4283   -8.0301   21.3566 C   0  0  0  0  0  0
  -21.9940   -9.0279   20.4660 C   0  0  0  0  0  0
  -22.7279  -10.2150   20.3073 C   0  0  0  0  0  0
  -21.6841   -6.0749   22.5275 C   0  0  0  0  0  0
  -21.4024   -6.5658   23.8208 C   0  0  0  0  0  0
  -21.3659   -5.6802   24.9175 C   0  0  0  0  0  0
  -21.6035   -4.3066   24.7211 C   0  0  0  0  0  0
  -21.8826   -3.8156   23.4339 C   0  0  0  0  0  0
  -21.9190   -4.6983   22.3390 C   0  0  0  0  0  0
  -22.7886  -13.5253   21.1778 C   0  0  0  0  0  0
  -22.1660   -4.2171   21.0972 F   0  0  0  0  0  0
  -21.5612   -3.4542   25.7728 F   0  0  0  0  0  0
  -30.0487  -13.2435   20.4661 N   0  0  0  0  0  0
  -26.3067  -12.9330   20.3371 N   0  0  0  0  0  0
  -25.9353  -11.6487   20.5754 N   0  0  0  0  0  0
  -22.0537  -12.8271   22.0372 N   0  0  0  0  0  0
  -25.4336  -15.1883   20.4091 N   0  0  0  0  0  0
  -31.8127  -14.6374   20.0858 O   0  0  0  0  0  0
  -21.6634   -6.8909   21.4237 O   0  0  0  0  0  0
  -22.3584  -14.5567   20.6613 O   0  0  0  0  0  0
  -24.6137  -31.8707   23.2137 C   0  0  0  0  0  0
  -25.9039  -32.4831   23.8434 C   0  0  1  0  0  0
  -27.2360  -27.4525   20.0717 C   0  0  0  0  0  0
  -25.5910  -33.8633   24.2359 N   0  0  0  0  0  0
  -23.4019  -30.4966   21.5555 C   0  0  2  0  0  0
  -24.8454  -28.9731   20.1169 C   0  0  0  0  0  0
  -22.7406  -29.4673   22.5021 C   0  0  0  0  0  0
  -18.0268  -28.1373   22.8493 C   0  0  0  0  0  0
  -24.1504  -36.7333   23.2633 C   0  0  0  0  0  0
  -25.9312  -30.8378   21.3715 C   0  0  0  0  0  0
  -26.0062  -29.4764   20.7145 C   0  0  0  0  0  0
  -27.2010  -28.7206   20.6967 C   0  0  0  0  0  0
  -26.0504  -26.9782   19.4540 C   0  0  0  0  0  0
  -24.8587  -27.7206   19.4893 C   0  0  0  0  0  0
  -23.6089  -29.8372   20.1686 C   0  0  0  0  0  0
  -25.4111  -36.3111   24.0339 C   0  0  1  0  0  0
  -20.5849  -28.3660   23.1335 C   0  0  2  0  0  0
  -20.6751  -26.9409   22.5416 C   0  0  0  0  0  0
  -19.5729  -26.6395   21.5209 C   0  0  0  0  0  0
  -18.1913  -26.7921   22.1620 C   0  0  0  0  0  0
  -19.1514  -28.8831   23.2909 C   0  0  0  0  0  0
  -18.9436  -30.1431   23.8938 C   0  0  0  0  0  0
  -17.6444  -30.6587   24.0565 C   0  0  0  0  0  0
  -25.9035  -34.9474   23.5135 C   0  0  0  0  0  0
  -16.5336  -29.9100   23.6310 C   0  0  0  0  0  0
  -16.7256  -28.6500   23.0355 C   0  0  0  0  0  0
  -26.4472  -31.6583   25.0741 C   0  0  0  0  0  0
  -25.3754  -31.3700   26.1502 C   0  0  0  0  0  0
  -27.0284  -30.3022   24.6090 C   0  0  0  0  0  0
  -27.6050  -32.4295   25.7498 C   0  0  0  0  0  0
  -27.5583  -37.1814   24.8462 C   0  0  0  0  0  0
  -21.4135  -29.3044   22.3754 N   0  0  0  0  0  0
  -26.4298  -37.3783   23.9405 N   0  0  0  0  0  0
  -24.6671  -31.0814   22.1063 N   0  0  0  0  0  0
  -23.4169  -28.8193   23.3049 O   0  0  0  0  0  0
  -28.4142  -26.7232   20.0852 O   0  0  0  0  0  0
  -26.5581  -34.8906   22.4692 O   0  0  0  0  0  0
  -23.5318  -32.1485   23.7521 O   0  0  0  0  0  0
  -30.1762  -17.6564   17.5856 C   0  0  0  0  0  0
  -30.0300  -16.8760   18.7403 C   0  0  0  0  0  0
  -30.1084  -19.0500   17.6802 C   0  0  0  0  0  0
  -29.8792  -17.4709   20.0153 C   0  0  0  0  0  0
  -29.8504  -18.9030   20.1149 C   0  0  0  0  0  0
  -29.9234  -19.6941   18.9176 C   0  0  0  0  0  0
  -27.9430  -22.4332   20.4755 C   0  0  0  0  0  0
  -29.7514  -16.6246   21.2413 C   0  0  0  0  0  0
  -30.0875  -15.3488   21.5387 C   0  0  0  0  0  0
  -29.1457  -22.9540   20.1555 C   0  0  0  0  0  0
  -30.9510  -19.4114   22.3769 C   0  0  0  0  0  0
  -29.6891  -19.5295   21.5070 C   0  0  0  0  0  0
  -29.4479  -24.4513   20.3015 C   0  0  0  0  0  0
  -30.2587  -22.0520   19.6123 C   0  0  0  0  0  0
  -28.3115  -25.3358   19.7430 C   0  0  0  0  0  0
  -29.6990  -21.0498   18.7668 O   0  0  0  0  0  0
  -31.4715  -12.3915   19.1150 H   0  0  0  0  0  0
  -30.3223  -11.2695   19.7936 H   0  0  0  0  0  0
  -29.7404  -11.8247   17.4098 H   0  0  0  0  0  0
  -29.6657  -13.5212   17.8015 H   0  0  0  0  0  0
  -27.8139  -11.3247   18.7833 H   0  0  0  0  0  0
  -27.3703  -12.6828   17.7843 H   0  0  0  0  0  0
  -27.7306  -14.2565   19.6115 H   0  0  0  0  0  0
  -28.6680  -11.8899   21.2996 H   0  0  0  0  0  0
  -28.4384  -13.4898   21.9016 H   0  0  0  0  0  0
  -25.2795   -9.5651   22.4812 H   0  0  0  0  0  0
  -23.9978   -7.4645   22.7505 H   0  0  0  0  0  0
  -21.0857   -8.8828   19.8986 H   0  0  0  0  0  0
  -22.3751  -10.9706   19.6192 H   0  0  0  0  0  0
  -21.2046   -7.6166   23.9724 H   0  0  0  0  0  0
  -21.1456   -6.0532   25.9076 H   0  0  0  0  0  0
  -22.0609   -2.7621   23.2819 H   0  0  0  0  0  0
  -22.4108  -11.9887   22.4703 H   0  0  0  0  0  0
  -21.1182  -13.1335   22.2638 H   0  0  0  0  0  0
  -24.6729  -15.8459   20.5354 H   0  0  0  0  0  0
  -26.2981  -15.6298   20.1211 H   0  0  0  0  0  0
  -26.7109  -32.5545   23.1190 H   0  0  0  0  0  0
  -25.0059  -33.9820   25.0501 H   0  0  0  0  0  0
  -22.6910  -31.3152   21.4217 H   0  0  0  0  0  0
  -23.3744  -35.9691   23.3305 H   0  0  0  0  0  0
  -24.3603  -36.8929   22.2046 H   0  0  0  0  0  0
  -23.7287  -37.6551   23.6649 H   0  0  0  0  0  0
  -26.0428  -31.6067   20.6070 H   0  0  0  0  0  0
  -26.8191  -30.8898   21.9887 H   0  0  0  0  0  0
  -28.0932  -29.1027   21.1708 H   0  0  0  0  0  0
  -26.0117  -26.0374   18.9264 H   0  0  0  0  0  0
  -23.9662  -27.3321   19.0171 H   0  0  0  0  0  0
  -23.7209  -30.6196   19.4176 H   0  0  0  0  0  0
  -22.7342  -29.2577   19.8672 H   0  0  0  0  0  0
  -25.1283  -36.1979   25.0832 H   0  0  0  0  0  0
  -20.9920  -28.3212   24.1459 H   0  0  0  0  0  0
  -20.5644  -26.2276   23.3596 H   0  0  0  0  0  0
  -21.6630  -26.7467   22.1210 H   0  0  0  0  0  0
  -19.6909  -25.6315   21.1222 H   0  0  0  0  0  0
  -19.6663  -27.3217   20.6751 H   0  0  0  0  0  0
  -17.4177  -26.6666   21.4034 H   0  0  0  0  0  0
  -18.0334  -26.0057   22.9012 H   0  0  0  0  0  0
  -19.7912  -30.7225   24.2344 H   0  0  0  0  0  0
  -17.5004  -31.6274   24.5158 H   0  0  0  0  0  0
  -15.5333  -30.3017   23.7623 H   0  0  0  0  0  0
  -15.8646  -28.0827   22.7080 H   0  0  0  0  0  0
  -24.5919  -30.7050   25.7845 H   0  0  0  0  0  0
  -24.8970  -32.2873   26.4956 H   0  0  0  0  0  0
  -25.8122  -30.8863   27.0254 H   0  0  0  0  0  0
  -26.2828  -29.6823   24.1098 H   0  0  0  0  0  0
  -27.4013  -29.7193   25.4520 H   0  0  0  0  0  0
  -27.8686  -30.4327   23.9264 H   0  0  0  0  0  0
  -27.2660  -33.3567   26.2132 H   0  0  0  0  0  0
  -28.3827  -32.6901   25.0309 H   0  0  0  0  0  0
  -28.0774  -31.8401   26.5366 H   0  0  0  0  0  0
  -28.2587  -38.0115   24.7474 H   0  0  0  0  0  0
  -28.1084  -36.2641   24.6322 H   0  0  0  0  0  0
  -27.2304  -37.1492   25.8862 H   0  0  0  0  0  0
  -20.9297  -29.8801   21.7005 H   0  0  0  0  0  0
  -26.0192  -38.2867   24.1378 H   0  0  0  0  0  0
  -30.3161  -17.1917   16.6184 H   0  0  0  0  0  0
  -30.0260  -15.8061   18.6067 H   0  0  0  0  0  0
  -30.1758  -19.6384   16.7758 H   0  0  0  0  0  0
  -27.1294  -23.0171   20.8761 H   0  0  0  0  0  0
  -27.7417  -21.3801   20.3412 H   0  0  0  0  0  0
  -29.2635  -17.0955   22.0777 H   0  0  0  0  0  0
  -29.8606  -15.0133   22.5417 H   0  0  0  0  0  0
  -31.7973  -19.9085   21.9056 H   0  0  0  0  0  0
  -31.2418  -18.3772   22.5564 H   0  0  0  0  0  0
  -30.7938  -19.8766   23.3487 H   0  0  0  0  0  0
  -29.4302  -20.5704   21.4636 H   0  0  0  0  0  0
  -28.8225  -19.1049   22.0131 H   0  0  0  0  0  0
  -29.5946  -24.6679   21.3605 H   0  0  0  0  0  0
  -30.3849  -24.7025   19.8020 H   0  0  0  0  0  0
  -30.9135  -21.6753   20.3956 H   0  0  0  0  0  0
  -30.9045  -22.6499   18.9680 H   0  0  0  0  0  0
  -27.3821  -24.9564   20.1552 H   0  0  0  0  0  0
  -28.2552  -25.2301   18.6578 H   0  0  0  0  0  0
  1 25  1  0  0  0
  1 30  2  0  0  0
  1 79  1  0  0  0
  2  3  1  0  0  0
  2 25  1  0  0  0
  2 87  1  0  0  0
  2 88  1  0  0  0
  3  4  1  0  0  0
  3 89  1  0  0  0
  3 90  1  0  0  0
  4  5  1  0  0  0
  4 91  1  0  0  0
  4 92  1  0  0  0
  5  6  1  0  0  0
  5 26  1  0  0  0
  5 93  1  0  0  0
  6 25  1  0  0  0
  6 94  1  0  0  0
  6 95  1  0  0  0
  7  8  2  0  0  0
  7 26  1  0  0  0
  7 29  1  0  0  0
  8  9  1  0  0  0
  8 22  1  0  0  0
  9 10  1  0  0  0
  9 27  2  0  0  0
 10 11  2  0  0  0
 10 15  1  0  0  0
 11 12  1  0  0  0
 11 96  1  0  0  0
 12 13  2  0  0  0
 12 97  1  0  0  0
 13 14  1  0  0  0
 13 31  1  0  0  0
 14 15  2  0  0  0
 14 98  1  0  0  0
 15 99  1  0  0  0
 16 17  2  0  0  0
 16 21  1  0  0  0
 16 31  1  0  0  0
 17 18  1  0  0  0
 17100  1  0  0  0
 18 19  2  0  0  0
 18101  1  0  0  0
 19 20  1  0  0  0
 19 24  1  0  0  0
 20 21  2  0  0  0
 20102  1  0  0  0
 21 23  1  0  0  0
 22 28  1  0  0  0
 22 32  2  0  0  0
 26 27  1  0  0  0
 28103  1  0  0  0
 28104  1  0  0  0
 29105  1  0  0  0
 29106  1  0  0  0
 33 34  1  0  0  0
 33 66  1  0  0  0
 33 70  2  0  0  0
 34 36  1  0  0  0
 34 59  1  0  0  0
 34107  1  0  0  0
 35 44  2  0  0  0
 35 45  1  0  0  0
 35 68  1  0  0  0
 36 56  1  0  0  0
 36108  1  0  0  0
 37 39  1  0  0  0
 37 47  1  0  0  0
 37 66  1  0  0  0
 37109  1  0  0  0
 38 43  2  0  0  0
 38 46  1  0  0  0
 38 47  1  0  0  0
 39 64  1  0  0  0
 39 67  2  0  0  0
 40 52  1  0  0  0
 40 53  2  0  0  0
 40 58  1  0  0  0
 41110  1  0  0  0
 41111  1  0  0  0
 41112  1  0  0  0
 41 48  1  0  0  0
 42 43  1  0  0  0
 42 66  1  0  0  0
 42113  1  0  0  0
 42114  1  0  0  0
 43 44  1  0  0  0
 44115  1  0  0  0
 45 46  2  0  0  0
 45116  1  0  0  0
 46117  1  0  0  0
 47118  1  0  0  0
 47119  1  0  0  0
 48 56  1  0  0  0
 48 65  1  0  0  0
 48120  1  0  0  0
 49 50  1  0  0  0
 49 53  1  0  0  0
 49 64  1  0  0  0
 49121  1  0  0  0
 50 51  1  0  0  0
 50122  1  0  0  0
 50123  1  0  0  0
 51 52  1  0  0  0
 51124  1  0  0  0
 51125  1  0  0  0
 52126  1  0  0  0
 52127  1  0  0  0
 53 54  1  0  0  0
 54 55  2  0  0  0
 54128  1  0  0  0
 55 57  1  0  0  0
 55129  1  0  0  0
 56 69  2  0  0  0
 57 58  2  0  0  0
 57130  1  0  0  0
 58131  1  0  0  0
 59 60  1  0  0  0
 59 61  1  0  0  0
 59 62  1  0  0  0
 60132  1  0  0  0
 60133  1  0  0  0
 60134  1  0  0  0
 61135  1  0  0  0
 61136  1  0  0  0
 61137  1  0  0  0
 62138  1  0  0  0
 62139  1  0  0  0
 62140  1  0  0  0
 63 65  1  0  0  0
 63141  1  0  0  0
 63142  1  0  0  0
 63143  1  0  0  0
 64144  1  0  0  0
 65145  1  0  0  0
 68 85  1  0  0  0
 71 72  2  0  0  0
 71 73  1  0  0  0
 71146  1  0  0  0
 72 74  1  0  0  0
 72147  1  0  0  0
 73 76  2  0  0  0
 73148  1  0  0  0
 74 75  2  0  0  0
 74 78  1  0  0  0
 75 76  1  0  0  0
 75 82  1  0  0  0
 76 86  1  0  0  0
 77 80  2  0  0  0
 77149  1  0  0  0
 77150  1  0  0  0
 78 79  2  0  0  0
 78151  1  0  0  0
 79152  1  0  0  0
 80 83  1  0  0  0
 80 84  1  0  0  0
 81 82  1  0  0  0
 81153  1  0  0  0
 81154  1  0  0  0
 81155  1  0  0  0
 82156  1  0  0  0
 82157  1  0  0  0
 83 85  1  0  0  0
 83158  1  0  0  0
 83159  1  0  0  0
 84 86  1  0  0  0
 84160  1  0  0  0
 84161  1  0  0  0
 85162  1  0  0  0
 85163  1  0  0  0
M  ISO  4   1 100  68 101  79 100  85 101
M  END
> <chiral flag>
0

> <version>
0

> <s_m_source_file>
/data/baiqing/PycharmProjects/Reinvent-master-3.2/result/LINK_invent/BTK/process_docking_weight1_custom_product_contain_oxygen_bond_distance_aromatic_linkinvent_7_9_3/rearranged_h_0135.sdf

> <i_m_source_file_index>
56

> <r_mmod_Potential_Energy-OPLS-2005>
73.0012664794922

> <r_mmod_Stretch_Energy-OPLS-2005>
42.9307823181152

> <r_mmod_Bend_Energy-OPLS-2005>
140.889404296875

> <r_mmod_Torsional_Energy-OPLS-2005>
215.402297973633

> <r_mmod_Improper_Torsional_Energy-OPLS-2005>
2.55980134010315

> <r_mmod_Van_der_Waal_Energy-OPLS-2005>
186.801010131836

> <r_mmod_Electrostatic_Energy-OPLS-2005>
-332.783538818359

> <r_mmod_Solvation_Energy-OPLS-2005>
-191.67414855957

> <b_mmod_Minimization_Converged-OPLS-2005>
0

> <r_mmod_RMS_Derivative-OPLS-2005>
3.53837966918945

$$$$
56
                    3D
 Structure written by MMmdl.
159167  0  0  1  0            999 V2000
  -30.6206  -14.6050   20.5299 C   0  0  0  0  0  0
  -30.4463  -12.3725   19.4535 C   0  0  0  0  0  0
  -29.5177  -12.5047   18.2252 C   0  0  0  0  0  0
  -28.0355  -12.3517   18.6285 C   0  0  0  0  0  0
  -27.6583  -13.2114   19.8649 C   0  0  2  0  0  0
  -28.6981  -13.0319   20.9955 C   0  0  0  0  0  0
  -25.2556  -13.8146   20.5590 C   0  0  0  0  0  0
  -24.1817  -13.0450   20.9178 C   0  0  0  0  0  0
  -24.6377  -11.6916   20.8740 C   0  0  0  0  0  0
  -23.9029  -10.4320   21.0411 C   0  0  0  0  0  0
  -24.3586   -9.4248   21.9202 C   0  0  0  0  0  0
  -23.6281   -8.2268   22.0761 C   0  0  0  0  0  0
  -22.4269   -8.0294   21.3547 C   0  0  0  0  0  0
  -21.9893   -9.0267   20.4652 C   0  0  0  0  0  0
  -22.7202  -10.2163   20.3059 C   0  0  0  0  0  0
  -21.6858   -6.0735   22.5282 C   0  0  0  0  0  0
  -21.4005   -6.5633   23.8215 C   0  0  0  0  0  0
  -21.3654   -5.6780   24.9182 C   0  0  0  0  0  0
  -21.6042   -4.3043   24.7223 C   0  0  0  0  0  0
  -21.8816   -3.8139   23.4343 C   0  0  0  0  0  0
  -21.9189   -4.6960   22.3411 C   0  0  0  0  0  0
  -22.7833  -13.5277   21.1833 C   0  0  0  0  0  0
  -22.1664   -4.2146   21.0982 F   0  0  0  0  0  0
  -21.5643   -3.4528   25.7739 F   0  0  0  0  0  0
  -30.0190  -13.3782   20.4457 N   0  0  0  0  0  0
  -26.2995  -12.9327   20.3271 N   0  0  0  0  0  0
  -25.9310  -11.6496   20.5743 N   0  0  0  0  0  0
  -22.0409  -12.8325   22.0377 N   0  0  0  0  0  0
  -25.4259  -15.1846   20.3866 N   0  0  0  0  0  0
  -31.7691  -14.7834   20.1114 O   0  0  0  0  0  0
  -21.6649   -6.8882   21.4239 O   0  0  0  0  0  0
  -22.3545  -14.5585   20.6668 O   0  0  0  0  0  0
  -24.6217  -31.8625   23.2051 C   0  0  0  0  0  0
  -25.9079  -32.4786   23.8387 C   0  0  1  0  0  0
  -27.2324  -27.3537   20.1122 C   0  0  0  0  0  0
  -25.5912  -33.8584   24.2310 N   0  0  0  0  0  0
  -23.4141  -30.4870   21.5470 C   0  0  2  0  0  0
  -24.8631  -28.9465   20.1129 C   0  0  0  0  0  0
  -22.7450  -29.4636   22.4953 C   0  0  0  0  0  0
  -18.0268  -28.1416   22.8490 C   0  0  0  0  0  0
  -24.1491  -36.7294   23.2637 C   0  0  0  0  0  0
  -25.9533  -30.8046   21.3709 C   0  0  0  0  0  0
  -26.0305  -29.4354   20.7117 C   0  0  0  0  0  0
  -27.2195  -28.6514   20.7035 C   0  0  0  0  0  0
  -26.0429  -26.9135   19.4856 C   0  0  0  0  0  0
  -24.8685  -27.6885   19.4921 C   0  0  0  0  0  0
  -23.6271  -29.8201   20.1634 C   0  0  0  0  0  0
  -25.4109  -36.3071   24.0339 C   0  0  1  0  0  0
  -20.5865  -28.3691   23.1307 C   0  0  2  0  0  0
  -20.6747  -26.9424   22.5405 C   0  0  0  0  0  0
  -19.5715  -26.6402   21.5215 C   0  0  0  0  0  0
  -18.1897  -26.7959   22.1629 C   0  0  0  0  0  0
  -19.1523  -28.8873   23.2891 C   0  0  0  0  0  0
  -18.9446  -30.1482   23.8895 C   0  0  0  0  0  0
  -17.6452  -30.6615   24.0575 C   0  0  0  0  0  0
  -25.9039  -34.9448   23.5127 C   0  0  0  0  0  0
  -16.5344  -29.9111   23.6358 C   0  0  0  0  0  0
  -16.7262  -28.6539   23.0362 C   0  0  0  0  0  0
  -26.4470  -31.6573   25.0734 C   0  0  0  0  0  0
  -25.3723  -31.3693   26.1481 C   0  0  0  0  0  0
  -27.0309  -30.3005   24.6154 C   0  0  0  0  0  0
  -27.6062  -32.4285   25.7494 C   0  0  0  0  0  0
  -27.5582  -37.1811   24.8464 C   0  0  0  0  0  0
  -21.4166  -29.3069   22.3735 N   0  0  0  0  0  0
  -26.4282  -37.3764   23.9408 N   0  0  0  0  0  0
  -24.6815  -31.0676   22.0980 N   0  0  0  0  0  0
  -23.4187  -28.8146   23.2996 O   0  0  0  0  0  0
  -28.3590  -26.5259   20.1638 O   0  0  0  0  0  0
  -26.5592  -34.8915   22.4679 O   0  0  0  0  0  0
  -23.5402  -32.1417   23.7406 O   0  0  0  0  0  0
  -30.9822  -19.1798   20.1184 C   0  0  0  0  0  0
  -30.9453  -17.7610   20.1991 C   0  0  0  0  0  0
  -28.9227  -19.3239   21.3500 C   0  0  0  0  0  0
  -29.9843  -19.9997   20.7001 C   0  0  0  0  0  0
  -28.8691  -17.8976   21.4303 C   0  0  0  0  0  0
  -29.8967  -17.0770   20.8669 C   0  0  0  0  0  0
  -27.6824  -17.2885   22.1692 C   0  0  0  0  0  0
  -29.8639  -24.5109   21.9260 C   0  0  0  0  0  0
  -30.1737  -21.5543   20.7364 C   0  0  0  0  0  0
  -28.9720  -22.5533   20.4917 C   0  0  0  0  0  0
  -28.1241  -25.0726   20.1436 C   0  0  0  0  0  0
  -29.3141  -24.1112   20.5433 C   0  0  1  0  0  0
  -29.8223  -15.6211   20.9810 N   0  0  0  0  0  0
  -31.4876  -12.5057   19.1514 H   0  0  0  0  0  0
  -30.3898  -11.3710   19.8834 H   0  0  0  0  0  0
  -29.7839  -11.7557   17.4790 H   0  0  0  0  0  0
  -29.6746  -13.4743   17.7500 H   0  0  0  0  0  0
  -27.8593  -11.2982   18.8462 H   0  0  0  0  0  0
  -27.3893  -12.5958   17.7853 H   0  0  0  0  0  0
  -27.6881  -14.2534   19.5444 H   0  0  0  0  0  0
  -28.7035  -12.0004   21.3504 H   0  0  0  0  0  0
  -28.4407  -13.6354   21.8671 H   0  0  0  0  0  0
  -25.2728   -9.5741   22.4780 H   0  0  0  0  0  0
  -24.0007   -7.4656   22.7471 H   0  0  0  0  0  0
  -21.0832   -8.8763   19.8956 H   0  0  0  0  0  0
  -22.3651  -10.9689   19.6155 H   0  0  0  0  0  0
  -21.1984   -7.6140   23.9723 H   0  0  0  0  0  0
  -21.1484   -6.0508   25.9087 H   0  0  0  0  0  0
  -22.0599   -2.7595   23.2838 H   0  0  0  0  0  0
  -22.3959  -12.0019   22.4859 H   0  0  0  0  0  0
  -21.1021  -13.1412   22.2494 H   0  0  0  0  0  0
  -24.6514  -15.8349   20.4683 H   0  0  0  0  0  0
  -26.2585  -15.6039   19.9919 H   0  0  0  0  0  0
  -26.7157  -32.5465   23.1163 H   0  0  0  0  0  0
  -25.0085  -33.9736   25.0473 H   0  0  0  0  0  0
  -22.7071  -31.3067   21.4050 H   0  0  0  0  0  0
  -23.3742  -35.9635   23.3293 H   0  0  0  0  0  0
  -24.3589  -36.8905   22.2051 H   0  0  0  0  0  0
  -23.7276  -37.6518   23.6647 H   0  0  0  0  0  0
  -26.0835  -31.5719   20.6066 H   0  0  0  0  0  0
  -26.8351  -30.8543   21.9977 H   0  0  0  0  0  0
  -28.1145  -29.0242   21.1837 H   0  0  0  0  0  0
  -25.9927  -25.9589   18.9847 H   0  0  0  0  0  0
  -23.9755  -27.3046   19.0168 H   0  0  0  0  0  0
  -23.7379  -30.5947   19.4036 H   0  0  0  0  0  0
  -22.7515  -29.2421   19.8653 H   0  0  0  0  0  0
  -25.1296  -36.1925   25.0833 H   0  0  0  0  0  0
  -20.9973  -28.3240   24.1420 H   0  0  0  0  0  0
  -20.5646  -26.2297   23.3587 H   0  0  0  0  0  0
  -21.6613  -26.7447   22.1203 H   0  0  0  0  0  0
  -19.6836  -25.6297   21.1276 H   0  0  0  0  0  0
  -19.6664  -27.3190   20.6723 H   0  0  0  0  0  0
  -17.4170  -26.6733   21.4028 H   0  0  0  0  0  0
  -18.0281  -26.0120   22.9047 H   0  0  0  0  0  0
  -19.7915  -30.7312   24.2257 H   0  0  0  0  0  0
  -17.5007  -31.6297   24.5165 H   0  0  0  0  0  0
  -15.5349  -30.3019   23.7687 H   0  0  0  0  0  0
  -15.8659  -28.0879   22.7063 H   0  0  0  0  0  0
  -24.5896  -30.7031   25.7832 H   0  0  0  0  0  0
  -24.8900  -32.2838   26.4949 H   0  0  0  0  0  0
  -25.8073  -30.8862   27.0237 H   0  0  0  0  0  0
  -26.2866  -29.6770   24.1183 H   0  0  0  0  0  0
  -27.4035  -29.7247   25.4639 H   0  0  0  0  0  0
  -27.8726  -30.4321   23.9348 H   0  0  0  0  0  0
  -27.2709  -33.3597   26.2086 H   0  0  0  0  0  0
  -28.3863  -32.6823   25.0296 H   0  0  0  0  0  0
  -28.0734  -31.8380   26.5393 H   0  0  0  0  0  0
  -28.2595  -38.0113   24.7508 H   0  0  0  0  0  0
  -28.1082  -36.2651   24.6278 H   0  0  0  0  0  0
  -27.2298  -37.1453   25.8864 H   0  0  0  0  0  0
  -20.9314  -29.8887   21.7052 H   0  0  0  0  0  0
  -26.0162  -38.2830   24.1409 H   0  0  0  0  0  0
  -31.8265  -19.6401   19.6237 H   0  0  0  0  0  0
  -31.7572  -17.2133   19.7443 H   0  0  0  0  0  0
  -28.1470  -19.9100   21.8215 H   0  0  0  0  0  0
  -27.8378  -17.3367   23.2491 H   0  0  0  0  0  0
  -27.4992  -16.2482   21.9030 H   0  0  0  0  0  0
  -26.7680  -17.8406   21.9409 H   0  0  0  0  0  0
  -30.8038  -24.0070   22.1483 H   0  0  0  0  0  0
  -29.1571  -24.2729   22.7220 H   0  0  0  0  0  0
  -30.0673  -25.5811   21.9767 H   0  0  0  0  0  0
  -30.9600  -21.8073   20.0236 H   0  0  0  0  0  0
  -30.6008  -21.7634   21.7176 H   0  0  0  0  0  0
  -28.1836  -22.3390   21.2147 H   0  0  0  0  0  0
  -28.5379  -22.3330   19.5163 H   0  0  0  0  0  0
  -27.2841  -24.8513   20.8038 H   0  0  0  0  0  0
  -27.8078  -24.7880   19.1399 H   0  0  0  0  0  0
  -30.1075  -24.2872   19.8150 H   0  0  0  0  0  0
  -28.9535  -15.2829   21.3631 H   0  0  0  0  0  0
  1 25  1  0  0  0
  1 30  2  0  0  0
  1 83  1  0  0  0
  2  3  1  0  0  0
  2 25  1  0  0  0
  2 84  1  0  0  0
  2 85  1  0  0  0
  3  4  1  0  0  0
  3 86  1  0  0  0
  3 87  1  0  0  0
  4  5  1  0  0  0
  4 88  1  0  0  0
  4 89  1  0  0  0
  5  6  1  0  0  0
  5 26  1  0  0  0
  5 90  1  0  0  0
  6 25  1  0  0  0
  6 91  1  0  0  0
  6 92  1  0  0  0
  7  8  2  0  0  0
  7 26  1  0  0  0
  7 29  1  0  0  0
  8  9  1  0  0  0
  8 22  1  0  0  0
  9 10  1  0  0  0
  9 27  2  0  0  0
 10 11  2  0  0  0
 10 15  1  0  0  0
 11 12  1  0  0  0
 11 93  1  0  0  0
 12 13  2  0  0  0
 12 94  1  0  0  0
 13 14  1  0  0  0
 13 31  1  0  0  0
 14 15  2  0  0  0
 14 95  1  0  0  0
 15 96  1  0  0  0
 16 17  2  0  0  0
 16 21  1  0  0  0
 16 31  1  0  0  0
 17 18  1  0  0  0
 17 97  1  0  0  0
 18 19  2  0  0  0
 18 98  1  0  0  0
 19 20  1  0  0  0
 19 24  1  0  0  0
 20 21  2  0  0  0
 20 99  1  0  0  0
 21 23  1  0  0  0
 22 28  1  0  0  0
 22 32  2  0  0  0
 26 27  1  0  0  0
 28100  1  0  0  0
 28101  1  0  0  0
 29102  1  0  0  0
 29103  1  0  0  0
 33 34  1  0  0  0
 33 66  1  0  0  0
 33 70  2  0  0  0
 34 36  1  0  0  0
 34 59  1  0  0  0
 34104  1  0  0  0
 35 44  2  0  0  0
 35 45  1  0  0  0
 35 68  1  0  0  0
 36 56  1  0  0  0
 36105  1  0  0  0
 37 39  1  0  0  0
 37 47  1  0  0  0
 37 66  1  0  0  0
 37106  1  0  0  0
 38 43  2  0  0  0
 38 46  1  0  0  0
 38 47  1  0  0  0
 39 64  1  0  0  0
 39 67  2  0  0  0
 40 52  1  0  0  0
 40 53  2  0  0  0
 40 58  1  0  0  0
 41107  1  0  0  0
 41108  1  0  0  0
 41109  1  0  0  0
 41 48  1  0  0  0
 42 43  1  0  0  0
 42 66  1  0  0  0
 42110  1  0  0  0
 42111  1  0  0  0
 43 44  1  0  0  0
 44112  1  0  0  0
 45 46  2  0  0  0
 45113  1  0  0  0
 46114  1  0  0  0
 47115  1  0  0  0
 47116  1  0  0  0
 48 56  1  0  0  0
 48 65  1  0  0  0
 48117  1  0  0  0
 49 50  1  0  0  0
 49 53  1  0  0  0
 49 64  1  0  0  0
 49118  1  0  0  0
 50 51  1  0  0  0
 50119  1  0  0  0
 50120  1  0  0  0
 51 52  1  0  0  0
 51121  1  0  0  0
 51122  1  0  0  0
 52123  1  0  0  0
 52124  1  0  0  0
 53 54  1  0  0  0
 54 55  2  0  0  0
 54125  1  0  0  0
 55 57  1  0  0  0
 55126  1  0  0  0
 56 69  2  0  0  0
 57 58  2  0  0  0
 57127  1  0  0  0
 58128  1  0  0  0
 59 60  1  0  0  0
 59 61  1  0  0  0
 59 62  1  0  0  0
 60129  1  0  0  0
 60130  1  0  0  0
 60131  1  0  0  0
 61132  1  0  0  0
 61133  1  0  0  0
 61134  1  0  0  0
 62135  1  0  0  0
 62136  1  0  0  0
 62137  1  0  0  0
 63 65  1  0  0  0
 63138  1  0  0  0
 63139  1  0  0  0
 63140  1  0  0  0
 64141  1  0  0  0
 65142  1  0  0  0
 68 81  1  0  0  0
 71 72  2  0  0  0
 71 74  1  0  0  0
 71143  1  0  0  0
 72 76  1  0  0  0
 72144  1  0  0  0
 73 74  2  0  0  0
 73 75  1  0  0  0
 73145  1  0  0  0
 74 79  1  0  0  0
 75 76  2  0  0  0
 75 77  1  0  0  0
 76 83  1  0  0  0
 77146  1  0  0  0
 77147  1  0  0  0
 77148  1  0  0  0
 78149  1  0  0  0
 78150  1  0  0  0
 78151  1  0  0  0
 78 82  1  0  0  0
 79 80  1  0  0  0
 79152  1  0  0  0
 79153  1  0  0  0
 80 82  1  0  0  0
 80154  1  0  0  0
 80155  1  0  0  0
 81 82  1  0  0  0
 81156  1  0  0  0
 81157  1  0  0  0
 82158  1  0  0  0
 83159  1  0  0  0
M  ISO  4   1 100  68 101  81 101  83 100
M  END
> <chiral flag>
0

> <version>
0

> <s_m_source_file>
/data/baiqing/PycharmProjects/Reinvent-master-3.2/result/LINK_invent/BTK/process_docking_weight1_custom_product_contain_oxygen_bond_distance_aromatic_linkinvent_7_9_3/rearranged_h_0135.sdf

> <i_m_source_file_index>
57

> <r_mmod_Potential_Energy-OPLS-2005>
15.8904638290405

> <r_mmod_Stretch_Energy-OPLS-2005>
70.5188446044922

> <r_mmod_Bend_Energy-OPLS-2005>
128.081344604492

> <r_mmod_Torsional_Energy-OPLS-2005>
215.542877197266

> <r_mmod_Improper_Torsional_Energy-OPLS-2005>
4.20820188522339

> <r_mmod_Van_der_Waal_Energy-OPLS-2005>
145.297241210938

> <r_mmod_Electrostatic_Energy-OPLS-2005>
-389.328765869141

> <r_mmod_Solvation_Energy-OPLS-2005>
-195.099517822266

> <b_mmod_Minimization_Converged-OPLS-2005>
0

> <r_mmod_RMS_Derivative-OPLS-2005>
2.95085787773132

$$$$
57
                    3D
 Structure written by MMmdl.
165173  0  0  1  0            999 V2000
  -30.6953  -14.4861   20.6252 C   0  0  0  0  0  0
  -30.4404  -12.3255   19.4524 C   0  0  0  0  0  0
  -29.5138  -12.4976   18.2313 C   0  0  0  0  0  0
  -28.0325  -12.3552   18.6308 C   0  0  0  0  0  0
  -27.6647  -13.2045   19.8767 C   0  0  2  0  0  0
  -28.6956  -12.9892   21.0068 C   0  0  0  0  0  0
  -25.2587  -13.8160   20.5672 C   0  0  0  0  0  0
  -24.1825  -13.0430   20.9169 C   0  0  0  0  0  0
  -24.6388  -11.6904   20.8720 C   0  0  0  0  0  0
  -23.9060  -10.4286   21.0390 C   0  0  0  0  0  0
  -24.3608   -9.4217   21.9181 C   0  0  0  0  0  0
  -23.6297   -8.2251   22.0750 C   0  0  0  0  0  0
  -22.4277   -8.0279   21.3547 C   0  0  0  0  0  0
  -21.9916   -9.0238   20.4625 C   0  0  0  0  0  0
  -22.7243  -10.2121   20.3037 C   0  0  0  0  0  0
  -21.6859   -6.0749   22.5294 C   0  0  0  0  0  0
  -21.4011   -6.5638   23.8230 C   0  0  0  0  0  0
  -21.3661   -5.6788   24.9187 C   0  0  0  0  0  0
  -21.6049   -4.3056   24.7223 C   0  0  0  0  0  0
  -21.8819   -3.8156   23.4344 C   0  0  0  0  0  0
  -21.9189   -4.6980   22.3414 C   0  0  0  0  0  0
  -22.7851  -13.5239   21.1840 C   0  0  0  0  0  0
  -22.1657   -4.2168   21.0987 F   0  0  0  0  0  0
  -21.5629   -3.4534   25.7736 F   0  0  0  0  0  0
  -30.0363  -13.3025   20.4758 N   0  0  0  0  0  0
  -26.3018  -12.9321   20.3333 N   0  0  0  0  0  0
  -25.9313  -11.6483   20.5736 N   0  0  0  0  0  0
  -22.0471  -12.8212   22.0366 N   0  0  0  0  0  0
  -25.4280  -15.1891   20.4135 N   0  0  0  0  0  0
  -31.7939  -14.6992   20.1038 O   0  0  0  0  0  0
  -21.6640   -6.8881   21.4249 O   0  0  0  0  0  0
  -22.3541  -14.5553   20.6713 O   0  0  0  0  0  0
  -24.6163  -31.8675   23.2051 C   0  0  0  0  0  0
  -25.9044  -32.4824   23.8343 C   0  0  1  0  0  0
  -27.2190  -27.4263   20.0723 C   0  0  0  0  0  0
  -25.5855  -33.8612   24.2265 N   0  0  0  0  0  0
  -23.4002  -30.4913   21.5556 C   0  0  2  0  0  0
  -24.8333  -28.9534   20.1218 C   0  0  0  0  0  0
  -22.7423  -29.4644   22.5060 C   0  0  0  0  0  0
  -18.0236  -28.1415   22.8503 C   0  0  0  0  0  0
  -24.1458  -36.7341   23.2640 C   0  0  0  0  0  0
  -25.9275  -30.8322   21.3472 C   0  0  0  0  0  0
  -25.9995  -29.4630   20.7025 C   0  0  0  0  0  0
  -27.1962  -28.7095   20.6710 C   0  0  0  0  0  0
  -26.0210  -26.9224   19.5141 C   0  0  0  0  0  0
  -24.8381  -27.6801   19.5317 C   0  0  0  0  0  0
  -23.5982  -29.8228   20.1713 C   0  0  0  0  0  0
  -25.4084  -36.3127   24.0334 C   0  0  1  0  0  0
  -20.5839  -28.3651   23.1386 C   0  0  2  0  0  0
  -20.6726  -26.9398   22.5456 C   0  0  0  0  0  0
  -19.5697  -26.6391   21.5269 C   0  0  0  0  0  0
  -18.1874  -26.7958   22.1655 C   0  0  0  0  0  0
  -19.1505  -28.8848   23.2929 C   0  0  0  0  0  0
  -18.9437  -30.1457   23.8933 C   0  0  0  0  0  0
  -17.6456  -30.6624   24.0581 C   0  0  0  0  0  0
  -25.9031  -34.9493   23.5122 C   0  0  0  0  0  0
  -16.5326  -29.9144   23.6346 C   0  0  0  0  0  0
  -16.7239  -28.6558   23.0358 C   0  0  0  0  0  0
  -26.4408  -31.6616   25.0704 C   0  0  0  0  0  0
  -25.3637  -31.3765   26.1436 C   0  0  0  0  0  0
  -27.0179  -30.3057   24.6024 C   0  0  0  0  0  0
  -27.5938  -32.4345   25.7526 C   0  0  0  0  0  0
  -27.5570  -37.1808   24.8463 C   0  0  0  0  0  0
  -21.4146  -29.3017   22.3814 N   0  0  0  0  0  0
  -26.4270  -37.3821   23.9420 N   0  0  0  0  0  0
  -24.6693  -31.0771   22.0955 N   0  0  0  0  0  0
  -23.4217  -28.8190   23.3101 O   0  0  0  0  0  0
  -28.4165  -26.7333   20.0434 O   0  0  0  0  0  0
  -26.5657  -34.8959   22.4723 O   0  0  0  0  0  0
  -23.5351  -32.1401   23.7452 O   0  0  0  0  0  0
  -29.0774  -18.9808   22.0254 C   0  0  0  0  0  0
  -31.2246  -19.0000   20.8968 C   0  0  0  0  0  0
  -29.0534  -17.5694   21.9404 C   0  0  0  0  0  0
  -31.2042  -17.5892   20.8156 C   0  0  0  0  0  0
  -30.1709  -19.7131   21.5158 C   0  0  0  0  0  0
  -30.1182  -16.8480   21.3476 C   0  0  0  0  0  0
  -30.7667  -25.6745   22.1847 C   0  0  0  0  0  0
  -28.7387  -23.6131   23.2043 C   0  0  0  0  0  0
  -30.2932  -21.2244   21.7501 C   0  0  0  0  0  0
  -30.5861  -24.2520   21.6264 C   0  0  0  0  0  0
  -29.1698  -22.1452   21.1842 C   0  0  0  0  0  0
  -28.0485  -24.4539   20.9469 C   0  0  0  0  0  0
  -28.4372  -25.3300   19.7241 C   0  0  0  0  0  0
  -29.1539  -23.6319   21.7115 C   0  0  1  0  0  0
  -30.0247  -15.4155   21.3412 N   0  0  0  0  0  0
  -31.4829  -12.4483   19.1530 H   0  0  0  0  0  0
  -30.3715  -11.3155   19.8591 H   0  0  0  0  0  0
  -29.7696  -11.7577   17.4720 H   0  0  0  0  0  0
  -29.6822  -13.4760   17.7783 H   0  0  0  0  0  0
  -27.8521  -11.3003   18.8387 H   0  0  0  0  0  0
  -27.3902  -12.6120   17.7882 H   0  0  0  0  0  0
  -27.7086  -14.2517   19.5773 H   0  0  0  0  0  0
  -28.6680  -11.9547   21.3515 H   0  0  0  0  0  0
  -28.4269  -13.5846   21.8807 H   0  0  0  0  0  0
  -25.2748   -9.5718   22.4759 H   0  0  0  0  0  0
  -24.0030   -7.4637   22.7457 H   0  0  0  0  0  0
  -21.0875   -8.8729   19.8898 H   0  0  0  0  0  0
  -22.3707  -10.9646   19.6130 H   0  0  0  0  0  0
  -21.1993   -7.6144   23.9753 H   0  0  0  0  0  0
  -21.1486   -6.0504   25.9097 H   0  0  0  0  0  0
  -22.0593   -2.7617   23.2839 H   0  0  0  0  0  0
  -22.4055  -11.9884   22.4801 H   0  0  0  0  0  0
  -21.1062  -13.1205   22.2476 H   0  0  0  0  0  0
  -24.6569  -15.8395   20.5201 H   0  0  0  0  0  0
  -26.2864  -15.6379   20.1202 H   0  0  0  0  0  0
  -26.7121  -32.5495   23.1100 H   0  0  0  0  0  0
  -24.9816  -33.9729   25.0273 H   0  0  0  0  0  0
  -22.6880  -31.3086   21.4200 H   0  0  0  0  0  0
  -23.3724  -35.9676   23.3303 H   0  0  0  0  0  0
  -24.3523  -36.8976   22.2055 H   0  0  0  0  0  0
  -23.7204  -37.6538   23.6653 H   0  0  0  0  0  0
  -26.0183  -31.5805   20.5604 H   0  0  0  0  0  0
  -26.8278  -30.9045   21.9457 H   0  0  0  0  0  0
  -28.1034  -29.1085   21.1006 H   0  0  0  0  0  0
  -25.9516  -25.9487   19.0551 H   0  0  0  0  0  0
  -23.9372  -27.2694   19.0984 H   0  0  0  0  0  0
  -23.7073  -30.5963   19.4113 H   0  0  0  0  0  0
  -22.7182  -29.2501   19.8733 H   0  0  0  0  0  0
  -25.1252  -36.1986   25.0829 H   0  0  0  0  0  0
  -20.9847  -28.3147   24.1544 H   0  0  0  0  0  0
  -20.5685  -26.2226   23.3604 H   0  0  0  0  0  0
  -21.6575  -26.7475   22.1202 H   0  0  0  0  0  0
  -19.6848  -25.6321   21.1260 H   0  0  0  0  0  0
  -19.6652  -27.3221   20.6825 H   0  0  0  0  0  0
  -17.4139  -26.6728   21.4054 H   0  0  0  0  0  0
  -18.0234  -26.0129   22.9067 H   0  0  0  0  0  0
  -19.7927  -30.7255   24.2301 H   0  0  0  0  0  0
  -17.5031  -31.6309   24.5167 H   0  0  0  0  0  0
  -15.5344  -30.3074   23.7681 H   0  0  0  0  0  0
  -15.8616  -28.0912   22.7075 H   0  0  0  0  0  0
  -24.5819  -30.7096   25.7789 H   0  0  0  0  0  0
  -24.8795  -32.2934   26.4809 H   0  0  0  0  0  0
  -25.7948  -30.8993   27.0244 H   0  0  0  0  0  0
  -26.2667  -29.6949   24.0990 H   0  0  0  0  0  0
  -27.3871  -29.7181   25.4438 H   0  0  0  0  0  0
  -27.8553  -30.4415   23.9176 H   0  0  0  0  0  0
  -27.2486  -33.3640   26.2079 H   0  0  0  0  0  0
  -28.3782  -32.6925   25.0403 H   0  0  0  0  0  0
  -28.0551  -31.8490   26.5488 H   0  0  0  0  0  0
  -28.2568  -38.0122   24.7508 H   0  0  0  0  0  0
  -28.1072  -36.2639   24.6264 H   0  0  0  0  0  0
  -27.2280  -37.1454   25.8866 H   0  0  0  0  0  0
  -20.9298  -29.8755   21.7044 H   0  0  0  0  0  0
  -26.0176  -38.2904   24.1431 H   0  0  0  0  0  0
  -28.2630  -19.4978   22.5150 H   0  0  0  0  0  0
  -32.0839  -19.5323   20.5120 H   0  0  0  0  0  0
  -28.2045  -17.0403   22.3537 H   0  0  0  0  0  0
  -32.0482  -17.0961   20.3562 H   0  0  0  0  0  0
  -31.8212  -25.9491   22.1647 H   0  0  0  0  0  0
  -30.4525  -25.7575   23.2232 H   0  0  0  0  0  0
  -30.2266  -26.4222   21.6102 H   0  0  0  0  0  0
  -29.4640  -23.0928   23.8280 H   0  0  0  0  0  0
  -27.7653  -23.1489   23.3559 H   0  0  0  0  0  0
  -28.6532  -24.6195   23.6131 H   0  0  0  0  0  0
  -31.2476  -21.5530   21.3365 H   0  0  0  0  0  0
  -30.3787  -21.3490   22.8296 H   0  0  0  0  0  0
  -31.2760  -23.6337   22.1992 H   0  0  0  0  0  0
  -30.9712  -24.2119   20.6068 H   0  0  0  0  0  0
  -28.2029  -21.6970   21.4174 H   0  0  0  0  0  0
  -29.2419  -22.1356   20.0954 H   0  0  0  0  0  0
  -27.2737  -23.7591   20.6161 H   0  0  0  0  0  0
  -27.5123  -25.0981   21.6468 H   0  0  0  0  0  0
  -27.8071  -25.0976   18.8685 H   0  0  0  0  0  0
  -29.4309  -25.0844   19.3586 H   0  0  0  0  0  0
  -29.2043  -15.0433   21.7933 H   0  0  0  0  0  0
  1 25  1  0  0  0
  1 30  2  0  0  0
  1 85  1  0  0  0
  2  3  1  0  0  0
  2 25  1  0  0  0
  2 86  1  0  0  0
  2 87  1  0  0  0
  3  4  1  0  0  0
  3 88  1  0  0  0
  3 89  1  0  0  0
  4  5  1  0  0  0
  4 90  1  0  0  0
  4 91  1  0  0  0
  5  6  1  0  0  0
  5 26  1  0  0  0
  5 92  1  0  0  0
  6 25  1  0  0  0
  6 93  1  0  0  0
  6 94  1  0  0  0
  7  8  2  0  0  0
  7 26  1  0  0  0
  7 29  1  0  0  0
  8  9  1  0  0  0
  8 22  1  0  0  0
  9 10  1  0  0  0
  9 27  2  0  0  0
 10 11  2  0  0  0
 10 15  1  0  0  0
 11 12  1  0  0  0
 11 95  1  0  0  0
 12 13  2  0  0  0
 12 96  1  0  0  0
 13 14  1  0  0  0
 13 31  1  0  0  0
 14 15  2  0  0  0
 14 97  1  0  0  0
 15 98  1  0  0  0
 16 17  2  0  0  0
 16 21  1  0  0  0
 16 31  1  0  0  0
 17 18  1  0  0  0
 17 99  1  0  0  0
 18 19  2  0  0  0
 18100  1  0  0  0
 19 20  1  0  0  0
 19 24  1  0  0  0
 20 21  2  0  0  0
 20101  1  0  0  0
 21 23  1  0  0  0
 22 28  1  0  0  0
 22 32  2  0  0  0
 26 27  1  0  0  0
 28102  1  0  0  0
 28103  1  0  0  0
 29104  1  0  0  0
 29105  1  0  0  0
 33 34  1  0  0  0
 33 66  1  0  0  0
 33 70  2  0  0  0
 34 36  1  0  0  0
 34 59  1  0  0  0
 34106  1  0  0  0
 35 44  2  0  0  0
 35 45  1  0  0  0
 35 68  1  0  0  0
 36 56  1  0  0  0
 36107  1  0  0  0
 37 39  1  0  0  0
 37 47  1  0  0  0
 37 66  1  0  0  0
 37108  1  0  0  0
 38 43  2  0  0  0
 38 46  1  0  0  0
 38 47  1  0  0  0
 39 64  1  0  0  0
 39 67  2  0  0  0
 40 52  1  0  0  0
 40 53  2  0  0  0
 40 58  1  0  0  0
 41109  1  0  0  0
 41110  1  0  0  0
 41111  1  0  0  0
 41 48  1  0  0  0
 42 43  1  0  0  0
 42 66  1  0  0  0
 42112  1  0  0  0
 42113  1  0  0  0
 43 44  1  0  0  0
 44114  1  0  0  0
 45 46  2  0  0  0
 45115  1  0  0  0
 46116  1  0  0  0
 47117  1  0  0  0
 47118  1  0  0  0
 48 56  1  0  0  0
 48 65  1  0  0  0
 48119  1  0  0  0
 49 50  1  0  0  0
 49 53  1  0  0  0
 49 64  1  0  0  0
 49120  1  0  0  0
 50 51  1  0  0  0
 50121  1  0  0  0
 50122  1  0  0  0
 51 52  1  0  0  0
 51123  1  0  0  0
 51124  1  0  0  0
 52125  1  0  0  0
 52126  1  0  0  0
 53 54  1  0  0  0
 54 55  2  0  0  0
 54127  1  0  0  0
 55 57  1  0  0  0
 55128  1  0  0  0
 56 69  2  0  0  0
 57 58  2  0  0  0
 57129  1  0  0  0
 58130  1  0  0  0
 59 60  1  0  0  0
 59 61  1  0  0  0
 59 62  1  0  0  0
 60131  1  0  0  0
 60132  1  0  0  0
 60133  1  0  0  0
 61134  1  0  0  0
 61135  1  0  0  0
 61136  1  0  0  0
 62137  1  0  0  0
 62138  1  0  0  0
 62139  1  0  0  0
 63 65  1  0  0  0
 63140  1  0  0  0
 63141  1  0  0  0
 63142  1  0  0  0
 64143  1  0  0  0
 65144  1  0  0  0
 68 83  1  0  0  0
 71 73  2  0  0  0
 71 75  1  0  0  0
 71145  1  0  0  0
 72 74  1  0  0  0
 72 75  2  0  0  0
 72146  1  0  0  0
 73 76  1  0  0  0
 73147  1  0  0  0
 74 76  2  0  0  0
 74148  1  0  0  0
 75 79  1  0  0  0
 76 85  1  0  0  0
 77 80  1  0  0  0
 77149  1  0  0  0
 77150  1  0  0  0
 77151  1  0  0  0
 78152  1  0  0  0
 78153  1  0  0  0
 78154  1  0  0  0
 78 84  1  0  0  0
 79 81  1  0  0  0
 79155  1  0  0  0
 79156  1  0  0  0
 80 84  1  0  0  0
 80157  1  0  0  0
 80158  1  0  0  0
 81 84  1  0  0  0
 81159  1  0  0  0
 81160  1  0  0  0
 82 83  1  0  0  0
 82 84  1  0  0  0
 82161  1  0  0  0
 82162  1  0  0  0
 83163  1  0  0  0
 83164  1  0  0  0
 85165  1  0  0  0
M  ISO  4   1 100  68 101  83 101  85 100
M  END
> <chiral flag>
0

> <version>
0

> <s_m_source_file>
/data/baiqing/PycharmProjects/Reinvent-master-3.2/result/LINK_invent/BTK/process_docking_weight1_custom_product_contain_oxygen_bond_distance_aromatic_linkinvent_7_9_3/rearranged_h_0135.sdf

> <i_m_source_file_index>
58

> <r_mmod_Potential_Energy-OPLS-2005>
27.0124816894531

> <r_mmod_Stretch_Energy-OPLS-2005>
45.6624641418457

> <r_mmod_Bend_Energy-OPLS-2005>
127.268402099609

> <r_mmod_Torsional_Energy-OPLS-2005>
236.987731933594

> <r_mmod_Improper_Torsional_Energy-OPLS-2005>
3.01794791221619

> <r_mmod_Van_der_Waal_Energy-OPLS-2005>
166.667098999023

> <r_mmod_Electrostatic_Energy-OPLS-2005>
-376.56005859375

> <r_mmod_Solvation_Energy-OPLS-2005>
-190.067825317383

> <b_mmod_Minimization_Converged-OPLS-2005>
0

> <r_mmod_RMS_Derivative-OPLS-2005>
4.03140640258789

$$$$
58
                    3D
 Structure written by MMmdl.
177185  0  0  1  0            999 V2000
  -30.7610  -14.3503   20.7495 C   0  0  0  0  0  0
  -30.4321  -12.3052   19.3950 C   0  0  0  0  0  0
  -29.4931  -12.5365   18.1983 C   0  0  0  0  0  0
  -28.0220  -12.3666   18.6142 C   0  0  0  0  0  0
  -27.6688  -13.1912   19.8778 C   0  0  2  0  0  0
  -28.6976  -12.9206   20.9949 C   0  0  0  0  0  0
  -25.2636  -13.8119   20.5654 C   0  0  0  0  0  0
  -24.1821  -13.0435   20.9090 C   0  0  0  0  0  0
  -24.6367  -11.6909   20.8690 C   0  0  0  0  0  0
  -23.9017  -10.4290   21.0403 C   0  0  0  0  0  0
  -24.3557   -9.4191   21.9178 C   0  0  0  0  0  0
  -23.6212   -8.2251   22.0767 C   0  0  0  0  0  0
  -22.4218   -8.0261   21.3562 C   0  0  0  0  0  0
  -21.9857   -9.0252   20.4690 C   0  0  0  0  0  0
  -22.7184  -10.2126   20.3079 C   0  0  0  0  0  0
  -21.6806   -6.0697   22.5280 C   0  0  0  0  0  0
  -21.4014   -6.5613   23.8214 C   0  0  0  0  0  0
  -21.3671   -5.6774   24.9189 C   0  0  0  0  0  0
  -21.6044   -4.3026   24.7244 C   0  0  0  0  0  0
  -21.8799   -3.8127   23.4360 C   0  0  0  0  0  0
  -21.9166   -4.6929   22.3406 C   0  0  0  0  0  0
  -22.7882  -13.5310   21.1813 C   0  0  0  0  0  0
  -22.1643   -4.2128   21.0974 F   0  0  0  0  0  0
  -21.5646   -3.4501   25.7755 F   0  0  0  0  0  0
  -30.0463  -13.2292   20.4725 N   0  0  0  0  0  0
  -26.3038  -12.9262   20.3320 N   0  0  0  0  0  0
  -25.9286  -11.6434   20.5695 N   0  0  0  0  0  0
  -22.0528  -12.8374   22.0451 N   0  0  0  0  0  0
  -25.4466  -15.1821   20.4255 N   0  0  0  0  0  0
  -31.7724  -14.6756   20.1176 O   0  0  0  0  0  0
  -21.6603   -6.8834   21.4245 O   0  0  0  0  0  0
  -22.3610  -14.5617   20.6622 O   0  0  0  0  0  0
  -24.6097  -31.8712   23.2136 C   0  0  0  0  0  0
  -25.9030  -32.4843   23.8394 C   0  0  1  0  0  0
  -27.2496  -27.5053   20.0682 C   0  0  0  0  0  0
  -25.5899  -33.8642   24.2330 N   0  0  0  0  0  0
  -23.3929  -30.4922   21.5555 C   0  0  2  0  0  0
  -24.8423  -28.9694   20.1082 C   0  0  0  0  0  0
  -22.7386  -29.4651   22.5053 C   0  0  0  0  0  0
  -18.0272  -28.1311   22.8509 C   0  0  0  0  0  0
  -24.1490  -36.7315   23.2632 C   0  0  0  0  0  0
  -25.9149  -30.8523   21.3624 C   0  0  0  0  0  0
  -25.9958  -29.4946   20.7070 C   0  0  0  0  0  0
  -27.2004  -28.7684   20.6915 C   0  0  0  0  0  0
  -26.0920  -26.9884   19.4522 C   0  0  0  0  0  0
  -24.8811  -27.7113   19.4799 C   0  0  0  0  0  0
  -23.5953  -29.8222   20.1692 C   0  0  0  0  0  0
  -25.4108  -36.3114   24.0330 C   0  0  1  0  0  0
  -20.5853  -28.3653   23.1381 C   0  0  2  0  0  0
  -20.6805  -26.9382   22.5512 C   0  0  0  0  0  0
  -19.5844  -26.6308   21.5271 C   0  0  0  0  0  0
  -18.1992  -26.7834   22.1666 C   0  0  0  0  0  0
  -19.1510  -28.8814   23.2900 C   0  0  0  0  0  0
  -18.9405  -30.1449   23.8853 C   0  0  0  0  0  0
  -17.6404  -30.6596   24.0462 C   0  0  0  0  0  0
  -25.9034  -34.9495   23.5127 C   0  0  0  0  0  0
  -16.5317  -29.9040   23.6262 C   0  0  0  0  0  0
  -16.7244  -28.6429   23.0350 C   0  0  0  0  0  0
  -26.4468  -31.6604   25.0700 C   0  0  0  0  0  0
  -25.3755  -31.3685   26.1464 C   0  0  0  0  0  0
  -27.0282  -30.3047   24.6028 C   0  0  0  0  0  0
  -27.6057  -32.4305   25.7448 C   0  0  0  0  0  0
  -27.5575  -37.1806   24.8457 C   0  0  0  0  0  0
  -21.4115  -29.3015   22.3799 N   0  0  0  0  0  0
  -26.4296  -37.3787   23.9396 N   0  0  0  0  0  0
  -24.6572  -31.0840   22.1029 N   0  0  0  0  0  0
  -23.4195  -28.8173   23.3049 O   0  0  0  0  0  0
  -28.3994  -26.7612   20.0536 O   0  0  0  0  0  0
  -26.5599  -34.8938   22.4685 O   0  0  0  0  0  0
  -23.5308  -32.1489   23.7556 O   0  0  0  0  0  0
  -28.2894  -16.1684   23.4998 C   0  0  0  0  0  0
  -27.0048  -18.2021   23.9001 C   0  0  0  0  0  0
  -29.2986  -18.3363   23.0836 C   0  0  0  0  0  0
  -27.0958  -16.8005   23.9143 C   0  0  0  0  0  0
  -29.4045  -16.9254   23.0508 C   0  0  0  0  0  0
  -28.1095  -18.9752   23.4796 C   0  0  0  0  0  0
  -27.1182  -20.9316   22.8440 C   0  0  0  0  0  0
  -25.8993  -15.9920   24.3734 C   0  0  0  0  0  0
  -25.8049  -23.1728   20.5430 C   0  0  0  0  0  0
  -26.7934  -25.6878   22.5609 C   0  0  0  0  0  0
  -31.4774  -15.7579   23.8056 C   0  0  0  0  0  0
  -31.6016  -17.1554   21.7252 C   0  0  0  0  0  0
  -27.0187  -22.4289   22.6990 C   0  0  0  0  0  0
  -28.1748  -24.0365   21.0258 C   0  0  0  0  0  0
  -28.9341  -26.4322   21.3381 C   0  0  0  0  0  0
  -27.1577  -22.8930   21.2289 C   0  0  2  0  0  0
  -28.1647  -25.2556   21.9896 C   0  0  1  0  0  0
  -30.6900  -16.2203   22.5645 C   0  0  0  0  0  0
  -28.0826  -20.3668   23.4444 N   0  0  0  0  0  0
  -30.2858  -15.0218   21.8131 N   0  0  0  0  0  0
  -31.4715  -12.4317   19.0888 H   0  0  0  0  0  0
  -30.3575  -11.2766   19.7504 H   0  0  0  0  0  0
  -29.7348  -11.8535   17.3819 H   0  0  0  0  0  0
  -29.6451  -13.5458   17.8120 H   0  0  0  0  0  0
  -27.8450  -11.3043   18.7970 H   0  0  0  0  0  0
  -27.3690  -12.6460   17.7871 H   0  0  0  0  0  0
  -27.7352  -14.2467   19.6049 H   0  0  0  0  0  0
  -28.6696  -11.8729   21.3013 H   0  0  0  0  0  0
  -28.4076  -13.4673   21.8911 H   0  0  0  0  0  0
  -25.2727   -9.5609   22.4712 H   0  0  0  0  0  0
  -23.9920   -7.4639   22.7472 H   0  0  0  0  0  0
  -21.0787   -8.8733   19.9005 H   0  0  0  0  0  0
  -22.3624  -10.9627   19.6147 H   0  0  0  0  0  0
  -21.2021   -7.6124   23.9705 H   0  0  0  0  0  0
  -21.1529   -6.0513   25.9072 H   0  0  0  0  0  0
  -22.0578   -2.7582   23.2872 H   0  0  0  0  0  0
  -22.4121  -12.0024   22.4859 H   0  0  0  0  0  0
  -21.1184  -13.1478   22.2705 H   0  0  0  0  0  0
  -24.7074  -15.8431   20.6288 H   0  0  0  0  0  0
  -26.3460  -15.6232   20.2869 H   0  0  0  0  0  0
  -26.7095  -32.5578   23.1157 H   0  0  0  0  0  0
  -25.0077  -33.9803   25.0496 H   0  0  0  0  0  0
  -22.6776  -31.3066   21.4212 H   0  0  0  0  0  0
  -23.3744  -35.9655   23.3327 H   0  0  0  0  0  0
  -24.3576  -36.8896   22.2034 H   0  0  0  0  0  0
  -23.7263  -37.6537   23.6633 H   0  0  0  0  0  0
  -26.0202  -31.6192   20.5951 H   0  0  0  0  0  0
  -26.8070  -30.9049   21.9748 H   0  0  0  0  0  0
  -28.0915  -29.1774   21.1477 H   0  0  0  0  0  0
  -26.1234  -26.0168   18.9820 H   0  0  0  0  0  0
  -23.9970  -27.2963   19.0145 H   0  0  0  0  0  0
  -23.6856  -30.5976   19.4071 H   0  0  0  0  0  0
  -22.7234  -29.2304   19.8843 H   0  0  0  0  0  0
  -25.1282  -36.1970   25.0820 H   0  0  0  0  0  0
  -20.9844  -28.3237   24.1541 H   0  0  0  0  0  0
  -20.5637  -26.2293   23.3719 H   0  0  0  0  0  0
  -21.6715  -26.7372   22.1426 H   0  0  0  0  0  0
  -19.7063  -25.6188   21.1373 H   0  0  0  0  0  0
  -19.6790  -27.3086   20.6765 H   0  0  0  0  0  0
  -17.4271  -26.6522   21.4078 H   0  0  0  0  0  0
  -18.0472  -25.9984   22.9100 H   0  0  0  0  0  0
  -19.7894  -30.7278   24.2204 H   0  0  0  0  0  0
  -17.4910  -31.6316   24.4935 H   0  0  0  0  0  0
  -15.5309  -30.2937   23.7508 H   0  0  0  0  0  0
  -15.8624  -28.0724   22.7124 H   0  0  0  0  0  0
  -24.5908  -30.7062   25.7778 H   0  0  0  0  0  0
  -24.8996  -32.2855   26.4964 H   0  0  0  0  0  0
  -25.8147  -30.8802   27.0183 H   0  0  0  0  0  0
  -26.2815  -29.6803   24.1116 H   0  0  0  0  0  0
  -27.4097  -29.7250   25.4439 H   0  0  0  0  0  0
  -27.8624  -30.4330   23.9126 H   0  0  0  0  0  0
  -27.2680  -33.3565   26.2103 H   0  0  0  0  0  0
  -28.3835  -32.6945   25.0271 H   0  0  0  0  0  0
  -28.0785  -31.8409   26.5302 H   0  0  0  0  0  0
  -28.2606  -38.0087   24.7494 H   0  0  0  0  0  0
  -28.1063  -36.2630   24.6313 H   0  0  0  0  0  0
  -27.2300  -37.1484   25.8860 H   0  0  0  0  0  0
  -20.9321  -29.8799   21.7046 H   0  0  0  0  0  0
  -26.0195  -38.2863   24.1418 H   0  0  0  0  0  0
  -28.3369  -15.0920   23.5329 H   0  0  0  0  0  0
  -26.0800  -18.6739   24.2087 H   0  0  0  0  0  0
  -30.1227  -18.9663   22.7864 H   0  0  0  0  0  0
  -26.2995  -20.3834   22.3692 H   0  0  0  0  0  0
  -26.0461  -14.9239   24.2117 H   0  0  0  0  0  0
  -25.0066  -16.2888   23.8210 H   0  0  0  0  0  0
  -25.7206  -16.1592   25.4368 H   0  0  0  0  0  0
  -25.1331  -22.3181   20.6354 H   0  0  0  0  0  0
  -25.9421  -23.3734   19.4794 H   0  0  0  0  0  0
  -25.2862  -24.0315   20.9627 H   0  0  0  0  0  0
  -26.0543  -25.8975   21.7921 H   0  0  0  0  0  0
  -26.8967  -26.5937   23.1591 H   0  0  0  0  0  0
  -26.3587  -24.9408   23.2189 H   0  0  0  0  0  0
  -31.7437  -16.6048   24.4406 H   0  0  0  0  0  0
  -32.4061  -15.2558   23.5327 H   0  0  0  0  0  0
  -30.9009  -15.0620   24.4152 H   0  0  0  0  0  0
  -31.9291  -18.0331   22.2820 H   0  0  0  0  0  0
  -31.1038  -17.5009   20.8181 H   0  0  0  0  0  0
  -32.5286  -16.6624   21.4364 H   0  0  0  0  0  0
  -27.7963  -22.8719   23.3212 H   0  0  0  0  0  0
  -26.0675  -22.7462   23.1266 H   0  0  0  0  0  0
  -28.0776  -24.3649   19.9909 H   0  0  0  0  0  0
  -29.1776  -23.6071   21.0746 H   0  0  0  0  0  0
  -29.9746  -26.1411   21.1852 H   0  0  0  0  0  0
  -28.9697  -27.2895   22.0075 H   0  0  0  0  0  0
  -27.5850  -22.0691   20.6560 H   0  0  0  0  0  0
  -28.7519  -24.9687   22.8637 H   0  0  0  0  0  0
  -29.4464  -14.5997   22.1745 H   0  0  0  0  0  0
  1 25  1  0  0  0
  1 30  2  0  0  0
  1 90  1  0  0  0
  2  3  1  0  0  0
  2 25  1  0  0  0
  2 91  1  0  0  0
  2 92  1  0  0  0
  3  4  1  0  0  0
  3 93  1  0  0  0
  3 94  1  0  0  0
  4  5  1  0  0  0
  4 95  1  0  0  0
  4 96  1  0  0  0
  5  6  1  0  0  0
  5 26  1  0  0  0
  5 97  1  0  0  0
  6 25  1  0  0  0
  6 98  1  0  0  0
  6 99  1  0  0  0
  7  8  2  0  0  0
  7 26  1  0  0  0
  7 29  1  0  0  0
  8  9  1  0  0  0
  8 22  1  0  0  0
  9 10  1  0  0  0
  9 27  2  0  0  0
 10 11  2  0  0  0
 10 15  1  0  0  0
 11 12  1  0  0  0
 11100  1  0  0  0
 12 13  2  0  0  0
 12101  1  0  0  0
 13 14  1  0  0  0
 13 31  1  0  0  0
 14 15  2  0  0  0
 14102  1  0  0  0
 15103  1  0  0  0
 16 17  2  0  0  0
 16 21  1  0  0  0
 16 31  1  0  0  0
 17 18  1  0  0  0
 17104  1  0  0  0
 18 19  2  0  0  0
 18105  1  0  0  0
 19 20  1  0  0  0
 19 24  1  0  0  0
 20 21  2  0  0  0
 20106  1  0  0  0
 21 23  1  0  0  0
 22 28  1  0  0  0
 22 32  2  0  0  0
 26 27  1  0  0  0
 28107  1  0  0  0
 28108  1  0  0  0
 29109  1  0  0  0
 29110  1  0  0  0
 33 34  1  0  0  0
 33 66  1  0  0  0
 33 70  2  0  0  0
 34 36  1  0  0  0
 34 59  1  0  0  0
 34111  1  0  0  0
 35 44  2  0  0  0
 35 45  1  0  0  0
 35 68  1  0  0  0
 36 56  1  0  0  0
 36112  1  0  0  0
 37 39  1  0  0  0
 37 47  1  0  0  0
 37 66  1  0  0  0
 37113  1  0  0  0
 38 43  2  0  0  0
 38 46  1  0  0  0
 38 47  1  0  0  0
 39 64  1  0  0  0
 39 67  2  0  0  0
 40 52  1  0  0  0
 40 53  2  0  0  0
 40 58  1  0  0  0
 41114  1  0  0  0
 41115  1  0  0  0
 41116  1  0  0  0
 41 48  1  0  0  0
 42 43  1  0  0  0
 42 66  1  0  0  0
 42117  1  0  0  0
 42118  1  0  0  0
 43 44  1  0  0  0
 44119  1  0  0  0
 45 46  2  0  0  0
 45120  1  0  0  0
 46121  1  0  0  0
 47122  1  0  0  0
 47123  1  0  0  0
 48 56  1  0  0  0
 48 65  1  0  0  0
 48124  1  0  0  0
 49 50  1  0  0  0
 49 53  1  0  0  0
 49 64  1  0  0  0
 49125  1  0  0  0
 50 51  1  0  0  0
 50126  1  0  0  0
 50127  1  0  0  0
 51 52  1  0  0  0
 51128  1  0  0  0
 51129  1  0  0  0
 52130  1  0  0  0
 52131  1  0  0  0
 53 54  1  0  0  0
 54 55  2  0  0  0
 54132  1  0  0  0
 55 57  1  0  0  0
 55133  1  0  0  0
 56 69  2  0  0  0
 57 58  2  0  0  0
 57134  1  0  0  0
 58135  1  0  0  0
 59 60  1  0  0  0
 59 61  1  0  0  0
 59 62  1  0  0  0
 60136  1  0  0  0
 60137  1  0  0  0
 60138  1  0  0  0
 61139  1  0  0  0
 61140  1  0  0  0
 61141  1  0  0  0
 62142  1  0  0  0
 62143  1  0  0  0
 62144  1  0  0  0
 63 65  1  0  0  0
 63145  1  0  0  0
 63146  1  0  0  0
 63147  1  0  0  0
 64148  1  0  0  0
 65149  1  0  0  0
 68 85  1  0  0  0
 71 74  2  0  0  0
 71 75  1  0  0  0
 71150  1  0  0  0
 72 74  1  0  0  0
 72 76  2  0  0  0
 72151  1  0  0  0
 73 75  2  0  0  0
 73 76  1  0  0  0
 73152  1  0  0  0
 74 78  1  0  0  0
 75 88  1  0  0  0
 76 89  1  0  0  0
 77 83  1  0  0  0
 77 89  2  0  0  0
 77153  1  0  0  0
 78154  1  0  0  0
 78155  1  0  0  0
 78156  1  0  0  0
 79157  1  0  0  0
 79158  1  0  0  0
 79159  1  0  0  0
 79 86  1  0  0  0
 80160  1  0  0  0
 80161  1  0  0  0
 80162  1  0  0  0
 80 87  1  0  0  0
 81163  1  0  0  0
 81164  1  0  0  0
 81165  1  0  0  0
 81 88  1  0  0  0
 82 88  1  0  0  0
 82166  1  0  0  0
 82167  1  0  0  0
 82168  1  0  0  0
 83 86  1  0  0  0
 83169  1  0  0  0
 83170  1  0  0  0
 84 86  1  0  0  0
 84 87  1  0  0  0
 84171  1  0  0  0
 84172  1  0  0  0
 85 87  1  0  0  0
 85173  1  0  0  0
 85174  1  0  0  0
 86175  1  0  0  0
 87176  1  0  0  0
 88 90  1  0  0  0
 90177  1  0  0  0
M  ISO  4   1 100  68 101  85 101  90 100
M  END
> <chiral flag>
0

> <version>
0

> <s_m_source_file>
/data/baiqing/PycharmProjects/Reinvent-master-3.2/result/LINK_invent/BTK/process_docking_weight1_custom_product_contain_oxygen_bond_distance_aromatic_linkinvent_7_9_3/rearranged_h_0135.sdf

> <i_m_source_file_index>
59

> <r_mmod_Potential_Energy-OPLS-2005>
-31.0159187316895

> <r_mmod_Stretch_Energy-OPLS-2005>
36.4301643371582

> <r_mmod_Bend_Energy-OPLS-2005>
125.464736938477

> <r_mmod_Torsional_Energy-OPLS-2005>
244.567016601562

> <r_mmod_Improper_Torsional_Energy-OPLS-2005>
2.00831985473633

> <r_mmod_Van_der_Waal_Energy-OPLS-2005>
167.520248413086

> <r_mmod_Electrostatic_Energy-OPLS-2005>
-423.794860839844

> <r_mmod_Solvation_Energy-OPLS-2005>
-191.705139160156

> <b_mmod_Minimization_Converged-OPLS-2005>
0

> <r_mmod_RMS_Derivative-OPLS-2005>
4.89639043807983

$$$$
59
                    3D
 Structure written by MMmdl.
168176  0  0  1  0            999 V2000
  -30.6230  -14.5506   20.5875 C   0  0  0  0  0  0
  -30.4501  -12.3596   19.4193 C   0  0  0  0  0  0
  -29.5041  -12.5204   18.2075 C   0  0  0  0  0  0
  -28.0255  -12.3611   18.6211 C   0  0  0  0  0  0
  -27.6645  -13.1970   19.8768 C   0  0  2  0  0  0
  -28.7078  -12.9573   20.9910 C   0  0  0  0  0  0
  -25.2617  -13.8127   20.5676 C   0  0  0  0  0  0
  -24.1854  -13.0423   20.9168 C   0  0  0  0  0  0
  -24.6397  -11.6883   20.8732 C   0  0  0  0  0  0
  -23.9054  -10.4281   21.0405 C   0  0  0  0  0  0
  -24.3607   -9.4199   21.9187 C   0  0  0  0  0  0
  -23.6281   -8.2234   22.0757 C   0  0  0  0  0  0
  -22.4266   -8.0277   21.3543 C   0  0  0  0  0  0
  -21.9902   -9.0249   20.4646 C   0  0  0  0  0  0
  -22.7228  -10.2127   20.3053 C   0  0  0  0  0  0
  -21.6850   -6.0735   22.5279 C   0  0  0  0  0  0
  -21.4012   -6.5637   23.8212 C   0  0  0  0  0  0
  -21.3658   -5.6790   24.9175 C   0  0  0  0  0  0
  -21.6046   -4.3052   24.7224 C   0  0  0  0  0  0
  -21.8820   -3.8146   23.4344 C   0  0  0  0  0  0
  -21.9191   -4.6963   22.3401 C   0  0  0  0  0  0
  -22.7879  -13.5238   21.1843 C   0  0  0  0  0  0
  -22.1661   -4.2149   21.0979 F   0  0  0  0  0  0
  -21.5629   -3.4538   25.7737 F   0  0  0  0  0  0
  -30.0323  -13.3250   20.4494 N   0  0  0  0  0  0
  -26.3043  -12.9273   20.3363 N   0  0  0  0  0  0
  -25.9317  -11.6448   20.5749 N   0  0  0  0  0  0
  -22.0514  -12.8225   22.0393 N   0  0  0  0  0  0
  -25.4368  -15.1842   20.4107 N   0  0  0  0  0  0
  -31.7346  -14.8160   20.1167 O   0  0  0  0  0  0
  -21.6632   -6.8875   21.4241 O   0  0  0  0  0  0
  -22.3569  -14.5552   20.6703 O   0  0  0  0  0  0
  -24.6190  -31.8631   23.2042 C   0  0  0  0  0  0
  -25.9060  -32.4801   23.8357 C   0  0  1  0  0  0
  -27.2425  -27.3887   20.1109 C   0  0  0  0  0  0
  -25.5901  -33.8597   24.2295 N   0  0  0  0  0  0
  -23.4103  -30.4833   21.5453 C   0  0  2  0  0  0
  -24.8584  -28.9370   20.1195 C   0  0  0  0  0  0
  -22.7445  -29.4627   22.4971 C   0  0  0  0  0  0
  -18.0282  -28.1371   22.8477 C   0  0  0  0  0  0
  -24.1486  -36.7300   23.2640 C   0  0  0  0  0  0
  -25.9431  -30.8170   21.3615 C   0  0  0  0  0  0
  -26.0218  -29.4447   20.7121 C   0  0  0  0  0  0
  -27.2164  -28.6823   20.6943 C   0  0  0  0  0  0
  -26.0606  -26.9035   19.5117 C   0  0  0  0  0  0
  -24.8752  -27.6670   19.5143 C   0  0  0  0  0  0
  -23.6238  -29.8107   20.1624 C   0  0  0  0  0  0
  -25.4106  -36.3090   24.0337 C   0  0  1  0  0  0
  -20.5878  -28.3664   23.1302 C   0  0  2  0  0  0
  -20.6765  -26.9397   22.5409 C   0  0  0  0  0  0
  -19.5746  -26.6378   21.5204 C   0  0  0  0  0  0
  -18.1926  -26.7912   22.1618 C   0  0  0  0  0  0
  -19.1532  -28.8837   23.2879 C   0  0  0  0  0  0
  -18.9463  -30.1440   23.8898 C   0  0  0  0  0  0
  -17.6465  -30.6576   24.0570 C   0  0  0  0  0  0
  -25.9046  -34.9462   23.5118 C   0  0  0  0  0  0
  -16.5357  -29.9081   23.6325 C   0  0  0  0  0  0
  -16.7271  -28.6499   23.0332 C   0  0  0  0  0  0
  -26.4477  -31.6592   25.0699 C   0  0  0  0  0  0
  -25.3737  -31.3707   26.1449 C   0  0  0  0  0  0
  -27.0305  -30.3033   24.6074 C   0  0  0  0  0  0
  -27.6042  -32.4327   25.7479 C   0  0  0  0  0  0
  -27.5574  -37.1797   24.8469 C   0  0  0  0  0  0
  -21.4169  -29.3025   22.3712 N   0  0  0  0  0  0
  -26.4287  -37.3773   23.9415 N   0  0  0  0  0  0
  -24.6763  -31.0694   22.0959 N   0  0  0  0  0  0
  -23.4203  -28.8162   23.3015 O   0  0  0  0  0  0
  -28.4164  -26.6505   20.0767 O   0  0  0  0  0  0
  -26.5593  -34.8921   22.4674 O   0  0  0  0  0  0
  -23.5366  -32.1408   23.7402 O   0  0  0  0  0  0
  -29.5768  -19.5599   22.3339 C   0  0  0  0  0  0
  -29.4294  -17.1777   22.8158 C   0  0  0  0  0  0
  -30.1812  -17.9239   20.6188 C   0  0  0  0  0  0
  -29.2802  -18.5149   23.2250 C   0  0  0  0  0  0
  -30.0025  -19.2935   21.0162 C   0  0  0  0  0  0
  -29.8910  -16.8532   21.5224 C   0  0  0  0  0  0
  -28.7643  -18.8338   24.6134 C   0  0  0  0  0  0
  -29.1145  -25.1926   21.8092 C   0  0  0  0  0  0
  -31.3002  -23.5458   20.1730 C   0  0  0  0  0  0
  -30.3771  -22.7125   18.0219 C   0  0  0  0  0  0
  -30.3132  -20.4883   20.0791 C   0  0  0  0  0  0
  -29.4241  -21.8048   20.1769 C   0  0  0  0  0  0
  -29.0122  -24.3485   19.3027 C   0  0  0  0  0  0
  -28.4043  -25.2414   20.4525 C   0  0  2  0  0  0
  -29.9965  -23.1013   19.4720 C   0  0  0  0  0  0
  -29.8194  -15.4527   21.2013 N   0  0  0  0  0  0
  -31.4875  -12.5098   19.1156 H   0  0  0  0  0  0
  -30.3979  -11.3441   19.8150 H   0  0  0  0  0  0
  -29.7551  -11.7910   17.4364 H   0  0  0  0  0  0
  -29.6510  -13.5029   17.7562 H   0  0  0  0  0  0
  -27.8501  -11.3034   18.8219 H   0  0  0  0  0  0
  -27.3698  -12.6250   17.7906 H   0  0  0  0  0  0
  -27.7108  -14.2468   19.5865 H   0  0  0  0  0  0
  -28.7101  -11.9057   21.2824 H   0  0  0  0  0  0
  -28.4460  -13.4971   21.9020 H   0  0  0  0  0  0
  -25.2753   -9.5676   22.4760 H   0  0  0  0  0  0
  -23.9992   -7.4628   22.7472 H   0  0  0  0  0  0
  -21.0835   -8.8768   19.8945 H   0  0  0  0  0  0
  -22.3695  -10.9668   19.6159 H   0  0  0  0  0  0
  -21.2004   -7.6145   23.9717 H   0  0  0  0  0  0
  -21.1481   -6.0519   25.9077 H   0  0  0  0  0  0
  -22.0602   -2.7608   23.2845 H   0  0  0  0  0  0
  -22.4115  -11.9872   22.4761 H   0  0  0  0  0  0
  -21.1139  -13.1261   22.2611 H   0  0  0  0  0  0
  -24.6769  -15.8451   20.5307 H   0  0  0  0  0  0
  -26.2966  -15.6227   20.1043 H   0  0  0  0  0  0
  -26.7138  -32.5506   23.1120 H   0  0  0  0  0  0
  -25.0073  -33.9762   25.0453 H   0  0  0  0  0  0
  -22.6998  -31.2989   21.3977 H   0  0  0  0  0  0
  -23.3744  -35.9638   23.3320 H   0  0  0  0  0  0
  -24.3593  -36.8901   22.2056 H   0  0  0  0  0  0
  -23.7247  -37.6513   23.6651 H   0  0  0  0  0  0
  -26.0545  -31.5800   20.5904 H   0  0  0  0  0  0
  -26.8315  -30.8752   21.9797 H   0  0  0  0  0  0
  -28.1205  -29.0753   21.1392 H   0  0  0  0  0  0
  -26.0569  -25.9363   19.0298 H   0  0  0  0  0  0
  -23.9840  -27.2698   19.0468 H   0  0  0  0  0  0
  -23.7418  -30.5854   19.4039 H   0  0  0  0  0  0
  -22.7468  -29.2347   19.8614 H   0  0  0  0  0  0
  -25.1282  -36.1950   25.0825 H   0  0  0  0  0  0
  -20.9956  -28.3224   24.1429 H   0  0  0  0  0  0
  -20.5656  -26.2277   23.3601 H   0  0  0  0  0  0
  -21.6634  -26.7419   22.1208 H   0  0  0  0  0  0
  -19.6913  -25.6289   21.1233 H   0  0  0  0  0  0
  -19.6685  -27.3192   20.6741 H   0  0  0  0  0  0
  -17.4190  -26.6663   21.4029 H   0  0  0  0  0  0
  -18.0326  -26.0049   22.9013 H   0  0  0  0  0  0
  -19.7944  -30.7252   24.2259 H   0  0  0  0  0  0
  -17.5028  -31.6261   24.5167 H   0  0  0  0  0  0
  -15.5354  -30.2989   23.7647 H   0  0  0  0  0  0
  -15.8674  -28.0846   22.7006 H   0  0  0  0  0  0
  -24.5915  -30.7049   25.7794 H   0  0  0  0  0  0
  -24.8924  -32.2865   26.4893 H   0  0  0  0  0  0
  -25.8088  -30.8888   27.0216 H   0  0  0  0  0  0
  -26.2843  -29.6811   24.1126 H   0  0  0  0  0  0
  -27.4084  -29.7249   25.4518 H   0  0  0  0  0  0
  -27.8670  -30.4362   23.9212 H   0  0  0  0  0  0
  -27.2647  -33.3622   26.2061 H   0  0  0  0  0  0
  -28.3849  -32.6903   25.0309 H   0  0  0  0  0  0
  -28.0712  -31.8453   26.5397 H   0  0  0  0  0  0
  -28.2580  -38.0100   24.7502 H   0  0  0  0  0  0
  -28.1074  -36.2629   24.6304 H   0  0  0  0  0  0
  -27.2303  -37.1460   25.8874 H   0  0  0  0  0  0
  -20.9333  -29.8784   21.6968 H   0  0  0  0  0  0
  -26.0178  -38.2849   24.1420 H   0  0  0  0  0  0
  -29.4675  -20.5760   22.6816 H   0  0  0  0  0  0
  -29.1641  -16.3886   23.5065 H   0  0  0  0  0  0
  -30.5037  -17.6972   19.6125 H   0  0  0  0  0  0
  -29.0335  -19.8479   24.9109 H   0  0  0  0  0  0
  -29.1756  -18.1441   25.3512 H   0  0  0  0  0  0
  -27.6766  -18.7524   24.6354 H   0  0  0  0  0  0
  -29.1510  -24.1805   22.2086 H   0  0  0  0  0  0
  -28.5826  -25.8027   22.5400 H   0  0  0  0  0  0
  -30.1295  -25.5831   21.7420 H   0  0  0  0  0  0
  -32.1248  -22.8614   19.9762 H   0  0  0  0  0  0
  -31.1921  -23.5870   21.2556 H   0  0  0  0  0  0
  -31.6215  -24.5304   19.8305 H   0  0  0  0  0  0
  -31.1535  -21.9484   17.9785 H   0  0  0  0  0  0
  -30.7673  -23.5661   17.4657 H   0  0  0  0  0  0
  -29.5147  -22.3327   17.4716 H   0  0  0  0  0  0
  -30.2829  -20.1150   19.0551 H   0  0  0  0  0  0
  -31.3558  -20.7430   20.2678 H   0  0  0  0  0  0
  -29.2584  -22.0683   21.2184 H   0  0  0  0  0  0
  -28.4335  -21.5778   19.7813 H   0  0  0  0  0  0
  -29.5411  -25.0588   18.6656 H   0  0  0  0  0  0
  -28.1722  -24.0308   18.6828 H   0  0  0  0  0  0
  -27.3870  -24.8927   20.6350 H   0  0  0  0  0  0
  -29.0112  -14.9950   21.5931 H   0  0  0  0  0  0
  1 25  1  0  0  0
  1 30  2  0  0  0
  1 86  1  0  0  0
  2  3  1  0  0  0
  2 25  1  0  0  0
  2 87  1  0  0  0
  2 88  1  0  0  0
  3  4  1  0  0  0
  3 89  1  0  0  0
  3 90  1  0  0  0
  4  5  1  0  0  0
  4 91  1  0  0  0
  4 92  1  0  0  0
  5  6  1  0  0  0
  5 26  1  0  0  0
  5 93  1  0  0  0
  6 25  1  0  0  0
  6 94  1  0  0  0
  6 95  1  0  0  0
  7  8  2  0  0  0
  7 26  1  0  0  0
  7 29  1  0  0  0
  8  9  1  0  0  0
  8 22  1  0  0  0
  9 10  1  0  0  0
  9 27  2  0  0  0
 10 11  2  0  0  0
 10 15  1  0  0  0
 11 12  1  0  0  0
 11 96  1  0  0  0
 12 13  2  0  0  0
 12 97  1  0  0  0
 13 14  1  0  0  0
 13 31  1  0  0  0
 14 15  2  0  0  0
 14 98  1  0  0  0
 15 99  1  0  0  0
 16 17  2  0  0  0
 16 21  1  0  0  0
 16 31  1  0  0  0
 17 18  1  0  0  0
 17100  1  0  0  0
 18 19  2  0  0  0
 18101  1  0  0  0
 19 20  1  0  0  0
 19 24  1  0  0  0
 20 21  2  0  0  0
 20102  1  0  0  0
 21 23  1  0  0  0
 22 28  1  0  0  0
 22 32  2  0  0  0
 26 27  1  0  0  0
 28103  1  0  0  0
 28104  1  0  0  0
 29105  1  0  0  0
 29106  1  0  0  0
 33 34  1  0  0  0
 33 66  1  0  0  0
 33 70  2  0  0  0
 34 36  1  0  0  0
 34 59  1  0  0  0
 34107  1  0  0  0
 35 44  2  0  0  0
 35 45  1  0  0  0
 35 68  1  0  0  0
 36 56  1  0  0  0
 36108  1  0  0  0
 37 39  1  0  0  0
 37 47  1  0  0  0
 37 66  1  0  0  0
 37109  1  0  0  0
 38 43  2  0  0  0
 38 46  1  0  0  0
 38 47  1  0  0  0
 39 64  1  0  0  0
 39 67  2  0  0  0
 40 52  1  0  0  0
 40 53  2  0  0  0
 40 58  1  0  0  0
 41110  1  0  0  0
 41111  1  0  0  0
 41112  1  0  0  0
 41 48  1  0  0  0
 42 43  1  0  0  0
 42 66  1  0  0  0
 42113  1  0  0  0
 42114  1  0  0  0
 43 44  1  0  0  0
 44115  1  0  0  0
 45 46  2  0  0  0
 45116  1  0  0  0
 46117  1  0  0  0
 47118  1  0  0  0
 47119  1  0  0  0
 48 56  1  0  0  0
 48 65  1  0  0  0
 48120  1  0  0  0
 49 50  1  0  0  0
 49 53  1  0  0  0
 49 64  1  0  0  0
 49121  1  0  0  0
 50 51  1  0  0  0
 50122  1  0  0  0
 50123  1  0  0  0
 51 52  1  0  0  0
 51124  1  0  0  0
 51125  1  0  0  0
 52126  1  0  0  0
 52127  1  0  0  0
 53 54  1  0  0  0
 54 55  2  0  0  0
 54128  1  0  0  0
 55 57  1  0  0  0
 55129  1  0  0  0
 56 69  2  0  0  0
 57 58  2  0  0  0
 57130  1  0  0  0
 58131  1  0  0  0
 59 60  1  0  0  0
 59 61  1  0  0  0
 59 62  1  0  0  0
 60132  1  0  0  0
 60133  1  0  0  0
 60134  1  0  0  0
 61135  1  0  0  0
 61136  1  0  0  0
 61137  1  0  0  0
 62138  1  0  0  0
 62139  1  0  0  0
 62140  1  0  0  0
 63 65  1  0  0  0
 63141  1  0  0  0
 63142  1  0  0  0
 63143  1  0  0  0
 64144  1  0  0  0
 65145  1  0  0  0
 68 84  1  0  0  0
 71 74  2  0  0  0
 71 75  1  0  0  0
 71146  1  0  0  0
 72 74  1  0  0  0
 72 76  2  0  0  0
 72147  1  0  0  0
 73 75  2  0  0  0
 73 76  1  0  0  0
 73148  1  0  0  0
 74 77  1  0  0  0
 75 81  1  0  0  0
 76 86  1  0  0  0
 77149  1  0  0  0
 77150  1  0  0  0
 77151  1  0  0  0
 78152  1  0  0  0
 78153  1  0  0  0
 78154  1  0  0  0
 78 84  1  0  0  0
 79155  1  0  0  0
 79156  1  0  0  0
 79157  1  0  0  0
 79 85  1  0  0  0
 80 85  1  0  0  0
 80158  1  0  0  0
 80159  1  0  0  0
 80160  1  0  0  0
 81 82  1  0  0  0
 81161  1  0  0  0
 81162  1  0  0  0
 82 85  1  0  0  0
 82163  1  0  0  0
 82164  1  0  0  0
 83 84  1  0  0  0
 83 85  1  0  0  0
 83165  1  0  0  0
 83166  1  0  0  0
 84167  1  0  0  0
 86168  1  0  0  0
M  ISO  4   1 100  68 101  84 101  86 100
M  END
> <chiral flag>
0

> <version>
0

> <s_m_source_file>
/data/baiqing/PycharmProjects/Reinvent-master-3.2/result/LINK_invent/BTK/process_docking_weight1_custom_product_contain_oxygen_bond_distance_aromatic_linkinvent_7_9_3/rearranged_h_0135.sdf

> <i_m_source_file_index>
60

> <r_mmod_Potential_Energy-OPLS-2005>
98.2532577514648

> <r_mmod_Stretch_Energy-OPLS-2005>
62.2779922485352

> <r_mmod_Bend_Energy-OPLS-2005>
161.865249633789

> <r_mmod_Torsional_Energy-OPLS-2005>
259.235198974609

> <r_mmod_Improper_Torsional_Energy-OPLS-2005>
3.89230990409851

> <r_mmod_Van_der_Waal_Energy-OPLS-2005>
148.918807983398

> <r_mmod_Electrostatic_Energy-OPLS-2005>
-369.062713623047

> <r_mmod_Solvation_Energy-OPLS-2005>
-191.596176147461

> <b_mmod_Minimization_Converged-OPLS-2005>
0

> <r_mmod_RMS_Derivative-OPLS-2005>
1.60760378837585

$$$$
60
                    3D
 Structure written by MMmdl.
156164  0  0  1  0            999 V2000
  -30.6330  -14.5170   20.5280 C   0  0  0  0  0  0
  -30.4285  -12.3031   19.4345 C   0  0  0  0  0  0
  -29.4977  -12.4821   18.2118 C   0  0  0  0  0  0
  -28.0197  -12.3194   18.6239 C   0  0  0  0  0  0
  -27.6521  -13.1892   19.8552 C   0  0  2  0  0  0
  -28.6916  -12.9942   20.9833 C   0  0  0  0  0  0
  -25.2546  -13.8072   20.5650 C   0  0  0  0  0  0
  -24.1803  -13.0357   20.9166 C   0  0  0  0  0  0
  -24.6333  -11.6820   20.8685 C   0  0  0  0  0  0
  -23.8993  -10.4223   21.0368 C   0  0  0  0  0  0
  -24.3594   -9.4152   21.9136 C   0  0  0  0  0  0
  -23.6291   -8.2193   22.0710 C   0  0  0  0  0  0
  -22.4258   -8.0230   21.3522 C   0  0  0  0  0  0
  -21.9882   -9.0172   20.4609 C   0  0  0  0  0  0
  -22.7173  -10.2061   20.3005 C   0  0  0  0  0  0
  -21.6847   -6.0693   22.5256 C   0  0  0  0  0  0
  -21.4000   -6.5620   23.8183 C   0  0  0  0  0  0
  -21.3668   -5.6800   24.9169 C   0  0  0  0  0  0
  -21.6078   -4.3065   24.7252 C   0  0  0  0  0  0
  -21.8806   -3.8122   23.4383 C   0  0  0  0  0  0
  -21.9183   -4.6917   22.3415 C   0  0  0  0  0  0
  -22.7826  -13.5109   21.1955 C   0  0  0  0  0  0
  -22.1655   -4.2079   21.1012 F   0  0  0  0  0  0
  -21.5672   -3.4564   25.7786 F   0  0  0  0  0  0
  -30.0216  -13.3022   20.4316 N   0  0  0  0  0  0
  -26.2952  -12.9217   20.3231 N   0  0  0  0  0  0
  -25.9243  -11.6389   20.5630 N   0  0  0  0  0  0
  -22.0615  -12.7971   22.0515 N   0  0  0  0  0  0
  -25.4287  -15.1807   20.4169 N   0  0  0  0  0  0
  -31.7853  -14.7293   20.1439 O   0  0  0  0  0  0
  -21.6642   -6.8810   21.4205 O   0  0  0  0  0  0
  -22.3451  -14.5428   20.6865 O   0  0  0  0  0  0
  -24.6115  -31.8647   23.2088 C   0  0  0  0  0  0
  -25.8995  -32.4806   23.8419 C   0  0  1  0  0  0
  -27.2532  -27.4480   20.0926 C   0  0  0  0  0  0
  -25.5843  -33.8631   24.2305 N   0  0  0  0  0  0
  -23.4012  -30.4873   21.5460 C   0  0  2  0  0  0
  -24.8499  -28.9495   20.1157 C   0  0  0  0  0  0
  -22.7390  -29.4683   22.5022 C   0  0  0  0  0  0
  -18.0332  -28.1287   22.8451 C   0  0  0  0  0  0
  -24.1478  -36.7349   23.2640 C   0  0  0  0  0  0
  -25.9219  -30.8412   21.3537 C   0  0  0  0  0  0
  -26.0028  -29.4703   20.7096 C   0  0  0  0  0  0
  -27.2010  -28.7246   20.6980 C   0  0  0  0  0  0
  -26.0736  -26.9292   19.5060 C   0  0  0  0  0  0
  -24.8772  -27.6753   19.5171 C   0  0  0  0  0  0
  -23.6069  -29.8117   20.1626 C   0  0  0  0  0  0
  -25.4102  -36.3116   24.0323 C   0  0  1  0  0  0
  -20.5894  -28.3653   23.1356 C   0  0  2  0  0  0
  -20.6848  -26.9412   22.5388 C   0  0  0  0  0  0
  -19.5858  -26.6338   21.5186 C   0  0  0  0  0  0
  -18.2011  -26.7870   22.1505 C   0  0  0  0  0  0
  -19.1549  -28.8788   23.2876 C   0  0  0  0  0  0
  -18.9421  -30.1404   23.8853 C   0  0  0  0  0  0
  -17.6388  -30.6495   24.0486 C   0  0  0  0  0  0
  -25.9030  -34.9479   23.5129 C   0  0  0  0  0  0
  -16.5340  -29.8969   23.6215 C   0  0  0  0  0  0
  -16.7313  -28.6384   23.0261 C   0  0  0  0  0  0
  -26.4456  -31.6609   25.0765 C   0  0  0  0  0  0
  -25.3753  -31.3689   26.1542 C   0  0  0  0  0  0
  -27.0242  -30.3047   24.6073 C   0  0  0  0  0  0
  -27.6033  -32.4327   25.7510 C   0  0  0  0  0  0
  -27.5564  -37.1826   24.8458 C   0  0  0  0  0  0
  -21.4117  -29.3061   22.3762 N   0  0  0  0  0  0
  -26.4291  -37.3779   23.9387 N   0  0  0  0  0  0
  -24.6642  -31.0780   22.0956 N   0  0  0  0  0  0
  -23.4173  -28.8188   23.3030 O   0  0  0  0  0  0
  -28.4693  -26.7908   20.1108 O   0  0  0  0  0  0
  -26.5601  -34.8925   22.4694 O   0  0  0  0  0  0
  -23.5318  -32.1392   23.7474 O   0  0  0  0  0  0
  -29.7850  -17.9459   20.3636 C   0  0  0  0  0  0
  -30.1245  -19.5146   22.1938 C   0  0  0  0  0  0
  -30.3172  -17.1189   22.5992 C   0  0  0  0  0  0
  -29.8408  -19.2983   20.8223 C   0  0  0  0  0  0
  -30.0273  -16.8558   21.2460 C   0  0  0  0  0  0
  -30.3598  -18.4436   23.0680 C   0  0  0  0  0  0
  -29.5992  -20.4628   19.9061 C   0  0  0  0  0  0
  -29.2176  -21.8144   20.5416 C   0  0  0  0  0  0
  -29.1310  -23.0385   19.5959 C   0  0  0  0  0  0
  -28.6468  -24.3323   20.3018 C   0  0  0  0  0  0
  -28.6952  -25.5766   19.3887 C   0  0  0  0  0  0
  -29.6763  -20.3702   18.6470 N   0  0  0  0  0  0
  -29.7765  -15.5079   20.8659 N   0  0  0  0  0  0
  -30.6056  -18.6977   24.3725 F   0  0  0  0  0  0
  -31.4753  -12.4054   19.1414 H   0  0  0  0  0  0
  -30.3244  -11.2980   19.8558 H   0  0  0  0  0  0
  -29.7531  -11.7686   17.4278 H   0  0  0  0  0  0
  -29.6491  -13.4745   17.7857 H   0  0  0  0  0  0
  -27.8590  -11.2667   18.8534 H   0  0  0  0  0  0
  -27.3631  -12.5461   17.7852 H   0  0  0  0  0  0
  -27.6806  -14.2257   19.5241 H   0  0  0  0  0  0
  -28.6676  -11.9672   21.3550 H   0  0  0  0  0  0
  -28.4461  -13.6186   21.8445 H   0  0  0  0  0  0
  -25.2766   -9.5632   22.4666 H   0  0  0  0  0  0
  -24.0029   -7.4556   22.7407 H   0  0  0  0  0  0
  -21.0818   -8.8640   19.8909 H   0  0  0  0  0  0
  -22.3615  -10.9583   19.6104 H   0  0  0  0  0  0
  -21.1951   -7.6115   23.9631 H   0  0  0  0  0  0
  -21.1553   -6.0578   25.9065 H   0  0  0  0  0  0
  -22.0587   -2.7569   23.2920 H   0  0  0  0  0  0
  -22.4456  -11.9622   22.4677 H   0  0  0  0  0  0
  -21.1216  -13.0792   22.2973 H   0  0  0  0  0  0
  -24.6623  -15.8328   20.5461 H   0  0  0  0  0  0
  -26.2665  -15.6217   20.0630 H   0  0  0  0  0  0
  -26.7080  -32.5519   23.1208 H   0  0  0  0  0  0
  -24.9917  -33.9792   25.0399 H   0  0  0  0  0  0
  -22.6922  -31.3048   21.4041 H   0  0  0  0  0  0
  -23.3690  -35.9735   23.3338 H   0  0  0  0  0  0
  -24.3563  -36.8930   22.2049 H   0  0  0  0  0  0
  -23.7297  -37.6594   23.6639 H   0  0  0  0  0  0
  -26.0122  -31.6000   20.5741 H   0  0  0  0  0  0
  -26.8188  -30.9109   21.9554 H   0  0  0  0  0  0
  -28.0914  -29.1304   21.1542 H   0  0  0  0  0  0
  -26.0510  -25.9526   19.0478 H   0  0  0  0  0  0
  -23.9863  -27.2636   19.0648 H   0  0  0  0  0  0
  -23.7019  -30.5818   19.3969 H   0  0  0  0  0  0
  -22.7314  -29.2238   19.8781 H   0  0  0  0  0  0
  -25.1277  -36.2001   25.0812 H   0  0  0  0  0  0
  -21.0007  -28.3223   24.1483 H   0  0  0  0  0  0
  -20.5837  -26.2193   23.3506 H   0  0  0  0  0  0
  -21.6714  -26.7544   22.1139 H   0  0  0  0  0  0
  -19.7143  -25.6269   21.1200 H   0  0  0  0  0  0
  -19.6877  -27.3139   20.6734 H   0  0  0  0  0  0
  -17.4357  -26.6711   21.3830 H   0  0  0  0  0  0
  -18.0307  -25.9956   22.8796 H   0  0  0  0  0  0
  -19.7835  -30.7286   24.2237 H   0  0  0  0  0  0
  -17.4890  -31.6171   24.5039 H   0  0  0  0  0  0
  -15.5315  -30.2798   23.7511 H   0  0  0  0  0  0
  -15.8742  -28.0638   22.6892 H   0  0  0  0  0  0
  -24.5926  -30.7012   25.7919 H   0  0  0  0  0  0
  -24.8967  -32.2830   26.5051 H   0  0  0  0  0  0
  -25.8201  -30.8860   27.0246 H   0  0  0  0  0  0
  -26.2745  -29.6857   24.1113 H   0  0  0  0  0  0
  -27.3987  -29.7240   25.4508 H   0  0  0  0  0  0
  -27.8604  -30.4358   23.9197 H   0  0  0  0  0  0
  -27.2626  -33.3578   26.2151 H   0  0  0  0  0  0
  -28.3813  -32.6947   25.0336 H   0  0  0  0  0  0
  -28.0713  -31.8418   26.5370 H   0  0  0  0  0  0
  -28.2613  -38.0079   24.7411 H   0  0  0  0  0  0
  -28.1014  -36.2609   24.6388 H   0  0  0  0  0  0
  -27.2268  -37.1598   25.8853 H   0  0  0  0  0  0
  -20.9252  -29.8697   21.6932 H   0  0  0  0  0  0
  -26.0186  -38.2864   24.1343 H   0  0  0  0  0  0
  -29.5302  -17.7593   19.3303 H   0  0  0  0  0  0
  -30.1618  -20.5039   22.6184 H   0  0  0  0  0  0
  -30.4667  -16.3099   23.2973 H   0  0  0  0  0  0
  -29.9595  -22.0743   21.2937 H   0  0  0  0  0  0
  -28.2700  -21.6777   21.0640 H   0  0  0  0  0  0
  -28.4652  -22.8283   18.7598 H   0  0  0  0  0  0
  -30.1225  -23.2220   19.1749 H   0  0  0  0  0  0
  -29.2727  -24.5154   21.1777 H   0  0  0  0  0  0
  -27.6315  -24.1961   20.6783 H   0  0  0  0  0  0
  -28.0537  -25.4610   18.5149 H   0  0  0  0  0  0
  -29.7075  -25.6547   18.9918 H   0  0  0  0  0  0
  -29.4764  -21.2646   18.2168 H   0  0  0  0  0  0
  -28.8459  -15.1775   21.0643 H   0  0  0  0  0  0
  1 25  1  0  0  0
  1 30  2  0  0  0
  1 83  1  0  0  0
  2  3  1  0  0  0
  2 25  1  0  0  0
  2 85  1  0  0  0
  2 86  1  0  0  0
  3  4  1  0  0  0
  3 87  1  0  0  0
  3 88  1  0  0  0
  4  5  1  0  0  0
  4 89  1  0  0  0
  4 90  1  0  0  0
  5  6  1  0  0  0
  5 26  1  0  0  0
  5 91  1  0  0  0
  6 25  1  0  0  0
  6 92  1  0  0  0
  6 93  1  0  0  0
  7  8  2  0  0  0
  7 26  1  0  0  0
  7 29  1  0  0  0
  8  9  1  0  0  0
  8 22  1  0  0  0
  9 10  1  0  0  0
  9 27  2  0  0  0
 10 11  2  0  0  0
 10 15  1  0  0  0
 11 12  1  0  0  0
 11 94  1  0  0  0
 12 13  2  0  0  0
 12 95  1  0  0  0
 13 14  1  0  0  0
 13 31  1  0  0  0
 14 15  2  0  0  0
 14 96  1  0  0  0
 15 97  1  0  0  0
 16 17  2  0  0  0
 16 21  1  0  0  0
 16 31  1  0  0  0
 17 18  1  0  0  0
 17 98  1  0  0  0
 18 19  2  0  0  0
 18 99  1  0  0  0
 19 20  1  0  0  0
 19 24  1  0  0  0
 20 21  2  0  0  0
 20100  1  0  0  0
 21 23  1  0  0  0
 22 28  1  0  0  0
 22 32  2  0  0  0
 26 27  1  0  0  0
 28101  1  0  0  0
 28102  1  0  0  0
 29103  1  0  0  0
 29104  1  0  0  0
 33 34  1  0  0  0
 33 66  1  0  0  0
 33 70  2  0  0  0
 34 36  1  0  0  0
 34 59  1  0  0  0
 34105  1  0  0  0
 35 44  2  0  0  0
 35 45  1  0  0  0
 35 68  1  0  0  0
 36 56  1  0  0  0
 36106  1  0  0  0
 37 39  1  0  0  0
 37 47  1  0  0  0
 37 66  1  0  0  0
 37107  1  0  0  0
 38 43  2  0  0  0
 38 46  1  0  0  0
 38 47  1  0  0  0
 39 64  1  0  0  0
 39 67  2  0  0  0
 40 52  1  0  0  0
 40 53  2  0  0  0
 40 58  1  0  0  0
 41108  1  0  0  0
 41109  1  0  0  0
 41110  1  0  0  0
 41 48  1  0  0  0
 42 43  1  0  0  0
 42 66  1  0  0  0
 42111  1  0  0  0
 42112  1  0  0  0
 43 44  1  0  0  0
 44113  1  0  0  0
 45 46  2  0  0  0
 45114  1  0  0  0
 46115  1  0  0  0
 47116  1  0  0  0
 47117  1  0  0  0
 48 56  1  0  0  0
 48 65  1  0  0  0
 48118  1  0  0  0
 49 50  1  0  0  0
 49 53  1  0  0  0
 49 64  1  0  0  0
 49119  1  0  0  0
 50 51  1  0  0  0
 50120  1  0  0  0
 50121  1  0  0  0
 51 52  1  0  0  0
 51122  1  0  0  0
 51123  1  0  0  0
 52124  1  0  0  0
 52125  1  0  0  0
 53 54  1  0  0  0
 54 55  2  0  0  0
 54126  1  0  0  0
 55 57  1  0  0  0
 55127  1  0  0  0
 56 69  2  0  0  0
 57 58  2  0  0  0
 57128  1  0  0  0
 58129  1  0  0  0
 59 60  1  0  0  0
 59 61  1  0  0  0
 59 62  1  0  0  0
 60130  1  0  0  0
 60131  1  0  0  0
 60132  1  0  0  0
 61133  1  0  0  0
 61134  1  0  0  0
 61135  1  0  0  0
 62136  1  0  0  0
 62137  1  0  0  0
 62138  1  0  0  0
 63 65  1  0  0  0
 63139  1  0  0  0
 63140  1  0  0  0
 63141  1  0  0  0
 64142  1  0  0  0
 65143  1  0  0  0
 68 81  1  0  0  0
 71 74  2  0  0  0
 71 75  1  0  0  0
 71144  1  0  0  0
 72 74  1  0  0  0
 72 76  2  0  0  0
 72145  1  0  0  0
 73 75  2  0  0  0
 73 76  1  0  0  0
 73146  1  0  0  0
 74 77  1  0  0  0
 75 83  1  0  0  0
 76 84  1  0  0  0
 77 78  1  0  0  0
 77 82  2  0  0  0
 78 79  1  0  0  0
 78147  1  0  0  0
 78148  1  0  0  0
 79 80  1  0  0  0
 79149  1  0  0  0
 79150  1  0  0  0
 80 81  1  0  0  0
 80151  1  0  0  0
 80152  1  0  0  0
 81153  1  0  0  0
 81154  1  0  0  0
 82155  1  0  0  0
 83156  1  0  0  0
M  ISO  4   1 100  68 101  81 101  83 100
M  END
> <chiral flag>
0

> <version>
0

> <s_m_source_file>
/data/baiqing/PycharmProjects/Reinvent-master-3.2/result/LINK_invent/BTK/process_docking_weight1_custom_product_contain_oxygen_bond_distance_aromatic_linkinvent_7_9_3/rearranged_h_0135.sdf

> <i_m_source_file_index>
61

> <r_mmod_Potential_Energy-OPLS-2005>
-34.1628532409668

> <r_mmod_Stretch_Energy-OPLS-2005>
39.7540397644043

> <r_mmod_Bend_Energy-OPLS-2005>
109.584999084473

> <r_mmod_Torsional_Energy-OPLS-2005>
234.11637878418

> <r_mmod_Improper_Torsional_Energy-OPLS-2005>
6.95350217819214

> <r_mmod_Van_der_Waal_Energy-OPLS-2005>
158.023986816406

> <r_mmod_Electrostatic_Energy-OPLS-2005>
-383.956390380859

> <r_mmod_Solvation_Energy-OPLS-2005>
-217.496841430664

> <b_mmod_Minimization_Converged-OPLS-2005>
0

> <r_mmod_RMS_Derivative-OPLS-2005>
6.53344821929932

$$$$
61
                    3D
 Structure written by MMmdl.
163171  0  0  1  0            999 V2000
  -30.6576  -14.5402   20.6198 C   0  0  0  0  0  0
  -30.4456  -12.3644   19.4296 C   0  0  0  0  0  0
  -29.5032  -12.5291   18.2173 C   0  0  0  0  0  0
  -28.0267  -12.3633   18.6274 C   0  0  0  0  0  0
  -27.6650  -13.2068   19.8774 C   0  0  2  0  0  0
  -28.7048  -12.9801   20.9978 C   0  0  0  0  0  0
  -25.2610  -13.8171   20.5693 C   0  0  0  0  0  0
  -24.1851  -13.0452   20.9169 C   0  0  0  0  0  0
  -24.6403  -11.6917   20.8729 C   0  0  0  0  0  0
  -23.9068  -10.4303   21.0397 C   0  0  0  0  0  0
  -24.3617   -9.4221   21.9183 C   0  0  0  0  0  0
  -23.6296   -8.2250   22.0753 C   0  0  0  0  0  0
  -22.4277   -8.0286   21.3547 C   0  0  0  0  0  0
  -21.9915   -9.0260   20.4646 C   0  0  0  0  0  0
  -22.7238  -10.2139   20.3050 C   0  0  0  0  0  0
  -21.6856   -6.0741   22.5286 C   0  0  0  0  0  0
  -21.4013   -6.5644   23.8219 C   0  0  0  0  0  0
  -21.3657   -5.6793   24.9182 C   0  0  0  0  0  0
  -21.6038   -4.3056   24.7227 C   0  0  0  0  0  0
  -21.8816   -3.8151   23.4346 C   0  0  0  0  0  0
  -21.9193   -4.6971   22.3406 C   0  0  0  0  0  0
  -22.7864  -13.5242   21.1830 C   0  0  0  0  0  0
  -22.1659   -4.2161   21.0981 F   0  0  0  0  0  0
  -21.5628   -3.4532   25.7733 F   0  0  0  0  0  0
  -30.0413  -13.3277   20.4692 N   0  0  0  0  0  0
  -26.3045  -12.9335   20.3364 N   0  0  0  0  0  0
  -25.9333  -11.6497   20.5757 N   0  0  0  0  0  0
  -22.0502  -12.8247   22.0392 N   0  0  0  0  0  0
  -25.4362  -15.1887   20.4137 N   0  0  0  0  0  0
  -31.7063  -14.8333   20.0352 O   0  0  0  0  0  0
  -21.6644   -6.8885   21.4244 O   0  0  0  0  0  0
  -22.3552  -14.5552   20.6678 O   0  0  0  0  0  0
  -24.6216  -31.8645   23.2059 C   0  0  0  0  0  0
  -25.9079  -32.4819   23.8379 C   0  0  1  0  0  0
  -27.2294  -27.3592   20.1146 C   0  0  0  0  0  0
  -25.5913  -33.8621   24.2321 N   0  0  0  0  0  0
  -23.4149  -30.4866   21.5483 C   0  0  2  0  0  0
  -24.8629  -28.9436   20.1182 C   0  0  0  0  0  0
  -22.7459  -29.4643   22.4968 C   0  0  0  0  0  0
  -18.0280  -28.1393   22.8499 C   0  0  0  0  0  0
  -24.1487  -36.7302   23.2639 C   0  0  0  0  0  0
  -25.9514  -30.8049   21.3722 C   0  0  0  0  0  0
  -26.0271  -29.4307   20.7265 C   0  0  0  0  0  0
  -27.2143  -28.6465   20.7226 C   0  0  0  0  0  0
  -26.0545  -26.9255   19.4716 C   0  0  0  0  0  0
  -24.8760  -27.6928   19.4817 C   0  0  0  0  0  0
  -23.6295  -29.8190   20.1642 C   0  0  0  0  0  0
  -25.4109  -36.3124   24.0346 C   0  0  1  0  0  0
  -20.5881  -28.3690   23.1315 C   0  0  2  0  0  0
  -20.6777  -26.9423   22.5424 C   0  0  0  0  0  0
  -19.5749  -26.6405   21.5228 C   0  0  0  0  0  0
  -18.1926  -26.7939   22.1637 C   0  0  0  0  0  0
  -19.1532  -28.8855   23.2903 C   0  0  0  0  0  0
  -18.9449  -30.1455   23.8923 C   0  0  0  0  0  0
  -17.6450  -30.6592   24.0579 C   0  0  0  0  0  0
  -25.9037  -34.9488   23.5133 C   0  0  0  0  0  0
  -16.5343  -29.9098   23.6329 C   0  0  0  0  0  0
  -16.7266  -28.6518   23.0342 C   0  0  0  0  0  0
  -26.4478  -31.6596   25.0713 C   0  0  0  0  0  0
  -25.3719  -31.3686   26.1433 C   0  0  0  0  0  0
  -27.0304  -30.3041   24.6099 C   0  0  0  0  0  0
  -27.6078  -32.4283   25.7462 C   0  0  0  0  0  0
  -27.5581  -37.1813   24.8473 C   0  0  0  0  0  0
  -21.4176  -29.3045   22.3714 N   0  0  0  0  0  0
  -26.4299  -37.3806   23.9413 N   0  0  0  0  0  0
  -24.6814  -31.0679   22.0999 N   0  0  0  0  0  0
  -23.4202  -28.8171   23.3020 O   0  0  0  0  0  0
  -28.3660  -26.5553   20.0811 O   0  0  0  0  0  0
  -26.5602  -34.8953   22.4696 O   0  0  0  0  0  0
  -23.5386  -32.1411   23.7410 O   0  0  0  0  0  0
  -28.4564  -16.9559   22.2524 C   0  0  0  0  0  0
  -28.4804  -19.3329   21.7218 C   0  0  0  0  0  0
  -30.2068  -17.8528   20.8126 C   0  0  0  0  0  0
  -27.8971  -18.2389   22.3841 C   0  0  0  0  0  0
  -29.6131  -16.7286   21.4763 C   0  0  0  0  0  0
  -29.6305  -19.1685   20.9189 C   0  0  0  0  0  0
  -26.6730  -18.4413   23.2542 C   0  0  0  0  0  0
  -29.0237  -24.2788   18.4382 C   0  0  0  0  0  0
  -26.9924  -23.3167   19.5787 C   0  0  0  0  0  0
  -29.2739  -22.7360   20.4743 C   0  0  0  0  0  0
  -29.3299  -21.3240   19.7562 C   0  0  0  0  0  0
  -28.3078  -25.2183   20.6919 C   0  0  0  0  0  0
  -28.4089  -23.8968   19.7987 C   0  0  0  0  0  0
  -30.0661  -15.3560   21.5209 N   0  0  0  0  0  0
  -30.1993  -20.2847   20.3011 O   0  0  0  0  0  0
  -31.4830  -12.5078   19.1222 H   0  0  0  0  0  0
  -30.3912  -11.3489   19.8243 H   0  0  0  0  0  0
  -29.7601  -11.8053   17.4430 H   0  0  0  0  0  0
  -29.6473  -13.5156   17.7746 H   0  0  0  0  0  0
  -27.8519  -11.3062   18.8311 H   0  0  0  0  0  0
  -27.3724  -12.6221   17.7939 H   0  0  0  0  0  0
  -27.7097  -14.2552   19.5802 H   0  0  0  0  0  0
  -28.6981  -11.9344   21.3080 H   0  0  0  0  0  0
  -28.4260  -13.5381   21.8921 H   0  0  0  0  0  0
  -25.2760   -9.5692   22.4768 H   0  0  0  0  0  0
  -24.0006   -7.4636   22.7466 H   0  0  0  0  0  0
  -21.0847   -8.8769   19.8951 H   0  0  0  0  0  0
  -22.3695  -10.9676   19.6156 H   0  0  0  0  0  0
  -21.2006   -7.6152   23.9725 H   0  0  0  0  0  0
  -21.1481   -6.0527   25.9087 H   0  0  0  0  0  0
  -22.0599   -2.7614   23.2844 H   0  0  0  0  0  0
  -22.4099  -11.9909   22.4794 H   0  0  0  0  0  0
  -21.1117  -13.1280   22.2574 H   0  0  0  0  0  0
  -24.6776  -15.8507   20.5306 H   0  0  0  0  0  0
  -26.3046  -15.6271   20.1334 H   0  0  0  0  0  0
  -26.7150  -32.5525   23.1140 H   0  0  0  0  0  0
  -25.0113  -33.9781   25.0502 H   0  0  0  0  0  0
  -22.7070  -31.3052   21.4049 H   0  0  0  0  0  0
  -23.3769  -35.9613   23.3316 H   0  0  0  0  0  0
  -24.3579  -36.8892   22.2050 H   0  0  0  0  0  0
  -23.7219  -37.6507   23.6626 H   0  0  0  0  0  0
  -26.0688  -31.5605   20.5942 H   0  0  0  0  0  0
  -26.8394  -30.8666   21.9891 H   0  0  0  0  0  0
  -28.1101  -29.0186   21.2000 H   0  0  0  0  0  0
  -26.0523  -26.0063   18.9183 H   0  0  0  0  0  0
  -23.9943  -27.3244   18.9765 H   0  0  0  0  0  0
  -23.7481  -30.5932   19.4053 H   0  0  0  0  0  0
  -22.7521  -29.2431   19.8636 H   0  0  0  0  0  0
  -25.1287  -36.1999   25.0840 H   0  0  0  0  0  0
  -20.9967  -28.3256   24.1438 H   0  0  0  0  0  0
  -20.5712  -26.2288   23.3612 H   0  0  0  0  0  0
  -21.6640  -26.7482   22.1193 H   0  0  0  0  0  0
  -19.6914  -25.6324   21.1236 H   0  0  0  0  0  0
  -19.6682  -27.3240   20.6779 H   0  0  0  0  0  0
  -17.4201  -26.6702   21.4033 H   0  0  0  0  0  0
  -18.0309  -26.0075   22.9025 H   0  0  0  0  0  0
  -19.7918  -30.7269   24.2308 H   0  0  0  0  0  0
  -17.4999  -31.6272   24.5177 H   0  0  0  0  0  0
  -15.5343  -30.3008   23.7628 H   0  0  0  0  0  0
  -15.8668  -28.0854   22.7026 H   0  0  0  0  0  0
  -24.5947  -30.6979   25.7743 H   0  0  0  0  0  0
  -24.8835  -32.2819   26.4843 H   0  0  0  0  0  0
  -25.8058  -30.8887   27.0215 H   0  0  0  0  0  0
  -26.2851  -29.6807   24.1145 H   0  0  0  0  0  0
  -27.4063  -29.7273   25.4559 H   0  0  0  0  0  0
  -27.8695  -30.4362   23.9265 H   0  0  0  0  0  0
  -27.2762  -33.3610   26.2036 H   0  0  0  0  0  0
  -28.3887  -32.6783   25.0264 H   0  0  0  0  0  0
  -28.0736  -31.8383   26.5366 H   0  0  0  0  0  0
  -28.2628  -38.0084   24.7518 H   0  0  0  0  0  0
  -28.1053  -36.2627   24.6308 H   0  0  0  0  0  0
  -27.2297  -37.1468   25.8876 H   0  0  0  0  0  0
  -20.9343  -29.8775   21.6943 H   0  0  0  0  0  0
  -26.0200  -38.2896   24.1389 H   0  0  0  0  0  0
  -27.9848  -16.1336   22.7748 H   0  0  0  0  0  0
  -28.0461  -20.3136   21.8556 H   0  0  0  0  0  0
  -31.1047  -17.7125   20.2274 H   0  0  0  0  0  0
  -26.5666  -19.4853   23.5519 H   0  0  0  0  0  0
  -26.7429  -17.8413   24.1621 H   0  0  0  0  0  0
  -25.7703  -18.1459   22.7197 H   0  0  0  0  0  0
  -29.0768  -23.4331   17.7528 H   0  0  0  0  0  0
  -30.0341  -24.6714   18.5578 H   0  0  0  0  0  0
  -28.4282  -25.0471   17.9427 H   0  0  0  0  0  0
  -26.9930  -22.4833   18.8775 H   0  0  0  0  0  0
  -26.2912  -24.0299   19.1670 H   0  0  0  0  0  0
  -26.5656  -22.9579   20.5163 H   0  0  0  0  0  0
  -30.2971  -23.0916   20.6006 H   0  0  0  0  0  0
  -28.8999  -22.5761   21.4848 H   0  0  0  0  0  0
  -29.6905  -21.4806   18.7406 H   0  0  0  0  0  0
  -28.3263  -20.9209   19.6270 H   0  0  0  0  0  0
  -29.1542  -25.2051   21.3787 H   0  0  0  0  0  0
  -27.4374  -25.1536   21.3468 H   0  0  0  0  0  0
  -29.4854  -14.7964   22.1260 H   0  0  0  0  0  0
  1 25  1  0  0  0
  1 30  2  0  0  0
  1 84  1  0  0  0
  2  3  1  0  0  0
  2 25  1  0  0  0
  2 86  1  0  0  0
  2 87  1  0  0  0
  3  4  1  0  0  0
  3 88  1  0  0  0
  3 89  1  0  0  0
  4  5  1  0  0  0
  4 90  1  0  0  0
  4 91  1  0  0  0
  5  6  1  0  0  0
  5 26  1  0  0  0
  5 92  1  0  0  0
  6 25  1  0  0  0
  6 93  1  0  0  0
  6 94  1  0  0  0
  7  8  2  0  0  0
  7 26  1  0  0  0
  7 29  1  0  0  0
  8  9  1  0  0  0
  8 22  1  0  0  0
  9 10  1  0  0  0
  9 27  2  0  0  0
 10 11  2  0  0  0
 10 15  1  0  0  0
 11 12  1  0  0  0
 11 95  1  0  0  0
 12 13  2  0  0  0
 12 96  1  0  0  0
 13 14  1  0  0  0
 13 31  1  0  0  0
 14 15  2  0  0  0
 14 97  1  0  0  0
 15 98  1  0  0  0
 16 17  2  0  0  0
 16 21  1  0  0  0
 16 31  1  0  0  0
 17 18  1  0  0  0
 17 99  1  0  0  0
 18 19  2  0  0  0
 18100  1  0  0  0
 19 20  1  0  0  0
 19 24  1  0  0  0
 20 21  2  0  0  0
 20101  1  0  0  0
 21 23  1  0  0  0
 22 28  1  0  0  0
 22 32  2  0  0  0
 26 27  1  0  0  0
 28102  1  0  0  0
 28103  1  0  0  0
 29104  1  0  0  0
 29105  1  0  0  0
 33 34  1  0  0  0
 33 66  1  0  0  0
 33 70  2  0  0  0
 34 36  1  0  0  0
 34 59  1  0  0  0
 34106  1  0  0  0
 35 44  2  0  0  0
 35 45  1  0  0  0
 35 68  1  0  0  0
 36 56  1  0  0  0
 36107  1  0  0  0
 37 39  1  0  0  0
 37 47  1  0  0  0
 37 66  1  0  0  0
 37108  1  0  0  0
 38 43  2  0  0  0
 38 46  1  0  0  0
 38 47  1  0  0  0
 39 64  1  0  0  0
 39 67  2  0  0  0
 40 52  1  0  0  0
 40 53  2  0  0  0
 40 58  1  0  0  0
 41109  1  0  0  0
 41110  1  0  0  0
 41111  1  0  0  0
 41 48  1  0  0  0
 42 43  1  0  0  0
 42 66  1  0  0  0
 42112  1  0  0  0
 42113  1  0  0  0
 43 44  1  0  0  0
 44114  1  0  0  0
 45 46  2  0  0  0
 45115  1  0  0  0
 46116  1  0  0  0
 47117  1  0  0  0
 47118  1  0  0  0
 48 56  1  0  0  0
 48 65  1  0  0  0
 48119  1  0  0  0
 49 50  1  0  0  0
 49 53  1  0  0  0
 49 64  1  0  0  0
 49120  1  0  0  0
 50 51  1  0  0  0
 50121  1  0  0  0
 50122  1  0  0  0
 51 52  1  0  0  0
 51123  1  0  0  0
 51124  1  0  0  0
 52125  1  0  0  0
 52126  1  0  0  0
 53 54  1  0  0  0
 54 55  2  0  0  0
 54127  1  0  0  0
 55 57  1  0  0  0
 55128  1  0  0  0
 56 69  2  0  0  0
 57 58  2  0  0  0
 57129  1  0  0  0
 58130  1  0  0  0
 59 60  1  0  0  0
 59 61  1  0  0  0
 59 62  1  0  0  0
 60131  1  0  0  0
 60132  1  0  0  0
 60133  1  0  0  0
 61134  1  0  0  0
 61135  1  0  0  0
 61136  1  0  0  0
 62137  1  0  0  0
 62138  1  0  0  0
 62139  1  0  0  0
 63 65  1  0  0  0
 63140  1  0  0  0
 63141  1  0  0  0
 63142  1  0  0  0
 64143  1  0  0  0
 65144  1  0  0  0
 68 82  1  0  0  0
 71 74  2  0  0  0
 71 75  1  0  0  0
 71145  1  0  0  0
 72 74  1  0  0  0
 72 76  2  0  0  0
 72146  1  0  0  0
 73 75  2  0  0  0
 73 76  1  0  0  0
 73147  1  0  0  0
 74 77  1  0  0  0
 75 84  1  0  0  0
 76 85  1  0  0  0
 77148  1  0  0  0
 77149  1  0  0  0
 77150  1  0  0  0
 78151  1  0  0  0
 78152  1  0  0  0
 78153  1  0  0  0
 78 83  1  0  0  0
 79 83  1  0  0  0
 79154  1  0  0  0
 79155  1  0  0  0
 79156  1  0  0  0
 80 81  1  0  0  0
 80 83  1  0  0  0
 80157  1  0  0  0
 80158  1  0  0  0
 81 85  1  0  0  0
 81159  1  0  0  0
 81160  1  0  0  0
 82 83  1  0  0  0
 82161  1  0  0  0
 82162  1  0  0  0
 84163  1  0  0  0
M  ISO  4   1 100  68 101  82 101  84 100
M  END
> <chiral flag>
0

> <version>
0

> <s_m_source_file>
/data/baiqing/PycharmProjects/Reinvent-master-3.2/result/LINK_invent/BTK/process_docking_weight1_custom_product_contain_oxygen_bond_distance_aromatic_linkinvent_7_9_3/rearranged_h_0135.sdf

> <i_m_source_file_index>
62

> <r_mmod_Potential_Energy-OPLS-2005>
109.737419128418

> <r_mmod_Stretch_Energy-OPLS-2005>
68.8975601196289

> <r_mmod_Bend_Energy-OPLS-2005>
153.388198852539

> <r_mmod_Torsional_Energy-OPLS-2005>
269.872253417969

> <r_mmod_Improper_Torsional_Energy-OPLS-2005>
4.97408676147461

> <r_mmod_Van_der_Waal_Energy-OPLS-2005>
143.538055419922

> <r_mmod_Electrostatic_Energy-OPLS-2005>
-353.863189697266

> <r_mmod_Solvation_Energy-OPLS-2005>
-203.639144897461

> <b_mmod_Minimization_Converged-OPLS-2005>
0

> <r_mmod_RMS_Derivative-OPLS-2005>
1.48061513900757

$$$$
62
                    3D
 Structure written by MMmdl.
151159  0  0  1  0            999 V2000
  -30.6240  -14.7128   20.4559 C   0  0  0  0  0  0
  -30.4260  -12.4287   19.4809 C   0  0  0  0  0  0
  -29.5114  -12.5211   18.2394 C   0  0  0  0  0  0
  -28.0342  -12.3558   18.6424 C   0  0  0  0  0  0
  -27.6473  -13.2367   19.8603 C   0  0  2  0  0  0
  -28.6895  -13.1460   20.9987 C   0  0  0  0  0  0
  -25.2522  -13.8215   20.5686 C   0  0  0  0  0  0
  -24.1813  -13.0453   20.9196 C   0  0  0  0  0  0
  -24.6407  -11.6933   20.8734 C   0  0  0  0  0  0
  -23.9079  -10.4307   21.0389 C   0  0  0  0  0  0
  -24.3630   -9.4223   21.9169 C   0  0  0  0  0  0
  -23.6304   -8.2260   22.0746 C   0  0  0  0  0  0
  -22.4283   -8.0295   21.3542 C   0  0  0  0  0  0
  -21.9919   -9.0266   20.4639 C   0  0  0  0  0  0
  -22.7248  -10.2144   20.3044 C   0  0  0  0  0  0
  -21.6862   -6.0743   22.5271 C   0  0  0  0  0  0
  -21.4023   -6.5641   23.8207 C   0  0  0  0  0  0
  -21.3662   -5.6790   24.9168 C   0  0  0  0  0  0
  -21.6044   -4.3052   24.7212 C   0  0  0  0  0  0
  -21.8822   -3.8147   23.4331 C   0  0  0  0  0  0
  -21.9198   -4.6970   22.3394 C   0  0  0  0  0  0
  -22.7830  -13.5230   21.1851 C   0  0  0  0  0  0
  -22.1659   -4.2157   21.0969 F   0  0  0  0  0  0
  -21.5631   -3.4532   25.7720 F   0  0  0  0  0  0
  -30.0014  -13.4846   20.4312 N   0  0  0  0  0  0
  -26.2963  -12.9431   20.3308 N   0  0  0  0  0  0
  -25.9343  -11.6566   20.5756 N   0  0  0  0  0  0
  -22.0480  -12.8229   22.0416 N   0  0  0  0  0  0
  -25.4209  -15.1945   20.4101 N   0  0  0  0  0  0
  -31.7921  -14.8162   20.0689 O   0  0  0  0  0  0
  -21.6649   -6.8888   21.4236 O   0  0  0  0  0  0
  -22.3506  -14.5529   20.6690 O   0  0  0  0  0  0
  -24.6307  -31.8560   23.2001 C   0  0  0  0  0  0
  -25.9132  -32.4765   23.8337 C   0  0  1  0  0  0
  -27.2211  -27.2639   20.1238 C   0  0  0  0  0  0
  -25.5936  -33.8566   24.2266 N   0  0  0  0  0  0
  -23.4275  -30.4802   21.5432 C   0  0  2  0  0  0
  -24.8757  -28.9316   20.1076 C   0  0  0  0  0  0
  -22.7498  -29.4610   22.4907 C   0  0  0  0  0  0
  -18.0299  -28.1380   22.8484 C   0  0  0  0  0  0
  -24.1497  -36.7288   23.2634 C   0  0  0  0  0  0
  -25.9738  -30.7680   21.3829 C   0  0  0  0  0  0
  -26.0457  -29.3913   20.7242 C   0  0  0  0  0  0
  -27.2173  -28.5674   20.7279 C   0  0  0  0  0  0
  -26.0333  -26.8880   19.4534 C   0  0  0  0  0  0
  -24.8752  -27.6874   19.4616 C   0  0  0  0  0  0
  -23.6461  -29.8179   20.1579 C   0  0  0  0  0  0
  -25.4120  -36.3083   24.0330 C   0  0  1  0  0  0
  -20.5902  -28.3701   23.1266 C   0  0  2  0  0  0
  -20.6789  -26.9414   22.5410 C   0  0  0  0  0  0
  -19.5767  -26.6374   21.5215 C   0  0  0  0  0  0
  -18.1945  -26.7924   22.1620 C   0  0  0  0  0  0
  -19.1547  -28.8855   23.2876 C   0  0  0  0  0  0
  -18.9465  -30.1456   23.8894 C   0  0  0  0  0  0
  -17.6462  -30.6581   24.0562 C   0  0  0  0  0  0
  -25.9057  -34.9450   23.5103 C   0  0  0  0  0  0
  -16.5357  -29.9076   23.6325 C   0  0  0  0  0  0
  -16.7284  -28.6493   23.0350 C   0  0  0  0  0  0
  -26.4496  -31.6580   25.0718 C   0  0  0  0  0  0
  -25.3714  -31.3721   26.1433 C   0  0  0  0  0  0
  -27.0337  -30.2998   24.6193 C   0  0  0  0  0  0
  -27.6054  -32.4312   25.7488 C   0  0  0  0  0  0
  -27.5600  -37.1790   24.8451 C   0  0  0  0  0  0
  -21.4206  -29.3050   22.3650 N   0  0  0  0  0  0
  -26.4296  -37.3784   23.9420 N   0  0  0  0  0  0
  -24.6963  -31.0530   22.0981 N   0  0  0  0  0  0
  -23.4196  -28.8150   23.3008 O   0  0  0  0  0  0
  -28.3135  -26.3643   20.2130 O   0  0  0  0  0  0
  -26.5617  -34.8923   22.4665 O   0  0  0  0  0  0
  -23.5459  -32.1386   23.7296 O   0  0  0  0  0  0
  -29.9215  -18.4009   17.9838 C   0  0  0  0  0  0
  -30.0436  -17.2015   18.7101 C   0  0  0  0  0  0
  -29.6505  -19.6289   18.6192 C   0  0  0  0  0  0
  -29.6150  -18.4578   20.7475 C   0  0  0  0  0  0
  -29.8832  -17.1718   20.1126 C   0  0  0  0  0  0
  -29.5061  -19.7228   20.0242 C   0  0  0  0  0  0
  -28.9583  -23.7015   20.5590 C   0  0  0  0  0  0
  -28.1390  -24.9094   19.8603 C   0  0  0  0  0  0
  -28.9051  -22.2244   19.8922 C   0  0  0  0  0  0
  -29.8887  -15.8432   20.7781 N   0  0  0  0  0  0
  -29.2917  -20.9914   20.6527 O   0  0  0  0  0  0
  -31.4711  -12.5289   19.1850 H   0  0  0  0  0  0
  -30.3434  -11.4441   19.9445 H   0  0  0  0  0  0
  -29.7878  -11.7633   17.5056 H   0  0  0  0  0  0
  -29.6521  -13.4855   17.7487 H   0  0  0  0  0  0
  -27.8736  -11.3035   18.8783 H   0  0  0  0  0  0
  -27.3839  -12.5778   17.7944 H   0  0  0  0  0  0
  -27.6497  -14.2659   19.5014 H   0  0  0  0  0  0
  -28.7085  -12.1426   21.4259 H   0  0  0  0  0  0
  -28.4261  -13.8197   21.8158 H   0  0  0  0  0  0
  -25.2776   -9.5703   22.4741 H   0  0  0  0  0  0
  -24.0011   -7.4656   22.7465 H   0  0  0  0  0  0
  -21.0850   -8.8788   19.8956 H   0  0  0  0  0  0
  -22.3695  -10.9685   19.6157 H   0  0  0  0  0  0
  -21.2016   -7.6148   23.9717 H   0  0  0  0  0  0
  -21.1482   -6.0514   25.9073 H   0  0  0  0  0  0
  -22.0598   -2.7610   23.2826 H   0  0  0  0  0  0
  -22.4088  -11.9897   22.4822 H   0  0  0  0  0  0
  -21.1095  -13.1252   22.2608 H   0  0  0  0  0  0
  -24.6539  -15.8493   20.5182 H   0  0  0  0  0  0
  -26.2720  -15.6335   20.0812 H   0  0  0  0  0  0
  -26.7194  -32.5423   23.1073 H   0  0  0  0  0  0
  -25.0108  -33.9697   25.0431 H   0  0  0  0  0  0
  -22.7246  -31.3034   21.3992 H   0  0  0  0  0  0
  -23.3787  -35.9590   23.3251 H   0  0  0  0  0  0
  -24.3611  -36.8955   22.2062 H   0  0  0  0  0  0
  -23.7209  -37.6460   23.6678 H   0  0  0  0  0  0
  -26.1139  -31.5300   20.6151 H   0  0  0  0  0  0
  -26.8505  -30.8151   22.0170 H   0  0  0  0  0  0
  -28.1074  -28.9110   21.2363 H   0  0  0  0  0  0
  -25.9612  -25.9548   18.9169 H   0  0  0  0  0  0
  -23.9851  -27.3344   18.9594 H   0  0  0  0  0  0
  -23.7705  -30.5966   19.4044 H   0  0  0  0  0  0
  -22.7642  -29.2517   19.8525 H   0  0  0  0  0  0
  -25.1302  -36.1934   25.0823 H   0  0  0  0  0  0
  -21.0005  -28.3286   24.1384 H   0  0  0  0  0  0
  -20.5701  -26.2309   23.3617 H   0  0  0  0  0  0
  -21.6657  -26.7444   22.1198 H   0  0  0  0  0  0
  -19.6930  -25.6282   21.1255 H   0  0  0  0  0  0
  -19.6711  -27.3176   20.6741 H   0  0  0  0  0  0
  -17.4222  -26.6685   21.4013 H   0  0  0  0  0  0
  -18.0335  -26.0059   22.9007 H   0  0  0  0  0  0
  -19.7940  -30.7272   24.2264 H   0  0  0  0  0  0
  -17.5014  -31.6263   24.5158 H   0  0  0  0  0  0
  -15.5354  -30.2972   23.7645 H   0  0  0  0  0  0
  -15.8690  -28.0806   22.7061 H   0  0  0  0  0  0
  -24.5890  -30.7073   25.7749 H   0  0  0  0  0  0
  -24.8896  -32.2885   26.4853 H   0  0  0  0  0  0
  -25.8022  -30.8890   27.0213 H   0  0  0  0  0  0
  -26.2909  -29.6744   24.1224 H   0  0  0  0  0  0
  -27.4035  -29.7261   25.4703 H   0  0  0  0  0  0
  -27.8786  -30.4282   23.9422 H   0  0  0  0  0  0
  -27.2666  -33.3615   26.2063 H   0  0  0  0  0  0
  -28.3860  -32.6868   25.0307 H   0  0  0  0  0  0
  -28.0720  -31.8431   26.5404 H   0  0  0  0  0  0
  -28.2567  -38.0141   24.7588 H   0  0  0  0  0  0
  -28.1152  -36.2679   24.6168 H   0  0  0  0  0  0
  -27.2330  -37.1304   25.8852 H   0  0  0  0  0  0
  -20.9380  -29.8783   21.6870 H   0  0  0  0  0  0
  -26.0183  -38.2854   24.1457 H   0  0  0  0  0  0
  -30.0301  -18.3759   16.9078 H   0  0  0  0  0  0
  -30.2300  -16.2897   18.1602 H   0  0  0  0  0  0
  -29.5703  -20.4951   17.9815 H   0  0  0  0  0  0
  -29.4868  -18.4791   21.8197 H   0  0  0  0  0  0
  -28.6090  -23.6198   21.5884 H   0  0  0  0  0  0
  -30.0060  -23.9934   20.6347 H   0  0  0  0  0  0
  -27.1028  -24.6222   20.0292 H   0  0  0  0  0  0
  -28.2986  -24.8394   18.7838 H   0  0  0  0  0  0
  -29.5254  -22.3041   19.0017 H   0  0  0  0  0  0
  -27.8886  -22.0526   19.5364 H   0  0  0  0  0  0
  -29.0753  -15.6548   21.3447 H   0  0  0  0  0  0
  1 25  1  0  0  0
  1 30  2  0  0  0
  1 80  1  0  0  0
  2  3  1  0  0  0
  2 25  1  0  0  0
  2 82  1  0  0  0
  2 83  1  0  0  0
  3  4  1  0  0  0
  3 84  1  0  0  0
  3 85  1  0  0  0
  4  5  1  0  0  0
  4 86  1  0  0  0
  4 87  1  0  0  0
  5  6  1  0  0  0
  5 26  1  0  0  0
  5 88  1  0  0  0
  6 25  1  0  0  0
  6 89  1  0  0  0
  6 90  1  0  0  0
  7  8  2  0  0  0
  7 26  1  0  0  0
  7 29  1  0  0  0
  8  9  1  0  0  0
  8 22  1  0  0  0
  9 10  1  0  0  0
  9 27  2  0  0  0
 10 11  2  0  0  0
 10 15  1  0  0  0
 11 12  1  0  0  0
 11 91  1  0  0  0
 12 13  2  0  0  0
 12 92  1  0  0  0
 13 14  1  0  0  0
 13 31  1  0  0  0
 14 15  2  0  0  0
 14 93  1  0  0  0
 15 94  1  0  0  0
 16 17  2  0  0  0
 16 21  1  0  0  0
 16 31  1  0  0  0
 17 18  1  0  0  0
 17 95  1  0  0  0
 18 19  2  0  0  0
 18 96  1  0  0  0
 19 20  1  0  0  0
 19 24  1  0  0  0
 20 21  2  0  0  0
 20 97  1  0  0  0
 21 23  1  0  0  0
 22 28  1  0  0  0
 22 32  2  0  0  0
 26 27  1  0  0  0
 28 98  1  0  0  0
 28 99  1  0  0  0
 29100  1  0  0  0
 29101  1  0  0  0
 33 34  1  0  0  0
 33 66  1  0  0  0
 33 70  2  0  0  0
 34 36  1  0  0  0
 34 59  1  0  0  0
 34102  1  0  0  0
 35 44  2  0  0  0
 35 45  1  0  0  0
 35 68  1  0  0  0
 36 56  1  0  0  0
 36103  1  0  0  0
 37 39  1  0  0  0
 37 47  1  0  0  0
 37 66  1  0  0  0
 37104  1  0  0  0
 38 43  2  0  0  0
 38 46  1  0  0  0
 38 47  1  0  0  0
 39 64  1  0  0  0
 39 67  2  0  0  0
 40 52  1  0  0  0
 40 53  2  0  0  0
 40 58  1  0  0  0
 41105  1  0  0  0
 41106  1  0  0  0
 41107  1  0  0  0
 41 48  1  0  0  0
 42 43  1  0  0  0
 42 66  1  0  0  0
 42108  1  0  0  0
 42109  1  0  0  0
 43 44  1  0  0  0
 44110  1  0  0  0
 45 46  2  0  0  0
 45111  1  0  0  0
 46112  1  0  0  0
 47113  1  0  0  0
 47114  1  0  0  0
 48 56  1  0  0  0
 48 65  1  0  0  0
 48115  1  0  0  0
 49 50  1  0  0  0
 49 53  1  0  0  0
 49 64  1  0  0  0
 49116  1  0  0  0
 50 51  1  0  0  0
 50117  1  0  0  0
 50118  1  0  0  0
 51 52  1  0  0  0
 51119  1  0  0  0
 51120  1  0  0  0
 52121  1  0  0  0
 52122  1  0  0  0
 53 54  1  0  0  0
 54 55  2  0  0  0
 54123  1  0  0  0
 55 57  1  0  0  0
 55124  1  0  0  0
 56 69  2  0  0  0
 57 58  2  0  0  0
 57125  1  0  0  0
 58126  1  0  0  0
 59 60  1  0  0  0
 59 61  1  0  0  0
 59 62  1  0  0  0
 60127  1  0  0  0
 60128  1  0  0  0
 60129  1  0  0  0
 61130  1  0  0  0
 61131  1  0  0  0
 61132  1  0  0  0
 62133  1  0  0  0
 62134  1  0  0  0
 62135  1  0  0  0
 63 65  1  0  0  0
 63136  1  0  0  0
 63137  1  0  0  0
 63138  1  0  0  0
 64139  1  0  0  0
 65140  1  0  0  0
 68 78  1  0  0  0
 71 72  2  0  0  0
 71 73  1  0  0  0
 71141  1  0  0  0
 72 75  1  0  0  0
 72142  1  0  0  0
 73 76  2  0  0  0
 73143  1  0  0  0
 74 75  2  0  0  0
 74 76  1  0  0  0
 74144  1  0  0  0
 75 80  1  0  0  0
 76 81  1  0  0  0
 77 78  1  0  0  0
 77 79  1  0  0  0
 77145  1  0  0  0
 77146  1  0  0  0
 78147  1  0  0  0
 78148  1  0  0  0
 79 81  1  0  0  0
 79149  1  0  0  0
 79150  1  0  0  0
 80151  1  0  0  0
M  ISO  4   1 100  68 101  78 101  80 100
M  END
> <chiral flag>
0

> <version>
0

> <s_m_source_file>
/data/baiqing/PycharmProjects/Reinvent-master-3.2/result/LINK_invent/BTK/process_docking_weight1_custom_product_contain_oxygen_bond_distance_aromatic_linkinvent_7_9_3/rearranged_h_0135.sdf

> <i_m_source_file_index>
63

> <r_mmod_Potential_Energy-OPLS-2005>
185.519424438477

> <r_mmod_Stretch_Energy-OPLS-2005>
124.80167388916

> <r_mmod_Bend_Energy-OPLS-2005>
166.076385498047

> <r_mmod_Torsional_Energy-OPLS-2005>
237.988235473633

> <r_mmod_Improper_Torsional_Energy-OPLS-2005>
4.65315580368042

> <r_mmod_Van_der_Waal_Energy-OPLS-2005>
146.747375488281

> <r_mmod_Electrostatic_Energy-OPLS-2005>
-355.506103515625

> <r_mmod_Solvation_Energy-OPLS-2005>
-217.155700683594

> <b_mmod_Minimization_Converged-OPLS-2005>
0

> <r_mmod_RMS_Derivative-OPLS-2005>
1.40038752555847

$$$$
63
                    3D
 Structure written by MMmdl.
171180  0  0  1  0            999 V2000
  -30.6971  -14.4443   20.5180 C   0  0  0  0  0  0
  -30.4226  -12.2722   19.4227 C   0  0  0  0  0  0
  -29.4964  -12.4806   18.2074 C   0  0  0  0  0  0
  -28.0164  -12.3477   18.6168 C   0  0  0  0  0  0
  -27.6618  -13.1877   19.8722 C   0  0  2  0  0  0
  -28.7040  -12.9814   20.9940 C   0  0  0  0  0  0
  -25.2614  -13.8107   20.5661 C   0  0  0  0  0  0
  -24.1853  -13.0419   20.9172 C   0  0  0  0  0  0
  -24.6377  -11.6876   20.8729 C   0  0  0  0  0  0
  -23.9025  -10.4288   21.0392 C   0  0  0  0  0  0
  -24.3591   -9.4210   21.9170 C   0  0  0  0  0  0
  -23.6271   -8.2253   22.0754 C   0  0  0  0  0  0
  -22.4258   -8.0282   21.3540 C   0  0  0  0  0  0
  -21.9879   -9.0250   20.4640 C   0  0  0  0  0  0
  -22.7196  -10.2134   20.3040 C   0  0  0  0  0  0
  -21.6861   -6.0732   22.5274 C   0  0  0  0  0  0
  -21.4022   -6.5630   23.8205 C   0  0  0  0  0  0
  -21.3658   -5.6779   24.9164 C   0  0  0  0  0  0
  -21.6044   -4.3042   24.7216 C   0  0  0  0  0  0
  -21.8820   -3.8136   23.4335 C   0  0  0  0  0  0
  -21.9196   -4.6960   22.3393 C   0  0  0  0  0  0
  -22.7883  -13.5250   21.1848 C   0  0  0  0  0  0
  -22.1665   -4.2138   21.0973 F   0  0  0  0  0  0
  -21.5625   -3.4531   25.7735 F   0  0  0  0  0  0
  -30.0365  -13.2626   20.4348 N   0  0  0  0  0  0
  -26.3027  -12.9242   20.3336 N   0  0  0  0  0  0
  -25.9290  -11.6420   20.5741 N   0  0  0  0  0  0
  -22.0499  -12.8269   22.0402 N   0  0  0  0  0  0
  -25.4310  -15.1819   20.4042 N   0  0  0  0  0  0
  -31.8548  -14.6077   20.1233 O   0  0  0  0  0  0
  -21.6634   -6.8877   21.4239 O   0  0  0  0  0  0
  -22.3582  -14.5563   20.6683 O   0  0  0  0  0  0
  -24.6086  -31.8674   23.2080 C   0  0  0  0  0  0
  -25.8988  -32.4824   23.8385 C   0  0  1  0  0  0
  -27.2445  -27.4771   20.1233 C   0  0  0  0  0  0
  -25.5857  -33.8618   24.2337 N   0  0  0  0  0  0
  -23.3963  -30.4889   21.5459 C   0  0  2  0  0  0
  -24.8472  -28.9647   20.1003 C   0  0  0  0  0  0
  -22.7391  -29.4618   22.4958 C   0  0  0  0  0  0
  -18.0274  -28.1352   22.8485 C   0  0  0  0  0  0
  -24.1489  -36.7324   23.2648 C   0  0  0  0  0  0
  -25.9139  -30.8654   21.3371 C   0  0  0  0  0  0
  -26.0016  -29.5049   20.6806 C   0  0  0  0  0  0
  -27.2073  -28.7801   20.6592 C   0  0  0  0  0  0
  -26.0849  -26.9452   19.5216 C   0  0  0  0  0  0
  -24.8857  -27.6886   19.5043 C   0  0  0  0  0  0
  -23.6007  -29.8183   20.1585 C   0  0  0  0  0  0
  -25.4104  -36.3118   24.0356 C   0  0  1  0  0  0
  -20.5872  -28.3626   23.1332 C   0  0  2  0  0  0
  -20.6761  -26.9358   22.5427 C   0  0  0  0  0  0
  -19.5748  -26.6364   21.5216 C   0  0  0  0  0  0
  -18.1921  -26.7902   22.1621 C   0  0  0  0  0  0
  -19.1525  -28.8803   23.2910 C   0  0  0  0  0  0
  -18.9456  -30.1418   23.8896 C   0  0  0  0  0  0
  -17.6460  -30.6557   24.0558 C   0  0  0  0  0  0
  -25.9020  -34.9477   23.5153 C   0  0  0  0  0  0
  -16.5346  -29.9064   23.6321 C   0  0  0  0  0  0
  -16.7266  -28.6492   23.0318 C   0  0  0  0  0  0
  -26.4436  -31.6583   25.0695 C   0  0  0  0  0  0
  -25.3717  -31.3678   26.1471 C   0  0  0  0  0  0
  -27.0278  -30.3062   24.5970 C   0  0  0  0  0  0
  -27.6041  -32.4259   25.7452 C   0  0  0  0  0  0
  -27.5577  -37.1809   24.8477 C   0  0  0  0  0  0
  -21.4118  -29.3002   22.3729 N   0  0  0  0  0  0
  -26.4297  -37.3794   23.9416 N   0  0  0  0  0  0
  -24.6593  -31.0835   22.0926 N   0  0  0  0  0  0
  -23.4185  -28.8141   23.2965 O   0  0  0  0  0  0
  -28.3828  -26.7140   20.2314 O   0  0  0  0  0  0
  -26.5583  -34.8930   22.4714 O   0  0  0  0  0  0
  -23.5291  -32.1366   23.7532 O   0  0  0  0  0  0
  -26.9367  -19.5375   21.3192 C   0  0  0  0  0  0
  -28.1875  -19.7921   21.9029 C   0  0  0  0  0  0
  -26.8096  -18.5295   20.3519 C   0  0  0  0  0  0
  -32.1921  -21.3699   22.9727 C   0  0  0  0  0  0
  -31.9606  -22.7606   23.1443 C   0  0  0  0  0  0
  -29.3264  -19.0349   21.5410 C   0  0  0  0  0  0
  -29.1549  -17.8960   20.6969 C   0  0  0  0  0  0
  -27.9120  -17.7101   20.0275 C   0  0  0  0  0  0
  -31.0524  -20.8407   22.4347 C   0  0  0  0  0  0
  -30.6878  -22.9909   22.7032 C   0  0  0  0  0  0
  -28.6314  -26.9650   22.6997 C   0  0  0  0  0  0
  -26.9762  -17.0670   17.8654 C   0  0  0  0  0  0
  -30.7289  -19.4183   22.0445 C   0  0  0  0  0  0
  -30.2977  -16.8815   20.5042 C   0  0  0  0  0  0
  -29.7998  -24.1912   22.7477 C   0  0  0  0  0  0
  -29.6209  -24.9706   21.4246 C   0  0  0  0  0  0
  -28.4743  -26.0071   21.4885 C   0  0  2  0  0  0
  -27.7809  -16.7274   19.0349 N   0  0  0  0  0  0
  -29.9286  -15.4971   20.8174 N   0  0  0  0  0  0
  -30.1468  -21.8397   22.2127 O   0  0  0  0  0  0
  -31.4668  -12.3652   19.1202 H   0  0  0  0  0  0
  -30.3177  -11.2622   19.8273 H   0  0  0  0  0  0
  -29.7315  -11.7541   17.4284 H   0  0  0  0  0  0
  -29.6734  -13.4652   17.7723 H   0  0  0  0  0  0
  -27.8188  -11.2926   18.8076 H   0  0  0  0  0  0
  -27.3706  -12.6313   17.7853 H   0  0  0  0  0  0
  -27.7007  -14.2270   19.5640 H   0  0  0  0  0  0
  -28.6715  -11.9528   21.3540 H   0  0  0  0  0  0
  -28.4791  -13.6072   21.8590 H   0  0  0  0  0  0
  -25.2739   -9.5715   22.4730 H   0  0  0  0  0  0
  -23.9980   -7.4667   22.7483 H   0  0  0  0  0  0
  -21.0805   -8.8764   19.8958 H   0  0  0  0  0  0
  -22.3640  -10.9675   19.6155 H   0  0  0  0  0  0
  -21.2016   -7.6141   23.9701 H   0  0  0  0  0  0
  -21.1477   -6.0515   25.9061 H   0  0  0  0  0  0
  -22.0600   -2.7602   23.2839 H   0  0  0  0  0  0
  -22.4078  -11.9920   22.4801 H   0  0  0  0  0  0
  -21.1136  -13.1343   22.2595 H   0  0  0  0  0  0
  -24.6592  -15.8284   20.5044 H   0  0  0  0  0  0
  -26.2604  -15.6251   20.0039 H   0  0  0  0  0  0
  -26.7056  -32.5578   23.1168 H   0  0  0  0  0  0
  -25.0044  -33.9777   25.0508 H   0  0  0  0  0  0
  -22.6843  -31.3047   21.4062 H   0  0  0  0  0  0
  -23.3745  -35.9663   23.3342 H   0  0  0  0  0  0
  -24.3580  -36.8900   22.2051 H   0  0  0  0  0  0
  -23.7243  -37.6549   23.6630 H   0  0  0  0  0  0
  -26.0040  -31.6374   20.5702 H   0  0  0  0  0  0
  -26.8074  -30.9292   21.9443 H   0  0  0  0  0  0
  -28.1013  -29.1965   21.1018 H   0  0  0  0  0  0
  -26.1075  -25.9528   19.0930 H   0  0  0  0  0  0
  -24.0007  -27.2709   19.0436 H   0  0  0  0  0  0
  -23.6920  -30.5949   19.3985 H   0  0  0  0  0  0
  -22.7280  -29.2299   19.8696 H   0  0  0  0  0  0
  -25.1273  -36.1995   25.0847 H   0  0  0  0  0  0
  -20.9983  -28.3169   24.1448 H   0  0  0  0  0  0
  -20.5667  -26.2200   23.3592 H   0  0  0  0  0  0
  -21.6625  -26.7388   22.1210 H   0  0  0  0  0  0
  -19.6911  -25.6289   21.1212 H   0  0  0  0  0  0
  -19.6705  -27.3186   20.6756 H   0  0  0  0  0  0
  -17.4199  -26.6654   21.4009 H   0  0  0  0  0  0
  -18.0295  -26.0035   22.9008 H   0  0  0  0  0  0
  -19.7934  -30.7237   24.2233 H   0  0  0  0  0  0
  -17.5025  -31.6234   24.5157 H   0  0  0  0  0  0
  -15.5346  -30.2967   23.7649 H   0  0  0  0  0  0
  -15.8672  -28.0835   22.6984 H   0  0  0  0  0  0
  -24.5891  -30.6999   25.7840 H   0  0  0  0  0  0
  -24.8902  -32.2829   26.4931 H   0  0  0  0  0  0
  -25.8098  -30.8868   27.0229 H   0  0  0  0  0  0
  -26.2816  -29.6833   24.1035 H   0  0  0  0  0  0
  -27.4152  -29.7258   25.4359 H   0  0  0  0  0  0
  -27.8576  -30.4465   23.9040 H   0  0  0  0  0  0
  -27.2693  -33.3552   26.2072 H   0  0  0  0  0  0
  -28.3837  -32.6816   25.0255 H   0  0  0  0  0  0
  -28.0724  -31.8349   26.5335 H   0  0  0  0  0  0
  -28.2602  -38.0099   24.7514 H   0  0  0  0  0  0
  -28.1059  -36.2631   24.6304 H   0  0  0  0  0  0
  -27.2312  -37.1475   25.8889 H   0  0  0  0  0  0
  -20.9242  -29.8800   21.7041 H   0  0  0  0  0  0
  -26.0215  -38.2884   24.1411 H   0  0  0  0  0  0
  -26.0798  -20.1389   21.5926 H   0  0  0  0  0  0
  -28.2459  -20.5907   22.6251 H   0  0  0  0  0  0
  -25.8475  -18.3828   19.8826 H   0  0  0  0  0  0
  -33.0840  -20.8121   23.2248 H   0  0  0  0  0  0
  -32.6312  -23.4929   23.5755 H   0  0  0  0  0  0
  -28.7302  -26.4348   23.6456 H   0  0  0  0  0  0
  -27.7541  -27.5907   22.8478 H   0  0  0  0  0  0
  -29.5010  -27.6145   22.5910 H   0  0  0  0  0  0
  -27.2931  -16.4791   17.0041 H   0  0  0  0  0  0
  -27.0759  -18.1205   17.5977 H   0  0  0  0  0  0
  -25.9213  -16.8551   18.0402 H   0  0  0  0  0  0
  -31.4263  -19.2025   21.2352 H   0  0  0  0  0  0
  -30.9960  -18.7526   22.8656 H   0  0  0  0  0  0
  -30.6355  -16.9451   19.4680 H   0  0  0  0  0  0
  -31.1679  -17.0978   21.1182 H   0  0  0  0  0  0
  -30.2090  -24.8627   23.5029 H   0  0  0  0  0  0
  -28.8212  -23.8841   23.1192 H   0  0  0  0  0  0
  -29.4113  -24.2682   20.6168 H   0  0  0  0  0  0
  -30.5563  -25.4672   21.1679 H   0  0  0  0  0  0
  -27.5453  -25.4495   21.6254 H   0  0  0  0  0  0
  -28.6355  -16.2240   18.8162 H   0  0  0  0  0  0
  -28.9738  -15.3181   21.0909 H   0  0  0  0  0  0
  1 25  1  0  0  0
  1 30  2  0  0  0
  1 89  1  0  0  0
  2  3  1  0  0  0
  2 25  1  0  0  0
  2 91  1  0  0  0
  2 92  1  0  0  0
  3  4  1  0  0  0
  3 93  1  0  0  0
  3 94  1  0  0  0
  4  5  1  0  0  0
  4 95  1  0  0  0
  4 96  1  0  0  0
  5  6  1  0  0  0
  5 26  1  0  0  0
  5 97  1  0  0  0
  6 25  1  0  0  0
  6 98  1  0  0  0
  6 99  1  0  0  0
  7  8  2  0  0  0
  7 26  1  0  0  0
  7 29  1  0  0  0
  8  9  1  0  0  0
  8 22  1  0  0  0
  9 10  1  0  0  0
  9 27  2  0  0  0
 10 11  2  0  0  0
 10 15  1  0  0  0
 11 12  1  0  0  0
 11100  1  0  0  0
 12 13  2  0  0  0
 12101  1  0  0  0
 13 14  1  0  0  0
 13 31  1  0  0  0
 14 15  2  0  0  0
 14102  1  0  0  0
 15103  1  0  0  0
 16 17  2  0  0  0
 16 21  1  0  0  0
 16 31  1  0  0  0
 17 18  1  0  0  0
 17104  1  0  0  0
 18 19  2  0  0  0
 18105  1  0  0  0
 19 20  1  0  0  0
 19 24  1  0  0  0
 20 21  2  0  0  0
 20106  1  0  0  0
 21 23  1  0  0  0
 22 28  1  0  0  0
 22 32  2  0  0  0
 26 27  1  0  0  0
 28107  1  0  0  0
 28108  1  0  0  0
 29109  1  0  0  0
 29110  1  0  0  0
 33 34  1  0  0  0
 33 66  1  0  0  0
 33 70  2  0  0  0
 34 36  1  0  0  0
 34 59  1  0  0  0
 34111  1  0  0  0
 35 44  2  0  0  0
 35 45  1  0  0  0
 35 68  1  0  0  0
 36 56  1  0  0  0
 36112  1  0  0  0
 37 39  1  0  0  0
 37 47  1  0  0  0
 37 66  1  0  0  0
 37113  1  0  0  0
 38 43  2  0  0  0
 38 46  1  0  0  0
 38 47  1  0  0  0
 39 64  1  0  0  0
 39 67  2  0  0  0
 40 52  1  0  0  0
 40 53  2  0  0  0
 40 58  1  0  0  0
 41114  1  0  0  0
 41115  1  0  0  0
 41116  1  0  0  0
 41 48  1  0  0  0
 42 43  1  0  0  0
 42 66  1  0  0  0
 42117  1  0  0  0
 42118  1  0  0  0
 43 44  1  0  0  0
 44119  1  0  0  0
 45 46  2  0  0  0
 45120  1  0  0  0
 46121  1  0  0  0
 47122  1  0  0  0
 47123  1  0  0  0
 48 56  1  0  0  0
 48 65  1  0  0  0
 48124  1  0  0  0
 49 50  1  0  0  0
 49 53  1  0  0  0
 49 64  1  0  0  0
 49125  1  0  0  0
 50 51  1  0  0  0
 50126  1  0  0  0
 50127  1  0  0  0
 51 52  1  0  0  0
 51128  1  0  0  0
 51129  1  0  0  0
 52130  1  0  0  0
 52131  1  0  0  0
 53 54  1  0  0  0
 54 55  2  0  0  0
 54132  1  0  0  0
 55 57  1  0  0  0
 55133  1  0  0  0
 56 69  2  0  0  0
 57 58  2  0  0  0
 57134  1  0  0  0
 58135  1  0  0  0
 59 60  1  0  0  0
 59 61  1  0  0  0
 59 62  1  0  0  0
 60136  1  0  0  0
 60137  1  0  0  0
 60138  1  0  0  0
 61139  1  0  0  0
 61140  1  0  0  0
 61141  1  0  0  0
 62142  1  0  0  0
 62143  1  0  0  0
 62144  1  0  0  0
 63 65  1  0  0  0
 63145  1  0  0  0
 63146  1  0  0  0
 63147  1  0  0  0
 64148  1  0  0  0
 65149  1  0  0  0
 68 87  1  0  0  0
 71 72  2  0  0  0
 71 73  1  0  0  0
 71150  1  0  0  0
 72 76  1  0  0  0
 72151  1  0  0  0
 73 78  2  0  0  0
 73152  1  0  0  0
 74 75  1  0  0  0
 74 79  2  0  0  0
 74153  1  0  0  0
 75 80  2  0  0  0
 75154  1  0  0  0
 76 77  2  0  0  0
 76 83  1  0  0  0
 77 78  1  0  0  0
 77 84  1  0  0  0
 78 88  1  0  0  0
 79 83  1  0  0  0
 79 90  1  0  0  0
 80 85  1  0  0  0
 80 90  1  0  0  0
 81155  1  0  0  0
 81156  1  0  0  0
 81157  1  0  0  0
 81 87  1  0  0  0
 82 88  1  0  0  0
 82158  1  0  0  0
 82159  1  0  0  0
 82160  1  0  0  0
 83161  1  0  0  0
 83162  1  0  0  0
 84 89  1  0  0  0
 84163  1  0  0  0
 84164  1  0  0  0
 85 86  1  0  0  0
 85165  1  0  0  0
 85166  1  0  0  0
 86 87  1  0  0  0
 86167  1  0  0  0
 86168  1  0  0  0
 87169  1  0  0  0
 88170  1  0  0  0
 89171  1  0  0  0
M  ISO  4   1 100  68 101  87 101  89 100
M  END
> <chiral flag>
0

> <version>
0

> <s_m_source_file>
/data/baiqing/PycharmProjects/Reinvent-master-3.2/result/LINK_invent/BTK/process_docking_weight1_custom_product_contain_oxygen_bond_distance_aromatic_linkinvent_7_9_3/rearranged_h_0135.sdf

> <i_m_source_file_index>
64

> <r_mmod_Potential_Energy-OPLS-2005>
-46.5847396850586

> <r_mmod_Stretch_Energy-OPLS-2005>
38.8354797363281

> <r_mmod_Bend_Energy-OPLS-2005>
102.102798461914

> <r_mmod_Torsional_Energy-OPLS-2005>
246.78205871582

> <r_mmod_Improper_Torsional_Energy-OPLS-2005>
10.7942743301392

> <r_mmod_Van_der_Waal_Energy-OPLS-2005>
161.069747924805

> <r_mmod_Electrostatic_Energy-OPLS-2005>
-427.523681640625

> <r_mmod_Solvation_Energy-OPLS-2005>
-195.516983032227

> <b_mmod_Minimization_Converged-OPLS-2005>
0

> <r_mmod_RMS_Derivative-OPLS-2005>
2.83100914955139

$$$$
64
                    3D
 Structure written by MMmdl.
179188  0  0  1  0            999 V2000
  -30.9483  -14.1281   20.9003 C   0  0  0  0  0  0
  -30.4049  -12.3150   19.3441 C   0  0  0  0  0  0
  -29.4641  -12.5772   18.1647 C   0  0  0  0  0  0
  -28.0029  -12.3867   18.5984 C   0  0  0  0  0  0
  -27.6642  -13.2090   19.8686 C   0  0  2  0  0  0
  -28.7046  -12.9777   20.9867 C   0  0  0  0  0  0
  -25.2583  -13.8175   20.5666 C   0  0  0  0  0  0
  -24.1846  -13.0454   20.9164 C   0  0  0  0  0  0
  -24.6398  -11.6916   20.8708 C   0  0  0  0  0  0
  -23.9055  -10.4287   21.0362 C   0  0  0  0  0  0
  -24.3589   -9.4213   21.9158 C   0  0  0  0  0  0
  -23.6254   -8.2260   22.0760 C   0  0  0  0  0  0
  -22.4248   -8.0272   21.3549 C   0  0  0  0  0  0
  -21.9878   -9.0236   20.4649 C   0  0  0  0  0  0
  -22.7209  -10.2111   20.3035 C   0  0  0  0  0  0
  -21.6842   -6.0720   22.5274 C   0  0  0  0  0  0
  -21.4021   -6.5629   23.8202 C   0  0  0  0  0  0
  -21.3655   -5.6788   24.9165 C   0  0  0  0  0  0
  -21.6036   -4.3057   24.7224 C   0  0  0  0  0  0
  -21.8817   -3.8139   23.4349 C   0  0  0  0  0  0
  -21.9190   -4.6952   22.3401 C   0  0  0  0  0  0
  -22.7866  -13.5248   21.1828 C   0  0  0  0  0  0
  -22.1652   -4.2144   21.0977 F   0  0  0  0  0  0
  -21.5610   -3.4535   25.7735 F   0  0  0  0  0  0
  -30.0567  -13.2084   20.4568 N   0  0  0  0  0  0
  -26.3024  -12.9359   20.3312 N   0  0  0  0  0  0
  -25.9313  -11.6512   20.5693 N   0  0  0  0  0  0
  -22.0484  -12.8267   22.0381 N   0  0  0  0  0  0
  -25.4337  -15.1894   20.4088 N   0  0  0  0  0  0
  -31.6784  -14.7340   20.1069 O   0  0  0  0  0  0
  -21.6629   -6.8856   21.4237 O   0  0  0  0  0  0
  -22.3546  -14.5549   20.6653 O   0  0  0  0  0  0
  -24.6048  -31.8730   23.2206 C   0  0  0  0  0  0
  -25.8974  -32.4869   23.8468 C   0  0  1  0  0  0
  -27.2406  -27.4987   20.0657 C   0  0  0  0  0  0
  -25.5867  -33.8663   24.2390 N   0  0  0  0  0  0
  -23.3885  -30.5008   21.5625 C   0  0  2  0  0  0
  -24.8341  -28.9802   20.1173 C   0  0  0  0  0  0
  -22.7351  -29.4656   22.5048 C   0  0  0  0  0  0
  -18.0244  -28.1325   22.8489 C   0  0  0  0  0  0
  -24.1491  -36.7317   23.2648 C   0  0  0  0  0  0
  -25.9160  -30.8489   21.3773 C   0  0  0  0  0  0
  -25.9896  -29.4923   20.7180 C   0  0  0  0  0  0
  -27.1865  -28.7528   20.7011 C   0  0  0  0  0  0
  -26.0575  -26.9819   19.4718 C   0  0  0  0  0  0
  -24.8605  -27.7202   19.5000 C   0  0  0  0  0  0
  -23.5941  -29.8422   20.1726 C   0  0  0  0  0  0
  -25.4111  -36.3136   24.0337 C   0  0  1  0  0  0
  -20.5837  -28.3612   23.1317 C   0  0  2  0  0  0
  -20.6736  -26.9366   22.5396 C   0  0  0  0  0  0
  -19.5733  -26.6354   21.5186 C   0  0  0  0  0  0
  -18.1896  -26.7890   22.1584 C   0  0  0  0  0  0
  -19.1515  -28.8782   23.2894 C   0  0  0  0  0  0
  -18.9444  -30.1372   23.8914 C   0  0  0  0  0  0
  -17.6463  -30.6560   24.0554 C   0  0  0  0  0  0
  -25.9020  -34.9489   23.5179 C   0  0  0  0  0  0
  -16.5342  -29.9066   23.6349 C   0  0  0  0  0  0
  -16.7246  -28.6466   23.0392 C   0  0  0  0  0  0
  -26.4467  -31.6640   25.0766 C   0  0  0  0  0  0
  -25.3784  -31.3650   26.1543 C   0  0  0  0  0  0
  -27.0355  -30.3114   24.6120 C   0  0  0  0  0  0
  -27.6049  -32.4388   25.7506 C   0  0  0  0  0  0
  -27.5598  -37.1801   24.8477 C   0  0  0  0  0  0
  -21.4097  -29.3010   22.3753 N   0  0  0  0  0  0
  -26.4308  -37.3792   23.9416 N   0  0  0  0  0  0
  -24.6525  -31.0851   22.1113 N   0  0  0  0  0  0
  -23.4177  -28.8160   23.3025 O   0  0  0  0  0  0
  -28.4753  -26.8914   20.0455 O   0  0  0  0  0  0
  -26.5607  -34.8933   22.4740 O   0  0  0  0  0  0
  -23.5255  -32.1456   23.7646 O   0  0  0  0  0  0
  -30.2450  -20.5747   23.6025 C   0  0  0  0  0  0
  -30.6003  -19.2711   23.9922 C   0  0  0  0  0  0
  -27.8867  -20.0243   23.9113 C   0  0  0  0  0  0
  -28.8821  -20.9133   23.4612 C   0  0  0  0  0  0
  -28.2397  -18.7250   24.3250 C   0  0  0  0  0  0
  -29.5927  -18.3232   24.2802 C   0  0  0  0  0  0
  -28.4605  -22.1010   22.7245 C   0  0  0  0  0  0
  -30.4220  -14.9364   23.2947 C   0  0  0  0  0  0
  -29.8376  -21.8528   19.2895 C   0  0  0  0  0  0
  -28.5184  -22.5906   19.1132 C   0  0  0  0  0  0
  -29.7419  -21.3368   20.7191 C   0  0  0  0  0  0
  -28.2804  -23.2530   20.4825 C   0  0  2  0  0  0
  -27.1594  -17.7342   24.7131 C   0  0  0  0  0  0
  -31.3675  -12.6171   22.9585 C   0  0  0  0  0  0
  -32.8352  -14.5811   22.5896 C   0  0  0  0  0  0
  -30.6298  -16.4535   23.3528 C   0  0  0  0  0  0
  -28.9507  -24.6266   20.6536 C   0  0  0  0  0  0
  -28.6504  -25.5951   19.5055 C   0  0  0  0  0  0
  -31.3704  -14.0783   22.4178 C   0  0  0  0  0  0
  -28.8364  -22.2715   21.4317 N   0  0  0  0  0  0
  -27.6247  -22.9554   23.3073 N   0  3  0  0  0  0
  -29.5288  -14.4150   23.9744 O   0  0  0  0  0  0
  -29.8913  -16.9987   24.4492 O   0  0  0  0  0  0
  -31.4449  -12.4260   19.0302 H   0  0  0  0  0  0
  -30.3020  -11.2827   19.6800 H   0  0  0  0  0  0
  -29.7023  -11.9057   17.3396 H   0  0  0  0  0  0
  -29.6129  -13.5924   17.7906 H   0  0  0  0  0  0
  -27.8334  -11.3261   18.7786 H   0  0  0  0  0  0
  -27.3340  -12.6615   17.7823 H   0  0  0  0  0  0
  -27.7143  -14.2613   19.5873 H   0  0  0  0  0  0
  -28.6263  -11.9591   21.3656 H   0  0  0  0  0  0
  -28.4658  -13.6438   21.8115 H   0  0  0  0  0  0
  -25.2726   -9.5694   22.4742 H   0  0  0  0  0  0
  -23.9946   -7.4666   22.7519 H   0  0  0  0  0  0
  -21.0788   -8.8746   19.8961 H   0  0  0  0  0  0
  -22.3639  -10.9643   19.6140 H   0  0  0  0  0  0
  -21.2029   -7.6136   23.9707 H   0  0  0  0  0  0
  -21.1474   -6.0513   25.9070 H   0  0  0  0  0  0
  -22.0602   -2.7600   23.2853 H   0  0  0  0  0  0
  -22.4069  -11.9936   22.4836 H   0  0  0  0  0  0
  -21.1121  -13.1338   22.2613 H   0  0  0  0  0  0
  -24.6713  -15.8514   20.5123 H   0  0  0  0  0  0
  -26.2914  -15.6195   20.0882 H   0  0  0  0  0  0
  -26.7017  -32.5633   23.1228 H   0  0  0  0  0  0
  -25.0118  -33.9874   25.0601 H   0  0  0  0  0  0
  -22.6724  -31.3147   21.4329 H   0  0  0  0  0  0
  -23.3805  -35.9616   23.3300 H   0  0  0  0  0  0
  -24.3553  -36.8939   22.2062 H   0  0  0  0  0  0
  -23.7211  -37.6484   23.6696 H   0  0  0  0  0  0
  -26.0390  -31.6280   20.6236 H   0  0  0  0  0  0
  -26.7963  -30.8837   22.0062 H   0  0  0  0  0  0
  -28.0793  -29.1516   21.1653 H   0  0  0  0  0  0
  -26.0092  -26.0365   18.9562 H   0  0  0  0  0  0
  -23.9721  -27.3265   19.0265 H   0  0  0  0  0  0
  -23.7034  -30.6287   19.4251 H   0  0  0  0  0  0
  -22.7164  -29.2657   19.8755 H   0  0  0  0  0  0
  -25.1284  -36.2006   25.0831 H   0  0  0  0  0  0
  -20.9910  -28.3186   24.1458 H   0  0  0  0  0  0
  -20.5600  -26.2246   23.3583 H   0  0  0  0  0  0
  -21.6591  -26.7379   22.1197 H   0  0  0  0  0  0
  -19.6910  -25.6273   21.1208 H   0  0  0  0  0  0
  -19.6685  -27.3167   20.6722 H   0  0  0  0  0  0
  -17.4164  -26.6655   21.3990 H   0  0  0  0  0  0
  -18.0261  -25.9993   22.8937 H   0  0  0  0  0  0
  -19.7918  -30.7128   24.2365 H   0  0  0  0  0  0
  -17.5040  -31.6282   24.5084 H   0  0  0  0  0  0
  -15.5346  -30.2985   23.7662 H   0  0  0  0  0  0
  -15.8628  -28.0773   22.7186 H   0  0  0  0  0  0
  -24.5948  -30.7018   25.7854 H   0  0  0  0  0  0
  -24.9020  -32.2774   26.5145 H   0  0  0  0  0  0
  -25.8167  -30.8702   27.0224 H   0  0  0  0  0  0
  -26.2884  -29.6780   24.1335 H   0  0  0  0  0  0
  -27.4335  -29.7420   25.4527 H   0  0  0  0  0  0
  -27.8612  -30.4481   23.9138 H   0  0  0  0  0  0
  -27.2685  -33.3691   26.2118 H   0  0  0  0  0  0
  -28.3829  -32.6949   25.0294 H   0  0  0  0  0  0
  -28.0798  -31.8532   26.5407 H   0  0  0  0  0  0
  -28.2599  -38.0116   24.7564 H   0  0  0  0  0  0
  -28.1106  -36.2645   24.6273 H   0  0  0  0  0  0
  -27.2308  -37.1378   25.8874 H   0  0  0  0  0  0
  -20.9234  -29.8804   21.7044 H   0  0  0  0  0  0
  -26.0227  -38.2878   24.1444 H   0  0  0  0  0  0
  -31.0185  -21.2797   23.3236 H   0  0  0  0  0  0
  -31.6434  -18.9904   24.0092 H   0  0  0  0  0  0
  -26.8430  -20.3066   23.8413 H   0  0  0  0  0  0
  -30.6886  -22.5270   19.1837 H   0  0  0  0  0  0
  -29.9543  -21.0422   18.5717 H   0  0  0  0  0  0
  -27.7137  -21.8826   18.9123 H   0  0  0  0  0  0
  -28.5567  -23.2761   18.2693 H   0  0  0  0  0  0
  -30.7392  -21.2761   21.1558 H   0  0  0  0  0  0
  -29.3067  -20.3357   20.7276 H   0  0  0  0  0  0
  -27.2020  -23.3606   20.6267 H   0  0  0  0  0  0
  -26.1876  -18.2169   24.8200 H   0  0  0  0  0  0
  -27.4021  -17.2631   25.6657 H   0  0  0  0  0  0
  -27.0712  -16.9534   23.9576 H   0  0  0  0  0  0
  -31.6368  -12.5866   24.0165 H   0  0  0  0  0  0
  -32.0849  -11.9874   22.4319 H   0  0  0  0  0  0
  -30.3969  -12.1292   22.8848 H   0  0  0  0  0  0
  -33.0979  -14.7354   23.6392 H   0  0  0  0  0  0
  -33.0248  -15.5235   22.0758 H   0  0  0  0  0  0
  -33.5528  -13.8650   22.1872 H   0  0  0  0  0  0
  -30.2984  -16.8837   22.4063 H   0  0  0  0  0  0
  -31.6850  -16.6933   23.4801 H   0  0  0  0  0  0
  -30.0298  -24.5392   20.7875 H   0  0  0  0  0  0
  -28.5863  -25.0681   21.5823 H   0  0  0  0  0  0
  -27.8339  -25.2429   18.8845 H   0  0  0  0  0  0
  -29.5091  -25.6348   18.8355 H   0  0  0  0  0  0
  -27.3939  -22.8092   24.2799 H   0  0  0  0  0  0
  -27.2744  -23.7747   22.8451 H   0  0  0  0  0  0
  1 25  1  0  0  0
  1 30  2  0  0  0
  1 89  1  0  0  0
  2  3  1  0  0  0
  2 25  1  0  0  0
  2 94  1  0  0  0
  2 95  1  0  0  0
  3  4  1  0  0  0
  3 96  1  0  0  0
  3 97  1  0  0  0
  4  5  1  0  0  0
  4 98  1  0  0  0
  4 99  1  0  0  0
  5  6  1  0  0  0
  5 26  1  0  0  0
  5100  1  0  0  0
  6 25  1  0  0  0
  6101  1  0  0  0
  6102  1  0  0  0
  7  8  2  0  0  0
  7 26  1  0  0  0
  7 29  1  0  0  0
  8  9  1  0  0  0
  8 22  1  0  0  0
  9 10  1  0  0  0
  9 27  2  0  0  0
 10 11  2  0  0  0
 10 15  1  0  0  0
 11 12  1  0  0  0
 11103  1  0  0  0
 12 13  2  0  0  0
 12104  1  0  0  0
 13 14  1  0  0  0
 13 31  1  0  0  0
 14 15  2  0  0  0
 14105  1  0  0  0
 15106  1  0  0  0
 16 17  2  0  0  0
 16 21  1  0  0  0
 16 31  1  0  0  0
 17 18  1  0  0  0
 17107  1  0  0  0
 18 19  2  0  0  0
 18108  1  0  0  0
 19 20  1  0  0  0
 19 24  1  0  0  0
 20 21  2  0  0  0
 20109  1  0  0  0
 21 23  1  0  0  0
 22 28  1  0  0  0
 22 32  2  0  0  0
 26 27  1  0  0  0
 28110  1  0  0  0
 28111  1  0  0  0
 29112  1  0  0  0
 29113  1  0  0  0
 33 34  1  0  0  0
 33 66  1  0  0  0
 33 70  2  0  0  0
 34 36  1  0  0  0
 34 59  1  0  0  0
 34114  1  0  0  0
 35 44  2  0  0  0
 35 45  1  0  0  0
 35 68  1  0  0  0
 36 56  1  0  0  0
 36115  1  0  0  0
 37 39  1  0  0  0
 37 47  1  0  0  0
 37 66  1  0  0  0
 37116  1  0  0  0
 38 43  2  0  0  0
 38 46  1  0  0  0
 38 47  1  0  0  0
 39 64  1  0  0  0
 39 67  2  0  0  0
 40 52  1  0  0  0
 40 53  2  0  0  0
 40 58  1  0  0  0
 41117  1  0  0  0
 41118  1  0  0  0
 41119  1  0  0  0
 41 48  1  0  0  0
 42 43  1  0  0  0
 42 66  1  0  0  0
 42120  1  0  0  0
 42121  1  0  0  0
 43 44  1  0  0  0
 44122  1  0  0  0
 45 46  2  0  0  0
 45123  1  0  0  0
 46124  1  0  0  0
 47125  1  0  0  0
 47126  1  0  0  0
 48 56  1  0  0  0
 48 65  1  0  0  0
 48127  1  0  0  0
 49 50  1  0  0  0
 49 53  1  0  0  0
 49 64  1  0  0  0
 49128  1  0  0  0
 50 51  1  0  0  0
 50129  1  0  0  0
 50130  1  0  0  0
 51 52  1  0  0  0
 51131  1  0  0  0
 51132  1  0  0  0
 52133  1  0  0  0
 52134  1  0  0  0
 53 54  1  0  0  0
 54 55  2  0  0  0
 54135  1  0  0  0
 55 57  1  0  0  0
 55136  1  0  0  0
 56 69  2  0  0  0
 57 58  2  0  0  0
 57137  1  0  0  0
 58138  1  0  0  0
 59 60  1  0  0  0
 59 61  1  0  0  0
 59 62  1  0  0  0
 60139  1  0  0  0
 60140  1  0  0  0
 60141  1  0  0  0
 61142  1  0  0  0
 61143  1  0  0  0
 61144  1  0  0  0
 62145  1  0  0  0
 62146  1  0  0  0
 62147  1  0  0  0
 63 65  1  0  0  0
 63148  1  0  0  0
 63149  1  0  0  0
 63150  1  0  0  0
 64151  1  0  0  0
 65152  1  0  0  0
 68 88  1  0  0  0
 71 72  2  0  0  0
 71 74  1  0  0  0
 71153  1  0  0  0
 72 76  1  0  0  0
 72154  1  0  0  0
 73 74  2  0  0  0
 73 75  1  0  0  0
 73155  1  0  0  0
 74 77  1  0  0  0
 75 76  2  0  0  0
 75 83  1  0  0  0
 76 93  1  0  0  0
 77 90  1  0  0  0
 77 91  2  0  0  0
 78 86  1  0  0  0
 78 89  1  0  0  0
 78 92  2  0  0  0
 79 80  1  0  0  0
 79 81  1  0  0  0
 79156  1  0  0  0
 79157  1  0  0  0
 80 82  1  0  0  0
 80158  1  0  0  0
 80159  1  0  0  0
 81 90  1  0  0  0
 81160  1  0  0  0
 81161  1  0  0  0
 82 87  1  0  0  0
 82 90  1  0  0  0
 82162  1  0  0  0
 83163  1  0  0  0
 83164  1  0  0  0
 83165  1  0  0  0
 84166  1  0  0  0
 84167  1  0  0  0
 84168  1  0  0  0
 84 89  1  0  0  0
 85 89  1  0  0  0
 85169  1  0  0  0
 85170  1  0  0  0
 85171  1  0  0  0
 86 93  1  0  0  0
 86172  1  0  0  0
 86173  1  0  0  0
 87 88  1  0  0  0
 87174  1  0  0  0
 87175  1  0  0  0
 88176  1  0  0  0
 88177  1  0  0  0
 91178  1  0  0  0
 91179  1  0  0  0
M  CHG  1  91   1
M  ISO  4   1 100  68 101  88 101  89 100
M  END
> <chiral flag>
0

> <version>
0

> <s_m_source_file>
/data/baiqing/PycharmProjects/Reinvent-master-3.2/result/LINK_invent/BTK/process_docking_weight1_custom_product_contain_oxygen_bond_distance_aromatic_linkinvent_7_9_3/rearranged_h_0135.sdf

> <i_m_source_file_index>
65

> <r_mmod_Potential_Energy-OPLS-2005>
74.8120574951172

> <r_mmod_Stretch_Energy-OPLS-2005>
38.7098655700684

> <r_mmod_Bend_Energy-OPLS-2005>
140.250610351562

> <r_mmod_Torsional_Energy-OPLS-2005>
356.420013427734

> <r_mmod_Improper_Torsional_Energy-OPLS-2005>
12.7771825790405

> <r_mmod_Van_der_Waal_Energy-OPLS-2005>
174.933807373047

> <r_mmod_Electrostatic_Energy-OPLS-2005>
-303.970825195312

> <r_mmod_Solvation_Energy-OPLS-2005>
-370.910430908203

> <b_mmod_Minimization_Converged-OPLS-2005>
0

> <r_mmod_RMS_Derivative-OPLS-2005>
4.55357551574707

$$$$
65
                    3D
 Structure written by MMmdl.
158166  0  0  1  0            999 V2000
  -30.7402  -14.4757   20.6254 C   0  0  0  0  0  0
  -30.4260  -12.3366   19.4159 C   0  0  0  0  0  0
  -29.4965  -12.5380   18.2036 C   0  0  0  0  0  0
  -28.0253  -12.3636   18.6233 C   0  0  0  0  0  0
  -27.6658  -13.2105   19.8732 C   0  0  2  0  0  0
  -28.7095  -13.0078   20.9965 C   0  0  0  0  0  0
  -25.2611  -13.8180   20.5666 C   0  0  0  0  0  0
  -24.1857  -13.0440   20.9137 C   0  0  0  0  0  0
  -24.6422  -11.6908   20.8710 C   0  0  0  0  0  0
  -23.9086  -10.4297   21.0394 C   0  0  0  0  0  0
  -24.3624   -9.4210   21.9172 C   0  0  0  0  0  0
  -23.6292   -8.2259   22.0746 C   0  0  0  0  0  0
  -22.4274   -8.0292   21.3551 C   0  0  0  0  0  0
  -21.9912   -9.0284   20.4653 C   0  0  0  0  0  0
  -22.7258  -10.2148   20.3037 C   0  0  0  0  0  0
  -21.6870   -6.0728   22.5283 C   0  0  0  0  0  0
  -21.4036   -6.5620   23.8220 C   0  0  0  0  0  0
  -21.3656   -5.6774   24.9186 C   0  0  0  0  0  0
  -21.6042   -4.3043   24.7246 C   0  0  0  0  0  0
  -21.8815   -3.8135   23.4366 C   0  0  0  0  0  0
  -21.9197   -4.6942   22.3420 C   0  0  0  0  0  0
  -22.7880  -13.5230   21.1804 C   0  0  0  0  0  0
  -22.1663   -4.2116   21.0997 F   0  0  0  0  0  0
  -21.5620   -3.4524   25.7767 F   0  0  0  0  0  0
  -30.0438  -13.3168   20.4493 N   0  0  0  0  0  0
  -26.3069  -12.9356   20.3352 N   0  0  0  0  0  0
  -25.9350  -11.6499   20.5733 N   0  0  0  0  0  0
  -22.0520  -12.8227   22.0371 N   0  0  0  0  0  0
  -25.4342  -15.1907   20.4115 N   0  0  0  0  0  0
  -31.8360  -14.6698   20.0901 O   0  0  0  0  0  0
  -21.6642   -6.8884   21.4249 O   0  0  0  0  0  0
  -22.3548  -14.5527   20.6642 O   0  0  0  0  0  0
  -24.6198  -31.8677   23.2103 C   0  0  0  0  0  0
  -25.9101  -32.4807   23.8386 C   0  0  1  0  0  0
  -27.2052  -27.4059   20.0950 C   0  0  0  0  0  0
  -25.5967  -33.8608   24.2347 N   0  0  0  0  0  0
  -23.4042  -30.4986   21.5524 C   0  0  2  0  0  0
  -24.8421  -28.9733   20.1072 C   0  0  0  0  0  0
  -22.7444  -29.4657   22.4975 C   0  0  0  0  0  0
  -18.0288  -28.1361   22.8474 C   0  0  0  0  0  0
  -24.1501  -36.7300   23.2624 C   0  0  0  0  0  0
  -25.9366  -30.8281   21.3641 C   0  0  0  0  0  0
  -26.0078  -29.4623   20.7096 C   0  0  0  0  0  0
  -27.1938  -28.6861   20.7015 C   0  0  0  0  0  0
  -26.0229  -26.9593   19.4537 C   0  0  0  0  0  0
  -24.8469  -27.7234   19.4727 C   0  0  0  0  0  0
  -23.6104  -29.8457   20.1629 C   0  0  0  0  0  0
  -25.4098  -36.3098   24.0350 C   0  0  1  0  0  0
  -20.5880  -28.3648   23.1319 C   0  0  2  0  0  0
  -20.6753  -26.9377   22.5441 C   0  0  0  0  0  0
  -19.5766  -26.6392   21.5188 C   0  0  0  0  0  0
  -18.1924  -26.7924   22.1554 C   0  0  0  0  0  0
  -19.1532  -28.8811   23.2894 C   0  0  0  0  0  0
  -18.9456  -30.1416   23.8919 C   0  0  0  0  0  0
  -17.6451  -30.6556   24.0565 C   0  0  0  0  0  0
  -25.9042  -34.9467   23.5127 C   0  0  0  0  0  0
  -16.5347  -29.9055   23.6312 C   0  0  0  0  0  0
  -16.7275  -28.6473   23.0326 C   0  0  0  0  0  0
  -26.4511  -31.6560   25.0707 C   0  0  0  0  0  0
  -25.3783  -31.3726   26.1480 C   0  0  0  0  0  0
  -27.0266  -30.2971   24.6062 C   0  0  0  0  0  0
  -27.6141  -32.4228   25.7430 C   0  0  0  0  0  0
  -27.5611  -37.1765   24.8436 C   0  0  0  0  0  0
  -21.4171  -29.3021   22.3729 N   0  0  0  0  0  0
  -26.4271  -37.3797   23.9462 N   0  0  0  0  0  0
  -24.6727  -31.0794   22.1005 N   0  0  0  0  0  0
  -23.4218  -28.8173   23.2996 O   0  0  0  0  0  0
  -28.3326  -26.6025   20.1606 O   0  0  0  0  0  0
  -26.5574  -34.8924   22.4680 O   0  0  0  0  0  0
  -23.5395  -32.1445   23.7506 O   0  0  0  0  0  0
  -32.2889  -18.3744   22.3219 C   0  0  0  0  0  0
  -31.3859  -19.4443   22.1732 C   0  0  0  0  0  0
  -31.8878  -17.0542   22.0322 C   0  0  0  0  0  0
  -29.6624  -17.8689   21.4703 C   0  0  0  0  0  0
  -30.0620  -19.2063   21.7370 C   0  0  0  0  0  0
  -30.5706  -16.7829   21.5929 C   0  0  0  0  0  0
  -29.0532  -24.2940   20.8399 C   0  0  0  0  0  0
  -27.7335  -23.0575   22.6238 C   0  0  0  0  0  0
  -29.0462  -20.3542   21.5909 C   0  0  0  0  0  0
  -28.0678  -25.1818   20.0511 C   0  0  0  0  0  0
  -29.6154  -21.7980   21.4249 C   0  0  0  0  0  0
  -28.5255  -22.9095   21.3067 C   0  0  2  0  0  0
  -30.1180  -15.4450   21.3341 N   0  0  0  0  0  0
  -30.1978  -24.6714   21.1055 O   0  0  0  0  0  0
  -31.4699  -12.4318   19.1128 H   0  0  0  0  0  0
  -30.3221  -11.3243   19.8074 H   0  0  0  0  0  0
  -29.7502  -11.8389   17.4054 H   0  0  0  0  0  0
  -29.6465  -13.5374   17.7926 H   0  0  0  0  0  0
  -27.8646  -11.3053   18.8337 H   0  0  0  0  0  0
  -27.3622  -12.6114   17.7934 H   0  0  0  0  0  0
  -27.7068  -14.2548   19.5615 H   0  0  0  0  0  0
  -28.6949  -11.9755   21.3469 H   0  0  0  0  0  0
  -28.4576  -13.6120   21.8677 H   0  0  0  0  0  0
  -25.2794   -9.5673   22.4708 H   0  0  0  0  0  0
  -24.0009   -7.4637   22.7447 H   0  0  0  0  0  0
  -21.0852   -8.8838   19.8963 H   0  0  0  0  0  0
  -22.3764  -10.9676   19.6116 H   0  0  0  0  0  0
  -21.2044   -7.6128   23.9716 H   0  0  0  0  0  0
  -21.1471   -6.0509   25.9083 H   0  0  0  0  0  0
  -22.0592   -2.7591   23.2898 H   0  0  0  0  0  0
  -22.4100  -11.9885   22.4782 H   0  0  0  0  0  0
  -21.1142  -13.1298   22.2546 H   0  0  0  0  0  0
  -24.6709  -15.8513   20.5120 H   0  0  0  0  0  0
  -26.3019  -15.6351   20.1392 H   0  0  0  0  0  0
  -26.7164  -32.5524   23.1140 H   0  0  0  0  0  0
  -25.0221  -33.9757   25.0558 H   0  0  0  0  0  0
  -22.6912  -31.3154   21.4224 H   0  0  0  0  0  0
  -23.3792  -35.9597   23.3192 H   0  0  0  0  0  0
  -24.3650  -36.8996   22.2064 H   0  0  0  0  0  0
  -23.7194  -37.6458   23.6676 H   0  0  0  0  0  0
  -26.0494  -31.5944   20.5951 H   0  0  0  0  0  0
  -26.8268  -30.8817   21.9796 H   0  0  0  0  0  0
  -28.0886  -29.0517   21.1846 H   0  0  0  0  0  0
  -25.9742  -26.0133   18.9341 H   0  0  0  0  0  0
  -23.9539  -27.3514   18.9901 H   0  0  0  0  0  0
  -23.7250  -30.6262   19.4095 H   0  0  0  0  0  0
  -22.7301  -29.2748   19.8638 H   0  0  0  0  0  0
  -25.1245  -36.1932   25.0831 H   0  0  0  0  0  0
  -20.9953  -28.3203   24.1444 H   0  0  0  0  0  0
  -20.5564  -26.2264   23.3628 H   0  0  0  0  0  0
  -21.6640  -26.7360   22.1313 H   0  0  0  0  0  0
  -19.6926  -25.6307   21.1209 H   0  0  0  0  0  0
  -19.6735  -27.3203   20.6714 H   0  0  0  0  0  0
  -17.4233  -26.6749   21.3902 H   0  0  0  0  0  0
  -18.0249  -26.0025   22.8892 H   0  0  0  0  0  0
  -19.7935  -30.7217   24.2304 H   0  0  0  0  0  0
  -17.5008  -31.6219   24.5197 H   0  0  0  0  0  0
  -15.5333  -30.2941   23.7624 H   0  0  0  0  0  0
  -15.8684  -28.0780   22.7012 H   0  0  0  0  0  0
  -24.6018  -30.6947   25.7909 H   0  0  0  0  0  0
  -24.8892  -32.2897   26.4776 H   0  0  0  0  0  0
  -25.8180  -30.9085   27.0321 H   0  0  0  0  0  0
  -26.2742  -29.6758   24.1185 H   0  0  0  0  0  0
  -27.4084  -29.7182   25.4483 H   0  0  0  0  0  0
  -27.8584  -30.4239   23.9129 H   0  0  0  0  0  0
  -27.2828  -33.3551   26.2015 H   0  0  0  0  0  0
  -28.3930  -32.6727   25.0209 H   0  0  0  0  0  0
  -28.0820  -31.8326   26.5324 H   0  0  0  0  0  0
  -28.2551  -38.0135   24.7589 H   0  0  0  0  0  0
  -28.1167  -36.2685   24.6047 H   0  0  0  0  0  0
  -27.2413  -37.1200   25.8853 H   0  0  0  0  0  0
  -20.9313  -29.8780   21.6994 H   0  0  0  0  0  0
  -26.0154  -38.2860   24.1523 H   0  0  0  0  0  0
  -33.2958  -18.5757   22.6669 H   0  0  0  0  0  0
  -31.7272  -20.4401   22.4139 H   0  0  0  0  0  0
  -32.6019  -16.2535   22.1661 H   0  0  0  0  0  0
  -28.6463  -17.6729   21.1558 H   0  0  0  0  0  0
  -27.2671  -24.0397   22.7283 H   0  0  0  0  0  0
  -28.3761  -22.9120   23.4937 H   0  0  0  0  0  0
  -26.9328  -22.3196   22.6830 H   0  0  0  0  0  0
  -28.3920  -20.3149   22.4622 H   0  0  0  0  0  0
  -28.4108  -20.1268   20.7337 H   0  0  0  0  0  0
  -27.0793  -24.9394   20.4445 H   0  0  0  0  0  0
  -28.0749  -24.8917   18.9998 H   0  0  0  0  0  0
  -30.2599  -21.8250   20.5454 H   0  0  0  0  0  0
  -30.2506  -22.0451   22.2767 H   0  0  0  0  0  0
  -27.8219  -22.6045   20.5308 H   0  0  0  0  0  0
  -29.1751  -15.2250   21.6169 H   0  0  0  0  0  0
  1 25  1  0  0  0
  1 30  2  0  0  0
  1 83  1  0  0  0
  2  3  1  0  0  0
  2 25  1  0  0  0
  2 85  1  0  0  0
  2 86  1  0  0  0
  3  4  1  0  0  0
  3 87  1  0  0  0
  3 88  1  0  0  0
  4  5  1  0  0  0
  4 89  1  0  0  0
  4 90  1  0  0  0
  5  6  1  0  0  0
  5 26  1  0  0  0
  5 91  1  0  0  0
  6 25  1  0  0  0
  6 92  1  0  0  0
  6 93  1  0  0  0
  7  8  2  0  0  0
  7 26  1  0  0  0
  7 29  1  0  0  0
  8  9  1  0  0  0
  8 22  1  0  0  0
  9 10  1  0  0  0
  9 27  2  0  0  0
 10 11  2  0  0  0
 10 15  1  0  0  0
 11 12  1  0  0  0
 11 94  1  0  0  0
 12 13  2  0  0  0
 12 95  1  0  0  0
 13 14  1  0  0  0
 13 31  1  0  0  0
 14 15  2  0  0  0
 14 96  1  0  0  0
 15 97  1  0  0  0
 16 17  2  0  0  0
 16 21  1  0  0  0
 16 31  1  0  0  0
 17 18  1  0  0  0
 17 98  1  0  0  0
 18 19  2  0  0  0
 18 99  1  0  0  0
 19 20  1  0  0  0
 19 24  1  0  0  0
 20 21  2  0  0  0
 20100  1  0  0  0
 21 23  1  0  0  0
 22 28  1  0  0  0
 22 32  2  0  0  0
 26 27  1  0  0  0
 28101  1  0  0  0
 28102  1  0  0  0
 29103  1  0  0  0
 29104  1  0  0  0
 33 34  1  0  0  0
 33 66  1  0  0  0
 33 70  2  0  0  0
 34 36  1  0  0  0
 34 59  1  0  0  0
 34105  1  0  0  0
 35 44  2  0  0  0
 35 45  1  0  0  0
 35 68  1  0  0  0
 36 56  1  0  0  0
 36106  1  0  0  0
 37 39  1  0  0  0
 37 47  1  0  0  0
 37 66  1  0  0  0
 37107  1  0  0  0
 38 43  2  0  0  0
 38 46  1  0  0  0
 38 47  1  0  0  0
 39 64  1  0  0  0
 39 67  2  0  0  0
 40 52  1  0  0  0
 40 53  2  0  0  0
 40 58  1  0  0  0
 41108  1  0  0  0
 41109  1  0  0  0
 41110  1  0  0  0
 41 48  1  0  0  0
 42 43  1  0  0  0
 42 66  1  0  0  0
 42111  1  0  0  0
 42112  1  0  0  0
 43 44  1  0  0  0
 44113  1  0  0  0
 45 46  2  0  0  0
 45114  1  0  0  0
 46115  1  0  0  0
 47116  1  0  0  0
 47117  1  0  0  0
 48 56  1  0  0  0
 48 65  1  0  0  0
 48118  1  0  0  0
 49 50  1  0  0  0
 49 53  1  0  0  0
 49 64  1  0  0  0
 49119  1  0  0  0
 50 51  1  0  0  0
 50120  1  0  0  0
 50121  1  0  0  0
 51 52  1  0  0  0
 51122  1  0  0  0
 51123  1  0  0  0
 52124  1  0  0  0
 52125  1  0  0  0
 53 54  1  0  0  0
 54 55  2  0  0  0
 54126  1  0  0  0
 55 57  1  0  0  0
 55127  1  0  0  0
 56 69  2  0  0  0
 57 58  2  0  0  0
 57128  1  0  0  0
 58129  1  0  0  0
 59 60  1  0  0  0
 59 61  1  0  0  0
 59 62  1  0  0  0
 60130  1  0  0  0
 60131  1  0  0  0
 60132  1  0  0  0
 61133  1  0  0  0
 61134  1  0  0  0
 61135  1  0  0  0
 62136  1  0  0  0
 62137  1  0  0  0
 62138  1  0  0  0
 63 65  1  0  0  0
 63139  1  0  0  0
 63140  1  0  0  0
 63141  1  0  0  0
 64142  1  0  0  0
 65143  1  0  0  0
 68 80  1  0  0  0
 71 72  2  0  0  0
 71 73  1  0  0  0
 71144  1  0  0  0
 72 75  1  0  0  0
 72145  1  0  0  0
 73 76  2  0  0  0
 73146  1  0  0  0
 74 75  2  0  0  0
 74 76  1  0  0  0
 74147  1  0  0  0
 75 79  1  0  0  0
 76 83  1  0  0  0
 77 80  1  0  0  0
 77 82  1  0  0  0
 77 84  2  0  0  0
 78148  1  0  0  0
 78149  1  0  0  0
 78150  1  0  0  0
 78 82  1  0  0  0
 79 81  1  0  0  0
 79151  1  0  0  0
 79152  1  0  0  0
 80153  1  0  0  0
 80154  1  0  0  0
 81 82  1  0  0  0
 81155  1  0  0  0
 81156  1  0  0  0
 82157  1  0  0  0
 83158  1  0  0  0
M  ISO  4   1 100  68 101  80 101  83 100
M  END
> <chiral flag>
0

> <version>
0

> <s_m_source_file>
/data/baiqing/PycharmProjects/Reinvent-master-3.2/result/LINK_invent/BTK/process_docking_weight1_custom_product_contain_oxygen_bond_distance_aromatic_linkinvent_7_9_3/rearranged_h_0135.sdf

> <i_m_source_file_index>
66

> <r_mmod_Potential_Energy-OPLS-2005>
-1.09338462352753

> <r_mmod_Stretch_Energy-OPLS-2005>
44.1598358154297

> <r_mmod_Bend_Energy-OPLS-2005>
98.1381072998047

> <r_mmod_Torsional_Energy-OPLS-2005>
226.782272338867

> <r_mmod_Improper_Torsional_Energy-OPLS-2005>
2.62764573097229

> <r_mmod_Van_der_Waal_Energy-OPLS-2005>
158.183395385742

> <r_mmod_Electrostatic_Energy-OPLS-2005>
-324.243469238281

> <r_mmod_Solvation_Energy-OPLS-2005>
-225.511428833008

> <b_mmod_Minimization_Converged-OPLS-2005>
0

> <r_mmod_RMS_Derivative-OPLS-2005>
3.37988662719727

$$$$
66
                    3D
 Structure written by MMmdl.
163171  0  0  1  0            999 V2000
  -30.6378  -14.5949   20.5147 C   0  0  0  0  0  0
  -30.4379  -12.3650   19.4467 C   0  0  0  0  0  0
  -29.5067  -12.5025   18.2215 C   0  0  0  0  0  0
  -28.0274  -12.3506   18.6306 C   0  0  0  0  0  0
  -27.6571  -13.2116   19.8674 C   0  0  2  0  0  0
  -28.7008  -13.0400   20.9945 C   0  0  0  0  0  0
  -25.2571  -13.8162   20.5663 C   0  0  0  0  0  0
  -24.1833  -13.0437   20.9182 C   0  0  0  0  0  0
  -24.6396  -11.6905   20.8742 C   0  0  0  0  0  0
  -23.9064  -10.4290   21.0412 C   0  0  0  0  0  0
  -24.3614   -9.4203   21.9186 C   0  0  0  0  0  0
  -23.6291   -8.2239   22.0755 C   0  0  0  0  0  0
  -22.4273   -8.0279   21.3547 C   0  0  0  0  0  0
  -21.9909   -9.0252   20.4647 C   0  0  0  0  0  0
  -22.7238  -10.2131   20.3058 C   0  0  0  0  0  0
  -21.6851   -6.0736   22.5279 C   0  0  0  0  0  0
  -21.4012   -6.5640   23.8212 C   0  0  0  0  0  0
  -21.3656   -5.6792   24.9173 C   0  0  0  0  0  0
  -21.6045   -4.3056   24.7222 C   0  0  0  0  0  0
  -21.8820   -3.8148   23.4344 C   0  0  0  0  0  0
  -21.9192   -4.6965   22.3402 C   0  0  0  0  0  0
  -22.7856  -13.5236   21.1843 C   0  0  0  0  0  0
  -22.1662   -4.2153   21.0982 F   0  0  0  0  0  0
  -21.5627   -3.4540   25.7734 F   0  0  0  0  0  0
  -30.0223  -13.3752   20.4376 N   0  0  0  0  0  0
  -26.3005  -12.9336   20.3327 N   0  0  0  0  0  0
  -25.9324  -11.6496   20.5765 N   0  0  0  0  0  0
  -22.0496  -12.8231   22.0401 N   0  0  0  0  0  0
  -25.4278  -15.1879   20.4030 N   0  0  0  0  0  0
  -31.7924  -14.7627   20.1108 O   0  0  0  0  0  0
  -21.6638   -6.8878   21.4242 O   0  0  0  0  0  0
  -22.3540  -14.5540   20.6689 O   0  0  0  0  0  0
  -24.6223  -31.8622   23.2029 C   0  0  0  0  0  0
  -25.9075  -32.4795   23.8348 C   0  0  1  0  0  0
  -27.2312  -27.3494   20.1093 C   0  0  0  0  0  0
  -25.5888  -33.8591   24.2268 N   0  0  0  0  0  0
  -23.4144  -30.4854   21.5456 C   0  0  2  0  0  0
  -24.8617  -28.9436   20.1126 C   0  0  0  0  0  0
  -22.7454  -29.4637   22.4950 C   0  0  0  0  0  0
  -18.0280  -28.1395   22.8501 C   0  0  0  0  0  0
  -24.1476  -36.7290   23.2644 C   0  0  0  0  0  0
  -25.9529  -30.8039   21.3682 C   0  0  0  0  0  0
  -26.0294  -29.4328   20.7117 C   0  0  0  0  0  0
  -27.2163  -28.6473   20.6997 C   0  0  0  0  0  0
  -26.0375  -26.9037   19.4940 C   0  0  0  0  0  0
  -24.8664  -27.6828   19.4974 C   0  0  0  0  0  0
  -23.6270  -29.8178   20.1617 C   0  0  0  0  0  0
  -25.4102  -36.3089   24.0336 C   0  0  1  0  0  0
  -20.5880  -28.3679   23.1305 C   0  0  2  0  0  0
  -20.6762  -26.9401   22.5425 C   0  0  0  0  0  0
  -19.5733  -26.6384   21.5230 C   0  0  0  0  0  0
  -18.1913  -26.7936   22.1643 C   0  0  0  0  0  0
  -19.1536  -28.8852   23.2899 C   0  0  0  0  0  0
  -18.9466  -30.1461   23.8909 C   0  0  0  0  0  0
  -17.6469  -30.6600   24.0569 C   0  0  0  0  0  0
  -25.9041  -34.9463   23.5107 C   0  0  0  0  0  0
  -16.5357  -29.9103   23.6341 C   0  0  0  0  0  0
  -16.7269  -28.6525   23.0360 C   0  0  0  0  0  0
  -26.4459  -31.6601   25.0715 C   0  0  0  0  0  0
  -25.3689  -31.3753   26.1444 C   0  0  0  0  0  0
  -27.0289  -30.3028   24.6146 C   0  0  0  0  0  0
  -27.6011  -32.4339   25.7491 C   0  0  0  0  0  0
  -27.5572  -37.1794   24.8468 C   0  0  0  0  0  0
  -21.4173  -29.3033   22.3694 N   0  0  0  0  0  0
  -26.4279  -37.3784   23.9423 N   0  0  0  0  0  0
  -24.6823  -31.0659   22.0964 N   0  0  0  0  0  0
  -23.4195  -28.8183   23.3019 O   0  0  0  0  0  0
  -28.3683  -26.5343   20.1517 O   0  0  0  0  0  0
  -26.5630  -34.8933   22.4684 O   0  0  0  0  0  0
  -23.5391  -32.1400   23.7373 O   0  0  0  0  0  0
  -30.9834  -19.1872   20.0439 C   0  0  0  0  0  0
  -30.9673  -17.7662   20.1075 C   0  0  0  0  0  0
  -28.9280  -17.8789   21.3852 C   0  0  0  0  0  0
  -29.9917  -19.9928   20.6665 C   0  0  0  0  0  0
  -29.9404  -17.0739   20.7972 C   0  0  0  0  0  0
  -28.9448  -19.3133   21.3434 C   0  0  0  0  0  0
  -30.5995  -24.5130   19.5326 C   0  0  0  0  0  0
  -29.7421  -24.4479   21.8943 C   0  0  0  0  0  0
  -26.9353  -19.4639   22.6633 C   0  0  0  0  0  0
  -30.1909  -21.5464   20.7463 C   0  0  0  0  0  0
  -29.0812  -22.5768   20.2684 C   0  0  0  0  0  0
  -28.1877  -25.0794   20.0089 C   0  0  0  0  0  0
  -29.3975  -24.1410   20.4230 C   0  0  0  0  0  0
  -29.8415  -15.6241   20.9267 N   0  0  0  0  0  0
  -28.0025  -20.0996   21.9718 O   0  0  0  0  0  0
  -31.4798  -12.4858   19.1447 H   0  0  0  0  0  0
  -30.3670  -11.3643   19.8763 H   0  0  0  0  0  0
  -29.7643  -11.7562   17.4685 H   0  0  0  0  0  0
  -29.6578  -13.4757   17.7517 H   0  0  0  0  0  0
  -27.8525  -11.2964   18.8493 H   0  0  0  0  0  0
  -27.3766  -12.5975   17.7909 H   0  0  0  0  0  0
  -27.6847  -14.2513   19.5406 H   0  0  0  0  0  0
  -28.7002  -12.0113   21.3581 H   0  0  0  0  0  0
  -28.4489  -13.6558   21.8591 H   0  0  0  0  0  0
  -25.2761   -9.5677   22.4756 H   0  0  0  0  0  0
  -24.0000   -7.4631   22.7471 H   0  0  0  0  0  0
  -21.0842   -8.8771   19.8949 H   0  0  0  0  0  0
  -22.3702  -10.9669   19.6164 H   0  0  0  0  0  0
  -21.2005   -7.6146   23.9717 H   0  0  0  0  0  0
  -21.1476   -6.0520   25.9075 H   0  0  0  0  0  0
  -22.0604   -2.7613   23.2843 H   0  0  0  0  0  0
  -22.4110  -11.9895   22.4795 H   0  0  0  0  0  0
  -21.1111  -13.1254   22.2600 H   0  0  0  0  0  0
  -24.6505  -15.8347   20.4802 H   0  0  0  0  0  0
  -26.2640  -15.6186   20.0296 H   0  0  0  0  0  0
  -26.7148  -32.5471   23.1102 H   0  0  0  0  0  0
  -24.9969  -33.9734   25.0366 H   0  0  0  0  0  0
  -22.7071  -31.3048   21.4012 H   0  0  0  0  0  0
  -23.3745  -35.9617   23.3314 H   0  0  0  0  0  0
  -24.3563  -36.8904   22.2058 H   0  0  0  0  0  0
  -23.7225  -37.6492   23.6660 H   0  0  0  0  0  0
  -26.0755  -31.5684   20.5995 H   0  0  0  0  0  0
  -26.8374  -30.8549   21.9917 H   0  0  0  0  0  0
  -28.1136  -29.0202   21.1734 H   0  0  0  0  0  0
  -25.9821  -25.9402   19.0103 H   0  0  0  0  0  0
  -23.9712  -27.2997   19.0280 H   0  0  0  0  0  0
  -23.7396  -30.5921   19.4017 H   0  0  0  0  0  0
  -22.7504  -29.2406   19.8626 H   0  0  0  0  0  0
  -25.1281  -36.1935   25.0830 H   0  0  0  0  0  0
  -20.9971  -28.3241   24.1428 H   0  0  0  0  0  0
  -20.5657  -26.2283   23.3617 H   0  0  0  0  0  0
  -21.6625  -26.7423   22.1215 H   0  0  0  0  0  0
  -19.6883  -25.6299   21.1250 H   0  0  0  0  0  0
  -19.6674  -27.3204   20.6769 H   0  0  0  0  0  0
  -17.4178  -26.6700   21.4049 H   0  0  0  0  0  0
  -18.0304  -26.0079   22.9039 H   0  0  0  0  0  0
  -19.7948  -30.7273   24.2269 H   0  0  0  0  0  0
  -17.5036  -31.6281   24.5162 H   0  0  0  0  0  0
  -15.5365  -30.3015   23.7666 H   0  0  0  0  0  0
  -15.8666  -28.0851   22.7072 H   0  0  0  0  0  0
  -24.5853  -30.7117   25.7771 H   0  0  0  0  0  0
  -24.8891  -32.2931   26.4853 H   0  0  0  0  0  0
  -25.8003  -30.8935   27.0224 H   0  0  0  0  0  0
  -26.2848  -29.6803   24.1165 H   0  0  0  0  0  0
  -27.3988  -29.7267   25.4635 H   0  0  0  0  0  0
  -27.8713  -30.4322   23.9350 H   0  0  0  0  0  0
  -27.2601  -33.3635   26.2057 H   0  0  0  0  0  0
  -28.3821  -32.6911   25.0325 H   0  0  0  0  0  0
  -28.0664  -31.8474   26.5419 H   0  0  0  0  0  0
  -28.2587  -38.0094   24.7518 H   0  0  0  0  0  0
  -28.1069  -36.2627   24.6275 H   0  0  0  0  0  0
  -27.2293  -37.1418   25.8872 H   0  0  0  0  0  0
  -20.9338  -29.8751   21.6912 H   0  0  0  0  0  0
  -26.0163  -38.2855   24.1447 H   0  0  0  0  0  0
  -31.8109  -19.6635   19.5366 H   0  0  0  0  0  0
  -31.7682  -17.2227   19.6278 H   0  0  0  0  0  0
  -28.1346  -17.3630   21.9048 H   0  0  0  0  0  0
  -31.5086  -23.9883   19.8250 H   0  0  0  0  0  0
  -30.8166  -25.5801   19.5914 H   0  0  0  0  0  0
  -30.4053  -24.2801   18.4854 H   0  0  0  0  0  0
  -30.6609  -23.9545   22.2110 H   0  0  0  0  0  0
  -28.9452  -24.1243   22.5640 H   0  0  0  0  0  0
  -29.8877  -25.5165   22.0547 H   0  0  0  0  0  0
  -26.3004  -20.2238   23.1189 H   0  0  0  0  0  0
  -27.3000  -18.8198   23.4646 H   0  0  0  0  0  0
  -26.3133  -18.8790   21.9845 H   0  0  0  0  0  0
  -31.1129  -21.7754   20.2129 H   0  0  0  0  0  0
  -30.4126  -21.7450   21.7943 H   0  0  0  0  0  0
  -28.1612  -22.3658   20.8132 H   0  0  0  0  0  0
  -28.8476  -22.3677   19.2236 H   0  0  0  0  0  0
  -27.3236  -24.7773   20.6036 H   0  0  0  0  0  0
  -27.9346  -24.8689   18.9690 H   0  0  0  0  0  0
  -28.9653  -15.2959   21.3031 H   0  0  0  0  0  0
  1 25  1  0  0  0
  1 30  2  0  0  0
  1 84  1  0  0  0
  2  3  1  0  0  0
  2 25  1  0  0  0
  2 86  1  0  0  0
  2 87  1  0  0  0
  3  4  1  0  0  0
  3 88  1  0  0  0
  3 89  1  0  0  0
  4  5  1  0  0  0
  4 90  1  0  0  0
  4 91  1  0  0  0
  5  6  1  0  0  0
  5 26  1  0  0  0
  5 92  1  0  0  0
  6 25  1  0  0  0
  6 93  1  0  0  0
  6 94  1  0  0  0
  7  8  2  0  0  0
  7 26  1  0  0  0
  7 29  1  0  0  0
  8  9  1  0  0  0
  8 22  1  0  0  0
  9 10  1  0  0  0
  9 27  2  0  0  0
 10 11  2  0  0  0
 10 15  1  0  0  0
 11 12  1  0  0  0
 11 95  1  0  0  0
 12 13  2  0  0  0
 12 96  1  0  0  0
 13 14  1  0  0  0
 13 31  1  0  0  0
 14 15  2  0  0  0
 14 97  1  0  0  0
 15 98  1  0  0  0
 16 17  2  0  0  0
 16 21  1  0  0  0
 16 31  1  0  0  0
 17 18  1  0  0  0
 17 99  1  0  0  0
 18 19  2  0  0  0
 18100  1  0  0  0
 19 20  1  0  0  0
 19 24  1  0  0  0
 20 21  2  0  0  0
 20101  1  0  0  0
 21 23  1  0  0  0
 22 28  1  0  0  0
 22 32  2  0  0  0
 26 27  1  0  0  0
 28102  1  0  0  0
 28103  1  0  0  0
 29104  1  0  0  0
 29105  1  0  0  0
 33 34  1  0  0  0
 33 66  1  0  0  0
 33 70  2  0  0  0
 34 36  1  0  0  0
 34 59  1  0  0  0
 34106  1  0  0  0
 35 44  2  0  0  0
 35 45  1  0  0  0
 35 68  1  0  0  0
 36 56  1  0  0  0
 36107  1  0  0  0
 37 39  1  0  0  0
 37 47  1  0  0  0
 37 66  1  0  0  0
 37108  1  0  0  0
 38 43  2  0  0  0
 38 46  1  0  0  0
 38 47  1  0  0  0
 39 64  1  0  0  0
 39 67  2  0  0  0
 40 52  1  0  0  0
 40 53  2  0  0  0
 40 58  1  0  0  0
 41109  1  0  0  0
 41110  1  0  0  0
 41111  1  0  0  0
 41 48  1  0  0  0
 42 43  1  0  0  0
 42 66  1  0  0  0
 42112  1  0  0  0
 42113  1  0  0  0
 43 44  1  0  0  0
 44114  1  0  0  0
 45 46  2  0  0  0
 45115  1  0  0  0
 46116  1  0  0  0
 47117  1  0  0  0
 47118  1  0  0  0
 48 56  1  0  0  0
 48 65  1  0  0  0
 48119  1  0  0  0
 49 50  1  0  0  0
 49 53  1  0  0  0
 49 64  1  0  0  0
 49120  1  0  0  0
 50 51  1  0  0  0
 50121  1  0  0  0
 50122  1  0  0  0
 51 52  1  0  0  0
 51123  1  0  0  0
 51124  1  0  0  0
 52125  1  0  0  0
 52126  1  0  0  0
 53 54  1  0  0  0
 54 55  2  0  0  0
 54127  1  0  0  0
 55 57  1  0  0  0
 55128  1  0  0  0
 56 69  2  0  0  0
 57 58  2  0  0  0
 57129  1  0  0  0
 58130  1  0  0  0
 59 60  1  0  0  0
 59 61  1  0  0  0
 59 62  1  0  0  0
 60131  1  0  0  0
 60132  1  0  0  0
 60133  1  0  0  0
 61134  1  0  0  0
 61135  1  0  0  0
 61136  1  0  0  0
 62137  1  0  0  0
 62138  1  0  0  0
 62139  1  0  0  0
 63 65  1  0  0  0
 63140  1  0  0  0
 63141  1  0  0  0
 63142  1  0  0  0
 64143  1  0  0  0
 65144  1  0  0  0
 68 82  1  0  0  0
 71 72  2  0  0  0
 71 74  1  0  0  0
 71145  1  0  0  0
 72 75  1  0  0  0
 72146  1  0  0  0
 73 75  2  0  0  0
 73 76  1  0  0  0
 73147  1  0  0  0
 74 76  2  0  0  0
 74 80  1  0  0  0
 75 84  1  0  0  0
 76 85  1  0  0  0
 77148  1  0  0  0
 77149  1  0  0  0
 77150  1  0  0  0
 77 83  1  0  0  0
 78 83  1  0  0  0
 78151  1  0  0  0
 78152  1  0  0  0
 78153  1  0  0  0
 79 85  1  0  0  0
 79154  1  0  0  0
 79155  1  0  0  0
 79156  1  0  0  0
 80 81  1  0  0  0
 80157  1  0  0  0
 80158  1  0  0  0
 81 83  1  0  0  0
 81159  1  0  0  0
 81160  1  0  0  0
 82 83  1  0  0  0
 82161  1  0  0  0
 82162  1  0  0  0
 84163  1  0  0  0
M  ISO  4   1 100  68 101  82 101  84 100
M  END
> <chiral flag>
0

> <version>
0

> <s_m_source_file>
/data/baiqing/PycharmProjects/Reinvent-master-3.2/result/LINK_invent/BTK/process_docking_weight1_custom_product_contain_oxygen_bond_distance_aromatic_linkinvent_7_9_3/rearranged_h_0135.sdf

> <i_m_source_file_index>
67

> <r_mmod_Potential_Energy-OPLS-2005>
51.4839744567871

> <r_mmod_Stretch_Energy-OPLS-2005>
72.7666397094727

> <r_mmod_Bend_Energy-OPLS-2005>
140.262817382812

> <r_mmod_Torsional_Energy-OPLS-2005>
219.431030273438

> <r_mmod_Improper_Torsional_Energy-OPLS-2005>
4.60423946380615

> <r_mmod_Van_der_Waal_Energy-OPLS-2005>
152.474349975586

> <r_mmod_Electrostatic_Energy-OPLS-2005>
-371.433380126953

> <r_mmod_Solvation_Energy-OPLS-2005>
-201.518981933594

> <b_mmod_Minimization_Converged-OPLS-2005>
0

> <r_mmod_RMS_Derivative-OPLS-2005>
1.06977689266205

$$$$
67
                    3D
 Structure written by MMmdl.
166175  0  0  1  0            999 V2000
  -30.7406  -14.5001   20.5492 C   0  0  0  0  0  0
  -30.4072  -12.3175   19.4454 C   0  0  0  0  0  0
  -29.4939  -12.5002   18.2184 C   0  0  0  0  0  0
  -28.0169  -12.3601   18.6301 C   0  0  0  0  0  0
  -27.6570  -13.2201   19.8717 C   0  0  2  0  0  0
  -28.7000  -13.0592   21.0019 C   0  0  0  0  0  0
  -25.2561  -13.8187   20.5702 C   0  0  0  0  0  0
  -24.1823  -13.0445   20.9184 C   0  0  0  0  0  0
  -24.6387  -11.6917   20.8730 C   0  0  0  0  0  0
  -23.9055  -10.4296   21.0390 C   0  0  0  0  0  0
  -24.3606   -9.4215   21.9170 C   0  0  0  0  0  0
  -23.6286   -8.2249   22.0745 C   0  0  0  0  0  0
  -22.4271   -8.0278   21.3539 C   0  0  0  0  0  0
  -21.9902   -9.0254   20.4646 C   0  0  0  0  0  0
  -22.7223  -10.2136   20.3044 C   0  0  0  0  0  0
  -21.6860   -6.0725   22.5272 C   0  0  0  0  0  0
  -21.4024   -6.5628   23.8208 C   0  0  0  0  0  0
  -21.3658   -5.6782   24.9171 C   0  0  0  0  0  0
  -21.6041   -4.3045   24.7225 C   0  0  0  0  0  0
  -21.8821   -3.8139   23.4346 C   0  0  0  0  0  0
  -21.9198   -4.6951   22.3398 C   0  0  0  0  0  0
  -22.7844  -13.5231   21.1844 C   0  0  0  0  0  0
  -22.1667   -4.2135   21.0977 F   0  0  0  0  0  0
  -21.5622   -3.4531   25.7739 F   0  0  0  0  0  0
  -30.0292  -13.3409   20.4395 N   0  0  0  0  0  0
  -26.3006  -12.9382   20.3372 N   0  0  0  0  0  0
  -25.9325  -11.6528   20.5771 N   0  0  0  0  0  0
  -22.0491  -12.8222   22.0405 N   0  0  0  0  0  0
  -25.4282  -15.1909   20.4110 N   0  0  0  0  0  0
  -31.8658  -14.5954   20.0585 O   0  0  0  0  0  0
  -21.6642   -6.8872   21.4234 O   0  0  0  0  0  0
  -22.3527  -14.5540   20.6694 O   0  0  0  0  0  0
  -24.6185  -31.8662   23.2090 C   0  0  0  0  0  0
  -25.9072  -32.4808   23.8388 C   0  0  1  0  0  0
  -27.2219  -27.4044   20.1069 C   0  0  0  0  0  0
  -25.5918  -33.8607   24.2325 N   0  0  0  0  0  0
  -23.4076  -30.4914   21.5501 C   0  0  2  0  0  0
  -24.8537  -28.9616   20.1082 C   0  0  0  0  0  0
  -22.7441  -29.4646   22.4973 C   0  0  0  0  0  0
  -18.0278  -28.1381   22.8476 C   0  0  0  0  0  0
  -24.1494  -36.7310   23.2632 C   0  0  0  0  0  0
  -25.9406  -30.8243   21.3671 C   0  0  0  0  0  0
  -26.0168  -29.4585   20.7109 C   0  0  0  0  0  0
  -27.2075  -28.6887   20.7055 C   0  0  0  0  0  0
  -26.0487  -26.9470   19.4668 C   0  0  0  0  0  0
  -24.8665  -27.7068   19.4785 C   0  0  0  0  0  0
  -23.6166  -29.8290   20.1629 C   0  0  0  0  0  0
  -25.4108  -36.3100   24.0335 C   0  0  1  0  0  0
  -20.5870  -28.3669   23.1306 C   0  0  2  0  0  0
  -20.6763  -26.9397   22.5421 C   0  0  0  0  0  0
  -19.5752  -26.6384   21.5204 C   0  0  0  0  0  0
  -18.1924  -26.7930   22.1603 C   0  0  0  0  0  0
  -19.1526  -28.8841   23.2887 C   0  0  0  0  0  0
  -18.9450  -30.1448   23.8896 C   0  0  0  0  0  0
  -17.6452  -30.6581   24.0562 C   0  0  0  0  0  0
  -25.9036  -34.9465   23.5122 C   0  0  0  0  0  0
  -16.5343  -29.9081   23.6327 C   0  0  0  0  0  0
  -16.7263  -28.6503   23.0332 C   0  0  0  0  0  0
  -26.4479  -31.6583   25.0724 C   0  0  0  0  0  0
  -25.3742  -31.3708   26.1479 C   0  0  0  0  0  0
  -27.0282  -30.3010   24.6113 C   0  0  0  0  0  0
  -27.6070  -32.4286   25.7477 C   0  0  0  0  0  0
  -27.5586  -37.1801   24.8455 C   0  0  0  0  0  0
  -21.4165  -29.3032   22.3715 N   0  0  0  0  0  0
  -26.4290  -37.3787   23.9409 N   0  0  0  0  0  0
  -24.6738  -31.0752   22.1000 N   0  0  0  0  0  0
  -23.4207  -28.8177   23.3012 O   0  0  0  0  0  0
  -28.3392  -26.5871   20.1565 O   0  0  0  0  0  0
  -26.5596  -34.8920   22.4683 O   0  0  0  0  0  0
  -23.5372  -32.1419   23.7475 O   0  0  0  0  0  0
  -31.5328  -19.6502   21.0699 C   0  0  0  0  0  0
  -29.6838  -18.0479   21.1378 C   0  0  0  0  0  0
  -31.9839  -17.2557   21.1228 C   0  0  0  0  0  0
  -30.1477  -19.3971   21.1084 C   0  0  0  0  0  0
  -32.4494  -18.5852   21.0916 C   0  0  0  0  0  0
  -30.5962  -16.9516   21.1068 C   0  0  0  0  0  0
  -29.2374  -20.5609   21.1786 C   0  0  0  0  0  0
  -28.9823  -22.1592   17.9371 C   0  0  0  0  0  0
  -27.7883  -22.6697   18.7623 C   0  0  0  0  0  0
  -29.8830  -21.4058   18.9310 C   0  0  0  0  0  0
  -28.3309  -22.7547   20.1930 C   0  0  2  0  0  0
  -33.9397  -18.8635   21.0837 C   0  0  0  0  0  0
  -29.0608  -24.1292   20.4041 C   0  0  0  0  0  0
  -28.0852  -25.2904   20.7648 C   0  0  0  0  0  0
  -29.2099  -21.5504   20.2363 N   0  0  0  0  0  0
  -30.1126  -15.5841   21.0780 N   0  0  0  0  0  0
  -28.4263  -20.6420   22.2292 N   0  3  0  0  0  0
  -31.4549  -12.3757   19.1461 H   0  0  0  0  0  0
  -30.2810  -11.3198   19.8693 H   0  0  0  0  0  0
  -29.7400  -11.7651   17.4510 H   0  0  0  0  0  0
  -29.6642  -13.4802   17.7701 H   0  0  0  0  0  0
  -27.8350  -11.3065   18.8443 H   0  0  0  0  0  0
  -27.3658  -12.6163   17.7936 H   0  0  0  0  0  0
  -27.6871  -14.2600   19.5460 H   0  0  0  0  0  0
  -28.6768  -12.0448   21.4024 H   0  0  0  0  0  0
  -28.4644  -13.7148   21.8409 H   0  0  0  0  0  0
  -25.2755   -9.5697   22.4735 H   0  0  0  0  0  0
  -24.0002   -7.4641   22.7460 H   0  0  0  0  0  0
  -21.0835   -8.8767   19.8957 H   0  0  0  0  0  0
  -22.3673  -10.9667   19.6148 H   0  0  0  0  0  0
  -21.2025   -7.6135   23.9705 H   0  0  0  0  0  0
  -21.1472   -6.0515   25.9073 H   0  0  0  0  0  0
  -22.0602   -2.7600   23.2851 H   0  0  0  0  0  0
  -22.4103  -11.9878   22.4788 H   0  0  0  0  0  0
  -21.1109  -13.1243   22.2609 H   0  0  0  0  0  0
  -24.6611  -15.8471   20.5118 H   0  0  0  0  0  0
  -26.2778  -15.6252   20.0739 H   0  0  0  0  0  0
  -26.7142  -32.5517   23.1149 H   0  0  0  0  0  0
  -25.0102  -33.9758   25.0491 H   0  0  0  0  0  0
  -22.6970  -31.3092   21.4134 H   0  0  0  0  0  0
  -23.3750  -35.9648   23.3298 H   0  0  0  0  0  0
  -24.3596  -36.8919   22.2046 H   0  0  0  0  0  0
  -23.7256  -37.6519   23.6645 H   0  0  0  0  0  0
  -26.0590  -31.5898   20.5990 H   0  0  0  0  0  0
  -26.8267  -30.8745   21.9882 H   0  0  0  0  0  0
  -28.1013  -29.0605   21.1861 H   0  0  0  0  0  0
  -26.0363  -25.9900   18.9651 H   0  0  0  0  0  0
  -23.9774  -27.3227   18.9978 H   0  0  0  0  0  0
  -23.7244  -30.6064   19.4054 H   0  0  0  0  0  0
  -22.7407  -29.2494   19.8669 H   0  0  0  0  0  0
  -25.1280  -36.1958   25.0826 H   0  0  0  0  0  0
  -20.9957  -28.3237   24.1428 H   0  0  0  0  0  0
  -20.5641  -26.2277   23.3612 H   0  0  0  0  0  0
  -21.6640  -26.7422   22.1236 H   0  0  0  0  0  0
  -19.6913  -25.6296   21.1233 H   0  0  0  0  0  0
  -19.6708  -27.3199   20.6737 H   0  0  0  0  0  0
  -17.4205  -26.6691   21.3989 H   0  0  0  0  0  0
  -18.0308  -26.0066   22.8991 H   0  0  0  0  0  0
  -19.7930  -30.7263   24.2264 H   0  0  0  0  0  0
  -17.5007  -31.6256   24.5173 H   0  0  0  0  0  0
  -15.5338  -30.2973   23.7653 H   0  0  0  0  0  0
  -15.8673  -28.0826   22.7027 H   0  0  0  0  0  0
  -24.5963  -30.6978   25.7854 H   0  0  0  0  0  0
  -24.8873  -32.2858   26.4858 H   0  0  0  0  0  0
  -25.8111  -30.8968   27.0279 H   0  0  0  0  0  0
  -26.2816  -29.6800   24.1151 H   0  0  0  0  0  0
  -27.4007  -29.7221   25.4573 H   0  0  0  0  0  0
  -27.8683  -30.4296   23.9285 H   0  0  0  0  0  0
  -27.2708  -33.3582   26.2078 H   0  0  0  0  0  0
  -28.3864  -32.6839   25.0285 H   0  0  0  0  0  0
  -28.0759  -31.8393   26.5367 H   0  0  0  0  0  0
  -28.2596  -38.0103   24.7501 H   0  0  0  0  0  0
  -28.1080  -36.2633   24.6261 H   0  0  0  0  0  0
  -27.2318  -37.1450   25.8862 H   0  0  0  0  0  0
  -20.9334  -29.8759   21.6939 H   0  0  0  0  0  0
  -26.0178  -38.2862   24.1411 H   0  0  0  0  0  0
  -31.8912  -20.6714   21.0625 H   0  0  0  0  0  0
  -28.6190  -17.8623   21.1614 H   0  0  0  0  0  0
  -32.7306  -16.4779   21.1589 H   0  0  0  0  0  0
  -29.5330  -22.9909   17.4962 H   0  0  0  0  0  0
  -28.6544  -21.5159   17.1200 H   0  0  0  0  0  0
  -26.9629  -21.9575   18.7232 H   0  0  0  0  0  0
  -27.4140  -23.6240   18.3882 H   0  0  0  0  0  0
  -30.8895  -21.8258   18.9616 H   0  0  0  0  0  0
  -29.9665  -20.3593   18.6320 H   0  0  0  0  0  0
  -27.5122  -22.6633   20.9082 H   0  0  0  0  0  0
  -34.1516  -19.9137   21.2866 H   0  0  0  0  0  0
  -34.3662  -18.6142   20.1117 H   0  0  0  0  0  0
  -34.4492  -18.2680   21.8419 H   0  0  0  0  0  0
  -29.6041  -24.4016   19.4996 H   0  0  0  0  0  0
  -29.8208  -24.0408   21.1802 H   0  0  0  0  0  0
  -28.1022  -25.4311   21.8464 H   0  0  0  0  0  0
  -27.0763  -24.9367   20.5601 H   0  0  0  0  0  0
  -29.1588  -15.4319   21.3659 H   0  0  0  0  0  0
  -28.4962  -19.9384   22.9492 H   0  0  0  0  0  0
  -27.8051  -21.4179   22.3747 H   0  0  0  0  0  0
  1 25  1  0  0  0
  1 30  2  0  0  0
  1 86  1  0  0  0
  2  3  1  0  0  0
  2 25  1  0  0  0
  2 88  1  0  0  0
  2 89  1  0  0  0
  3  4  1  0  0  0
  3 90  1  0  0  0
  3 91  1  0  0  0
  4  5  1  0  0  0
  4 92  1  0  0  0
  4 93  1  0  0  0
  5  6  1  0  0  0
  5 26  1  0  0  0
  5 94  1  0  0  0
  6 25  1  0  0  0
  6 95  1  0  0  0
  6 96  1  0  0  0
  7  8  2  0  0  0
  7 26  1  0  0  0
  7 29  1  0  0  0
  8  9  1  0  0  0
  8 22  1  0  0  0
  9 10  1  0  0  0
  9 27  2  0  0  0
 10 11  2  0  0  0
 10 15  1  0  0  0
 11 12  1  0  0  0
 11 97  1  0  0  0
 12 13  2  0  0  0
 12 98  1  0  0  0
 13 14  1  0  0  0
 13 31  1  0  0  0
 14 15  2  0  0  0
 14 99  1  0  0  0
 15100  1  0  0  0
 16 17  2  0  0  0
 16 21  1  0  0  0
 16 31  1  0  0  0
 17 18  1  0  0  0
 17101  1  0  0  0
 18 19  2  0  0  0
 18102  1  0  0  0
 19 20  1  0  0  0
 19 24  1  0  0  0
 20 21  2  0  0  0
 20103  1  0  0  0
 21 23  1  0  0  0
 22 28  1  0  0  0
 22 32  2  0  0  0
 26 27  1  0  0  0
 28104  1  0  0  0
 28105  1  0  0  0
 29106  1  0  0  0
 29107  1  0  0  0
 33 34  1  0  0  0
 33 66  1  0  0  0
 33 70  2  0  0  0
 34 36  1  0  0  0
 34 59  1  0  0  0
 34108  1  0  0  0
 35 44  2  0  0  0
 35 45  1  0  0  0
 35 68  1  0  0  0
 36 56  1  0  0  0
 36109  1  0  0  0
 37 39  1  0  0  0
 37 47  1  0  0  0
 37 66  1  0  0  0
 37110  1  0  0  0
 38 43  2  0  0  0
 38 46  1  0  0  0
 38 47  1  0  0  0
 39 64  1  0  0  0
 39 67  2  0  0  0
 40 52  1  0  0  0
 40 53  2  0  0  0
 40 58  1  0  0  0
 41111  1  0  0  0
 41112  1  0  0  0
 41113  1  0  0  0
 41 48  1  0  0  0
 42 43  1  0  0  0
 42 66  1  0  0  0
 42114  1  0  0  0
 42115  1  0  0  0
 43 44  1  0  0  0
 44116  1  0  0  0
 45 46  2  0  0  0
 45117  1  0  0  0
 46118  1  0  0  0
 47119  1  0  0  0
 47120  1  0  0  0
 48 56  1  0  0  0
 48 65  1  0  0  0
 48121  1  0  0  0
 49 50  1  0  0  0
 49 53  1  0  0  0
 49 64  1  0  0  0
 49122  1  0  0  0
 50 51  1  0  0  0
 50123  1  0  0  0
 50124  1  0  0  0
 51 52  1  0  0  0
 51125  1  0  0  0
 51126  1  0  0  0
 52127  1  0  0  0
 52128  1  0  0  0
 53 54  1  0  0  0
 54 55  2  0  0  0
 54129  1  0  0  0
 55 57  1  0  0  0
 55130  1  0  0  0
 56 69  2  0  0  0
 57 58  2  0  0  0
 57131  1  0  0  0
 58132  1  0  0  0
 59 60  1  0  0  0
 59 61  1  0  0  0
 59 62  1  0  0  0
 60133  1  0  0  0
 60134  1  0  0  0
 60135  1  0  0  0
 61136  1  0  0  0
 61137  1  0  0  0
 61138  1  0  0  0
 62139  1  0  0  0
 62140  1  0  0  0
 62141  1  0  0  0
 63 65  1  0  0  0
 63142  1  0  0  0
 63143  1  0  0  0
 63144  1  0  0  0
 64145  1  0  0  0
 65146  1  0  0  0
 68 84  1  0  0  0
 71 74  2  0  0  0
 71 75  1  0  0  0
 71147  1  0  0  0
 72 74  1  0  0  0
 72 76  2  0  0  0
 72148  1  0  0  0
 73 75  2  0  0  0
 73 76  1  0  0  0
 73149  1  0  0  0
 74 77  1  0  0  0
 75 82  1  0  0  0
 76 86  1  0  0  0
 77 85  1  0  0  0
 77 87  2  0  0  0
 78 79  1  0  0  0
 78 80  1  0  0  0
 78150  1  0  0  0
 78151  1  0  0  0
 79 81  1  0  0  0
 79152  1  0  0  0
 79153  1  0  0  0
 80 85  1  0  0  0
 80154  1  0  0  0
 80155  1  0  0  0
 81 83  1  0  0  0
 81 85  1  0  0  0
 81156  1  0  0  0
 82157  1  0  0  0
 82158  1  0  0  0
 82159  1  0  0  0
 83 84  1  0  0  0
 83160  1  0  0  0
 83161  1  0  0  0
 84162  1  0  0  0
 84163  1  0  0  0
 86164  1  0  0  0
 87165  1  0  0  0
 87166  1  0  0  0
M  CHG  1  87   1
M  ISO  4   1 100  68 101  84 101  86 100
M  END
> <chiral flag>
0

> <version>
0

> <s_m_source_file>
/data/baiqing/PycharmProjects/Reinvent-master-3.2/result/LINK_invent/BTK/process_docking_weight1_custom_product_contain_oxygen_bond_distance_aromatic_linkinvent_7_9_3/rearranged_h_0135.sdf

> <i_m_source_file_index>
68

> <r_mmod_Potential_Energy-OPLS-2005>
-64.72314453125

> <r_mmod_Stretch_Energy-OPLS-2005>
49.7416610717773

> <r_mmod_Bend_Energy-OPLS-2005>
138.680541992188

> <r_mmod_Torsional_Energy-OPLS-2005>
324.303955078125

> <r_mmod_Improper_Torsional_Energy-OPLS-2005>
4.13927316665649

> <r_mmod_Van_der_Waal_Energy-OPLS-2005>
162.590469360352

> <r_mmod_Electrostatic_Energy-OPLS-2005>
-377.060302734375

> <r_mmod_Solvation_Energy-OPLS-2005>
-389.296081542969

> <b_mmod_Minimization_Converged-OPLS-2005>
0

> <r_mmod_RMS_Derivative-OPLS-2005>
1.10958993434906

$$$$
68
                    3D
 Structure written by MMmdl.
171179  0  0  1  0            999 V2000
  -30.6081  -14.5527   20.5798 C   0  0  0  0  0  0
  -30.4523  -12.3596   19.4140 C   0  0  0  0  0  0
  -29.5033  -12.5195   18.2040 C   0  0  0  0  0  0
  -28.0245  -12.3593   18.6182 C   0  0  0  0  0  0
  -27.6641  -13.1930   19.8751 C   0  0  2  0  0  0
  -28.7088  -12.9496   20.9881 C   0  0  0  0  0  0
  -25.2622  -13.8123   20.5671 C   0  0  0  0  0  0
  -24.1859  -13.0423   20.9169 C   0  0  0  0  0  0
  -24.6400  -11.6877   20.8737 C   0  0  0  0  0  0
  -23.9055  -10.4280   21.0407 C   0  0  0  0  0  0
  -24.3609   -9.4196   21.9188 C   0  0  0  0  0  0
  -23.6282   -8.2233   22.0760 C   0  0  0  0  0  0
  -22.4264   -8.0278   21.3547 C   0  0  0  0  0  0
  -21.9900   -9.0250   20.4652 C   0  0  0  0  0  0
  -22.7228  -10.2126   20.3056 C   0  0  0  0  0  0
  -21.6848   -6.0735   22.5280 C   0  0  0  0  0  0
  -21.4011   -6.5639   23.8213 C   0  0  0  0  0  0
  -21.3656   -5.6790   24.9177 C   0  0  0  0  0  0
  -21.6044   -4.3054   24.7226 C   0  0  0  0  0  0
  -21.8822   -3.8147   23.4347 C   0  0  0  0  0  0
  -21.9191   -4.6962   22.3404 C   0  0  0  0  0  0
  -22.7886  -13.5240   21.1836 C   0  0  0  0  0  0
  -22.1661   -4.2150   21.0981 F   0  0  0  0  0  0
  -21.5626   -3.4538   25.7739 F   0  0  0  0  0  0
  -30.0300  -13.3226   20.4438 N   0  0  0  0  0  0
  -26.3044  -12.9254   20.3355 N   0  0  0  0  0  0
  -25.9317  -11.6437   20.5748 N   0  0  0  0  0  0
  -22.0519  -12.8235   22.0389 N   0  0  0  0  0  0
  -25.4380  -15.1837   20.4103 N   0  0  0  0  0  0
  -31.7349  -14.8173   20.1428 O   0  0  0  0  0  0
  -21.6629   -6.8875   21.4243 O   0  0  0  0  0  0
  -22.3575  -14.5553   20.6689 O   0  0  0  0  0  0
  -24.6180  -31.8634   23.2051 C   0  0  0  0  0  0
  -25.9053  -32.4803   23.8364 C   0  0  1  0  0  0
  -27.2437  -27.3929   20.1141 C   0  0  0  0  0  0
  -25.5896  -33.8603   24.2297 N   0  0  0  0  0  0
  -23.4095  -30.4833   21.5460 C   0  0  2  0  0  0
  -24.8586  -28.9378   20.1210 C   0  0  0  0  0  0
  -22.7442  -29.4621   22.4970 C   0  0  0  0  0  0
  -18.0281  -28.1369   22.8472 C   0  0  0  0  0  0
  -24.1484  -36.7301   23.2642 C   0  0  0  0  0  0
  -25.9422  -30.8196   21.3615 C   0  0  0  0  0  0
  -26.0210  -29.4477   20.7118 C   0  0  0  0  0  0
  -27.2175  -28.6874   20.6941 C   0  0  0  0  0  0
  -26.0630  -26.9030   19.5183 C   0  0  0  0  0  0
  -24.8761  -27.6662   19.5181 C   0  0  0  0  0  0
  -23.6233  -29.8109   20.1632 C   0  0  0  0  0  0
  -25.4103  -36.3093   24.0337 C   0  0  1  0  0  0
  -20.5877  -28.3661   23.1301 C   0  0  2  0  0  0
  -20.6760  -26.9393   22.5409 C   0  0  0  0  0  0
  -19.5743  -26.6373   21.5203 C   0  0  0  0  0  0
  -18.1924  -26.7908   22.1615 C   0  0  0  0  0  0
  -19.1532  -28.8833   23.2871 C   0  0  0  0  0  0
  -18.9463  -30.1435   23.8892 C   0  0  0  0  0  0
  -17.6468  -30.6574   24.0568 C   0  0  0  0  0  0
  -25.9044  -34.9464   23.5122 C   0  0  0  0  0  0
  -16.5356  -29.9080   23.6320 C   0  0  0  0  0  0
  -16.7269  -28.6502   23.0327 C   0  0  0  0  0  0
  -26.4471  -31.6595   25.0707 C   0  0  0  0  0  0
  -25.3731  -31.3717   26.1460 C   0  0  0  0  0  0
  -27.0298  -30.3035   24.6079 C   0  0  0  0  0  0
  -27.6033  -32.4338   25.7484 C   0  0  0  0  0  0
  -27.5572  -37.1794   24.8468 C   0  0  0  0  0  0
  -21.4169  -29.3031   22.3721 N   0  0  0  0  0  0
  -26.4282  -37.3774   23.9417 N   0  0  0  0  0  0
  -24.6749  -31.0701   22.0966 N   0  0  0  0  0  0
  -23.4200  -28.8156   23.3014 O   0  0  0  0  0  0
  -28.4203  -26.6595   20.0819 O   0  0  0  0  0  0
  -26.5590  -34.8920   22.4677 O   0  0  0  0  0  0
  -23.5355  -32.1415   23.7410 O   0  0  0  0  0  0
  -29.5114  -19.5421   22.3336 C   0  0  0  0  0  0
  -30.1316  -17.9275   20.6159 C   0  0  0  0  0  0
  -29.9530  -19.2895   21.0207 C   0  0  0  0  0  0
  -29.1915  -18.4931   23.2141 C   0  0  0  0  0  0
  -29.3540  -17.1455   22.8078 C   0  0  0  0  0  0
  -29.8345  -16.8461   21.5026 C   0  0  0  0  0  0
  -28.6334  -18.8585   24.5805 C   0  0  0  0  0  0
  -28.9683  -16.0139   23.7594 C   0  0  0  0  0  0
  -29.1977  -25.2365   21.8057 C   0  0  0  0  0  0
  -31.2804  -23.5285   20.1101 C   0  0  0  0  0  0
  -30.2683  -22.6946   18.0032 C   0  0  0  0  0  0
  -30.2698  -20.4880   20.0913 C   0  0  0  0  0  0
  -29.3891  -21.8080   20.2004 C   0  0  0  0  0  0
  -28.9627  -24.3445   19.3247 C   0  0  0  0  0  0
  -28.4175  -25.2597   20.4869 C   0  0  2  0  0  0
  -29.9457  -23.0937   19.4646 C   0  0  0  0  0  0
  -29.7511  -15.4683   21.0954 N   0  0  0  0  0  0
  -31.4884  -12.5170   19.1088 H   0  0  0  0  0  0
  -30.4056  -11.3424   19.8068 H   0  0  0  0  0  0
  -29.7542  -11.7917   17.4312 H   0  0  0  0  0  0
  -29.6494  -13.5025   17.7537 H   0  0  0  0  0  0
  -27.8488  -11.3010   18.8164 H   0  0  0  0  0  0
  -27.3696  -12.6253   17.7882 H   0  0  0  0  0  0
  -27.7091  -14.2421   19.5825 H   0  0  0  0  0  0
  -28.7139  -11.8966   21.2753 H   0  0  0  0  0  0
  -28.4525  -13.4867   21.9021 H   0  0  0  0  0  0
  -25.2755   -9.5668   22.4757 H   0  0  0  0  0  0
  -23.9990   -7.4627   22.7476 H   0  0  0  0  0  0
  -21.0830   -8.8775   19.8955 H   0  0  0  0  0  0
  -22.3698  -10.9669   19.6164 H   0  0  0  0  0  0
  -21.2006   -7.6147   23.9721 H   0  0  0  0  0  0
  -21.1474   -6.0519   25.9079 H   0  0  0  0  0  0
  -22.0604   -2.7609   23.2848 H   0  0  0  0  0  0
  -22.4114  -11.9879   22.4760 H   0  0  0  0  0  0
  -21.1148  -13.1280   22.2610 H   0  0  0  0  0  0
  -24.6769  -15.8429   20.5295 H   0  0  0  0  0  0
  -26.2934  -15.6236   20.0936 H   0  0  0  0  0  0
  -26.7133  -32.5510   23.1130 H   0  0  0  0  0  0
  -25.0067  -33.9772   25.0454 H   0  0  0  0  0  0
  -22.6982  -31.2982   21.3977 H   0  0  0  0  0  0
  -23.3743  -35.9636   23.3321 H   0  0  0  0  0  0
  -24.3590  -36.8904   22.2057 H   0  0  0  0  0  0
  -23.7243  -37.6513   23.6654 H   0  0  0  0  0  0
  -26.0521  -31.5830   20.5912 H   0  0  0  0  0  0
  -26.8309  -30.8787   21.9792 H   0  0  0  0  0  0
  -28.1219  -29.0838   21.1349 H   0  0  0  0  0  0
  -26.0607  -25.9326   19.0425 H   0  0  0  0  0  0
  -23.9856  -27.2660   19.0521 H   0  0  0  0  0  0
  -23.7434  -30.5866   19.4062 H   0  0  0  0  0  0
  -22.7466  -29.2361   19.8592 H   0  0  0  0  0  0
  -25.1278  -36.1953   25.0824 H   0  0  0  0  0  0
  -20.9942  -28.3229   24.1431 H   0  0  0  0  0  0
  -20.5646  -26.2281   23.3606 H   0  0  0  0  0  0
  -21.6632  -26.7413   22.1214 H   0  0  0  0  0  0
  -19.6913  -25.6284   21.1240 H   0  0  0  0  0  0
  -19.6686  -27.3182   20.6736 H   0  0  0  0  0  0
  -17.4184  -26.6650   21.4031 H   0  0  0  0  0  0
  -18.0325  -26.0045   22.9011 H   0  0  0  0  0  0
  -19.7946  -30.7245   24.2253 H   0  0  0  0  0  0
  -17.5033  -31.6260   24.5169 H   0  0  0  0  0  0
  -15.5355  -30.2990   23.7646 H   0  0  0  0  0  0
  -15.8669  -28.0850   22.6997 H   0  0  0  0  0  0
  -24.5909  -30.7054   25.7818 H   0  0  0  0  0  0
  -24.8915  -32.2876   26.4894 H   0  0  0  0  0  0
  -25.8084  -30.8913   27.0234 H   0  0  0  0  0  0
  -26.2836  -29.6817   24.1128 H   0  0  0  0  0  0
  -27.4077  -29.7249   25.4522 H   0  0  0  0  0  0
  -27.8662  -30.4368   23.9217 H   0  0  0  0  0  0
  -27.2632  -33.3637   26.2054 H   0  0  0  0  0  0
  -28.3839  -32.6911   25.0315 H   0  0  0  0  0  0
  -28.0699  -31.8474   26.5411 H   0  0  0  0  0  0
  -28.2573  -38.0100   24.7501 H   0  0  0  0  0  0
  -28.1075  -36.2630   24.6300 H   0  0  0  0  0  0
  -27.2303  -37.1454   25.8872 H   0  0  0  0  0  0
  -20.9332  -29.8798   21.6983 H   0  0  0  0  0  0
  -26.0176  -38.2848   24.1430 H   0  0  0  0  0  0
  -29.3983  -20.5570   22.6825 H   0  0  0  0  0  0
  -30.4573  -17.7124   19.6067 H   0  0  0  0  0  0
  -28.3882  -19.9191   24.6410 H   0  0  0  0  0  0
  -29.3561  -18.6366   25.3654 H   0  0  0  0  0  0
  -27.7141  -18.3083   24.7813 H   0  0  0  0  0  0
  -29.0084  -16.3106   24.8063 H   0  0  0  0  0  0
  -29.6422  -15.1626   23.6666 H   0  0  0  0  0  0
  -27.9544  -15.6758   23.5446 H   0  0  0  0  0  0
  -29.2494  -24.2332   22.2253 H   0  0  0  0  0  0
  -28.7090  -25.8664   22.5500 H   0  0  0  0  0  0
  -30.2104  -25.6190   21.6764 H   0  0  0  0  0  0
  -32.0881  -22.8322   19.8870 H   0  0  0  0  0  0
  -31.2172  -23.5796   21.1959 H   0  0  0  0  0  0
  -31.6002  -24.5050   19.7445 H   0  0  0  0  0  0
  -31.0406  -21.9283   17.9331 H   0  0  0  0  0  0
  -30.6405  -23.5441   17.4289 H   0  0  0  0  0  0
  -29.3845  -22.3167   17.4874 H   0  0  0  0  0  0
  -30.2338  -20.1187   19.0653 H   0  0  0  0  0  0
  -31.3144  -20.7345   20.2789 H   0  0  0  0  0  0
  -29.2572  -22.0837   21.2442 H   0  0  0  0  0  0
  -28.3862  -21.5809   19.8357 H   0  0  0  0  0  0
  -29.4660  -25.0420   18.6540 H   0  0  0  0  0  0
  -28.0918  -24.0238   18.7506 H   0  0  0  0  0  0
  -27.4075  -24.9246   20.7278 H   0  0  0  0  0  0
  -28.9067  -15.0154   21.4080 H   0  0  0  0  0  0
  1 25  1  0  0  0
  1 30  2  0  0  0
  1 87  1  0  0  0
  2  3  1  0  0  0
  2 25  1  0  0  0
  2 88  1  0  0  0
  2 89  1  0  0  0
  3  4  1  0  0  0
  3 90  1  0  0  0
  3 91  1  0  0  0
  4  5  1  0  0  0
  4 92  1  0  0  0
  4 93  1  0  0  0
  5  6  1  0  0  0
  5 26  1  0  0  0
  5 94  1  0  0  0
  6 25  1  0  0  0
  6 95  1  0  0  0
  6 96  1  0  0  0
  7  8  2  0  0  0
  7 26  1  0  0  0
  7 29  1  0  0  0
  8  9  1  0  0  0
  8 22  1  0  0  0
  9 10  1  0  0  0
  9 27  2  0  0  0
 10 11  2  0  0  0
 10 15  1  0  0  0
 11 12  1  0  0  0
 11 97  1  0  0  0
 12 13  2  0  0  0
 12 98  1  0  0  0
 13 14  1  0  0  0
 13 31  1  0  0  0
 14 15  2  0  0  0
 14 99  1  0  0  0
 15100  1  0  0  0
 16 17  2  0  0  0
 16 21  1  0  0  0
 16 31  1  0  0  0
 17 18  1  0  0  0
 17101  1  0  0  0
 18 19  2  0  0  0
 18102  1  0  0  0
 19 20  1  0  0  0
 19 24  1  0  0  0
 20 21  2  0  0  0
 20103  1  0  0  0
 21 23  1  0  0  0
 22 28  1  0  0  0
 22 32  2  0  0  0
 26 27  1  0  0  0
 28104  1  0  0  0
 28105  1  0  0  0
 29106  1  0  0  0
 29107  1  0  0  0
 33 34  1  0  0  0
 33 66  1  0  0  0
 33 70  2  0  0  0
 34 36  1  0  0  0
 34 59  1  0  0  0
 34108  1  0  0  0
 35 44  2  0  0  0
 35 45  1  0  0  0
 35 68  1  0  0  0
 36 56  1  0  0  0
 36109  1  0  0  0
 37 39  1  0  0  0
 37 47  1  0  0  0
 37 66  1  0  0  0
 37110  1  0  0  0
 38 43  2  0  0  0
 38 46  1  0  0  0
 38 47  1  0  0  0
 39 64  1  0  0  0
 39 67  2  0  0  0
 40 52  1  0  0  0
 40 53  2  0  0  0
 40 58  1  0  0  0
 41111  1  0  0  0
 41112  1  0  0  0
 41113  1  0  0  0
 41 48  1  0  0  0
 42 43  1  0  0  0
 42 66  1  0  0  0
 42114  1  0  0  0
 42115  1  0  0  0
 43 44  1  0  0  0
 44116  1  0  0  0
 45 46  2  0  0  0
 45117  1  0  0  0
 46118  1  0  0  0
 47119  1  0  0  0
 47120  1  0  0  0
 48 56  1  0  0  0
 48 65  1  0  0  0
 48121  1  0  0  0
 49 50  1  0  0  0
 49 53  1  0  0  0
 49 64  1  0  0  0
 49122  1  0  0  0
 50 51  1  0  0  0
 50123  1  0  0  0
 50124  1  0  0  0
 51 52  1  0  0  0
 51125  1  0  0  0
 51126  1  0  0  0
 52127  1  0  0  0
 52128  1  0  0  0
 53 54  1  0  0  0
 54 55  2  0  0  0
 54129  1  0  0  0
 55 57  1  0  0  0
 55130  1  0  0  0
 56 69  2  0  0  0
 57 58  2  0  0  0
 57131  1  0  0  0
 58132  1  0  0  0
 59 60  1  0  0  0
 59 61  1  0  0  0
 59 62  1  0  0  0
 60133  1  0  0  0
 60134  1  0  0  0
 60135  1  0  0  0
 61136  1  0  0  0
 61137  1  0  0  0
 61138  1  0  0  0
 62139  1  0  0  0
 62140  1  0  0  0
 62141  1  0  0  0
 63 65  1  0  0  0
 63142  1  0  0  0
 63143  1  0  0  0
 63144  1  0  0  0
 64145  1  0  0  0
 65146  1  0  0  0
 68 85  1  0  0  0
 71 73  2  0  0  0
 71 74  1  0  0  0
 71147  1  0  0  0
 72 73  1  0  0  0
 72 76  2  0  0  0
 72148  1  0  0  0
 73 82  1  0  0  0
 74 75  2  0  0  0
 74 77  1  0  0  0
 75 76  1  0  0  0
 75 78  1  0  0  0
 76 87  1  0  0  0
 77149  1  0  0  0
 77150  1  0  0  0
 77151  1  0  0  0
 78152  1  0  0  0
 78153  1  0  0  0
 78154  1  0  0  0
 79155  1  0  0  0
 79156  1  0  0  0
 79157  1  0  0  0
 79 85  1  0  0  0
 80158  1  0  0  0
 80159  1  0  0  0
 80160  1  0  0  0
 80 86  1  0  0  0
 81 86  1  0  0  0
 81161  1  0  0  0
 81162  1  0  0  0
 81163  1  0  0  0
 82 83  1  0  0  0
 82164  1  0  0  0
 82165  1  0  0  0
 83 86  1  0  0  0
 83166  1  0  0  0
 83167  1  0  0  0
 84 85  1  0  0  0
 84 86  1  0  0  0
 84168  1  0  0  0
 84169  1  0  0  0
 85170  1  0  0  0
 87171  1  0  0  0
M  ISO  4   1 100  68 101  85 101  87 100
M  END
> <chiral flag>
0

> <version>
0

> <s_m_source_file>
/data/baiqing/PycharmProjects/Reinvent-master-3.2/result/LINK_invent/BTK/process_docking_weight1_custom_product_contain_oxygen_bond_distance_aromatic_linkinvent_7_9_3/rearranged_h_0135.sdf

> <i_m_source_file_index>
69

> <r_mmod_Potential_Energy-OPLS-2005>
80.4784622192383

> <r_mmod_Stretch_Energy-OPLS-2005>
62.3830795288086

> <r_mmod_Bend_Energy-OPLS-2005>
158.915954589844

> <r_mmod_Torsional_Energy-OPLS-2005>
264.929260253906

> <r_mmod_Improper_Torsional_Energy-OPLS-2005>
5.53472757339478

> <r_mmod_Van_der_Waal_Energy-OPLS-2005>
154.409683227539

> <r_mmod_Electrostatic_Energy-OPLS-2005>
-398.940582275391

> <r_mmod_Solvation_Energy-OPLS-2005>
-190.176605224609

> <b_mmod_Minimization_Converged-OPLS-2005>
0

> <r_mmod_RMS_Derivative-OPLS-2005>
1.94307112693787

$$$$
69
                    3D
 Structure written by MMmdl.
173183  0  0  1  0            999 V2000
  -30.5858  -14.6231   20.5117 C   0  0  0  0  0  0
  -30.4464  -12.3849   19.4361 C   0  0  0  0  0  0
  -29.5053  -12.5034   18.2156 C   0  0  0  0  0  0
  -28.0274  -12.3440   18.6293 C   0  0  0  0  0  0
  -27.6556  -13.2024   19.8662 C   0  0  2  0  0  0
  -28.6984  -13.0235   20.9910 C   0  0  0  0  0  0
  -25.2581  -13.8134   20.5648 C   0  0  0  0  0  0
  -24.1854  -13.0429   20.9219 C   0  0  0  0  0  0
  -24.6411  -11.6896   20.8782 C   0  0  0  0  0  0
  -23.9077  -10.4277   21.0442 C   0  0  0  0  0  0
  -24.3631   -9.4196   21.9216 C   0  0  0  0  0  0
  -23.6302   -8.2226   22.0765 C   0  0  0  0  0  0
  -22.4283   -8.0280   21.3551 C   0  0  0  0  0  0
  -21.9934   -9.0261   20.4658 C   0  0  0  0  0  0
  -22.7261  -10.2139   20.3084 C   0  0  0  0  0  0
  -21.6843   -6.0753   22.5278 C   0  0  0  0  0  0
  -21.4003   -6.5664   23.8217 C   0  0  0  0  0  0
  -21.3661   -5.6805   24.9187 C   0  0  0  0  0  0
  -21.6035   -4.3066   24.7223 C   0  0  0  0  0  0
  -21.8825   -3.8171   23.4346 C   0  0  0  0  0  0
  -21.9190   -4.6982   22.3407 C   0  0  0  0  0  0
  -22.7879  -13.5240   21.1875 C   0  0  0  0  0  0
  -22.1659   -4.2178   21.0975 F   0  0  0  0  0  0
  -21.5640   -3.4547   25.7739 F   0  0  0  0  0  0
  -30.0128  -13.3807   20.4334 N   0  0  0  0  0  0
  -26.2997  -12.9279   20.3306 N   0  0  0  0  0  0
  -25.9323  -11.6458   20.5777 N   0  0  0  0  0  0
  -22.0518  -12.8208   22.0415 N   0  0  0  0  0  0
  -25.4298  -15.1833   20.3920 N   0  0  0  0  0  0
  -31.7488  -14.8241   20.1471 O   0  0  0  0  0  0
  -21.6636   -6.8899   21.4243 O   0  0  0  0  0  0
  -22.3572  -14.5552   20.6732 O   0  0  0  0  0  0
  -24.6238  -31.8620   23.1992 C   0  0  0  0  0  0
  -25.9093  -32.4767   23.8330 C   0  0  1  0  0  0
  -27.2337  -27.3388   20.1284 C   0  0  0  0  0  0
  -25.5921  -33.8571   24.2273 N   0  0  0  0  0  0
  -23.4158  -30.4845   21.5419 C   0  0  2  0  0  0
  -24.8653  -28.9392   20.1050 C   0  0  0  0  0  0
  -22.7490  -29.4601   22.4916 C   0  0  0  0  0  0
  -18.0294  -28.1411   22.8450 C   0  0  0  0  0  0
  -24.1501  -36.7327   23.2640 C   0  0  0  0  0  0
  -25.9503  -30.8052   21.3580 C   0  0  0  0  0  0
  -26.0296  -29.4281   20.7104 C   0  0  0  0  0  0
  -27.2144  -28.6369   20.7123 C   0  0  0  0  0  0
  -26.0493  -26.8924   19.4959 C   0  0  0  0  0  0
  -24.8754  -27.6762   19.4874 C   0  0  0  0  0  0
  -23.6347  -29.8231   20.1526 C   0  0  0  0  0  0
  -25.4119  -36.3082   24.0323 C   0  0  1  0  0  0
  -20.5881  -28.3695   23.1288 C   0  0  2  0  0  0
  -20.6787  -26.9430   22.5403 C   0  0  0  0  0  0
  -19.5763  -26.6389   21.5211 C   0  0  0  0  0  0
  -18.1938  -26.7952   22.1602 C   0  0  0  0  0  0
  -19.1545  -28.8872   23.2851 C   0  0  0  0  0  0
  -18.9485  -30.1483   23.8873 C   0  0  0  0  0  0
  -17.6484  -30.6620   24.0569 C   0  0  0  0  0  0
  -25.9034  -34.9441   23.5086 C   0  0  0  0  0  0
  -16.5377  -29.9135   23.6312 C   0  0  0  0  0  0
  -16.7275  -28.6559   23.0296 C   0  0  0  0  0  0
  -26.4499  -31.6581   25.0685 C   0  0  0  0  0  0
  -25.3726  -31.3726   26.1418 C   0  0  0  0  0  0
  -27.0337  -30.3033   24.6052 C   0  0  0  0  0  0
  -27.6035  -32.4323   25.7490 C   0  0  0  0  0  0
  -27.5571  -37.1815   24.8460 C   0  0  0  0  0  0
  -21.4200  -29.3067   22.3737 N   0  0  0  0  0  0
  -26.4303  -37.3765   23.9384 N   0  0  0  0  0  0
  -24.6827  -31.0659   22.0925 N   0  0  0  0  0  0
  -23.4241  -28.8092   23.2931 O   0  0  0  0  0  0
  -28.3825  -26.5377   20.1993 O   0  0  0  0  0  0
  -26.5634  -34.8920   22.4663 O   0  0  0  0  0  0
  -23.5412  -32.1384   23.7372 O   0  0  0  0  0  0
  -28.4713  -19.2154   20.9738 C   0  0  0  0  0  0
  -28.5175  -17.7959   20.8742 C   0  0  0  0  0  0
  -30.9096  -17.8671   20.7350 C   0  0  0  0  0  0
  -29.6462  -20.0143   21.0162 C   0  0  0  0  0  0
  -30.8655  -19.2913   20.8497 C   0  0  0  0  0  0
  -29.7381  -17.0784   20.7852 C   0  0  0  0  0  0
  -32.1836  -19.9993   20.9712 C   0  0  0  0  0  0
  -32.4235  -20.3152   22.4429 C   0  0  0  0  0  0
  -31.8858  -21.6954   22.8006 C   0  0  0  0  0  0
  -30.1025  -23.4250   23.1372 C   0  0  0  0  0  0
  -29.1751  -24.2611   22.2331 C   0  0  0  0  0  0
  -29.5255  -22.6664   20.2614 C   0  0  0  0  0  0
  -29.5595  -21.5534   21.4020 C   0  0  2  0  0  0
  -30.3562  -21.9549   22.6978 C   0  0  1  0  0  0
  -29.4661  -24.2148   20.7082 C   0  0  2  0  0  0
  -32.1631  -24.4236   20.6041 C   0  0  0  0  0  0
  -30.7684  -24.9839   20.2846 C   0  0  0  0  0  0
  -28.2998  -25.0742   20.0191 C   0  0  0  0  0  0
  -29.7044  -15.6215   20.8333 N   0  0  0  0  0  0
  -31.4822  -12.5362   19.1255 H   0  0  0  0  0  0
  -30.4031  -11.3805   19.8593 H   0  0  0  0  0  0
  -29.7621  -11.7533   17.4655 H   0  0  0  0  0  0
  -29.6490  -13.4741   17.7372 H   0  0  0  0  0  0
  -27.8551  -11.2908   18.8459 H   0  0  0  0  0  0
  -27.3748  -12.5907   17.7906 H   0  0  0  0  0  0
  -27.6809  -14.2414   19.5375 H   0  0  0  0  0  0
  -28.7116  -11.9906   21.3400 H   0  0  0  0  0  0
  -28.4445  -13.6244   21.8652 H   0  0  0  0  0  0
  -25.2776   -9.5666   22.4807 H   0  0  0  0  0  0
  -24.0019   -7.4610   22.7474 H   0  0  0  0  0  0
  -21.0880   -8.8797   19.8945 H   0  0  0  0  0  0
  -22.3743  -10.9703   19.6210 H   0  0  0  0  0  0
  -21.1984   -7.6165   23.9734 H   0  0  0  0  0  0
  -21.1479   -6.0535   25.9088 H   0  0  0  0  0  0
  -22.0600   -2.7627   23.2830 H   0  0  0  0  0  0
  -22.4114  -11.9828   22.4742 H   0  0  0  0  0  0
  -21.1163  -13.1257   22.2684 H   0  0  0  0  0  0
  -24.6449  -15.8236   20.4525 H   0  0  0  0  0  0
  -26.2338  -15.5865   19.9271 H   0  0  0  0  0  0
  -26.7157  -32.5499   23.1083 H   0  0  0  0  0  0
  -25.0083  -33.9717   25.0420 H   0  0  0  0  0  0
  -22.7069  -31.3042   21.4018 H   0  0  0  0  0  0
  -23.3727  -35.9690   23.3302 H   0  0  0  0  0  0
  -24.3616  -36.8967   22.2059 H   0  0  0  0  0  0
  -23.7316  -37.6538   23.6680 H   0  0  0  0  0  0
  -26.0589  -31.5627   20.5801 H   0  0  0  0  0  0
  -26.8387  -30.8736   21.9739 H   0  0  0  0  0  0
  -28.1080  -29.0107   21.1958 H   0  0  0  0  0  0
  -26.0129  -25.9288   19.0096 H   0  0  0  0  0  0
  -23.9818  -27.3015   19.0039 H   0  0  0  0  0  0
  -23.7649  -30.6097   19.4090 H   0  0  0  0  0  0
  -22.7513  -29.2645   19.8378 H   0  0  0  0  0  0
  -25.1286  -36.1920   25.0820 H   0  0  0  0  0  0
  -20.9945  -28.3300   24.1415 H   0  0  0  0  0  0
  -20.5757  -26.2332   23.3619 H   0  0  0  0  0  0
  -21.6662  -26.7526   22.1165 H   0  0  0  0  0  0
  -19.6951  -25.6293   21.1297 H   0  0  0  0  0  0
  -19.6704  -27.3176   20.6711 H   0  0  0  0  0  0
  -17.4205  -26.6699   21.4002 H   0  0  0  0  0  0
  -18.0296  -26.0125   22.9018 H   0  0  0  0  0  0
  -19.7983  -30.7260   24.2264 H   0  0  0  0  0  0
  -17.5071  -31.6296   24.5194 H   0  0  0  0  0  0
  -15.5386  -30.3032   23.7662 H   0  0  0  0  0  0
  -15.8674  -28.0929   22.6933 H   0  0  0  0  0  0
  -24.5890  -30.7076   25.7745 H   0  0  0  0  0  0
  -24.8931  -32.2916   26.4803 H   0  0  0  0  0  0
  -25.8048  -30.8928   27.0219 H   0  0  0  0  0  0
  -26.2879  -29.6785   24.1116 H   0  0  0  0  0  0
  -27.4154  -29.7259   25.4476 H   0  0  0  0  0  0
  -27.8673  -30.4367   23.9157 H   0  0  0  0  0  0
  -27.2600  -33.3630   26.2029 H   0  0  0  0  0  0
  -28.3876  -32.6900   25.0348 H   0  0  0  0  0  0
  -28.0655  -31.8482   26.5460 H   0  0  0  0  0  0
  -28.2546  -38.0137   24.7473 H   0  0  0  0  0  0
  -28.1099  -36.2660   24.6301 H   0  0  0  0  0  0
  -27.2294  -37.1478   25.8866 H   0  0  0  0  0  0
  -20.9380  -29.8897   21.7045 H   0  0  0  0  0  0
  -26.0173  -38.2826   24.1400 H   0  0  0  0  0  0
  -27.5017  -19.6856   21.0739 H   0  0  0  0  0  0
  -27.5808  -17.2583   20.9058 H   0  0  0  0  0  0
  -31.8726  -17.3807   20.6931 H   0  0  0  0  0  0
  -32.2058  -20.8900   20.3415 H   0  0  0  0  0  0
  -32.9787  -19.3557   20.5959 H   0  0  0  0  0  0
  -33.4999  -20.3180   22.6303 H   0  0  0  0  0  0
  -32.0027  -19.5448   23.0921 H   0  0  0  0  0  0
  -32.4476  -22.4040   22.2066 H   0  0  0  0  0  0
  -32.1889  -21.8980   23.8312 H   0  0  0  0  0  0
  -29.6858  -23.4252   24.1462 H   0  0  0  0  0  0
  -31.0446  -23.9586   23.2567 H   0  0  0  0  0  0
  -29.1835  -25.2971   22.5789 H   0  0  0  0  0  0
  -28.1547  -23.9114   22.4084 H   0  0  0  0  0  0
  -28.6538  -22.4568   19.6413 H   0  0  0  0  0  0
  -30.3665  -22.5101   19.5837 H   0  0  0  0  0  0
  -28.5332  -21.6142   21.7684 H   0  0  0  0  0  0
  -29.9206  -21.3297   23.4797 H   0  0  0  0  0  0
  -32.9303  -25.0189   20.1065 H   0  0  0  0  0  0
  -32.2885  -23.4012   20.2515 H   0  0  0  0  0  0
  -32.3960  -24.4796   21.6635 H   0  0  0  0  0  0
  -30.7406  -25.9928   20.6996 H   0  0  0  0  0  0
  -30.7414  -25.1180   19.2014 H   0  0  0  0  0  0
  -27.3402  -24.7088   20.3856 H   0  0  0  0  0  0
  -28.2904  -24.8813   18.9445 H   0  0  0  0  0  0
  -28.7976  -15.2441   21.0596 H   0  0  0  0  0  0
  1 25  1  0  0  0
  1 30  2  0  0  0
  1 89  1  0  0  0
  2  3  1  0  0  0
  2 25  1  0  0  0
  2 90  1  0  0  0
  2 91  1  0  0  0
  3  4  1  0  0  0
  3 92  1  0  0  0
  3 93  1  0  0  0
  4  5  1  0  0  0
  4 94  1  0  0  0
  4 95  1  0  0  0
  5  6  1  0  0  0
  5 26  1  0  0  0
  5 96  1  0  0  0
  6 25  1  0  0  0
  6 97  1  0  0  0
  6 98  1  0  0  0
  7  8  2  0  0  0
  7 26  1  0  0  0
  7 29  1  0  0  0
  8  9  1  0  0  0
  8 22  1  0  0  0
  9 10  1  0  0  0
  9 27  2  0  0  0
 10 11  2  0  0  0
 10 15  1  0  0  0
 11 12  1  0  0  0
 11 99  1  0  0  0
 12 13  2  0  0  0
 12100  1  0  0  0
 13 14  1  0  0  0
 13 31  1  0  0  0
 14 15  2  0  0  0
 14101  1  0  0  0
 15102  1  0  0  0
 16 17  2  0  0  0
 16 21  1  0  0  0
 16 31  1  0  0  0
 17 18  1  0  0  0
 17103  1  0  0  0
 18 19  2  0  0  0
 18104  1  0  0  0
 19 20  1  0  0  0
 19 24  1  0  0  0
 20 21  2  0  0  0
 20105  1  0  0  0
 21 23  1  0  0  0
 22 28  1  0  0  0
 22 32  2  0  0  0
 26 27  1  0  0  0
 28106  1  0  0  0
 28107  1  0  0  0
 29108  1  0  0  0
 29109  1  0  0  0
 33 34  1  0  0  0
 33 66  1  0  0  0
 33 70  2  0  0  0
 34 36  1  0  0  0
 34 59  1  0  0  0
 34110  1  0  0  0
 35 44  2  0  0  0
 35 45  1  0  0  0
 35 68  1  0  0  0
 36 56  1  0  0  0
 36111  1  0  0  0
 37 39  1  0  0  0
 37 47  1  0  0  0
 37 66  1  0  0  0
 37112  1  0  0  0
 38 43  2  0  0  0
 38 46  1  0  0  0
 38 47  1  0  0  0
 39 64  1  0  0  0
 39 67  2  0  0  0
 40 52  1  0  0  0
 40 53  2  0  0  0
 40 58  1  0  0  0
 41113  1  0  0  0
 41114  1  0  0  0
 41115  1  0  0  0
 41 48  1  0  0  0
 42 43  1  0  0  0
 42 66  1  0  0  0
 42116  1  0  0  0
 42117  1  0  0  0
 43 44  1  0  0  0
 44118  1  0  0  0
 45 46  2  0  0  0
 45119  1  0  0  0
 46120  1  0  0  0
 47121  1  0  0  0
 47122  1  0  0  0
 48 56  1  0  0  0
 48 65  1  0  0  0
 48123  1  0  0  0
 49 50  1  0  0  0
 49 53  1  0  0  0
 49 64  1  0  0  0
 49124  1  0  0  0
 50 51  1  0  0  0
 50125  1  0  0  0
 50126  1  0  0  0
 51 52  1  0  0  0
 51127  1  0  0  0
 51128  1  0  0  0
 52129  1  0  0  0
 52130  1  0  0  0
 53 54  1  0  0  0
 54 55  2  0  0  0
 54131  1  0  0  0
 55 57  1  0  0  0
 55132  1  0  0  0
 56 69  2  0  0  0
 57 58  2  0  0  0
 57133  1  0  0  0
 58134  1  0  0  0
 59 60  1  0  0  0
 59 61  1  0  0  0
 59 62  1  0  0  0
 60135  1  0  0  0
 60136  1  0  0  0
 60137  1  0  0  0
 61138  1  0  0  0
 61139  1  0  0  0
 61140  1  0  0  0
 62141  1  0  0  0
 62142  1  0  0  0
 62143  1  0  0  0
 63 65  1  0  0  0
 63144  1  0  0  0
 63145  1  0  0  0
 63146  1  0  0  0
 64147  1  0  0  0
 65148  1  0  0  0
 68 88  1  0  0  0
 71 72  2  0  0  0
 71 74  1  0  0  0
 71149  1  0  0  0
 72 76  1  0  0  0
 72150  1  0  0  0
 73 75  1  0  0  0
 73 76  2  0  0  0
 73151  1  0  0  0
 74 75  2  0  0  0
 74 83  1  0  0  0
 75 77  1  0  0  0
 76 89  1  0  0  0
 77 78  1  0  0  0
 77152  1  0  0  0
 77153  1  0  0  0
 78 79  1  0  0  0
 78154  1  0  0  0
 78155  1  0  0  0
 79156  1  0  0  0
 79157  1  0  0  0
 79 84  1  0  0  0
 80 81  1  0  0  0
 80 84  1  0  0  0
 80158  1  0  0  0
 80159  1  0  0  0
 81 85  1  0  0  0
 81160  1  0  0  0
 81161  1  0  0  0
 82 85  1  0  0  0
 82162  1  0  0  0
 82163  1  0  0  0
 82 83  1  0  0  0
 83 84  1  0  0  0
 83164  1  0  0  0
 84165  1  0  0  0
 85 87  1  0  0  0
 85 88  1  0  0  0
 86 87  1  0  0  0
 86166  1  0  0  0
 86167  1  0  0  0
 86168  1  0  0  0
 87169  1  0  0  0
 87170  1  0  0  0
 88171  1  0  0  0
 88172  1  0  0  0
 89173  1  0  0  0
M  ISO  4   1 100  68 101  88 101  89 100
M  END
> <chiral flag>
0

> <version>
0

> <s_m_source_file>
/data/baiqing/PycharmProjects/Reinvent-master-3.2/result/LINK_invent/BTK/process_docking_weight1_custom_product_contain_oxygen_bond_distance_aromatic_linkinvent_7_9_3/rearranged_h_0135.sdf

> <i_m_source_file_index>
70

> <r_mmod_Potential_Energy-OPLS-2005>
221.32307434082

> <r_mmod_Stretch_Energy-OPLS-2005>
89.5428695678711

> <r_mmod_Bend_Energy-OPLS-2005>
190.187911987305

> <r_mmod_Torsional_Energy-OPLS-2005>
304.410888671875

> <r_mmod_Improper_Torsional_Energy-OPLS-2005>
6.95761060714722

> <r_mmod_Van_der_Waal_Energy-OPLS-2005>
154.941772460938

> <r_mmod_Electrostatic_Energy-OPLS-2005>
-375.288543701172

> <r_mmod_Solvation_Energy-OPLS-2005>
-192.146728515625

> <b_mmod_Minimization_Converged-OPLS-2005>
0

> <r_mmod_RMS_Derivative-OPLS-2005>
4.24348735809326

$$$$
70
                    3D
 Structure written by MMmdl.
163171  0  0  1  0            999 V2000
  -30.7597  -14.5119   20.5692 C   0  0  0  0  0  0
  -30.4066  -12.3273   19.4564 C   0  0  0  0  0  0
  -29.4991  -12.5088   18.2274 C   0  0  0  0  0  0
  -28.0187  -12.3827   18.6337 C   0  0  0  0  0  0
  -27.6599  -13.2310   19.8833 C   0  0  2  0  0  0
  -28.7080  -13.0699   21.0117 C   0  0  0  0  0  0
  -25.2519  -13.8192   20.5688 C   0  0  0  0  0  0
  -24.1804  -13.0428   20.9152 C   0  0  0  0  0  0
  -24.6432  -11.6908   20.8729 C   0  0  0  0  0  0
  -23.9111  -10.4285   21.0412 C   0  0  0  0  0  0
  -24.3657   -9.4185   21.9185 C   0  0  0  0  0  0
  -23.6315   -8.2219   22.0756 C   0  0  0  0  0  0
  -22.4296   -8.0274   21.3553 C   0  0  0  0  0  0
  -21.9952   -9.0245   20.4647 C   0  0  0  0  0  0
  -22.7292  -10.2122   20.3052 C   0  0  0  0  0  0
  -21.6866   -6.0742   22.5280 C   0  0  0  0  0  0
  -21.4024   -6.5648   23.8217 C   0  0  0  0  0  0
  -21.3646   -5.6804   24.9175 C   0  0  0  0  0  0
  -21.6032   -4.3063   24.7233 C   0  0  0  0  0  0
  -21.8814   -3.8155   23.4359 C   0  0  0  0  0  0
  -21.9201   -4.6956   22.3412 C   0  0  0  0  0  0
  -22.7832  -13.5169   21.1860 C   0  0  0  0  0  0
  -22.1645   -4.2134   21.0988 F   0  0  0  0  0  0
  -21.5619   -3.4556   25.7749 F   0  0  0  0  0  0
  -30.0353  -13.3555   20.4487 N   0  0  0  0  0  0
  -26.3032  -12.9433   20.3454 N   0  0  0  0  0  0
  -25.9377  -11.6570   20.5823 N   0  0  0  0  0  0
  -22.0518  -12.8136   22.0417 N   0  0  0  0  0  0
  -25.4167  -15.1924   20.4048 N   0  0  0  0  0  0
  -31.8679  -14.6074   20.0440 O   0  0  0  0  0  0
  -21.6631   -6.8888   21.4257 O   0  0  0  0  0  0
  -22.3499  -14.5515   20.6793 O   0  0  0  0  0  0
  -24.6151  -31.8725   23.2067 C   0  0  0  0  0  0
  -25.9048  -32.4820   23.8401 C   0  0  1  0  0  0
  -27.2196  -27.4145   20.1453 C   0  0  0  0  0  0
  -25.5896  -33.8625   24.2339 N   0  0  0  0  0  0
  -23.4080  -30.5009   21.5470 C   0  0  2  0  0  0
  -24.8510  -28.9589   20.1132 C   0  0  0  0  0  0
  -22.7437  -29.4874   22.5031 C   0  0  0  0  0  0
  -18.0082  -28.1558   22.8214 C   0  0  0  0  0  0
  -24.1485  -36.7338   23.2641 C   0  0  0  0  0  0
  -25.9350  -30.8383   21.3598 C   0  0  0  0  0  0
  -26.0107  -29.4669   20.7181 C   0  0  0  0  0  0
  -27.2013  -28.7006   20.7304 C   0  0  0  0  0  0
  -26.0590  -26.9397   19.5019 C   0  0  0  0  0  0
  -24.8746  -27.6969   19.4943 C   0  0  0  0  0  0
  -23.6111  -29.8232   20.1648 C   0  0  0  0  0  0
  -25.4086  -36.3102   24.0349 C   0  0  1  0  0  0
  -20.5917  -28.3759   23.1079 C   0  0  2  0  0  0
  -20.7723  -26.9776   22.4567 C   0  0  0  0  0  0
  -19.5424  -26.4216   21.7058 C   0  0  0  0  0  0
  -18.1024  -26.8638   22.0208 C   0  0  0  0  0  0
  -19.1482  -28.8769   23.2751 C   0  0  0  0  0  0
  -18.9507  -30.1276   23.9025 C   0  0  0  0  0  0
  -17.6572  -30.6539   24.0822 C   0  0  0  0  0  0
  -25.9024  -34.9463   23.5125 C   0  0  0  0  0  0
  -16.5371  -29.9224   23.6569 C   0  0  0  0  0  0
  -16.7160  -28.6764   23.0357 C   0  0  0  0  0  0
  -26.4467  -31.6559   25.0723 C   0  0  0  0  0  0
  -25.3766  -31.3631   26.1487 C   0  0  0  0  0  0
  -27.0303  -30.2982   24.6112 C   0  0  0  0  0  0
  -27.6036  -32.4284   25.7490 C   0  0  0  0  0  0
  -27.5569  -37.1808   24.8477 C   0  0  0  0  0  0
  -21.4130  -29.3488   22.3922 N   0  0  0  0  0  0
  -26.4272  -37.3787   23.9442 N   0  0  0  0  0  0
  -24.6723  -31.0854   22.0953 N   0  0  0  0  0  0
  -23.4189  -28.8209   23.2916 O   0  0  0  0  0  0
  -28.3388  -26.6136   20.1917 O   0  0  0  0  0  0
  -26.5618  -34.8904   22.4710 O   0  0  0  0  0  0
  -23.5316  -32.1494   23.7416 O   0  0  0  0  0  0
  -31.6817  -19.5899   21.6285 C   0  0  0  0  0  0
  -29.8023  -18.0518   21.5082 C   0  0  0  0  0  0
  -32.0796  -17.2100   21.3148 C   0  0  0  0  0  0
  -30.2871  -19.3890   21.6772 C   0  0  0  0  0  0
  -32.5721  -18.5204   21.4423 C   0  0  0  0  0  0
  -30.6861  -16.9372   21.3211 C   0  0  0  0  0  0
  -29.4208  -20.5899   21.9179 C   0  0  0  0  0  0
  -29.7650  -21.8699   21.6007 C   0  0  0  0  0  0
  -34.0628  -18.7984   21.3919 C   0  0  0  0  0  0
  -29.6473  -24.1559   19.6660 C   0  0  0  0  0  0
  -27.2686  -23.5444   20.2642 C   0  0  0  0  0  0
  -29.0654  -23.2006   21.9716 C   0  0  0  0  0  0
  -28.3603  -25.6288   21.2596 C   0  0  0  0  0  0
  -28.5923  -24.1370   20.7918 C   0  0  0  0  0  0
  -30.1702  -15.5818   21.1727 N   0  0  0  0  0  0
  -31.4595  -12.3693   19.1703 H   0  0  0  0  0  0
  -30.2610  -11.3346   19.8818 H   0  0  0  0  0  0
  -29.7418  -11.7760   17.4597 H   0  0  0  0  0  0
  -29.6789  -13.4860   17.7790 H   0  0  0  0  0  0
  -27.8191  -11.3280   18.8289 H   0  0  0  0  0  0
  -27.3761  -12.6622   17.7982 H   0  0  0  0  0  0
  -27.6828  -14.2727   19.5586 H   0  0  0  0  0  0
  -28.6878  -12.0514   21.4008 H   0  0  0  0  0  0
  -28.4855  -13.7213   21.8598 H   0  0  0  0  0  0
  -25.2829   -9.5614   22.4735 H   0  0  0  0  0  0
  -23.9999   -7.4618   22.7513 H   0  0  0  0  0  0
  -21.0865   -8.8788   19.8974 H   0  0  0  0  0  0
  -22.3781  -10.9641   19.6126 H   0  0  0  0  0  0
  -21.2015   -7.6160   23.9701 H   0  0  0  0  0  0
  -21.1487   -6.0552   25.9077 H   0  0  0  0  0  0
  -22.0620   -2.7614   23.2886 H   0  0  0  0  0  0
  -22.4210  -11.9797   22.4761 H   0  0  0  0  0  0
  -21.1124  -13.1101   22.2666 H   0  0  0  0  0  0
  -24.6536  -15.8500   20.5165 H   0  0  0  0  0  0
  -26.2685  -15.6326   20.0823 H   0  0  0  0  0  0
  -26.7162  -32.5547   23.1193 H   0  0  0  0  0  0
  -24.9986  -33.9815   25.0426 H   0  0  0  0  0  0
  -22.7038  -31.3206   21.3987 H   0  0  0  0  0  0
  -23.3729  -35.9690   23.3296 H   0  0  0  0  0  0
  -24.3585  -36.8969   22.2062 H   0  0  0  0  0  0
  -23.7250  -37.6543   23.6668 H   0  0  0  0  0  0
  -26.0386  -31.6071   20.5915 H   0  0  0  0  0  0
  -26.8246  -30.8981   21.9735 H   0  0  0  0  0  0
  -28.0895  -29.0847   21.2092 H   0  0  0  0  0  0
  -26.0581  -25.9737   19.0232 H   0  0  0  0  0  0
  -23.9911  -27.3025   19.0123 H   0  0  0  0  0  0
  -23.7129  -30.5948   19.4013 H   0  0  0  0  0  0
  -22.7353  -29.2374   19.8783 H   0  0  0  0  0  0
  -25.1240  -36.1953   25.0842 H   0  0  0  0  0  0
  -20.9826  -28.3146   24.1256 H   0  0  0  0  0  0
  -21.1588  -26.2963   23.2249 H   0  0  0  0  0  0
  -21.6065  -26.9970   21.7513 H   0  0  0  0  0  0
  -19.3781  -26.0163   22.7053 H   0  0  0  0  0  0
  -19.5977  -27.3483   21.1308 H   0  0  0  0  0  0
  -17.5732  -27.0198   21.0777 H   0  0  0  0  0  0
  -17.4957  -26.0975   22.5232 H   0  0  0  0  0  0
  -19.8037  -30.6948   24.2497 H   0  0  0  0  0  0
  -17.5285  -31.6144   24.5611 H   0  0  0  0  0  0
  -15.5420  -30.3203   23.8004 H   0  0  0  0  0  0
  -15.8500  -28.1314   22.6843 H   0  0  0  0  0  0
  -24.5952  -30.6953   25.7861 H   0  0  0  0  0  0
  -24.8937  -32.2763   26.4977 H   0  0  0  0  0  0
  -25.8156  -30.8799   27.0236 H   0  0  0  0  0  0
  -26.2854  -29.6725   24.1179 H   0  0  0  0  0  0
  -27.4089  -29.7182   25.4550 H   0  0  0  0  0  0
  -27.8676  -30.4279   23.9246 H   0  0  0  0  0  0
  -27.2667  -33.3585   26.2068 H   0  0  0  0  0  0
  -28.3836  -32.6859   25.0327 H   0  0  0  0  0  0
  -28.0739  -31.8442   26.5408 H   0  0  0  0  0  0
  -28.2565  -38.0114   24.7509 H   0  0  0  0  0  0
  -28.1075  -36.2652   24.6282 H   0  0  0  0  0  0
  -27.2326  -37.1423   25.8885 H   0  0  0  0  0  0
  -20.9270  -29.9417   21.7336 H   0  0  0  0  0  0
  -26.0157  -38.2876   24.1412 H   0  0  0  0  0  0
  -32.1041  -20.5729   21.7738 H   0  0  0  0  0  0
  -28.7351  -17.8786   21.5220 H   0  0  0  0  0  0
  -32.8133  -16.4248   21.2089 H   0  0  0  0  0  0
  -28.4932  -20.4055   22.4456 H   0  0  0  0  0  0
  -30.6787  -22.0160   21.0419 H   0  0  0  0  0  0
  -34.4116  -19.2066   22.3401 H   0  0  0  0  0  0
  -34.2853  -19.5279   20.6115 H   0  0  0  0  0  0
  -34.6383  -17.8940   21.1854 H   0  0  0  0  0  0
  -29.7902  -23.1716   19.2194 H   0  0  0  0  0  0
  -30.6121  -24.5067   20.0320 H   0  0  0  0  0  0
  -29.3462  -24.8214   18.8558 H   0  0  0  0  0  0
  -26.4843  -23.6147   21.0182 H   0  0  0  0  0  0
  -26.9157  -24.0395   19.3645 H   0  0  0  0  0  0
  -27.3744  -22.4867   20.0198 H   0  0  0  0  0  0
  -29.8044  -23.7485   22.5580 H   0  0  0  0  0  0
  -28.2445  -22.9971   22.6630 H   0  0  0  0  0  0
  -27.4623  -25.6994   21.8839 H   0  0  0  0  0  0
  -29.1715  -25.9359   21.9215 H   0  0  0  0  0  0
  -29.2270  -15.4234   21.4870 H   0  0  0  0  0  0
  1 25  1  0  0  0
  1 30  2  0  0  0
  1 85  1  0  0  0
  2  3  1  0  0  0
  2 25  1  0  0  0
  2 86  1  0  0  0
  2 87  1  0  0  0
  3  4  1  0  0  0
  3 88  1  0  0  0
  3 89  1  0  0  0
  4  5  1  0  0  0
  4 90  1  0  0  0
  4 91  1  0  0  0
  5  6  1  0  0  0
  5 26  1  0  0  0
  5 92  1  0  0  0
  6 25  1  0  0  0
  6 93  1  0  0  0
  6 94  1  0  0  0
  7  8  2  0  0  0
  7 26  1  0  0  0
  7 29  1  0  0  0
  8  9  1  0  0  0
  8 22  1  0  0  0
  9 10  1  0  0  0
  9 27  2  0  0  0
 10 11  2  0  0  0
 10 15  1  0  0  0
 11 12  1  0  0  0
 11 95  1  0  0  0
 12 13  2  0  0  0
 12 96  1  0  0  0
 13 14  1  0  0  0
 13 31  1  0  0  0
 14 15  2  0  0  0
 14 97  1  0  0  0
 15 98  1  0  0  0
 16 17  2  0  0  0
 16 21  1  0  0  0
 16 31  1  0  0  0
 17 18  1  0  0  0
 17 99  1  0  0  0
 18 19  2  0  0  0
 18100  1  0  0  0
 19 20  1  0  0  0
 19 24  1  0  0  0
 20 21  2  0  0  0
 20101  1  0  0  0
 21 23  1  0  0  0
 22 28  1  0  0  0
 22 32  2  0  0  0
 26 27  1  0  0  0
 28102  1  0  0  0
 28103  1  0  0  0
 29104  1  0  0  0
 29105  1  0  0  0
 33 34  1  0  0  0
 33 66  1  0  0  0
 33 70  2  0  0  0
 34 36  1  0  0  0
 34 59  1  0  0  0
 34106  1  0  0  0
 35 44  2  0  0  0
 35 45  1  0  0  0
 35 68  1  0  0  0
 36 56  1  0  0  0
 36107  1  0  0  0
 37 39  1  0  0  0
 37 47  1  0  0  0
 37 66  1  0  0  0
 37108  1  0  0  0
 38 43  2  0  0  0
 38 46  1  0  0  0
 38 47  1  0  0  0
 39 64  1  0  0  0
 39 67  2  0  0  0
 40 52  1  0  0  0
 40 53  2  0  0  0
 40 58  1  0  0  0
 41109  1  0  0  0
 41110  1  0  0  0
 41111  1  0  0  0
 41 48  1  0  0  0
 42 43  1  0  0  0
 42 66  1  0  0  0
 42112  1  0  0  0
 42113  1  0  0  0
 43 44  1  0  0  0
 44114  1  0  0  0
 45 46  2  0  0  0
 45115  1  0  0  0
 46116  1  0  0  0
 47117  1  0  0  0
 47118  1  0  0  0
 48 56  1  0  0  0
 48 65  1  0  0  0
 48119  1  0  0  0
 49 50  1  0  0  0
 49 53  1  0  0  0
 49 64  1  0  0  0
 49120  1  0  0  0
 50 51  1  0  0  0
 50121  1  0  0  0
 50122  1  0  0  0
 51 52  1  0  0  0
 51123  1  0  0  0
 51124  1  0  0  0
 52125  1  0  0  0
 52126  1  0  0  0
 53 54  1  0  0  0
 54 55  2  0  0  0
 54127  1  0  0  0
 55 57  1  0  0  0
 55128  1  0  0  0
 56 69  2  0  0  0
 57 58  2  0  0  0
 57129  1  0  0  0
 58130  1  0  0  0
 59 60  1  0  0  0
 59 61  1  0  0  0
 59 62  1  0  0  0
 60131  1  0  0  0
 60132  1  0  0  0
 60133  1  0  0  0
 61134  1  0  0  0
 61135  1  0  0  0
 61136  1  0  0  0
 62137  1  0  0  0
 62138  1  0  0  0
 62139  1  0  0  0
 63 65  1  0  0  0
 63140  1  0  0  0
 63141  1  0  0  0
 63142  1  0  0  0
 64143  1  0  0  0
 65144  1  0  0  0
 68 83  1  0  0  0
 71 74  2  0  0  0
 71 75  1  0  0  0
 71145  1  0  0  0
 72 74  1  0  0  0
 72 76  2  0  0  0
 72146  1  0  0  0
 73 75  2  0  0  0
 73 76  1  0  0  0
 73147  1  0  0  0
 74 77  1  0  0  0
 75 79  1  0  0  0
 76 85  1  0  0  0
 77 78  2  0  0  0
 77148  1  0  0  0
 78 82  1  0  0  0
 78149  1  0  0  0
 79150  1  0  0  0
 79151  1  0  0  0
 79152  1  0  0  0
 80153  1  0  0  0
 80154  1  0  0  0
 80155  1  0  0  0
 80 84  1  0  0  0
 81 84  1  0  0  0
 81156  1  0  0  0
 81157  1  0  0  0
 81158  1  0  0  0
 82 84  1  0  0  0
 82159  1  0  0  0
 82160  1  0  0  0
 83 84  1  0  0  0
 83161  1  0  0  0
 83162  1  0  0  0
 85163  1  0  0  0
M  ISO  4   1 100  68 101  83 101  85 100
M  END
> <chiral flag>
0

> <version>
0

> <s_m_source_file>
/data/baiqing/PycharmProjects/Reinvent-master-3.2/result/LINK_invent/BTK/process_docking_weight1_custom_product_contain_oxygen_bond_distance_aromatic_linkinvent_7_9_3/rearranged_h_0135.sdf

> <i_m_source_file_index>
71

> <r_mmod_Potential_Energy-OPLS-2005>
336.405944824219

> <r_mmod_Stretch_Energy-OPLS-2005>
57.5309906005859

> <r_mmod_Bend_Energy-OPLS-2005>
350.565734863281

> <r_mmod_Torsional_Energy-OPLS-2005>
263.451141357422

> <r_mmod_Improper_Torsional_Energy-OPLS-2005>
3.94056391716003

> <r_mmod_Van_der_Waal_Energy-OPLS-2005>
181.171798706055

> <r_mmod_Electrostatic_Energy-OPLS-2005>
-365.237884521484

> <r_mmod_Solvation_Energy-OPLS-2005>
-191.650238037109

> <b_mmod_Minimization_Converged-OPLS-2005>
0

> <r_mmod_RMS_Derivative-OPLS-2005>
5.09674692153931

$$$$
71
                    3D
 Structure written by MMmdl.
159167  0  0  1  0            999 V2000
  -30.6437  -14.6088   20.5076 C   0  0  0  0  0  0
  -30.4326  -12.3742   19.4468 C   0  0  0  0  0  0
  -29.5026  -12.5014   18.2198 C   0  0  0  0  0  0
  -28.0253  -12.3481   18.6317 C   0  0  0  0  0  0
  -27.6542  -13.2151   19.8651 C   0  0  2  0  0  0
  -28.6998  -13.0594   20.9929 C   0  0  0  0  0  0
  -25.2570  -13.8169   20.5703 C   0  0  0  0  0  0
  -24.1826  -13.0435   20.9177 C   0  0  0  0  0  0
  -24.6392  -11.6904   20.8722 C   0  0  0  0  0  0
  -23.9060  -10.4289   21.0392 C   0  0  0  0  0  0
  -24.3613   -9.4212   21.9175 C   0  0  0  0  0  0
  -23.6292   -8.2246   22.0753 C   0  0  0  0  0  0
  -22.4274   -8.0281   21.3542 C   0  0  0  0  0  0
  -21.9907   -9.0250   20.4640 C   0  0  0  0  0  0
  -22.7231  -10.2131   20.3047 C   0  0  0  0  0  0
  -21.6856   -6.0738   22.5280 C   0  0  0  0  0  0
  -21.4011   -6.5643   23.8211 C   0  0  0  0  0  0
  -21.3662   -5.6796   24.9174 C   0  0  0  0  0  0
  -21.6040   -4.3057   24.7224 C   0  0  0  0  0  0
  -21.8821   -3.8153   23.4344 C   0  0  0  0  0  0
  -21.9193   -4.6968   22.3402 C   0  0  0  0  0  0
  -22.7849  -13.5227   21.1848 C   0  0  0  0  0  0
  -22.1664   -4.2158   21.0978 F   0  0  0  0  0  0
  -21.5631   -3.4542   25.7733 F   0  0  0  0  0  0
  -30.0180  -13.3929   20.4307 N   0  0  0  0  0  0
  -26.2998  -12.9346   20.3348 N   0  0  0  0  0  0
  -25.9321  -11.6498   20.5754 N   0  0  0  0  0  0
  -22.0494  -12.8214   22.0403 N   0  0  0  0  0  0
  -25.4291  -15.1891   20.4196 N   0  0  0  0  0  0
  -31.8042  -14.7568   20.1152 O   0  0  0  0  0  0
  -21.6639   -6.8876   21.4240 O   0  0  0  0  0  0
  -22.3528  -14.5538   20.6713 O   0  0  0  0  0  0
  -24.6227  -31.8627   23.2065 C   0  0  0  0  0  0
  -25.9084  -32.4800   23.8373 C   0  0  1  0  0  0
  -27.2180  -27.3429   20.1219 C   0  0  0  0  0  0
  -25.5919  -33.8599   24.2299 N   0  0  0  0  0  0
  -23.4171  -30.4863   21.5469 C   0  0  2  0  0  0
  -24.8648  -28.9486   20.1086 C   0  0  0  0  0  0
  -22.7467  -29.4629   22.4954 C   0  0  0  0  0  0
  -18.0291  -28.1390   22.8465 C   0  0  0  0  0  0
  -24.1498  -36.7287   23.2640 C   0  0  0  0  0  0
  -25.9560  -30.7981   21.3783 C   0  0  0  0  0  0
  -26.0294  -29.4272   20.7240 C   0  0  0  0  0  0
  -27.2119  -28.6320   20.7268 C   0  0  0  0  0  0
  -26.0492  -26.9324   19.4470 C   0  0  0  0  0  0
  -24.8743  -27.7043   19.4610 C   0  0  0  0  0  0
  -23.6312  -29.8245   20.1607 C   0  0  0  0  0  0
  -25.4119  -36.3086   24.0338 C   0  0  1  0  0  0
  -20.5892  -28.3669   23.1293 C   0  0  2  0  0  0
  -20.6793  -26.9399   22.5413 C   0  0  0  0  0  0
  -19.5767  -26.6384   21.5218 C   0  0  0  0  0  0
  -18.1940  -26.7932   22.1611 C   0  0  0  0  0  0
  -19.1547  -28.8846   23.2875 C   0  0  0  0  0  0
  -18.9471  -30.1449   23.8884 C   0  0  0  0  0  0
  -17.6474  -30.6585   24.0551 C   0  0  0  0  0  0
  -25.9045  -34.9459   23.5115 C   0  0  0  0  0  0
  -16.5361  -29.9077   23.6335 C   0  0  0  0  0  0
  -16.7278  -28.6506   23.0331 C   0  0  0  0  0  0
  -26.4488  -31.6599   25.0731 C   0  0  0  0  0  0
  -25.3724  -31.3729   26.1456 C   0  0  0  0  0  0
  -27.0325  -30.3023   24.6162 C   0  0  0  0  0  0
  -27.6056  -32.4324   25.7499 C   0  0  0  0  0  0
  -27.5577  -37.1800   24.8468 C   0  0  0  0  0  0
  -21.4186  -29.3021   22.3679 N   0  0  0  0  0  0
  -26.4294  -37.3779   23.9409 N   0  0  0  0  0  0
  -24.6833  -31.0661   22.1008 N   0  0  0  0  0  0
  -23.4205  -28.8175   23.3027 O   0  0  0  0  0  0
  -28.3274  -26.4912   20.1203 O   0  0  0  0  0  0
  -26.5617  -34.8921   22.4676 O   0  0  0  0  0  0
  -23.5393  -32.1423   23.7393 O   0  0  0  0  0  0
  -31.1642  -19.1908   20.0753 C   0  0  0  0  0  0
  -31.1505  -17.7776   20.2474 C   0  0  0  0  0  0
  -28.8882  -19.3387   20.8231 C   0  0  0  0  0  0
  -30.0370  -20.0226   20.3466 C   0  0  0  0  0  0
  -29.9902  -17.1032   20.7039 C   0  0  0  0  0  0
  -28.8663  -17.9226   20.9920 C   0  0  0  0  0  0
  -30.0961  -21.5322   20.0668 C   0  0  0  0  0  0
  -26.8949  -24.6500   21.1770 C   0  0  0  0  0  0
  -28.9690  -25.5848   22.2094 C   0  0  0  0  0  0
  -29.1566  -22.5822   20.7537 C   0  0  0  0  0  0
  -29.1429  -24.0662   20.1477 C   0  0  0  0  0  0
  -28.3061  -25.2100   20.8735 C   0  0  0  0  0  0
  -30.9616  -21.9793   19.2573 N   0  0  0  0  0  0
  -29.8598  -15.6613   20.8871 N   0  0  0  0  0  0
  -27.7274  -17.3276   21.4243 F   0  0  0  0  0  0
  -31.4747  -12.4910   19.1420 H   0  0  0  0  0  0
  -30.3601  -11.3759   19.8817 H   0  0  0  0  0  0
  -29.7598  -11.7492   17.4724 H   0  0  0  0  0  0
  -29.6508  -13.4705   17.7407 H   0  0  0  0  0  0
  -27.8536  -11.2942   18.8551 H   0  0  0  0  0  0
  -27.3719  -12.5869   17.7917 H   0  0  0  0  0  0
  -27.6753  -14.2522   19.5310 H   0  0  0  0  0  0
  -28.7035  -12.0356   21.3698 H   0  0  0  0  0  0
  -28.4498  -13.6884   21.8486 H   0  0  0  0  0  0
  -25.2758   -9.5698   22.4748 H   0  0  0  0  0  0
  -24.0013   -7.4636   22.7466 H   0  0  0  0  0  0
  -21.0847   -8.8747   19.8940 H   0  0  0  0  0  0
  -22.3677  -10.9663   19.6155 H   0  0  0  0  0  0
  -21.1999   -7.6149   23.9718 H   0  0  0  0  0  0
  -21.1485   -6.0525   25.9078 H   0  0  0  0  0  0
  -22.0598   -2.7616   23.2836 H   0  0  0  0  0  0
  -22.4122  -11.9875   22.4783 H   0  0  0  0  0  0
  -21.1104  -13.1222   22.2599 H   0  0  0  0  0  0
  -24.6730  -15.8461   20.5750 H   0  0  0  0  0  0
  -26.3042  -15.6451   20.1969 H   0  0  0  0  0  0
  -26.7143  -32.5471   23.1107 H   0  0  0  0  0  0
  -25.0091  -33.9746   25.0457 H   0  0  0  0  0  0
  -22.7105  -31.3066   21.4053 H   0  0  0  0  0  0
  -23.3768  -35.9609   23.3311 H   0  0  0  0  0  0
  -24.3596  -36.8903   22.2057 H   0  0  0  0  0  0
  -23.7264  -37.6493   23.6653 H   0  0  0  0  0  0
  -26.0922  -31.5605   20.6107 H   0  0  0  0  0  0
  -26.8355  -30.8441   22.0095 H   0  0  0  0  0  0
  -28.1061  -28.9910   21.2155 H   0  0  0  0  0  0
  -26.0371  -25.9907   18.9197 H   0  0  0  0  0  0
  -23.9878  -27.3405   18.9598 H   0  0  0  0  0  0
  -23.7476  -30.6017   19.4053 H   0  0  0  0  0  0
  -22.7547  -29.2495   19.8572 H   0  0  0  0  0  0
  -25.1309  -36.1927   25.0836 H   0  0  0  0  0  0
  -20.9972  -28.3215   24.1421 H   0  0  0  0  0  0
  -20.5728  -26.2262   23.3592 H   0  0  0  0  0  0
  -21.6656  -26.7456   22.1186 H   0  0  0  0  0  0
  -19.6942  -25.6303   21.1232 H   0  0  0  0  0  0
  -19.6727  -27.3193   20.6751 H   0  0  0  0  0  0
  -17.4230  -26.6677   21.3997 H   0  0  0  0  0  0
  -18.0313  -26.0094   22.9025 H   0  0  0  0  0  0
  -19.7953  -30.7264   24.2247 H   0  0  0  0  0  0
  -17.5035  -31.6264   24.5144 H   0  0  0  0  0  0
  -15.5357  -30.2971   23.7689 H   0  0  0  0  0  0
  -15.8683  -28.0829   22.7040 H   0  0  0  0  0  0
  -24.5912  -30.7078   25.7760 H   0  0  0  0  0  0
  -24.8904  -32.2899   26.4845 H   0  0  0  0  0  0
  -25.8040  -30.8917   27.0238 H   0  0  0  0  0  0
  -26.2879  -29.6786   24.1198 H   0  0  0  0  0  0
  -27.4064  -29.7263   25.4637 H   0  0  0  0  0  0
  -27.8734  -30.4334   23.9354 H   0  0  0  0  0  0
  -27.2682  -33.3643   26.2032 H   0  0  0  0  0  0
  -28.3870  -32.6849   25.0329 H   0  0  0  0  0  0
  -28.0699  -31.8480   26.5448 H   0  0  0  0  0  0
  -28.2592  -38.0095   24.7509 H   0  0  0  0  0  0
  -28.1091  -36.2634   24.6307 H   0  0  0  0  0  0
  -27.2303  -37.1456   25.8874 H   0  0  0  0  0  0
  -20.9366  -29.8723   21.6871 H   0  0  0  0  0  0
  -26.0181  -38.2854   24.1412 H   0  0  0  0  0  0
  -32.0813  -19.6370   19.7156 H   0  0  0  0  0  0
  -32.0489  -17.2261   20.0111 H   0  0  0  0  0  0
  -27.9897  -19.8947   21.0438 H   0  0  0  0  0  0
  -26.9456  -23.8087   21.8676 H   0  0  0  0  0  0
  -26.4002  -24.2865   20.2766 H   0  0  0  0  0  0
  -26.2460  -25.3832   21.6557 H   0  0  0  0  0  0
  -29.0736  -24.7225   22.8673 H   0  0  0  0  0  0
  -28.3798  -26.3317   22.7442 H   0  0  0  0  0  0
  -29.9619  -26.0071   22.0552 H   0  0  0  0  0  0
  -29.4368  -22.6290   21.8059 H   0  0  0  0  0  0
  -28.1424  -22.1850   20.7292 H   0  0  0  0  0  0
  -28.7880  -23.9940   19.1192 H   0  0  0  0  0  0
  -30.1730  -24.4185   20.0665 H   0  0  0  0  0  0
  -31.5272  -21.2348   18.8668 H   0  0  0  0  0  0
  -28.9486  -15.3840   21.2205 H   0  0  0  0  0  0
  1 25  1  0  0  0
  1 30  2  0  0  0
  1 84  1  0  0  0
  2  3  1  0  0  0
  2 25  1  0  0  0
  2 86  1  0  0  0
  2 87  1  0  0  0
  3  4  1  0  0  0
  3 88  1  0  0  0
  3 89  1  0  0  0
  4  5  1  0  0  0
  4 90  1  0  0  0
  4 91  1  0  0  0
  5  6  1  0  0  0
  5 26  1  0  0  0
  5 92  1  0  0  0
  6 25  1  0  0  0
  6 93  1  0  0  0
  6 94  1  0  0  0
  7  8  2  0  0  0
  7 26  1  0  0  0
  7 29  1  0  0  0
  8  9  1  0  0  0
  8 22  1  0  0  0
  9 10  1  0  0  0
  9 27  2  0  0  0
 10 11  2  0  0  0
 10 15  1  0  0  0
 11 12  1  0  0  0
 11 95  1  0  0  0
 12 13  2  0  0  0
 12 96  1  0  0  0
 13 14  1  0  0  0
 13 31  1  0  0  0
 14 15  2  0  0  0
 14 97  1  0  0  0
 15 98  1  0  0  0
 16 17  2  0  0  0
 16 21  1  0  0  0
 16 31  1  0  0  0
 17 18  1  0  0  0
 17 99  1  0  0  0
 18 19  2  0  0  0
 18100  1  0  0  0
 19 20  1  0  0  0
 19 24  1  0  0  0
 20 21  2  0  0  0
 20101  1  0  0  0
 21 23  1  0  0  0
 22 28  1  0  0  0
 22 32  2  0  0  0
 26 27  1  0  0  0
 28102  1  0  0  0
 28103  1  0  0  0
 29104  1  0  0  0
 29105  1  0  0  0
 33 34  1  0  0  0
 33 66  1  0  0  0
 33 70  2  0  0  0
 34 36  1  0  0  0
 34 59  1  0  0  0
 34106  1  0  0  0
 35 44  2  0  0  0
 35 45  1  0  0  0
 35 68  1  0  0  0
 36 56  1  0  0  0
 36107  1  0  0  0
 37 39  1  0  0  0
 37 47  1  0  0  0
 37 66  1  0  0  0
 37108  1  0  0  0
 38 43  2  0  0  0
 38 46  1  0  0  0
 38 47  1  0  0  0
 39 64  1  0  0  0
 39 67  2  0  0  0
 40 52  1  0  0  0
 40 53  2  0  0  0
 40 58  1  0  0  0
 41109  1  0  0  0
 41110  1  0  0  0
 41111  1  0  0  0
 41 48  1  0  0  0
 42 43  1  0  0  0
 42 66  1  0  0  0
 42112  1  0  0  0
 42113  1  0  0  0
 43 44  1  0  0  0
 44114  1  0  0  0
 45 46  2  0  0  0
 45115  1  0  0  0
 46116  1  0  0  0
 47117  1  0  0  0
 47118  1  0  0  0
 48 56  1  0  0  0
 48 65  1  0  0  0
 48119  1  0  0  0
 49 50  1  0  0  0
 49 53  1  0  0  0
 49 64  1  0  0  0
 49120  1  0  0  0
 50 51  1  0  0  0
 50121  1  0  0  0
 50122  1  0  0  0
 51 52  1  0  0  0
 51123  1  0  0  0
 51124  1  0  0  0
 52125  1  0  0  0
 52126  1  0  0  0
 53 54  1  0  0  0
 54 55  2  0  0  0
 54127  1  0  0  0
 55 57  1  0  0  0
 55128  1  0  0  0
 56 69  2  0  0  0
 57 58  2  0  0  0
 57129  1  0  0  0
 58130  1  0  0  0
 59 60  1  0  0  0
 59 61  1  0  0  0
 59 62  1  0  0  0
 60131  1  0  0  0
 60132  1  0  0  0
 60133  1  0  0  0
 61134  1  0  0  0
 61135  1  0  0  0
 61136  1  0  0  0
 62137  1  0  0  0
 62138  1  0  0  0
 62139  1  0  0  0
 63 65  1  0  0  0
 63140  1  0  0  0
 63141  1  0  0  0
 63142  1  0  0  0
 64143  1  0  0  0
 65144  1  0  0  0
 68 82  1  0  0  0
 71 72  2  0  0  0
 71 74  1  0  0  0
 71145  1  0  0  0
 72 75  1  0  0  0
 72146  1  0  0  0
 73 74  2  0  0  0
 73 76  1  0  0  0
 73147  1  0  0  0
 74 77  1  0  0  0
 75 76  2  0  0  0
 75 84  1  0  0  0
 76 85  1  0  0  0
 77 80  1  0  0  0
 77 83  2  0  0  0
 78148  1  0  0  0
 78149  1  0  0  0
 78150  1  0  0  0
 78 82  1  0  0  0
 79 82  1  0  0  0
 79151  1  0  0  0
 79152  1  0  0  0
 79153  1  0  0  0
 80 81  1  0  0  0
 80154  1  0  0  0
 80155  1  0  0  0
 81 82  1  0  0  0
 81156  1  0  0  0
 81157  1  0  0  0
 83158  1  0  0  0
 84159  1  0  0  0
M  ISO  4   1 100  68 101  82 101  84 100
M  END
> <chiral flag>
0

> <version>
0

> <s_m_source_file>
/data/baiqing/PycharmProjects/Reinvent-master-3.2/result/LINK_invent/BTK/process_docking_weight1_custom_product_contain_oxygen_bond_distance_aromatic_linkinvent_7_9_3/rearranged_h_0135.sdf

> <i_m_source_file_index>
72

> <r_mmod_Potential_Energy-OPLS-2005>
-38.8819961547852

> <r_mmod_Stretch_Energy-OPLS-2005>
76.9433135986328

> <r_mmod_Bend_Energy-OPLS-2005>
137.977157592773

> <r_mmod_Torsional_Energy-OPLS-2005>
238.164886474609

> <r_mmod_Improper_Torsional_Energy-OPLS-2005>
3.98036408424377

> <r_mmod_Van_der_Waal_Energy-OPLS-2005>
153.560653686523

> <r_mmod_Electrostatic_Energy-OPLS-2005>
-486.454803466797

> <r_mmod_Solvation_Energy-OPLS-2005>
-202.606018066406

> <b_mmod_Minimization_Converged-OPLS-2005>
0

> <r_mmod_RMS_Derivative-OPLS-2005>
1.88561201095581

$$$$
72
                    3D
 Structure written by MMmdl.
159167  0  0  1  0            999 V2000
  -30.6410  -14.6846   20.4691 C   0  0  0  0  0  0
  -30.4314  -12.4135   19.4838 C   0  0  0  0  0  0
  -29.5191  -12.5046   18.2405 C   0  0  0  0  0  0
  -28.0415  -12.3400   18.6453 C   0  0  0  0  0  0
  -27.6497  -13.2313   19.8556 C   0  0  2  0  0  0
  -28.6892  -13.1433   20.9978 C   0  0  0  0  0  0
  -25.2539  -13.8194   20.5681 C   0  0  0  0  0  0
  -24.1813  -13.0443   20.9169 C   0  0  0  0  0  0
  -24.6398  -11.6913   20.8705 C   0  0  0  0  0  0
  -23.9064  -10.4292   21.0385 C   0  0  0  0  0  0
  -24.3607   -9.4208   21.9169 C   0  0  0  0  0  0
  -23.6283   -8.2246   22.0754 C   0  0  0  0  0  0
  -22.4263   -8.0279   21.3553 C   0  0  0  0  0  0
  -21.9893   -9.0253   20.4655 C   0  0  0  0  0  0
  -22.7224  -10.2132   20.3048 C   0  0  0  0  0  0
  -21.6863   -6.0716   22.5265 C   0  0  0  0  0  0
  -21.4026   -6.5622   23.8198 C   0  0  0  0  0  0
  -21.3658   -5.6777   24.9167 C   0  0  0  0  0  0
  -21.6049   -4.3041   24.7222 C   0  0  0  0  0  0
  -21.8822   -3.8127   23.4343 C   0  0  0  0  0  0
  -21.9198   -4.6942   22.3391 C   0  0  0  0  0  0
  -22.7836  -13.5241   21.1825 C   0  0  0  0  0  0
  -22.1670   -4.2120   21.0974 F   0  0  0  0  0  0
  -21.5620   -3.4526   25.7740 F   0  0  0  0  0  0
  -30.0054  -13.4674   20.4316 N   0  0  0  0  0  0
  -26.2972  -12.9410   20.3265 N   0  0  0  0  0  0
  -25.9332  -11.6551   20.5711 N   0  0  0  0  0  0
  -22.0481  -12.8258   22.0406 N   0  0  0  0  0  0
  -25.4234  -15.1921   20.4124 N   0  0  0  0  0  0
  -31.8118  -14.7861   20.0878 O   0  0  0  0  0  0
  -21.6649   -6.8861   21.4234 O   0  0  0  0  0  0
  -22.3515  -14.5528   20.6639 O   0  0  0  0  0  0
  -24.6273  -31.8610   23.2001 C   0  0  0  0  0  0
  -25.9110  -32.4783   23.8362 C   0  0  1  0  0  0
  -27.2182  -27.2973   20.1193 C   0  0  0  0  0  0
  -25.5909  -33.8585   24.2271 N   0  0  0  0  0  0
  -23.4240  -30.4836   21.5443 C   0  0  2  0  0  0
  -24.8690  -28.9398   20.1080 C   0  0  0  0  0  0
  -22.7502  -29.4624   22.4933 C   0  0  0  0  0  0
  -18.0284  -28.1396   22.8481 C   0  0  0  0  0  0
  -24.1488  -36.7299   23.2638 C   0  0  0  0  0  0
  -25.9688  -30.7784   21.3826 C   0  0  0  0  0  0
  -26.0384  -29.4071   20.7218 C   0  0  0  0  0  0
  -27.2140  -28.5969   20.7200 C   0  0  0  0  0  0
  -26.0306  -26.9016   19.4596 C   0  0  0  0  0  0
  -24.8706  -27.6942   19.4649 C   0  0  0  0  0  0
  -23.6397  -29.8217   20.1590 C   0  0  0  0  0  0
  -25.4116  -36.3090   24.0327 C   0  0  1  0  0  0
  -20.5890  -28.3697   23.1276 C   0  0  2  0  0  0
  -20.6775  -26.9419   22.5417 C   0  0  0  0  0  0
  -19.5749  -26.6391   21.5219 C   0  0  0  0  0  0
  -18.1923  -26.7938   22.1619 C   0  0  0  0  0  0
  -19.1541  -28.8864   23.2869 C   0  0  0  0  0  0
  -18.9459  -30.1464   23.8897 C   0  0  0  0  0  0
  -17.6460  -30.6593   24.0566 C   0  0  0  0  0  0
  -25.9055  -34.9455   23.5100 C   0  0  0  0  0  0
  -16.5352  -29.9100   23.6330 C   0  0  0  0  0  0
  -16.7270  -28.6515   23.0357 C   0  0  0  0  0  0
  -26.4474  -31.6622   25.0762 C   0  0  0  0  0  0
  -25.3675  -31.3816   26.1476 C   0  0  0  0  0  0
  -27.0309  -30.3022   24.6275 C   0  0  0  0  0  0
  -27.6043  -32.4374   25.7512 C   0  0  0  0  0  0
  -27.5590  -37.1808   24.8455 C   0  0  0  0  0  0
  -21.4217  -29.3042   22.3673 N   0  0  0  0  0  0
  -26.4299  -37.3782   23.9404 N   0  0  0  0  0  0
  -24.6921  -31.0599   22.0970 N   0  0  0  0  0  0
  -23.4216  -28.8171   23.3022 O   0  0  0  0  0  0
  -28.3239  -26.4270   20.1982 O   0  0  0  0  0  0
  -26.5641  -34.8928   22.4684 O   0  0  0  0  0  0
  -23.5423  -32.1440   23.7289 O   0  0  0  0  0  0
  -30.2203  -18.4294   18.0657 C   0  0  0  0  0  0
  -29.9699  -19.6462   18.7287 C   0  0  0  0  0  0
  -30.2248  -17.2037   18.7600 C   0  0  0  0  0  0
  -29.6841  -18.4055   20.8044 C   0  0  0  0  0  0
  -29.6964  -19.6824   20.1122 C   0  0  0  0  0  0
  -29.9651  -17.1417   20.1480 C   0  0  0  0  0  0
  -30.5234  -24.3067   20.4909 C   0  0  0  0  0  0
  -28.6623  -23.8469   22.1194 C   0  0  0  0  0  0
  -29.5196  -21.0889   20.8216 C   0  0  0  0  0  0
  -28.9141  -22.3647   20.0364 C   0  0  0  0  0  0
  -28.1464  -24.9740   19.9048 C   0  0  0  0  0  0
  -29.0549  -23.8650   20.6294 C   0  0  0  0  0  0
  -29.9110  -15.8120   20.7879 N   0  0  0  0  0  0
  -31.4778  -12.5133   19.1921 H   0  0  0  0  0  0
  -30.3522  -11.4303   19.9501 H   0  0  0  0  0  0
  -29.7992  -11.7376   17.5168 H   0  0  0  0  0  0
  -29.6621  -13.4650   17.7414 H   0  0  0  0  0  0
  -27.8889  -11.2906   18.8997 H   0  0  0  0  0  0
  -27.3917  -12.5472   17.7935 H   0  0  0  0  0  0
  -27.6557  -14.2577   19.4864 H   0  0  0  0  0  0
  -28.7008  -12.1455   21.4393 H   0  0  0  0  0  0
  -28.4282  -13.8279   21.8065 H   0  0  0  0  0  0
  -25.2755   -9.5692   22.4739 H   0  0  0  0  0  0
  -23.9994   -7.4647   22.7472 H   0  0  0  0  0  0
  -21.0820   -8.8762   19.8975 H   0  0  0  0  0  0
  -22.3668  -10.9661   19.6147 H   0  0  0  0  0  0
  -21.2036   -7.6130   23.9693 H   0  0  0  0  0  0
  -21.1477   -6.0510   25.9064 H   0  0  0  0  0  0
  -22.0608   -2.7587   23.2847 H   0  0  0  0  0  0
  -22.4096  -11.9954   22.4866 H   0  0  0  0  0  0
  -21.1082  -13.1293   22.2558 H   0  0  0  0  0  0
  -24.6537  -15.8439   20.5169 H   0  0  0  0  0  0
  -26.2761  -15.6341   20.0933 H   0  0  0  0  0  0
  -26.7185  -32.5445   23.1118 H   0  0  0  0  0  0
  -25.0009  -33.9732   25.0380 H   0  0  0  0  0  0
  -22.7170  -31.3038   21.4020 H   0  0  0  0  0  0
  -23.3758  -35.9622   23.3296 H   0  0  0  0  0  0
  -24.3566  -36.8926   22.2052 H   0  0  0  0  0  0
  -23.7239  -37.6498   23.6666 H   0  0  0  0  0  0
  -26.1183  -31.5410   20.6176 H   0  0  0  0  0  0
  -26.8422  -30.8175   22.0214 H   0  0  0  0  0  0
  -28.1082  -28.9458   21.2173 H   0  0  0  0  0  0
  -25.9662  -25.9615   18.9324 H   0  0  0  0  0  0
  -23.9796  -27.3394   18.9639 H   0  0  0  0  0  0
  -23.7593  -30.5999   19.4038 H   0  0  0  0  0  0
  -22.7585  -29.2524   19.8578 H   0  0  0  0  0  0
  -25.1298  -36.1948   25.0821 H   0  0  0  0  0  0
  -20.9972  -28.3282   24.1400 H   0  0  0  0  0  0
  -20.5674  -26.2316   23.3626 H   0  0  0  0  0  0
  -21.6644  -26.7451   22.1215 H   0  0  0  0  0  0
  -19.6907  -25.6301   21.1256 H   0  0  0  0  0  0
  -19.6677  -27.3196   20.6744 H   0  0  0  0  0  0
  -17.4201  -26.6691   21.4011 H   0  0  0  0  0  0
  -18.0293  -26.0089   22.9016 H   0  0  0  0  0  0
  -19.7940  -30.7272   24.2274 H   0  0  0  0  0  0
  -17.5019  -31.6269   24.5183 H   0  0  0  0  0  0
  -15.5352  -30.3002   23.7657 H   0  0  0  0  0  0
  -15.8670  -28.0833   22.7081 H   0  0  0  0  0  0
  -24.5809  -30.7213   25.7807 H   0  0  0  0  0  0
  -24.8902  -32.3006   26.4901 H   0  0  0  0  0  0
  -25.7947  -30.8984   27.0272 H   0  0  0  0  0  0
  -26.2902  -29.6795   24.1245 H   0  0  0  0  0  0
  -27.3900  -29.7276   25.4827 H   0  0  0  0  0  0
  -27.8824  -30.4282   23.9583 H   0  0  0  0  0  0
  -27.2652  -33.3659   26.2131 H   0  0  0  0  0  0
  -28.3812  -32.6992   25.0311 H   0  0  0  0  0  0
  -28.0777  -31.8503   26.5395 H   0  0  0  0  0  0
  -28.2613  -38.0102   24.7508 H   0  0  0  0  0  0
  -28.1082  -36.2640   24.6265 H   0  0  0  0  0  0
  -27.2303  -37.1436   25.8854 H   0  0  0  0  0  0
  -20.9411  -29.8775   21.6885 H   0  0  0  0  0  0
  -26.0184  -38.2856   24.1411 H   0  0  0  0  0  0
  -30.4155  -18.4332   17.0026 H   0  0  0  0  0  0
  -30.0103  -20.5556   18.1472 H   0  0  0  0  0  0
  -30.4118  -16.3002   18.1965 H   0  0  0  0  0  0
  -29.4764  -18.4059   21.8657 H   0  0  0  0  0  0
  -31.1999  -23.6256   21.0056 H   0  0  0  0  0  0
  -30.6854  -25.2991   20.9139 H   0  0  0  0  0  0
  -30.8261  -24.3452   19.4441 H   0  0  0  0  0  0
  -29.3049  -23.1852   22.7012 H   0  0  0  0  0  0
  -27.6329  -23.5110   22.2523 H   0  0  0  0  0  0
  -28.7371  -24.8410   22.5623 H   0  0  0  0  0  0
  -30.5128  -21.3616   21.1775 H   0  0  0  0  0  0
  -28.9308  -20.9245   21.7246 H   0  0  0  0  0  0
  -27.8588  -22.1583   19.8580 H   0  0  0  0  0  0
  -29.3571  -22.4022   19.0424 H   0  0  0  0  0  0
  -27.1237  -24.6804   20.1409 H   0  0  0  0  0  0
  -28.2482  -24.8572   18.8247 H   0  0  0  0  0  0
  -29.0833  -15.6387   21.3388 H   0  0  0  0  0  0
  1 25  1  0  0  0
  1 30  2  0  0  0
  1 83  1  0  0  0
  2  3  1  0  0  0
  2 25  1  0  0  0
  2 84  1  0  0  0
  2 85  1  0  0  0
  3  4  1  0  0  0
  3 86  1  0  0  0
  3 87  1  0  0  0
  4  5  1  0  0  0
  4 88  1  0  0  0
  4 89  1  0  0  0
  5  6  1  0  0  0
  5 26  1  0  0  0
  5 90  1  0  0  0
  6 25  1  0  0  0
  6 91  1  0  0  0
  6 92  1  0  0  0
  7  8  2  0  0  0
  7 26  1  0  0  0
  7 29  1  0  0  0
  8  9  1  0  0  0
  8 22  1  0  0  0
  9 10  1  0  0  0
  9 27  2  0  0  0
 10 11  2  0  0  0
 10 15  1  0  0  0
 11 12  1  0  0  0
 11 93  1  0  0  0
 12 13  2  0  0  0
 12 94  1  0  0  0
 13 14  1  0  0  0
 13 31  1  0  0  0
 14 15  2  0  0  0
 14 95  1  0  0  0
 15 96  1  0  0  0
 16 17  2  0  0  0
 16 21  1  0  0  0
 16 31  1  0  0  0
 17 18  1  0  0  0
 17 97  1  0  0  0
 18 19  2  0  0  0
 18 98  1  0  0  0
 19 20  1  0  0  0
 19 24  1  0  0  0
 20 21  2  0  0  0
 20 99  1  0  0  0
 21 23  1  0  0  0
 22 28  1  0  0  0
 22 32  2  0  0  0
 26 27  1  0  0  0
 28100  1  0  0  0
 28101  1  0  0  0
 29102  1  0  0  0
 29103  1  0  0  0
 33 34  1  0  0  0
 33 66  1  0  0  0
 33 70  2  0  0  0
 34 36  1  0  0  0
 34 59  1  0  0  0
 34104  1  0  0  0
 35 44  2  0  0  0
 35 45  1  0  0  0
 35 68  1  0  0  0
 36 56  1  0  0  0
 36105  1  0  0  0
 37 39  1  0  0  0
 37 47  1  0  0  0
 37 66  1  0  0  0
 37106  1  0  0  0
 38 43  2  0  0  0
 38 46  1  0  0  0
 38 47  1  0  0  0
 39 64  1  0  0  0
 39 67  2  0  0  0
 40 52  1  0  0  0
 40 53  2  0  0  0
 40 58  1  0  0  0
 41107  1  0  0  0
 41108  1  0  0  0
 41109  1  0  0  0
 41 48  1  0  0  0
 42 43  1  0  0  0
 42 66  1  0  0  0
 42110  1  0  0  0
 42111  1  0  0  0
 43 44  1  0  0  0
 44112  1  0  0  0
 45 46  2  0  0  0
 45113  1  0  0  0
 46114  1  0  0  0
 47115  1  0  0  0
 47116  1  0  0  0
 48 56  1  0  0  0
 48 65  1  0  0  0
 48117  1  0  0  0
 49 50  1  0  0  0
 49 53  1  0  0  0
 49 64  1  0  0  0
 49118  1  0  0  0
 50 51  1  0  0  0
 50119  1  0  0  0
 50120  1  0  0  0
 51 52  1  0  0  0
 51121  1  0  0  0
 51122  1  0  0  0
 52123  1  0  0  0
 52124  1  0  0  0
 53 54  1  0  0  0
 54 55  2  0  0  0
 54125  1  0  0  0
 55 57  1  0  0  0
 55126  1  0  0  0
 56 69  2  0  0  0
 57 58  2  0  0  0
 57127  1  0  0  0
 58128  1  0  0  0
 59 60  1  0  0  0
 59 61  1  0  0  0
 59 62  1  0  0  0
 60129  1  0  0  0
 60130  1  0  0  0
 60131  1  0  0  0
 61132  1  0  0  0
 61133  1  0  0  0
 61134  1  0  0  0
 62135  1  0  0  0
 62136  1  0  0  0
 62137  1  0  0  0
 63 65  1  0  0  0
 63138  1  0  0  0
 63139  1  0  0  0
 63140  1  0  0  0
 64141  1  0  0  0
 65142  1  0  0  0
 68 81  1  0  0  0
 71 72  2  0  0  0
 71 73  1  0  0  0
 71143  1  0  0  0
 72 75  1  0  0  0
 72144  1  0  0  0
 73 76  2  0  0  0
 73145  1  0  0  0
 74 75  2  0  0  0
 74 76  1  0  0  0
 74146  1  0  0  0
 75 79  1  0  0  0
 76 83  1  0  0  0
 77147  1  0  0  0
 77148  1  0  0  0
 77149  1  0  0  0
 77 82  1  0  0  0
 78 82  1  0  0  0
 78150  1  0  0  0
 78151  1  0  0  0
 78152  1  0  0  0
 79 80  1  0  0  0
 79153  1  0  0  0
 79154  1  0  0  0
 80 82  1  0  0  0
 80155  1  0  0  0
 80156  1  0  0  0
 81 82  1  0  0  0
 81157  1  0  0  0
 81158  1  0  0  0
 83159  1  0  0  0
M  ISO  4   1 100  68 101  81 101  83 100
M  END
> <chiral flag>
0

> <version>
0

> <s_m_source_file>
/data/baiqing/PycharmProjects/Reinvent-master-3.2/result/LINK_invent/BTK/process_docking_weight1_custom_product_contain_oxygen_bond_distance_aromatic_linkinvent_7_9_3/rearranged_h_0135.sdf

> <i_m_source_file_index>
73

> <r_mmod_Potential_Energy-OPLS-2005>
142.815521240234

> <r_mmod_Stretch_Energy-OPLS-2005>
104.606811523438

> <r_mmod_Bend_Energy-OPLS-2005>
145.346267700195

> <r_mmod_Torsional_Energy-OPLS-2005>
244.158004760742

> <r_mmod_Improper_Torsional_Energy-OPLS-2005>
4.63461065292358

> <r_mmod_Van_der_Waal_Energy-OPLS-2005>
142.589614868164

> <r_mmod_Electrostatic_Energy-OPLS-2005>
-364.641204833984

> <r_mmod_Solvation_Energy-OPLS-2005>
-198.513946533203

> <b_mmod_Minimization_Converged-OPLS-2005>
0

> <r_mmod_RMS_Derivative-OPLS-2005>
2.31451678276062

$$$$
73
                    3D
 Structure written by MMmdl.
168176  0  0  1  0            999 V2000
  -30.7360  -14.3890   20.6972 C   0  0  0  0  0  0
  -30.4312  -12.3056   19.3902 C   0  0  0  0  0  0
  -29.4891  -12.5367   18.1924 C   0  0  0  0  0  0
  -28.0128  -12.3856   18.6074 C   0  0  0  0  0  0
  -27.6711  -13.1981   19.8816 C   0  0  2  0  0  0
  -28.7089  -12.9207   20.9903 C   0  0  0  0  0  0
  -25.2632  -13.8133   20.5669 C   0  0  0  0  0  0
  -24.1872  -13.0425   20.9168 C   0  0  0  0  0  0
  -24.6410  -11.6887   20.8741 C   0  0  0  0  0  0
  -23.9063  -10.4279   21.0407 C   0  0  0  0  0  0
  -24.3617   -9.4192   21.9188 C   0  0  0  0  0  0
  -23.6283   -8.2229   22.0758 C   0  0  0  0  0  0
  -22.4268   -8.0274   21.3543 C   0  0  0  0  0  0
  -21.9910   -9.0248   20.4649 C   0  0  0  0  0  0
  -22.7236  -10.2121   20.3055 C   0  0  0  0  0  0
  -21.6849   -6.0730   22.5280 C   0  0  0  0  0  0
  -21.4005   -6.5636   23.8212 C   0  0  0  0  0  0
  -21.3653   -5.6787   24.9178 C   0  0  0  0  0  0
  -21.6049   -4.3051   24.7230 C   0  0  0  0  0  0
  -21.8818   -3.8143   23.4351 C   0  0  0  0  0  0
  -21.9190   -4.6959   22.3407 C   0  0  0  0  0  0
  -22.7892  -13.5232   21.1830 C   0  0  0  0  0  0
  -22.1660   -4.2141   21.0984 F   0  0  0  0  0  0
  -21.5633   -3.4540   25.7745 F   0  0  0  0  0  0
  -30.0569  -13.2324   20.4678 N   0  0  0  0  0  0
  -26.3075  -12.9293   20.3391 N   0  0  0  0  0  0
  -25.9339  -11.6456   20.5763 N   0  0  0  0  0  0
  -22.0526  -12.8238   22.0395 N   0  0  0  0  0  0
  -25.4369  -15.1844   20.4061 N   0  0  0  0  0  0
  -31.7274  -14.7386   20.0481 O   0  0  0  0  0  0
  -21.6630   -6.8875   21.4241 O   0  0  0  0  0  0
  -22.3577  -14.5536   20.6671 O   0  0  0  0  0  0
  -24.6167  -31.8715   23.2094 C   0  0  0  0  0  0
  -25.9050  -32.4858   23.8393 C   0  0  1  0  0  0
  -27.2322  -27.4247   20.0819 C   0  0  0  0  0  0
  -25.5907  -33.8658   24.2324 N   0  0  0  0  0  0
  -23.4048  -30.4985   21.5509 C   0  0  2  0  0  0
  -24.8489  -28.9681   20.1152 C   0  0  0  0  0  0
  -22.7437  -29.4685   22.4965 C   0  0  0  0  0  0
  -18.0290  -28.1391   22.8480 C   0  0  0  0  0  0
  -24.1505  -36.7302   23.2644 C   0  0  0  0  0  0
  -25.9392  -30.8308   21.3696 C   0  0  0  0  0  0
  -26.0138  -29.4666   20.7116 C   0  0  0  0  0  0
  -27.2066  -28.7026   20.6940 C   0  0  0  0  0  0
  -26.0406  -26.9551   19.4728 C   0  0  0  0  0  0
  -24.8584  -27.7107   19.4956 C   0  0  0  0  0  0
  -23.6155  -29.8380   20.1641 C   0  0  0  0  0  0
  -25.4130  -36.3133   24.0343 C   0  0  1  0  0  0
  -20.5881  -28.3686   23.1299 C   0  0  2  0  0  0
  -20.6800  -26.9422   22.5401 C   0  0  0  0  0  0
  -19.5771  -26.6386   21.5216 C   0  0  0  0  0  0
  -18.1943  -26.7931   22.1619 C   0  0  0  0  0  0
  -19.1542  -28.8846   23.2895 C   0  0  0  0  0  0
  -18.9476  -30.1450   23.8912 C   0  0  0  0  0  0
  -17.6489  -30.6595   24.0577 C   0  0  0  0  0  0
  -25.9049  -34.9500   23.5119 C   0  0  0  0  0  0
  -16.5369  -29.9106   23.6336 C   0  0  0  0  0  0
  -16.7283  -28.6530   23.0334 C   0  0  0  0  0  0
  -26.4454  -31.6661   25.0747 C   0  0  0  0  0  0
  -25.3697  -31.3795   26.1486 C   0  0  0  0  0  0
  -27.0292  -30.3112   24.6117 C   0  0  0  0  0  0
  -27.6017  -32.4410   25.7498 C   0  0  0  0  0  0
  -27.5595  -37.1816   24.8464 C   0  0  0  0  0  0
  -21.4167  -29.3062   22.3712 N   0  0  0  0  0  0
  -26.4315  -37.3814   23.9404 N   0  0  0  0  0  0
  -24.6717  -31.0806   22.1007 N   0  0  0  0  0  0
  -23.4222  -28.8211   23.2986 O   0  0  0  0  0  0
  -28.3977  -26.6729   20.0999 O   0  0  0  0  0  0
  -26.5598  -34.8952   22.4677 O   0  0  0  0  0  0
  -23.5353  -32.1460   23.7482 O   0  0  0  0  0  0
  -30.0295  -19.1532   22.8307 C   0  0  0  0  0  0
  -30.5454  -17.4656   21.1639 C   0  0  0  0  0  0
  -29.8348  -18.1517   23.8032 C   0  0  0  0  0  0
  -29.9891  -16.7835   23.4580 C   0  0  0  0  0  0
  -30.3181  -16.4375   22.1188 C   0  0  0  0  0  0
  -30.3982  -18.8332   21.5042 C   0  0  0  0  0  0
  -29.4734  -24.4145   19.9541 C   0  0  0  0  0  0
  -30.6972  -18.9014   26.0678 C   0  0  0  0  0  0
  -28.3817  -15.1945   24.6764 C   0  0  0  0  0  0
  -29.4627  -18.6019   25.2116 C   0  0  0  0  0  0
  -29.8262  -15.6890   24.5209 C   0  0  0  0  0  0
  -29.5709  -23.1276   19.1156 C   0  0  0  0  0  0
  -28.2863  -25.3258   19.5993 C   0  0  0  0  0  0
  -30.5778  -22.0343   19.5576 C   0  0  0  0  0  0
  -30.1086  -21.1204   20.7127 C   0  0  0  0  0  0
  -30.3064  -15.0502   21.7826 N   0  0  0  0  0  0
  -30.2762  -24.6820   20.8541 O   0  0  0  0  0  0
  -30.6289  -19.7920   20.5294 O   0  0  0  0  0  0
  -31.4715  -12.4302   19.0852 H   0  0  0  0  0  0
  -30.3486  -11.2775   19.7463 H   0  0  0  0  0  0
  -29.7230  -11.8368   17.3896 H   0  0  0  0  0  0
  -29.6530  -13.5358   17.7857 H   0  0  0  0  0  0
  -27.8210  -11.3268   18.7823 H   0  0  0  0  0  0
  -27.3575  -12.6824   17.7876 H   0  0  0  0  0  0
  -27.7346  -14.2553   19.6220 H   0  0  0  0  0  0
  -28.6749  -11.8701   21.2840 H   0  0  0  0  0  0
  -28.4379  -13.4692   21.8908 H   0  0  0  0  0  0
  -25.2766   -9.5655   22.4759 H   0  0  0  0  0  0
  -23.9991   -7.4620   22.7476 H   0  0  0  0  0  0
  -21.0844   -8.8766   19.8955 H   0  0  0  0  0  0
  -22.3707  -10.9661   19.6161 H   0  0  0  0  0  0
  -21.1987   -7.6143   23.9714 H   0  0  0  0  0  0
  -21.1479   -6.0521   25.9078 H   0  0  0  0  0  0
  -22.0603   -2.7608   23.2859 H   0  0  0  0  0  0
  -22.4137  -11.9893   22.4777 H   0  0  0  0  0  0
  -21.1140  -13.1260   22.2583 H   0  0  0  0  0  0
  -24.6753  -15.8447   20.5125 H   0  0  0  0  0  0
  -26.2966  -15.6186   20.0936 H   0  0  0  0  0  0
  -26.7131  -32.5560   23.1164 H   0  0  0  0  0  0
  -25.0118  -33.9830   25.0503 H   0  0  0  0  0  0
  -22.6941  -31.3166   21.4121 H   0  0  0  0  0  0
  -23.3791  -35.9611   23.3337 H   0  0  0  0  0  0
  -24.3578  -36.8878   22.2045 H   0  0  0  0  0  0
  -23.7228  -37.6513   23.6624 H   0  0  0  0  0  0
  -26.0599  -31.6008   20.6055 H   0  0  0  0  0  0
  -26.8248  -30.8745   21.9925 H   0  0  0  0  0  0
  -28.1036  -29.0879   21.1573 H   0  0  0  0  0  0
  -25.9845  -26.0051   18.9639 H   0  0  0  0  0  0
  -23.9641  -27.3197   19.0283 H   0  0  0  0  0  0
  -23.7298  -30.6168   19.4081 H   0  0  0  0  0  0
  -22.7385  -29.2650   19.8601 H   0  0  0  0  0  0
  -25.1313  -36.2005   25.0839 H   0  0  0  0  0  0
  -20.9983  -28.3252   24.1416 H   0  0  0  0  0  0
  -20.5726  -26.2296   23.3590 H   0  0  0  0  0  0
  -21.6666  -26.7471   22.1178 H   0  0  0  0  0  0
  -19.6935  -25.6298   21.1256 H   0  0  0  0  0  0
  -19.6714  -27.3204   20.6753 H   0  0  0  0  0  0
  -17.4220  -26.6689   21.4019 H   0  0  0  0  0  0
  -18.0331  -26.0063   22.9000 H   0  0  0  0  0  0
  -19.7956  -30.7265   24.2296 H   0  0  0  0  0  0
  -17.5047  -31.6275   24.5184 H   0  0  0  0  0  0
  -15.5377  -30.3029   23.7663 H   0  0  0  0  0  0
  -15.8672  -28.0884   22.7018 H   0  0  0  0  0  0
  -24.5826  -30.7195   25.7818 H   0  0  0  0  0  0
  -24.8934  -32.2985   26.4939 H   0  0  0  0  0  0
  -25.8023  -30.8948   27.0244 H   0  0  0  0  0  0
  -26.2848  -29.6907   24.1127 H   0  0  0  0  0  0
  -27.4043  -29.7324   25.4562 H   0  0  0  0  0  0
  -27.8682  -30.4471   23.9286 H   0  0  0  0  0  0
  -27.2608  -33.3697   26.2088 H   0  0  0  0  0  0
  -28.3800  -32.7022   25.0315 H   0  0  0  0  0  0
  -28.0707  -31.8546   26.5404 H   0  0  0  0  0  0
  -28.2630  -38.0108   24.7544 H   0  0  0  0  0  0
  -28.1096  -36.2644   24.6286 H   0  0  0  0  0  0
  -27.2304  -37.1448   25.8868 H   0  0  0  0  0  0
  -20.9329  -29.8816   21.6960 H   0  0  0  0  0  0
  -26.0225  -38.2904   24.1407 H   0  0  0  0  0  0
  -29.9046  -20.1784   23.1438 H   0  0  0  0  0  0
  -30.8029  -17.2127   20.1453 H   0  0  0  0  0  0
  -30.4060  -19.2333   27.0644 H   0  0  0  0  0  0
  -31.3009  -19.6895   25.6169 H   0  0  0  0  0  0
  -31.3294  -18.0209   26.1835 H   0  0  0  0  0  0
  -28.3302  -14.4017   25.4231 H   0  0  0  0  0  0
  -27.9871  -14.7944   23.7442 H   0  0  0  0  0  0
  -27.7154  -15.9923   25.0016 H   0  0  0  0  0  0
  -28.8310  -17.8664   25.7069 H   0  0  0  0  0  0
  -28.8457  -19.4993   25.1465 H   0  0  0  0  0  0
  -30.1947  -16.0436   25.4825 H   0  0  0  0  0  0
  -30.4780  -14.8434   24.2979 H   0  0  0  0  0  0
  -29.8371  -23.4485   18.1088 H   0  0  0  0  0  0
  -28.5733  -22.6961   19.0279 H   0  0  0  0  0  0
  -27.4059  -24.8403   20.0190 H   0  0  0  0  0  0
  -28.1710  -25.3483   18.5145 H   0  0  0  0  0  0
  -31.5440  -22.4770   19.8045 H   0  0  0  0  0  0
  -30.7663  -21.4106   18.6836 H   0  0  0  0  0  0
  -29.0195  -21.0624   20.7338 H   0  0  0  0  0  0
  -30.4358  -21.5701   21.6498 H   0  0  0  0  0  0
  -29.7044  -14.4899   22.3654 H   0  0  0  0  0  0
  1 25  1  0  0  0
  1 30  2  0  0  0
  1 86  1  0  0  0
  2  3  1  0  0  0
  2 25  1  0  0  0
  2 89  1  0  0  0
  2 90  1  0  0  0
  3  4  1  0  0  0
  3 91  1  0  0  0
  3 92  1  0  0  0
  4  5  1  0  0  0
  4 93  1  0  0  0
  4 94  1  0  0  0
  5  6  1  0  0  0
  5 26  1  0  0  0
  5 95  1  0  0  0
  6 25  1  0  0  0
  6 96  1  0  0  0
  6 97  1  0  0  0
  7  8  2  0  0  0
  7 26  1  0  0  0
  7 29  1  0  0  0
  8  9  1  0  0  0
  8 22  1  0  0  0
  9 10  1  0  0  0
  9 27  2  0  0  0
 10 11  2  0  0  0
 10 15  1  0  0  0
 11 12  1  0  0  0
 11 98  1  0  0  0
 12 13  2  0  0  0
 12 99  1  0  0  0
 13 14  1  0  0  0
 13 31  1  0  0  0
 14 15  2  0  0  0
 14100  1  0  0  0
 15101  1  0  0  0
 16 17  2  0  0  0
 16 21  1  0  0  0
 16 31  1  0  0  0
 17 18  1  0  0  0
 17102  1  0  0  0
 18 19  2  0  0  0
 18103  1  0  0  0
 19 20  1  0  0  0
 19 24  1  0  0  0
 20 21  2  0  0  0
 20104  1  0  0  0
 21 23  1  0  0  0
 22 28  1  0  0  0
 22 32  2  0  0  0
 26 27  1  0  0  0
 28105  1  0  0  0
 28106  1  0  0  0
 29107  1  0  0  0
 29108  1  0  0  0
 33 34  1  0  0  0
 33 66  1  0  0  0
 33 70  2  0  0  0
 34 36  1  0  0  0
 34 59  1  0  0  0
 34109  1  0  0  0
 35 44  2  0  0  0
 35 45  1  0  0  0
 35 68  1  0  0  0
 36 56  1  0  0  0
 36110  1  0  0  0
 37 39  1  0  0  0
 37 47  1  0  0  0
 37 66  1  0  0  0
 37111  1  0  0  0
 38 43  2  0  0  0
 38 46  1  0  0  0
 38 47  1  0  0  0
 39 64  1  0  0  0
 39 67  2  0  0  0
 40 52  1  0  0  0
 40 53  2  0  0  0
 40 58  1  0  0  0
 41112  1  0  0  0
 41113  1  0  0  0
 41114  1  0  0  0
 41 48  1  0  0  0
 42 43  1  0  0  0
 42 66  1  0  0  0
 42115  1  0  0  0
 42116  1  0  0  0
 43 44  1  0  0  0
 44117  1  0  0  0
 45 46  2  0  0  0
 45118  1  0  0  0
 46119  1  0  0  0
 47120  1  0  0  0
 47121  1  0  0  0
 48 56  1  0  0  0
 48 65  1  0  0  0
 48122  1  0  0  0
 49 50  1  0  0  0
 49 53  1  0  0  0
 49 64  1  0  0  0
 49123  1  0  0  0
 50 51  1  0  0  0
 50124  1  0  0  0
 50125  1  0  0  0
 51 52  1  0  0  0
 51126  1  0  0  0
 51127  1  0  0  0
 52128  1  0  0  0
 52129  1  0  0  0
 53 54  1  0  0  0
 54 55  2  0  0  0
 54130  1  0  0  0
 55 57  1  0  0  0
 55131  1  0  0  0
 56 69  2  0  0  0
 57 58  2  0  0  0
 57132  1  0  0  0
 58133  1  0  0  0
 59 60  1  0  0  0
 59 61  1  0  0  0
 59 62  1  0  0  0
 60134  1  0  0  0
 60135  1  0  0  0
 60136  1  0  0  0
 61137  1  0  0  0
 61138  1  0  0  0
 61139  1  0  0  0
 62140  1  0  0  0
 62141  1  0  0  0
 62142  1  0  0  0
 63 65  1  0  0  0
 63143  1  0  0  0
 63144  1  0  0  0
 63145  1  0  0  0
 64146  1  0  0  0
 65147  1  0  0  0
 68 83  1  0  0  0
 71 73  2  0  0  0
 71 76  1  0  0  0
 71148  1  0  0  0
 72 75  1  0  0  0
 72 76  2  0  0  0
 72149  1  0  0  0
 73 74  1  0  0  0
 73 80  1  0  0  0
 74 75  2  0  0  0
 74 81  1  0  0  0
 75 86  1  0  0  0
 76 88  1  0  0  0
 77 82  1  0  0  0
 77 83  1  0  0  0
 77 87  2  0  0  0
 78 80  1  0  0  0
 78150  1  0  0  0
 78151  1  0  0  0
 78152  1  0  0  0
 79 81  1  0  0  0
 79153  1  0  0  0
 79154  1  0  0  0
 79155  1  0  0  0
 80156  1  0  0  0
 80157  1  0  0  0
 81158  1  0  0  0
 81159  1  0  0  0
 82 84  1  0  0  0
 82160  1  0  0  0
 82161  1  0  0  0
 83162  1  0  0  0
 83163  1  0  0  0
 84 85  1  0  0  0
 84164  1  0  0  0
 84165  1  0  0  0
 85 88  1  0  0  0
 85166  1  0  0  0
 85167  1  0  0  0
 86168  1  0  0  0
M  ISO  4   1 100  68 101  83 101  86 100
M  END
> <chiral flag>
0

> <version>
0

> <s_m_source_file>
/data/baiqing/PycharmProjects/Reinvent-master-3.2/result/LINK_invent/BTK/process_docking_weight1_custom_product_contain_oxygen_bond_distance_aromatic_linkinvent_7_9_3/rearranged_h_0135.sdf

> <i_m_source_file_index>
74

> <r_mmod_Potential_Energy-OPLS-2005>
-53.6278228759766

> <r_mmod_Stretch_Energy-OPLS-2005>
41.7263450622559

> <r_mmod_Bend_Energy-OPLS-2005>
116.363922119141

> <r_mmod_Torsional_Energy-OPLS-2005>
212.01383972168

> <r_mmod_Improper_Torsional_Energy-OPLS-2005>
3.63610577583313

> <r_mmod_Van_der_Waal_Energy-OPLS-2005>
163.985107421875

> <r_mmod_Electrostatic_Energy-OPLS-2005>
-373.505950927734

> <r_mmod_Solvation_Energy-OPLS-2005>
-228.936248779297

> <b_mmod_Minimization_Converged-OPLS-2005>
0

> <r_mmod_RMS_Derivative-OPLS-2005>
2.07057070732117

$$$$
74
                    3D
 Structure written by MMmdl.
177185  0  0  1  0            999 V2000
  -30.7080  -14.4471   20.4348 C   0  0  0  0  0  0
  -30.4287  -12.2366   19.4430 C   0  0  0  0  0  0
  -29.5106  -12.3862   18.2121 C   0  0  0  0  0  0
  -28.0233  -12.3107   18.6138 C   0  0  0  0  0  0
  -27.6629  -13.1901   19.8445 C   0  0  2  0  0  0
  -28.7110  -13.0204   20.9708 C   0  0  0  0  0  0
  -25.2662  -13.8143   20.5596 C   0  0  0  0  0  0
  -24.1897  -13.0442   20.9165 C   0  0  0  0  0  0
  -24.6402  -11.6907   20.8752 C   0  0  0  0  0  0
  -23.9055  -10.4296   21.0370 C   0  0  0  0  0  0
  -24.3629   -9.4210   21.9140 C   0  0  0  0  0  0
  -23.6303   -8.2239   22.0733 C   0  0  0  0  0  0
  -22.4274   -8.0269   21.3538 C   0  0  0  0  0  0
  -21.9904   -9.0233   20.4634 C   0  0  0  0  0  0
  -22.7226  -10.2122   20.3024 C   0  0  0  0  0  0
  -21.6859   -6.0715   22.5266 C   0  0  0  0  0  0
  -21.3987   -6.5616   23.8199 C   0  0  0  0  0  0
  -21.3686   -5.6765   24.9174 C   0  0  0  0  0  0
  -21.6069   -4.3030   24.7223 C   0  0  0  0  0  0
  -21.8838   -3.8129   23.4345 C   0  0  0  0  0  0
  -21.9182   -4.6945   22.3396 C   0  0  0  0  0  0
  -22.7904  -13.5239   21.1809 C   0  0  0  0  0  0
  -22.1628   -4.2135   21.0982 F   0  0  0  0  0  0
  -21.5677   -3.4512   25.7735 F   0  0  0  0  0  0
  -30.0419  -13.2707   20.4044 N   0  0  0  0  0  0
  -26.3055  -12.9264   20.3220 N   0  0  0  0  0  0
  -25.9328  -11.6473   20.5781 N   0  0  0  0  0  0
  -22.0488  -12.8298   22.0384 N   0  0  0  0  0  0
  -25.4448  -15.1857   20.3995 N   0  0  0  0  0  0
  -31.9236  -14.5539   20.2513 O   0  0  0  0  0  0
  -21.6641   -6.8867   21.4232 O   0  0  0  0  0  0
  -22.3601  -14.5519   20.6583 O   0  0  0  0  0  0
  -24.6116  -31.8706   23.2123 C   0  0  0  0  0  0
  -25.9020  -32.4839   23.8411 C   0  0  1  0  0  0
  -27.2300  -27.4756   20.0849 C   0  0  0  0  0  0
  -25.5866  -33.8631   24.2341 N   0  0  0  0  0  0
  -23.3989  -30.4932   21.5509 C   0  0  2  0  0  0
  -24.8460  -28.9676   20.1058 C   0  0  0  0  0  0
  -22.7409  -29.4662   22.4997 C   0  0  0  0  0  0
  -18.0279  -28.1382   22.8508 C   0  0  0  0  0  0
  -24.1477  -36.7334   23.2647 C   0  0  0  0  0  0
  -25.9217  -30.8487   21.3587 C   0  0  0  0  0  0
  -25.9999  -29.4881   20.7024 C   0  0  0  0  0  0
  -27.1989  -28.7464   20.6936 C   0  0  0  0  0  0
  -26.0679  -26.9586   19.4797 C   0  0  0  0  0  0
  -24.8726  -27.7002   19.4934 C   0  0  0  0  0  0
  -23.6023  -29.8246   20.1644 C   0  0  0  0  0  0
  -25.4103  -36.3127   24.0345 C   0  0  1  0  0  0
  -20.5881  -28.3647   23.1341 C   0  0  2  0  0  0
  -20.6767  -26.9377   22.5447 C   0  0  0  0  0  0
  -19.5745  -26.6380   21.5243 C   0  0  0  0  0  0
  -18.1914  -26.7942   22.1620 C   0  0  0  0  0  0
  -19.1532  -28.8831   23.2934 C   0  0  0  0  0  0
  -18.9447  -30.1437   23.8936 C   0  0  0  0  0  0
  -17.6451  -30.6584   24.0565 C   0  0  0  0  0  0
  -25.9017  -34.9486   23.5142 C   0  0  0  0  0  0
  -16.5341  -29.9078   23.6324 C   0  0  0  0  0  0
  -16.7273  -28.6500   23.0357 C   0  0  0  0  0  0
  -26.4453  -31.6645   25.0749 C   0  0  0  0  0  0
  -25.3717  -31.3746   26.1500 C   0  0  0  0  0  0
  -27.0270  -30.3094   24.6100 C   0  0  0  0  0  0
  -27.6044  -32.4359   25.7484 C   0  0  0  0  0  0
  -27.5580  -37.1821   24.8448 C   0  0  0  0  0  0
  -21.4145  -29.3009   22.3738 N   0  0  0  0  0  0
  -26.4292  -37.3810   23.9396 N   0  0  0  0  0  0
  -24.6623  -31.0844   22.0992 N   0  0  0  0  0  0
  -23.4212  -28.8209   23.3025 O   0  0  0  0  0  0
  -28.3544  -26.7008   20.1446 O   0  0  0  0  0  0
  -26.5578  -34.8925   22.4703 O   0  0  0  0  0  0
  -23.5323  -32.1428   23.7534 O   0  0  0  0  0  0
  -30.9507  -19.3906   18.9347 C   0  0  0  0  0  0
  -31.1739  -18.2825   18.1017 C   0  0  0  0  0  0
  -30.0092  -17.9200   20.6322 C   0  0  0  0  0  0
  -30.3336  -19.2217   20.1879 C   0  0  0  0  0  0
  -30.8137  -16.9827   18.5142 C   0  0  0  0  0  0
  -30.2705  -16.7927   19.8217 C   0  0  0  0  0  0
  -30.9679  -15.8569   17.4998 C   0  0  0  0  0  0
  -27.0198  -22.0193   19.0582 C   0  0  0  0  0  0
  -28.0349  -24.0736   22.7441 C   0  0  0  0  0  0
  -30.9431  -25.0387   20.3430 C   0  0  0  0  0  0
  -30.8332  -23.5487   22.3152 C   0  0  0  0  0  0
  -30.0250  -20.4308   21.0660 C   0  0  0  0  0  0
  -28.2162  -21.0798   19.2809 C   0  0  0  0  0  0
  -29.9701  -22.7972   20.0369 C   0  0  0  0  0  0
  -28.5364  -26.1367   21.4490 C   0  0  0  0  0  0
  -28.6325  -24.5852   21.4088 C   0  0  1  0  0  0
  -29.1417  -21.5450   20.4333 C   0  0  2  0  0  0
  -30.0570  -23.9859   21.0502 C   0  0  0  0  0  0
  -29.9085  -15.5193   20.3426 N   0  0  0  0  0  0
  -31.4764  -12.3153   19.1503 H   0  0  0  0  0  0
  -30.3096  -11.2487   19.8895 H   0  0  0  0  0  0
  -29.7357  -11.5889   17.5029 H   0  0  0  0  0  0
  -29.7230  -13.3186   17.6941 H   0  0  0  0  0  0
  -27.8095  -11.2642   18.8360 H   0  0  0  0  0  0
  -27.3954  -12.5688   17.7610 H   0  0  0  0  0  0
  -27.6864  -14.2243   19.5064 H   0  0  0  0  0  0
  -28.6827  -12.0034   21.3648 H   0  0  0  0  0  0
  -28.5052  -13.6837   21.8106 H   0  0  0  0  0  0
  -25.2778   -9.5696   22.4703 H   0  0  0  0  0  0
  -24.0020   -7.4646   22.7459 H   0  0  0  0  0  0
  -21.0814   -8.8747   19.8940 H   0  0  0  0  0  0
  -22.3656  -10.9652   19.6149 H   0  0  0  0  0  0
  -21.1914   -7.6115   23.9713 H   0  0  0  0  0  0
  -21.1503   -6.0475   25.9092 H   0  0  0  0  0  0
  -22.0588   -2.7575   23.2840 H   0  0  0  0  0  0
  -22.4047  -12.0014   22.4929 H   0  0  0  0  0  0
  -21.1070  -13.1322   22.2437 H   0  0  0  0  0  0
  -24.6805  -15.8459   20.5075 H   0  0  0  0  0  0
  -26.2985  -15.6199   20.0723 H   0  0  0  0  0  0
  -26.7094  -32.5557   23.1195 H   0  0  0  0  0  0
  -25.0002  -33.9793   25.0462 H   0  0  0  0  0  0
  -22.6882  -31.3110   21.4140 H   0  0  0  0  0  0
  -23.3729  -35.9675   23.3316 H   0  0  0  0  0  0
  -24.3566  -36.8936   22.2058 H   0  0  0  0  0  0
  -23.7234  -37.6545   23.6647 H   0  0  0  0  0  0
  -26.0291  -31.6152   20.5901 H   0  0  0  0  0  0
  -26.8137  -30.9022   21.9726 H   0  0  0  0  0  0
  -28.0879  -29.1319   21.1734 H   0  0  0  0  0  0
  -26.0832  -25.9748   19.0312 H   0  0  0  0  0  0
  -23.9803  -27.2951   19.0378 H   0  0  0  0  0  0
  -23.6922  -30.5965   19.3993 H   0  0  0  0  0  0
  -22.7302  -29.2338   19.8810 H   0  0  0  0  0  0
  -25.1293  -36.2005   25.0842 H   0  0  0  0  0  0
  -20.9995  -28.3200   24.1457 H   0  0  0  0  0  0
  -20.5681  -26.2235   23.3631 H   0  0  0  0  0  0
  -21.6628  -26.7416   22.1220 H   0  0  0  0  0  0
  -19.6878  -25.6297   21.1250 H   0  0  0  0  0  0
  -19.6720  -27.3216   20.6802 H   0  0  0  0  0  0
  -17.4222  -26.6765   21.3984 H   0  0  0  0  0  0
  -18.0237  -26.0079   22.8991 H   0  0  0  0  0  0
  -19.7925  -30.7250   24.2332 H   0  0  0  0  0  0
  -17.4997  -31.6278   24.5139 H   0  0  0  0  0  0
  -15.5337  -30.2979   23.7642 H   0  0  0  0  0  0
  -15.8683  -28.0821   22.7050 H   0  0  0  0  0  0
  -24.5894  -30.7098   25.7833 H   0  0  0  0  0  0
  -24.8908  -32.2900   26.4962 H   0  0  0  0  0  0
  -25.8076  -30.8911   27.0256 H   0  0  0  0  0  0
  -26.2805  -29.6884   24.1152 H   0  0  0  0  0  0
  -27.4038  -29.7322   25.4554 H   0  0  0  0  0  0
  -27.8638  -30.4429   23.9242 H   0  0  0  0  0  0
  -27.2682  -33.3637   26.2126 H   0  0  0  0  0  0
  -28.3812  -32.6974   25.0284 H   0  0  0  0  0  0
  -28.0774  -31.8464   26.5347 H   0  0  0  0  0  0
  -28.2620  -38.0100   24.7490 H   0  0  0  0  0  0
  -28.1057  -36.2639   24.6285 H   0  0  0  0  0  0
  -27.2294  -37.1482   25.8850 H   0  0  0  0  0  0
  -20.9290  -29.8702   21.6944 H   0  0  0  0  0  0
  -26.0193  -38.2884   24.1417 H   0  0  0  0  0  0
  -31.2147  -20.3805   18.5832 H   0  0  0  0  0  0
  -31.6049  -18.4441   17.1225 H   0  0  0  0  0  0
  -29.5588  -17.7822   21.6052 H   0  0  0  0  0  0
  -31.5069  -14.9913   17.8781 H   0  0  0  0  0  0
  -31.5164  -16.1864   16.6161 H   0  0  0  0  0  0
  -29.9821  -15.5373   17.1625 H   0  0  0  0  0  0
  -26.3648  -21.6351   18.2741 H   0  0  0  0  0  0
  -27.3299  -23.0236   18.7601 H   0  0  0  0  0  0
  -26.4267  -22.1118   19.9686 H   0  0  0  0  0  0
  -26.9834  -24.3482   22.8289 H   0  0  0  0  0  0
  -28.5448  -24.5323   23.5918 H   0  0  0  0  0  0
  -28.0832  -22.9967   22.8896 H   0  0  0  0  0  0
  -31.8852  -24.6091   20.0019 H   0  0  0  0  0  0
  -31.2121  -25.8636   21.0019 H   0  0  0  0  0  0
  -30.4452  -25.4586   19.4690 H   0  0  0  0  0  0
  -31.8369  -23.2009   22.0694 H   0  0  0  0  0  0
  -30.3424  -22.7373   22.8538 H   0  0  0  0  0  0
  -30.9427  -24.3780   23.0159 H   0  0  0  0  0  0
  -30.9614  -20.8331   21.4538 H   0  0  0  0  0  0
  -29.4970  -20.0590   21.9431 H   0  0  0  0  0  0
  -28.7745  -20.9877   18.3499 H   0  0  0  0  0  0
  -27.8261  -20.0848   19.4977 H   0  0  0  0  0  0
  -29.5929  -23.1868   19.0905 H   0  0  0  0  0  0
  -30.9809  -22.4677   19.7881 H   0  0  0  0  0  0
  -29.3957  -26.5862   21.9405 H   0  0  0  0  0  0
  -27.7007  -26.4142   22.0988 H   0  0  0  0  0  0
  -27.9358  -24.2692   20.6317 H   0  0  0  0  0  0
  -28.4625  -21.8387   21.2220 H   0  0  0  0  0  0
  -28.9358  -15.3714   20.5581 H   0  0  0  0  0  0
  1 25  1  0  0  0
  1 30  2  0  0  0
  1 89  1  0  0  0
  2  3  1  0  0  0
  2 25  1  0  0  0
  2 90  1  0  0  0
  2 91  1  0  0  0
  3  4  1  0  0  0
  3 92  1  0  0  0
  3 93  1  0  0  0
  4  5  1  0  0  0
  4 94  1  0  0  0
  4 95  1  0  0  0
  5  6  1  0  0  0
  5 26  1  0  0  0
  5 96  1  0  0  0
  6 25  1  0  0  0
  6 97  1  0  0  0
  6 98  1  0  0  0
  7  8  2  0  0  0
  7 26  1  0  0  0
  7 29  1  0  0  0
  8  9  1  0  0  0
  8 22  1  0  0  0
  9 10  1  0  0  0
  9 27  2  0  0  0
 10 11  2  0  0  0
 10 15  1  0  0  0
 11 12  1  0  0  0
 11 99  1  0  0  0
 12 13  2  0  0  0
 12100  1  0  0  0
 13 14  1  0  0  0
 13 31  1  0  0  0
 14 15  2  0  0  0
 14101  1  0  0  0
 15102  1  0  0  0
 16 17  2  0  0  0
 16 21  1  0  0  0
 16 31  1  0  0  0
 17 18  1  0  0  0
 17103  1  0  0  0
 18 19  2  0  0  0
 18104  1  0  0  0
 19 20  1  0  0  0
 19 24  1  0  0  0
 20 21  2  0  0  0
 20105  1  0  0  0
 21 23  1  0  0  0
 22 28  1  0  0  0
 22 32  2  0  0  0
 26 27  1  0  0  0
 28106  1  0  0  0
 28107  1  0  0  0
 29108  1  0  0  0
 29109  1  0  0  0
 33 34  1  0  0  0
 33 66  1  0  0  0
 33 70  2  0  0  0
 34 36  1  0  0  0
 34 59  1  0  0  0
 34110  1  0  0  0
 35 44  2  0  0  0
 35 45  1  0  0  0
 35 68  1  0  0  0
 36 56  1  0  0  0
 36111  1  0  0  0
 37 39  1  0  0  0
 37 47  1  0  0  0
 37 66  1  0  0  0
 37112  1  0  0  0
 38 43  2  0  0  0
 38 46  1  0  0  0
 38 47  1  0  0  0
 39 64  1  0  0  0
 39 67  2  0  0  0
 40 52  1  0  0  0
 40 53  2  0  0  0
 40 58  1  0  0  0
 41113  1  0  0  0
 41114  1  0  0  0
 41115  1  0  0  0
 41 48  1  0  0  0
 42 43  1  0  0  0
 42 66  1  0  0  0
 42116  1  0  0  0
 42117  1  0  0  0
 43 44  1  0  0  0
 44118  1  0  0  0
 45 46  2  0  0  0
 45119  1  0  0  0
 46120  1  0  0  0
 47121  1  0  0  0
 47122  1  0  0  0
 48 56  1  0  0  0
 48 65  1  0  0  0
 48123  1  0  0  0
 49 50  1  0  0  0
 49 53  1  0  0  0
 49 64  1  0  0  0
 49124  1  0  0  0
 50 51  1  0  0  0
 50125  1  0  0  0
 50126  1  0  0  0
 51 52  1  0  0  0
 51127  1  0  0  0
 51128  1  0  0  0
 52129  1  0  0  0
 52130  1  0  0  0
 53 54  1  0  0  0
 54 55  2  0  0  0
 54131  1  0  0  0
 55 57  1  0  0  0
 55132  1  0  0  0
 56 69  2  0  0  0
 57 58  2  0  0  0
 57133  1  0  0  0
 58134  1  0  0  0
 59 60  1  0  0  0
 59 61  1  0  0  0
 59 62  1  0  0  0
 60135  1  0  0  0
 60136  1  0  0  0
 60137  1  0  0  0
 61138  1  0  0  0
 61139  1  0  0  0
 61140  1  0  0  0
 62141  1  0  0  0
 62142  1  0  0  0
 62143  1  0  0  0
 63 65  1  0  0  0
 63144  1  0  0  0
 63145  1  0  0  0
 63146  1  0  0  0
 64147  1  0  0  0
 65148  1  0  0  0
 68 85  1  0  0  0
 71 72  2  0  0  0
 71 74  1  0  0  0
 71149  1  0  0  0
 72 75  1  0  0  0
 72150  1  0  0  0
 73 74  2  0  0  0
 73 76  1  0  0  0
 73151  1  0  0  0
 74 82  1  0  0  0
 75 76  2  0  0  0
 75 77  1  0  0  0
 76 89  1  0  0  0
 77152  1  0  0  0
 77153  1  0  0  0
 77154  1  0  0  0
 78 83  1  0  0  0
 78155  1  0  0  0
 78156  1  0  0  0
 78157  1  0  0  0
 79158  1  0  0  0
 79159  1  0  0  0
 79160  1  0  0  0
 79 86  1  0  0  0
 80161  1  0  0  0
 80162  1  0  0  0
 80163  1  0  0  0
 80 88  1  0  0  0
 81 88  1  0  0  0
 81164  1  0  0  0
 81165  1  0  0  0
 81166  1  0  0  0
 82167  1  0  0  0
 82168  1  0  0  0
 82 87  1  0  0  0
 83 87  1  0  0  0
 83169  1  0  0  0
 83170  1  0  0  0
 84 87  1  0  0  0
 84 88  1  0  0  0
 84171  1  0  0  0
 84172  1  0  0  0
 85 86  1  0  0  0
 85173  1  0  0  0
 85174  1  0  0  0
 86 88  1  0  0  0
 86175  1  0  0  0
 87176  1  0  0  0
 89177  1  0  0  0
M  ISO  4   1 100  68 101  85 101  89 100
M  END
> <chiral flag>
0

> <version>
0

> <s_m_source_file>
/data/baiqing/PycharmProjects/Reinvent-master-3.2/result/LINK_invent/BTK/process_docking_weight1_custom_product_contain_oxygen_bond_distance_aromatic_linkinvent_7_9_3/rearranged_h_0135.sdf

> <i_m_source_file_index>
75

> <r_mmod_Potential_Energy-OPLS-2005>
115.399360656738

> <r_mmod_Stretch_Energy-OPLS-2005>
41.1025619506836

> <r_mmod_Bend_Energy-OPLS-2005>
114.361000061035

> <r_mmod_Torsional_Energy-OPLS-2005>
326.97998046875

> <r_mmod_Improper_Torsional_Energy-OPLS-2005>
8.95610046386719

> <r_mmod_Van_der_Waal_Energy-OPLS-2005>
169.414855957031

> <r_mmod_Electrostatic_Energy-OPLS-2005>
-385.360687255859

> <r_mmod_Solvation_Energy-OPLS-2005>
-186.892547607422

> <b_mmod_Minimization_Converged-OPLS-2005>
0

> <r_mmod_RMS_Derivative-OPLS-2005>
4.62850570678711

$$$$
75
                    3D
 Structure written by MMmdl.
157165  0  0  1  0            999 V2000
  -30.6743  -14.6206   20.5953 C   0  0  0  0  0  0
  -30.4348  -12.4079   19.4647 C   0  0  0  0  0  0
  -29.5106  -12.5393   18.2334 C   0  0  0  0  0  0
  -28.0323  -12.3669   18.6323 C   0  0  0  0  0  0
  -27.6562  -13.2184   19.8716 C   0  0  2  0  0  0
  -28.6917  -13.0371   21.0010 C   0  0  0  0  0  0
  -25.2509  -13.8136   20.5578 C   0  0  0  0  0  0
  -24.1812  -13.0413   20.9178 C   0  0  0  0  0  0
  -24.6396  -11.6891   20.8748 C   0  0  0  0  0  0
  -23.9064  -10.4278   21.0412 C   0  0  0  0  0  0
  -24.3616   -9.4195   21.9189 C   0  0  0  0  0  0
  -23.6289   -8.2233   22.0756 C   0  0  0  0  0  0
  -22.4272   -8.0276   21.3544 C   0  0  0  0  0  0
  -21.9906   -9.0248   20.4644 C   0  0  0  0  0  0
  -22.7236  -10.2125   20.3056 C   0  0  0  0  0  0
  -21.6848   -6.0729   22.5275 C   0  0  0  0  0  0
  -21.4011   -6.5632   23.8210 C   0  0  0  0  0  0
  -21.3663   -5.6788   24.9174 C   0  0  0  0  0  0
  -21.6043   -4.3052   24.7225 C   0  0  0  0  0  0
  -21.8823   -3.8140   23.4347 C   0  0  0  0  0  0
  -21.9193   -4.6956   22.3401 C   0  0  0  0  0  0
  -22.7837  -13.5211   21.1848 C   0  0  0  0  0  0
  -22.1662   -4.2139   21.0981 F   0  0  0  0  0  0
  -21.5632   -3.4538   25.7742 F   0  0  0  0  0  0
  -30.0185  -13.4107   20.4737 N   0  0  0  0  0  0
  -26.2982  -12.9349   20.3307 N   0  0  0  0  0  0
  -25.9329  -11.6499   20.5761 N   0  0  0  0  0  0
  -22.0492  -12.8208   22.0418 N   0  0  0  0  0  0
  -25.4095  -15.1828   20.3779 N   0  0  0  0  0  0
  -31.7486  -14.8137   20.0149 O   0  0  0  0  0  0
  -21.6635   -6.8872   21.4239 O   0  0  0  0  0  0
  -22.3517  -14.5517   20.6696 O   0  0  0  0  0  0
  -24.6266  -31.8601   23.2043 C   0  0  0  0  0  0
  -25.9113  -32.4778   23.8369 C   0  0  1  0  0  0
  -27.2219  -27.3183   20.1133 C   0  0  0  0  0  0
  -25.5921  -33.8577   24.2289 N   0  0  0  0  0  0
  -23.4201  -30.4857   21.5484 C   0  0  2  0  0  0
  -24.8654  -28.9440   20.1122 C   0  0  0  0  0  0
  -22.7471  -29.4630   22.4950 C   0  0  0  0  0  0
  -18.0282  -28.1385   22.8486 C   0  0  0  0  0  0
  -24.1484  -36.7298   23.2640 C   0  0  0  0  0  0
  -25.9621  -30.7911   21.3755 C   0  0  0  0  0  0
  -26.0365  -29.4194   20.7159 C   0  0  0  0  0  0
  -27.2185  -28.6187   20.7072 C   0  0  0  0  0  0
  -26.0253  -26.9016   19.4814 C   0  0  0  0  0  0
  -24.8621  -27.6900   19.4867 C   0  0  0  0  0  0
  -23.6330  -29.8229   20.1637 C   0  0  0  0  0  0
  -25.4109  -36.3085   24.0328 C   0  0  1  0  0  0
  -20.5881  -28.3690   23.1285 C   0  0  2  0  0  0
  -20.6774  -26.9415   22.5413 C   0  0  0  0  0  0
  -19.5750  -26.6387   21.5216 C   0  0  0  0  0  0
  -18.1928  -26.7930   22.1625 C   0  0  0  0  0  0
  -19.1533  -28.8857   23.2876 C   0  0  0  0  0  0
  -18.9454  -30.1461   23.8889 C   0  0  0  0  0  0
  -17.6455  -30.6592   24.0565 C   0  0  0  0  0  0
  -25.9042  -34.9450   23.5109 C   0  0  0  0  0  0
  -16.5343  -29.9086   23.6342 C   0  0  0  0  0  0
  -16.7269  -28.6507   23.0353 C   0  0  0  0  0  0
  -26.4496  -31.6585   25.0738 C   0  0  0  0  0  0
  -25.3726  -31.3714   26.1461 C   0  0  0  0  0  0
  -27.0354  -30.3011   24.6203 C   0  0  0  0  0  0
  -27.6059  -32.4325   25.7495 C   0  0  0  0  0  0
  -27.5579  -37.1793   24.8463 C   0  0  0  0  0  0
  -21.4183  -29.3045   22.3685 N   0  0  0  0  0  0
  -26.4288  -37.3780   23.9413 N   0  0  0  0  0  0
  -24.6890  -31.0613   22.0999 N   0  0  0  0  0  0
  -23.4194  -28.8158   23.3022 O   0  0  0  0  0  0
  -28.3297  -26.4543   20.1675 O   0  0  0  0  0  0
  -26.5614  -34.8917   22.4676 O   0  0  0  0  0  0
  -23.5430  -32.1400   23.7373 O   0  0  0  0  0  0
  -31.0803  -17.9432   20.5453 C   0  0  0  0  0  0
  -31.0498  -19.3475   20.2968 C   0  0  0  0  0  0
  -28.7677  -19.4431   21.0010 C   0  0  0  0  0  0
  -29.9647  -17.2272   21.0582 C   0  0  0  0  0  0
  -28.7874  -18.0341   21.2641 C   0  0  0  0  0  0
  -29.9037  -20.1487   20.5334 C   0  0  0  0  0  0
  -30.0832  -15.7507   21.5223 C   0  0  0  0  0  0
  -29.1910  -23.9794   20.3486 C   0  0  0  0  0  0
  -27.2187  -17.8009   23.2600 C   0  0  0  0  0  0
  -27.4835  -17.4424   21.7916 C   0  0  0  0  0  0
  -28.0377  -25.0040   20.0313 C   0  0  0  0  0  0
  -28.8381  -22.4405   20.4905 C   0  0  0  0  0  0
  -29.7439  -15.4784   22.7142 N   0  0  0  0  0  0
  -30.3563  -24.3718   20.4832 O   0  0  0  0  0  0
  -29.9820  -21.5405   20.3114 O   0  0  0  0  0  0
  -31.4767  -12.5275   19.1639 H   0  0  0  0  0  0
  -30.3707  -11.4027   19.8846 H   0  0  0  0  0  0
  -29.7822  -11.8034   17.4753 H   0  0  0  0  0  0
  -29.6534  -13.5190   17.7748 H   0  0  0  0  0  0
  -27.8654  -11.3103   18.8454 H   0  0  0  0  0  0
  -27.3821  -12.6143   17.7925 H   0  0  0  0  0  0
  -27.6875  -14.2627   19.5608 H   0  0  0  0  0  0
  -28.7071  -11.9984   21.3341 H   0  0  0  0  0  0
  -28.3827  -13.6021   21.8755 H   0  0  0  0  0  0
  -25.2761   -9.5670   22.4761 H   0  0  0  0  0  0
  -23.9994   -7.4625   22.7477 H   0  0  0  0  0  0
  -21.0836   -8.8767   19.8951 H   0  0  0  0  0  0
  -22.3697  -10.9664   19.6164 H   0  0  0  0  0  0
  -21.1999   -7.6141   23.9707 H   0  0  0  0  0  0
  -21.1484   -6.0520   25.9076 H   0  0  0  0  0  0
  -22.0600   -2.7600   23.2850 H   0  0  0  0  0  0
  -22.4115  -11.9875   22.4802 H   0  0  0  0  0  0
  -21.1110  -13.1230   22.2638 H   0  0  0  0  0  0
  -24.6270  -15.8233   20.4525 H   0  0  0  0  0  0
  -26.2369  -15.6089   19.9828 H   0  0  0  0  0  0
  -26.7175  -32.5448   23.1112 H   0  0  0  0  0  0
  -25.0051  -33.9719   25.0424 H   0  0  0  0  0  0
  -22.7141  -31.3067   21.4080 H   0  0  0  0  0  0
  -23.3751  -35.9622   23.3286 H   0  0  0  0  0  0
  -24.3575  -36.8947   22.2059 H   0  0  0  0  0  0
  -23.7227  -37.6487   23.6678 H   0  0  0  0  0  0
  -26.0925  -31.5542   20.6072 H   0  0  0  0  0  0
  -26.8423  -30.8397   22.0049 H   0  0  0  0  0  0
  -28.1154  -28.9781   21.1924 H   0  0  0  0  0  0
  -25.9507  -25.9485   18.9806 H   0  0  0  0  0  0
  -23.9653  -27.3212   19.0080 H   0  0  0  0  0  0
  -23.7483  -30.5996   19.4072 H   0  0  0  0  0  0
  -22.7532  -29.2504   19.8655 H   0  0  0  0  0  0
  -25.1288  -36.1934   25.0821 H   0  0  0  0  0  0
  -20.9962  -28.3266   24.1410 H   0  0  0  0  0  0
  -20.5691  -26.2291   23.3609 H   0  0  0  0  0  0
  -21.6638  -26.7460   22.1195 H   0  0  0  0  0  0
  -19.6910  -25.6301   21.1242 H   0  0  0  0  0  0
  -19.6684  -27.3196   20.6745 H   0  0  0  0  0  0
  -17.4199  -26.6674   21.4028 H   0  0  0  0  0  0
  -18.0320  -26.0076   22.9021 H   0  0  0  0  0  0
  -19.7930  -30.7280   24.2244 H   0  0  0  0  0  0
  -17.5013  -31.6273   24.5172 H   0  0  0  0  0  0
  -15.5340  -30.2984   23.7687 H   0  0  0  0  0  0
  -15.8664  -28.0835   22.7066 H   0  0  0  0  0  0
  -24.5898  -30.7073   25.7780 H   0  0  0  0  0  0
  -24.8914  -32.2874   26.4898 H   0  0  0  0  0  0
  -25.8045  -30.8875   27.0230 H   0  0  0  0  0  0
  -26.2940  -29.6727   24.1253 H   0  0  0  0  0  0
  -27.4087  -29.7300   25.4713 H   0  0  0  0  0  0
  -27.8788  -30.4311   23.9415 H   0  0  0  0  0  0
  -27.2700  -33.3659   26.2022 H   0  0  0  0  0  0
  -28.3881  -32.6824   25.0316 H   0  0  0  0  0  0
  -28.0703  -31.8476   26.5445 H   0  0  0  0  0  0
  -28.2580  -38.0107   24.7543 H   0  0  0  0  0  0
  -28.1096  -36.2642   24.6257 H   0  0  0  0  0  0
  -27.2299  -37.1405   25.8865 H   0  0  0  0  0  0
  -20.9355  -29.8766   21.6895 H   0  0  0  0  0  0
  -26.0171  -38.2851   24.1434 H   0  0  0  0  0  0
  -32.0114  -17.4192   20.3823 H   0  0  0  0  0  0
  -31.9493  -19.8254   19.9359 H   0  0  0  0  0  0
  -27.8544  -19.9882   21.1933 H   0  0  0  0  0  0
  -26.2825  -17.3569   23.5995 H   0  0  0  0  0  0
  -27.1401  -18.8796   23.4000 H   0  0  0  0  0  0
  -28.0119  -17.4376   23.9129 H   0  0  0  0  0  0
  -27.4565  -16.3619   21.6667 H   0  0  0  0  0  0
  -26.6635  -17.8190   21.1791 H   0  0  0  0  0  0
  -27.1905  -24.7478   20.6692 H   0  0  0  0  0  0
  -27.7348  -24.8051   19.0032 H   0  0  0  0  0  0
  -28.0626  -22.1877   19.7668 H   0  0  0  0  0  0
  -28.4144  -22.2849   21.4824 H   0  0  0  0  0  0
  -29.4078  -16.3101   23.1837 H   0  0  0  0  0  0
  1 25  1  0  0  0
  1 30  2  0  0  0
  1 77  1  0  0  0
  2  3  1  0  0  0
  2 25  1  0  0  0
  2 86  1  0  0  0
  2 87  1  0  0  0
  3  4  1  0  0  0
  3 88  1  0  0  0
  3 89  1  0  0  0
  4  5  1  0  0  0
  4 90  1  0  0  0
  4 91  1  0  0  0
  5  6  1  0  0  0
  5 26  1  0  0  0
  5 92  1  0  0  0
  6 25  1  0  0  0
  6 93  1  0  0  0
  6 94  1  0  0  0
  7  8  2  0  0  0
  7 26  1  0  0  0
  7 29  1  0  0  0
  8  9  1  0  0  0
  8 22  1  0  0  0
  9 10  1  0  0  0
  9 27  2  0  0  0
 10 11  2  0  0  0
 10 15  1  0  0  0
 11 12  1  0  0  0
 11 95  1  0  0  0
 12 13  2  0  0  0
 12 96  1  0  0  0
 13 14  1  0  0  0
 13 31  1  0  0  0
 14 15  2  0  0  0
 14 97  1  0  0  0
 15 98  1  0  0  0
 16 17  2  0  0  0
 16 21  1  0  0  0
 16 31  1  0  0  0
 17 18  1  0  0  0
 17 99  1  0  0  0
 18 19  2  0  0  0
 18100  1  0  0  0
 19 20  1  0  0  0
 19 24  1  0  0  0
 20 21  2  0  0  0
 20101  1  0  0  0
 21 23  1  0  0  0
 22 28  1  0  0  0
 22 32  2  0  0  0
 26 27  1  0  0  0
 28102  1  0  0  0
 28103  1  0  0  0
 29104  1  0  0  0
 29105  1  0  0  0
 33 34  1  0  0  0
 33 66  1  0  0  0
 33 70  2  0  0  0
 34 36  1  0  0  0
 34 59  1  0  0  0
 34106  1  0  0  0
 35 44  2  0  0  0
 35 45  1  0  0  0
 35 68  1  0  0  0
 36 56  1  0  0  0
 36107  1  0  0  0
 37 39  1  0  0  0
 37 47  1  0  0  0
 37 66  1  0  0  0
 37108  1  0  0  0
 38 43  2  0  0  0
 38 46  1  0  0  0
 38 47  1  0  0  0
 39 64  1  0  0  0
 39 67  2  0  0  0
 40 52  1  0  0  0
 40 53  2  0  0  0
 40 58  1  0  0  0
 41109  1  0  0  0
 41110  1  0  0  0
 41111  1  0  0  0
 41 48  1  0  0  0
 42 43  1  0  0  0
 42 66  1  0  0  0
 42112  1  0  0  0
 42113  1  0  0  0
 43 44  1  0  0  0
 44114  1  0  0  0
 45 46  2  0  0  0
 45115  1  0  0  0
 46116  1  0  0  0
 47117  1  0  0  0
 47118  1  0  0  0
 48 56  1  0  0  0
 48 65  1  0  0  0
 48119  1  0  0  0
 49 50  1  0  0  0
 49 53  1  0  0  0
 49 64  1  0  0  0
 49120  1  0  0  0
 50 51  1  0  0  0
 50121  1  0  0  0
 50122  1  0  0  0
 51 52  1  0  0  0
 51123  1  0  0  0
 51124  1  0  0  0
 52125  1  0  0  0
 52126  1  0  0  0
 53 54  1  0  0  0
 54 55  2  0  0  0
 54127  1  0  0  0
 55 57  1  0  0  0
 55128  1  0  0  0
 56 69  2  0  0  0
 57 58  2  0  0  0
 57129  1  0  0  0
 58130  1  0  0  0
 59 60  1  0  0  0
 59 61  1  0  0  0
 59 62  1  0  0  0
 60131  1  0  0  0
 60132  1  0  0  0
 60133  1  0  0  0
 61134  1  0  0  0
 61135  1  0  0  0
 61136  1  0  0  0
 62137  1  0  0  0
 62138  1  0  0  0
 62139  1  0  0  0
 63 65  1  0  0  0
 63140  1  0  0  0
 63141  1  0  0  0
 63142  1  0  0  0
 64143  1  0  0  0
 65144  1  0  0  0
 68 81  1  0  0  0
 71 72  2  0  0  0
 71 74  1  0  0  0
 71145  1  0  0  0
 72 76  1  0  0  0
 72146  1  0  0  0
 73 75  1  0  0  0
 73 76  2  0  0  0
 73147  1  0  0  0
 74 75  2  0  0  0
 74 77  1  0  0  0
 75 80  1  0  0  0
 76 85  1  0  0  0
 77 83  2  0  0  0
 78 81  1  0  0  0
 78 82  1  0  0  0
 78 84  2  0  0  0
 79 80  1  0  0  0
 79148  1  0  0  0
 79149  1  0  0  0
 79150  1  0  0  0
 80151  1  0  0  0
 80152  1  0  0  0
 81153  1  0  0  0
 81154  1  0  0  0
 82 85  1  0  0  0
 82155  1  0  0  0
 82156  1  0  0  0
 83157  1  0  0  0
M  ISO  4   1 100  68 101  77 100  81 101
M  END
> <chiral flag>
0

> <version>
0

> <s_m_source_file>
/data/baiqing/PycharmProjects/Reinvent-master-3.2/result/LINK_invent/BTK/process_docking_weight1_custom_product_contain_oxygen_bond_distance_aromatic_linkinvent_7_9_3/rearranged_h_0135.sdf

> <i_m_source_file_index>
76

> <r_mmod_Potential_Energy-OPLS-2005>
244.023254394531

> <r_mmod_Stretch_Energy-OPLS-2005>
94.0038452148438

> <r_mmod_Bend_Energy-OPLS-2005>
148.892669677734

> <r_mmod_Torsional_Energy-OPLS-2005>
206.775039672852

> <r_mmod_Improper_Torsional_Energy-OPLS-2005>
3.46957778930664

> <r_mmod_Van_der_Waal_Energy-OPLS-2005>
149.595687866211

> <r_mmod_Electrostatic_Energy-OPLS-2005>
-175.764907836914

> <r_mmod_Solvation_Energy-OPLS-2005>
-228.199920654297

> <b_mmod_Minimization_Converged-OPLS-2005>
0

> <r_mmod_RMS_Derivative-OPLS-2005>
0.999885261058807

$$$$
76
                    3D
 Structure written by MMmdl.
166174  0  0  1  0            999 V2000
  -30.5686  -14.7616   20.4940 C   0  0  0  0  0  0
  -30.4531  -12.4708   19.4677 C   0  0  0  0  0  0
  -29.5182  -12.5078   18.2368 C   0  0  0  0  0  0
  -28.0454  -12.3141   18.6532 C   0  0  0  0  0  0
  -27.6440  -13.2161   19.8490 C   0  0  2  0  0  0
  -28.6918  -13.1267   20.9791 C   0  0  0  0  0  0
  -25.2526  -13.8149   20.5681 C   0  0  0  0  0  0
  -24.1813  -13.0419   20.9213 C   0  0  0  0  0  0
  -24.6388  -11.6888   20.8759 C   0  0  0  0  0  0
  -23.9054  -10.4277   21.0418 C   0  0  0  0  0  0
  -24.3604   -9.4186   21.9188 C   0  0  0  0  0  0
  -23.6280   -8.2223   22.0759 C   0  0  0  0  0  0
  -22.4264   -8.0264   21.3544 C   0  0  0  0  0  0
  -21.9900   -9.0238   20.4647 C   0  0  0  0  0  0
  -22.7229  -10.2118   20.3059 C   0  0  0  0  0  0
  -21.6845   -6.0725   22.5279 C   0  0  0  0  0  0
  -21.4011   -6.5633   23.8211 C   0  0  0  0  0  0
  -21.3660   -5.6787   24.9173 C   0  0  0  0  0  0
  -21.6046   -4.3052   24.7229 C   0  0  0  0  0  0
  -21.8816   -3.8140   23.4350 C   0  0  0  0  0  0
  -21.9191   -4.6953   22.3403 C   0  0  0  0  0  0
  -22.7835  -13.5211   21.1877 C   0  0  0  0  0  0
  -22.1656   -4.2138   21.0980 F   0  0  0  0  0  0
  -21.5632   -3.4539   25.7743 F   0  0  0  0  0  0
  -29.9853  -13.5159   20.4024 N   0  0  0  0  0  0
  -26.2946  -12.9327   20.3262 N   0  0  0  0  0  0
  -25.9309  -11.6490   20.5747 N   0  0  0  0  0  0
  -22.0476  -12.8204   22.0425 N   0  0  0  0  0  0
  -25.4188  -15.1881   20.4068 N   0  0  0  0  0  0
  -31.7659  -14.9079   20.2262 O   0  0  0  0  0  0
  -21.6628   -6.8863   21.4237 O   0  0  0  0  0  0
  -22.3511  -14.5508   20.6705 O   0  0  0  0  0  0
  -24.6300  -31.8581   23.1991 C   0  0  0  0  0  0
  -25.9128  -32.4766   23.8342 C   0  0  1  0  0  0
  -27.2187  -27.2578   20.1275 C   0  0  0  0  0  0
  -25.5929  -33.8570   24.2274 N   0  0  0  0  0  0
  -23.4274  -30.4822   21.5440 C   0  0  2  0  0  0
  -24.8747  -28.9316   20.1121 C   0  0  0  0  0  0
  -22.7513  -29.4616   22.4909 C   0  0  0  0  0  0
  -18.0299  -28.1383   22.8485 C   0  0  0  0  0  0
  -24.1495  -36.7276   23.2638 C   0  0  0  0  0  0
  -25.9743  -30.7718   21.3771 C   0  0  0  0  0  0
  -26.0493  -29.3937   20.7187 C   0  0  0  0  0  0
  -27.2242  -28.5715   20.7129 C   0  0  0  0  0  0
  -26.0150  -26.8688   19.4943 C   0  0  0  0  0  0
  -24.8636  -27.6773   19.4884 C   0  0  0  0  0  0
  -23.6457  -29.8186   20.1602 C   0  0  0  0  0  0
  -25.4120  -36.3075   24.0328 C   0  0  1  0  0  0
  -20.5904  -28.3699   23.1255 C   0  0  2  0  0  0
  -20.6785  -26.9414   22.5399 C   0  0  0  0  0  0
  -19.5767  -26.6382   21.5197 C   0  0  0  0  0  0
  -18.1949  -26.7933   22.1615 C   0  0  0  0  0  0
  -19.1553  -28.8856   23.2869 C   0  0  0  0  0  0
  -18.9474  -30.1455   23.8890 C   0  0  0  0  0  0
  -17.6471  -30.6583   24.0557 C   0  0  0  0  0  0
  -25.9056  -34.9447   23.5107 C   0  0  0  0  0  0
  -16.5365  -29.9082   23.6323 C   0  0  0  0  0  0
  -16.7286  -28.6500   23.0352 C   0  0  0  0  0  0
  -26.4509  -31.6581   25.0719 C   0  0  0  0  0  0
  -25.3720  -31.3712   26.1424 C   0  0  0  0  0  0
  -27.0347  -30.3005   24.6170 C   0  0  0  0  0  0
  -27.6084  -32.4304   25.7476 C   0  0  0  0  0  0
  -27.5583  -37.1789   24.8473 C   0  0  0  0  0  0
  -21.4219  -29.3049   22.3648 N   0  0  0  0  0  0
  -26.4295  -37.3770   23.9415 N   0  0  0  0  0  0
  -24.6970  -31.0549   22.0969 N   0  0  0  0  0  0
  -23.4208  -28.8147   23.3005 O   0  0  0  0  0  0
  -28.3103  -26.3512   20.1799 O   0  0  0  0  0  0
  -26.5627  -34.8922   22.4678 O   0  0  0  0  0  0
  -23.5447  -32.1409   23.7284 O   0  0  0  0  0  0
  -29.4055  -19.8749   22.2269 C   0  0  0  0  0  0
  -29.7039  -18.4339   20.3024 C   0  0  0  0  0  0
  -29.4489  -18.7413   23.0652 C   0  0  0  0  0  0
  -29.6278  -17.4278   22.5337 C   0  0  0  0  0  0
  -29.7720  -17.2302   21.1253 C   0  0  0  0  0  0
  -29.5112  -19.7803   20.8294 C   0  0  0  0  0  0
  -30.5852  -19.4353   25.2227 C   0  0  0  0  0  0
  -28.1580  -15.7482   23.7585 C   0  0  0  0  0  0
  -30.0197  -23.9733   21.5420 C   0  0  0  0  0  0
  -29.2713  -19.0154   24.5570 C   0  0  0  0  0  0
  -29.5919  -16.2270   23.4828 C   0  0  0  0  0  0
  -28.0207  -24.8683   20.1597 C   0  0  0  0  0  0
  -28.6069  -22.1569   20.3758 C   0  0  0  0  0  0
  -29.1352  -23.6966   20.3154 C   0  0  2  0  0  0
  -29.6928  -15.8387   20.5931 N   0  0  0  0  0  0
  -29.4788  -20.9772   20.0511 O   0  0  0  0  0  0
  -31.4897  -12.6295   19.1669 H   0  0  0  0  0  0
  -30.4251  -11.4922   19.9503 H   0  0  0  0  0  0
  -29.8109  -11.7401   17.5203 H   0  0  0  0  0  0
  -29.6288  -13.4641   17.7241 H   0  0  0  0  0  0
  -27.9201  -11.2671   18.9307 H   0  0  0  0  0  0
  -27.3828  -12.4843   17.8042 H   0  0  0  0  0  0
  -27.6394  -14.2370   19.4667 H   0  0  0  0  0  0
  -28.7425  -12.1134   21.3808 H   0  0  0  0  0  0
  -28.4231  -13.7659   21.8167 H   0  0  0  0  0  0
  -25.2750   -9.5663   22.4762 H   0  0  0  0  0  0
  -23.9986   -7.4616   22.7487 H   0  0  0  0  0  0
  -21.0823   -8.8751   19.8962 H   0  0  0  0  0  0
  -22.3682  -10.9649   19.6166 H   0  0  0  0  0  0
  -21.2002   -7.6143   23.9707 H   0  0  0  0  0  0
  -21.1489   -6.0525   25.9075 H   0  0  0  0  0  0
  -22.0599   -2.7603   23.2853 H   0  0  0  0  0  0
  -22.4094  -11.9864   22.4806 H   0  0  0  0  0  0
  -21.1095  -13.1226   22.2646 H   0  0  0  0  0  0
  -24.6415  -15.8306   20.5159 H   0  0  0  0  0  0
  -26.2452  -15.6332   20.0317 H   0  0  0  0  0  0
  -26.7187  -32.5449   23.1081 H   0  0  0  0  0  0
  -25.0072  -33.9718   25.0414 H   0  0  0  0  0  0
  -22.7210  -31.3017   21.3984 H   0  0  0  0  0  0
  -23.3769  -35.9597   23.3309 H   0  0  0  0  0  0
  -24.3584  -36.8894   22.2052 H   0  0  0  0  0  0
  -23.7241  -37.6472   23.6661 H   0  0  0  0  0  0
  -26.1073  -31.5327   20.6083 H   0  0  0  0  0  0
  -26.8526  -30.8267   22.0076 H   0  0  0  0  0  0
  -28.1233  -28.9210   21.2014 H   0  0  0  0  0  0
  -25.9192  -25.9151   19.0031 H   0  0  0  0  0  0
  -23.9633  -27.3173   19.0085 H   0  0  0  0  0  0
  -23.7692  -30.5966   19.4066 H   0  0  0  0  0  0
  -22.7634  -29.2537   19.8546 H   0  0  0  0  0  0
  -25.1300  -36.1929   25.0818 H   0  0  0  0  0  0
  -21.0004  -28.3281   24.1372 H   0  0  0  0  0  0
  -20.5683  -26.2304   23.3606 H   0  0  0  0  0  0
  -21.6649  -26.7433   22.1189 H   0  0  0  0  0  0
  -19.6919  -25.6292   21.1230 H   0  0  0  0  0  0
  -19.6696  -27.3187   20.6726 H   0  0  0  0  0  0
  -17.4209  -26.6664   21.4028 H   0  0  0  0  0  0
  -18.0352  -26.0074   22.9012 H   0  0  0  0  0  0
  -19.7947  -30.7266   24.2262 H   0  0  0  0  0  0
  -17.5029  -31.6271   24.5157 H   0  0  0  0  0  0
  -15.5367  -30.2982   23.7656 H   0  0  0  0  0  0
  -15.8685  -28.0818   22.7065 H   0  0  0  0  0  0
  -24.5932  -30.7026   25.7743 H   0  0  0  0  0  0
  -24.8857  -32.2857   26.4816 H   0  0  0  0  0  0
  -25.8019  -30.8915   27.0228 H   0  0  0  0  0  0
  -26.2910  -29.6747   24.1215 H   0  0  0  0  0  0
  -27.4077  -29.7269   25.4668 H   0  0  0  0  0  0
  -27.8775  -30.4308   23.9379 H   0  0  0  0  0  0
  -27.2741  -33.3641   26.2017 H   0  0  0  0  0  0
  -28.3901  -32.6803   25.0289 H   0  0  0  0  0  0
  -28.0743  -31.8443   26.5407 H   0  0  0  0  0  0
  -28.2599  -38.0089   24.7521 H   0  0  0  0  0  0
  -28.1079  -36.2616   24.6302 H   0  0  0  0  0  0
  -27.2297  -37.1443   25.8876 H   0  0  0  0  0  0
  -20.9392  -29.8783   21.6876 H   0  0  0  0  0  0
  -26.0179  -38.2844   24.1424 H   0  0  0  0  0  0
  -29.2996  -20.8466   22.6889 H   0  0  0  0  0  0
  -29.7631  -18.3180   19.2299 H   0  0  0  0  0  0
  -30.4344  -19.6286   26.2845 H   0  0  0  0  0  0
  -30.9823  -20.3455   24.7723 H   0  0  0  0  0  0
  -31.3413  -18.6568   25.1282 H   0  0  0  0  0  0
  -28.1609  -14.8179   24.3260 H   0  0  0  0  0  0
  -27.6121  -15.5735   22.8316 H   0  0  0  0  0  0
  -27.5849  -16.4784   24.3293 H   0  0  0  0  0  0
  -30.4785  -24.9594   21.4793 H   0  0  0  0  0  0
  -30.8227  -23.2403   21.6231 H   0  0  0  0  0  0
  -29.4412  -23.9362   22.4657 H   0  0  0  0  0  0
  -28.8366  -18.1701   25.0861 H   0  0  0  0  0  0
  -28.5383  -19.8156   24.6797 H   0  0  0  0  0  0
  -30.0956  -16.4682   24.4188 H   0  0  0  0  0  0
  -30.1837  -15.4039   23.0919 H   0  0  0  0  0  0
  -27.5460  -24.6443   19.2053 H   0  0  0  0  0  0
  -27.2623  -24.6911   20.9243 H   0  0  0  0  0  0
  -27.8039  -22.0896   19.6415 H   0  0  0  0  0  0
  -28.0903  -22.0087   21.3238 H   0  0  0  0  0  0
  -29.7726  -23.7730   19.4342 H   0  0  0  0  0  0
  -28.7426  -15.5075   20.5454 H   0  0  0  0  0  0
  1 25  1  0  0  0
  1 30  2  0  0  0
  1 85  1  0  0  0
  2  3  1  0  0  0
  2 25  1  0  0  0
  2 87  1  0  0  0
  2 88  1  0  0  0
  3  4  1  0  0  0
  3 89  1  0  0  0
  3 90  1  0  0  0
  4  5  1  0  0  0
  4 91  1  0  0  0
  4 92  1  0  0  0
  5  6  1  0  0  0
  5 26  1  0  0  0
  5 93  1  0  0  0
  6 25  1  0  0  0
  6 94  1  0  0  0
  6 95  1  0  0  0
  7  8  2  0  0  0
  7 26  1  0  0  0
  7 29  1  0  0  0
  8  9  1  0  0  0
  8 22  1  0  0  0
  9 10  1  0  0  0
  9 27  2  0  0  0
 10 11  2  0  0  0
 10 15  1  0  0  0
 11 12  1  0  0  0
 11 96  1  0  0  0
 12 13  2  0  0  0
 12 97  1  0  0  0
 13 14  1  0  0  0
 13 31  1  0  0  0
 14 15  2  0  0  0
 14 98  1  0  0  0
 15 99  1  0  0  0
 16 17  2  0  0  0
 16 21  1  0  0  0
 16 31  1  0  0  0
 17 18  1  0  0  0
 17100  1  0  0  0
 18 19  2  0  0  0
 18101  1  0  0  0
 19 20  1  0  0  0
 19 24  1  0  0  0
 20 21  2  0  0  0
 20102  1  0  0  0
 21 23  1  0  0  0
 22 28  1  0  0  0
 22 32  2  0  0  0
 26 27  1  0  0  0
 28103  1  0  0  0
 28104  1  0  0  0
 29105  1  0  0  0
 29106  1  0  0  0
 33 34  1  0  0  0
 33 66  1  0  0  0
 33 70  2  0  0  0
 34 36  1  0  0  0
 34 59  1  0  0  0
 34107  1  0  0  0
 35 44  2  0  0  0
 35 45  1  0  0  0
 35 68  1  0  0  0
 36 56  1  0  0  0
 36108  1  0  0  0
 37 39  1  0  0  0
 37 47  1  0  0  0
 37 66  1  0  0  0
 37109  1  0  0  0
 38 43  2  0  0  0
 38 46  1  0  0  0
 38 47  1  0  0  0
 39 64  1  0  0  0
 39 67  2  0  0  0
 40 52  1  0  0  0
 40 53  2  0  0  0
 40 58  1  0  0  0
 41110  1  0  0  0
 41111  1  0  0  0
 41112  1  0  0  0
 41 48  1  0  0  0
 42 43  1  0  0  0
 42 66  1  0  0  0
 42113  1  0  0  0
 42114  1  0  0  0
 43 44  1  0  0  0
 44115  1  0  0  0
 45 46  2  0  0  0
 45116  1  0  0  0
 46117  1  0  0  0
 47118  1  0  0  0
 47119  1  0  0  0
 48 56  1  0  0  0
 48 65  1  0  0  0
 48120  1  0  0  0
 49 50  1  0  0  0
 49 53  1  0  0  0
 49 64  1  0  0  0
 49121  1  0  0  0
 50 51  1  0  0  0
 50122  1  0  0  0
 50123  1  0  0  0
 51 52  1  0  0  0
 51124  1  0  0  0
 51125  1  0  0  0
 52126  1  0  0  0
 52127  1  0  0  0
 53 54  1  0  0  0
 54 55  2  0  0  0
 54128  1  0  0  0
 55 57  1  0  0  0
 55129  1  0  0  0
 56 69  2  0  0  0
 57 58  2  0  0  0
 57130  1  0  0  0
 58131  1  0  0  0
 59 60  1  0  0  0
 59 61  1  0  0  0
 59 62  1  0  0  0
 60132  1  0  0  0
 60133  1  0  0  0
 60134  1  0  0  0
 61135  1  0  0  0
 61136  1  0  0  0
 61137  1  0  0  0
 62138  1  0  0  0
 62139  1  0  0  0
 62140  1  0  0  0
 63 65  1  0  0  0
 63141  1  0  0  0
 63142  1  0  0  0
 63143  1  0  0  0
 64144  1  0  0  0
 65145  1  0  0  0
 68 82  1  0  0  0
 71 73  2  0  0  0
 71 76  1  0  0  0
 71146  1  0  0  0
 72 75  1  0  0  0
 72 76  2  0  0  0
 72147  1  0  0  0
 73 74  1  0  0  0
 73 80  1  0  0  0
 74 75  2  0  0  0
 74 81  1  0  0  0
 75 85  1  0  0  0
 76 86  1  0  0  0
 77 80  1  0  0  0
 77148  1  0  0  0
 77149  1  0  0  0
 77150  1  0  0  0
 78 81  1  0  0  0
 78151  1  0  0  0
 78152  1  0  0  0
 78153  1  0  0  0
 79154  1  0  0  0
 79155  1  0  0  0
 79156  1  0  0  0
 79 84  1  0  0  0
 80157  1  0  0  0
 80158  1  0  0  0
 81159  1  0  0  0
 81160  1  0  0  0
 82 84  1  0  0  0
 82161  1  0  0  0
 82162  1  0  0  0
 83 84  1  0  0  0
 83 86  1  0  0  0
 83163  1  0  0  0
 83164  1  0  0  0
 84165  1  0  0  0
 85166  1  0  0  0
M  ISO  4   1 100  68 101  82 101  85 100
M  END
> <chiral flag>
0

> <version>
0

> <s_m_source_file>
/data/baiqing/PycharmProjects/Reinvent-master-3.2/result/LINK_invent/BTK/process_docking_weight1_custom_product_contain_oxygen_bond_distance_aromatic_linkinvent_7_9_3/rearranged_h_0135.sdf

> <i_m_source_file_index>
77

> <r_mmod_Potential_Energy-OPLS-2005>
248.35563659668

> <r_mmod_Stretch_Energy-OPLS-2005>
135.205001831055

> <r_mmod_Bend_Energy-OPLS-2005>
184.003082275391

> <r_mmod_Torsional_Energy-OPLS-2005>
268.027404785156

> <r_mmod_Improper_Torsional_Energy-OPLS-2005>
10.5334300994873

> <r_mmod_Van_der_Waal_Energy-OPLS-2005>
138.085006713867

> <r_mmod_Electrostatic_Energy-OPLS-2005>
-373.858917236328

> <r_mmod_Solvation_Energy-OPLS-2005>
-206.044219970703

> <b_mmod_Minimization_Converged-OPLS-2005>
0

> <r_mmod_RMS_Derivative-OPLS-2005>
2.02176284790039

$$$$
77
                    3D
 Structure written by MMmdl.
176185  0  0  1  0            999 V2000
  -30.8345  -14.0361   21.3088 C   0  0  0  0  0  0
  -30.8542  -12.3732   17.8741 C   0  0  0  0  0  0
  -29.2815  -11.5208   17.6131 C   0  0  0  0  0  0
  -27.8169  -11.8235   18.6298 C   0  0  0  0  0  0
  -27.5123  -13.1126   19.8639 C   0  0  2  0  0  0
  -28.6955  -14.2190   20.6700 C   0  0  0  0  0  0
  -25.2247  -13.8111   20.6684 C   0  0  0  0  0  0
  -24.1432  -13.0412   20.9797 C   0  0  0  0  0  0
  -24.5948  -11.6866   20.9420 C   0  0  0  0  0  0
  -23.8758  -10.4245   21.0704 C   0  0  0  0  0  0
  -24.3428   -9.4118   21.9352 C   0  0  0  0  0  0
  -23.6193   -8.2109   22.0770 C   0  0  0  0  0  0
  -22.4194   -8.0196   21.3517 C   0  0  0  0  0  0
  -21.9809   -9.0179   20.4640 C   0  0  0  0  0  0
  -22.7059  -10.2112   20.3184 C   0  0  0  0  0  0
  -21.6811   -6.0698   22.5267 C   0  0  0  0  0  0
  -21.3986   -6.5630   23.8194 C   0  0  0  0  0  0
  -21.3632   -5.6790   24.9163 C   0  0  0  0  0  0
  -21.6033   -4.3051   24.7218 C   0  0  0  0  0  0
  -21.8832   -3.8141   23.4345 C   0  0  0  0  0  0
  -21.9184   -4.6939   22.3400 C   0  0  0  0  0  0
  -22.7455  -13.5247   21.1990 C   0  0  0  0  0  0
  -22.1669   -4.2135   21.0973 F   0  0  0  0  0  0
  -21.5618   -3.4538   25.7731 F   0  0  0  0  0  0
  -30.4489  -14.2229   20.1520 N   0  0  0  0  0  0
  -26.2580  -12.9075   20.4965 N   0  0  0  0  0  0
  -25.8893  -11.6333   20.7079 N   0  0  0  0  0  0
  -21.9956  -12.8276   22.0437 N   0  0  0  0  0  0
  -25.4028  -15.1797   20.4670 N   0  0  0  0  0  0
  -31.9388  -14.5157   21.5284 O   0  0  0  0  0  0
  -21.6571   -6.8807   21.4208 O   0  0  0  0  0  0
  -22.3324  -14.5548   20.6696 O   0  0  0  0  0  0
  -24.6157  -31.8680   23.2079 C   0  0  0  0  0  0
  -25.9050  -32.4822   23.8376 C   0  0  1  0  0  0
  -27.2395  -27.4343   20.0943 C   0  0  0  0  0  0
  -25.5904  -33.8617   24.2310 N   0  0  0  0  0  0
  -23.4037  -30.4906   21.5493 C   0  0  2  0  0  0
  -24.8501  -28.9559   20.1161 C   0  0  0  0  0  0
  -22.7421  -29.4661   22.4991 C   0  0  0  0  0  0
  -18.0278  -28.1381   22.8498 C   0  0  0  0  0  0
  -24.1491  -36.7313   23.2633 C   0  0  0  0  0  0
  -25.9330  -30.8347   21.3598 C   0  0  0  0  0  0
  -26.0120  -29.4699   20.7057 C   0  0  0  0  0  0
  -27.2106  -28.7191   20.6850 C   0  0  0  0  0  0
  -26.0573  -26.9352   19.5013 C   0  0  0  0  0  0
  -24.8681  -27.6880   19.5101 C   0  0  0  0  0  0
  -23.6113  -29.8211   20.1650 C   0  0  0  0  0  0
  -25.4111  -36.3109   24.0332 C   0  0  1  0  0  0
  -20.5869  -28.3666   23.1320 C   0  0  2  0  0  0
  -20.6768  -26.9404   22.5416 C   0  0  0  0  0  0
  -19.5741  -26.6388   21.5218 C   0  0  0  0  0  0
  -18.1922  -26.7929   22.1632 C   0  0  0  0  0  0
  -19.1527  -28.8843   23.2905 C   0  0  0  0  0  0
  -18.9450  -30.1451   23.8913 C   0  0  0  0  0  0
  -17.6449  -30.6586   24.0567 C   0  0  0  0  0  0
  -25.9042  -34.9478   23.5119 C   0  0  0  0  0  0
  -16.5343  -29.9086   23.6327 C   0  0  0  0  0  0
  -16.7266  -28.6503   23.0348 C   0  0  0  0  0  0
  -26.4470  -31.6601   25.0707 C   0  0  0  0  0  0
  -25.3721  -31.3709   26.1443 C   0  0  0  0  0  0
  -27.0303  -30.3047   24.6083 C   0  0  0  0  0  0
  -27.6058  -32.4310   25.7461 C   0  0  0  0  0  0
  -27.5596  -37.1795   24.8455 C   0  0  0  0  0  0
  -21.4149  -29.3034   22.3732 N   0  0  0  0  0  0
  -26.4296  -37.3798   23.9421 N   0  0  0  0  0  0
  -24.6692  -31.0785   22.0975 N   0  0  0  0  0  0
  -23.4196  -28.8211   23.3038 O   0  0  0  0  0  0
  -28.4117  -26.7026   20.0998 O   0  0  0  0  0  0
  -26.5609  -34.8935   22.4684 O   0  0  0  0  0  0
  -23.5348  -32.1428   23.7477 O   0  0  0  0  0  0
  -32.5830  -13.2017   19.2962 C   0  0  0  0  0  0
  -32.0763  -14.4241   18.3393 C   0  0  0  0  0  0
  -31.6353  -12.0612   20.0185 C   0  0  0  0  0  0
  -29.2942  -13.8091   18.3604 C   0  0  0  0  0  0
  -29.8102  -19.9860   19.5099 C   0  0  0  0  0  0
  -31.5270  -21.5910   20.1425 C   0  0  0  0  0  0
  -32.1382  -19.5434   18.9624 C   0  0  0  0  0  0
  -30.5514  -14.7560   17.8464 C   0  0  0  0  0  0
  -30.1651  -21.2061   20.1469 C   0  0  0  0  0  0
  -29.9542  -12.2417   19.8772 C   0  0  0  0  0  0
  -30.7809  -19.1487   18.9069 C   0  0  0  0  0  0
  -32.5039  -20.7623   19.5601 C   0  0  0  0  0  0
  -30.9569  -17.2134   17.3246 C   0  0  0  0  0  0
  -30.6922  -15.4888   15.4467 C   0  0  0  0  0  0
  -28.3630  -21.1779   21.9099 C   0  0  0  0  0  0
  -29.6382  -24.6380   20.6564 C   0  0  0  0  0  0
  -29.5396  -23.3638   21.5333 C   0  0  0  0  0  0
  -28.2771  -25.2875   20.3126 C   0  0  0  0  0  0
  -30.2812  -15.8968   16.8728 C   0  0  1  0  0  0
  -29.0746  -22.0419   20.8489 C   0  0  1  0  0  0
  -30.3574  -17.9183   18.3081 N   0  0  0  0  0  0
  -30.4263  -12.7098   21.2574 N   0  0  0  0  0  0
  -31.9850  -17.5898   16.7541 O   0  0  0  0  0  0
  -33.8067  -21.1347   19.5838 F   0  0  0  0  0  0
  -31.0968  -12.7479   16.8688 H   0  0  0  0  0  0
  -31.5955  -11.5577   17.8222 H   0  0  0  0  0  0
  -29.4822  -10.4493   17.6422 H   0  0  0  0  0  0
  -28.9937  -11.6975   16.5752 H   0  0  0  0  0  0
  -27.6997  -10.8737   19.1522 H   0  0  0  0  0  0
  -26.9622  -11.8337   17.9520 H   0  0  0  0  0  0
  -27.0915  -13.8508   19.1833 H   0  0  0  0  0  0
  -28.5013  -14.1603   21.7501 H   0  0  0  0  0  0
  -28.3568  -15.2347   20.4634 H   0  0  0  0  0  0
  -25.2528   -9.5621   22.4985 H   0  0  0  0  0  0
  -23.9922   -7.4478   22.7448 H   0  0  0  0  0  0
  -21.0764   -8.8697   19.8909 H   0  0  0  0  0  0
  -22.3532  -10.9711   19.6359 H   0  0  0  0  0  0
  -21.1991   -7.6139   23.9696 H   0  0  0  0  0  0
  -21.1430   -6.0518   25.9059 H   0  0  0  0  0  0
  -22.0642   -2.7604   23.2839 H   0  0  0  0  0  0
  -22.3504  -11.9971   22.4933 H   0  0  0  0  0  0
  -21.0536  -13.1311   22.2472 H   0  0  0  0  0  0
  -24.6368  -15.8392   20.5439 H   0  0  0  0  0  0
  -26.2786  -15.6174   20.2089 H   0  0  0  0  0  0
  -26.7131  -32.5536   23.1149 H   0  0  0  0  0  0
  -25.0050  -33.9771   25.0452 H   0  0  0  0  0  0
  -22.6920  -31.3068   21.4090 H   0  0  0  0  0  0
  -23.3762  -35.9634   23.3272 H   0  0  0  0  0  0
  -24.3598  -36.8952   22.2054 H   0  0  0  0  0  0
  -23.7226  -37.6502   23.6663 H   0  0  0  0  0  0
  -26.0462  -31.6021   20.5928 H   0  0  0  0  0  0
  -26.8209  -30.8867   21.9783 H   0  0  0  0  0  0
  -28.1098  -29.1156   21.1364 H   0  0  0  0  0  0
  -26.0403  -25.9690   19.0188 H   0  0  0  0  0  0
  -23.9768  -27.2850   19.0501 H   0  0  0  0  0  0
  -23.7182  -30.5937   19.4026 H   0  0  0  0  0  0
  -22.7357  -29.2383   19.8725 H   0  0  0  0  0  0
  -25.1284  -36.1965   25.0822 H   0  0  0  0  0  0
  -20.9962  -28.3230   24.1439 H   0  0  0  0  0  0
  -20.5682  -26.2272   23.3601 H   0  0  0  0  0  0
  -21.6636  -26.7455   22.1198 H   0  0  0  0  0  0
  -19.6897  -25.6302   21.1239 H   0  0  0  0  0  0
  -19.6677  -27.3208   20.6754 H   0  0  0  0  0  0
  -17.4193  -26.6686   21.4034 H   0  0  0  0  0  0
  -18.0318  -26.0069   22.9024 H   0  0  0  0  0  0
  -19.7923  -30.7268   24.2289 H   0  0  0  0  0  0
  -17.4999  -31.6268   24.5164 H   0  0  0  0  0  0
  -15.5341  -30.2988   23.7636 H   0  0  0  0  0  0
  -15.8670  -28.0826   22.7045 H   0  0  0  0  0  0
  -24.5876  -30.7092   25.7750 H   0  0  0  0  0  0
  -24.8933  -32.2869   26.4914 H   0  0  0  0  0  0
  -25.8046  -30.8833   27.0188 H   0  0  0  0  0  0
  -26.2846  -29.6800   24.1149 H   0  0  0  0  0  0
  -27.4094  -29.7292   25.4538 H   0  0  0  0  0  0
  -27.8669  -30.4373   23.9218 H   0  0  0  0  0  0
  -27.2695  -33.3595   26.2084 H   0  0  0  0  0  0
  -28.3836  -32.6891   25.0261 H   0  0  0  0  0  0
  -28.0763  -31.8403   26.5330 H   0  0  0  0  0  0
  -28.2574  -38.0134   24.7581 H   0  0  0  0  0  0
  -28.1137  -36.2674   24.6184 H   0  0  0  0  0  0
  -27.2333  -37.1321   25.8860 H   0  0  0  0  0  0
  -20.9312  -29.8754   21.6952 H   0  0  0  0  0  0
  -26.0185  -38.2870   24.1451 H   0  0  0  0  0  0
  -33.6480  -13.1196   19.4560 H   0  0  0  0  0  0
  -32.8560  -15.0660   17.9551 H   0  0  0  0  0  0
  -32.1053  -11.2837   20.6139 H   0  0  0  0  0  0
  -28.4077  -13.9287   17.7493 H   0  0  0  0  0  0
  -28.7732  -19.6824   19.4910 H   0  0  0  0  0  0
  -31.8594  -22.5131   20.5934 H   0  0  0  0  0  0
  -32.9237  -18.9246   18.5559 H   0  0  0  0  0  0
  -30.1278  -14.6190   15.1117 H   0  0  0  0  0  0
  -31.7513  -15.2326   15.3982 H   0  0  0  0  0  0
  -30.5110  -16.2959   14.7368 H   0  0  0  0  0  0
  -27.9147  -20.2801   21.4865 H   0  0  0  0  0  0
  -27.5548  -21.7270   22.3939 H   0  0  0  0  0  0
  -29.0591  -20.8637   22.6891 H   0  0  0  0  0  0
  -30.2133  -24.4465   19.7507 H   0  0  0  0  0  0
  -30.2152  -25.3680   21.2248 H   0  0  0  0  0  0
  -28.8355  -23.6108   22.3286 H   0  0  0  0  0  0
  -30.4693  -23.2015   22.0785 H   0  0  0  0  0  0
  -27.5773  -25.1264   21.1347 H   0  0  0  0  0  0
  -27.8614  -24.7932   19.4343 H   0  0  0  0  0  0
  -29.2056  -16.0776   16.8681 H   0  0  0  0  0  0
  -28.3345  -22.2982   20.0895 H   0  0  0  0  0  0
  -29.4715  -17.5475   18.6231 H   0  0  0  0  0  0
  -30.8498  -12.0457   21.8878 H   0  0  0  0  0  0
  1 25  1  0  0  0
  1 30  2  0  0  0
  1 92  1  0  0  0
  2  3  1  0  0  0
  2 25  1  0  0  0
  2 95  1  0  0  0
  2 96  1  0  0  0
  3  4  1  0  0  0
  3 97  1  0  0  0
  3 98  1  0  0  0
  4  5  1  0  0  0
  4 99  1  0  0  0
  4100  1  0  0  0
  5  6  1  0  0  0
  5 26  1  0  0  0
  5101  1  0  0  0
  6 25  1  0  0  0
  6102  1  0  0  0
  6103  1  0  0  0
  7  8  2  0  0  0
  7 26  1  0  0  0
  7 29  1  0  0  0
  8  9  1  0  0  0
  8 22  1  0  0  0
  9 10  1  0  0  0
  9 27  2  0  0  0
 10 11  2  0  0  0
 10 15  1  0  0  0
 11 12  1  0  0  0
 11104  1  0  0  0
 12 13  2  0  0  0
 12105  1  0  0  0
 13 14  1  0  0  0
 13 31  1  0  0  0
 14 15  2  0  0  0
 14106  1  0  0  0
 15107  1  0  0  0
 16 17  2  0  0  0
 16 21  1  0  0  0
 16 31  1  0  0  0
 17 18  1  0  0  0
 17108  1  0  0  0
 18 19  2  0  0  0
 18109  1  0  0  0
 19 20  1  0  0  0
 19 24  1  0  0  0
 20 21  2  0  0  0
 20110  1  0  0  0
 21 23  1  0  0  0
 22 28  1  0  0  0
 22 32  2  0  0  0
 26 27  1  0  0  0
 28111  1  0  0  0
 28112  1  0  0  0
 29113  1  0  0  0
 29114  1  0  0  0
 33 34  1  0  0  0
 33 66  1  0  0  0
 33 70  2  0  0  0
 34 36  1  0  0  0
 34 59  1  0  0  0
 34115  1  0  0  0
 35 44  2  0  0  0
 35 45  1  0  0  0
 35 68  1  0  0  0
 36 56  1  0  0  0
 36116  1  0  0  0
 37 39  1  0  0  0
 37 47  1  0  0  0
 37 66  1  0  0  0
 37117  1  0  0  0
 38 43  2  0  0  0
 38 46  1  0  0  0
 38 47  1  0  0  0
 39 64  1  0  0  0
 39 67  2  0  0  0
 40 52  1  0  0  0
 40 53  2  0  0  0
 40 58  1  0  0  0
 41118  1  0  0  0
 41119  1  0  0  0
 41120  1  0  0  0
 41 48  1  0  0  0
 42 43  1  0  0  0
 42 66  1  0  0  0
 42121  1  0  0  0
 42122  1  0  0  0
 43 44  1  0  0  0
 44123  1  0  0  0
 45 46  2  0  0  0
 45124  1  0  0  0
 46125  1  0  0  0
 47126  1  0  0  0
 47127  1  0  0  0
 48 56  1  0  0  0
 48 65  1  0  0  0
 48128  1  0  0  0
 49 50  1  0  0  0
 49 53  1  0  0  0
 49 64  1  0  0  0
 49129  1  0  0  0
 50 51  1  0  0  0
 50130  1  0  0  0
 50131  1  0  0  0
 51 52  1  0  0  0
 51132  1  0  0  0
 51133  1  0  0  0
 52134  1  0  0  0
 52135  1  0  0  0
 53 54  1  0  0  0
 54 55  2  0  0  0
 54136  1  0  0  0
 55 57  1  0  0  0
 55137  1  0  0  0
 56 69  2  0  0  0
 57 58  2  0  0  0
 57138  1  0  0  0
 58139  1  0  0  0
 59 60  1  0  0  0
 59 61  1  0  0  0
 59 62  1  0  0  0
 60140  1  0  0  0
 60141  1  0  0  0
 60142  1  0  0  0
 61143  1  0  0  0
 61144  1  0  0  0
 61145  1  0  0  0
 62146  1  0  0  0
 62147  1  0  0  0
 62148  1  0  0  0
 63 65  1  0  0  0
 63149  1  0  0  0
 63150  1  0  0  0
 63151  1  0  0  0
 64152  1  0  0  0
 65153  1  0  0  0
 68 88  1  0  0  0
 71 72  2  0  0  0
 71 73  1  0  0  0
 71154  1  0  0  0
 72 78  1  0  0  0
 72155  1  0  0  0
 73 80  2  0  0  0
 73156  1  0  0  0
 74 78  2  0  0  0
 74 80  1  0  0  0
 74157  1  0  0  0
 75 79  2  0  0  0
 75 81  1  0  0  0
 75158  1  0  0  0
 76 79  1  0  0  0
 76 82  2  0  0  0
 76159  1  0  0  0
 77 81  2  0  0  0
 77 82  1  0  0  0
 77160  1  0  0  0
 78 89  1  0  0  0
 79 90  1  0  0  0
 80 92  1  0  0  0
 81 91  1  0  0  0
 82 94  1  0  0  0
 83 89  1  0  0  0
 83 91  1  0  0  0
 83 93  2  0  0  0
 84161  1  0  0  0
 84162  1  0  0  0
 84163  1  0  0  0
 84 89  1  0  0  0
 85164  1  0  0  0
 85165  1  0  0  0
 85166  1  0  0  0
 85 90  1  0  0  0
 86 87  1  0  0  0
 86 88  1  0  0  0
 86167  1  0  0  0
 86168  1  0  0  0
 87 90  1  0  0  0
 87169  1  0  0  0
 87170  1  0  0  0
 88171  1  0  0  0
 88172  1  0  0  0
 89173  1  0  0  0
 90174  1  0  0  0
 91175  1  0  0  0
 92176  1  0  0  0
M  ISO  4   1 100  68 101  88 101  92 100
M  END
> <chiral flag>
0

> <version>
0

> <s_m_source_file>
/data/baiqing/PycharmProjects/Reinvent-master-3.2/result/LINK_invent/BTK/process_docking_weight1_custom_product_contain_oxygen_bond_distance_aromatic_linkinvent_7_9_3/rearranged_h_0135.sdf

> <i_m_source_file_index>
78

> <r_mmod_Potential_Energy-OPLS-2005>
10802.5556640625

> <r_mmod_Stretch_Energy-OPLS-2005>
6025.291015625

> <r_mmod_Bend_Energy-OPLS-2005>
619.936218261719

> <r_mmod_Torsional_Energy-OPLS-2005>
488.060607910156

> <r_mmod_Improper_Torsional_Energy-OPLS-2005>
106.648376464844

> <r_mmod_Van_der_Waal_Energy-OPLS-2005>
3145.6845703125

> <r_mmod_Electrostatic_Energy-OPLS-2005>
-387.809509277344

> <r_mmod_Solvation_Energy-OPLS-2005>
-216.182312011719

> <b_mmod_Minimization_Converged-OPLS-2005>
0

> <r_mmod_RMS_Derivative-OPLS-2005>
3.57546329498291

$$$$
78
                    3D
 Structure written by MMmdl.
164172  0  0  1  0            999 V2000
  -30.7338  -14.4545   20.5132 C   0  0  0  0  0  0
  -30.4210  -12.2809   19.4325 C   0  0  0  0  0  0
  -29.4955  -12.4717   18.2137 C   0  0  0  0  0  0
  -28.0197  -12.3377   18.6304 C   0  0  0  0  0  0
  -27.6636  -13.2062   19.8689 C   0  0  2  0  0  0
  -28.7084  -13.0195   20.9954 C   0  0  0  0  0  0
  -25.2603  -13.8173   20.5688 C   0  0  0  0  0  0
  -24.1849  -13.0453   20.9207 C   0  0  0  0  0  0
  -24.6419  -11.6926   20.8765 C   0  0  0  0  0  0
  -23.9086  -10.4313   21.0435 C   0  0  0  0  0  0
  -24.3629   -9.4220   21.9209 C   0  0  0  0  0  0
  -23.6299   -8.2248   22.0760 C   0  0  0  0  0  0
  -22.4287   -8.0287   21.3542 C   0  0  0  0  0  0
  -21.9928   -9.0271   20.4655 C   0  0  0  0  0  0
  -22.7261  -10.2159   20.3076 C   0  0  0  0  0  0
  -21.6850   -6.0761   22.5290 C   0  0  0  0  0  0
  -21.4008   -6.5651   23.8232 C   0  0  0  0  0  0
  -21.3657   -5.6803   24.9187 C   0  0  0  0  0  0
  -21.6037   -4.3063   24.7243 C   0  0  0  0  0  0
  -21.8815   -3.8159   23.4366 C   0  0  0  0  0  0
  -21.9192   -4.6979   22.3421 C   0  0  0  0  0  0
  -22.7882  -13.5267   21.1858 C   0  0  0  0  0  0
  -22.1655   -4.2173   21.0999 F   0  0  0  0  0  0
  -21.5633   -3.4539   25.7753 F   0  0  0  0  0  0
  -30.0446  -13.2864   20.4369 N   0  0  0  0  0  0
  -26.3044  -12.9346   20.3350 N   0  0  0  0  0  0
  -25.9347  -11.6520   20.5820 N   0  0  0  0  0  0
  -22.0490  -12.8260   22.0403 N   0  0  0  0  0  0
  -25.4295  -15.1883   20.4087 N   0  0  0  0  0  0
  -31.8828  -14.5846   20.0854 O   0  0  0  0  0  0
  -21.6624   -6.8896   21.4254 O   0  0  0  0  0  0
  -22.3568  -14.5580   20.6718 O   0  0  0  0  0  0
  -24.6110  -31.8693   23.2118 C   0  0  0  0  0  0
  -25.9025  -32.4826   23.8423 C   0  0  1  0  0  0
  -27.2405  -27.4774   20.0822 C   0  0  0  0  0  0
  -25.5871  -33.8627   24.2335 N   0  0  0  0  0  0
  -23.3991  -30.4908   21.5522 C   0  0  2  0  0  0
  -24.8450  -28.9619   20.1144 C   0  0  0  0  0  0
  -22.7401  -29.4642   22.5013 C   0  0  0  0  0  0
  -18.0245  -28.1399   22.8485 C   0  0  0  0  0  0
  -24.1481  -36.7336   23.2635 C   0  0  0  0  0  0
  -25.9232  -30.8505   21.3583 C   0  0  0  0  0  0
  -26.0030  -29.4886   20.7014 C   0  0  0  0  0  0
  -27.2062  -28.7554   20.6741 C   0  0  0  0  0  0
  -26.0711  -26.9508   19.4971 C   0  0  0  0  0  0
  -24.8735  -27.6908   19.5100 C   0  0  0  0  0  0
  -23.6056  -29.8260   20.1656 C   0  0  0  0  0  0
  -25.4100  -36.3120   24.0332 C   0  0  1  0  0  0
  -20.5846  -28.3660   23.1340 C   0  0  2  0  0  0
  -20.6753  -26.9399   22.5446 C   0  0  0  0  0  0
  -19.5736  -26.6395   21.5235 C   0  0  0  0  0  0
  -18.1909  -26.7944   22.1636 C   0  0  0  0  0  0
  -19.1504  -28.8853   23.2914 C   0  0  0  0  0  0
  -18.9439  -30.1469   23.8911 C   0  0  0  0  0  0
  -17.6442  -30.6607   24.0576 C   0  0  0  0  0  0
  -25.9026  -34.9467   23.5137 C   0  0  0  0  0  0
  -16.5331  -29.9116   23.6320 C   0  0  0  0  0  0
  -16.7242  -28.6548   23.0313 C   0  0  0  0  0  0
  -26.4442  -31.6597   25.0752 C   0  0  0  0  0  0
  -25.3715  -31.3706   26.1511 C   0  0  0  0  0  0
  -27.0269  -30.3036   24.6127 C   0  0  0  0  0  0
  -27.6011  -32.4311   25.7533 C   0  0  0  0  0  0
  -27.5575  -37.1818   24.8458 C   0  0  0  0  0  0
  -21.4142  -29.3020   22.3758 N   0  0  0  0  0  0
  -26.4280  -37.3807   23.9404 N   0  0  0  0  0  0
  -24.6626  -31.0828   22.1004 N   0  0  0  0  0  0
  -23.4184  -28.8193   23.3066 O   0  0  0  0  0  0
  -28.4225  -26.7769   20.0877 O   0  0  0  0  0  0
  -26.5607  -34.8901   22.4707 O   0  0  0  0  0  0
  -23.5316  -32.1415   23.7516 O   0  0  0  0  0  0
  -30.6590  -19.4575   19.3961 C   0  0  0  0  0  0
  -30.2813  -17.0789   19.0193 C   0  0  0  0  0  0
  -30.4074  -17.9401   21.2943 C   0  0  0  0  0  0
  -30.4693  -18.3806   18.5108 C   0  0  0  0  0  0
  -30.6176  -19.2439   20.7885 C   0  0  0  0  0  0
  -30.2591  -16.8450   20.4156 C   0  0  0  0  0  0
  -30.2164  -23.6978   21.3794 C   0  0  0  0  0  0
  -30.4300  -18.6270   17.0169 C   0  0  0  0  0  0
  -27.7778  -25.5539   22.1168 C   0  0  0  0  0  0
  -30.7837  -20.4170   21.7405 C   0  0  0  0  0  0
  -29.3927  -22.4795   20.9364 C   0  0  0  0  0  0
  -29.9113  -25.0645   20.7531 C   0  0  0  0  0  0
  -29.4917  -21.2533   21.8779 C   0  0  0  0  0  0
  -28.4217  -25.4865   20.7113 C   0  0  1  0  0  0
  -30.0450  -15.5308   20.9271 N   0  0  0  0  0  0
  -31.1390  -23.5896   22.1928 O   0  0  0  0  0  0
  -31.4651  -12.3623   19.1243 H   0  0  0  0  0  0
  -30.3097  -11.2804   19.8528 H   0  0  0  0  0  0
  -29.7350  -11.7328   17.4467 H   0  0  0  0  0  0
  -29.6609  -13.4515   17.7637 H   0  0  0  0  0  0
  -27.8458  -11.2861   18.8594 H   0  0  0  0  0  0
  -27.3634  -12.5763   17.7923 H   0  0  0  0  0  0
  -27.7027  -14.2448   19.5417 H   0  0  0  0  0  0
  -28.6768  -11.9993   21.3803 H   0  0  0  0  0  0
  -28.4875  -13.6668   21.8448 H   0  0  0  0  0  0
  -25.2784   -9.5688   22.4778 H   0  0  0  0  0  0
  -24.0019   -7.4642   22.7476 H   0  0  0  0  0  0
  -21.0859   -8.8811   19.8962 H   0  0  0  0  0  0
  -22.3733  -10.9706   19.6178 H   0  0  0  0  0  0
  -21.1978   -7.6156   23.9747 H   0  0  0  0  0  0
  -21.1476   -6.0527   25.9101 H   0  0  0  0  0  0
  -22.0587   -2.7625   23.2860 H   0  0  0  0  0  0
  -22.4092  -11.9922   22.4799 H   0  0  0  0  0  0
  -21.1102  -13.1291   22.2602 H   0  0  0  0  0  0
  -24.6635  -15.8421   20.5300 H   0  0  0  0  0  0
  -26.2814  -15.6314   20.0847 H   0  0  0  0  0  0
  -26.7118  -32.5564   23.1221 H   0  0  0  0  0  0
  -24.9977  -33.9817   25.0446 H   0  0  0  0  0  0
  -22.6856  -31.3055   21.4159 H   0  0  0  0  0  0
  -23.3723  -35.9695   23.3315 H   0  0  0  0  0  0
  -24.3571  -36.8939   22.2046 H   0  0  0  0  0  0
  -23.7238  -37.6540   23.6652 H   0  0  0  0  0  0
  -26.0325  -31.6231   20.5947 H   0  0  0  0  0  0
  -26.8122  -30.9006   21.9759 H   0  0  0  0  0  0
  -28.1051  -29.1583   21.1173 H   0  0  0  0  0  0
  -26.0934  -25.9798   19.0231 H   0  0  0  0  0  0
  -23.9853  -27.2772   19.0525 H   0  0  0  0  0  0
  -23.7122  -30.6051   19.4098 H   0  0  0  0  0  0
  -22.7304  -29.2465   19.8681 H   0  0  0  0  0  0
  -25.1268  -36.1997   25.0824 H   0  0  0  0  0  0
  -20.9920  -28.3240   24.1467 H   0  0  0  0  0  0
  -20.5666  -26.2273   23.3637 H   0  0  0  0  0  0
  -21.6631  -26.7464   22.1240 H   0  0  0  0  0  0
  -19.6910  -25.6316   21.1257 H   0  0  0  0  0  0
  -19.6685  -27.3223   20.6782 H   0  0  0  0  0  0
  -17.4177  -26.6654   21.4045 H   0  0  0  0  0  0
  -18.0315  -26.0112   22.9058 H   0  0  0  0  0  0
  -19.7918  -30.7285   24.2282 H   0  0  0  0  0  0
  -17.4988  -31.6275   24.5204 H   0  0  0  0  0  0
  -15.5336  -30.3020   23.7641 H   0  0  0  0  0  0
  -15.8633  -28.0895   22.6966 H   0  0  0  0  0  0
  -24.5896  -30.7038   25.7865 H   0  0  0  0  0  0
  -24.8899  -32.2860   26.4969 H   0  0  0  0  0  0
  -25.8065  -30.8887   27.0278 H   0  0  0  0  0  0
  -26.2835  -29.6842   24.1092 H   0  0  0  0  0  0
  -27.3935  -29.7221   25.4596 H   0  0  0  0  0  0
  -27.8714  -30.4352   23.9355 H   0  0  0  0  0  0
  -27.2628  -33.3617   26.2119 H   0  0  0  0  0  0
  -28.3833  -32.6855   25.0365 H   0  0  0  0  0  0
  -28.0677  -31.8432   26.5453 H   0  0  0  0  0  0
  -28.2580  -38.0122   24.7486 H   0  0  0  0  0  0
  -28.1068  -36.2637   24.6298 H   0  0  0  0  0  0
  -27.2300  -37.1499   25.8864 H   0  0  0  0  0  0
  -20.9301  -29.8718   21.6958 H   0  0  0  0  0  0
  -26.0174  -38.2893   24.1390 H   0  0  0  0  0  0
  -30.8165  -20.4531   19.0083 H   0  0  0  0  0  0
  -30.1474  -16.2566   18.3306 H   0  0  0  0  0  0
  -30.3814  -17.7872   22.3621 H   0  0  0  0  0  0
  -30.5179  -19.6888   16.7835 H   0  0  0  0  0  0
  -29.4798  -18.2797   16.6126 H   0  0  0  0  0  0
  -31.2316  -18.0982   16.5019 H   0  0  0  0  0  0
  -28.2466  -26.3270   22.7266 H   0  0  0  0  0  0
  -27.8563  -24.6077   22.6483 H   0  0  0  0  0  0
  -26.7122  -25.7811   22.0620 H   0  0  0  0  0  0
  -31.6191  -21.0341   21.4084 H   0  0  0  0  0  0
  -31.0753  -20.0351   22.7213 H   0  0  0  0  0  0
  -29.6915  -22.2094   19.9253 H   0  0  0  0  0  0
  -28.3488  -22.7837   20.8791 H   0  0  0  0  0  0
  -30.3359  -25.0832   19.7493 H   0  0  0  0  0  0
  -30.4634  -25.8057   21.3324 H   0  0  0  0  0  0
  -29.4169  -21.6060   22.9067 H   0  0  0  0  0  0
  -28.6172  -20.6138   21.7488 H   0  0  0  0  0  0
  -27.8664  -24.7867   20.0852 H   0  0  0  0  0  0
  -29.1635  -15.3538   21.3866 H   0  0  0  0  0  0
  1 25  1  0  0  0
  1 30  2  0  0  0
  1 85  1  0  0  0
  2  3  1  0  0  0
  2 25  1  0  0  0
  2 87  1  0  0  0
  2 88  1  0  0  0
  3  4  1  0  0  0
  3 89  1  0  0  0
  3 90  1  0  0  0
  4  5  1  0  0  0
  4 91  1  0  0  0
  4 92  1  0  0  0
  5  6  1  0  0  0
  5 26  1  0  0  0
  5 93  1  0  0  0
  6 25  1  0  0  0
  6 94  1  0  0  0
  6 95  1  0  0  0
  7  8  2  0  0  0
  7 26  1  0  0  0
  7 29  1  0  0  0
  8  9  1  0  0  0
  8 22  1  0  0  0
  9 10  1  0  0  0
  9 27  2  0  0  0
 10 11  2  0  0  0
 10 15  1  0  0  0
 11 12  1  0  0  0
 11 96  1  0  0  0
 12 13  2  0  0  0
 12 97  1  0  0  0
 13 14  1  0  0  0
 13 31  1  0  0  0
 14 15  2  0  0  0
 14 98  1  0  0  0
 15 99  1  0  0  0
 16 17  2  0  0  0
 16 21  1  0  0  0
 16 31  1  0  0  0
 17 18  1  0  0  0
 17100  1  0  0  0
 18 19  2  0  0  0
 18101  1  0  0  0
 19 20  1  0  0  0
 19 24  1  0  0  0
 20 21  2  0  0  0
 20102  1  0  0  0
 21 23  1  0  0  0
 22 28  1  0  0  0
 22 32  2  0  0  0
 26 27  1  0  0  0
 28103  1  0  0  0
 28104  1  0  0  0
 29105  1  0  0  0
 29106  1  0  0  0
 33 34  1  0  0  0
 33 66  1  0  0  0
 33 70  2  0  0  0
 34 36  1  0  0  0
 34 59  1  0  0  0
 34107  1  0  0  0
 35 44  2  0  0  0
 35 45  1  0  0  0
 35 68  1  0  0  0
 36 56  1  0  0  0
 36108  1  0  0  0
 37 39  1  0  0  0
 37 47  1  0  0  0
 37 66  1  0  0  0
 37109  1  0  0  0
 38 43  2  0  0  0
 38 46  1  0  0  0
 38 47  1  0  0  0
 39 64  1  0  0  0
 39 67  2  0  0  0
 40 52  1  0  0  0
 40 53  2  0  0  0
 40 58  1  0  0  0
 41110  1  0  0  0
 41111  1  0  0  0
 41112  1  0  0  0
 41 48  1  0  0  0
 42 43  1  0  0  0
 42 66  1  0  0  0
 42113  1  0  0  0
 42114  1  0  0  0
 43 44  1  0  0  0
 44115  1  0  0  0
 45 46  2  0  0  0
 45116  1  0  0  0
 46117  1  0  0  0
 47118  1  0  0  0
 47119  1  0  0  0
 48 56  1  0  0  0
 48 65  1  0  0  0
 48120  1  0  0  0
 49 50  1  0  0  0
 49 53  1  0  0  0
 49 64  1  0  0  0
 49121  1  0  0  0
 50 51  1  0  0  0
 50122  1  0  0  0
 50123  1  0  0  0
 51 52  1  0  0  0
 51124  1  0  0  0
 51125  1  0  0  0
 52126  1  0  0  0
 52127  1  0  0  0
 53 54  1  0  0  0
 54 55  2  0  0  0
 54128  1  0  0  0
 55 57  1  0  0  0
 55129  1  0  0  0
 56 69  2  0  0  0
 57 58  2  0  0  0
 57130  1  0  0  0
 58131  1  0  0  0
 59 60  1  0  0  0
 59 61  1  0  0  0
 59 62  1  0  0  0
 60132  1  0  0  0
 60133  1  0  0  0
 60134  1  0  0  0
 61135  1  0  0  0
 61136  1  0  0  0
 61137  1  0  0  0
 62138  1  0  0  0
 62139  1  0  0  0
 62140  1  0  0  0
 63 65  1  0  0  0
 63141  1  0  0  0
 63142  1  0  0  0
 63143  1  0  0  0
 64144  1  0  0  0
 65145  1  0  0  0
 68 84  1  0  0  0
 71 74  2  0  0  0
 71 75  1  0  0  0
 71146  1  0  0  0
 72 74  1  0  0  0
 72 76  2  0  0  0
 72147  1  0  0  0
 73 75  2  0  0  0
 73 76  1  0  0  0
 73148  1  0  0  0
 74 78  1  0  0  0
 75 80  1  0  0  0
 76 85  1  0  0  0
 77 81  1  0  0  0
 77 82  1  0  0  0
 77 86  2  0  0  0
 78149  1  0  0  0
 78150  1  0  0  0
 78151  1  0  0  0
 79152  1  0  0  0
 79153  1  0  0  0
 79154  1  0  0  0
 79 84  1  0  0  0
 80 83  1  0  0  0
 80155  1  0  0  0
 80156  1  0  0  0
 81 83  1  0  0  0
 81157  1  0  0  0
 81158  1  0  0  0
 82 84  1  0  0  0
 82159  1  0  0  0
 82160  1  0  0  0
 83161  1  0  0  0
 83162  1  0  0  0
 84163  1  0  0  0
 85164  1  0  0  0
M  ISO  4   1 100  68 101  84 101  85 100
M  END
> <chiral flag>
0

> <version>
0

> <s_m_source_file>
/data/baiqing/PycharmProjects/Reinvent-master-3.2/result/LINK_invent/BTK/process_docking_weight1_custom_product_contain_oxygen_bond_distance_aromatic_linkinvent_7_9_3/rearranged_h_0135.sdf

> <i_m_source_file_index>
79

> <r_mmod_Potential_Energy-OPLS-2005>
-45.9416770935059

> <r_mmod_Stretch_Energy-OPLS-2005>
34.2040061950684

> <r_mmod_Bend_Energy-OPLS-2005>
93.5649948120117

> <r_mmod_Torsional_Energy-OPLS-2005>
250.524673461914

> <r_mmod_Improper_Torsional_Energy-OPLS-2005>
4.87924528121948

> <r_mmod_Van_der_Waal_Energy-OPLS-2005>
150.154373168945

> <r_mmod_Electrostatic_Energy-OPLS-2005>
-378.712463378906

> <r_mmod_Solvation_Energy-OPLS-2005>
-214.869583129883

> <b_mmod_Minimization_Converged-OPLS-2005>
0

> <r_mmod_RMS_Derivative-OPLS-2005>
3.50487947463989

$$$$
79
                    3D
 Structure written by MMmdl.
172180  0  0  1  0            999 V2000
  -30.5809  -14.5895   20.5971 C   0  0  0  0  0  0
  -30.4645  -12.3908   19.4121 C   0  0  0  0  0  0
  -29.5148  -12.5433   18.2004 C   0  0  0  0  0  0
  -28.0316  -12.3828   18.6066 C   0  0  0  0  0  0
  -27.6676  -13.1969   19.8755 C   0  0  2  0  0  0
  -28.7143  -12.9315   20.9800 C   0  0  0  0  0  0
  -25.2641  -13.8091   20.5747 C   0  0  0  0  0  0
  -24.1840  -13.0391   20.9154 C   0  0  0  0  0  0
  -24.6388  -11.6853   20.8677 C   0  0  0  0  0  0
  -23.9060  -10.4253   21.0353 C   0  0  0  0  0  0
  -24.3597   -9.4186   21.9161 C   0  0  0  0  0  0
  -23.6272   -8.2227   22.0757 C   0  0  0  0  0  0
  -22.4262   -8.0253   21.3551 C   0  0  0  0  0  0
  -21.9891   -9.0210   20.4652 C   0  0  0  0  0  0
  -22.7215  -10.2085   20.3027 C   0  0  0  0  0  0
  -21.6842   -6.0713   22.5280 C   0  0  0  0  0  0
  -21.4001   -6.5607   23.8208 C   0  0  0  0  0  0
  -21.3680   -5.6765   24.9171 C   0  0  0  0  0  0
  -21.6047   -4.3028   24.7227 C   0  0  0  0  0  0
  -21.8815   -3.8125   23.4340 C   0  0  0  0  0  0
  -21.9185   -4.6948   22.3400 C   0  0  0  0  0  0
  -22.7860  -13.5209   21.1818 C   0  0  0  0  0  0
  -22.1642   -4.2139   21.0980 F   0  0  0  0  0  0
  -21.5668   -3.4525   25.7743 F   0  0  0  0  0  0
  -30.0330  -13.3417   20.4511 N   0  0  0  0  0  0
  -26.3050  -12.9249   20.3337 N   0  0  0  0  0  0
  -25.9312  -11.6415   20.5677 N   0  0  0  0  0  0
  -22.0468  -12.8223   22.0372 N   0  0  0  0  0  0
  -25.4423  -15.1824   20.4392 N   0  0  0  0  0  0
  -31.6871  -14.8905   20.1310 O   0  0  0  0  0  0
  -21.6623   -6.8849   21.4239 O   0  0  0  0  0  0
  -22.3570  -14.5535   20.6698 O   0  0  0  0  0  0
  -24.6234  -31.8644   23.2066 C   0  0  0  0  0  0
  -25.9097  -32.4810   23.8379 C   0  0  1  0  0  0
  -27.2303  -27.3509   20.1039 C   0  0  0  0  0  0
  -25.5931  -33.8607   24.2316 N   0  0  0  0  0  0
  -23.4149  -30.4883   21.5485 C   0  0  2  0  0  0
  -24.8615  -28.9502   20.1113 C   0  0  0  0  0  0
  -22.7480  -29.4648   22.4971 C   0  0  0  0  0  0
  -18.0295  -28.1393   22.8498 C   0  0  0  0  0  0
  -24.1487  -36.7271   23.2637 C   0  0  0  0  0  0
  -25.9543  -30.8008   21.3793 C   0  0  0  0  0  0
  -26.0263  -29.4310   20.7213 C   0  0  0  0  0  0
  -27.2081  -28.6386   20.7167 C   0  0  0  0  0  0
  -26.0446  -26.9284   19.4547 C   0  0  0  0  0  0
  -24.8706  -27.7025   19.4728 C   0  0  0  0  0  0
  -23.6275  -29.8257   20.1621 C   0  0  0  0  0  0
  -25.4121  -36.3114   24.0341 C   0  0  1  0  0  0
  -20.5893  -28.3693   23.1298 C   0  0  2  0  0  0
  -20.6778  -26.9422   22.5415 C   0  0  0  0  0  0
  -19.5750  -26.6415   21.5212 C   0  0  0  0  0  0
  -18.1933  -26.7948   22.1623 C   0  0  0  0  0  0
  -19.1543  -28.8859   23.2894 C   0  0  0  0  0  0
  -18.9471  -30.1463   23.8916 C   0  0  0  0  0  0
  -17.6466  -30.6590   24.0576 C   0  0  0  0  0  0
  -25.9057  -34.9473   23.5133 C   0  0  0  0  0  0
  -16.5362  -29.9092   23.6327 C   0  0  0  0  0  0
  -16.7284  -28.6507   23.0357 C   0  0  0  0  0  0
  -26.4474  -31.6608   25.0740 C   0  0  0  0  0  0
  -25.3702  -31.3728   26.1454 C   0  0  0  0  0  0
  -27.0325  -30.3050   24.6176 C   0  0  0  0  0  0
  -27.6060  -32.4317   25.7487 C   0  0  0  0  0  0
  -27.5594  -37.1807   24.8469 C   0  0  0  0  0  0
  -21.4190  -29.3040   22.3699 N   0  0  0  0  0  0
  -26.4303  -37.3807   23.9416 N   0  0  0  0  0  0
  -24.6816  -31.0680   22.1005 N   0  0  0  0  0  0
  -23.4213  -28.8189   23.3036 O   0  0  0  0  0  0
  -28.3698  -26.5370   20.1730 O   0  0  0  0  0  0
  -26.5611  -34.8924   22.4698 O   0  0  0  0  0  0
  -23.5400  -32.1429   23.7407 O   0  0  0  0  0  0
  -28.2904  -18.3285   23.0646 C   0  0  0  0  0  0
  -30.0278  -18.0151   20.8821 C   0  0  0  0  0  0
  -28.6476  -17.0359   22.6441 C   0  0  0  0  0  0
  -28.7769  -19.4764   22.4214 C   0  0  0  0  0  0
  -29.5431  -16.8420   21.5598 C   0  0  0  0  0  0
  -29.6255  -19.3459   21.2860 C   0  0  0  0  0  0
  -28.0265  -15.8623   23.3932 C   0  0  0  0  0  0
  -28.9095  -22.6373   24.7318 C   0  0  0  0  0  0
  -31.7759  -21.8689   18.2985 C   0  0  0  0  0  0
  -28.3767  -20.8185   23.0337 C   0  0  0  0  0  0
  -29.3314  -21.2866   24.1387 C   0  0  0  0  0  0
  -31.2272  -22.8852   19.3120 C   0  0  0  0  0  0
  -29.2245  -24.0658   20.4238 C   0  0  0  0  0  0
  -28.3117  -25.1419   19.7087 C   0  0  0  0  0  0
  -29.2153  -21.3456   19.9025 C   0  0  0  0  0  0
  -29.6989  -22.8201   19.5498 C   0  0  2  0  0  0
  -29.7324  -15.4358   21.2421 N   0  0  0  0  0  0
  -30.1203  -20.5002   20.6724 O   0  0  0  0  0  0
  -31.4983  -12.5614   19.1069 H   0  0  0  0  0  0
  -30.4307  -11.3714   19.7978 H   0  0  0  0  0  0
  -29.7726  -11.8186   17.4263 H   0  0  0  0  0  0
  -29.6642  -13.5257   17.7491 H   0  0  0  0  0  0
  -27.8364  -11.3240   18.7804 H   0  0  0  0  0  0
  -27.3870  -12.6750   17.7779 H   0  0  0  0  0  0
  -27.7186  -14.2506   19.5983 H   0  0  0  0  0  0
  -28.7308  -11.8698   21.2299 H   0  0  0  0  0  0
  -28.4487  -13.4189   21.9164 H   0  0  0  0  0  0
  -25.2736   -9.5684   22.4731 H   0  0  0  0  0  0
  -23.9994   -7.4638   22.7491 H   0  0  0  0  0  0
  -21.0817   -8.8690   19.8969 H   0  0  0  0  0  0
  -22.3653  -10.9597   19.6121 H   0  0  0  0  0  0
  -21.1963   -7.6113   23.9699 H   0  0  0  0  0  0
  -21.1524   -6.0501   25.9076 H   0  0  0  0  0  0
  -22.0590   -2.7594   23.2842 H   0  0  0  0  0  0
  -22.4036  -11.9868   22.4759 H   0  0  0  0  0  0
  -21.1097  -13.1296   22.2570 H   0  0  0  0  0  0
  -24.6876  -15.8372   20.6087 H   0  0  0  0  0  0
  -26.3113  -15.6381   20.1934 H   0  0  0  0  0  0
  -26.7162  -32.5471   23.1115 H   0  0  0  0  0  0
  -25.0126  -33.9754   25.0497 H   0  0  0  0  0  0
  -22.7065  -31.3078   21.4098 H   0  0  0  0  0  0
  -23.3778  -35.9572   23.3308 H   0  0  0  0  0  0
  -24.3588  -36.8881   22.2055 H   0  0  0  0  0  0
  -23.7195  -37.6461   23.6629 H   0  0  0  0  0  0
  -26.0925  -31.5671   20.6148 H   0  0  0  0  0  0
  -26.8312  -30.8428   22.0134 H   0  0  0  0  0  0
  -28.0975  -29.0046   21.2098 H   0  0  0  0  0  0
  -25.9838  -25.9949   18.9191 H   0  0  0  0  0  0
  -23.9811  -27.3332   18.9806 H   0  0  0  0  0  0
  -23.7476  -30.6010   19.4042 H   0  0  0  0  0  0
  -22.7484  -29.2540   19.8586 H   0  0  0  0  0  0
  -25.1300  -36.1984   25.0831 H   0  0  0  0  0  0
  -20.9991  -28.3266   24.1418 H   0  0  0  0  0  0
  -20.5713  -26.2304   23.3611 H   0  0  0  0  0  0
  -21.6647  -26.7483   22.1197 H   0  0  0  0  0  0
  -19.6905  -25.6338   21.1221 H   0  0  0  0  0  0
  -19.6669  -27.3248   20.6753 H   0  0  0  0  0  0
  -17.4214  -26.6736   21.4005 H   0  0  0  0  0  0
  -18.0304  -26.0085   22.9007 H   0  0  0  0  0  0
  -19.7938  -30.7274   24.2304 H   0  0  0  0  0  0
  -17.5016  -31.6266   24.5187 H   0  0  0  0  0  0
  -15.5364  -30.2990   23.7638 H   0  0  0  0  0  0
  -15.8690  -28.0816   22.7082 H   0  0  0  0  0  0
  -24.5898  -30.7057   25.7764 H   0  0  0  0  0  0
  -24.8844  -32.2879   26.4843 H   0  0  0  0  0  0
  -25.8023  -30.8928   27.0244 H   0  0  0  0  0  0
  -26.2905  -29.6809   24.1183 H   0  0  0  0  0  0
  -27.4033  -29.7294   25.4666 H   0  0  0  0  0  0
  -27.8758  -30.4357   23.9395 H   0  0  0  0  0  0
  -27.2721  -33.3642   26.2025 H   0  0  0  0  0  0
  -28.3867  -32.6832   25.0301 H   0  0  0  0  0  0
  -28.0702  -31.8453   26.5420 H   0  0  0  0  0  0
  -28.2620  -38.0098   24.7565 H   0  0  0  0  0  0
  -28.1092  -36.2651   24.6251 H   0  0  0  0  0  0
  -27.2315  -37.1412   25.8869 H   0  0  0  0  0  0
  -20.9397  -29.8765   21.6895 H   0  0  0  0  0  0
  -26.0197  -38.2888   24.1413 H   0  0  0  0  0  0
  -27.6260  -18.4421   23.9116 H   0  0  0  0  0  0
  -30.6934  -17.8976   20.0381 H   0  0  0  0  0  0
  -27.4385  -16.1992   24.2475 H   0  0  0  0  0  0
  -28.7902  -15.1816   23.7742 H   0  0  0  0  0  0
  -27.3500  -15.3085   22.7407 H   0  0  0  0  0  0
  -29.6004  -22.9503   25.5149 H   0  0  0  0  0  0
  -27.9125  -22.5804   25.1705 H   0  0  0  0  0  0
  -28.8908  -23.4189   23.9713 H   0  0  0  0  0  0
  -32.8139  -22.0916   18.0489 H   0  0  0  0  0  0
  -31.2039  -21.8826   17.3713 H   0  0  0  0  0  0
  -31.7553  -20.8520   18.6932 H   0  0  0  0  0  0
  -27.3710  -20.7169   23.4455 H   0  0  0  0  0  0
  -28.2926  -21.6092   22.3004 H   0  0  0  0  0  0
  -29.3710  -20.5428   24.9350 H   0  0  0  0  0  0
  -30.3424  -21.3699   23.7370 H   0  0  0  0  0  0
  -31.4833  -23.8840   18.9525 H   0  0  0  0  0  0
  -31.7534  -22.7652   20.2597 H   0  0  0  0  0  0
  -28.7114  -23.7159   21.3197 H   0  0  0  0  0  0
  -30.1033  -24.5881   20.8059 H   0  0  0  0  0  0
  -27.3094  -24.7298   19.8017 H   0  0  0  0  0  0
  -28.5396  -25.1690   18.6426 H   0  0  0  0  0  0
  -29.1204  -20.8212   18.9512 H   0  0  0  0  0  0
  -28.1913  -21.3471   20.2686 H   0  0  0  0  0  0
  -29.2500  -22.9979   18.5712 H   0  0  0  0  0  0
  -28.9849  -14.8812   21.6255 H   0  0  0  0  0  0
  1 25  1  0  0  0
  1 30  2  0  0  0
  1 87  1  0  0  0
  2  3  1  0  0  0
  2 25  1  0  0  0
  2 89  1  0  0  0
  2 90  1  0  0  0
  3  4  1  0  0  0
  3 91  1  0  0  0
  3 92  1  0  0  0
  4  5  1  0  0  0
  4 93  1  0  0  0
  4 94  1  0  0  0
  5  6  1  0  0  0
  5 26  1  0  0  0
  5 95  1  0  0  0
  6 25  1  0  0  0
  6 96  1  0  0  0
  6 97  1  0  0  0
  7  8  2  0  0  0
  7 26  1  0  0  0
  7 29  1  0  0  0
  8  9  1  0  0  0
  8 22  1  0  0  0
  9 10  1  0  0  0
  9 27  2  0  0  0
 10 11  2  0  0  0
 10 15  1  0  0  0
 11 12  1  0  0  0
 11 98  1  0  0  0
 12 13  2  0  0  0
 12 99  1  0  0  0
 13 14  1  0  0  0
 13 31  1  0  0  0
 14 15  2  0  0  0
 14100  1  0  0  0
 15101  1  0  0  0
 16 17  2  0  0  0
 16 21  1  0  0  0
 16 31  1  0  0  0
 17 18  1  0  0  0
 17102  1  0  0  0
 18 19  2  0  0  0
 18103  1  0  0  0
 19 20  1  0  0  0
 19 24  1  0  0  0
 20 21  2  0  0  0
 20104  1  0  0  0
 21 23  1  0  0  0
 22 28  1  0  0  0
 22 32  2  0  0  0
 26 27  1  0  0  0
 28105  1  0  0  0
 28106  1  0  0  0
 29107  1  0  0  0
 29108  1  0  0  0
 33 34  1  0  0  0
 33 66  1  0  0  0
 33 70  2  0  0  0
 34 36  1  0  0  0
 34 59  1  0  0  0
 34109  1  0  0  0
 35 44  2  0  0  0
 35 45  1  0  0  0
 35 68  1  0  0  0
 36 56  1  0  0  0
 36110  1  0  0  0
 37 39  1  0  0  0
 37 47  1  0  0  0
 37 66  1  0  0  0
 37111  1  0  0  0
 38 43  2  0  0  0
 38 46  1  0  0  0
 38 47  1  0  0  0
 39 64  1  0  0  0
 39 67  2  0  0  0
 40 52  1  0  0  0
 40 53  2  0  0  0
 40 58  1  0  0  0
 41112  1  0  0  0
 41113  1  0  0  0
 41114  1  0  0  0
 41 48  1  0  0  0
 42 43  1  0  0  0
 42 66  1  0  0  0
 42115  1  0  0  0
 42116  1  0  0  0
 43 44  1  0  0  0
 44117  1  0  0  0
 45 46  2  0  0  0
 45118  1  0  0  0
 46119  1  0  0  0
 47120  1  0  0  0
 47121  1  0  0  0
 48 56  1  0  0  0
 48 65  1  0  0  0
 48122  1  0  0  0
 49 50  1  0  0  0
 49 53  1  0  0  0
 49 64  1  0  0  0
 49123  1  0  0  0
 50 51  1  0  0  0
 50124  1  0  0  0
 50125  1  0  0  0
 51 52  1  0  0  0
 51126  1  0  0  0
 51127  1  0  0  0
 52128  1  0  0  0
 52129  1  0  0  0
 53 54  1  0  0  0
 54 55  2  0  0  0
 54130  1  0  0  0
 55 57  1  0  0  0
 55131  1  0  0  0
 56 69  2  0  0  0
 57 58  2  0  0  0
 57132  1  0  0  0
 58133  1  0  0  0
 59 60  1  0  0  0
 59 61  1  0  0  0
 59 62  1  0  0  0
 60134  1  0  0  0
 60135  1  0  0  0
 60136  1  0  0  0
 61137  1  0  0  0
 61138  1  0  0  0
 61139  1  0  0  0
 62140  1  0  0  0
 62141  1  0  0  0
 62142  1  0  0  0
 63 65  1  0  0  0
 63143  1  0  0  0
 63144  1  0  0  0
 63145  1  0  0  0
 64146  1  0  0  0
 65147  1  0  0  0
 68 84  1  0  0  0
 71 73  2  0  0  0
 71 74  1  0  0  0
 71148  1  0  0  0
 72 75  2  0  0  0
 72 76  1  0  0  0
 72149  1  0  0  0
 73 75  1  0  0  0
 73 77  1  0  0  0
 74 76  2  0  0  0
 74 80  1  0  0  0
 75 87  1  0  0  0
 76 88  1  0  0  0
 77150  1  0  0  0
 77151  1  0  0  0
 77152  1  0  0  0
 78 81  1  0  0  0
 78153  1  0  0  0
 78154  1  0  0  0
 78155  1  0  0  0
 79 82  1  0  0  0
 79156  1  0  0  0
 79157  1  0  0  0
 79158  1  0  0  0
 80 81  1  0  0  0
 80159  1  0  0  0
 80160  1  0  0  0
 81161  1  0  0  0
 81162  1  0  0  0
 82163  1  0  0  0
 82164  1  0  0  0
 82 86  1  0  0  0
 83 84  1  0  0  0
 83 86  1  0  0  0
 83165  1  0  0  0
 83166  1  0  0  0
 84167  1  0  0  0
 84168  1  0  0  0
 85 86  1  0  0  0
 85 88  1  0  0  0
 85169  1  0  0  0
 85170  1  0  0  0
 86171  1  0  0  0
 87172  1  0  0  0
M  ISO  4   1 100  68 101  84 101  87 100
M  END
> <chiral flag>
0

> <version>
0

> <s_m_source_file>
/data/baiqing/PycharmProjects/Reinvent-master-3.2/result/LINK_invent/BTK/process_docking_weight1_custom_product_contain_oxygen_bond_distance_aromatic_linkinvent_7_9_3/rearranged_h_0135.sdf

> <i_m_source_file_index>
80

> <r_mmod_Potential_Energy-OPLS-2005>
149.414611816406

> <r_mmod_Stretch_Energy-OPLS-2005>
74.7457656860352

> <r_mmod_Bend_Energy-OPLS-2005>
193.644027709961

> <r_mmod_Torsional_Energy-OPLS-2005>
267.089630126953

> <r_mmod_Improper_Torsional_Energy-OPLS-2005>
2.99220752716064

> <r_mmod_Van_der_Waal_Energy-OPLS-2005>
150.122985839844

> <r_mmod_Electrostatic_Energy-OPLS-2005>
-376.843292236328

> <r_mmod_Solvation_Energy-OPLS-2005>
-201.773559570312

> <b_mmod_Minimization_Converged-OPLS-2005>
0

> <r_mmod_RMS_Derivative-OPLS-2005>
3.1366925239563

$$$$
80
                    3D
 Structure written by MMmdl.
162170  0  0  1  0            999 V2000
  -30.7031  -14.5920   20.4263 C   0  0  0  0  0  0
  -30.4133  -12.3561   19.4477 C   0  0  0  0  0  0
  -29.4900  -12.4721   18.2155 C   0  0  0  0  0  0
  -28.0168  -12.3378   18.6361 C   0  0  0  0  0  0
  -27.6484  -13.2283   19.8541 C   0  0  2  0  0  0
  -28.7005  -13.1378   20.9839 C   0  0  0  0  0  0
  -25.2545  -13.8203   20.5708 C   0  0  0  0  0  0
  -24.1833  -13.0455   20.9209 C   0  0  0  0  0  0
  -24.6422  -11.6929   20.8777 C   0  0  0  0  0  0
  -23.9094  -10.4309   21.0425 C   0  0  0  0  0  0
  -24.3642   -9.4211   21.9197 C   0  0  0  0  0  0
  -23.6314   -8.2248   22.0764 C   0  0  0  0  0  0
  -22.4292   -8.0298   21.3554 C   0  0  0  0  0  0
  -21.9939   -9.0270   20.4648 C   0  0  0  0  0  0
  -22.7270  -10.2148   20.3064 C   0  0  0  0  0  0
  -21.6859   -6.0756   22.5278 C   0  0  0  0  0  0
  -21.4018   -6.5654   23.8211 C   0  0  0  0  0  0
  -21.3654   -5.6805   24.9174 C   0  0  0  0  0  0
  -21.6040   -4.3066   24.7227 C   0  0  0  0  0  0
  -21.8816   -3.8160   23.4345 C   0  0  0  0  0  0
  -21.9189   -4.6981   22.3400 C   0  0  0  0  0  0
  -22.7843  -13.5226   21.1845 C   0  0  0  0  0  0
  -22.1659   -4.2165   21.0980 F   0  0  0  0  0  0
  -21.5624   -3.4546   25.7738 F   0  0  0  0  0  0
  -30.0152  -13.4138   20.3949 N   0  0  0  0  0  0
  -26.2988  -12.9422   20.3340 N   0  0  0  0  0  0
  -25.9356  -11.6554   20.5808 N   0  0  0  0  0  0
  -22.0490  -12.8227   22.0401 N   0  0  0  0  0  0
  -25.4216  -15.1934   20.4102 N   0  0  0  0  0  0
  -31.9166  -14.6316   20.2155 O   0  0  0  0  0  0
  -21.6649   -6.8903   21.4248 O   0  0  0  0  0  0
  -22.3529  -14.5525   20.6678 O   0  0  0  0  0  0
  -24.6189  -31.8667   23.2059 C   0  0  0  0  0  0
  -25.9061  -32.4817   23.8377 C   0  0  1  0  0  0
  -27.2407  -27.3921   20.1090 C   0  0  0  0  0  0
  -25.5883  -33.8609   24.2290 N   0  0  0  0  0  0
  -23.4100  -30.4847   21.5500 C   0  0  2  0  0  0
  -24.8568  -28.9449   20.1126 C   0  0  0  0  0  0
  -22.7454  -29.4634   22.5014 C   0  0  0  0  0  0
  -18.0262  -28.1376   22.8488 C   0  0  0  0  0  0
  -24.1490  -36.7292   23.2653 C   0  0  0  0  0  0
  -25.9390  -30.8180   21.3665 C   0  0  0  0  0  0
  -26.0142  -29.4486   20.7151 C   0  0  0  0  0  0
  -27.2034  -28.6774   20.7107 C   0  0  0  0  0  0
  -26.0614  -26.9085   19.5014 C   0  0  0  0  0  0
  -24.8785  -27.6788   19.4973 C   0  0  0  0  0  0
  -23.6189  -29.8152   20.1642 C   0  0  0  0  0  0
  -25.4111  -36.3102   24.0335 C   0  0  1  0  0  0
  -20.5857  -28.3651   23.1337 C   0  0  2  0  0  0
  -20.6770  -26.9398   22.5430 C   0  0  0  0  0  0
  -19.5746  -26.6384   21.5232 C   0  0  0  0  0  0
  -18.1913  -26.7922   22.1619 C   0  0  0  0  0  0
  -19.1517  -28.8840   23.2881 C   0  0  0  0  0  0
  -18.9448  -30.1443   23.8888 C   0  0  0  0  0  0
  -17.6458  -30.6585   24.0573 C   0  0  0  0  0  0
  -25.9039  -34.9479   23.5124 C   0  0  0  0  0  0
  -16.5341  -29.9082   23.6337 C   0  0  0  0  0  0
  -16.7259  -28.6506   23.0343 C   0  0  0  0  0  0
  -26.4481  -31.6623   25.0737 C   0  0  0  0  0  0
  -25.3700  -31.3727   26.1447 C   0  0  0  0  0  0
  -27.0349  -30.3075   24.6125 C   0  0  0  0  0  0
  -27.6044  -32.4379   25.7480 C   0  0  0  0  0  0
  -27.5573  -37.1789   24.8467 C   0  0  0  0  0  0
  -21.4176  -29.3004   22.3753 N   0  0  0  0  0  0
  -26.4292  -37.3792   23.9414 N   0  0  0  0  0  0
  -24.6743  -31.0713   22.1005 N   0  0  0  0  0  0
  -23.4201  -28.8211   23.3098 O   0  0  0  0  0  0
  -28.4327  -26.6789   20.1579 O   0  0  0  0  0  0
  -26.5640  -34.8959   22.4708 O   0  0  0  0  0  0
  -23.5363  -32.1419   23.7441 O   0  0  0  0  0  0
  -30.6105  -16.1898   17.9950 C   0  0  0  0  0  0
  -30.7115  -16.9694   16.8341 C   0  0  0  0  0  0
  -29.8738  -18.8658   18.0736 C   0  0  0  0  0  0
  -29.7988  -18.1164   19.2760 C   0  0  0  0  0  0
  -30.1440  -16.7082   19.2388 C   0  0  0  0  0  0
  -30.3306  -18.3116   16.8698 C   0  0  0  0  0  0
  -27.7019  -21.2689   21.6490 C   0  0  0  0  0  0
  -29.3049  -18.9263   20.4985 C   0  0  0  0  0  0
  -29.9631  -20.3605   20.6884 C   0  0  0  0  0  0
  -28.3940  -24.1538   20.5375 C   0  0  0  0  0  0
  -29.0465  -22.7977   20.0685 C   0  0  0  0  0  0
  -28.5983  -25.3644   19.5709 C   0  0  0  0  0  0
  -29.0981  -21.6200   21.1108 C   0  0  1  0  0  0
  -29.9825  -15.7510   20.3281 N   0  0  0  0  0  0
  -30.4016  -19.0682   15.7500 F   0  0  0  0  0  0
  -31.4592  -12.4340   19.1435 H   0  0  0  0  0  0
  -30.3111  -11.3767   19.9158 H   0  0  0  0  0  0
  -29.7428  -11.7080   17.4789 H   0  0  0  0  0  0
  -29.6258  -13.4279   17.7132 H   0  0  0  0  0  0
  -27.8419  -11.2878   18.8763 H   0  0  0  0  0  0
  -27.3630  -12.5699   17.7946 H   0  0  0  0  0  0
  -27.6522  -14.2547   19.4863 H   0  0  0  0  0  0
  -28.7009  -12.1495   21.4442 H   0  0  0  0  0  0
  -28.4765  -13.8501   21.7789 H   0  0  0  0  0  0
  -25.2787   -9.5685   22.4769 H   0  0  0  0  0  0
  -24.0012   -7.4646   22.7496 H   0  0  0  0  0  0
  -21.0863   -8.8796   19.8960 H   0  0  0  0  0  0
  -22.3734  -10.9693   19.6172 H   0  0  0  0  0  0
  -21.2020   -7.6163   23.9721 H   0  0  0  0  0  0
  -21.1476   -6.0537   25.9075 H   0  0  0  0  0  0
  -22.0602   -2.7627   23.2840 H   0  0  0  0  0  0
  -22.4100  -11.9884   22.4786 H   0  0  0  0  0  0
  -21.1095  -13.1236   22.2574 H   0  0  0  0  0  0
  -24.6511  -15.8445   20.5138 H   0  0  0  0  0  0
  -26.2679  -15.6358   20.0740 H   0  0  0  0  0  0
  -26.7174  -32.5555   23.1175 H   0  0  0  0  0  0
  -25.0019  -33.9753   25.0423 H   0  0  0  0  0  0
  -22.6995  -31.3017   21.4131 H   0  0  0  0  0  0
  -23.3768  -35.9615   23.3349 H   0  0  0  0  0  0
  -24.3568  -36.8888   22.2060 H   0  0  0  0  0  0
  -23.7228  -37.6494   23.6661 H   0  0  0  0  0  0
  -26.0480  -31.5837   20.5987 H   0  0  0  0  0  0
  -26.8272  -30.8756   21.9831 H   0  0  0  0  0  0
  -28.0982  -29.0573   21.1854 H   0  0  0  0  0  0
  -26.0283  -25.9376   19.0288 H   0  0  0  0  0  0
  -23.9924  -27.2878   19.0181 H   0  0  0  0  0  0
  -23.7210  -30.5910   19.4043 H   0  0  0  0  0  0
  -22.7408  -29.2326   19.8737 H   0  0  0  0  0  0
  -25.1293  -36.1977   25.0829 H   0  0  0  0  0  0
  -20.9902  -28.3244   24.1463 H   0  0  0  0  0  0
  -20.5749  -26.2250   23.3614 H   0  0  0  0  0  0
  -21.6638  -26.7499   22.1180 H   0  0  0  0  0  0
  -19.6938  -25.6305   21.1247 H   0  0  0  0  0  0
  -19.6698  -27.3221   20.6796 H   0  0  0  0  0  0
  -17.4194  -26.6689   21.3998 H   0  0  0  0  0  0
  -18.0269  -26.0041   22.8988 H   0  0  0  0  0  0
  -19.7941  -30.7231   24.2268 H   0  0  0  0  0  0
  -17.5030  -31.6282   24.5153 H   0  0  0  0  0  0
  -15.5342  -30.3000   23.7673 H   0  0  0  0  0  0
  -15.8650  -28.0862   22.7039 H   0  0  0  0  0  0
  -24.5867  -30.7112   25.7724 H   0  0  0  0  0  0
  -24.8866  -32.2877   26.4899 H   0  0  0  0  0  0
  -25.7967  -30.8849   27.0212 H   0  0  0  0  0  0
  -26.2895  -29.6782   24.1236 H   0  0  0  0  0  0
  -27.4199  -29.7384   25.4598 H   0  0  0  0  0  0
  -27.8718  -30.4442   23.9263 H   0  0  0  0  0  0
  -27.2671  -33.3702   26.2032 H   0  0  0  0  0  0
  -28.3819  -32.6903   25.0253 H   0  0  0  0  0  0
  -28.0763  -31.8516   26.5375 H   0  0  0  0  0  0
  -28.2596  -38.0094   24.7520 H   0  0  0  0  0  0
  -28.1055  -36.2604   24.6283 H   0  0  0  0  0  0
  -27.2272  -37.1427   25.8872 H   0  0  0  0  0  0
  -20.9388  -29.8670   21.6895 H   0  0  0  0  0  0
  -26.0198  -38.2870   24.1435 H   0  0  0  0  0  0
  -30.9031  -15.1577   17.8855 H   0  0  0  0  0  0
  -31.0648  -16.5304   15.9121 H   0  0  0  0  0  0
  -29.5759  -19.9040   18.0543 H   0  0  0  0  0  0
  -27.7482  -20.4745   22.3941 H   0  0  0  0  0  0
  -27.0319  -20.9447   20.8530 H   0  0  0  0  0  0
  -27.2396  -22.1350   22.1276 H   0  0  0  0  0  0
  -29.4435  -18.3421   21.4093 H   0  0  0  0  0  0
  -28.2282  -19.0277   20.3680 H   0  0  0  0  0  0
  -30.5478  -20.6530   19.8182 H   0  0  0  0  0  0
  -30.7419  -20.2285   21.4417 H   0  0  0  0  0  0
  -28.8146  -24.4254   21.5043 H   0  0  0  0  0  0
  -27.3260  -24.0203   20.7068 H   0  0  0  0  0  0
  -30.0751  -23.0159   19.7757 H   0  0  0  0  0  0
  -28.5537  -22.4544   19.1575 H   0  0  0  0  0  0
  -28.0383  -25.2433   18.6443 H   0  0  0  0  0  0
  -29.6436  -25.3413   19.2576 H   0  0  0  0  0  0
  -29.6350  -22.0417   21.9624 H   0  0  0  0  0  0
  -29.0781  -15.7506   20.7748 H   0  0  0  0  0  0
  1 25  1  0  0  0
  1 30  2  0  0  0
  1 84  1  0  0  0
  2  3  1  0  0  0
  2 25  1  0  0  0
  2 86  1  0  0  0
  2 87  1  0  0  0
  3  4  1  0  0  0
  3 88  1  0  0  0
  3 89  1  0  0  0
  4  5  1  0  0  0
  4 90  1  0  0  0
  4 91  1  0  0  0
  5  6  1  0  0  0
  5 26  1  0  0  0
  5 92  1  0  0  0
  6 25  1  0  0  0
  6 93  1  0  0  0
  6 94  1  0  0  0
  7  8  2  0  0  0
  7 26  1  0  0  0
  7 29  1  0  0  0
  8  9  1  0  0  0
  8 22  1  0  0  0
  9 10  1  0  0  0
  9 27  2  0  0  0
 10 11  2  0  0  0
 10 15  1  0  0  0
 11 12  1  0  0  0
 11 95  1  0  0  0
 12 13  2  0  0  0
 12 96  1  0  0  0
 13 14  1  0  0  0
 13 31  1  0  0  0
 14 15  2  0  0  0
 14 97  1  0  0  0
 15 98  1  0  0  0
 16 17  2  0  0  0
 16 21  1  0  0  0
 16 31  1  0  0  0
 17 18  1  0  0  0
 17 99  1  0  0  0
 18 19  2  0  0  0
 18100  1  0  0  0
 19 20  1  0  0  0
 19 24  1  0  0  0
 20 21  2  0  0  0
 20101  1  0  0  0
 21 23  1  0  0  0
 22 28  1  0  0  0
 22 32  2  0  0  0
 26 27  1  0  0  0
 28102  1  0  0  0
 28103  1  0  0  0
 29104  1  0  0  0
 29105  1  0  0  0
 33 34  1  0  0  0
 33 66  1  0  0  0
 33 70  2  0  0  0
 34 36  1  0  0  0
 34 59  1  0  0  0
 34106  1  0  0  0
 35 44  2  0  0  0
 35 45  1  0  0  0
 35 68  1  0  0  0
 36 56  1  0  0  0
 36107  1  0  0  0
 37 39  1  0  0  0
 37 47  1  0  0  0
 37 66  1  0  0  0
 37108  1  0  0  0
 38 43  2  0  0  0
 38 46  1  0  0  0
 38 47  1  0  0  0
 39 64  1  0  0  0
 39 67  2  0  0  0
 40 52  1  0  0  0
 40 53  2  0  0  0
 40 58  1  0  0  0
 41109  1  0  0  0
 41110  1  0  0  0
 41111  1  0  0  0
 41 48  1  0  0  0
 42 43  1  0  0  0
 42 66  1  0  0  0
 42112  1  0  0  0
 42113  1  0  0  0
 43 44  1  0  0  0
 44114  1  0  0  0
 45 46  2  0  0  0
 45115  1  0  0  0
 46116  1  0  0  0
 47117  1  0  0  0
 47118  1  0  0  0
 48 56  1  0  0  0
 48 65  1  0  0  0
 48119  1  0  0  0
 49 50  1  0  0  0
 49 53  1  0  0  0
 49 64  1  0  0  0
 49120  1  0  0  0
 50 51  1  0  0  0
 50121  1  0  0  0
 50122  1  0  0  0
 51 52  1  0  0  0
 51123  1  0  0  0
 51124  1  0  0  0
 52125  1  0  0  0
 52126  1  0  0  0
 53 54  1  0  0  0
 54 55  2  0  0  0
 54127  1  0  0  0
 55 57  1  0  0  0
 55128  1  0  0  0
 56 69  2  0  0  0
 57 58  2  0  0  0
 57129  1  0  0  0
 58130  1  0  0  0
 59 60  1  0  0  0
 59 61  1  0  0  0
 59 62  1  0  0  0
 60131  1  0  0  0
 60132  1  0  0  0
 60133  1  0  0  0
 61134  1  0  0  0
 61135  1  0  0  0
 61136  1  0  0  0
 62137  1  0  0  0
 62138  1  0  0  0
 62139  1  0  0  0
 63 65  1  0  0  0
 63140  1  0  0  0
 63141  1  0  0  0
 63142  1  0  0  0
 64143  1  0  0  0
 65144  1  0  0  0
 68 82  1  0  0  0
 71 72  2  0  0  0
 71 75  1  0  0  0
 71145  1  0  0  0
 72 76  1  0  0  0
 72146  1  0  0  0
 73 74  1  0  0  0
 73 76  2  0  0  0
 73147  1  0  0  0
 74 75  2  0  0  0
 74 78  1  0  0  0
 75 84  1  0  0  0
 76 85  1  0  0  0
 77148  1  0  0  0
 77149  1  0  0  0
 77150  1  0  0  0
 77 83  1  0  0  0
 78 79  1  0  0  0
 78151  1  0  0  0
 78152  1  0  0  0
 79 83  1  0  0  0
 79153  1  0  0  0
 79154  1  0  0  0
 80 81  1  0  0  0
 80 82  1  0  0  0
 80155  1  0  0  0
 80156  1  0  0  0
 81 83  1  0  0  0
 81157  1  0  0  0
 81158  1  0  0  0
 82159  1  0  0  0
 82160  1  0  0  0
 83161  1  0  0  0
 84162  1  0  0  0
M  ISO  4   1 100  68 101  82 101  84 100
M  END
> <chiral flag>
0

> <version>
0

> <s_m_source_file>
/data/baiqing/PycharmProjects/Reinvent-master-3.2/result/LINK_invent/BTK/process_docking_weight1_custom_product_contain_oxygen_bond_distance_aromatic_linkinvent_7_9_3/rearranged_h_0135.sdf

> <i_m_source_file_index>
81

> <r_mmod_Potential_Energy-OPLS-2005>
106.067245483398

> <r_mmod_Stretch_Energy-OPLS-2005>
63.2914962768555

> <r_mmod_Bend_Energy-OPLS-2005>
144.621139526367

> <r_mmod_Torsional_Energy-OPLS-2005>
274.693176269531

> <r_mmod_Improper_Torsional_Energy-OPLS-2005>
11.3775148391724

> <r_mmod_Van_der_Waal_Energy-OPLS-2005>
152.465316772461

> <r_mmod_Electrostatic_Energy-OPLS-2005>
-381.878692626953

> <r_mmod_Solvation_Energy-OPLS-2005>
-196.824264526367

> <b_mmod_Minimization_Converged-OPLS-2005>
0

> <r_mmod_RMS_Derivative-OPLS-2005>
3.32383561134338

$$$$
81
                    3D
 Structure written by MMmdl.
163171  0  0  1  0            999 V2000
  -30.7022  -14.4219   20.6129 C   0  0  0  0  0  0
  -30.4283  -12.2926   19.3928 C   0  0  0  0  0  0
  -29.4889  -12.5042   18.1875 C   0  0  0  0  0  0
  -28.0116  -12.3673   18.6057 C   0  0  0  0  0  0
  -27.6666  -13.1946   19.8720 C   0  0  2  0  0  0
  -28.7066  -12.9296   20.9834 C   0  0  0  0  0  0
  -25.2648  -13.8142   20.5659 C   0  0  0  0  0  0
  -24.1886  -13.0455   20.9164 C   0  0  0  0  0  0
  -24.6424  -11.6904   20.8753 C   0  0  0  0  0  0
  -23.9093  -10.4304   21.0451 C   0  0  0  0  0  0
  -24.3633   -9.4213   21.9232 C   0  0  0  0  0  0
  -23.6302   -8.2243   22.0779 C   0  0  0  0  0  0
  -22.4285   -8.0292   21.3555 C   0  0  0  0  0  0
  -21.9936   -9.0283   20.4664 C   0  0  0  0  0  0
  -22.7274  -10.2161   20.3095 C   0  0  0  0  0  0
  -21.6852   -6.0771   22.5295 C   0  0  0  0  0  0
  -21.4004   -6.5671   23.8236 C   0  0  0  0  0  0
  -21.3656   -5.6811   24.9191 C   0  0  0  0  0  0
  -21.6039   -4.3075   24.7229 C   0  0  0  0  0  0
  -21.8820   -3.8181   23.4349 C   0  0  0  0  0  0
  -21.9192   -4.7000   22.3407 C   0  0  0  0  0  0
  -22.7922  -13.5271   21.1842 C   0  0  0  0  0  0
  -22.1663   -4.2202   21.0982 F   0  0  0  0  0  0
  -21.5628   -3.4543   25.7738 F   0  0  0  0  0  0
  -30.0425  -13.2454   20.4436 N   0  0  0  0  0  0
  -26.3065  -12.9287   20.3338 N   0  0  0  0  0  0
  -25.9340  -11.6464   20.5748 N   0  0  0  0  0  0
  -22.0539  -12.8261   22.0371 N   0  0  0  0  0  0
  -25.4403  -15.1862   20.4060 N   0  0  0  0  0  0
  -31.7931  -14.6666   20.0877 O   0  0  0  0  0  0
  -21.6624   -6.8908   21.4256 O   0  0  0  0  0  0
  -22.3633  -14.5598   20.6707 O   0  0  0  0  0  0
  -24.6127  -31.8706   23.2112 C   0  0  0  0  0  0
  -25.9036  -32.4827   23.8395 C   0  0  1  0  0  0
  -27.2404  -27.4523   20.0860 C   0  0  0  0  0  0
  -25.5889  -33.8620   24.2317 N   0  0  0  0  0  0
  -23.4006  -30.4896   21.5513 C   0  0  2  0  0  0
  -24.8492  -28.9515   20.1209 C   0  0  0  0  0  0
  -22.7397  -29.4614   22.4979 C   0  0  0  0  0  0
  -18.0256  -28.1333   22.8461 C   0  0  0  0  0  0
  -24.1503  -36.7317   23.2632 C   0  0  0  0  0  0
  -25.9277  -30.8367   21.3640 C   0  0  0  0  0  0
  -26.0075  -29.4684   20.7168 C   0  0  0  0  0  0
  -27.2105  -28.7249   20.6994 C   0  0  0  0  0  0
  -26.0676  -26.9403   19.4956 C   0  0  0  0  0  0
  -24.8713  -27.6839   19.5093 C   0  0  0  0  0  0
  -23.6107  -29.8189   20.1655 C   0  0  0  0  0  0
  -25.4116  -36.3110   24.0320 C   0  0  1  0  0  0
  -20.5839  -28.3615   23.1292 C   0  0  2  0  0  0
  -20.6776  -26.9362   22.5384 C   0  0  0  0  0  0
  -19.5765  -26.6349   21.5160 C   0  0  0  0  0  0
  -18.1925  -26.7884   22.1570 C   0  0  0  0  0  0
  -19.1499  -28.8790   23.2882 C   0  0  0  0  0  0
  -18.9446  -30.1408   23.8895 C   0  0  0  0  0  0
  -17.6454  -30.6566   24.0518 C   0  0  0  0  0  0
  -25.9014  -34.9474   23.5111 C   0  0  0  0  0  0
  -16.5345  -29.9058   23.6304 C   0  0  0  0  0  0
  -16.7248  -28.6462   23.0340 C   0  0  0  0  0  0
  -26.4477  -31.6612   25.0722 C   0  0  0  0  0  0
  -25.3728  -31.3713   26.1452 C   0  0  0  0  0  0
  -27.0330  -30.3061   24.6089 C   0  0  0  0  0  0
  -27.6052  -32.4334   25.7480 C   0  0  0  0  0  0
  -27.5586  -37.1815   24.8456 C   0  0  0  0  0  0
  -21.4125  -29.3000   22.3714 N   0  0  0  0  0  0
  -26.4312  -37.3777   23.9381 N   0  0  0  0  0  0
  -24.6664  -31.0802   22.0997 N   0  0  0  0  0  0
  -23.4178  -28.8143   23.3011 O   0  0  0  0  0  0
  -28.4120  -26.7472   19.9681 O   0  0  0  0  0  0
  -26.5603  -34.8934   22.4694 O   0  0  0  0  0  0
  -23.5330  -32.1421   23.7524 O   0  0  0  0  0  0
  -29.1126  -18.9219   21.5675 C   0  0  0  0  0  0
  -29.0222  -17.5272   21.4199 C   0  0  0  0  0  0
  -31.4428  -17.3670   21.4843 C   0  0  0  0  0  0
  -30.3645  -19.5716   21.6920 C   0  0  0  0  0  0
  -30.1848  -16.7370   21.3861 C   0  0  0  0  0  0
  -31.5521  -18.7778   21.6364 C   0  0  0  0  0  0
  -30.3911  -21.0492   21.9539 C   0  0  0  0  0  0
  -35.1768  -19.5576   21.7914 C   0  0  0  0  0  0
  -29.4361  -21.9568   21.1507 C   0  0  0  0  0  0
  -29.5263  -23.4684   21.5081 C   0  0  0  0  0  0
  -28.7072  -24.4013   20.5857 C   0  0  0  0  0  0
  -33.9700  -18.6266   21.6746 C   0  0  0  0  0  0
  -28.7519  -25.8772   21.0435 C   0  0  0  0  0  0
  -31.1799  -21.5598   22.8063 N   0  0  0  0  0  0
  -30.0229  -15.3259   21.3386 N   0  0  0  0  0  0
  -32.7801  -19.4080   21.7438 O   0  0  0  0  0  0
  -31.4686  -12.4085   19.0839 H   0  0  0  0  0  0
  -30.3420  -11.2709   19.7653 H   0  0  0  0  0  0
  -29.7160  -11.7799   17.4047 H   0  0  0  0  0  0
  -29.6603  -13.4904   17.7524 H   0  0  0  0  0  0
  -27.8222  -11.3097   18.7937 H   0  0  0  0  0  0
  -27.3588  -12.6500   17.7810 H   0  0  0  0  0  0
  -27.7253  -14.2471   19.5947 H   0  0  0  0  0  0
  -28.6819  -11.8788   21.2764 H   0  0  0  0  0  0
  -28.4583  -13.4813   21.8901 H   0  0  0  0  0  0
  -25.2798   -9.5682   22.4792 H   0  0  0  0  0  0
  -24.0033   -7.4634   22.7502 H   0  0  0  0  0  0
  -21.0869   -8.8825   19.8957 H   0  0  0  0  0  0
  -22.3778  -10.9709   19.6187 H   0  0  0  0  0  0
  -21.1983   -7.6180   23.9758 H   0  0  0  0  0  0
  -21.1471   -6.0535   25.9097 H   0  0  0  0  0  0
  -22.0594   -2.7649   23.2830 H   0  0  0  0  0  0
  -22.4099  -11.9869   22.4715 H   0  0  0  0  0  0
  -21.1191  -13.1357   22.2614 H   0  0  0  0  0  0
  -24.6742  -15.8431   20.5014 H   0  0  0  0  0  0
  -26.2886  -15.6161   20.0605 H   0  0  0  0  0  0
  -26.7108  -32.5550   23.1170 H   0  0  0  0  0  0
  -25.0079  -33.9757   25.0494 H   0  0  0  0  0  0
  -22.6860  -31.3024   21.4128 H   0  0  0  0  0  0
  -23.3755  -35.9668   23.3318 H   0  0  0  0  0  0
  -24.3585  -36.8923   22.2045 H   0  0  0  0  0  0
  -23.7270  -37.6526   23.6661 H   0  0  0  0  0  0
  -26.0344  -31.6058   20.5977 H   0  0  0  0  0  0
  -26.8132  -30.8900   21.9850 H   0  0  0  0  0  0
  -28.1172  -29.1302   21.1291 H   0  0  0  0  0  0
  -26.0882  -25.9767   19.0062 H   0  0  0  0  0  0
  -23.9813  -27.2882   19.0367 H   0  0  0  0  0  0
  -23.7157  -30.5950   19.4039 H   0  0  0  0  0  0
  -22.7370  -29.2356   19.8711 H   0  0  0  0  0  0
  -25.1299  -36.1964   25.0813 H   0  0  0  0  0  0
  -20.9920  -28.3221   24.1407 H   0  0  0  0  0  0
  -20.5652  -26.2236   23.3582 H   0  0  0  0  0  0
  -21.6652  -26.7413   22.1178 H   0  0  0  0  0  0
  -19.6940  -25.6241   21.1216 H   0  0  0  0  0  0
  -19.6734  -27.3140   20.6681 H   0  0  0  0  0  0
  -17.4199  -26.6593   21.3980 H   0  0  0  0  0  0
  -18.0361  -26.0008   22.8957 H   0  0  0  0  0  0
  -19.7938  -30.7177   24.2304 H   0  0  0  0  0  0
  -17.5026  -31.6243   24.5117 H   0  0  0  0  0  0
  -15.5344  -30.2969   23.7636 H   0  0  0  0  0  0
  -15.8644  -28.0794   22.7079 H   0  0  0  0  0  0
  -24.5879  -30.7073   25.7770 H   0  0  0  0  0  0
  -24.8926  -32.2884   26.4898 H   0  0  0  0  0  0
  -25.8042  -30.8868   27.0211 H   0  0  0  0  0  0
  -26.2871  -29.6777   24.1197 H   0  0  0  0  0  0
  -27.4168  -29.7319   25.4534 H   0  0  0  0  0  0
  -27.8681  -30.4387   23.9194 H   0  0  0  0  0  0
  -27.2674  -33.3640   26.2052 H   0  0  0  0  0  0
  -28.3874  -32.6878   25.0297 H   0  0  0  0  0  0
  -28.0726  -31.8452   26.5385 H   0  0  0  0  0  0
  -28.2605  -38.0126   24.7497 H   0  0  0  0  0  0
  -28.1087  -36.2636   24.6311 H   0  0  0  0  0  0
  -27.2281  -37.1477   25.8859 H   0  0  0  0  0  0
  -20.9303  -29.8755   21.6945 H   0  0  0  0  0  0
  -26.0209  -38.2841   24.1404 H   0  0  0  0  0  0
  -28.1909  -19.4832   21.6239 H   0  0  0  0  0  0
  -28.0472  -17.0655   21.3513 H   0  0  0  0  0  0
  -32.3238  -16.7435   21.4746 H   0  0  0  0  0  0
  -35.1999  -20.2860   20.9802 H   0  0  0  0  0  0
  -36.1071  -18.9887   21.7575 H   0  0  0  0  0  0
  -35.1537  -20.1034   22.7346 H   0  0  0  0  0  0
  -28.4041  -21.6370   21.3079 H   0  0  0  0  0  0
  -29.6383  -21.8081   20.0871 H   0  0  0  0  0  0
  -30.5674  -23.7909   21.4623 H   0  0  0  0  0  0
  -29.2139  -23.6171   22.5458 H   0  0  0  0  0  0
  -27.6668  -24.0735   20.5283 H   0  0  0  0  0  0
  -29.1071  -24.3289   19.5721 H   0  0  0  0  0  0
  -34.0033  -17.8956   22.4851 H   0  0  0  0  0  0
  -34.0152  -18.0888   20.7258 H   0  0  0  0  0  0
  -29.7670  -26.1388   21.3420 H   0  0  0  0  0  0
  -28.1186  -26.0268   21.9224 H   0  0  0  0  0  0
  -31.7713  -20.8512   23.2307 H   0  0  0  0  0  0
  -29.1477  -14.9733   21.6950 H   0  0  0  0  0  0
  1 25  1  0  0  0
  1 30  2  0  0  0
  1 85  1  0  0  0
  2  3  1  0  0  0
  2 25  1  0  0  0
  2 87  1  0  0  0
  2 88  1  0  0  0
  3  4  1  0  0  0
  3 89  1  0  0  0
  3 90  1  0  0  0
  4  5  1  0  0  0
  4 91  1  0  0  0
  4 92  1  0  0  0
  5  6  1  0  0  0
  5 26  1  0  0  0
  5 93  1  0  0  0
  6 25  1  0  0  0
  6 94  1  0  0  0
  6 95  1  0  0  0
  7  8  2  0  0  0
  7 26  1  0  0  0
  7 29  1  0  0  0
  8  9  1  0  0  0
  8 22  1  0  0  0
  9 10  1  0  0  0
  9 27  2  0  0  0
 10 11  2  0  0  0
 10 15  1  0  0  0
 11 12  1  0  0  0
 11 96  1  0  0  0
 12 13  2  0  0  0
 12 97  1  0  0  0
 13 14  1  0  0  0
 13 31  1  0  0  0
 14 15  2  0  0  0
 14 98  1  0  0  0
 15 99  1  0  0  0
 16 17  2  0  0  0
 16 21  1  0  0  0
 16 31  1  0  0  0
 17 18  1  0  0  0
 17100  1  0  0  0
 18 19  2  0  0  0
 18101  1  0  0  0
 19 20  1  0  0  0
 19 24  1  0  0  0
 20 21  2  0  0  0
 20102  1  0  0  0
 21 23  1  0  0  0
 22 28  1  0  0  0
 22 32  2  0  0  0
 26 27  1  0  0  0
 28103  1  0  0  0
 28104  1  0  0  0
 29105  1  0  0  0
 29106  1  0  0  0
 33 34  1  0  0  0
 33 66  1  0  0  0
 33 70  2  0  0  0
 34 36  1  0  0  0
 34 59  1  0  0  0
 34107  1  0  0  0
 35 44  2  0  0  0
 35 45  1  0  0  0
 35 68  1  0  0  0
 36 56  1  0  0  0
 36108  1  0  0  0
 37 39  1  0  0  0
 37 47  1  0  0  0
 37 66  1  0  0  0
 37109  1  0  0  0
 38 43  2  0  0  0
 38 46  1  0  0  0
 38 47  1  0  0  0
 39 64  1  0  0  0
 39 67  2  0  0  0
 40 52  1  0  0  0
 40 53  2  0  0  0
 40 58  1  0  0  0
 41110  1  0  0  0
 41111  1  0  0  0
 41112  1  0  0  0
 41 48  1  0  0  0
 42 43  1  0  0  0
 42 66  1  0  0  0
 42113  1  0  0  0
 42114  1  0  0  0
 43 44  1  0  0  0
 44115  1  0  0  0
 45 46  2  0  0  0
 45116  1  0  0  0
 46117  1  0  0  0
 47118  1  0  0  0
 47119  1  0  0  0
 48 56  1  0  0  0
 48 65  1  0  0  0
 48120  1  0  0  0
 49 50  1  0  0  0
 49 53  1  0  0  0
 49 64  1  0  0  0
 49121  1  0  0  0
 50 51  1  0  0  0
 50122  1  0  0  0
 50123  1  0  0  0
 51 52  1  0  0  0
 51124  1  0  0  0
 51125  1  0  0  0
 52126  1  0  0  0
 52127  1  0  0  0
 53 54  1  0  0  0
 54 55  2  0  0  0
 54128  1  0  0  0
 55 57  1  0  0  0
 55129  1  0  0  0
 56 69  2  0  0  0
 57 58  2  0  0  0
 57130  1  0  0  0
 58131  1  0  0  0
 59 60  1  0  0  0
 59 61  1  0  0  0
 59 62  1  0  0  0
 60132  1  0  0  0
 60133  1  0  0  0
 60134  1  0  0  0
 61135  1  0  0  0
 61136  1  0  0  0
 61137  1  0  0  0
 62138  1  0  0  0
 62139  1  0  0  0
 62140  1  0  0  0
 63 65  1  0  0  0
 63141  1  0  0  0
 63142  1  0  0  0
 63143  1  0  0  0
 64144  1  0  0  0
 65145  1  0  0  0
 68 83  1  0  0  0
 71 72  2  0  0  0
 71 74  1  0  0  0
 71146  1  0  0  0
 72 75  1  0  0  0
 72147  1  0  0  0
 73 75  2  0  0  0
 73 76  1  0  0  0
 73148  1  0  0  0
 74 76  2  0  0  0
 74 77  1  0  0  0
 75 85  1  0  0  0
 76 86  1  0  0  0
 77 79  1  0  0  0
 77 84  2  0  0  0
 78 82  1  0  0  0
 78149  1  0  0  0
 78150  1  0  0  0
 78151  1  0  0  0
 79 80  1  0  0  0
 79152  1  0  0  0
 79153  1  0  0  0
 80 81  1  0  0  0
 80154  1  0  0  0
 80155  1  0  0  0
 81 83  1  0  0  0
 81156  1  0  0  0
 81157  1  0  0  0
 82 86  1  0  0  0
 82158  1  0  0  0
 82159  1  0  0  0
 83160  1  0  0  0
 83161  1  0  0  0
 84162  1  0  0  0
 85163  1  0  0  0
M  ISO  4   1 100  68 101  83 101  85 100
M  END
> <chiral flag>
0

> <version>
0

> <s_m_source_file>
/data/baiqing/PycharmProjects/Reinvent-master-3.2/result/LINK_invent/BTK/process_docking_weight1_custom_product_contain_oxygen_bond_distance_aromatic_linkinvent_7_9_3/rearranged_h_0135.sdf

> <i_m_source_file_index>
82

> <r_mmod_Potential_Energy-OPLS-2005>
14.3959226608276

> <r_mmod_Stretch_Energy-OPLS-2005>
39.605899810791

> <r_mmod_Bend_Energy-OPLS-2005>
100.196022033691

> <r_mmod_Torsional_Energy-OPLS-2005>
252.646453857422

> <r_mmod_Improper_Torsional_Energy-OPLS-2005>
3.6939013004303

> <r_mmod_Van_der_Waal_Energy-OPLS-2005>
162.279357910156

> <r_mmod_Electrostatic_Energy-OPLS-2005>
-338.063812255859

> <r_mmod_Solvation_Energy-OPLS-2005>
-214.338562011719

> <b_mmod_Minimization_Converged-OPLS-2005>
0

> <r_mmod_RMS_Derivative-OPLS-2005>
3.81803345680237

$$$$
82
                    3D
 Structure written by MMmdl.
175184  0  0  1  0            999 V2000
  -30.6642  -14.4935   20.5996 C   0  0  0  0  0  0
  -30.4428  -12.3267   19.4121 C   0  0  0  0  0  0
  -29.4987  -12.5142   18.2031 C   0  0  0  0  0  0
  -28.0219  -12.3455   18.6170 C   0  0  0  0  0  0
  -27.6639  -13.1780   19.8729 C   0  0  2  0  0  0
  -28.7104  -12.9270   20.9856 C   0  0  0  0  0  0
  -25.2651  -13.8095   20.5683 C   0  0  0  0  0  0
  -24.1869  -13.0419   20.9192 C   0  0  0  0  0  0
  -24.6376  -11.6870   20.8732 C   0  0  0  0  0  0
  -23.9026  -10.4272   21.0406 C   0  0  0  0  0  0
  -24.3579   -9.4196   21.9193 C   0  0  0  0  0  0
  -23.6265   -8.2226   22.0755 C   0  0  0  0  0  0
  -22.4250   -8.0262   21.3539 C   0  0  0  0  0  0
  -21.9879   -9.0236   20.4645 C   0  0  0  0  0  0
  -22.7198  -10.2121   20.3057 C   0  0  0  0  0  0
  -21.6842   -6.0715   22.5279 C   0  0  0  0  0  0
  -21.4005   -6.5625   23.8210 C   0  0  0  0  0  0
  -21.3657   -5.6783   24.9176 C   0  0  0  0  0  0
  -21.6048   -4.3047   24.7239 C   0  0  0  0  0  0
  -21.8814   -3.8133   23.4362 C   0  0  0  0  0  0
  -21.9189   -4.6944   22.3405 C   0  0  0  0  0  0
  -22.7899  -13.5259   21.1833 C   0  0  0  0  0  0
  -22.1666   -4.2123   21.0989 F   0  0  0  0  0  0
  -21.5625   -3.4537   25.7756 F   0  0  0  0  0  0
  -30.0364  -13.2879   20.4503 N   0  0  0  0  0  0
  -26.3036  -12.9191   20.3354 N   0  0  0  0  0  0
  -25.9285  -11.6385   20.5757 N   0  0  0  0  0  0
  -22.0491  -12.8270   22.0365 N   0  0  0  0  0  0
  -25.4451  -15.1799   20.4081 N   0  0  0  0  0  0
  -31.8078  -14.6922   20.1752 O   0  0  0  0  0  0
  -21.6629   -6.8854   21.4235 O   0  0  0  0  0  0
  -22.3610  -14.5570   20.6673 O   0  0  0  0  0  0
  -24.6141  -31.8672   23.2097 C   0  0  0  0  0  0
  -25.9037  -32.4823   23.8378 C   0  0  1  0  0  0
  -27.2389  -27.4417   20.1018 C   0  0  0  0  0  0
  -25.5892  -33.8620   24.2318 N   0  0  0  0  0  0
  -23.4016  -30.4929   21.5483 C   0  0  2  0  0  0
  -24.8492  -28.9550   20.1186 C   0  0  0  0  0  0
  -22.7374  -29.4692   22.4971 C   0  0  0  0  0  0
  -18.0251  -28.1395   22.8485 C   0  0  0  0  0  0
  -24.1469  -36.7311   23.2640 C   0  0  0  0  0  0
  -25.9288  -30.8424   21.3552 C   0  0  0  0  0  0
  -26.0095  -29.4741   20.7074 C   0  0  0  0  0  0
  -27.2091  -28.7269   20.6897 C   0  0  0  0  0  0
  -26.0651  -26.9380   19.5004 C   0  0  0  0  0  0
  -24.8710  -27.6862   19.5106 C   0  0  0  0  0  0
  -23.6112  -29.8232   20.1635 C   0  0  0  0  0  0
  -25.4087  -36.3101   24.0335 C   0  0  1  0  0  0
  -20.5843  -28.3688   23.1300 C   0  0  2  0  0  0
  -20.6747  -26.9424   22.5413 C   0  0  0  0  0  0
  -19.5737  -26.6408   21.5194 C   0  0  0  0  0  0
  -18.1912  -26.7941   22.1611 C   0  0  0  0  0  0
  -19.1502  -28.8849   23.2902 C   0  0  0  0  0  0
  -18.9451  -30.1451   23.8923 C   0  0  0  0  0  0
  -17.6465  -30.6604   24.0572 C   0  0  0  0  0  0
  -25.9020  -34.9472   23.5116 C   0  0  0  0  0  0
  -16.5346  -29.9125   23.6332 C   0  0  0  0  0  0
  -16.7250  -28.6535   23.0360 C   0  0  0  0  0  0
  -26.4477  -31.6589   25.0687 C   0  0  0  0  0  0
  -25.3765  -31.3697   26.1443 C   0  0  0  0  0  0
  -27.0284  -30.3022   24.6060 C   0  0  0  0  0  0
  -27.6057  -32.4286   25.7472 C   0  0  0  0  0  0
  -27.5561  -37.1803   24.8468 C   0  0  0  0  0  0
  -21.4105  -29.3049   22.3681 N   0  0  0  0  0  0
  -26.4269  -37.3788   23.9417 N   0  0  0  0  0  0
  -24.6666  -31.0802   22.0974 N   0  0  0  0  0  0
  -23.4127  -28.8234   23.3029 O   0  0  0  0  0  0
  -28.4045  -26.7039   20.1005 O   0  0  0  0  0  0
  -26.5598  -34.8925   22.4690 O   0  0  0  0  0  0
  -23.5340  -32.1411   23.7513 O   0  0  0  0  0  0
  -32.7539  -19.1128   22.3486 C   0  0  0  0  0  0
  -31.5468  -18.9013   21.6187 C   0  0  0  0  0  0
  -31.2777  -17.5611   21.7760 C   0  0  0  0  0  0
  -33.1828  -17.8904   22.7871 C   0  0  0  0  0  0
  -30.1797  -23.5522   20.4545 C   0  0  0  0  0  0
  -30.0966  -16.8137   21.4789 C   0  0  0  0  0  0
  -29.7771  -15.5679   21.0639 C   0  0  0  0  0  0
  -28.0496  -23.1125   19.4909 C   0  0  0  0  0  0
  -28.9546  -21.8746   19.4246 C   0  0  0  0  0  0
  -28.9787  -24.2827   19.8380 C   0  0  1  0  0  0
  -34.3669  -17.4436   23.5765 C   0  0  0  0  0  0
  -32.8460  -22.5933   18.8111 C   0  0  0  0  0  0
  -33.5683  -20.3542   19.5421 C   0  0  0  0  0  0
  -31.7143  -20.5730   17.9004 C   0  0  0  0  0  0
  -30.6625  -19.9141   20.8935 C   0  0  0  0  0  0
  -28.3199  -25.3974   20.7004 C   0  0  0  0  0  0
  -31.2841  -21.2631   20.3806 C   0  0  1  0  0  0
  -32.3202  -21.1863   19.1813 C   0  0  0  0  0  0
  -30.1945  -22.2468   20.1112 N   0  0  0  0  0  0
  -31.0339  -24.1226   21.1374 O   0  0  0  0  0  0
  -32.2950  -16.9253   22.4214 O   0  0  0  0  0  0
  -31.4815  -12.4596   19.1065 H   0  0  0  0  0  0
  -30.3769  -11.3064   19.7924 H   0  0  0  0  0  0
  -29.7479  -11.8029   17.4141 H   0  0  0  0  0  0
  -29.6477  -13.5074   17.7755 H   0  0  0  0  0  0
  -27.8515  -11.2872   18.8194 H   0  0  0  0  0  0
  -27.3652  -12.6079   17.7884 H   0  0  0  0  0  0
  -27.7083  -14.2215   19.5684 H   0  0  0  0  0  0
  -28.7105  -11.8724   21.2666 H   0  0  0  0  0  0
  -28.4651  -13.4584   21.9064 H   0  0  0  0  0  0
  -25.2705   -9.5680   22.4797 H   0  0  0  0  0  0
  -23.9962   -7.4615   22.7469 H   0  0  0  0  0  0
  -21.0810   -8.8748   19.8957 H   0  0  0  0  0  0
  -22.3638  -10.9667   19.6181 H   0  0  0  0  0  0
  -21.2003   -7.6133   23.9706 H   0  0  0  0  0  0
  -21.1482   -6.0521   25.9077 H   0  0  0  0  0  0
  -22.0597   -2.7592   23.2877 H   0  0  0  0  0  0
  -22.4055  -11.9929   22.4796 H   0  0  0  0  0  0
  -21.1118  -13.1328   22.2537 H   0  0  0  0  0  0
  -24.6853  -15.8436   20.5180 H   0  0  0  0  0  0
  -26.3020  -15.6100   20.0839 H   0  0  0  0  0  0
  -26.7115  -32.5551   23.1154 H   0  0  0  0  0  0
  -25.0004  -33.9767   25.0437 H   0  0  0  0  0  0
  -22.6918  -31.3111   21.4067 H   0  0  0  0  0  0
  -23.3707  -35.9673   23.3316 H   0  0  0  0  0  0
  -24.3575  -36.8908   22.2058 H   0  0  0  0  0  0
  -23.7231  -37.6526   23.6638 H   0  0  0  0  0  0
  -26.0288  -31.6063   20.5828 H   0  0  0  0  0  0
  -26.8224  -30.9083   21.9650 H   0  0  0  0  0  0
  -28.1072  -29.1272   21.1395 H   0  0  0  0  0  0
  -26.0749  -25.9678   19.0227 H   0  0  0  0  0  0
  -23.9802  -27.2824   19.0491 H   0  0  0  0  0  0
  -23.7263  -30.5982   19.4036 H   0  0  0  0  0  0
  -22.7322  -29.2497   19.8634 H   0  0  0  0  0  0
  -25.1266  -36.1961   25.0830 H   0  0  0  0  0  0
  -20.9964  -28.3279   24.1412 H   0  0  0  0  0  0
  -20.5613  -26.2318   23.3610 H   0  0  0  0  0  0
  -21.6629  -26.7460   22.1228 H   0  0  0  0  0  0
  -19.6906  -25.6321   21.1222 H   0  0  0  0  0  0
  -19.6666  -27.3214   20.6716 H   0  0  0  0  0  0
  -17.4170  -26.6659   21.4029 H   0  0  0  0  0  0
  -18.0339  -26.0090   22.9020 H   0  0  0  0  0  0
  -19.7940  -30.7244   24.2305 H   0  0  0  0  0  0
  -17.5040  -31.6286   24.5176 H   0  0  0  0  0  0
  -15.5358  -30.3061   23.7646 H   0  0  0  0  0  0
  -15.8636  -28.0874   22.7093 H   0  0  0  0  0  0
  -24.5953  -30.7014   25.7801 H   0  0  0  0  0  0
  -24.8937  -32.2853   26.4868 H   0  0  0  0  0  0
  -25.8156  -30.8896   27.0198 H   0  0  0  0  0  0
  -26.2818  -29.6803   24.1099 H   0  0  0  0  0  0
  -27.4016  -29.7236   25.4522 H   0  0  0  0  0  0
  -27.8675  -30.4316   23.9218 H   0  0  0  0  0  0
  -27.2679  -33.3570   26.2098 H   0  0  0  0  0  0
  -28.3881  -32.6866   25.0318 H   0  0  0  0  0  0
  -28.0707  -31.8355   26.5362 H   0  0  0  0  0  0
  -28.2599  -38.0079   24.7502 H   0  0  0  0  0  0
  -28.1024  -36.2612   24.6296 H   0  0  0  0  0  0
  -27.2291  -37.1480   25.8875 H   0  0  0  0  0  0
  -20.9240  -29.8752   21.6902 H   0  0  0  0  0  0
  -26.0140  -38.2855   24.1437 H   0  0  0  0  0  0
  -33.2629  -20.0508   22.5210 H   0  0  0  0  0  0
  -29.2188  -17.4053   21.7003 H   0  0  0  0  0  0
  -28.7137  -15.4163   21.0389 H   0  0  0  0  0  0
  -27.3015  -22.9622   20.2719 H   0  0  0  0  0  0
  -27.5159  -23.2768   18.5542 H   0  0  0  0  0  0
  -29.1509  -21.6132   18.3876 H   0  0  0  0  0  0
  -28.4617  -21.0219   19.8918 H   0  0  0  0  0  0
  -29.3477  -24.7229   18.9108 H   0  0  0  0  0  0
  -35.1711  -17.1096   22.9196 H   0  0  0  0  0  0
  -34.1077  -16.6245   24.2487 H   0  0  0  0  0  0
  -34.7531  -18.2598   24.1879 H   0  0  0  0  0  0
  -33.6235  -22.5450   18.0474 H   0  0  0  0  0  0
  -33.2781  -23.0993   19.6757 H   0  0  0  0  0  0
  -32.0649  -23.2363   18.4055 H   0  0  0  0  0  0
  -34.3268  -20.4096   18.7593 H   0  0  0  0  0  0
  -33.3404  -19.2958   19.6624 H   0  0  0  0  0  0
  -34.0405  -20.7127   20.4569 H   0  0  0  0  0  0
  -32.4828  -20.4003   17.1453 H   0  0  0  0  0  0
  -30.9931  -21.2359   17.4280 H   0  0  0  0  0  0
  -31.2375  -19.6111   18.0878 H   0  0  0  0  0  0
  -29.8623  -20.1437   21.5986 H   0  0  0  0  0  0
  -30.1765  -19.3924   20.0691 H   0  0  0  0  0  0
  -27.2903  -25.1237   20.9335 H   0  0  0  0  0  0
  -28.8074  -25.4627   21.6730 H   0  0  0  0  0  0
  -31.8342  -21.6629   21.2345 H   0  0  0  0  0  0
  1 25  1  0  0  0
  1 30  2  0  0  0
  1 77  1  0  0  0
  2  3  1  0  0  0
  2 25  1  0  0  0
  2 92  1  0  0  0
  2 93  1  0  0  0
  3  4  1  0  0  0
  3 94  1  0  0  0
  3 95  1  0  0  0
  4  5  1  0  0  0
  4 96  1  0  0  0
  4 97  1  0  0  0
  5  6  1  0  0  0
  5 26  1  0  0  0
  5 98  1  0  0  0
  6 25  1  0  0  0
  6 99  1  0  0  0
  6100  1  0  0  0
  7  8  2  0  0  0
  7 26  1  0  0  0
  7 29  1  0  0  0
  8  9  1  0  0  0
  8 22  1  0  0  0
  9 10  1  0  0  0
  9 27  2  0  0  0
 10 11  2  0  0  0
 10 15  1  0  0  0
 11 12  1  0  0  0
 11101  1  0  0  0
 12 13  2  0  0  0
 12102  1  0  0  0
 13 14  1  0  0  0
 13 31  1  0  0  0
 14 15  2  0  0  0
 14103  1  0  0  0
 15104  1  0  0  0
 16 17  2  0  0  0
 16 21  1  0  0  0
 16 31  1  0  0  0
 17 18  1  0  0  0
 17105  1  0  0  0
 18 19  2  0  0  0
 18106  1  0  0  0
 19 20  1  0  0  0
 19 24  1  0  0  0
 20 21  2  0  0  0
 20107  1  0  0  0
 21 23  1  0  0  0
 22 28  1  0  0  0
 22 32  2  0  0  0
 26 27  1  0  0  0
 28108  1  0  0  0
 28109  1  0  0  0
 29110  1  0  0  0
 29111  1  0  0  0
 33 34  1  0  0  0
 33 66  1  0  0  0
 33 70  2  0  0  0
 34 36  1  0  0  0
 34 59  1  0  0  0
 34112  1  0  0  0
 35 44  2  0  0  0
 35 45  1  0  0  0
 35 68  1  0  0  0
 36 56  1  0  0  0
 36113  1  0  0  0
 37 39  1  0  0  0
 37 47  1  0  0  0
 37 66  1  0  0  0
 37114  1  0  0  0
 38 43  2  0  0  0
 38 46  1  0  0  0
 38 47  1  0  0  0
 39 64  1  0  0  0
 39 67  2  0  0  0
 40 52  1  0  0  0
 40 53  2  0  0  0
 40 58  1  0  0  0
 41115  1  0  0  0
 41116  1  0  0  0
 41117  1  0  0  0
 41 48  1  0  0  0
 42 43  1  0  0  0
 42 66  1  0  0  0
 42118  1  0  0  0
 42119  1  0  0  0
 43 44  1  0  0  0
 44120  1  0  0  0
 45 46  2  0  0  0
 45121  1  0  0  0
 46122  1  0  0  0
 47123  1  0  0  0
 47124  1  0  0  0
 48 56  1  0  0  0
 48 65  1  0  0  0
 48125  1  0  0  0
 49 50  1  0  0  0
 49 53  1  0  0  0
 49 64  1  0  0  0
 49126  1  0  0  0
 50 51  1  0  0  0
 50127  1  0  0  0
 50128  1  0  0  0
 51 52  1  0  0  0
 51129  1  0  0  0
 51130  1  0  0  0
 52131  1  0  0  0
 52132  1  0  0  0
 53 54  1  0  0  0
 54 55  2  0  0  0
 54133  1  0  0  0
 55 57  1  0  0  0
 55134  1  0  0  0
 56 69  2  0  0  0
 57 58  2  0  0  0
 57135  1  0  0  0
 58136  1  0  0  0
 59 60  1  0  0  0
 59 61  1  0  0  0
 59 62  1  0  0  0
 60137  1  0  0  0
 60138  1  0  0  0
 60139  1  0  0  0
 61140  1  0  0  0
 61141  1  0  0  0
 61142  1  0  0  0
 62143  1  0  0  0
 62144  1  0  0  0
 62145  1  0  0  0
 63 65  1  0  0  0
 63146  1  0  0  0
 63147  1  0  0  0
 63148  1  0  0  0
 64149  1  0  0  0
 65150  1  0  0  0
 68 86  1  0  0  0
 71 72  1  0  0  0
 71 74  2  0  0  0
 71151  1  0  0  0
 72 73  2  0  0  0
 72 85  1  0  0  0
 73 76  1  0  0  0
 73 91  1  0  0  0
 74 81  1  0  0  0
 74 91  1  0  0  0
 75 80  1  0  0  0
 75 89  1  0  0  0
 75 90  2  0  0  0
 76 77  2  0  0  0
 76152  1  0  0  0
 77153  1  0  0  0
 78 79  1  0  0  0
 78 80  1  0  0  0
 78154  1  0  0  0
 78155  1  0  0  0
 79 89  1  0  0  0
 79156  1  0  0  0
 79157  1  0  0  0
 80 86  1  0  0  0
 80158  1  0  0  0
 81159  1  0  0  0
 81160  1  0  0  0
 81161  1  0  0  0
 82162  1  0  0  0
 82163  1  0  0  0
 82164  1  0  0  0
 82 88  1  0  0  0
 83 88  1  0  0  0
 83165  1  0  0  0
 83166  1  0  0  0
 83167  1  0  0  0
 84 88  1  0  0  0
 84168  1  0  0  0
 84169  1  0  0  0
 84170  1  0  0  0
 85171  1  0  0  0
 85172  1  0  0  0
 85 87  1  0  0  0
 86173  1  0  0  0
 86174  1  0  0  0
 87 88  1  0  0  0
 87 89  1  0  0  0
 87175  1  0  0  0
M  ISO  4   1 100  68 101  77 100  86 101
M  END
> <chiral flag>
0

> <version>
0

> <s_m_source_file>
/data/baiqing/PycharmProjects/Reinvent-master-3.2/result/LINK_invent/BTK/process_docking_weight1_custom_product_contain_oxygen_bond_distance_aromatic_linkinvent_7_9_3/rearranged_h_0135.sdf

> <i_m_source_file_index>
83

> <r_mmod_Potential_Energy-OPLS-2005>
84.8959045410156

> <r_mmod_Stretch_Energy-OPLS-2005>
45.4154777526855

> <r_mmod_Bend_Energy-OPLS-2005>
162.067321777344

> <r_mmod_Torsional_Energy-OPLS-2005>
291.277282714844

> <r_mmod_Improper_Torsional_Energy-OPLS-2005>
6.71121406555176

> <r_mmod_Van_der_Waal_Energy-OPLS-2005>
136.882232666016

> <r_mmod_Electrostatic_Energy-OPLS-2005>
-355.860656738281

> <r_mmod_Solvation_Energy-OPLS-2005>
-215.944702148438

> <b_mmod_Minimization_Converged-OPLS-2005>
0

> <r_mmod_RMS_Derivative-OPLS-2005>
2.77973413467407

$$$$
83
                    3D
 Structure written by MMmdl.
163171  0  0  1  0            999 V2000
  -30.7040  -14.4408   20.5722 C   0  0  0  0  0  0
  -30.4201  -12.2844   19.4201 C   0  0  0  0  0  0
  -29.4957  -12.5050   18.2046 C   0  0  0  0  0  0
  -28.0140  -12.3738   18.6124 C   0  0  0  0  0  0
  -27.6644  -13.2040   19.8772 C   0  0  2  0  0  0
  -28.7060  -12.9626   20.9933 C   0  0  0  0  0  0
  -25.2607  -13.8167   20.5677 C   0  0  0  0  0  0
  -24.1845  -13.0445   20.9157 C   0  0  0  0  0  0
  -24.6397  -11.6912   20.8721 C   0  0  0  0  0  0
  -23.9065  -10.4297   21.0407 C   0  0  0  0  0  0
  -24.3618   -9.4209   21.9185 C   0  0  0  0  0  0
  -23.6294   -8.2242   22.0755 C   0  0  0  0  0  0
  -22.4275   -8.0281   21.3552 C   0  0  0  0  0  0
  -21.9919   -9.0253   20.4645 C   0  0  0  0  0  0
  -22.7239  -10.2137   20.3056 C   0  0  0  0  0  0
  -21.6857   -6.0729   22.5285 C   0  0  0  0  0  0
  -21.4010   -6.5637   23.8215 C   0  0  0  0  0  0
  -21.3659   -5.6795   24.9181 C   0  0  0  0  0  0
  -21.6046   -4.3058   24.7234 C   0  0  0  0  0  0
  -21.8822   -3.8140   23.4360 C   0  0  0  0  0  0
  -21.9195   -4.6954   22.3412 C   0  0  0  0  0  0
  -22.7868  -13.5240   21.1827 C   0  0  0  0  0  0
  -22.1665   -4.2132   21.0993 F   0  0  0  0  0  0
  -21.5633   -3.4548   25.7750 F   0  0  0  0  0  0
  -30.0366  -13.2631   20.4474 N   0  0  0  0  0  0
  -26.3037  -12.9325   20.3376 N   0  0  0  0  0  0
  -25.9316  -11.6491   20.5749 N   0  0  0  0  0  0
  -22.0516  -12.8229   22.0388 N   0  0  0  0  0  0
  -25.4360  -15.1881   20.4094 N   0  0  0  0  0  0
  -31.8396  -14.5945   20.1115 O   0  0  0  0  0  0
  -21.6642   -6.8876   21.4245 O   0  0  0  0  0  0
  -22.3550  -14.5548   20.6688 O   0  0  0  0  0  0
  -24.6134  -31.8679   23.2104 C   0  0  0  0  0  0
  -25.9035  -32.4815   23.8397 C   0  0  1  0  0  0
  -27.2386  -27.4519   20.0682 C   0  0  0  0  0  0
  -25.5899  -33.8617   24.2330 N   0  0  0  0  0  0
  -23.3995  -30.4922   21.5506 C   0  0  2  0  0  0
  -24.8428  -28.9594   20.1132 C   0  0  0  0  0  0
  -22.7398  -29.4653   22.4990 C   0  0  0  0  0  0
  -18.0258  -28.1367   22.8479 C   0  0  0  0  0  0
  -24.1489  -36.7323   23.2639 C   0  0  0  0  0  0
  -25.9273  -30.8350   21.3619 C   0  0  0  0  0  0
  -26.0015  -29.4706   20.7085 C   0  0  0  0  0  0
  -27.1968  -28.7193   20.6917 C   0  0  0  0  0  0
  -26.0507  -26.9399   19.4940 C   0  0  0  0  0  0
  -24.8601  -27.6904   19.5103 C   0  0  0  0  0  0
  -23.6052  -29.8255   20.1646 C   0  0  0  0  0  0
  -25.4107  -36.3109   24.0338 C   0  0  1  0  0  0
  -20.5851  -28.3650   23.1312 C   0  0  2  0  0  0
  -20.6746  -26.9384   22.5413 C   0  0  0  0  0  0
  -19.5730  -26.6374   21.5201 C   0  0  0  0  0  0
  -18.1906  -26.7910   22.1614 C   0  0  0  0  0  0
  -19.1510  -28.8827   23.2890 C   0  0  0  0  0  0
  -18.9443  -30.1434   23.8901 C   0  0  0  0  0  0
  -17.6448  -30.6575   24.0558 C   0  0  0  0  0  0
  -25.9035  -34.9471   23.5131 C   0  0  0  0  0  0
  -16.5338  -29.9081   23.6319 C   0  0  0  0  0  0
  -16.7249  -28.6499   23.0336 C   0  0  0  0  0  0
  -26.4464  -31.6585   25.0722 C   0  0  0  0  0  0
  -25.3747  -31.3682   26.1485 C   0  0  0  0  0  0
  -27.0293  -30.3028   24.6090 C   0  0  0  0  0  0
  -27.6038  -32.4300   25.7493 C   0  0  0  0  0  0
  -27.5579  -37.1814   24.8464 C   0  0  0  0  0  0
  -21.4129  -29.3031   22.3739 N   0  0  0  0  0  0
  -26.4294  -37.3792   23.9405 N   0  0  0  0  0  0
  -24.6650  -31.0799   22.0992 N   0  0  0  0  0  0
  -23.4175  -28.8193   23.3023 O   0  0  0  0  0  0
  -28.4310  -26.7601   20.0837 O   0  0  0  0  0  0
  -26.5597  -34.8919   22.4694 O   0  0  0  0  0  0
  -23.5332  -32.1422   23.7509 O   0  0  0  0  0  0
  -28.8510  -19.8948   17.4861 C   0  0  0  0  0  0
  -28.8019  -18.8928   18.4677 C   0  0  0  0  0  0
  -30.1079  -20.3036   19.9479 C   0  0  0  0  0  0
  -29.5517  -21.1019   17.7036 C   0  0  0  0  0  0
  -30.1729  -21.3292   18.9702 C   0  0  0  0  0  0
  -29.4661  -19.0736   19.6955 C   0  0  0  0  0  0
  -29.3383  -24.5419   19.6589 C   0  0  0  0  0  0
  -31.0198  -22.1896   15.9170 C   0  0  0  0  0  0
  -29.6145  -22.0658   16.5243 C   0  0  0  0  0  0
  -31.0294  -22.5551   19.3355 C   0  0  0  0  0  0
  -30.5712  -23.9829   18.9410 C   0  0  0  0  0  0
  -28.7143  -25.8059   19.0527 C   0  0  0  0  0  0
  -30.0087  -15.6942   21.1453 C   0  0  0  0  0  0
  -30.1594  -16.8810   20.1698 C   0  0  0  0  0  0
  -28.8826  -24.0219   20.6831 O   0  0  0  0  0  0
  -29.5135  -18.0685   20.6344 O   0  0  0  0  0  0
  -31.4657  -12.3740   19.1215 H   0  0  0  0  0  0
  -30.3097  -11.2704   19.8077 H   0  0  0  0  0  0
  -29.7316  -11.7899   17.4158 H   0  0  0  0  0  0
  -29.6734  -13.4943   17.7811 H   0  0  0  0  0  0
  -27.8128  -11.3173   18.7938 H   0  0  0  0  0  0
  -27.3695  -12.6656   17.7824 H   0  0  0  0  0  0
  -27.7150  -14.2545   19.5905 H   0  0  0  0  0  0
  -28.6746  -11.9195   21.3104 H   0  0  0  0  0  0
  -28.4791  -13.5366   21.8916 H   0  0  0  0  0  0
  -25.2771   -9.5683   22.4748 H   0  0  0  0  0  0
  -24.0001   -7.4641   22.7481 H   0  0  0  0  0  0
  -21.0852   -8.8779   19.8945 H   0  0  0  0  0  0
  -22.3709  -10.9678   19.6159 H   0  0  0  0  0  0
  -21.1996   -7.6146   23.9712 H   0  0  0  0  0  0
  -21.1482   -6.0530   25.9087 H   0  0  0  0  0  0
  -22.0598   -2.7596   23.2874 H   0  0  0  0  0  0
  -22.4149  -11.9888   22.4765 H   0  0  0  0  0  0
  -21.1133  -13.1250   22.2608 H   0  0  0  0  0  0
  -24.6773  -15.8514   20.5217 H   0  0  0  0  0  0
  -26.3004  -15.6241   20.1128 H   0  0  0  0  0  0
  -26.7112  -32.5520   23.1167 H   0  0  0  0  0  0
  -25.0053  -33.9779   25.0477 H   0  0  0  0  0  0
  -22.6866  -31.3084   21.4141 H   0  0  0  0  0  0
  -23.3737  -35.9671   23.3307 H   0  0  0  0  0  0
  -24.3590  -36.8931   22.2054 H   0  0  0  0  0  0
  -23.7256  -37.6536   23.6650 H   0  0  0  0  0  0
  -26.0436  -31.6010   20.5939 H   0  0  0  0  0  0
  -26.8150  -30.8844   21.9811 H   0  0  0  0  0  0
  -28.0940  -29.1136   21.1476 H   0  0  0  0  0  0
  -26.0063  -25.9579   19.0487 H   0  0  0  0  0  0
  -23.9641  -27.2828   19.0625 H   0  0  0  0  0  0
  -23.7107  -30.6010   19.4046 H   0  0  0  0  0  0
  -22.7285  -29.2457   19.8712 H   0  0  0  0  0  0
  -25.1280  -36.1978   25.0832 H   0  0  0  0  0  0
  -20.9930  -28.3211   24.1436 H   0  0  0  0  0  0
  -20.5626  -26.2260   23.3595 H   0  0  0  0  0  0
  -21.6617  -26.7414   22.1219 H   0  0  0  0  0  0
  -19.6890  -25.6290   21.1214 H   0  0  0  0  0  0
  -19.6671  -27.3195   20.6735 H   0  0  0  0  0  0
  -17.4172  -26.6638   21.4020 H   0  0  0  0  0  0
  -18.0319  -26.0054   22.9014 H   0  0  0  0  0  0
  -19.7926  -30.7235   24.2265 H   0  0  0  0  0  0
  -17.5013  -31.6254   24.5163 H   0  0  0  0  0  0
  -15.5340  -30.2990   23.7645 H   0  0  0  0  0  0
  -15.8645  -28.0833   22.7038 H   0  0  0  0  0  0
  -24.5937  -30.6994   25.7847 H   0  0  0  0  0  0
  -24.8919  -32.2828   26.4936 H   0  0  0  0  0  0
  -25.8132  -30.8875   27.0241 H   0  0  0  0  0  0
  -26.2832  -29.6794   24.1145 H   0  0  0  0  0  0
  -27.4064  -29.7254   25.4542 H   0  0  0  0  0  0
  -27.8666  -30.4344   23.9233 H   0  0  0  0  0  0
  -27.2650  -33.3583   26.2104 H   0  0  0  0  0  0
  -28.3838  -32.6880   25.0318 H   0  0  0  0  0  0
  -28.0715  -31.8401   26.5386 H   0  0  0  0  0  0
  -28.2598  -38.0108   24.7500 H   0  0  0  0  0  0
  -28.1068  -36.2636   24.6298 H   0  0  0  0  0  0
  -27.2298  -37.1477   25.8868 H   0  0  0  0  0  0
  -20.9277  -29.8799   21.7011 H   0  0  0  0  0  0
  -26.0180  -38.2871   24.1399 H   0  0  0  0  0  0
  -28.3641  -19.7074   16.5387 H   0  0  0  0  0  0
  -28.2691  -17.9762   18.2590 H   0  0  0  0  0  0
  -30.6132  -20.4320   20.8961 H   0  0  0  0  0  0
  -31.0162  -22.8624   15.0591 H   0  0  0  0  0  0
  -31.3785  -21.2193   15.5720 H   0  0  0  0  0  0
  -31.7486  -22.5743   16.6281 H   0  0  0  0  0  0
  -29.1829  -23.0270   16.7913 H   0  0  0  0  0  0
  -28.9515  -21.7050   15.7364 H   0  0  0  0  0  0
  -32.0211  -22.3848   18.9171 H   0  0  0  0  0  0
  -31.1900  -22.5555   20.4140 H   0  0  0  0  0  0
  -31.3814  -24.6604   19.2107 H   0  0  0  0  0  0
  -30.4716  -24.1121   17.8698 H   0  0  0  0  0  0
  -27.8542  -25.5082   18.4594 H   0  0  0  0  0  0
  -29.4248  -26.2541   18.3586 H   0  0  0  0  0  0
  -28.9475  -15.5405   21.3245 H   0  0  0  0  0  0
  -30.4594  -15.9355   22.1071 H   0  0  0  0  0  0
  -29.7694  -16.5732   19.1980 H   0  0  0  0  0  0
  -31.2156  -17.1153   20.0194 H   0  0  0  0  0  0
  1 25  1  0  0  0
  1 30  2  0  0  0
  1 83  1  0  0  0
  2  3  1  0  0  0
  2 25  1  0  0  0
  2 87  1  0  0  0
  2 88  1  0  0  0
  3  4  1  0  0  0
  3 89  1  0  0  0
  3 90  1  0  0  0
  4  5  1  0  0  0
  4 91  1  0  0  0
  4 92  1  0  0  0
  5  6  1  0  0  0
  5 26  1  0  0  0
  5 93  1  0  0  0
  6 25  1  0  0  0
  6 94  1  0  0  0
  6 95  1  0  0  0
  7  8  2  0  0  0
  7 26  1  0  0  0
  7 29  1  0  0  0
  8  9  1  0  0  0
  8 22  1  0  0  0
  9 10  1  0  0  0
  9 27  2  0  0  0
 10 11  2  0  0  0
 10 15  1  0  0  0
 11 12  1  0  0  0
 11 96  1  0  0  0
 12 13  2  0  0  0
 12 97  1  0  0  0
 13 14  1  0  0  0
 13 31  1  0  0  0
 14 15  2  0  0  0
 14 98  1  0  0  0
 15 99  1  0  0  0
 16 17  2  0  0  0
 16 21  1  0  0  0
 16 31  1  0  0  0
 17 18  1  0  0  0
 17100  1  0  0  0
 18 19  2  0  0  0
 18101  1  0  0  0
 19 20  1  0  0  0
 19 24  1  0  0  0
 20 21  2  0  0  0
 20102  1  0  0  0
 21 23  1  0  0  0
 22 28  1  0  0  0
 22 32  2  0  0  0
 26 27  1  0  0  0
 28103  1  0  0  0
 28104  1  0  0  0
 29105  1  0  0  0
 29106  1  0  0  0
 33 34  1  0  0  0
 33 66  1  0  0  0
 33 70  2  0  0  0
 34 36  1  0  0  0
 34 59  1  0  0  0
 34107  1  0  0  0
 35 44  2  0  0  0
 35 45  1  0  0  0
 35 68  1  0  0  0
 36 56  1  0  0  0
 36108  1  0  0  0
 37 39  1  0  0  0
 37 47  1  0  0  0
 37 66  1  0  0  0
 37109  1  0  0  0
 38 43  2  0  0  0
 38 46  1  0  0  0
 38 47  1  0  0  0
 39 64  1  0  0  0
 39 67  2  0  0  0
 40 52  1  0  0  0
 40 53  2  0  0  0
 40 58  1  0  0  0
 41110  1  0  0  0
 41111  1  0  0  0
 41112  1  0  0  0
 41 48  1  0  0  0
 42 43  1  0  0  0
 42 66  1  0  0  0
 42113  1  0  0  0
 42114  1  0  0  0
 43 44  1  0  0  0
 44115  1  0  0  0
 45 46  2  0  0  0
 45116  1  0  0  0
 46117  1  0  0  0
 47118  1  0  0  0
 47119  1  0  0  0
 48 56  1  0  0  0
 48 65  1  0  0  0
 48120  1  0  0  0
 49 50  1  0  0  0
 49 53  1  0  0  0
 49 64  1  0  0  0
 49121  1  0  0  0
 50 51  1  0  0  0
 50122  1  0  0  0
 50123  1  0  0  0
 51 52  1  0  0  0
 51124  1  0  0  0
 51125  1  0  0  0
 52126  1  0  0  0
 52127  1  0  0  0
 53 54  1  0  0  0
 54 55  2  0  0  0
 54128  1  0  0  0
 55 57  1  0  0  0
 55129  1  0  0  0
 56 69  2  0  0  0
 57 58  2  0  0  0
 57130  1  0  0  0
 58131  1  0  0  0
 59 60  1  0  0  0
 59 61  1  0  0  0
 59 62  1  0  0  0
 60132  1  0  0  0
 60133  1  0  0  0
 60134  1  0  0  0
 61135  1  0  0  0
 61136  1  0  0  0
 61137  1  0  0  0
 62138  1  0  0  0
 62139  1  0  0  0
 62140  1  0  0  0
 63 65  1  0  0  0
 63141  1  0  0  0
 63142  1  0  0  0
 63143  1  0  0  0
 64144  1  0  0  0
 65145  1  0  0  0
 68 82  1  0  0  0
 71 72  2  0  0  0
 71 74  1  0  0  0
 71146  1  0  0  0
 72 76  1  0  0  0
 72147  1  0  0  0
 73 75  1  0  0  0
 73 76  2  0  0  0
 73148  1  0  0  0
 74 75  2  0  0  0
 74 79  1  0  0  0
 75 80  1  0  0  0
 76 86  1  0  0  0
 77 81  1  0  0  0
 77 82  1  0  0  0
 77 85  2  0  0  0
 78 79  1  0  0  0
 78149  1  0  0  0
 78150  1  0  0  0
 78151  1  0  0  0
 79152  1  0  0  0
 79153  1  0  0  0
 80 81  1  0  0  0
 80154  1  0  0  0
 80155  1  0  0  0
 81156  1  0  0  0
 81157  1  0  0  0
 82158  1  0  0  0
 82159  1  0  0  0
 83 84  1  0  0  0
 83160  1  0  0  0
 83161  1  0  0  0
 84 86  1  0  0  0
 84162  1  0  0  0
 84163  1  0  0  0
M  ISO  4   1 100  68 101  82 101  83 100
M  END
> <chiral flag>
0

> <version>
0

> <s_m_source_file>
/data/baiqing/PycharmProjects/Reinvent-master-3.2/result/LINK_invent/BTK/process_docking_weight1_custom_product_contain_oxygen_bond_distance_aromatic_linkinvent_7_9_3/rearranged_h_0135.sdf

> <i_m_source_file_index>
84

> <r_mmod_Potential_Energy-OPLS-2005>
-22.6008396148682

> <r_mmod_Stretch_Energy-OPLS-2005>
37.0587501525879

> <r_mmod_Bend_Energy-OPLS-2005>
116.57689666748

> <r_mmod_Torsional_Energy-OPLS-2005>
208.052886962891

> <r_mmod_Improper_Torsional_Energy-OPLS-2005>
3.76390600204468

> <r_mmod_Van_der_Waal_Energy-OPLS-2005>
157.970809936523

> <r_mmod_Electrostatic_Energy-OPLS-2005>
-336.627258300781

> <r_mmod_Solvation_Energy-OPLS-2005>
-220.780883789062

> <b_mmod_Minimization_Converged-OPLS-2005>
0

> <r_mmod_RMS_Derivative-OPLS-2005>
1.31975662708282

$$$$
84
                    3D
 Structure written by MMmdl.
158166  0  0  1  0            999 V2000
  -30.5840  -14.6616   20.5372 C   0  0  0  0  0  0
  -30.4474  -12.4110   19.4663 C   0  0  0  0  0  0
  -29.5183  -12.5214   18.2357 C   0  0  0  0  0  0
  -28.0408  -12.3411   18.6413 C   0  0  0  0  0  0
  -27.6537  -13.2090   19.8666 C   0  0  2  0  0  0
  -28.6914  -13.0500   21.0006 C   0  0  0  0  0  0
  -25.2537  -13.8120   20.5662 C   0  0  0  0  0  0
  -24.1802  -13.0410   20.9189 C   0  0  0  0  0  0
  -24.6367  -11.6882   20.8732 C   0  0  0  0  0  0
  -23.9032  -10.4281   21.0402 C   0  0  0  0  0  0
  -24.3587   -9.4204   21.9183 C   0  0  0  0  0  0
  -23.6265   -8.2249   22.0765 C   0  0  0  0  0  0
  -22.4253   -8.0284   21.3556 C   0  0  0  0  0  0
  -21.9874   -9.0251   20.4661 C   0  0  0  0  0  0
  -22.7200  -10.2121   20.3058 C   0  0  0  0  0  0
  -21.6856   -6.0721   22.5276 C   0  0  0  0  0  0
  -21.4020   -6.5627   23.8206 C   0  0  0  0  0  0
  -21.3662   -5.6780   24.9170 C   0  0  0  0  0  0
  -21.6050   -4.3047   24.7226 C   0  0  0  0  0  0
  -21.8818   -3.8133   23.4348 C   0  0  0  0  0  0
  -21.9190   -4.6946   22.3395 C   0  0  0  0  0  0
  -22.7831  -13.5223   21.1857 C   0  0  0  0  0  0
  -22.1658   -4.2130   21.0971 F   0  0  0  0  0  0
  -21.5623   -3.4533   25.7745 F   0  0  0  0  0  0
  -30.0096  -13.4176   20.4538 N   0  0  0  0  0  0
  -26.2964  -12.9300   20.3281 N   0  0  0  0  0  0
  -25.9285  -11.6467   20.5722 N   0  0  0  0  0  0
  -22.0458  -12.8235   22.0414 N   0  0  0  0  0  0
  -25.4194  -15.1829   20.4055 N   0  0  0  0  0  0
  -31.7296  -14.8700   20.1202 O   0  0  0  0  0  0
  -21.6635   -6.8873   21.4247 O   0  0  0  0  0  0
  -22.3533  -14.5534   20.6706 O   0  0  0  0  0  0
  -24.6246  -31.8594   23.1994 C   0  0  0  0  0  0
  -25.9085  -32.4777   23.8338 C   0  0  1  0  0  0
  -27.2356  -27.3252   20.1463 C   0  0  0  0  0  0
  -25.5902  -33.8575   24.2275 N   0  0  0  0  0  0
  -23.4197  -30.4785   21.5414 C   0  0  2  0  0  0
  -24.8713  -28.9248   20.1169 C   0  0  0  0  0  0
  -22.7461  -29.4615   22.4936 C   0  0  0  0  0  0
  -18.0284  -28.1378   22.8478 C   0  0  0  0  0  0
  -24.1484  -36.7304   23.2634 C   0  0  0  0  0  0
  -25.9560  -30.7952   21.3657 C   0  0  0  0  0  0
  -26.0356  -29.4177   20.7204 C   0  0  0  0  0  0
  -27.2225  -28.6303   20.7219 C   0  0  0  0  0  0
  -26.0540  -26.8723   19.5254 C   0  0  0  0  0  0
  -24.8823  -27.6576   19.5080 C   0  0  0  0  0  0
  -23.6370  -29.8051   20.1592 C   0  0  0  0  0  0
  -25.4096  -36.3087   24.0335 C   0  0  1  0  0  0
  -20.5881  -28.3681   23.1283 C   0  0  2  0  0  0
  -20.6780  -26.9406   22.5405 C   0  0  0  0  0  0
  -19.5756  -26.6381   21.5207 C   0  0  0  0  0  0
  -18.1936  -26.7922   22.1620 C   0  0  0  0  0  0
  -19.1532  -28.8845   23.2881 C   0  0  0  0  0  0
  -18.9456  -30.1445   23.8903 C   0  0  0  0  0  0
  -17.6454  -30.6580   24.0567 C   0  0  0  0  0  0
  -25.9037  -34.9455   23.5112 C   0  0  0  0  0  0
  -16.5349  -29.9080   23.6320 C   0  0  0  0  0  0
  -16.7272  -28.6502   23.0335 C   0  0  0  0  0  0
  -26.4473  -31.6575   25.0701 C   0  0  0  0  0  0
  -25.3720  -31.3714   26.1445 C   0  0  0  0  0  0
  -27.0296  -30.3003   24.6121 C   0  0  0  0  0  0
  -27.6052  -32.4290   25.7463 C   0  0  0  0  0  0
  -27.5574  -37.1791   24.8448 C   0  0  0  0  0  0
  -21.4177  -29.3036   22.3676 N   0  0  0  0  0  0
  -26.4272  -37.3783   23.9424 N   0  0  0  0  0  0
  -24.6856  -31.0611   22.0937 N   0  0  0  0  0  0
  -23.4185  -28.8162   23.3024 O   0  0  0  0  0  0
  -28.3660  -26.5027   20.1473 O   0  0  0  0  0  0
  -26.5617  -34.8928   22.4685 O   0  0  0  0  0  0
  -23.5410  -32.1378   23.7333 O   0  0  0  0  0  0
  -30.6551  -18.0620   20.8023 C   0  0  0  0  0  0
  -30.3895  -19.4604   20.6106 C   0  0  0  0  0  0
  -28.3180  -17.6116   20.5382 C   0  0  0  0  0  0
  -29.6196  -17.0900   20.7509 C   0  0  0  0  0  0
  -29.0809  -19.9724   20.3610 C   0  0  0  0  0  0
  -28.0389  -18.9951   20.3452 C   0  0  0  0  0  0
  -30.0542  -24.1212   19.2831 C   0  0  0  0  0  0
  -26.1590  -20.3735   20.8404 C   0  0  0  0  0  0
  -28.2864  -25.1776   20.8038 C   0  0  0  0  0  0
  -28.8135  -22.4749   20.7807 C   0  0  0  0  0  0
  -28.7168  -23.8708   19.9917 C   0  0  2  0  0  0
  -29.7539  -15.6495   21.0045 N   0  0  0  0  0  0
  -26.7227  -19.3072   20.0869 O   0  0  0  0  0  0
  -28.8553  -21.2926   19.9086 O   0  0  0  0  0  0
  -31.4893  -12.5480   19.1715 H   0  0  0  0  0  0
  -30.3887  -11.4125   19.9029 H   0  0  0  0  0  0
  -29.7912  -11.7807   17.4833 H   0  0  0  0  0  0
  -29.6501  -13.4972   17.7650 H   0  0  0  0  0  0
  -27.8899  -11.2861   18.8763 H   0  0  0  0  0  0
  -27.3884  -12.5625   17.7967 H   0  0  0  0  0  0
  -27.6749  -14.2461   19.5311 H   0  0  0  0  0  0
  -28.7058  -12.0197   21.3598 H   0  0  0  0  0  0
  -28.4177  -13.6522   21.8681 H   0  0  0  0  0  0
  -25.2727   -9.5679   22.4754 H   0  0  0  0  0  0
  -23.9982   -7.4634   22.7471 H   0  0  0  0  0  0
  -21.0808   -8.8749   19.8962 H   0  0  0  0  0  0
  -22.3658  -10.9648   19.6165 H   0  0  0  0  0  0
  -21.2026   -7.6137   23.9702 H   0  0  0  0  0  0
  -21.1483   -6.0515   25.9064 H   0  0  0  0  0  0
  -22.0594   -2.7597   23.2856 H   0  0  0  0  0  0
  -22.4064  -11.9902   22.4811 H   0  0  0  0  0  0
  -21.1086  -13.1289   22.2636 H   0  0  0  0  0  0
  -24.6459  -15.8292   20.5084 H   0  0  0  0  0  0
  -26.2375  -15.6040   19.9870 H   0  0  0  0  0  0
  -26.7166  -32.5458   23.1101 H   0  0  0  0  0  0
  -25.0031  -33.9729   25.0410 H   0  0  0  0  0  0
  -22.7137  -31.2975   21.3937 H   0  0  0  0  0  0
  -23.3756  -35.9623   23.3259 H   0  0  0  0  0  0
  -24.3603  -36.8966   22.2059 H   0  0  0  0  0  0
  -23.7221  -37.6490   23.6681 H   0  0  0  0  0  0
  -26.0759  -31.5501   20.5874 H   0  0  0  0  0  0
  -26.8404  -30.8588   21.9878 H   0  0  0  0  0  0
  -28.1192  -29.0075   21.1949 H   0  0  0  0  0  0
  -26.0380  -25.8982   19.0564 H   0  0  0  0  0  0
  -23.9924  -27.2735   19.0302 H   0  0  0  0  0  0
  -23.7576  -30.5781   19.3987 H   0  0  0  0  0  0
  -22.7573  -29.2341   19.8577 H   0  0  0  0  0  0
  -25.1264  -36.1941   25.0826 H   0  0  0  0  0  0
  -20.9972  -28.3263   24.1402 H   0  0  0  0  0  0
  -20.5684  -26.2288   23.3602 H   0  0  0  0  0  0
  -21.6653  -26.7448   22.1198 H   0  0  0  0  0  0
  -19.6928  -25.6294   21.1236 H   0  0  0  0  0  0
  -19.6687  -27.3191   20.6737 H   0  0  0  0  0  0
  -17.4196  -26.6639   21.4037 H   0  0  0  0  0  0
  -18.0352  -26.0070   22.9023 H   0  0  0  0  0  0
  -19.7931  -30.7258   24.2278 H   0  0  0  0  0  0
  -17.5011  -31.6263   24.5155 H   0  0  0  0  0  0
  -15.5350  -30.2978   23.7648 H   0  0  0  0  0  0
  -15.8677  -28.0830   22.7037 H   0  0  0  0  0  0
  -24.5860  -30.7107   25.7769 H   0  0  0  0  0  0
  -24.8953  -32.2885   26.4914 H   0  0  0  0  0  0
  -25.8047  -30.8841   27.0191 H   0  0  0  0  0  0
  -26.2840  -29.6766   24.1171 H   0  0  0  0  0  0
  -27.4040  -29.7249   25.4597 H   0  0  0  0  0  0
  -27.8695  -30.4304   23.9293 H   0  0  0  0  0  0
  -27.2688  -33.3600   26.2040 H   0  0  0  0  0  0
  -28.3852  -32.6824   25.0270 H   0  0  0  0  0  0
  -28.0721  -31.8402   26.5372 H   0  0  0  0  0  0
  -28.2554  -38.0126   24.7569 H   0  0  0  0  0  0
  -28.1116  -36.2672   24.6171 H   0  0  0  0  0  0
  -27.2332  -37.1318   25.8860 H   0  0  0  0  0  0
  -20.9343  -29.8763   21.6900 H   0  0  0  0  0  0
  -26.0157  -38.2857   24.1458 H   0  0  0  0  0  0
  -31.6704  -17.7428   20.9885 H   0  0  0  0  0  0
  -31.2243  -20.1467   20.6091 H   0  0  0  0  0  0
  -27.4849  -16.9272   20.5154 H   0  0  0  0  0  0
  -30.0290  -25.0396   18.6968 H   0  0  0  0  0  0
  -30.2940  -23.3025   18.6033 H   0  0  0  0  0  0
  -30.8688  -24.2072   20.0030 H   0  0  0  0  0  0
  -26.1963  -21.3104   20.2835 H   0  0  0  0  0  0
  -26.6450  -20.5036   21.8079 H   0  0  0  0  0  0
  -25.1088  -20.1559   21.0392 H   0  0  0  0  0  0
  -28.9387  -25.2453   21.6755 H   0  0  0  0  0  0
  -27.2876  -25.0231   21.2138 H   0  0  0  0  0  0
  -27.9521  -22.3907   21.4405 H   0  0  0  0  0  0
  -29.6844  -22.4718   21.4373 H   0  0  0  0  0  0
  -27.9571  -23.7465   19.2189 H   0  0  0  0  0  0
  -28.9052  -15.2300   21.3546 H   0  0  0  0  0  0
  1 25  1  0  0  0
  1 30  2  0  0  0
  1 82  1  0  0  0
  2  3  1  0  0  0
  2 25  1  0  0  0
  2 85  1  0  0  0
  2 86  1  0  0  0
  3  4  1  0  0  0
  3 87  1  0  0  0
  3 88  1  0  0  0
  4  5  1  0  0  0
  4 89  1  0  0  0
  4 90  1  0  0  0
  5  6  1  0  0  0
  5 26  1  0  0  0
  5 91  1  0  0  0
  6 25  1  0  0  0
  6 92  1  0  0  0
  6 93  1  0  0  0
  7  8  2  0  0  0
  7 26  1  0  0  0
  7 29  1  0  0  0
  8  9  1  0  0  0
  8 22  1  0  0  0
  9 10  1  0  0  0
  9 27  2  0  0  0
 10 11  2  0  0  0
 10 15  1  0  0  0
 11 12  1  0  0  0
 11 94  1  0  0  0
 12 13  2  0  0  0
 12 95  1  0  0  0
 13 14  1  0  0  0
 13 31  1  0  0  0
 14 15  2  0  0  0
 14 96  1  0  0  0
 15 97  1  0  0  0
 16 17  2  0  0  0
 16 21  1  0  0  0
 16 31  1  0  0  0
 17 18  1  0  0  0
 17 98  1  0  0  0
 18 19  2  0  0  0
 18 99  1  0  0  0
 19 20  1  0  0  0
 19 24  1  0  0  0
 20 21  2  0  0  0
 20100  1  0  0  0
 21 23  1  0  0  0
 22 28  1  0  0  0
 22 32  2  0  0  0
 26 27  1  0  0  0
 28101  1  0  0  0
 28102  1  0  0  0
 29103  1  0  0  0
 29104  1  0  0  0
 33 34  1  0  0  0
 33 66  1  0  0  0
 33 70  2  0  0  0
 34 36  1  0  0  0
 34 59  1  0  0  0
 34105  1  0  0  0
 35 44  2  0  0  0
 35 45  1  0  0  0
 35 68  1  0  0  0
 36 56  1  0  0  0
 36106  1  0  0  0
 37 39  1  0  0  0
 37 47  1  0  0  0
 37 66  1  0  0  0
 37107  1  0  0  0
 38 43  2  0  0  0
 38 46  1  0  0  0
 38 47  1  0  0  0
 39 64  1  0  0  0
 39 67  2  0  0  0
 40 52  1  0  0  0
 40 53  2  0  0  0
 40 58  1  0  0  0
 41108  1  0  0  0
 41109  1  0  0  0
 41110  1  0  0  0
 41 48  1  0  0  0
 42 43  1  0  0  0
 42 66  1  0  0  0
 42111  1  0  0  0
 42112  1  0  0  0
 43 44  1  0  0  0
 44113  1  0  0  0
 45 46  2  0  0  0
 45114  1  0  0  0
 46115  1  0  0  0
 47116  1  0  0  0
 47117  1  0  0  0
 48 56  1  0  0  0
 48 65  1  0  0  0
 48118  1  0  0  0
 49 50  1  0  0  0
 49 53  1  0  0  0
 49 64  1  0  0  0
 49119  1  0  0  0
 50 51  1  0  0  0
 50120  1  0  0  0
 50121  1  0  0  0
 51 52  1  0  0  0
 51122  1  0  0  0
 51123  1  0  0  0
 52124  1  0  0  0
 52125  1  0  0  0
 53 54  1  0  0  0
 54 55  2  0  0  0
 54126  1  0  0  0
 55 57  1  0  0  0
 55127  1  0  0  0
 56 69  2  0  0  0
 57 58  2  0  0  0
 57128  1  0  0  0
 58129  1  0  0  0
 59 60  1  0  0  0
 59 61  1  0  0  0
 59 62  1  0  0  0
 60130  1  0  0  0
 60131  1  0  0  0
 60132  1  0  0  0
 61133  1  0  0  0
 61134  1  0  0  0
 61135  1  0  0  0
 62136  1  0  0  0
 62137  1  0  0  0
 62138  1  0  0  0
 63 65  1  0  0  0
 63139  1  0  0  0
 63140  1  0  0  0
 63141  1  0  0  0
 64142  1  0  0  0
 65143  1  0  0  0
 68 79  1  0  0  0
 71 72  2  0  0  0
 71 74  1  0  0  0
 71144  1  0  0  0
 72 75  1  0  0  0
 72145  1  0  0  0
 73 74  2  0  0  0
 73 76  1  0  0  0
 73146  1  0  0  0
 74 82  1  0  0  0
 75 76  2  0  0  0
 75 84  1  0  0  0
 76 83  1  0  0  0
 77147  1  0  0  0
 77148  1  0  0  0
 77149  1  0  0  0
 77 81  1  0  0  0
 78 83  1  0  0  0
 78150  1  0  0  0
 78151  1  0  0  0
 78152  1  0  0  0
 79 81  1  0  0  0
 79153  1  0  0  0
 79154  1  0  0  0
 80 81  1  0  0  0
 80 84  1  0  0  0
 80155  1  0  0  0
 80156  1  0  0  0
 81157  1  0  0  0
 82158  1  0  0  0
M  ISO  4   1 100  68 101  79 101  82 100
M  END
> <chiral flag>
0

> <version>
0

> <s_m_source_file>
/data/baiqing/PycharmProjects/Reinvent-master-3.2/result/LINK_invent/BTK/process_docking_weight1_custom_product_contain_oxygen_bond_distance_aromatic_linkinvent_7_9_3/rearranged_h_0135.sdf

> <i_m_source_file_index>
85

> <r_mmod_Potential_Energy-OPLS-2005>
148.58332824707

> <r_mmod_Stretch_Energy-OPLS-2005>
82.5339889526367

> <r_mmod_Bend_Energy-OPLS-2005>
157.173202514648

> <r_mmod_Torsional_Energy-OPLS-2005>
300.915313720703

> <r_mmod_Improper_Torsional_Energy-OPLS-2005>
6.50853967666626

> <r_mmod_Van_der_Waal_Energy-OPLS-2005>
131.491317749023

> <r_mmod_Electrostatic_Energy-OPLS-2005>
-369.690948486328

> <r_mmod_Solvation_Energy-OPLS-2005>
-210.78759765625

> <b_mmod_Minimization_Converged-OPLS-2005>
0

> <r_mmod_RMS_Derivative-OPLS-2005>
2.47871828079224

$$$$
85
                    3D
 Structure written by MMmdl.
169177  0  0  1  0            999 V2000
  -30.6946  -14.4851   20.4745 C   0  0  0  0  0  0
  -30.4153  -12.2450   19.4768 C   0  0  0  0  0  0
  -29.5019  -12.3805   18.2394 C   0  0  0  0  0  0
  -28.0095  -12.3703   18.6240 C   0  0  0  0  0  0
  -27.6643  -13.2103   19.8859 C   0  0  2  0  0  0
  -28.7092  -13.0204   21.0111 C   0  0  0  0  0  0
  -25.2628  -13.8217   20.5789 C   0  0  0  0  0  0
  -24.1843  -13.0528   20.9175 C   0  0  0  0  0  0
  -24.6384  -11.6975   20.8764 C   0  0  0  0  0  0
  -23.9076  -10.4348   21.0405 C   0  0  0  0  0  0
  -24.3649   -9.4256   21.9177 C   0  0  0  0  0  0
  -23.6345   -8.2290   22.0747 C   0  0  0  0  0  0
  -22.4319   -8.0328   21.3554 C   0  0  0  0  0  0
  -21.9960   -9.0281   20.4649 C   0  0  0  0  0  0
  -22.7251  -10.2171   20.3054 C   0  0  0  0  0  0
  -21.6858   -6.0798   22.5272 C   0  0  0  0  0  0
  -21.4019   -6.5685   23.8211 C   0  0  0  0  0  0
  -21.3669   -5.6821   24.9157 C   0  0  0  0  0  0
  -21.6021   -4.3082   24.7189 C   0  0  0  0  0  0
  -21.8827   -3.8202   23.4306 C   0  0  0  0  0  0
  -21.9206   -4.7036   22.3374 C   0  0  0  0  0  0
  -22.7865  -13.5331   21.1772 C   0  0  0  0  0  0
  -22.1676   -4.2243   21.0954 F   0  0  0  0  0  0
  -21.5623   -3.4549   25.7693 F   0  0  0  0  0  0
  -30.0393  -13.2918   20.4395 N   0  0  0  0  0  0
  -26.3065  -12.9395   20.3471 N   0  0  0  0  0  0
  -25.9320  -11.6573   20.5905 N   0  0  0  0  0  0
  -22.0460  -12.8307   22.0278 N   0  0  0  0  0  0
  -25.4475  -15.1962   20.4300 N   0  0  0  0  0  0
  -31.8597  -14.6251   20.0947 O   0  0  0  0  0  0
  -21.6679   -6.8929   21.4236 O   0  0  0  0  0  0
  -22.3581  -14.5662   20.6623 O   0  0  0  0  0  0
  -24.6049  -31.8690   23.2118 C   0  0  0  0  0  0
  -25.8957  -32.4831   23.8396 C   0  0  1  0  0  0
  -27.2516  -27.4749   20.1123 C   0  0  0  0  0  0
  -25.5835  -33.8627   24.2337 N   0  0  0  0  0  0
  -23.3939  -30.4887   21.5490 C   0  0  2  0  0  0
  -24.8485  -28.9600   20.1134 C   0  0  0  0  0  0
  -22.7345  -29.4661   22.5002 C   0  0  0  0  0  0
  -18.0249  -28.1364   22.8483 C   0  0  0  0  0  0
  -24.1498  -36.7335   23.2637 C   0  0  0  0  0  0
  -25.9159  -30.8488   21.3621 C   0  0  0  0  0  0
  -25.9958  -29.4863   20.7121 C   0  0  0  0  0  0
  -27.1971  -28.7520   20.7129 C   0  0  0  0  0  0
  -26.0947  -26.9599   19.4952 C   0  0  0  0  0  0
  -24.8886  -27.6931   19.5017 C   0  0  0  0  0  0
  -23.6003  -29.8108   20.1672 C   0  0  0  0  0  0
  -25.4114  -36.3137   24.0356 C   0  0  1  0  0  0
  -20.5820  -28.3633   23.1342 C   0  0  2  0  0  0
  -20.6741  -26.9371   22.5441 C   0  0  0  0  0  0
  -19.5753  -26.6375   21.5208 C   0  0  0  0  0  0
  -18.1909  -26.7925   22.1583 C   0  0  0  0  0  0
  -19.1493  -28.8818   23.2909 C   0  0  0  0  0  0
  -18.9425  -30.1420   23.8918 C   0  0  0  0  0  0
  -17.6432  -30.6579   24.0545 C   0  0  0  0  0  0
  -25.9036  -34.9483   23.5161 C   0  0  0  0  0  0
  -16.5319  -29.9078   23.6299 C   0  0  0  0  0  0
  -16.7243  -28.6487   23.0338 C   0  0  0  0  0  0
  -26.4431  -31.6574   25.0692 C   0  0  0  0  0  0
  -25.3737  -31.3624   26.1472 C   0  0  0  0  0  0
  -27.0260  -30.3016   24.6042 C   0  0  0  0  0  0
  -27.6041  -32.4269   25.7418 C   0  0  0  0  0  0
  -27.5611  -37.1812   24.8453 C   0  0  0  0  0  0
  -21.4085  -29.3021   22.3753 N   0  0  0  0  0  0
  -26.4304  -37.3816   23.9417 N   0  0  0  0  0  0
  -24.6553  -31.0822   22.0990 N   0  0  0  0  0  0
  -23.4121  -28.8211   23.3058 O   0  0  0  0  0  0
  -28.3898  -26.7039   20.1167 O   0  0  0  0  0  0
  -26.5622  -34.8917   22.4747 O   0  0  0  0  0  0
  -23.5260  -32.1460   23.7540 O   0  0  0  0  0  0
  -29.7406  -18.3208   18.1796 C   0  0  0  0  0  0
  -29.8732  -19.4529   18.9907 C   0  0  0  0  0  0
  -30.1199  -18.0143   20.9360 C   0  0  0  0  0  0
  -29.8106  -17.0264   18.7195 C   0  0  0  0  0  0
  -29.9896  -16.8517   20.1239 C   0  0  0  0  0  0
  -30.0729  -19.3273   20.3874 C   0  0  0  0  0  0
  -29.7037  -15.8795   17.7370 C   0  0  0  0  0  0
  -31.8629  -22.8578   20.7085 C   0  0  0  0  0  0
  -30.7620  -25.5858   22.8389 C   0  0  0  0  0  0
  -31.2679  -26.1952   20.4003 C   0  0  0  0  0  0
  -29.6818  -24.2243   20.9839 C   0  0  0  0  0  0
  -29.6414  -21.6843   20.8767 C   0  0  0  0  0  0
  -29.0706  -26.6704   21.3746 C   0  0  0  0  0  0
  -30.4649  -22.9150   21.3389 C   0  0  1  0  0  0
  -30.2215  -25.6366   21.3929 C   0  0  0  0  0  0
  -29.9202  -15.5562   20.7465 N   0  0  0  0  0  0
  -30.2474  -20.4223   21.2255 O   0  0  0  0  0  0
  -31.4656  -12.2902   19.1874 H   0  0  0  0  0  0
  -30.2778  -11.2592   19.9263 H   0  0  0  0  0  0
  -29.7061  -11.5690   17.5389 H   0  0  0  0  0  0
  -29.7413  -13.2792   17.6889 H   0  0  0  0  0  0
  -27.7202  -11.3317   18.7754 H   0  0  0  0  0  0
  -27.4194  -12.7280   17.7795 H   0  0  0  0  0  0
  -27.7030  -14.2541   19.5830 H   0  0  0  0  0  0
  -28.6668  -12.0016   21.4012 H   0  0  0  0  0  0
  -28.5042  -13.6700   21.8649 H   0  0  0  0  0  0
  -25.2763   -9.5798   22.4781 H   0  0  0  0  0  0
  -24.0071   -7.4690   22.7453 H   0  0  0  0  0  0
  -21.0903   -8.8783   19.8954 H   0  0  0  0  0  0
  -22.3659  -10.9735   19.6219 H   0  0  0  0  0  0
  -21.2012   -7.6197   23.9749 H   0  0  0  0  0  0
  -21.1474   -6.0532   25.9065 H   0  0  0  0  0  0
  -22.0599   -2.7694   23.2737 H   0  0  0  0  0  0
  -22.4045  -11.9880   22.4529 H   0  0  0  0  0  0
  -21.1088  -13.1367   22.2514 H   0  0  0  0  0  0
  -24.7101  -15.8713   20.5914 H   0  0  0  0  0  0
  -26.3245  -15.6246   20.1737 H   0  0  0  0  0  0
  -26.7004  -32.5589   23.1155 H   0  0  0  0  0  0
  -24.9904  -33.9789   25.0425 H   0  0  0  0  0  0
  -22.6803  -31.3038   21.4066 H   0  0  0  0  0  0
  -23.3776  -35.9648   23.3273 H   0  0  0  0  0  0
  -24.3597  -36.8980   22.2055 H   0  0  0  0  0  0
  -23.7220  -37.6520   23.6665 H   0  0  0  0  0  0
  -26.0284  -31.6171   20.5966 H   0  0  0  0  0  0
  -26.8031  -30.9002   21.9809 H   0  0  0  0  0  0
  -28.0715  -29.1868   21.1738 H   0  0  0  0  0  0
  -26.1235  -25.9847   19.0304 H   0  0  0  0  0  0
  -24.0052  -27.2803   19.0357 H   0  0  0  0  0  0
  -23.6839  -30.5813   19.4008 H   0  0  0  0  0  0
  -22.7336  -29.2092   19.8884 H   0  0  0  0  0  0
  -25.1284  -36.2020   25.0850 H   0  0  0  0  0  0
  -20.9875  -28.3215   24.1477 H   0  0  0  0  0  0
  -20.5624  -26.2225   23.3604 H   0  0  0  0  0  0
  -21.6613  -26.7449   22.1235 H   0  0  0  0  0  0
  -19.6890  -25.6289   21.1227 H   0  0  0  0  0  0
  -19.6730  -27.3187   20.6734 H   0  0  0  0  0  0
  -17.4189  -26.6696   21.3968 H   0  0  0  0  0  0
  -18.0292  -26.0051   22.8954 H   0  0  0  0  0  0
  -19.7921  -30.7215   24.2287 H   0  0  0  0  0  0
  -17.5009  -31.6271   24.5136 H   0  0  0  0  0  0
  -15.5326  -30.2986   23.7635 H   0  0  0  0  0  0
  -15.8634  -28.0816   22.7041 H   0  0  0  0  0  0
  -24.5895  -30.6993   25.7800 H   0  0  0  0  0  0
  -24.8946  -32.2743   26.5032 H   0  0  0  0  0  0
  -25.8132  -30.8701   27.0160 H   0  0  0  0  0  0
  -26.2785  -29.6757   24.1145 H   0  0  0  0  0  0
  -27.4075  -29.7261   25.4487 H   0  0  0  0  0  0
  -27.8605  -30.4336   23.9156 H   0  0  0  0  0  0
  -27.2687  -33.3528   26.2103 H   0  0  0  0  0  0
  -28.3774  -32.6884   25.0184 H   0  0  0  0  0  0
  -28.0802  -31.8323   26.5235 H   0  0  0  0  0  0
  -28.2601  -38.0137   24.7533 H   0  0  0  0  0  0
  -28.1138  -36.2667   24.6236 H   0  0  0  0  0  0
  -27.2329  -37.1407   25.8851 H   0  0  0  0  0  0
  -20.9182  -29.8691   21.6966 H   0  0  0  0  0  0
  -26.0221  -38.2899   24.1423 H   0  0  0  0  0  0
  -29.5941  -18.4611   17.1180 H   0  0  0  0  0  0
  -29.8429  -20.4006   18.4797 H   0  0  0  0  0  0
  -30.2600  -17.9014   22.0040 H   0  0  0  0  0  0
  -30.5476  -15.2068   17.8723 H   0  0  0  0  0  0
  -29.7681  -16.2224   16.7041 H   0  0  0  0  0  0
  -28.7624  -15.3434   17.8532 H   0  0  0  0  0  0
  -32.4818  -23.6927   21.0217 H   0  0  0  0  0  0
  -31.8150  -22.8668   19.6204 H   0  0  0  0  0  0
  -32.3809  -21.9479   21.0129 H   0  0  0  0  0  0
  -31.5924  -24.8875   22.9477 H   0  0  0  0  0  0
  -29.9781  -25.2498   23.5199 H   0  0  0  0  0  0
  -31.1036  -26.5581   23.1973 H   0  0  0  0  0  0
  -32.2588  -25.7713   20.5274 H   0  0  0  0  0  0
  -31.3876  -27.2758   20.5094 H   0  0  0  0  0  0
  -30.9537  -26.0434   19.3667 H   0  0  0  0  0  0
  -28.7047  -24.1215   21.4576 H   0  0  0  0  0  0
  -29.4747  -24.2301   19.9123 H   0  0  0  0  0  0
  -29.4367  -21.8189   19.8188 H   0  0  0  0  0  0
  -28.6615  -21.7070   21.3544 H   0  0  0  0  0  0
  -29.4874  -27.6555   21.5977 H   0  0  0  0  0  0
  -28.3613  -26.4467   22.1725 H   0  0  0  0  0  0
  -30.5825  -22.8469   22.4234 H   0  0  0  0  0  0
  -29.0370  -15.3290   21.1727 H   0  0  0  0  0  0
  1 25  1  0  0  0
  1 30  2  0  0  0
  1 86  1  0  0  0
  2  3  1  0  0  0
  2 25  1  0  0  0
  2 88  1  0  0  0
  2 89  1  0  0  0
  3  4  1  0  0  0
  3 90  1  0  0  0
  3 91  1  0  0  0
  4  5  1  0  0  0
  4 92  1  0  0  0
  4 93  1  0  0  0
  5  6  1  0  0  0
  5 26  1  0  0  0
  5 94  1  0  0  0
  6 25  1  0  0  0
  6 95  1  0  0  0
  6 96  1  0  0  0
  7  8  2  0  0  0
  7 26  1  0  0  0
  7 29  1  0  0  0
  8  9  1  0  0  0
  8 22  1  0  0  0
  9 10  1  0  0  0
  9 27  2  0  0  0
 10 11  2  0  0  0
 10 15  1  0  0  0
 11 12  1  0  0  0
 11 97  1  0  0  0
 12 13  2  0  0  0
 12 98  1  0  0  0
 13 14  1  0  0  0
 13 31  1  0  0  0
 14 15  2  0  0  0
 14 99  1  0  0  0
 15100  1  0  0  0
 16 17  2  0  0  0
 16 21  1  0  0  0
 16 31  1  0  0  0
 17 18  1  0  0  0
 17101  1  0  0  0
 18 19  2  0  0  0
 18102  1  0  0  0
 19 20  1  0  0  0
 19 24  1  0  0  0
 20 21  2  0  0  0
 20103  1  0  0  0
 21 23  1  0  0  0
 22 28  1  0  0  0
 22 32  2  0  0  0
 26 27  1  0  0  0
 28104  1  0  0  0
 28105  1  0  0  0
 29106  1  0  0  0
 29107  1  0  0  0
 33 34  1  0  0  0
 33 66  1  0  0  0
 33 70  2  0  0  0
 34 36  1  0  0  0
 34 59  1  0  0  0
 34108  1  0  0  0
 35 44  2  0  0  0
 35 45  1  0  0  0
 35 68  1  0  0  0
 36 56  1  0  0  0
 36109  1  0  0  0
 37 39  1  0  0  0
 37 47  1  0  0  0
 37 66  1  0  0  0
 37110  1  0  0  0
 38 43  2  0  0  0
 38 46  1  0  0  0
 38 47  1  0  0  0
 39 64  1  0  0  0
 39 67  2  0  0  0
 40 52  1  0  0  0
 40 53  2  0  0  0
 40 58  1  0  0  0
 41111  1  0  0  0
 41112  1  0  0  0
 41113  1  0  0  0
 41 48  1  0  0  0
 42 43  1  0  0  0
 42 66  1  0  0  0
 42114  1  0  0  0
 42115  1  0  0  0
 43 44  1  0  0  0
 44116  1  0  0  0
 45 46  2  0  0  0
 45117  1  0  0  0
 46118  1  0  0  0
 47119  1  0  0  0
 47120  1  0  0  0
 48 56  1  0  0  0
 48 65  1  0  0  0
 48121  1  0  0  0
 49 50  1  0  0  0
 49 53  1  0  0  0
 49 64  1  0  0  0
 49122  1  0  0  0
 50 51  1  0  0  0
 50123  1  0  0  0
 50124  1  0  0  0
 51 52  1  0  0  0
 51125  1  0  0  0
 51126  1  0  0  0
 52127  1  0  0  0
 52128  1  0  0  0
 53 54  1  0  0  0
 54 55  2  0  0  0
 54129  1  0  0  0
 55 57  1  0  0  0
 55130  1  0  0  0
 56 69  2  0  0  0
 57 58  2  0  0  0
 57131  1  0  0  0
 58132  1  0  0  0
 59 60  1  0  0  0
 59 61  1  0  0  0
 59 62  1  0  0  0
 60133  1  0  0  0
 60134  1  0  0  0
 60135  1  0  0  0
 61136  1  0  0  0
 61137  1  0  0  0
 61138  1  0  0  0
 62139  1  0  0  0
 62140  1  0  0  0
 62141  1  0  0  0
 63 65  1  0  0  0
 63142  1  0  0  0
 63143  1  0  0  0
 63144  1  0  0  0
 64145  1  0  0  0
 65146  1  0  0  0
 68 83  1  0  0  0
 71 72  2  0  0  0
 71 74  1  0  0  0
 71147  1  0  0  0
 72 76  1  0  0  0
 72148  1  0  0  0
 73 75  1  0  0  0
 73 76  2  0  0  0
 73149  1  0  0  0
 74 75  2  0  0  0
 74 77  1  0  0  0
 75 86  1  0  0  0
 76 87  1  0  0  0
 77150  1  0  0  0
 77151  1  0  0  0
 77152  1  0  0  0
 78153  1  0  0  0
 78154  1  0  0  0
 78155  1  0  0  0
 78 84  1  0  0  0
 79156  1  0  0  0
 79157  1  0  0  0
 79158  1  0  0  0
 79 85  1  0  0  0
 80 85  1  0  0  0
 80159  1  0  0  0
 80160  1  0  0  0
 80161  1  0  0  0
 81 84  1  0  0  0
 81 85  1  0  0  0
 81162  1  0  0  0
 81163  1  0  0  0
 82 84  1  0  0  0
 82 87  1  0  0  0
 82164  1  0  0  0
 82165  1  0  0  0
 83 85  1  0  0  0
 83166  1  0  0  0
 83167  1  0  0  0
 84168  1  0  0  0
 86169  1  0  0  0
M  ISO  4   1 100  68 101  83 101  86 100
M  END
> <chiral flag>
0

> <version>
0

> <s_m_source_file>
/data/baiqing/PycharmProjects/Reinvent-master-3.2/result/LINK_invent/BTK/process_docking_weight1_custom_product_contain_oxygen_bond_distance_aromatic_linkinvent_7_9_3/rearranged_h_0135.sdf

> <i_m_source_file_index>
86

> <r_mmod_Potential_Energy-OPLS-2005>
54.2883110046387

> <r_mmod_Stretch_Energy-OPLS-2005>
43.689136505127

> <r_mmod_Bend_Energy-OPLS-2005>
123.150665283203

> <r_mmod_Torsional_Energy-OPLS-2005>
282.727783203125

> <r_mmod_Improper_Torsional_Energy-OPLS-2005>
6.29100131988525

> <r_mmod_Van_der_Waal_Energy-OPLS-2005>
166.732849121094

> <r_mmod_Electrostatic_Energy-OPLS-2005>
-384.950012207031

> <r_mmod_Solvation_Energy-OPLS-2005>
-201.18830871582

> <b_mmod_Minimization_Converged-OPLS-2005>
0

> <r_mmod_RMS_Derivative-OPLS-2005>
6.19294404983521

$$$$
86
                    3D
 Structure written by MMmdl.
168176  0  0  1  0            999 V2000
  -30.6129  -14.5786   20.5675 C   0  0  0  0  0  0
  -30.4366  -12.3739   19.4219 C   0  0  0  0  0  0
  -29.5052  -12.5360   18.2015 C   0  0  0  0  0  0
  -28.0259  -12.3822   18.6112 C   0  0  0  0  0  0
  -27.6607  -13.2120   19.8719 C   0  0  2  0  0  0
  -28.6999  -12.9795   20.9870 C   0  0  0  0  0  0
  -25.2596  -13.8194   20.5557 C   0  0  0  0  0  0
  -24.1848  -13.0475   20.9178 C   0  0  0  0  0  0
  -24.6380  -11.6949   20.8767 C   0  0  0  0  0  0
  -23.9037  -10.4336   21.0433 C   0  0  0  0  0  0
  -24.3603   -9.4248   21.9191 C   0  0  0  0  0  0
  -23.6300   -8.2271   22.0745 C   0  0  0  0  0  0
  -22.4280   -8.0320   21.3556 C   0  0  0  0  0  0
  -21.9914   -9.0273   20.4649 C   0  0  0  0  0  0
  -22.7224  -10.2155   20.3069 C   0  0  0  0  0  0
  -21.6857   -6.0745   22.5266 C   0  0  0  0  0  0
  -21.4005   -6.5639   23.8202 C   0  0  0  0  0  0
  -21.3650   -5.6776   24.9161 C   0  0  0  0  0  0
  -21.6063   -4.3044   24.7219 C   0  0  0  0  0  0
  -21.8824   -3.8153   23.4334 C   0  0  0  0  0  0
  -21.9190   -4.6973   22.3388 C   0  0  0  0  0  0
  -22.7890  -13.5302   21.1836 C   0  0  0  0  0  0
  -22.1666   -4.2161   21.0985 F   0  0  0  0  0  0
  -21.5636   -3.4518   25.7723 F   0  0  0  0  0  0
  -30.0133  -13.3540   20.4414 N   0  0  0  0  0  0
  -26.3022  -12.9335   20.3303 N   0  0  0  0  0  0
  -25.9315  -11.6496   20.5760 N   0  0  0  0  0  0
  -22.0444  -12.8319   22.0389 N   0  0  0  0  0  0
  -25.4378  -15.1858   20.3771 N   0  0  0  0  0  0
  -31.7382  -14.7651   20.0843 O   0  0  0  0  0  0
  -21.6675   -6.8890   21.4242 O   0  0  0  0  0  0
  -22.3598  -14.5590   20.6650 O   0  0  0  0  0  0
  -24.6180  -31.8622   23.2125 C   0  0  0  0  0  0
  -25.9039  -32.4808   23.8446 C   0  0  1  0  0  0
  -27.2244  -27.4095   20.0943 C   0  0  0  0  0  0
  -25.5856  -33.8606   24.2361 N   0  0  0  0  0  0
  -23.4099  -30.4887   21.5493 C   0  0  2  0  0  0
  -24.8575  -28.9611   20.1063 C   0  0  0  0  0  0
  -22.7451  -29.4606   22.4957 C   0  0  0  0  0  0
  -18.0264  -28.1368   22.8486 C   0  0  0  0  0  0
  -24.1457  -36.7342   23.2648 C   0  0  0  0  0  0
  -25.9424  -30.8242   21.3704 C   0  0  0  0  0  0
  -26.0206  -29.4595   20.7102 C   0  0  0  0  0  0
  -27.2139  -28.6918   20.6989 C   0  0  0  0  0  0
  -26.0538  -26.9465   19.4618 C   0  0  0  0  0  0
  -24.8711  -27.7060   19.4728 C   0  0  0  0  0  0
  -23.6225  -29.8310   20.1590 C   0  0  0  0  0  0
  -25.4070  -36.3117   24.0348 C   0  0  1  0  0  0
  -20.5862  -28.3667   23.1305 C   0  0  2  0  0  0
  -20.6728  -26.9381   22.5434 C   0  0  0  0  0  0
  -19.5710  -26.6358   21.5216 C   0  0  0  0  0  0
  -18.1882  -26.7910   22.1615 C   0  0  0  0  0  0
  -19.1510  -28.8826   23.2903 C   0  0  0  0  0  0
  -18.9431  -30.1430   23.8934 C   0  0  0  0  0  0
  -17.6430  -30.6577   24.0544 C   0  0  0  0  0  0
  -25.8999  -34.9469   23.5164 C   0  0  0  0  0  0
  -16.5321  -29.9081   23.6309 C   0  0  0  0  0  0
  -16.7254  -28.6486   23.0351 C   0  0  0  0  0  0
  -26.4452  -31.6600   25.0795 C   0  0  0  0  0  0
  -25.3738  -31.3721   26.1570 C   0  0  0  0  0  0
  -27.0283  -30.3031   24.6198 C   0  0  0  0  0  0
  -27.6026  -32.4339   25.7543 C   0  0  0  0  0  0
  -27.5574  -37.1806   24.8443 C   0  0  0  0  0  0
  -21.4162  -29.3064   22.3768 N   0  0  0  0  0  0
  -26.4268  -37.3795   23.9423 N   0  0  0  0  0  0
  -24.6744  -31.0718   22.1029 N   0  0  0  0  0  0
  -23.4228  -28.8108   23.2960 O   0  0  0  0  0  0
  -28.3258  -26.5742   20.1410 O   0  0  0  0  0  0
  -26.5568  -34.8909   22.4747 O   0  0  0  0  0  0
  -23.5347  -32.1392   23.7478 O   0  0  0  0  0  0
  -27.6243  -19.1960   19.1661 C   0  0  0  0  0  0
  -28.5463  -20.5385   20.9531 C   0  0  0  0  0  0
  -27.0372  -20.3461   18.5958 C   0  0  0  0  0  0
  -27.1783  -21.6210   19.2191 C   0  0  0  0  0  0
  -28.4049  -19.2604   20.3395 C   0  0  0  0  0  0
  -27.9808  -21.7263   20.3943 C   0  0  0  0  0  0
  -29.3612  -16.8919   20.3440 C   0  0  0  0  0  0
  -26.2933  -20.1553   17.2834 C   0  0  0  0  0  0
  -25.7332  -24.1601   16.6016 C   0  0  0  0  0  0
  -28.5378  -25.7271   22.3784 C   0  0  0  0  0  0
  -26.3558  -22.8128   18.6992 C   0  0  0  0  0  0
  -29.8971  -15.7764   21.3039 C   0  0  0  0  0  0
  -26.8556  -23.4688   17.3923 C   0  0  0  0  0  0
  -28.7663  -24.0583   20.4412 C   0  0  0  0  0  0
  -28.1065  -25.3820   20.9479 C   0  0  2  0  0  0
  -28.9946  -18.0743   20.9243 N   0  0  0  0  0  0
  -29.2890  -16.6870   19.1224 O   0  0  0  0  0  0
  -28.1518  -22.9168   21.0914 O   0  0  0  0  0  0
  -31.4755  -12.5212   19.1209 H   0  0  0  0  0  0
  -30.3887  -11.3615   19.8216 H   0  0  0  0  0  0
  -29.7618  -11.8099   17.4312 H   0  0  0  0  0  0
  -29.6639  -13.5203   17.7576 H   0  0  0  0  0  0
  -27.8359  -11.3266   18.7953 H   0  0  0  0  0  0
  -27.3810  -12.6685   17.7789 H   0  0  0  0  0  0
  -27.7023  -14.2627   19.5907 H   0  0  0  0  0  0
  -28.7160  -11.9307   21.2767 H   0  0  0  0  0  0
  -28.4428  -13.5121   21.9004 H   0  0  0  0  0  0
  -25.2703   -9.5718   22.4805 H   0  0  0  0  0  0
  -23.9996   -7.4653   22.7442 H   0  0  0  0  0  0
  -21.0851   -8.8797   19.8938 H   0  0  0  0  0  0
  -22.3673  -10.9720   19.6219 H   0  0  0  0  0  0
  -21.1978   -7.6126   23.9707 H   0  0  0  0  0  0
  -21.1476   -6.0504   25.9059 H   0  0  0  0  0  0
  -22.0609   -2.7626   23.2833 H   0  0  0  0  0  0
  -22.3977  -11.9988   22.4841 H   0  0  0  0  0  0
  -21.1072  -13.1434   22.2488 H   0  0  0  0  0  0
  -24.6542  -15.8315   20.3768 H   0  0  0  0  0  0
  -26.2665  -15.5790   19.9420 H   0  0  0  0  0  0
  -26.7133  -32.5511   23.1238 H   0  0  0  0  0  0
  -24.9986  -33.9767   25.0484 H   0  0  0  0  0  0
  -22.7005  -31.3074   21.4121 H   0  0  0  0  0  0
  -23.3712  -35.9674   23.3251 H   0  0  0  0  0  0
  -24.3590  -36.9029   22.2084 H   0  0  0  0  0  0
  -23.7185  -37.6517   23.6711 H   0  0  0  0  0  0
  -26.0608  -31.5957   20.6061 H   0  0  0  0  0  0
  -26.8268  -30.8732   21.9959 H   0  0  0  0  0  0
  -28.1081  -29.0604   21.1805 H   0  0  0  0  0  0
  -26.0558  -25.9815   18.9790 H   0  0  0  0  0  0
  -23.9855  -27.3210   18.9896 H   0  0  0  0  0  0
  -23.7387  -30.6133   19.4064 H   0  0  0  0  0  0
  -22.7453  -29.2576   19.8550 H   0  0  0  0  0  0
  -25.1239  -36.2002   25.0834 H   0  0  0  0  0  0
  -20.9923  -28.3186   24.1431 H   0  0  0  0  0  0
  -20.5533  -26.2271   23.3632 H   0  0  0  0  0  0
  -21.6598  -26.7345   22.1264 H   0  0  0  0  0  0
  -19.6833  -25.6260   21.1257 H   0  0  0  0  0  0
  -19.6645  -27.3153   20.6729 H   0  0  0  0  0  0
  -17.4147  -26.6697   21.4007 H   0  0  0  0  0  0
  -18.0241  -26.0048   22.8998 H   0  0  0  0  0  0
  -19.7910  -30.7236   24.2310 H   0  0  0  0  0  0
  -17.4984  -31.6256   24.5156 H   0  0  0  0  0  0
  -15.5319  -30.2994   23.7609 H   0  0  0  0  0  0
  -15.8647  -28.0819   22.7056 H   0  0  0  0  0  0
  -24.5840  -30.7133   25.7952 H   0  0  0  0  0  0
  -24.9003  -32.2871   26.5137 H   0  0  0  0  0  0
  -25.8090  -30.8816   27.0286 H   0  0  0  0  0  0
  -26.2834  -29.6810   24.1200 H   0  0  0  0  0  0
  -27.3976  -29.7269   25.4700 H   0  0  0  0  0  0
  -27.8721  -30.4371   23.9422 H   0  0  0  0  0  0
  -27.2614  -33.3588   26.2220 H   0  0  0  0  0  0
  -28.3758  -32.6982   25.0321 H   0  0  0  0  0  0
  -28.0777  -31.8414   26.5380 H   0  0  0  0  0  0
  -28.2544  -38.0147   24.7508 H   0  0  0  0  0  0
  -28.1096  -36.2664   24.6188 H   0  0  0  0  0  0
  -27.2322  -37.1384   25.8857 H   0  0  0  0  0  0
  -20.9288  -29.9015   21.7220 H   0  0  0  0  0  0
  -26.0150  -38.2872   24.1430 H   0  0  0  0  0  0
  -27.4297  -18.2452   18.6982 H   0  0  0  0  0  0
  -29.0983  -20.6257   21.8811 H   0  0  0  0  0  0
  -25.9599  -19.1238   17.1667 H   0  0  0  0  0  0
  -26.9699  -20.3726   16.4556 H   0  0  0  0  0  0
  -25.4152  -20.7909   17.1814 H   0  0  0  0  0  0
  -26.1445  -24.7438   15.7745 H   0  0  0  0  0  0
  -25.1592  -24.8439   17.2272 H   0  0  0  0  0  0
  -25.0376  -23.4334   16.1792 H   0  0  0  0  0  0
  -28.3106  -24.9085   23.0625 H   0  0  0  0  0  0
  -28.0129  -26.6101   22.7447 H   0  0  0  0  0  0
  -29.6074  -25.9287   22.4259 H   0  0  0  0  0  0
  -26.2589  -23.5673   19.4723 H   0  0  0  0  0  0
  -25.3353  -22.4695   18.5644 H   0  0  0  0  0  0
  -29.0684  -15.4709   21.9313 H   0  0  0  0  0  0
  -30.6265  -16.2249   21.9687 H   0  0  0  0  0  0
  -27.6210  -24.2138   17.5952 H   0  0  0  0  0  0
  -27.3283  -22.7330   16.7411 H   0  0  0  0  0  0
  -29.8304  -24.0524   20.6667 H   0  0  0  0  0  0
  -28.7107  -23.9777   19.3646 H   0  0  0  0  0  0
  -27.0405  -25.1639   20.9925 H   0  0  0  0  0  0
  -29.1682  -18.1250   21.9166 H   0  0  0  0  0  0
  1 25  1  0  0  0
  1 30  2  0  0  0
  1 82  1  0  0  0
  2  3  1  0  0  0
  2 25  1  0  0  0
  2 89  1  0  0  0
  2 90  1  0  0  0
  3  4  1  0  0  0
  3 91  1  0  0  0
  3 92  1  0  0  0
  4  5  1  0  0  0
  4 93  1  0  0  0
  4 94  1  0  0  0
  5  6  1  0  0  0
  5 26  1  0  0  0
  5 95  1  0  0  0
  6 25  1  0  0  0
  6 96  1  0  0  0
  6 97  1  0  0  0
  7  8  2  0  0  0
  7 26  1  0  0  0
  7 29  1  0  0  0
  8  9  1  0  0  0
  8 22  1  0  0  0
  9 10  1  0  0  0
  9 27  2  0  0  0
 10 11  2  0  0  0
 10 15  1  0  0  0
 11 12  1  0  0  0
 11 98  1  0  0  0
 12 13  2  0  0  0
 12 99  1  0  0  0
 13 14  1  0  0  0
 13 31  1  0  0  0
 14 15  2  0  0  0
 14100  1  0  0  0
 15101  1  0  0  0
 16 17  2  0  0  0
 16 21  1  0  0  0
 16 31  1  0  0  0
 17 18  1  0  0  0
 17102  1  0  0  0
 18 19  2  0  0  0
 18103  1  0  0  0
 19 20  1  0  0  0
 19 24  1  0  0  0
 20 21  2  0  0  0
 20104  1  0  0  0
 21 23  1  0  0  0
 22 28  1  0  0  0
 22 32  2  0  0  0
 26 27  1  0  0  0
 28105  1  0  0  0
 28106  1  0  0  0
 29107  1  0  0  0
 29108  1  0  0  0
 33 34  1  0  0  0
 33 66  1  0  0  0
 33 70  2  0  0  0
 34 36  1  0  0  0
 34 59  1  0  0  0
 34109  1  0  0  0
 35 44  2  0  0  0
 35 45  1  0  0  0
 35 68  1  0  0  0
 36 56  1  0  0  0
 36110  1  0  0  0
 37 39  1  0  0  0
 37 47  1  0  0  0
 37 66  1  0  0  0
 37111  1  0  0  0
 38 43  2  0  0  0
 38 46  1  0  0  0
 38 47  1  0  0  0
 39 64  1  0  0  0
 39 67  2  0  0  0
 40 52  1  0  0  0
 40 53  2  0  0  0
 40 58  1  0  0  0
 41112  1  0  0  0
 41113  1  0  0  0
 41114  1  0  0  0
 41 48  1  0  0  0
 42 43  1  0  0  0
 42 66  1  0  0  0
 42115  1  0  0  0
 42116  1  0  0  0
 43 44  1  0  0  0
 44117  1  0  0  0
 45 46  2  0  0  0
 45118  1  0  0  0
 46119  1  0  0  0
 47120  1  0  0  0
 47121  1  0  0  0
 48 56  1  0  0  0
 48 65  1  0  0  0
 48122  1  0  0  0
 49 50  1  0  0  0
 49 53  1  0  0  0
 49 64  1  0  0  0
 49123  1  0  0  0
 50 51  1  0  0  0
 50124  1  0  0  0
 50125  1  0  0  0
 51 52  1  0  0  0
 51126  1  0  0  0
 51127  1  0  0  0
 52128  1  0  0  0
 52129  1  0  0  0
 53 54  1  0  0  0
 54 55  2  0  0  0
 54130  1  0  0  0
 55 57  1  0  0  0
 55131  1  0  0  0
 56 69  2  0  0  0
 57 58  2  0  0  0
 57132  1  0  0  0
 58133  1  0  0  0
 59 60  1  0  0  0
 59 61  1  0  0  0
 59 62  1  0  0  0
 60134  1  0  0  0
 60135  1  0  0  0
 60136  1  0  0  0
 61137  1  0  0  0
 61138  1  0  0  0
 61139  1  0  0  0
 62140  1  0  0  0
 62141  1  0  0  0
 62142  1  0  0  0
 63 65  1  0  0  0
 63143  1  0  0  0
 63144  1  0  0  0
 63145  1  0  0  0
 64146  1  0  0  0
 65147  1  0  0  0
 68 85  1  0  0  0
 71 73  2  0  0  0
 71 75  1  0  0  0
 71148  1  0  0  0
 72 75  2  0  0  0
 72 76  1  0  0  0
 72149  1  0  0  0
 73 74  1  0  0  0
 73 78  1  0  0  0
 74 76  2  0  0  0
 74 81  1  0  0  0
 75 86  1  0  0  0
 76 88  1  0  0  0
 77 82  1  0  0  0
 77 86  1  0  0  0
 77 87  2  0  0  0
 78150  1  0  0  0
 78151  1  0  0  0
 78152  1  0  0  0
 79 83  1  0  0  0
 79153  1  0  0  0
 79154  1  0  0  0
 79155  1  0  0  0
 80156  1  0  0  0
 80157  1  0  0  0
 80158  1  0  0  0
 80 85  1  0  0  0
 81 83  1  0  0  0
 81159  1  0  0  0
 81160  1  0  0  0
 82161  1  0  0  0
 82162  1  0  0  0
 83163  1  0  0  0
 83164  1  0  0  0
 84 85  1  0  0  0
 84 88  1  0  0  0
 84165  1  0  0  0
 84166  1  0  0  0
 85167  1  0  0  0
 86168  1  0  0  0
M  ISO  4   1 100  68 101  82 100  85 101
M  END
> <chiral flag>
0

> <version>
0

> <s_m_source_file>
/data/baiqing/PycharmProjects/Reinvent-master-3.2/result/LINK_invent/BTK/process_docking_weight1_custom_product_contain_oxygen_bond_distance_aromatic_linkinvent_7_9_3/rearranged_h_0135.sdf

> <i_m_source_file_index>
87

> <r_mmod_Potential_Energy-OPLS-2005>
47.1543426513672

> <r_mmod_Stretch_Energy-OPLS-2005>
59.9294052124023

> <r_mmod_Bend_Energy-OPLS-2005>
126.150253295898

> <r_mmod_Torsional_Energy-OPLS-2005>
241.363098144531

> <r_mmod_Improper_Torsional_Energy-OPLS-2005>
3.86620759963989

> <r_mmod_Van_der_Waal_Energy-OPLS-2005>
145.527099609375

> <r_mmod_Electrostatic_Energy-OPLS-2005>
-343.294158935547

> <r_mmod_Solvation_Energy-OPLS-2005>
-213.695495605469

> <b_mmod_Minimization_Converged-OPLS-2005>
0

> <r_mmod_RMS_Derivative-OPLS-2005>
8.42082500457764

$$$$
87
                    3D
 Structure written by MMmdl.
165173  0  0  1  0            999 V2000
  -30.6198  -14.6710   20.4923 C   0  0  0  0  0  0
  -30.4401  -12.4091   19.4563 C   0  0  0  0  0  0
  -29.5201  -12.5018   18.2201 C   0  0  0  0  0  0
  -28.0428  -12.3244   18.6352 C   0  0  0  0  0  0
  -27.6480  -13.2153   19.8431 C   0  0  2  0  0  0
  -28.6891  -13.1180   20.9787 C   0  0  0  0  0  0
  -25.2583  -13.8158   20.5717 C   0  0  0  0  0  0
  -24.1838  -13.0444   20.9229 C   0  0  0  0  0  0
  -24.6394  -11.6908   20.8731 C   0  0  0  0  0  0
  -23.9063  -10.4299   21.0398 C   0  0  0  0  0  0
  -24.3611   -9.4213   21.9186 C   0  0  0  0  0  0
  -23.6285   -8.2255   22.0763 C   0  0  0  0  0  0
  -22.4262   -8.0302   21.3568 C   0  0  0  0  0  0
  -21.9896   -9.0265   20.4657 C   0  0  0  0  0  0
  -22.7230  -10.2139   20.3042 C   0  0  0  0  0  0
  -21.6848   -6.0754   22.5288 C   0  0  0  0  0  0
  -21.4013   -6.5634   23.8234 C   0  0  0  0  0  0
  -21.3651   -5.6773   24.9178 C   0  0  0  0  0  0
  -21.6027   -4.3039   24.7211 C   0  0  0  0  0  0
  -21.8814   -3.8157   23.4334 C   0  0  0  0  0  0
  -21.9208   -4.6991   22.3407 C   0  0  0  0  0  0
  -22.7866  -13.5279   21.1854 C   0  0  0  0  0  0
  -22.1674   -4.2186   21.0982 F   0  0  0  0  0  0
  -21.5632   -3.4509   25.7724 F   0  0  0  0  0  0
  -29.9961  -13.4558   20.3983 N   0  0  0  0  0  0
  -26.2964  -12.9333   20.3194 N   0  0  0  0  0  0
  -25.9299  -11.6487   20.5638 N   0  0  0  0  0  0
  -22.0443  -12.8289   22.0363 N   0  0  0  0  0  0
  -25.4320  -15.1879   20.4212 N   0  0  0  0  0  0
  -31.8146  -14.7974   20.2161 O   0  0  0  0  0  0
  -21.6623   -6.8899   21.4255 O   0  0  0  0  0  0
  -22.3601  -14.5617   20.6707 O   0  0  0  0  0  0
  -24.6302  -31.8584   23.2025 C   0  0  0  0  0  0
  -25.9136  -32.4793   23.8366 C   0  0  1  0  0  0
  -27.2177  -27.2814   20.1425 C   0  0  0  0  0  0
  -25.5940  -33.8578   24.2295 N   0  0  0  0  0  0
  -23.4254  -30.4825   21.5430 C   0  0  2  0  0  0
  -24.8744  -28.9333   20.1131 C   0  0  0  0  0  0
  -22.7487  -29.4613   22.4927 C   0  0  0  0  0  0
  -18.0283  -28.1429   22.8524 C   0  0  0  0  0  0
  -24.1441  -36.7219   23.2649 C   0  0  0  0  0  0
  -25.9702  -30.7823   21.3762 C   0  0  0  0  0  0
  -26.0435  -29.4041   20.7226 C   0  0  0  0  0  0
  -27.2206  -28.5915   20.7247 C   0  0  0  0  0  0
  -26.0284  -26.8791   19.4951 C   0  0  0  0  0  0
  -24.8700  -27.6775   19.4888 C   0  0  0  0  0  0
  -23.6463  -29.8195   20.1574 C   0  0  0  0  0  0
  -25.4079  -36.3089   24.0354 C   0  0  1  0  0  0
  -20.5884  -28.3725   23.1295 C   0  0  2  0  0  0
  -20.6751  -26.9437   22.5436 C   0  0  0  0  0  0
  -19.5719  -26.6435   21.5236 C   0  0  0  0  0  0
  -18.1905  -26.7986   22.1644 C   0  0  0  0  0  0
  -19.1543  -28.8888   23.2906 C   0  0  0  0  0  0
  -18.9474  -30.1489   23.8929 C   0  0  0  0  0  0
  -17.6484  -30.6637   24.0588 C   0  0  0  0  0  0
  -25.9039  -34.9465   23.5121 C   0  0  0  0  0  0
  -16.5372  -29.9150   23.6348 C   0  0  0  0  0  0
  -16.7268  -28.6548   23.0397 C   0  0  0  0  0  0
  -26.4508  -31.6618   25.0741 C   0  0  0  0  0  0
  -25.3742  -31.3766   26.1482 C   0  0  0  0  0  0
  -27.0337  -30.3049   24.6179 C   0  0  0  0  0  0
  -27.6048  -32.4375   25.7509 C   0  0  0  0  0  0
  -27.5552  -37.1750   24.8467 C   0  0  0  0  0  0
  -21.4194  -29.3069   22.3667 N   0  0  0  0  0  0
  -26.4237  -37.3813   23.9466 N   0  0  0  0  0  0
  -24.6941  -31.0585   22.0981 N   0  0  0  0  0  0
  -23.4191  -28.8161   23.3026 O   0  0  0  0  0  0
  -28.3191  -26.3992   20.1830 O   0  0  0  0  0  0
  -26.5607  -34.8924   22.4693 O   0  0  0  0  0  0
  -23.5457  -32.1418   23.7319 O   0  0  0  0  0  0
  -30.1209  -19.7283   22.3301 C   0  0  0  0  0  0
  -30.4100  -18.5684   23.0788 C   0  0  0  0  0  0
  -29.7151  -18.3256   20.3894 C   0  0  0  0  0  0
  -29.7783  -19.6575   20.9642 C   0  0  0  0  0  0
  -30.3705  -17.2765   22.5043 C   0  0  0  0  0  0
  -30.0142  -17.1172   21.1368 C   0  0  0  0  0  0
  -30.6737  -16.0822   23.4045 C   0  0  0  0  0  0
  -30.6022  -23.3465   17.9396 C   0  0  0  0  0  0
  -30.4862  -24.2875   20.8270 C   0  0  0  0  0  0
  -29.6510  -21.0122   20.1454 C   0  0  0  0  0  0
  -29.3094  -23.8772   18.5881 C   0  0  0  0  0  0
  -28.8495  -22.3161   20.6750 C   0  0  0  0  0  0
  -28.0754  -24.9480   20.4893 C   0  0  0  0  0  0
  -29.1853  -23.8262   20.1406 C   0  0  1  0  0  0
  -29.7924  -15.7673   20.6072 N   0  0  0  0  0  0
  -31.4887  -12.5213   19.1718 H   0  0  0  0  0  0
  -30.3563  -11.4249   19.9191 H   0  0  0  0  0  0
  -29.8021  -11.7464   17.4842 H   0  0  0  0  0  0
  -29.6578  -13.4685   17.7330 H   0  0  0  0  0  0
  -27.8985  -11.2757   18.8960 H   0  0  0  0  0  0
  -27.3889  -12.5244   17.7853 H   0  0  0  0  0  0
  -27.6533  -14.2381   19.4676 H   0  0  0  0  0  0
  -28.7069  -12.1132   21.4045 H   0  0  0  0  0  0
  -28.4282  -13.7941   21.7943 H   0  0  0  0  0  0
  -25.2757   -9.5697   22.4754 H   0  0  0  0  0  0
  -24.0013   -7.4631   22.7452 H   0  0  0  0  0  0
  -21.0863   -8.8758   19.8938 H   0  0  0  0  0  0
  -22.3711  -10.9659   19.6124 H   0  0  0  0  0  0
  -21.1977   -7.6135   23.9744 H   0  0  0  0  0  0
  -21.1471   -6.0492   25.9084 H   0  0  0  0  0  0
  -22.0603   -2.7628   23.2804 H   0  0  0  0  0  0
  -22.4000  -11.9938   22.4778 H   0  0  0  0  0  0
  -21.1044  -13.1329   22.2480 H   0  0  0  0  0  0
  -24.6683  -15.8425   20.5498 H   0  0  0  0  0  0
  -26.2707  -15.6272   20.0662 H   0  0  0  0  0  0
  -26.7204  -32.5429   23.1095 H   0  0  0  0  0  0
  -25.0089  -33.9721   25.0456 H   0  0  0  0  0  0
  -22.7214  -31.3049   21.3973 H   0  0  0  0  0  0
  -23.3761  -35.9490   23.3309 H   0  0  0  0  0  0
  -24.3537  -36.8850   22.2069 H   0  0  0  0  0  0
  -23.7098  -37.6379   23.6652 H   0  0  0  0  0  0
  -26.0997  -31.5437   20.6067 H   0  0  0  0  0  0
  -26.8525  -30.8368   22.0019 H   0  0  0  0  0  0
  -28.1126  -28.9502   21.2173 H   0  0  0  0  0  0
  -25.9673  -25.9309   18.9841 H   0  0  0  0  0  0
  -23.9765  -27.3121   19.0017 H   0  0  0  0  0  0
  -23.7735  -30.5989   19.4036 H   0  0  0  0  0  0
  -22.7660  -29.2548   19.8462 H   0  0  0  0  0  0
  -25.1240  -36.1940   25.0845 H   0  0  0  0  0  0
  -20.9985  -28.3324   24.1408 H   0  0  0  0  0  0
  -20.5660  -26.2342   23.3655 H   0  0  0  0  0  0
  -21.6625  -26.7469   22.1221 H   0  0  0  0  0  0
  -19.6850  -25.6351   21.1256 H   0  0  0  0  0  0
  -19.6647  -27.3260   20.6775 H   0  0  0  0  0  0
  -17.4175  -26.6798   21.4032 H   0  0  0  0  0  0
  -18.0244  -26.0134   22.9034 H   0  0  0  0  0  0
  -19.7954  -30.7295   24.2323 H   0  0  0  0  0  0
  -17.5043  -31.6307   24.5218 H   0  0  0  0  0  0
  -15.5375  -30.3076   23.7638 H   0  0  0  0  0  0
  -15.8663  -28.0860   22.7149 H   0  0  0  0  0  0
  -24.5923  -30.7092   25.7847 H   0  0  0  0  0  0
  -24.8914  -32.2934   26.4873 H   0  0  0  0  0  0
  -25.8125  -30.9005   27.0266 H   0  0  0  0  0  0
  -26.2908  -29.6832   24.1168 H   0  0  0  0  0  0
  -27.4015  -29.7288   25.4675 H   0  0  0  0  0  0
  -27.8795  -30.4343   23.9414 H   0  0  0  0  0  0
  -27.2643  -33.3703   26.2006 H   0  0  0  0  0  0
  -28.3892  -32.6915   25.0366 H   0  0  0  0  0  0
  -28.0654  -31.8553   26.5495 H   0  0  0  0  0  0
  -28.2561  -38.0061   24.7626 H   0  0  0  0  0  0
  -28.1060  -36.2610   24.6167 H   0  0  0  0  0  0
  -27.2286  -37.1279   25.8872 H   0  0  0  0  0  0
  -20.9395  -29.8827   21.6899 H   0  0  0  0  0  0
  -26.0103  -38.2860   24.1612 H   0  0  0  0  0  0
  -30.2020  -20.6891   22.8166 H   0  0  0  0  0  0
  -30.6672  -18.6845   24.1232 H   0  0  0  0  0  0
  -29.4453  -18.2223   19.3458 H   0  0  0  0  0  0
  -30.8510  -16.3854   24.4371 H   0  0  0  0  0  0
  -31.5706  -15.5613   23.0682 H   0  0  0  0  0  0
  -29.8459  -15.3714   23.4112 H   0  0  0  0  0  0
  -30.6020  -23.5691   16.8717 H   0  0  0  0  0  0
  -30.7102  -22.2699   18.0306 H   0  0  0  0  0  0
  -31.4922  -23.8157   18.3582 H   0  0  0  0  0  0
  -31.2974  -23.5727   20.6941 H   0  0  0  0  0  0
  -30.3358  -24.4038   21.9015 H   0  0  0  0  0  0
  -30.8180  -25.2516   20.4371 H   0  0  0  0  0  0
  -29.2753  -20.7646   19.1544 H   0  0  0  0  0  0
  -30.6878  -21.3106   20.0007 H   0  0  0  0  0  0
  -28.4472  -23.3788   18.1419 H   0  0  0  0  0  0
  -29.2267  -24.9175   18.2697 H   0  0  0  0  0  0
  -28.9566  -22.3447   21.7583 H   0  0  0  0  0  0
  -27.7880  -22.1232   20.5116 H   0  0  0  0  0  0
  -27.8492  -24.8888   21.5539 H   0  0  0  0  0  0
  -27.1644  -24.6032   20.0100 H   0  0  0  0  0  0
  -28.8219  -15.5346   20.4715 H   0  0  0  0  0  0
  1 25  1  0  0  0
  1 30  2  0  0  0
  1 85  1  0  0  0
  2  3  1  0  0  0
  2 25  1  0  0  0
  2 86  1  0  0  0
  2 87  1  0  0  0
  3  4  1  0  0  0
  3 88  1  0  0  0
  3 89  1  0  0  0
  4  5  1  0  0  0
  4 90  1  0  0  0
  4 91  1  0  0  0
  5  6  1  0  0  0
  5 26  1  0  0  0
  5 92  1  0  0  0
  6 25  1  0  0  0
  6 93  1  0  0  0
  6 94  1  0  0  0
  7  8  2  0  0  0
  7 26  1  0  0  0
  7 29  1  0  0  0
  8  9  1  0  0  0
  8 22  1  0  0  0
  9 10  1  0  0  0
  9 27  2  0  0  0
 10 11  2  0  0  0
 10 15  1  0  0  0
 11 12  1  0  0  0
 11 95  1  0  0  0
 12 13  2  0  0  0
 12 96  1  0  0  0
 13 14  1  0  0  0
 13 31  1  0  0  0
 14 15  2  0  0  0
 14 97  1  0  0  0
 15 98  1  0  0  0
 16 17  2  0  0  0
 16 21  1  0  0  0
 16 31  1  0  0  0
 17 18  1  0  0  0
 17 99  1  0  0  0
 18 19  2  0  0  0
 18100  1  0  0  0
 19 20  1  0  0  0
 19 24  1  0  0  0
 20 21  2  0  0  0
 20101  1  0  0  0
 21 23  1  0  0  0
 22 28  1  0  0  0
 22 32  2  0  0  0
 26 27  1  0  0  0
 28102  1  0  0  0
 28103  1  0  0  0
 29104  1  0  0  0
 29105  1  0  0  0
 33 34  1  0  0  0
 33 66  1  0  0  0
 33 70  2  0  0  0
 34 36  1  0  0  0
 34 59  1  0  0  0
 34106  1  0  0  0
 35 44  2  0  0  0
 35 45  1  0  0  0
 35 68  1  0  0  0
 36 56  1  0  0  0
 36107  1  0  0  0
 37 39  1  0  0  0
 37 47  1  0  0  0
 37 66  1  0  0  0
 37108  1  0  0  0
 38 43  2  0  0  0
 38 46  1  0  0  0
 38 47  1  0  0  0
 39 64  1  0  0  0
 39 67  2  0  0  0
 40 52  1  0  0  0
 40 53  2  0  0  0
 40 58  1  0  0  0
 41109  1  0  0  0
 41110  1  0  0  0
 41111  1  0  0  0
 41 48  1  0  0  0
 42 43  1  0  0  0
 42 66  1  0  0  0
 42112  1  0  0  0
 42113  1  0  0  0
 43 44  1  0  0  0
 44114  1  0  0  0
 45 46  2  0  0  0
 45115  1  0  0  0
 46116  1  0  0  0
 47117  1  0  0  0
 47118  1  0  0  0
 48 56  1  0  0  0
 48 65  1  0  0  0
 48119  1  0  0  0
 49 50  1  0  0  0
 49 53  1  0  0  0
 49 64  1  0  0  0
 49120  1  0  0  0
 50 51  1  0  0  0
 50121  1  0  0  0
 50122  1  0  0  0
 51 52  1  0  0  0
 51123  1  0  0  0
 51124  1  0  0  0
 52125  1  0  0  0
 52126  1  0  0  0
 53 54  1  0  0  0
 54 55  2  0  0  0
 54127  1  0  0  0
 55 57  1  0  0  0
 55128  1  0  0  0
 56 69  2  0  0  0
 57 58  2  0  0  0
 57129  1  0  0  0
 58130  1  0  0  0
 59 60  1  0  0  0
 59 61  1  0  0  0
 59 62  1  0  0  0
 60131  1  0  0  0
 60132  1  0  0  0
 60133  1  0  0  0
 61134  1  0  0  0
 61135  1  0  0  0
 61136  1  0  0  0
 62137  1  0  0  0
 62138  1  0  0  0
 62139  1  0  0  0
 63 65  1  0  0  0
 63140  1  0  0  0
 63141  1  0  0  0
 63142  1  0  0  0
 64143  1  0  0  0
 65144  1  0  0  0
 68 83  1  0  0  0
 71 72  2  0  0  0
 71 74  1  0  0  0
 71145  1  0  0  0
 72 75  1  0  0  0
 72146  1  0  0  0
 73 74  2  0  0  0
 73 76  1  0  0  0
 73147  1  0  0  0
 74 80  1  0  0  0
 75 76  2  0  0  0
 75 77  1  0  0  0
 76 85  1  0  0  0
 77148  1  0  0  0
 77149  1  0  0  0
 77150  1  0  0  0
 78 81  1  0  0  0
 78151  1  0  0  0
 78152  1  0  0  0
 78153  1  0  0  0
 79154  1  0  0  0
 79155  1  0  0  0
 79156  1  0  0  0
 79 84  1  0  0  0
 80 82  1  0  0  0
 80157  1  0  0  0
 80158  1  0  0  0
 81 84  1  0  0  0
 81159  1  0  0  0
 81160  1  0  0  0
 82 84  1  0  0  0
 82161  1  0  0  0
 82162  1  0  0  0
 83 84  1  0  0  0
 83163  1  0  0  0
 83164  1  0  0  0
 85165  1  0  0  0
M  ISO  4   1 100  68 101  83 101  85 100
M  END
> <chiral flag>
0

> <version>
0

> <s_m_source_file>
/data/baiqing/PycharmProjects/Reinvent-master-3.2/result/LINK_invent/BTK/process_docking_weight1_custom_product_contain_oxygen_bond_distance_aromatic_linkinvent_7_9_3/rearranged_h_0135.sdf

> <i_m_source_file_index>
88

> <r_mmod_Potential_Energy-OPLS-2005>
187.369903564453

> <r_mmod_Stretch_Energy-OPLS-2005>
114.146377563477

> <r_mmod_Bend_Energy-OPLS-2005>
160.93359375

> <r_mmod_Torsional_Energy-OPLS-2005>
275.969207763672

> <r_mmod_Improper_Torsional_Energy-OPLS-2005>
8.96278095245361

> <r_mmod_Van_der_Waal_Energy-OPLS-2005>
140.436157226562

> <r_mmod_Electrostatic_Energy-OPLS-2005>
-386.247467041016

> <r_mmod_Solvation_Energy-OPLS-2005>
-193.861801147461

> <b_mmod_Minimization_Converged-OPLS-2005>
0

> <r_mmod_RMS_Derivative-OPLS-2005>
4.30994844436646

$$$$
88
                    3D
 Structure written by MMmdl.
158166  0  0  1  0            999 V2000
  -29.8045  -16.9007   20.2466 C   0  0  0  0  0  0
  -30.2649  -14.0460   19.5262 C   0  0  0  0  0  0
  -29.5766  -13.0833   18.4496 C   0  0  0  0  0  0
  -28.2848  -12.4425   18.9570 C   0  0  0  0  0  0
  -27.5739  -13.4835   19.8271 C   0  0  2  0  0  0
  -28.4760  -14.3070   20.8450 C   0  0  0  0  0  0
  -25.2115  -13.8576   20.5986 C   0  0  0  0  0  0
  -24.1677  -13.0488   20.9350 C   0  0  0  0  0  0
  -24.6625  -11.7081   20.8722 C   0  0  0  0  0  0
  -23.9342  -10.4342   21.0316 C   0  0  0  0  0  0
  -24.3796   -9.4243   21.9137 C   0  0  0  0  0  0
  -23.6398   -8.2308   22.0746 C   0  0  0  0  0  0
  -22.4370   -8.0349   21.3548 C   0  0  0  0  0  0
  -22.0065   -9.0334   20.4632 C   0  0  0  0  0  0
  -22.7468  -10.2177   20.3006 C   0  0  0  0  0  0
  -21.6889   -6.0784   22.5280 C   0  0  0  0  0  0
  -21.4044   -6.5668   23.8219 C   0  0  0  0  0  0
  -21.3670   -5.6808   24.9170 C   0  0  0  0  0  0
  -21.6045   -4.3070   24.7211 C   0  0  0  0  0  0
  -21.8810   -3.8175   23.4326 C   0  0  0  0  0  0
  -21.9201   -4.7004   22.3391 C   0  0  0  0  0  0
  -22.7631  -13.5060   21.1930 C   0  0  0  0  0  0
  -22.1662   -4.2187   21.0968 F   0  0  0  0  0  0
  -21.5623   -3.4546   25.7720 F   0  0  0  0  0  0
  -29.4286  -15.3094   20.1340 N   0  0  0  0  0  0
  -26.2858  -13.0305   20.3572 N   0  0  0  0  0  0
  -25.9664  -11.7159   20.5664 N   0  0  0  0  0  0
  -22.0358  -12.7995   22.0491 N   0  0  0  0  0  0
  -25.3353  -15.2342   20.4378 N   0  0  0  0  0  0
  -31.0569  -16.6341   20.1995 O   0  0  0  0  0  0
  -21.6692   -6.8959   21.4256 O   0  0  0  0  0  0
  -22.3236  -14.5327   20.6756 O   0  0  0  0  0  0
  -24.7659  -31.6925   23.0854 C   0  0  0  0  0  0
  -25.9802  -32.3958   23.7724 C   0  0  1  0  0  0
  -27.2896  -25.8473   20.2506 C   0  0  0  0  0  0
  -25.6020  -33.7841   24.1501 N   0  0  0  0  0  0
  -23.6324  -30.2534   21.4595 C   0  0  2  0  0  0
  -25.1076  -28.4185   20.1405 C   0  0  0  0  0  0
  -22.8134  -29.3729   22.4496 C   0  0  0  0  0  0
  -18.0396  -28.1459   22.8412 C   0  0  0  0  0  0
  -24.1515  -36.6955   23.2671 C   0  0  0  0  0  0
  -26.2352  -30.1332   21.4891 C   0  0  0  0  0  0
  -26.2984  -28.5997   20.8545 C   0  0  0  0  0  0
  -27.3187  -27.3707   20.8792 C   0  0  0  0  0  0
  -26.0866  -26.1226   19.4560 C   0  0  0  0  0  0
  -25.0927  -27.2048   19.4167 C   0  0  0  0  0  0
  -23.9377  -29.4722   20.1321 C   0  0  0  0  0  0
  -25.4186  -36.2614   24.0237 C   0  0  1  0  0  0
  -20.6066  -28.3859   23.0995 C   0  0  2  0  0  0
  -20.6819  -26.9443   22.5429 C   0  0  0  0  0  0
  -19.5821  -26.6344   21.5224 C   0  0  0  0  0  0
  -18.1998  -26.7975   22.1590 C   0  0  0  0  0  0
  -19.1680  -28.9003   23.2656 C   0  0  0  0  0  0
  -18.9566  -30.1560   23.8747 C   0  0  0  0  0  0
  -17.6545  -30.6618   24.0537 C   0  0  0  0  0  0
  -25.9209  -34.9014   23.4776 C   0  0  0  0  0  0
  -16.5432  -29.9090   23.6360 C   0  0  0  0  0  0
  -16.7367  -28.6515   23.0377 C   0  0  0  0  0  0
  -26.4728  -31.6360   25.0681 C   0  0  0  0  0  0
  -25.3583  -31.3878   26.1140 C   0  0  0  0  0  0
  -27.0780  -30.2625   24.7150 C   0  0  0  0  0  0
  -27.6045  -32.4411   25.7511 C   0  0  0  0  0  0
  -27.5558  -37.1620   24.8463 C   0  0  0  0  0  0
  -21.4710  -29.2923   22.3225 N   0  0  0  0  0  0
  -26.4246  -37.3463   23.9417 N   0  0  0  0  0  0
  -24.9134  -30.7465   22.0635 N   0  0  0  0  0  0
  -23.4159  -28.7479   23.3237 O   0  0  0  0  0  0
  -27.9993  -24.1513   20.1926 O   0  0  0  0  0  0
  -26.5963  -34.8751   22.4474 O   0  0  0  0  0  0
  -23.6506  -32.0413   23.5227 O   0  0  0  0  0  0
  -27.3186  -23.1872   21.9656 C   0  0  0  0  0  0
  -28.7933  -24.3394   22.0906 C   0  0  0  0  0  0
  -29.7544  -22.1346   20.0054 C   0  0  0  0  0  0
  -27.4462  -21.6797   20.9807 C   0  0  0  0  0  0
  -28.7763  -20.7269   20.3258 C   0  0  0  0  0  0
  -30.0044  -23.7255   20.8037 C   0  0  0  0  0  0
  -32.6575  -21.2389   21.8424 C   0  0  0  0  0  0
  -31.9525  -22.3643   22.0409 C   0  0  0  0  0  0
  -26.1501  -20.9032   21.0094 C   0  0  0  0  0  0
  -30.7544  -22.3943   22.9857 C   0  0  0  0  0  0
  -32.2962  -23.6833   21.3263 C   0  0  0  0  0  0
  -29.3096  -22.2096   22.3052 C   0  0  0  0  0  0
  -29.0351  -18.6009   20.2605 N   0  0  0  0  0  0
  -31.2082  -24.3500   20.6645 O   0  0  0  0  0  0
  -31.1331  -14.4678   19.0190 H   0  0  0  0  0  0
  -30.7147  -13.4518   20.3245 H   0  0  0  0  0  0
  -30.2748  -12.3111   18.1227 H   0  0  0  0  0  0
  -29.3472  -13.6762   17.5628 H   0  0  0  0  0  0
  -28.5315  -11.5715   19.5656 H   0  0  0  0  0  0
  -27.6578  -12.0933   18.1349 H   0  0  0  0  0  0
  -27.2897  -14.2311   19.0841 H   0  0  0  0  0  0
  -28.9740  -13.6540   21.5639 H   0  0  0  0  0  0
  -27.8274  -14.9240   21.4658 H   0  0  0  0  0  0
  -25.2932   -9.5686   22.4737 H   0  0  0  0  0  0
  -24.0068   -7.4706   22.7498 H   0  0  0  0  0  0
  -21.0987   -8.8892   19.8941 H   0  0  0  0  0  0
  -22.3939  -10.9711   19.6102 H   0  0  0  0  0  0
  -21.2052   -7.6177   23.9735 H   0  0  0  0  0  0
  -21.1498   -6.0533   25.9076 H   0  0  0  0  0  0
  -22.0573   -2.7637   23.2814 H   0  0  0  0  0  0
  -22.4082  -11.9713   22.4898 H   0  0  0  0  0  0
  -21.0936  -13.0896   22.2680 H   0  0  0  0  0  0
  -24.5467  -15.8630   20.5433 H   0  0  0  0  0  0
  -26.1767  -15.6977   20.1203 H   0  0  0  0  0  0
  -26.8009  -32.4313   23.0545 H   0  0  0  0  0  0
  -24.9977  -33.8747   24.9534 H   0  0  0  0  0  0
  -23.0094  -31.1106   21.1948 H   0  0  0  0  0  0
  -23.3816  -35.9235   23.3173 H   0  0  0  0  0  0
  -24.3580  -36.8822   22.2119 H   0  0  0  0  0  0
  -23.7227  -37.6042   23.6913 H   0  0  0  0  0  0
  -26.5148  -30.7940   20.6670 H   0  0  0  0  0  0
  -27.0645  -30.2345   22.1743 H   0  0  0  0  0  0
  -28.1801  -27.5486   21.5073 H   0  0  0  0  0  0
  -25.8054  -25.2854   18.8327 H   0  0  0  0  0  0
  -24.2378  -27.0348   18.7759 H   0  0  0  0  0  0
  -24.1803  -30.1999   19.3568 H   0  0  0  0  0  0
  -23.0284  -28.9822   19.7808 H   0  0  0  0  0  0
  -25.1422  -36.1279   25.0723 H   0  0  0  0  0  0
  -21.0107  -28.3550   24.1137 H   0  0  0  0  0  0
  -20.5605  -26.2509   23.3765 H   0  0  0  0  0  0
  -21.6677  -26.7266   22.1298 H   0  0  0  0  0  0
  -19.6974  -25.6215   21.1353 H   0  0  0  0  0  0
  -19.6793  -27.3068   20.6689 H   0  0  0  0  0  0
  -17.4279  -26.6725   21.3976 H   0  0  0  0  0  0
  -18.0351  -26.0152   22.9013 H   0  0  0  0  0  0
  -19.8042  -30.7407   24.2067 H   0  0  0  0  0  0
  -17.5092  -31.6280   24.5174 H   0  0  0  0  0  0
  -15.5426  -30.2944   23.7771 H   0  0  0  0  0  0
  -15.8766  -28.0778   22.7187 H   0  0  0  0  0  0
  -24.5896  -30.7093   25.7413 H   0  0  0  0  0  0
  -24.8639  -32.3141   26.4075 H   0  0  0  0  0  0
  -25.7589  -30.9374   27.0231 H   0  0  0  0  0  0
  -26.3630  -29.5989   24.2285 H   0  0  0  0  0  0
  -27.4012  -29.7390   25.6157 H   0  0  0  0  0  0
  -27.9677  -30.3585   24.0929 H   0  0  0  0  0  0
  -27.2527  -33.3913   26.1535 H   0  0  0  0  0  0
  -28.4106  -32.6630   25.0505 H   0  0  0  0  0  0
  -28.0428  -31.8914   26.5849 H   0  0  0  0  0  0
  -28.2460  -38.0017   24.7552 H   0  0  0  0  0  0
  -28.1168  -36.2532   24.6240 H   0  0  0  0  0  0
  -27.2283  -37.1171   25.8862 H   0  0  0  0  0  0
  -21.0229  -29.8464   21.6057 H   0  0  0  0  0  0
  -26.0010  -38.2480   24.1435 H   0  0  0  0  0  0
  -26.3895  -23.4488   22.4512 H   0  0  0  0  0  0
  -28.8656  -25.2605   22.6533 H   0  0  0  0  0  0
  -30.6234  -21.8740   19.4182 H   0  0  0  0  0  0
  -32.3945  -20.3191   22.3454 H   0  0  0  0  0  0
  -33.5047  -21.2149   21.1716 H   0  0  0  0  0  0
  -26.1425  -20.2056   21.8461 H   0  0  0  0  0  0
  -26.0153  -20.3430   20.0848 H   0  0  0  0  0  0
  -25.3039  -21.5817   21.1159 H   0  0  0  0  0  0
  -30.8013  -23.3251   23.5527 H   0  0  0  0  0  0
  -30.8909  -21.6108   23.7332 H   0  0  0  0  0  0
  -33.0972  -23.5221   20.6031 H   0  0  0  0  0  0
  -32.6969  -24.3746   22.0675 H   0  0  0  0  0  0
  -28.8425  -22.2810   23.3089 H   0  0  0  0  0  0
  -29.2176  -21.1277   22.4253 H   0  0  0  0  0  0
  -28.0782  -18.2716   20.2780 H   0  0  0  0  0  0
  1 25  1  0  0  0
  1 30  2  0  0  0
  1 83  1  0  0  0
  2  3  1  0  0  0
  2 25  1  0  0  0
  2 85  1  0  0  0
  2 86  1  0  0  0
  3  4  1  0  0  0
  3 87  1  0  0  0
  3 88  1  0  0  0
  4  5  1  0  0  0
  4 89  1  0  0  0
  4 90  1  0  0  0
  5  6  1  0  0  0
  5 26  1  0  0  0
  5 91  1  0  0  0
  6 25  1  0  0  0
  6 92  1  0  0  0
  6 93  1  0  0  0
  7  8  2  0  0  0
  7 26  1  0  0  0
  7 29  1  0  0  0
  8  9  1  0  0  0
  8 22  1  0  0  0
  9 10  1  0  0  0
  9 27  2  0  0  0
 10 11  2  0  0  0
 10 15  1  0  0  0
 11 12  1  0  0  0
 11 94  1  0  0  0
 12 13  2  0  0  0
 12 95  1  0  0  0
 13 14  1  0  0  0
 13 31  1  0  0  0
 14 15  2  0  0  0
 14 96  1  0  0  0
 15 97  1  0  0  0
 16 17  2  0  0  0
 16 21  1  0  0  0
 16 31  1  0  0  0
 17 18  1  0  0  0
 17 98  1  0  0  0
 18 19  2  0  0  0
 18 99  1  0  0  0
 19 20  1  0  0  0
 19 24  1  0  0  0
 20 21  2  0  0  0
 20100  1  0  0  0
 21 23  1  0  0  0
 22 28  1  0  0  0
 22 32  2  0  0  0
 26 27  1  0  0  0
 28101  1  0  0  0
 28102  1  0  0  0
 29103  1  0  0  0
 29104  1  0  0  0
 33 34  1  0  0  0
 33 66  1  0  0  0
 33 70  2  0  0  0
 34 36  1  0  0  0
 34 59  1  0  0  0
 34105  1  0  0  0
 35 44  2  0  0  0
 35 45  1  0  0  0
 35 68  1  0  0  0
 36 56  1  0  0  0
 36106  1  0  0  0
 37 39  1  0  0  0
 37 47  1  0  0  0
 37 66  1  0  0  0
 37107  1  0  0  0
 38 43  2  0  0  0
 38 46  1  0  0  0
 38 47  1  0  0  0
 39 64  1  0  0  0
 39 67  2  0  0  0
 40 52  1  0  0  0
 40 53  2  0  0  0
 40 58  1  0  0  0
 41108  1  0  0  0
 41109  1  0  0  0
 41110  1  0  0  0
 41 48  1  0  0  0
 42 43  1  0  0  0
 42 66  1  0  0  0
 42111  1  0  0  0
 42112  1  0  0  0
 43 44  1  0  0  0
 44113  1  0  0  0
 45 46  2  0  0  0
 45114  1  0  0  0
 46115  1  0  0  0
 47116  1  0  0  0
 47117  1  0  0  0
 48 56  1  0  0  0
 48 65  1  0  0  0
 48118  1  0  0  0
 49 50  1  0  0  0
 49 53  1  0  0  0
 49 64  1  0  0  0
 49119  1  0  0  0
 50 51  1  0  0  0
 50120  1  0  0  0
 50121  1  0  0  0
 51 52  1  0  0  0
 51122  1  0  0  0
 51123  1  0  0  0
 52124  1  0  0  0
 52125  1  0  0  0
 53 54  1  0  0  0
 54 55  2  0  0  0
 54126  1  0  0  0
 55 57  1  0  0  0
 55127  1  0  0  0
 56 69  2  0  0  0
 57 58  2  0  0  0
 57128  1  0  0  0
 58129  1  0  0  0
 59 60  1  0  0  0
 59 61  1  0  0  0
 59 62  1  0  0  0
 60130  1  0  0  0
 60131  1  0  0  0
 60132  1  0  0  0
 61133  1  0  0  0
 61134  1  0  0  0
 61135  1  0  0  0
 62136  1  0  0  0
 62137  1  0  0  0
 62138  1  0  0  0
 63 65  1  0  0  0
 63139  1  0  0  0
 63140  1  0  0  0
 63141  1  0  0  0
 64142  1  0  0  0
 65143  1  0  0  0
 68 82  1  0  0  0
 71 72  2  0  0  0
 71 74  1  0  0  0
 71144  1  0  0  0
 72 76  1  0  0  0
 72145  1  0  0  0
 73 75  1  0  0  0
 73 76  2  0  0  0
 73146  1  0  0  0
 74 75  2  0  0  0
 74 79  1  0  0  0
 75 83  1  0  0  0
 76 84  1  0  0  0
 77 78  2  0  0  0
 77147  1  0  0  0
 77148  1  0  0  0
 78 80  1  0  0  0
 78 81  1  0  0  0
 79149  1  0  0  0
 79150  1  0  0  0
 79151  1  0  0  0
 80 82  1  0  0  0
 80152  1  0  0  0
 80153  1  0  0  0
 81 84  1  0  0  0
 81154  1  0  0  0
 81155  1  0  0  0
 82156  1  0  0  0
 82157  1  0  0  0
 83158  1  0  0  0
M  ISO  4   1 100  68 101  82 101  83 100
M  END
> <chiral flag>
0

> <version>
0

> <s_m_source_file>
/data/baiqing/PycharmProjects/Reinvent-master-3.2/result/LINK_invent/BTK/process_docking_weight1_custom_product_contain_oxygen_bond_distance_aromatic_linkinvent_7_9_3/rearranged_h_0135.sdf

> <i_m_source_file_index>
89

> <r_mmod_Potential_Energy-OPLS-2005>
15318.796875

> <r_mmod_Stretch_Energy-OPLS-2005>
8489.365234375

> <r_mmod_Bend_Energy-OPLS-2005>
1138.42700195312

> <r_mmod_Torsional_Energy-OPLS-2005>
354.904693603516

> <r_mmod_Improper_Torsional_Energy-OPLS-2005>
10.6993741989136

> <r_mmod_Van_der_Waal_Energy-OPLS-2005>
2083.6484375

> <r_mmod_Electrostatic_Energy-OPLS-2005>
-351.638732910156

> <r_mmod_Solvation_Energy-OPLS-2005>
-226.936965942383

> <b_mmod_Minimization_Converged-OPLS-2005>
0

> <r_mmod_RMS_Derivative-OPLS-2005>
3.96783828735352

$$$$
89
                    3D
 Structure written by MMmdl.
166174  0  0  1  0            999 V2000
  -30.6547  -14.5540   20.5305 C   0  0  0  0  0  0
  -30.4346  -12.3418   19.4548 C   0  0  0  0  0  0
  -29.5093  -12.5121   18.2281 C   0  0  0  0  0  0
  -28.0311  -12.3562   18.6352 C   0  0  0  0  0  0
  -27.6629  -13.2089   19.8783 C   0  0  2  0  0  0
  -28.7026  -13.0213   21.0104 C   0  0  0  0  0  0
  -25.2587  -13.8163   20.5670 C   0  0  0  0  0  0
  -24.1843  -13.0439   20.9172 C   0  0  0  0  0  0
  -24.6398  -11.6907   20.8724 C   0  0  0  0  0  0
  -23.9064  -10.4292   21.0401 C   0  0  0  0  0  0
  -24.3616   -9.4209   21.9180 C   0  0  0  0  0  0
  -23.6292   -8.2242   22.0749 C   0  0  0  0  0  0
  -22.4279   -8.0276   21.3536 C   0  0  0  0  0  0
  -21.9908   -9.0258   20.4648 C   0  0  0  0  0  0
  -22.7234  -10.2137   20.3058 C   0  0  0  0  0  0
  -21.6852   -6.0734   22.5282 C   0  0  0  0  0  0
  -21.4014   -6.5640   23.8215 C   0  0  0  0  0  0
  -21.3655   -5.6792   24.9177 C   0  0  0  0  0  0
  -21.6048   -4.3055   24.7226 C   0  0  0  0  0  0
  -21.8819   -3.8148   23.4346 C   0  0  0  0  0  0
  -21.9190   -4.6964   22.3404 C   0  0  0  0  0  0
  -22.7863  -13.5240   21.1852 C   0  0  0  0  0  0
  -22.1659   -4.2151   21.0977 F   0  0  0  0  0  0
  -21.5635   -3.4538   25.7733 F   0  0  0  0  0  0
  -30.0350  -13.3380   20.4667 N   0  0  0  0  0  0
  -26.3028  -12.9325   20.3365 N   0  0  0  0  0  0
  -25.9332  -11.6486   20.5774 N   0  0  0  0  0  0
  -22.0504  -12.8236   22.0407 N   0  0  0  0  0  0
  -25.4313  -15.1873   20.4051 N   0  0  0  0  0  0
  -31.7702  -14.7515   20.0404 O   0  0  0  0  0  0
  -21.6639   -6.8878   21.4243 O   0  0  0  0  0  0
  -22.3549  -14.5548   20.6699 O   0  0  0  0  0  0
  -24.6194  -31.8676   23.2088 C   0  0  0  0  0  0
  -25.9076  -32.4822   23.8397 C   0  0  1  0  0  0
  -27.2203  -27.3805   20.1133 C   0  0  0  0  0  0
  -25.5924  -33.8621   24.2326 N   0  0  0  0  0  0
  -23.4098  -30.4911   21.5503 C   0  0  2  0  0  0
  -24.8577  -28.9540   20.1161 C   0  0  0  0  0  0
  -22.7440  -29.4654   22.4983 C   0  0  0  0  0  0
  -18.0276  -28.1401   22.8499 C   0  0  0  0  0  0
  -24.1475  -36.7299   23.2636 C   0  0  0  0  0  0
  -25.9444  -30.8139   21.3727 C   0  0  0  0  0  0
  -26.0195  -29.4407   20.7292 C   0  0  0  0  0  0
  -27.2054  -28.6577   20.7362 C   0  0  0  0  0  0
  -26.0528  -26.9460   19.4546 C   0  0  0  0  0  0
  -24.8701  -27.7064   19.4756 C   0  0  0  0  0  0
  -23.6214  -29.8263   20.1635 C   0  0  0  0  0  0
  -25.4104  -36.3114   24.0339 C   0  0  1  0  0  0
  -20.5876  -28.3678   23.1326 C   0  0  2  0  0  0
  -20.6769  -26.9412   22.5427 C   0  0  0  0  0  0
  -19.5749  -26.6404   21.5225 C   0  0  0  0  0  0
  -18.1925  -26.7947   22.1625 C   0  0  0  0  0  0
  -19.1532  -28.8850   23.2909 C   0  0  0  0  0  0
  -18.9459  -30.1457   23.8922 C   0  0  0  0  0  0
  -17.6460  -30.6600   24.0575 C   0  0  0  0  0  0
  -25.9042  -34.9480   23.5125 C   0  0  0  0  0  0
  -16.5352  -29.9112   23.6328 C   0  0  0  0  0  0
  -16.7263  -28.6531   23.0344 C   0  0  0  0  0  0
  -26.4484  -31.6604   25.0733 C   0  0  0  0  0  0
  -25.3739  -31.3734   26.1473 C   0  0  0  0  0  0
  -27.0303  -30.3037   24.6132 C   0  0  0  0  0  0
  -27.6071  -32.4306   25.7506 C   0  0  0  0  0  0
  -27.5572  -37.1812   24.8473 C   0  0  0  0  0  0
  -21.4163  -29.3047   22.3729 N   0  0  0  0  0  0
  -26.4286  -37.3806   23.9419 N   0  0  0  0  0  0
  -24.6760  -31.0736   22.1018 N   0  0  0  0  0  0
  -23.4192  -28.8189   23.3037 O   0  0  0  0  0  0
  -28.3335  -26.5522   20.0844 O   0  0  0  0  0  0
  -26.5597  -34.8941   22.4684 O   0  0  0  0  0  0
  -23.5377  -32.1444   23.7463 O   0  0  0  0  0  0
  -31.4292  -18.4113   20.8227 C   0  0  0  0  0  0
  -31.0899  -20.8283   21.0318 C   0  0  0  0  0  0
  -31.9447  -19.7062   21.0327 C   0  0  0  0  0  0
  -30.0527  -18.2102   20.5962 C   0  0  0  0  0  0
  -29.1869  -19.3591   20.6221 C   0  0  0  0  0  0
  -29.6976  -20.6820   20.8371 C   0  0  0  0  0  0
  -33.4366  -19.9058   21.2175 C   0  0  0  0  0  0
  -27.6933  -19.1879   20.3761 C   0  0  0  0  0  0
  -27.7088  -23.8040   22.6746 C   0  0  0  0  0  0
  -26.9067  -23.9027   20.3169 C   0  0  0  0  0  0
  -29.5715  -16.7951   20.1624 C   0  0  0  0  0  0
  -28.5412  -25.6951   21.2401 C   0  0  0  0  0  0
  -29.2747  -23.1541   20.8398 C   0  0  0  0  0  0
  -28.1217  -24.1560   21.2262 C   0  0  0  0  0  0
  -29.8894  -15.5839   20.9658 N   0  0  0  0  0  0
  -28.8188  -21.7707   20.8434 O   0  0  0  0  0  0
  -31.4807  -12.4432   19.1586 H   0  0  0  0  0  0
  -30.3427  -11.3355   19.8645 H   0  0  0  0  0  0
  -29.7652  -11.7819   17.4599 H   0  0  0  0  0  0
  -29.6658  -13.4956   17.7803 H   0  0  0  0  0  0
  -27.8584  -11.3006   18.8492 H   0  0  0  0  0  0
  -27.3798  -12.6045   17.7971 H   0  0  0  0  0  0
  -27.6968  -14.2521   19.5628 H   0  0  0  0  0  0
  -28.6894  -11.9935   21.3728 H   0  0  0  0  0  0
  -28.4531  -13.6391   21.8749 H   0  0  0  0  0  0
  -25.2771   -9.5686   22.4743 H   0  0  0  0  0  0
  -24.0013   -7.4630   22.7462 H   0  0  0  0  0  0
  -21.0838   -8.8778   19.8950 H   0  0  0  0  0  0
  -22.3696  -10.9677   19.6162 H   0  0  0  0  0  0
  -21.1998   -7.6146   23.9721 H   0  0  0  0  0  0
  -21.1484   -6.0517   25.9080 H   0  0  0  0  0  0
  -22.0598   -2.7612   23.2845 H   0  0  0  0  0  0
  -22.4116  -11.9895   22.4804 H   0  0  0  0  0  0
  -21.1123  -13.1268   22.2617 H   0  0  0  0  0  0
  -24.6623  -15.8418   20.5009 H   0  0  0  0  0  0
  -26.2805  -15.6209   20.0681 H   0  0  0  0  0  0
  -26.7148  -32.5534   23.1167 H   0  0  0  0  0  0
  -25.0117  -33.9782   25.0498 H   0  0  0  0  0  0
  -22.7012  -31.3099   21.4117 H   0  0  0  0  0  0
  -23.3745  -35.9623   23.3320 H   0  0  0  0  0  0
  -24.3571  -36.8883   22.2044 H   0  0  0  0  0  0
  -23.7208  -37.6511   23.6618 H   0  0  0  0  0  0
  -26.0610  -31.5706   20.5955 H   0  0  0  0  0  0
  -26.8326  -30.8747   21.9898 H   0  0  0  0  0  0
  -28.0977  -29.0236   21.2243 H   0  0  0  0  0  0
  -26.0434  -26.0099   18.9202 H   0  0  0  0  0  0
  -23.9831  -27.3353   18.9824 H   0  0  0  0  0  0
  -23.7339  -30.6023   19.4057 H   0  0  0  0  0  0
  -22.7438  -29.2501   19.8620 H   0  0  0  0  0  0
  -25.1271  -36.1987   25.0827 H   0  0  0  0  0  0
  -20.9964  -28.3236   24.1450 H   0  0  0  0  0  0
  -20.5682  -26.2279   23.3615 H   0  0  0  0  0  0
  -21.6640  -26.7472   22.1220 H   0  0  0  0  0  0
  -19.6916  -25.6323   21.1238 H   0  0  0  0  0  0
  -19.6697  -27.3231   20.6771 H   0  0  0  0  0  0
  -17.4200  -26.6713   21.4014 H   0  0  0  0  0  0
  -18.0319  -26.0086   22.9016 H   0  0  0  0  0  0
  -19.7926  -30.7279   24.2303 H   0  0  0  0  0  0
  -17.5011  -31.6279   24.5181 H   0  0  0  0  0  0
  -15.5353  -30.3027   23.7640 H   0  0  0  0  0  0
  -15.8664  -28.0865   22.7047 H   0  0  0  0  0  0
  -24.5966  -30.7004   25.7838 H   0  0  0  0  0  0
  -24.8867  -32.2886   26.4839 H   0  0  0  0  0  0
  -25.8108  -30.9003   27.0276 H   0  0  0  0  0  0
  -26.2866  -29.6853   24.1096 H   0  0  0  0  0  0
  -27.3953  -29.7221   25.4610 H   0  0  0  0  0  0
  -27.8754  -30.4356   23.9376 H   0  0  0  0  0  0
  -27.2718  -33.3629   26.2066 H   0  0  0  0  0  0
  -28.3913  -32.6815   25.0346 H   0  0  0  0  0  0
  -28.0691  -31.8415   26.5438 H   0  0  0  0  0  0
  -28.2611  -38.0093   24.7523 H   0  0  0  0  0  0
  -28.1039  -36.2627   24.6287 H   0  0  0  0  0  0
  -27.2292  -37.1452   25.8878 H   0  0  0  0  0  0
  -20.9333  -29.8777   21.6956 H   0  0  0  0  0  0
  -26.0169  -38.2880   24.1444 H   0  0  0  0  0  0
  -32.1031  -17.5658   20.7795 H   0  0  0  0  0  0
  -31.5327  -21.8007   21.1774 H   0  0  0  0  0  0
  -33.9192  -20.0584   20.2511 H   0  0  0  0  0  0
  -33.8946  -19.0400   21.6980 H   0  0  0  0  0  0
  -33.6398  -20.7804   21.8370 H   0  0  0  0  0  0
  -27.2654  -18.4889   21.0946 H   0  0  0  0  0  0
  -27.5123  -18.8103   19.3699 H   0  0  0  0  0  0
  -27.1341  -20.1175   20.4706 H   0  0  0  0  0  0
  -26.8645  -24.4065   23.0116 H   0  0  0  0  0  0
  -28.5306  -23.9744   23.3714 H   0  0  0  0  0  0
  -27.4131  -22.7592   22.7728 H   0  0  0  0  0  0
  -26.0469  -24.4946   20.6291 H   0  0  0  0  0  0
  -26.5879  -22.8592   20.3454 H   0  0  0  0  0  0
  -27.1412  -24.1353   19.2781 H   0  0  0  0  0  0
  -29.9323  -16.6433   19.1428 H   0  0  0  0  0  0
  -28.4881  -16.7859   20.0664 H   0  0  0  0  0  0
  -29.6048  -25.7483   21.4738 H   0  0  0  0  0  0
  -28.0643  -26.1855   22.0916 H   0  0  0  0  0  0
  -30.0861  -23.2932   21.5521 H   0  0  0  0  0  0
  -29.6672  -23.3980   19.8518 H   0  0  0  0  0  0
  -29.1179  -15.2804   21.5415 H   0  0  0  0  0  0
  1 25  1  0  0  0
  1 30  2  0  0  0
  1 85  1  0  0  0
  2  3  1  0  0  0
  2 25  1  0  0  0
  2 87  1  0  0  0
  2 88  1  0  0  0
  3  4  1  0  0  0
  3 89  1  0  0  0
  3 90  1  0  0  0
  4  5  1  0  0  0
  4 91  1  0  0  0
  4 92  1  0  0  0
  5  6  1  0  0  0
  5 26  1  0  0  0
  5 93  1  0  0  0
  6 25  1  0  0  0
  6 94  1  0  0  0
  6 95  1  0  0  0
  7  8  2  0  0  0
  7 26  1  0  0  0
  7 29  1  0  0  0
  8  9  1  0  0  0
  8 22  1  0  0  0
  9 10  1  0  0  0
  9 27  2  0  0  0
 10 11  2  0  0  0
 10 15  1  0  0  0
 11 12  1  0  0  0
 11 96  1  0  0  0
 12 13  2  0  0  0
 12 97  1  0  0  0
 13 14  1  0  0  0
 13 31  1  0  0  0
 14 15  2  0  0  0
 14 98  1  0  0  0
 15 99  1  0  0  0
 16 17  2  0  0  0
 16 21  1  0  0  0
 16 31  1  0  0  0
 17 18  1  0  0  0
 17100  1  0  0  0
 18 19  2  0  0  0
 18101  1  0  0  0
 19 20  1  0  0  0
 19 24  1  0  0  0
 20 21  2  0  0  0
 20102  1  0  0  0
 21 23  1  0  0  0
 22 28  1  0  0  0
 22 32  2  0  0  0
 26 27  1  0  0  0
 28103  1  0  0  0
 28104  1  0  0  0
 29105  1  0  0  0
 29106  1  0  0  0
 33 34  1  0  0  0
 33 66  1  0  0  0
 33 70  2  0  0  0
 34 36  1  0  0  0
 34 59  1  0  0  0
 34107  1  0  0  0
 35 44  2  0  0  0
 35 45  1  0  0  0
 35 68  1  0  0  0
 36 56  1  0  0  0
 36108  1  0  0  0
 37 39  1  0  0  0
 37 47  1  0  0  0
 37 66  1  0  0  0
 37109  1  0  0  0
 38 43  2  0  0  0
 38 46  1  0  0  0
 38 47  1  0  0  0
 39 64  1  0  0  0
 39 67  2  0  0  0
 40 52  1  0  0  0
 40 53  2  0  0  0
 40 58  1  0  0  0
 41110  1  0  0  0
 41111  1  0  0  0
 41112  1  0  0  0
 41 48  1  0  0  0
 42 43  1  0  0  0
 42 66  1  0  0  0
 42113  1  0  0  0
 42114  1  0  0  0
 43 44  1  0  0  0
 44115  1  0  0  0
 45 46  2  0  0  0
 45116  1  0  0  0
 46117  1  0  0  0
 47118  1  0  0  0
 47119  1  0  0  0
 48 56  1  0  0  0
 48 65  1  0  0  0
 48120  1  0  0  0
 49 50  1  0  0  0
 49 53  1  0  0  0
 49 64  1  0  0  0
 49121  1  0  0  0
 50 51  1  0  0  0
 50122  1  0  0  0
 50123  1  0  0  0
 51 52  1  0  0  0
 51124  1  0  0  0
 51125  1  0  0  0
 52126  1  0  0  0
 52127  1  0  0  0
 53 54  1  0  0  0
 54 55  2  0  0  0
 54128  1  0  0  0
 55 57  1  0  0  0
 55129  1  0  0  0
 56 69  2  0  0  0
 57 58  2  0  0  0
 57130  1  0  0  0
 58131  1  0  0  0
 59 60  1  0  0  0
 59 61  1  0  0  0
 59 62  1  0  0  0
 60132  1  0  0  0
 60133  1  0  0  0
 60134  1  0  0  0
 61135  1  0  0  0
 61136  1  0  0  0
 61137  1  0  0  0
 62138  1  0  0  0
 62139  1  0  0  0
 62140  1  0  0  0
 63 65  1  0  0  0
 63141  1  0  0  0
 63142  1  0  0  0
 63143  1  0  0  0
 64144  1  0  0  0
 65145  1  0  0  0
 68 82  1  0  0  0
 71 73  2  0  0  0
 71 74  1  0  0  0
 71146  1  0  0  0
 72 73  1  0  0  0
 72 76  2  0  0  0
 72147  1  0  0  0
 73 77  1  0  0  0
 74 75  2  0  0  0
 74 81  1  0  0  0
 75 76  1  0  0  0
 75 78  1  0  0  0
 76 86  1  0  0  0
 77148  1  0  0  0
 77149  1  0  0  0
 77150  1  0  0  0
 78151  1  0  0  0
 78152  1  0  0  0
 78153  1  0  0  0
 79154  1  0  0  0
 79155  1  0  0  0
 79156  1  0  0  0
 79 84  1  0  0  0
 80 84  1  0  0  0
 80157  1  0  0  0
 80158  1  0  0  0
 80159  1  0  0  0
 81 85  1  0  0  0
 81160  1  0  0  0
 81161  1  0  0  0
 82 84  1  0  0  0
 82162  1  0  0  0
 82163  1  0  0  0
 83 84  1  0  0  0
 83 86  1  0  0  0
 83164  1  0  0  0
 83165  1  0  0  0
 85166  1  0  0  0
M  ISO  4   1 100  68 101  82 101  85 100
M  END
> <chiral flag>
0

> <version>
0

> <s_m_source_file>
/data/baiqing/PycharmProjects/Reinvent-master-3.2/result/LINK_invent/BTK/process_docking_weight1_custom_product_contain_oxygen_bond_distance_aromatic_linkinvent_7_9_3/rearranged_h_0135.sdf

> <i_m_source_file_index>
90

> <r_mmod_Potential_Energy-OPLS-2005>
14.2032890319824

> <r_mmod_Stretch_Energy-OPLS-2005>
60.6631164550781

> <r_mmod_Bend_Energy-OPLS-2005>
135.903839111328

> <r_mmod_Torsional_Energy-OPLS-2005>
271.020233154297

> <r_mmod_Improper_Torsional_Energy-OPLS-2005>
8.83888530731201

> <r_mmod_Van_der_Waal_Energy-OPLS-2005>
148.791580200195

> <r_mmod_Electrostatic_Energy-OPLS-2005>
-427.180267333984

> <r_mmod_Solvation_Energy-OPLS-2005>
-209.971649169922

> <b_mmod_Minimization_Converged-OPLS-2005>
0

> <r_mmod_RMS_Derivative-OPLS-2005>
2.11462998390198

$$$$
90
                    3D
 Structure written by MMmdl.
165173  0  0  1  0            999 V2000
  -30.6177  -14.7138   20.4562 C   0  0  0  0  0  0
  -30.4245  -12.4312   19.4761 C   0  0  0  0  0  0
  -29.5057  -12.4921   18.2363 C   0  0  0  0  0  0
  -28.0309  -12.3209   18.6494 C   0  0  0  0  0  0
  -27.6367  -13.2251   19.8481 C   0  0  2  0  0  0
  -28.6780  -13.1534   20.9854 C   0  0  0  0  0  0
  -25.2436  -13.8046   20.5667 C   0  0  0  0  0  0
  -24.1744  -13.0330   20.9231 C   0  0  0  0  0  0
  -24.6365  -11.6832   20.8775 C   0  0  0  0  0  0
  -23.9057  -10.4224   21.0430 C   0  0  0  0  0  0
  -24.3603   -9.4140   21.9203 C   0  0  0  0  0  0
  -23.6265   -8.2184   22.0760 C   0  0  0  0  0  0
  -22.4247   -8.0239   21.3550 C   0  0  0  0  0  0
  -21.9895   -9.0217   20.4649 C   0  0  0  0  0  0
  -22.7236  -10.2085   20.3065 C   0  0  0  0  0  0
  -21.6830   -6.0705   22.5281 C   0  0  0  0  0  0
  -21.4002   -6.5623   23.8212 C   0  0  0  0  0  0
  -21.3652   -5.6786   24.9181 C   0  0  0  0  0  0
  -21.6052   -4.3051   24.7238 C   0  0  0  0  0  0
  -21.8816   -3.8129   23.4362 C   0  0  0  0  0  0
  -21.9184   -4.6937   22.3412 C   0  0  0  0  0  0
  -22.7779  -13.5141   21.1885 C   0  0  0  0  0  0
  -22.1651   -4.2125   21.0988 F   0  0  0  0  0  0
  -21.5639   -3.4536   25.7752 F   0  0  0  0  0  0
  -29.9830  -13.4954   20.4076 N   0  0  0  0  0  0
  -26.2893  -12.9305   20.3258 N   0  0  0  0  0  0
  -25.9299  -11.6460   20.5773 N   0  0  0  0  0  0
  -22.0425  -12.8157   22.0459 N   0  0  0  0  0  0
  -25.4037  -15.1696   20.3990 N   0  0  0  0  0  0
  -31.8145  -14.7701   20.1619 O   0  0  0  0  0  0
  -21.6606   -6.8840   21.4241 O   0  0  0  0  0  0
  -22.3492  -14.5459   20.6728 O   0  0  0  0  0  0
  -24.6255  -31.8584   23.2045 C   0  0  0  0  0  0
  -25.9104  -32.4752   23.8368 C   0  0  1  0  0  0
  -27.2077  -27.2913   20.1377 C   0  0  0  0  0  0
  -25.5920  -33.8553   24.2286 N   0  0  0  0  0  0
  -23.4195  -30.4824   21.5463 C   0  0  2  0  0  0
  -24.8675  -28.9318   20.1183 C   0  0  0  0  0  0
  -22.7471  -29.4616   22.4946 C   0  0  0  0  0  0
  -18.0268  -28.1352   22.8448 C   0  0  0  0  0  0
  -24.1511  -36.7293   23.2641 C   0  0  0  0  0  0
  -25.9625  -30.7743   21.3871 C   0  0  0  0  0  0
  -26.0330  -29.3950   20.7423 C   0  0  0  0  0  0
  -27.2078  -28.5797   20.7564 C   0  0  0  0  0  0
  -26.0388  -26.9067   19.4578 C   0  0  0  0  0  0
  -24.8706  -27.6904   19.4677 C   0  0  0  0  0  0
  -23.6379  -29.8174   20.1628 C   0  0  0  0  0  0
  -25.4128  -36.3067   24.0339 C   0  0  1  0  0  0
  -20.5869  -28.3651   23.1261 C   0  0  2  0  0  0
  -20.6769  -26.9366   22.5406 C   0  0  0  0  0  0
  -19.5759  -26.6350   21.5187 C   0  0  0  0  0  0
  -18.1919  -26.7886   22.1587 C   0  0  0  0  0  0
  -19.1527  -28.8808   23.2840 C   0  0  0  0  0  0
  -18.9470  -30.1417   23.8843 C   0  0  0  0  0  0
  -17.6476  -30.6551   24.0544 C   0  0  0  0  0  0
  -25.9060  -34.9430   23.5122 C   0  0  0  0  0  0
  -16.5351  -29.9055   23.6328 C   0  0  0  0  0  0
  -16.7250  -28.6485   23.0316 C   0  0  0  0  0  0
  -26.4479  -31.6567   25.0745 C   0  0  0  0  0  0
  -25.3699  -31.3720   26.1475 C   0  0  0  0  0  0
  -27.0377  -30.2999   24.6212 C   0  0  0  0  0  0
  -27.6041  -32.4324   25.7485 C   0  0  0  0  0  0
  -27.5590  -37.1803   24.8469 C   0  0  0  0  0  0
  -21.4191  -29.3023   22.3685 N   0  0  0  0  0  0
  -26.4301  -37.3758   23.9410 N   0  0  0  0  0  0
  -24.6863  -31.0583   22.1008 N   0  0  0  0  0  0
  -23.4194  -28.8147   23.3008 O   0  0  0  0  0  0
  -28.3150  -26.4361   20.0421 O   0  0  0  0  0  0
  -26.5633  -34.8903   22.4685 O   0  0  0  0  0  0
  -23.5426  -32.1425   23.7372 O   0  0  0  0  0  0
  -31.6602  -19.0489   19.5625 C   0  0  0  0  0  0
  -30.7782  -20.0834   19.9168 C   0  0  0  0  0  0
  -31.3484  -17.6989   19.8059 C   0  0  0  0  0  0
  -29.5351  -19.8026   20.5157 C   0  0  0  0  0  0
  -29.2209  -18.3954   20.7595 C   0  0  0  0  0  0
  -30.1341  -17.3041   20.4234 C   0  0  0  0  0  0
  -26.7584  -18.0190   20.2938 C   0  0  0  0  0  0
  -27.2339  -23.5062   22.2010 C   0  0  0  0  0  0
  -26.8467  -23.6690   19.7726 C   0  0  0  0  0  0
  -28.5693  -21.0244   20.8437 C   0  0  0  0  0  0
  -27.8599  -18.0604   21.3602 C   0  0  0  0  0  0
  -29.0038  -22.5727   20.6221 C   0  0  0  0  0  0
  -28.5155  -25.2965   20.9708 C   0  0  0  0  0  0
  -27.9359  -23.7744   20.8519 C   0  0  0  0  0  0
  -29.8468  -15.8562   20.6494 N   0  0  0  0  0  0
  -31.4667  -12.5443   19.1750 H   0  0  0  0  0  0
  -30.3608  -11.4557   19.9596 H   0  0  0  0  0  0
  -29.7852  -11.7144   17.5239 H   0  0  0  0  0  0
  -29.6403  -13.4455   17.7212 H   0  0  0  0  0  0
  -27.8874  -11.2724   18.9174 H   0  0  0  0  0  0
  -27.3749  -12.5085   17.7979 H   0  0  0  0  0  0
  -27.6321  -14.2473   19.4692 H   0  0  0  0  0  0
  -28.7016  -12.1536   21.4222 H   0  0  0  0  0  0
  -28.4129  -13.8337   21.7962 H   0  0  0  0  0  0
  -25.2738   -9.5595   22.4797 H   0  0  0  0  0  0
  -23.9956   -7.4553   22.7471 H   0  0  0  0  0  0
  -21.0833   -8.8745   19.8940 H   0  0  0  0  0  0
  -22.3713  -10.9633   19.6175 H   0  0  0  0  0  0
  -21.1993   -7.6129   23.9716 H   0  0  0  0  0  0
  -21.1484   -6.0514   25.9086 H   0  0  0  0  0  0
  -22.0605   -2.7590   23.2875 H   0  0  0  0  0  0
  -22.4024  -11.9809   22.4847 H   0  0  0  0  0  0
  -21.1044  -13.1201   22.2675 H   0  0  0  0  0  0
  -24.6233  -15.8107   20.4837 H   0  0  0  0  0  0
  -26.2371  -15.6064   20.0318 H   0  0  0  0  0  0
  -26.7166  -32.5415   23.1113 H   0  0  0  0  0  0
  -25.0020  -33.9714   25.0396 H   0  0  0  0  0  0
  -22.7129  -31.3030   21.3999 H   0  0  0  0  0  0
  -23.3759  -35.9641   23.3297 H   0  0  0  0  0  0
  -24.3611  -36.8915   22.2060 H   0  0  0  0  0  0
  -23.7291  -37.6497   23.6673 H   0  0  0  0  0  0
  -26.1025  -31.5305   20.6119 H   0  0  0  0  0  0
  -26.8396  -30.8228   22.0204 H   0  0  0  0  0  0
  -28.1027  -28.9302   21.2501 H   0  0  0  0  0  0
  -26.0287  -25.9965   18.8832 H   0  0  0  0  0  0
  -23.9900  -27.3408   18.9493 H   0  0  0  0  0  0
  -23.7671  -30.5953   19.4093 H   0  0  0  0  0  0
  -22.7557  -29.2552   19.8536 H   0  0  0  0  0  0
  -25.1304  -36.1930   25.0838 H   0  0  0  0  0  0
  -20.9916  -28.3223   24.1400 H   0  0  0  0  0  0
  -20.5665  -26.2245   23.3599 H   0  0  0  0  0  0
  -21.6643  -26.7409   22.1198 H   0  0  0  0  0  0
  -19.6952  -25.6276   21.1198 H   0  0  0  0  0  0
  -19.6708  -27.3160   20.6720 H   0  0  0  0  0  0
  -17.4203  -26.6583   21.3979 H   0  0  0  0  0  0
  -18.0339  -26.0029   22.9001 H   0  0  0  0  0  0
  -19.7965  -30.7204   24.2201 H   0  0  0  0  0  0
  -17.5055  -31.6237   24.5132 H   0  0  0  0  0  0
  -15.5359  -30.2941   23.7699 H   0  0  0  0  0  0
  -15.8646  -28.0818   22.7022 H   0  0  0  0  0  0
  -24.5874  -30.7054   25.7826 H   0  0  0  0  0  0
  -24.8866  -32.2898   26.4867 H   0  0  0  0  0  0
  -25.8008  -30.8946   27.0289 H   0  0  0  0  0  0
  -26.2993  -29.6703   24.1238 H   0  0  0  0  0  0
  -27.4080  -29.7317   25.4750 H   0  0  0  0  0  0
  -27.8848  -30.4272   23.9454 H   0  0  0  0  0  0
  -27.2633  -33.3645   26.2028 H   0  0  0  0  0  0
  -28.3830  -32.6844   25.0269 H   0  0  0  0  0  0
  -28.0706  -31.8470   26.5421 H   0  0  0  0  0  0
  -28.2582  -38.0119   24.7512 H   0  0  0  0  0  0
  -28.1102  -36.2647   24.6284 H   0  0  0  0  0  0
  -27.2312  -37.1428   25.8869 H   0  0  0  0  0  0
  -20.9369  -29.8806   21.6953 H   0  0  0  0  0  0
  -26.0190  -38.2839   24.1392 H   0  0  0  0  0  0
  -32.5990  -19.2936   19.0858 H   0  0  0  0  0  0
  -31.0676  -21.1014   19.7012 H   0  0  0  0  0  0
  -32.0833  -16.9814   19.4825 H   0  0  0  0  0  0
  -25.7905  -17.7932   20.7421 H   0  0  0  0  0  0
  -26.9767  -17.2649   19.5376 H   0  0  0  0  0  0
  -26.6517  -18.9665   19.7703 H   0  0  0  0  0  0
  -26.7204  -22.5448   22.2185 H   0  0  0  0  0  0
  -26.4785  -24.2650   22.4112 H   0  0  0  0  0  0
  -27.9439  -23.5184   23.0294 H   0  0  0  0  0  0
  -26.4988  -22.6460   19.6409 H   0  0  0  0  0  0
  -27.2038  -24.0175   18.8040 H   0  0  0  0  0  0
  -25.9650  -24.2423   20.0499 H   0  0  0  0  0  0
  -28.2873  -20.9100   21.8890 H   0  0  0  0  0  0
  -27.6577  -20.8517   20.2771 H   0  0  0  0  0  0
  -27.5980  -18.7901   22.1242 H   0  0  0  0  0  0
  -27.8978  -17.1094   21.8906 H   0  0  0  0  0  0
  -29.3827  -22.6761   19.6038 H   0  0  0  0  0  0
  -29.8633  -22.7649   21.2667 H   0  0  0  0  0  0
  -28.2720  -25.6983   21.9567 H   0  0  0  0  0  0
  -29.5991  -25.1912   21.0168 H   0  0  0  0  0  0
  -28.8981  -15.6522   20.9158 H   0  0  0  0  0  0
  1 25  1  0  0  0
  1 30  2  0  0  0
  1 85  1  0  0  0
  2  3  1  0  0  0
  2 25  1  0  0  0
  2 86  1  0  0  0
  2 87  1  0  0  0
  3  4  1  0  0  0
  3 88  1  0  0  0
  3 89  1  0  0  0
  4  5  1  0  0  0
  4 90  1  0  0  0
  4 91  1  0  0  0
  5  6  1  0  0  0
  5 26  1  0  0  0
  5 92  1  0  0  0
  6 25  1  0  0  0
  6 93  1  0  0  0
  6 94  1  0  0  0
  7  8  2  0  0  0
  7 26  1  0  0  0
  7 29  1  0  0  0
  8  9  1  0  0  0
  8 22  1  0  0  0
  9 10  1  0  0  0
  9 27  2  0  0  0
 10 11  2  0  0  0
 10 15  1  0  0  0
 11 12  1  0  0  0
 11 95  1  0  0  0
 12 13  2  0  0  0
 12 96  1  0  0  0
 13 14  1  0  0  0
 13 31  1  0  0  0
 14 15  2  0  0  0
 14 97  1  0  0  0
 15 98  1  0  0  0
 16 17  2  0  0  0
 16 21  1  0  0  0
 16 31  1  0  0  0
 17 18  1  0  0  0
 17 99  1  0  0  0
 18 19  2  0  0  0
 18100  1  0  0  0
 19 20  1  0  0  0
 19 24  1  0  0  0
 20 21  2  0  0  0
 20101  1  0  0  0
 21 23  1  0  0  0
 22 28  1  0  0  0
 22 32  2  0  0  0
 26 27  1  0  0  0
 28102  1  0  0  0
 28103  1  0  0  0
 29104  1  0  0  0
 29105  1  0  0  0
 33 34  1  0  0  0
 33 66  1  0  0  0
 33 70  2  0  0  0
 34 36  1  0  0  0
 34 59  1  0  0  0
 34106  1  0  0  0
 35 44  2  0  0  0
 35 45  1  0  0  0
 35 68  1  0  0  0
 36 56  1  0  0  0
 36107  1  0  0  0
 37 39  1  0  0  0
 37 47  1  0  0  0
 37 66  1  0  0  0
 37108  1  0  0  0
 38 43  2  0  0  0
 38 46  1  0  0  0
 38 47  1  0  0  0
 39 64  1  0  0  0
 39 67  2  0  0  0
 40 52  1  0  0  0
 40 53  2  0  0  0
 40 58  1  0  0  0
 41109  1  0  0  0
 41110  1  0  0  0
 41111  1  0  0  0
 41 48  1  0  0  0
 42 43  1  0  0  0
 42 66  1  0  0  0
 42112  1  0  0  0
 42113  1  0  0  0
 43 44  1  0  0  0
 44114  1  0  0  0
 45 46  2  0  0  0
 45115  1  0  0  0
 46116  1  0  0  0
 47117  1  0  0  0
 47118  1  0  0  0
 48 56  1  0  0  0
 48 65  1  0  0  0
 48119  1  0  0  0
 49 50  1  0  0  0
 49 53  1  0  0  0
 49 64  1  0  0  0
 49120  1  0  0  0
 50 51  1  0  0  0
 50121  1  0  0  0
 50122  1  0  0  0
 51 52  1  0  0  0
 51123  1  0  0  0
 51124  1  0  0  0
 52125  1  0  0  0
 52126  1  0  0  0
 53 54  1  0  0  0
 54 55  2  0  0  0
 54127  1  0  0  0
 55 57  1  0  0  0
 55128  1  0  0  0
 56 69  2  0  0  0
 57 58  2  0  0  0
 57129  1  0  0  0
 58130  1  0  0  0
 59 60  1  0  0  0
 59 61  1  0  0  0
 59 62  1  0  0  0
 60131  1  0  0  0
 60132  1  0  0  0
 60133  1  0  0  0
 61134  1  0  0  0
 61135  1  0  0  0
 61136  1  0  0  0
 62137  1  0  0  0
 62138  1  0  0  0
 62139  1  0  0  0
 63 65  1  0  0  0
 63140  1  0  0  0
 63141  1  0  0  0
 63142  1  0  0  0
 64143  1  0  0  0
 65144  1  0  0  0
 68 83  1  0  0  0
 71 72  2  0  0  0
 71 73  1  0  0  0
 71145  1  0  0  0
 72 74  1  0  0  0
 72146  1  0  0  0
 73 76  2  0  0  0
 73147  1  0  0  0
 74 75  2  0  0  0
 74 80  1  0  0  0
 75 76  1  0  0  0
 75 81  1  0  0  0
 76 85  1  0  0  0
 77 81  1  0  0  0
 77148  1  0  0  0
 77149  1  0  0  0
 77150  1  0  0  0
 78151  1  0  0  0
 78152  1  0  0  0
 78153  1  0  0  0
 78 84  1  0  0  0
 79 84  1  0  0  0
 79154  1  0  0  0
 79155  1  0  0  0
 79156  1  0  0  0
 80 82  1  0  0  0
 80157  1  0  0  0
 80158  1  0  0  0
 81159  1  0  0  0
 81160  1  0  0  0
 82 84  1  0  0  0
 82161  1  0  0  0
 82162  1  0  0  0
 83 84  1  0  0  0
 83163  1  0  0  0
 83164  1  0  0  0
 85165  1  0  0  0
M  ISO  4   1 100  68 101  83 101  85 100
M  END
> <chiral flag>
0

> <version>
0

> <s_m_source_file>
/data/baiqing/PycharmProjects/Reinvent-master-3.2/result/LINK_invent/BTK/process_docking_weight1_custom_product_contain_oxygen_bond_distance_aromatic_linkinvent_7_9_3/rearranged_h_0135.sdf

> <i_m_source_file_index>
91

> <r_mmod_Potential_Energy-OPLS-2005>
213.663482666016

> <r_mmod_Stretch_Energy-OPLS-2005>
121.145225524902

> <r_mmod_Bend_Energy-OPLS-2005>
183.608459472656

> <r_mmod_Torsional_Energy-OPLS-2005>
261.320922851562

> <r_mmod_Improper_Torsional_Energy-OPLS-2005>
4.91358375549316

> <r_mmod_Van_der_Waal_Energy-OPLS-2005>
146.788177490234

> <r_mmod_Electrostatic_Energy-OPLS-2005>
-383.79541015625

> <r_mmod_Solvation_Energy-OPLS-2005>
-188.89990234375

> <b_mmod_Minimization_Converged-OPLS-2005>
0

> <r_mmod_RMS_Derivative-OPLS-2005>
3.06330752372742

$$$$
91
                    3D
 Structure written by MMmdl.
150158  0  0  1  0            999 V2000
  -30.5229  -15.0203   20.4031 C   0  0  0  0  0  0
  -30.4391  -12.6392   19.5012 C   0  0  0  0  0  0
  -29.5271  -12.5478   18.2549 C   0  0  0  0  0  0
  -28.0573  -12.3327   18.6650 C   0  0  0  0  0  0
  -27.6244  -13.2603   19.8318 C   0  0  2  0  0  0
  -28.6668  -13.3176   20.9682 C   0  0  0  0  0  0
  -25.2436  -13.8203   20.5722 C   0  0  0  0  0  0
  -24.1769  -13.0420   20.9232 C   0  0  0  0  0  0
  -24.6394  -11.6903   20.8722 C   0  0  0  0  0  0
  -23.9072  -10.4282   21.0383 C   0  0  0  0  0  0
  -24.3629   -9.4205   21.9166 C   0  0  0  0  0  0
  -23.6306   -8.2239   22.0747 C   0  0  0  0  0  0
  -22.4285   -8.0274   21.3547 C   0  0  0  0  0  0
  -21.9923   -9.0239   20.4643 C   0  0  0  0  0  0
  -22.7240  -10.2123   20.3035 C   0  0  0  0  0  0
  -21.6859   -6.0724   22.5268 C   0  0  0  0  0  0
  -21.4023   -6.5633   23.8200 C   0  0  0  0  0  0
  -21.3658   -5.6789   24.9164 C   0  0  0  0  0  0
  -21.6044   -4.3049   24.7225 C   0  0  0  0  0  0
  -21.8825   -3.8137   23.4346 C   0  0  0  0  0  0
  -21.9200   -4.6950   22.3395 C   0  0  0  0  0  0
  -22.7787  -13.5186   21.1880 C   0  0  0  0  0  0
  -22.1677   -4.2134   21.0972 F   0  0  0  0  0  0
  -21.5629   -3.4527   25.7746 F   0  0  0  0  0  0
  -29.9309  -13.7514   20.3610 N   0  0  0  0  0  0
  -26.2872  -12.9465   20.3227 N   0  0  0  0  0  0
  -25.9335  -11.6574   20.5689 N   0  0  0  0  0  0
  -22.0458  -12.8165   22.0442 N   0  0  0  0  0  0
  -25.4078  -15.1920   20.4128 N   0  0  0  0  0  0
  -31.7346  -15.0591   20.1638 O   0  0  0  0  0  0
  -21.6649   -6.8869   21.4233 O   0  0  0  0  0  0
  -22.3461  -14.5485   20.6724 O   0  0  0  0  0  0
  -24.6491  -31.8394   23.1842 C   0  0  0  0  0  0
  -25.9253  -32.4665   23.8241 C   0  0  1  0  0  0
  -27.2145  -27.0869   20.1531 C   0  0  0  0  0  0
  -25.5996  -33.8477   24.2154 N   0  0  0  0  0  0
  -23.4525  -30.4551   21.5346 C   0  0  2  0  0  0
  -24.9007  -28.8744   20.1086 C   0  0  0  0  0  0
  -22.7588  -29.4517   22.4887 C   0  0  0  0  0  0
  -18.0305  -28.1393   22.8482 C   0  0  0  0  0  0
  -24.1494  -36.7224   23.2638 C   0  0  0  0  0  0
  -26.0125  -30.6965   21.3901 C   0  0  0  0  0  0
  -26.0817  -29.3039   20.7286 C   0  0  0  0  0  0
  -27.2390  -28.4287   20.7279 C   0  0  0  0  0  0
  -26.0055  -26.7696   19.4962 C   0  0  0  0  0  0
  -24.8795  -27.6240   19.4740 C   0  0  0  0  0  0
  -23.6766  -29.7786   20.1554 C   0  0  0  0  0  0
  -25.4137  -36.3015   24.0300 C   0  0  1  0  0  0
  -20.5916  -28.3721   23.1249 C   0  0  2  0  0  0
  -20.6792  -26.9420   22.5421 C   0  0  0  0  0  0
  -19.5771  -26.6373   21.5227 C   0  0  0  0  0  0
  -18.1944  -26.7936   22.1619 C   0  0  0  0  0  0
  -19.1559  -28.8883   23.2846 C   0  0  0  0  0  0
  -18.9470  -30.1481   23.8861 C   0  0  0  0  0  0
  -17.6464  -30.6592   24.0548 C   0  0  0  0  0  0
  -25.9099  -34.9396   23.5035 C   0  0  0  0  0  0
  -16.5357  -29.9073   23.6345 C   0  0  0  0  0  0
  -16.7290  -28.6489   23.0376 C   0  0  0  0  0  0
  -26.4562  -31.6553   25.0705 C   0  0  0  0  0  0
  -25.3722  -31.3758   26.1365 C   0  0  0  0  0  0
  -27.0432  -30.2941   24.6328 C   0  0  0  0  0  0
  -27.6071  -32.4336   25.7510 C   0  0  0  0  0  0
  -27.5579  -37.1776   24.8461 C   0  0  0  0  0  0
  -21.4281  -29.3021   22.3611 N   0  0  0  0  0  0
  -26.4298  -37.3735   23.9400 N   0  0  0  0  0  0
  -24.7247  -31.0196   22.0901 N   0  0  0  0  0  0
  -23.4203  -28.8085   23.3070 O   0  0  0  0  0  0
  -28.2567  -26.0744   20.2212 O   0  0  0  0  0  0
  -26.5670  -34.8902   22.4606 O   0  0  0  0  0  0
  -23.5603  -32.1301   23.7044 O   0  0  0  0  0  0
  -27.6351  -20.8086   19.9276 C   0  0  0  0  0  0
  -27.9091  -19.3777   19.9485 C   0  0  0  0  0  0
  -28.7435  -21.5585   20.2395 C   0  0  0  0  0  0
  -29.2244  -19.1455   20.3026 C   0  0  0  0  0  0
  -26.8899  -18.3234   19.6125 C   0  0  0  0  0  0
  -29.0410  -23.1951   20.3566 C   0  0  0  0  0  0
  -30.1730  -17.7824   20.4681 C   0  0  0  0  0  0
  -27.9867  -24.5205   20.0845 C   0  0  0  0  0  0
  -29.7601  -16.2338   20.5067 N   0  0  0  0  0  0
  -29.7293  -20.5079   20.4749 O   0  0  0  0  0  0
  -31.4728  -12.8021   19.1921 H   0  0  0  0  0  0
  -30.4414  -11.6950   20.0478 H   0  0  0  0  0  0
  -29.8560  -11.7409   17.6004 H   0  0  0  0  0  0
  -29.6178  -13.4664   17.6731 H   0  0  0  0  0  0
  -27.9443  -11.2873   18.9559 H   0  0  0  0  0  0
  -27.4032  -12.4812   17.8047 H   0  0  0  0  0  0
  -27.5747  -14.2597   19.3977 H   0  0  0  0  0  0
  -28.7730  -12.3485   21.4561 H   0  0  0  0  0  0
  -28.3565  -14.0237   21.7392 H   0  0  0  0  0  0
  -25.2783   -9.5672   22.4725 H   0  0  0  0  0  0
  -24.0017   -7.4616   22.7456 H   0  0  0  0  0  0
  -21.0861   -8.8752   19.8935 H   0  0  0  0  0  0
  -22.3704  -10.9660   19.6136 H   0  0  0  0  0  0
  -21.2018   -7.6143   23.9696 H   0  0  0  0  0  0
  -21.1483   -6.0521   25.9064 H   0  0  0  0  0  0
  -22.0607   -2.7599   23.2848 H   0  0  0  0  0  0
  -22.4138  -11.9871   22.4873 H   0  0  0  0  0  0
  -21.1047  -13.1115   22.2599 H   0  0  0  0  0  0
  -24.6340  -15.8386   20.5131 H   0  0  0  0  0  0
  -26.2405  -15.6241   20.0389 H   0  0  0  0  0  0
  -26.7314  -32.5246   23.0951 H   0  0  0  0  0  0
  -25.0163  -33.9588   25.0320 H   0  0  0  0  0  0
  -22.7574  -31.2831   21.3785 H   0  0  0  0  0  0
  -23.3781  -35.9532   23.3290 H   0  0  0  0  0  0
  -24.3568  -36.8878   22.2053 H   0  0  0  0  0  0
  -23.7222  -37.6402   23.6693 H   0  0  0  0  0  0
  -26.1794  -31.4516   20.6201 H   0  0  0  0  0  0
  -26.8780  -30.7416   22.0390 H   0  0  0  0  0  0
  -28.1382  -28.7550   21.2310 H   0  0  0  0  0  0
  -25.8961  -25.8103   19.0132 H   0  0  0  0  0  0
  -23.9782  -27.2910   18.9761 H   0  0  0  0  0  0
  -23.8061  -30.5491   19.3950 H   0  0  0  0  0  0
  -22.7911  -29.2173   19.8514 H   0  0  0  0  0  0
  -25.1336  -36.1832   25.0796 H   0  0  0  0  0  0
  -20.9997  -28.3308   24.1376 H   0  0  0  0  0  0
  -20.5717  -26.2319   23.3633 H   0  0  0  0  0  0
  -21.6659  -26.7448   22.1201 H   0  0  0  0  0  0
  -19.6934  -25.6278   21.1274 H   0  0  0  0  0  0
  -19.6718  -27.3170   20.6743 H   0  0  0  0  0  0
  -17.4227  -26.6704   21.4003 H   0  0  0  0  0  0
  -18.0318  -26.0082   22.9011 H   0  0  0  0  0  0
  -19.7944  -30.7309   24.2215 H   0  0  0  0  0  0
  -17.5013  -31.6275   24.5144 H   0  0  0  0  0  0
  -15.5355  -30.2950   23.7706 H   0  0  0  0  0  0
  -15.8689  -28.0787   22.7121 H   0  0  0  0  0  0
  -24.5922  -30.7088   25.7668 H   0  0  0  0  0  0
  -24.8879  -32.2940   26.4697 H   0  0  0  0  0  0
  -25.7973  -30.8985   27.0195 H   0  0  0  0  0  0
  -26.3057  -29.6650   24.1312 H   0  0  0  0  0  0
  -27.3995  -29.7260   25.4928 H   0  0  0  0  0  0
  -27.8997  -30.4157   23.9688 H   0  0  0  0  0  0
  -27.2652  -33.3663   26.2002 H   0  0  0  0  0  0
  -28.3937  -32.6847   25.0387 H   0  0  0  0  0  0
  -28.0670  -31.8513   26.5496 H   0  0  0  0  0  0
  -28.2590  -38.0083   24.7534 H   0  0  0  0  0  0
  -28.1098  -36.2612   24.6286 H   0  0  0  0  0  0
  -27.2292  -37.1411   25.8866 H   0  0  0  0  0  0
  -20.9519  -29.8664   21.6709 H   0  0  0  0  0  0
  -26.0156  -38.2807   24.1407 H   0  0  0  0  0  0
  -26.6775  -21.2525   19.6846 H   0  0  0  0  0  0
  -26.1851  -18.7042   18.8730 H   0  0  0  0  0  0
  -26.3304  -18.0365   20.5038 H   0  0  0  0  0  0
  -27.3656  -17.4372   19.1930 H   0  0  0  0  0  0
  -29.8965  -23.3821   19.7079 H   0  0  0  0  0  0
  -29.4345  -23.3501   21.3611 H   0  0  0  0  0  0
  -30.7564  -17.9281   21.3781 H   0  0  0  0  0  0
  -30.9184  -17.8424   19.6749 H   0  0  0  0  0  0
  -27.1155  -24.3344   20.7143 H   0  0  0  0  0  0
  -27.6259  -24.3840   19.0648 H   0  0  0  0  0  0
  -28.7748  -16.0788   20.6538 H   0  0  0  0  0  0
  1 25  1  0  0  0
  1 30  2  0  0  0
  1 79  1  0  0  0
  2  3  1  0  0  0
  2 25  1  0  0  0
  2 81  1  0  0  0
  2 82  1  0  0  0
  3  4  1  0  0  0
  3 83  1  0  0  0
  3 84  1  0  0  0
  4  5  1  0  0  0
  4 85  1  0  0  0
  4 86  1  0  0  0
  5  6  1  0  0  0
  5 26  1  0  0  0
  5 87  1  0  0  0
  6 25  1  0  0  0
  6 88  1  0  0  0
  6 89  1  0  0  0
  7  8  2  0  0  0
  7 26  1  0  0  0
  7 29  1  0  0  0
  8  9  1  0  0  0
  8 22  1  0  0  0
  9 10  1  0  0  0
  9 27  2  0  0  0
 10 11  2  0  0  0
 10 15  1  0  0  0
 11 12  1  0  0  0
 11 90  1  0  0  0
 12 13  2  0  0  0
 12 91  1  0  0  0
 13 14  1  0  0  0
 13 31  1  0  0  0
 14 15  2  0  0  0
 14 92  1  0  0  0
 15 93  1  0  0  0
 16 17  2  0  0  0
 16 21  1  0  0  0
 16 31  1  0  0  0
 17 18  1  0  0  0
 17 94  1  0  0  0
 18 19  2  0  0  0
 18 95  1  0  0  0
 19 20  1  0  0  0
 19 24  1  0  0  0
 20 21  2  0  0  0
 20 96  1  0  0  0
 21 23  1  0  0  0
 22 28  1  0  0  0
 22 32  2  0  0  0
 26 27  1  0  0  0
 28 97  1  0  0  0
 28 98  1  0  0  0
 29 99  1  0  0  0
 29100  1  0  0  0
 33 34  1  0  0  0
 33 66  1  0  0  0
 33 70  2  0  0  0
 34 36  1  0  0  0
 34 59  1  0  0  0
 34101  1  0  0  0
 35 44  2  0  0  0
 35 45  1  0  0  0
 35 68  1  0  0  0
 36 56  1  0  0  0
 36102  1  0  0  0
 37 39  1  0  0  0
 37 47  1  0  0  0
 37 66  1  0  0  0
 37103  1  0  0  0
 38 43  2  0  0  0
 38 46  1  0  0  0
 38 47  1  0  0  0
 39 64  1  0  0  0
 39 67  2  0  0  0
 40 52  1  0  0  0
 40 53  2  0  0  0
 40 58  1  0  0  0
 41104  1  0  0  0
 41105  1  0  0  0
 41106  1  0  0  0
 41 48  1  0  0  0
 42 43  1  0  0  0
 42 66  1  0  0  0
 42107  1  0  0  0
 42108  1  0  0  0
 43 44  1  0  0  0
 44109  1  0  0  0
 45 46  2  0  0  0
 45110  1  0  0  0
 46111  1  0  0  0
 47112  1  0  0  0
 47113  1  0  0  0
 48 56  1  0  0  0
 48 65  1  0  0  0
 48114  1  0  0  0
 49 50  1  0  0  0
 49 53  1  0  0  0
 49 64  1  0  0  0
 49115  1  0  0  0
 50 51  1  0  0  0
 50116  1  0  0  0
 50117  1  0  0  0
 51 52  1  0  0  0
 51118  1  0  0  0
 51119  1  0  0  0
 52120  1  0  0  0
 52121  1  0  0  0
 53 54  1  0  0  0
 54 55  2  0  0  0
 54122  1  0  0  0
 55 57  1  0  0  0
 55123  1  0  0  0
 56 69  2  0  0  0
 57 58  2  0  0  0
 57124  1  0  0  0
 58125  1  0  0  0
 59 60  1  0  0  0
 59 61  1  0  0  0
 59 62  1  0  0  0
 60126  1  0  0  0
 60127  1  0  0  0
 60128  1  0  0  0
 61129  1  0  0  0
 61130  1  0  0  0
 61131  1  0  0  0
 62132  1  0  0  0
 62133  1  0  0  0
 62134  1  0  0  0
 63 65  1  0  0  0
 63135  1  0  0  0
 63136  1  0  0  0
 63137  1  0  0  0
 64138  1  0  0  0
 65139  1  0  0  0
 68 78  1  0  0  0
 71 72  1  0  0  0
 71 73  2  0  0  0
 71140  1  0  0  0
 72 74  2  0  0  0
 72 75  1  0  0  0
 73 76  1  0  0  0
 73 80  1  0  0  0
 74 77  1  0  0  0
 74 80  1  0  0  0
 75141  1  0  0  0
 75142  1  0  0  0
 75143  1  0  0  0
 76 78  1  0  0  0
 76144  1  0  0  0
 76145  1  0  0  0
 77 79  1  0  0  0
 77146  1  0  0  0
 77147  1  0  0  0
 78148  1  0  0  0
 78149  1  0  0  0
 79150  1  0  0  0
M  ISO  4   1 100  68 101  78 101  79 100
M  END
> <chiral flag>
0

> <version>
0

> <s_m_source_file>
/data/baiqing/PycharmProjects/Reinvent-master-3.2/result/LINK_invent/BTK/process_docking_weight1_custom_product_contain_oxygen_bond_distance_aromatic_linkinvent_7_9_3/rearranged_h_0135.sdf

> <i_m_source_file_index>
92

> <r_mmod_Potential_Energy-OPLS-2005>
533.164001464844

> <r_mmod_Stretch_Energy-OPLS-2005>
316.409729003906

> <r_mmod_Bend_Energy-OPLS-2005>
283.203796386719

> <r_mmod_Torsional_Energy-OPLS-2005>
200.050827026367

> <r_mmod_Improper_Torsional_Energy-OPLS-2005>
4.39107322692871

> <r_mmod_Van_der_Waal_Energy-OPLS-2005>
105.123382568359

> <r_mmod_Electrostatic_Energy-OPLS-2005>
-402.560913085938

> <r_mmod_Solvation_Energy-OPLS-2005>
-215.374771118164

> <b_mmod_Minimization_Converged-OPLS-2005>
0

> <r_mmod_RMS_Derivative-OPLS-2005>
2.35068893432617

$$$$
92
                    3D
 Structure written by MMmdl.
170178  0  0  1  0            999 V2000
  -30.7477  -14.4814   20.6042 C   0  0  0  0  0  0
  -30.4224  -12.3223   19.4405 C   0  0  0  0  0  0
  -29.5043  -12.5273   18.2194 C   0  0  0  0  0  0
  -28.0273  -12.3784   18.6269 C   0  0  0  0  0  0
  -27.6657  -13.2184   19.8799 C   0  0  2  0  0  0
  -28.7086  -13.0215   21.0072 C   0  0  0  0  0  0
  -25.2534  -13.8134   20.5602 C   0  0  0  0  0  0
  -24.1823  -13.0415   20.9175 C   0  0  0  0  0  0
  -24.6409  -11.6891   20.8741 C   0  0  0  0  0  0
  -23.9063  -10.4276   21.0388 C   0  0  0  0  0  0
  -24.3602   -9.4202   21.9181 C   0  0  0  0  0  0
  -23.6274   -8.2250   22.0755 C   0  0  0  0  0  0
  -22.4265   -8.0285   21.3544 C   0  0  0  0  0  0
  -21.9891   -9.0249   20.4644 C   0  0  0  0  0  0
  -22.7230  -10.2119   20.3053 C   0  0  0  0  0  0
  -21.6861   -6.0725   22.5265 C   0  0  0  0  0  0
  -21.4020   -6.5618   23.8203 C   0  0  0  0  0  0
  -21.3658   -5.6771   24.9165 C   0  0  0  0  0  0
  -21.6049   -4.3042   24.7217 C   0  0  0  0  0  0
  -21.8814   -3.8127   23.4337 C   0  0  0  0  0  0
  -21.9194   -4.6948   22.3391 C   0  0  0  0  0  0
  -22.7845  -13.5227   21.1807 C   0  0  0  0  0  0
  -22.1670   -4.2128   21.0961 F   0  0  0  0  0  0
  -21.5612   -3.4525   25.7747 F   0  0  0  0  0  0
  -30.0483  -13.3163   20.4634 N   0  0  0  0  0  0
  -26.3033  -12.9366   20.3363 N   0  0  0  0  0  0
  -25.9361  -11.6512   20.5807 N   0  0  0  0  0  0
  -22.0450  -12.8270   22.0379 N   0  0  0  0  0  0
  -25.4117  -15.1827   20.3830 N   0  0  0  0  0  0
  -31.8399  -14.6546   20.0598 O   0  0  0  0  0  0
  -21.6633   -6.8878   21.4242 O   0  0  0  0  0  0
  -22.3552  -14.5521   20.6639 O   0  0  0  0  0  0
  -24.6167  -31.8661   23.2085 C   0  0  0  0  0  0
  -25.9059  -32.4799   23.8395 C   0  0  1  0  0  0
  -27.2391  -27.4165   20.1070 C   0  0  0  0  0  0
  -25.5904  -33.8599   24.2315 N   0  0  0  0  0  0
  -23.4058  -30.4878   21.5493 C   0  0  2  0  0  0
  -24.8536  -28.9486   20.1180 C   0  0  0  0  0  0
  -22.7416  -29.4657   22.4998 C   0  0  0  0  0  0
  -18.0283  -28.1397   22.8496 C   0  0  0  0  0  0
  -24.1464  -36.7313   23.2631 C   0  0  0  0  0  0
  -25.9352  -30.8273   21.3622 C   0  0  0  0  0  0
  -26.0145  -29.4581   20.7135 C   0  0  0  0  0  0
  -27.2122  -28.7022   20.7010 C   0  0  0  0  0  0
  -26.0602  -26.9245   19.5052 C   0  0  0  0  0  0
  -24.8719  -27.6812   19.5109 C   0  0  0  0  0  0
  -23.6151  -29.8168   20.1649 C   0  0  0  0  0  0
  -25.4070  -36.3091   24.0338 C   0  0  1  0  0  0
  -20.5866  -28.3685   23.1315 C   0  0  2  0  0  0
  -20.6774  -26.9423   22.5423 C   0  0  0  0  0  0
  -19.5746  -26.6393   21.5227 C   0  0  0  0  0  0
  -18.1923  -26.7949   22.1629 C   0  0  0  0  0  0
  -19.1530  -28.8861   23.2900 C   0  0  0  0  0  0
  -18.9460  -30.1470   23.8907 C   0  0  0  0  0  0
  -17.6457  -30.6594   24.0584 C   0  0  0  0  0  0
  -25.9029  -34.9465   23.5123 C   0  0  0  0  0  0
  -16.5350  -29.9101   23.6330 C   0  0  0  0  0  0
  -16.7271  -28.6525   23.0340 C   0  0  0  0  0  0
  -26.4464  -31.6576   25.0734 C   0  0  0  0  0  0
  -25.3721  -31.3730   26.1495 C   0  0  0  0  0  0
  -27.0278  -30.2995   24.6142 C   0  0  0  0  0  0
  -27.6057  -32.4279   25.7482 C   0  0  0  0  0  0
  -27.5573  -37.1775   24.8432 C   0  0  0  0  0  0
  -21.4147  -29.3034   22.3709 N   0  0  0  0  0  0
  -26.4240  -37.3792   23.9443 N   0  0  0  0  0  0
  -24.6702  -31.0749   22.0988 N   0  0  0  0  0  0
  -23.4176  -28.8222   23.3069 O   0  0  0  0  0  0
  -28.4066  -26.6745   20.0835 O   0  0  0  0  0  0
  -26.5609  -34.8932   22.4699 O   0  0  0  0  0  0
  -23.5355  -32.1440   23.7470 O   0  0  0  0  0  0
  -29.1706  -19.0810   21.2803 C   0  0  0  0  0  0
  -31.4533  -17.5460   20.8005 C   0  0  0  0  0  0
  -30.3279  -19.7384   20.8055 C   0  0  0  0  0  0
  -29.1360  -17.6821   21.5179 C   0  0  0  0  0  0
  -31.4960  -18.9523   20.6076 C   0  0  0  0  0  0
  -30.2687  -16.8826   21.2097 C   0  0  0  0  0  0
  -29.4307  -24.4164   20.0477 C   0  0  0  0  0  0
  -32.8061  -19.5764   20.1533 C   0  0  0  0  0  0
  -26.6921  -17.9278   22.4008 C   0  0  0  0  0  0
  -31.2972  -22.0400   22.5995 C   0  0  0  0  0  0
  -28.8322  -22.2680   22.3044 C   0  0  0  0  0  0
  -30.2420  -21.2408   20.4236 C   0  0  0  0  0  0
  -27.8832  -17.0097   22.0755 C   0  0  0  0  0  0
  -30.4358  -23.7748   21.0336 C   0  0  0  0  0  0
  -28.3166  -25.3304   20.6068 C   0  0  0  0  0  0
  -30.1862  -22.3166   21.5658 C   0  0  0  0  0  0
  -30.1541  -15.4486   21.3383 N   0  0  0  0  0  0
  -29.5325  -24.2132   18.8345 O   0  0  0  0  0  0
  -31.4702  -12.3985   19.1442 H   0  0  0  0  0  0
  -30.3039  -11.3155   19.8424 H   0  0  0  0  0  0
  -29.7514  -11.8126   17.4330 H   0  0  0  0  0  0
  -29.6751  -13.5198   17.7973 H   0  0  0  0  0  0
  -27.8448  -11.3218   18.8249 H   0  0  0  0  0  0
  -27.3807  -12.6504   17.7924 H   0  0  0  0  0  0
  -27.7042  -14.2650   19.5777 H   0  0  0  0  0  0
  -28.6847  -11.9928   21.3691 H   0  0  0  0  0  0
  -28.4593  -13.6388   21.8709 H   0  0  0  0  0  0
  -25.2730   -9.5676   22.4783 H   0  0  0  0  0  0
  -23.9965   -7.4639   22.7474 H   0  0  0  0  0  0
  -21.0819   -8.8762   19.8961 H   0  0  0  0  0  0
  -22.3668  -10.9657   19.6170 H   0  0  0  0  0  0
  -21.2024   -7.6133   23.9709 H   0  0  0  0  0  0
  -21.1483   -6.0498   25.9064 H   0  0  0  0  0  0
  -22.0597   -2.7595   23.2848 H   0  0  0  0  0  0
  -22.4031  -11.9929   22.4799 H   0  0  0  0  0  0
  -21.1080  -13.1351   22.2539 H   0  0  0  0  0  0
  -24.6378  -15.8302   20.4794 H   0  0  0  0  0  0
  -26.2455  -15.6157   20.0080 H   0  0  0  0  0  0
  -26.7146  -32.5508   23.1174 H   0  0  0  0  0  0
  -24.9992  -33.9740   25.0420 H   0  0  0  0  0  0
  -22.6954  -31.3044   21.4067 H   0  0  0  0  0  0
  -23.3727  -35.9638   23.3221 H   0  0  0  0  0  0
  -24.3590  -36.9007   22.2064 H   0  0  0  0  0  0
  -23.7196  -37.6490   23.6693 H   0  0  0  0  0  0
  -26.0432  -31.5894   20.5893 H   0  0  0  0  0  0
  -26.8243  -30.8885   21.9779 H   0  0  0  0  0  0
  -28.1090  -29.0925   21.1609 H   0  0  0  0  0  0
  -26.0547  -25.9608   19.0167 H   0  0  0  0  0  0
  -23.9811  -27.2831   19.0455 H   0  0  0  0  0  0
  -23.7238  -30.5898   19.4031 H   0  0  0  0  0  0
  -22.7387  -29.2367   19.8710 H   0  0  0  0  0  0
  -25.1221  -36.1937   25.0822 H   0  0  0  0  0  0
  -20.9956  -28.3274   24.1440 H   0  0  0  0  0  0
  -20.5681  -26.2306   23.3614 H   0  0  0  0  0  0
  -21.6651  -26.7483   22.1207 H   0  0  0  0  0  0
  -19.6902  -25.6309   21.1246 H   0  0  0  0  0  0
  -19.6657  -27.3215   20.6765 H   0  0  0  0  0  0
  -17.4189  -26.6720   21.4028 H   0  0  0  0  0  0
  -18.0300  -26.0077   22.9006 H   0  0  0  0  0  0
  -19.7934  -30.7305   24.2244 H   0  0  0  0  0  0
  -17.5013  -31.6262   24.5206 H   0  0  0  0  0  0
  -15.5352  -30.3009   23.7638 H   0  0  0  0  0  0
  -15.8678  -28.0855   22.7025 H   0  0  0  0  0  0
  -24.5845  -30.7121   25.7857 H   0  0  0  0  0  0
  -24.8974  -32.2915   26.4964 H   0  0  0  0  0  0
  -25.8056  -30.8874   27.0245 H   0  0  0  0  0  0
  -26.2840  -29.6774   24.1145 H   0  0  0  0  0  0
  -27.3965  -29.7219   25.4632 H   0  0  0  0  0  0
  -27.8714  -30.4279   23.9354 H   0  0  0  0  0  0
  -27.2698  -33.3580   26.2077 H   0  0  0  0  0  0
  -28.3850  -32.6819   25.0286 H   0  0  0  0  0  0
  -28.0732  -31.8384   26.5376 H   0  0  0  0  0  0
  -28.2507  -38.0156   24.7610 H   0  0  0  0  0  0
  -28.1147  -36.2705   24.6040 H   0  0  0  0  0  0
  -27.2354  -37.1194   25.8848 H   0  0  0  0  0  0
  -20.9320  -29.8725   21.6893 H   0  0  0  0  0  0
  -26.0114  -38.2844   24.1535 H   0  0  0  0  0  0
  -28.2827  -19.6728   21.4325 H   0  0  0  0  0  0
  -32.3522  -16.9758   20.6146 H   0  0  0  0  0  0
  -33.6264  -18.8596   20.2017 H   0  0  0  0  0  0
  -33.0778  -20.4199   20.7875 H   0  0  0  0  0  0
  -32.7333  -19.9234   19.1224 H   0  0  0  0  0  0
  -25.8430  -17.3428   22.7550 H   0  0  0  0  0  0
  -26.3573  -18.4811   21.5229 H   0  0  0  0  0  0
  -26.9402  -18.6444   23.1850 H   0  0  0  0  0  0
  -31.2033  -21.0520   23.0520 H   0  0  0  0  0  0
  -31.2773  -22.7682   23.4116 H   0  0  0  0  0  0
  -32.2866  -22.1019   22.1452 H   0  0  0  0  0  0
  -28.7278  -21.3547   22.8911 H   0  0  0  0  0  0
  -27.9913  -22.3131   21.6123 H   0  0  0  0  0  0
  -28.7305  -23.0989   23.0041 H   0  0  0  0  0  0
  -29.3655  -21.3596   19.7863 H   0  0  0  0  0  0
  -31.0788  -21.4809   19.7683 H   0  0  0  0  0  0
  -28.1643  -16.4738   22.9831 H   0  0  0  0  0  0
  -27.5694  -16.2560   21.3577 H   0  0  0  0  0  0
  -30.5063  -24.4531   21.8846 H   0  0  0  0  0  0
  -31.4174  -23.8152   20.5598 H   0  0  0  0  0  0
  -28.3771  -25.3566   21.6949 H   0  0  0  0  0  0
  -27.3643  -24.8631   20.3566 H   0  0  0  0  0  0
  -29.3199  -15.1269   21.7994 H   0  0  0  0  0  0
  1 25  1  0  0  0
  1 30  2  0  0  0
  1 87  1  0  0  0
  2  3  1  0  0  0
  2 25  1  0  0  0
  2 89  1  0  0  0
  2 90  1  0  0  0
  3  4  1  0  0  0
  3 91  1  0  0  0
  3 92  1  0  0  0
  4  5  1  0  0  0
  4 93  1  0  0  0
  4 94  1  0  0  0
  5  6  1  0  0  0
  5 26  1  0  0  0
  5 95  1  0  0  0
  6 25  1  0  0  0
  6 96  1  0  0  0
  6 97  1  0  0  0
  7  8  2  0  0  0
  7 26  1  0  0  0
  7 29  1  0  0  0
  8  9  1  0  0  0
  8 22  1  0  0  0
  9 10  1  0  0  0
  9 27  2  0  0  0
 10 11  2  0  0  0
 10 15  1  0  0  0
 11 12  1  0  0  0
 11 98  1  0  0  0
 12 13  2  0  0  0
 12 99  1  0  0  0
 13 14  1  0  0  0
 13 31  1  0  0  0
 14 15  2  0  0  0
 14100  1  0  0  0
 15101  1  0  0  0
 16 17  2  0  0  0
 16 21  1  0  0  0
 16 31  1  0  0  0
 17 18  1  0  0  0
 17102  1  0  0  0
 18 19  2  0  0  0
 18103  1  0  0  0
 19 20  1  0  0  0
 19 24  1  0  0  0
 20 21  2  0  0  0
 20104  1  0  0  0
 21 23  1  0  0  0
 22 28  1  0  0  0
 22 32  2  0  0  0
 26 27  1  0  0  0
 28105  1  0  0  0
 28106  1  0  0  0
 29107  1  0  0  0
 29108  1  0  0  0
 33 34  1  0  0  0
 33 66  1  0  0  0
 33 70  2  0  0  0
 34 36  1  0  0  0
 34 59  1  0  0  0
 34109  1  0  0  0
 35 44  2  0  0  0
 35 45  1  0  0  0
 35 68  1  0  0  0
 36 56  1  0  0  0
 36110  1  0  0  0
 37 39  1  0  0  0
 37 47  1  0  0  0
 37 66  1  0  0  0
 37111  1  0  0  0
 38 43  2  0  0  0
 38 46  1  0  0  0
 38 47  1  0  0  0
 39 64  1  0  0  0
 39 67  2  0  0  0
 40 52  1  0  0  0
 40 53  2  0  0  0
 40 58  1  0  0  0
 41112  1  0  0  0
 41113  1  0  0  0
 41114  1  0  0  0
 41 48  1  0  0  0
 42 43  1  0  0  0
 42 66  1  0  0  0
 42115  1  0  0  0
 42116  1  0  0  0
 43 44  1  0  0  0
 44117  1  0  0  0
 45 46  2  0  0  0
 45118  1  0  0  0
 46119  1  0  0  0
 47120  1  0  0  0
 47121  1  0  0  0
 48 56  1  0  0  0
 48 65  1  0  0  0
 48122  1  0  0  0
 49 50  1  0  0  0
 49 53  1  0  0  0
 49 64  1  0  0  0
 49123  1  0  0  0
 50 51  1  0  0  0
 50124  1  0  0  0
 50125  1  0  0  0
 51 52  1  0  0  0
 51126  1  0  0  0
 51127  1  0  0  0
 52128  1  0  0  0
 52129  1  0  0  0
 53 54  1  0  0  0
 54 55  2  0  0  0
 54130  1  0  0  0
 55 57  1  0  0  0
 55131  1  0  0  0
 56 69  2  0  0  0
 57 58  2  0  0  0
 57132  1  0  0  0
 58133  1  0  0  0
 59 60  1  0  0  0
 59 61  1  0  0  0
 59 62  1  0  0  0
 60134  1  0  0  0
 60135  1  0  0  0
 60136  1  0  0  0
 61137  1  0  0  0
 61138  1  0  0  0
 61139  1  0  0  0
 62140  1  0  0  0
 62141  1  0  0  0
 62142  1  0  0  0
 63 65  1  0  0  0
 63143  1  0  0  0
 63144  1  0  0  0
 63145  1  0  0  0
 64146  1  0  0  0
 65147  1  0  0  0
 68 85  1  0  0  0
 71 73  2  0  0  0
 71 74  1  0  0  0
 71148  1  0  0  0
 72 75  2  0  0  0
 72 76  1  0  0  0
 72149  1  0  0  0
 73 75  1  0  0  0
 73 82  1  0  0  0
 74 76  2  0  0  0
 74 83  1  0  0  0
 75 78  1  0  0  0
 76 87  1  0  0  0
 77 84  1  0  0  0
 77 85  1  0  0  0
 77 88  2  0  0  0
 78150  1  0  0  0
 78151  1  0  0  0
 78152  1  0  0  0
 79 83  1  0  0  0
 79153  1  0  0  0
 79154  1  0  0  0
 79155  1  0  0  0
 80156  1  0  0  0
 80157  1  0  0  0
 80158  1  0  0  0
 80 86  1  0  0  0
 81 86  1  0  0  0
 81159  1  0  0  0
 81160  1  0  0  0
 81161  1  0  0  0
 82 86  1  0  0  0
 82162  1  0  0  0
 82163  1  0  0  0
 83164  1  0  0  0
 83165  1  0  0  0
 84 86  1  0  0  0
 84166  1  0  0  0
 84167  1  0  0  0
 85168  1  0  0  0
 85169  1  0  0  0
 87170  1  0  0  0
M  ISO  4   1 100  68 101  85 101  87 100
M  END
> <chiral flag>
0

> <version>
0

> <s_m_source_file>
/data/baiqing/PycharmProjects/Reinvent-master-3.2/result/LINK_invent/BTK/process_docking_weight1_custom_product_contain_oxygen_bond_distance_aromatic_linkinvent_7_9_3/rearranged_h_0135.sdf

> <i_m_source_file_index>
93

> <r_mmod_Potential_Energy-OPLS-2005>
6.95291900634766

> <r_mmod_Stretch_Energy-OPLS-2005>
49.5830993652344

> <r_mmod_Bend_Energy-OPLS-2005>
118.046699523926

> <r_mmod_Torsional_Energy-OPLS-2005>
234.264419555664

> <r_mmod_Improper_Torsional_Energy-OPLS-2005>
3.78761768341064

> <r_mmod_Van_der_Waal_Energy-OPLS-2005>
148.556030273438

> <r_mmod_Electrostatic_Energy-OPLS-2005>
-353.615081787109

> <r_mmod_Solvation_Energy-OPLS-2005>
-207.476303100586

> <b_mmod_Minimization_Converged-OPLS-2005>
0

> <r_mmod_RMS_Derivative-OPLS-2005>
3.09245944023132

$$$$
93
                    3D
 Structure written by MMmdl.
167175  0  0  1  0            999 V2000
  -30.6385  -14.6086   20.5306 C   0  0  0  0  0  0
  -30.4397  -12.3846   19.4290 C   0  0  0  0  0  0
  -29.5025  -12.4973   18.2063 C   0  0  0  0  0  0
  -28.0251  -12.3373   18.6223 C   0  0  0  0  0  0
  -27.6507  -13.2085   19.8506 C   0  0  2  0  0  0
  -28.6983  -13.0563   20.9741 C   0  0  0  0  0  0
  -25.2569  -13.8142   20.5653 C   0  0  0  0  0  0
  -24.1832  -13.0420   20.9175 C   0  0  0  0  0  0
  -24.6387  -11.6894   20.8728 C   0  0  0  0  0  0
  -23.9051  -10.4284   21.0404 C   0  0  0  0  0  0
  -24.3606   -9.4202   21.9180 C   0  0  0  0  0  0
  -23.6279   -8.2240   22.0759 C   0  0  0  0  0  0
  -22.4265   -8.0274   21.3546 C   0  0  0  0  0  0
  -21.9898   -9.0251   20.4651 C   0  0  0  0  0  0
  -22.7226  -10.2126   20.3056 C   0  0  0  0  0  0
  -21.6849   -6.0723   22.5276 C   0  0  0  0  0  0
  -21.4008   -6.5633   23.8206 C   0  0  0  0  0  0
  -21.3662   -5.6790   24.9172 C   0  0  0  0  0  0
  -21.6045   -4.3052   24.7226 C   0  0  0  0  0  0
  -21.8821   -3.8140   23.4349 C   0  0  0  0  0  0
  -21.9193   -4.6951   22.3402 C   0  0  0  0  0  0
  -22.7858  -13.5223   21.1842 C   0  0  0  0  0  0
  -22.1662   -4.2139   21.0978 F   0  0  0  0  0  0
  -21.5634   -3.4539   25.7739 F   0  0  0  0  0  0
  -30.0105  -13.4000   20.4055 N   0  0  0  0  0  0
  -26.2977  -12.9308   20.3249 N   0  0  0  0  0  0
  -25.9307  -11.6474   20.5713 N   0  0  0  0  0  0
  -22.0505  -12.8223   22.0404 N   0  0  0  0  0  0
  -25.4274  -15.1863   20.4061 N   0  0  0  0  0  0
  -31.8166  -14.7721   20.2015 O   0  0  0  0  0  0
  -21.6638   -6.8866   21.4236 O   0  0  0  0  0  0
  -22.3553  -14.5537   20.6693 O   0  0  0  0  0  0
  -24.6225  -31.8635   23.2069 C   0  0  0  0  0  0
  -25.9094  -32.4802   23.8393 C   0  0  1  0  0  0
  -27.2295  -27.3608   20.1159 C   0  0  0  0  0  0
  -25.5923  -33.8608   24.2318 N   0  0  0  0  0  0
  -23.4151  -30.4859   21.5486 C   0  0  2  0  0  0
  -24.8633  -28.9365   20.1280 C   0  0  0  0  0  0
  -22.7452  -29.4631   22.4960 C   0  0  0  0  0  0
  -18.0280  -28.1387   22.8485 C   0  0  0  0  0  0
  -24.1477  -36.7299   23.2639 C   0  0  0  0  0  0
  -25.9521  -30.8024   21.3755 C   0  0  0  0  0  0
  -26.0291  -29.4250   20.7357 C   0  0  0  0  0  0
  -27.2201  -28.6447   20.7309 C   0  0  0  0  0  0
  -26.0475  -26.9066   19.5001 C   0  0  0  0  0  0
  -24.8692  -27.6753   19.5100 C   0  0  0  0  0  0
  -23.6330  -29.8184   20.1657 C   0  0  0  0  0  0
  -25.4105  -36.3099   24.0336 C   0  0  1  0  0  0
  -20.5876  -28.3685   23.1290 C   0  0  2  0  0  0
  -20.6767  -26.9412   22.5404 C   0  0  0  0  0  0
  -19.5739  -26.6384   21.5211 C   0  0  0  0  0  0
  -18.1927  -26.7928   22.1627 C   0  0  0  0  0  0
  -19.1534  -28.8848   23.2884 C   0  0  0  0  0  0
  -18.9467  -30.1453   23.8893 C   0  0  0  0  0  0
  -17.6466  -30.6589   24.0569 C   0  0  0  0  0  0
  -25.9041  -34.9468   23.5120 C   0  0  0  0  0  0
  -16.5352  -29.9095   23.6331 C   0  0  0  0  0  0
  -16.7271  -28.6517   23.0347 C   0  0  0  0  0  0
  -26.4485  -31.6593   25.0745 C   0  0  0  0  0  0
  -25.3727  -31.3741   26.1481 C   0  0  0  0  0  0
  -27.0325  -30.3023   24.6169 C   0  0  0  0  0  0
  -27.6046  -32.4330   25.7515 C   0  0  0  0  0  0
  -27.5576  -37.1804   24.8468 C   0  0  0  0  0  0
  -21.4171  -29.3051   22.3696 N   0  0  0  0  0  0
  -26.4286  -37.3788   23.9411 N   0  0  0  0  0  0
  -24.6818  -31.0669   22.1010 N   0  0  0  0  0  0
  -23.4187  -28.8170   23.3033 O   0  0  0  0  0  0
  -28.3553  -26.5704   19.9300 O   0  0  0  0  0  0
  -26.5600  -34.8928   22.4682 O   0  0  0  0  0  0
  -23.5395  -32.1431   23.7408 O   0  0  0  0  0  0
  -30.3017  -17.9685   23.6908 C   0  0  0  0  0  0
  -29.9490  -18.2089   20.9383 C   0  0  0  0  0  0
  -30.2117  -16.7980   22.9203 C   0  0  0  0  0  0
  -30.2336  -19.2530   23.1168 C   0  0  0  0  0  0
  -30.0488  -16.8904   21.5173 C   0  0  0  0  0  0
  -30.0359  -19.4193   21.7172 C   0  0  0  0  0  0
  -28.7346  -24.2533   20.8886 C   0  0  0  0  0  0
  -29.4202  -23.2044   21.4633 C   0  0  0  0  0  0
  -30.2731  -15.4602   23.6453 C   0  0  0  0  0  0
  -30.4587  -20.4152   24.0581 C   0  0  0  0  0  0
  -31.9657  -23.2554   21.6745 C   0  0  0  0  0  0
  -30.4249  -26.2667   20.8579 C   0  0  0  0  0  0
  -30.6128  -23.4602   22.3717 C   0  0  0  0  0  0
  -29.0132  -21.6851   21.3219 C   0  0  0  0  0  0
  -28.9584  -25.8101   21.0018 C   0  0  1  0  0  0
  -29.8081  -15.6663   20.7762 N   0  0  0  0  0  0
  -30.0790  -20.6968   21.1152 O   0  0  0  0  0  0
  -31.4784  -12.5203   19.1236 H   0  0  0  0  0  0
  -30.3810  -11.3893   19.8704 H   0  0  0  0  0  0
  -29.7660  -11.7435   17.4621 H   0  0  0  0  0  0
  -29.6429  -13.4649   17.7217 H   0  0  0  0  0  0
  -27.8602  -11.2836   18.8524 H   0  0  0  0  0  0
  -27.3711  -12.5698   17.7816 H   0  0  0  0  0  0
  -27.6683  -14.2429   19.5081 H   0  0  0  0  0  0
  -28.7121  -12.0339   21.3528 H   0  0  0  0  0  0
  -28.4401  -13.6869   21.8242 H   0  0  0  0  0  0
  -25.2754   -9.5681   22.4749 H   0  0  0  0  0  0
  -23.9992   -7.4634   22.7483 H   0  0  0  0  0  0
  -21.0829   -8.8765   19.8960 H   0  0  0  0  0  0
  -22.3684  -10.9662   19.6168 H   0  0  0  0  0  0
  -21.1995   -7.6144   23.9701 H   0  0  0  0  0  0
  -21.1483   -6.0525   25.9072 H   0  0  0  0  0  0
  -22.0599   -2.7602   23.2852 H   0  0  0  0  0  0
  -22.4126  -11.9885   22.4794 H   0  0  0  0  0  0
  -21.1128  -13.1263   22.2608 H   0  0  0  0  0  0
  -24.6554  -15.8343   20.5179 H   0  0  0  0  0  0
  -26.2620  -15.6305   20.0456 H   0  0  0  0  0  0
  -26.7165  -32.5491   23.1156 H   0  0  0  0  0  0
  -25.0083  -33.9762   25.0467 H   0  0  0  0  0  0
  -22.7085  -31.3063   21.4052 H   0  0  0  0  0  0
  -23.3741  -35.9628   23.3318 H   0  0  0  0  0  0
  -24.3559  -36.8902   22.2048 H   0  0  0  0  0  0
  -23.7239  -37.6515   23.6640 H   0  0  0  0  0  0
  -26.0726  -31.5571   20.5975 H   0  0  0  0  0  0
  -26.8381  -30.8624   21.9963 H   0  0  0  0  0  0
  -28.1283  -29.0312   21.1736 H   0  0  0  0  0  0
  -26.0450  -25.9497   18.9990 H   0  0  0  0  0  0
  -23.9797  -27.2965   19.0263 H   0  0  0  0  0  0
  -23.7586  -30.5948   19.4104 H   0  0  0  0  0  0
  -22.7521  -29.2510   19.8608 H   0  0  0  0  0  0
  -25.1280  -36.1960   25.0827 H   0  0  0  0  0  0
  -20.9964  -28.3254   24.1413 H   0  0  0  0  0  0
  -20.5671  -26.2301   23.3611 H   0  0  0  0  0  0
  -21.6643  -26.7441   22.1199 H   0  0  0  0  0  0
  -19.6900  -25.6298   21.1243 H   0  0  0  0  0  0
  -19.6676  -27.3192   20.6740 H   0  0  0  0  0  0
  -17.4197  -26.6687   21.4031 H   0  0  0  0  0  0
  -18.0319  -26.0069   22.9018 H   0  0  0  0  0  0
  -19.7949  -30.7270   24.2258 H   0  0  0  0  0  0
  -17.5033  -31.6264   24.5176 H   0  0  0  0  0  0
  -15.5365  -30.3004   23.7655 H   0  0  0  0  0  0
  -15.8673  -28.0846   22.7053 H   0  0  0  0  0  0
  -24.5866  -30.7128   25.7821 H   0  0  0  0  0  0
  -24.8958  -32.2915   26.4937 H   0  0  0  0  0  0
  -25.8050  -30.8893   27.0240 H   0  0  0  0  0  0
  -26.2890  -29.6802   24.1177 H   0  0  0  0  0  0
  -27.4018  -29.7259   25.4662 H   0  0  0  0  0  0
  -27.8760  -30.4329   23.9389 H   0  0  0  0  0  0
  -27.2636  -33.3606   26.2127 H   0  0  0  0  0  0
  -28.3836  -32.6945   25.0338 H   0  0  0  0  0  0
  -28.0733  -31.8445   26.5412 H   0  0  0  0  0  0
  -28.2601  -38.0092   24.7508 H   0  0  0  0  0  0
  -28.1063  -36.2631   24.6292 H   0  0  0  0  0  0
  -27.2294  -37.1457   25.8869 H   0  0  0  0  0  0
  -20.9350  -29.8798   21.6922 H   0  0  0  0  0  0
  -26.0178  -38.2863   24.1421 H   0  0  0  0  0  0
  -30.4406  -17.8745   24.7601 H   0  0  0  0  0  0
  -29.8064  -18.3003   19.8706 H   0  0  0  0  0  0
  -27.8836  -23.9936   20.2744 H   0  0  0  0  0  0
  -30.3945  -15.5905   24.7206 H   0  0  0  0  0  0
  -31.1132  -14.8612   23.2921 H   0  0  0  0  0  0
  -29.3534  -14.8969   23.4962 H   0  0  0  0  0  0
  -30.6267  -20.0809   25.0828 H   0  0  0  0  0  0
  -29.5971  -21.0792   24.0848 H   0  0  0  0  0  0
  -31.3558  -20.9513   23.7537 H   0  0  0  0  0  0
  -32.1048  -22.2204   21.3654 H   0  0  0  0  0  0
  -32.7885  -23.5054   22.3443 H   0  0  0  0  0  0
  -32.0634  -23.8776   20.7836 H   0  0  0  0  0  0
  -31.0336  -26.1183   21.7449 H   0  0  0  0  0  0
  -30.4756  -27.3374   20.6595 H   0  0  0  0  0  0
  -30.9103  -25.7681   20.0193 H   0  0  0  0  0  0
  -30.5344  -22.8422   23.2530 H   0  0  0  0  0  0
  -30.5458  -24.4484   22.8131 H   0  0  0  0  0  0
  -28.4364  -21.4137   22.2049 H   0  0  0  0  0  0
  -28.3173  -21.5919   20.4876 H   0  0  0  0  0  0
  -28.5576  -26.1556   21.9556 H   0  0  0  0  0  0
  -28.8376  -15.3973   20.7545 H   0  0  0  0  0  0
  1 25  1  0  0  0
  1 30  2  0  0  0
  1 86  1  0  0  0
  2  3  1  0  0  0
  2 25  1  0  0  0
  2 88  1  0  0  0
  2 89  1  0  0  0
  3  4  1  0  0  0
  3 90  1  0  0  0
  3 91  1  0  0  0
  4  5  1  0  0  0
  4 92  1  0  0  0
  4 93  1  0  0  0
  5  6  1  0  0  0
  5 26  1  0  0  0
  5 94  1  0  0  0
  6 25  1  0  0  0
  6 95  1  0  0  0
  6 96  1  0  0  0
  7  8  2  0  0  0
  7 26  1  0  0  0
  7 29  1  0  0  0
  8  9  1  0  0  0
  8 22  1  0  0  0
  9 10  1  0  0  0
  9 27  2  0  0  0
 10 11  2  0  0  0
 10 15  1  0  0  0
 11 12  1  0  0  0
 11 97  1  0  0  0
 12 13  2  0  0  0
 12 98  1  0  0  0
 13 14  1  0  0  0
 13 31  1  0  0  0
 14 15  2  0  0  0
 14 99  1  0  0  0
 15100  1  0  0  0
 16 17  2  0  0  0
 16 21  1  0  0  0
 16 31  1  0  0  0
 17 18  1  0  0  0
 17101  1  0  0  0
 18 19  2  0  0  0
 18102  1  0  0  0
 19 20  1  0  0  0
 19 24  1  0  0  0
 20 21  2  0  0  0
 20103  1  0  0  0
 21 23  1  0  0  0
 22 28  1  0  0  0
 22 32  2  0  0  0
 26 27  1  0  0  0
 28104  1  0  0  0
 28105  1  0  0  0
 29106  1  0  0  0
 29107  1  0  0  0
 33 34  1  0  0  0
 33 66  1  0  0  0
 33 70  2  0  0  0
 34 36  1  0  0  0
 34 59  1  0  0  0
 34108  1  0  0  0
 35 44  2  0  0  0
 35 45  1  0  0  0
 35 68  1  0  0  0
 36 56  1  0  0  0
 36109  1  0  0  0
 37 39  1  0  0  0
 37 47  1  0  0  0
 37 66  1  0  0  0
 37110  1  0  0  0
 38 43  2  0  0  0
 38 46  1  0  0  0
 38 47  1  0  0  0
 39 64  1  0  0  0
 39 67  2  0  0  0
 40 52  1  0  0  0
 40 53  2  0  0  0
 40 58  1  0  0  0
 41111  1  0  0  0
 41112  1  0  0  0
 41113  1  0  0  0
 41 48  1  0  0  0
 42 43  1  0  0  0
 42 66  1  0  0  0
 42114  1  0  0  0
 42115  1  0  0  0
 43 44  1  0  0  0
 44116  1  0  0  0
 45 46  2  0  0  0
 45117  1  0  0  0
 46118  1  0  0  0
 47119  1  0  0  0
 47120  1  0  0  0
 48 56  1  0  0  0
 48 65  1  0  0  0
 48121  1  0  0  0
 49 50  1  0  0  0
 49 53  1  0  0  0
 49 64  1  0  0  0
 49122  1  0  0  0
 50 51  1  0  0  0
 50123  1  0  0  0
 50124  1  0  0  0
 51 52  1  0  0  0
 51125  1  0  0  0
 51126  1  0  0  0
 52127  1  0  0  0
 52128  1  0  0  0
 53 54  1  0  0  0
 54 55  2  0  0  0
 54129  1  0  0  0
 55 57  1  0  0  0
 55130  1  0  0  0
 56 69  2  0  0  0
 57 58  2  0  0  0
 57131  1  0  0  0
 58132  1  0  0  0
 59 60  1  0  0  0
 59 61  1  0  0  0
 59 62  1  0  0  0
 60133  1  0  0  0
 60134  1  0  0  0
 60135  1  0  0  0
 61136  1  0  0  0
 61137  1  0  0  0
 61138  1  0  0  0
 62139  1  0  0  0
 62140  1  0  0  0
 62141  1  0  0  0
 63 65  1  0  0  0
 63142  1  0  0  0
 63143  1  0  0  0
 63144  1  0  0  0
 64145  1  0  0  0
 65146  1  0  0  0
 68 85  1  0  0  0
 71 73  2  0  0  0
 71 74  1  0  0  0
 71147  1  0  0  0
 72 75  2  0  0  0
 72 76  1  0  0  0
 72148  1  0  0  0
 73 75  1  0  0  0
 73 79  1  0  0  0
 74 76  2  0  0  0
 74 80  1  0  0  0
 75 86  1  0  0  0
 76 87  1  0  0  0
 77 78  2  0  0  0
 77 85  1  0  0  0
 77149  1  0  0  0
 78 83  1  0  0  0
 78 84  1  0  0  0
 79150  1  0  0  0
 79151  1  0  0  0
 79152  1  0  0  0
 80153  1  0  0  0
 80154  1  0  0  0
 80155  1  0  0  0
 81 83  1  0  0  0
 81156  1  0  0  0
 81157  1  0  0  0
 81158  1  0  0  0
 82159  1  0  0  0
 82160  1  0  0  0
 82161  1  0  0  0
 82 85  1  0  0  0
 83162  1  0  0  0
 83163  1  0  0  0
 84 87  1  0  0  0
 84164  1  0  0  0
 84165  1  0  0  0
 85166  1  0  0  0
 86167  1  0  0  0
M  ISO  4   1 100  68 101  85 101  86 100
M  END
> <chiral flag>
0

> <version>
0

> <s_m_source_file>
/data/baiqing/PycharmProjects/Reinvent-master-3.2/result/LINK_invent/BTK/process_docking_weight1_custom_product_contain_oxygen_bond_distance_aromatic_linkinvent_7_9_3/rearranged_h_0135.sdf

> <i_m_source_file_index>
94

> <r_mmod_Potential_Energy-OPLS-2005>
118.685089111328

> <r_mmod_Stretch_Energy-OPLS-2005>
74.6586990356445

> <r_mmod_Bend_Energy-OPLS-2005>
148.224075317383

> <r_mmod_Torsional_Energy-OPLS-2005>
301.873748779297

> <r_mmod_Improper_Torsional_Energy-OPLS-2005>
10.4594507217407

> <r_mmod_Van_der_Waal_Energy-OPLS-2005>
145.148223876953

> <r_mmod_Electrostatic_Energy-OPLS-2005>
-397.303833007812

> <r_mmod_Solvation_Energy-OPLS-2005>
-200.617309570312

> <b_mmod_Minimization_Converged-OPLS-2005>
0

> <r_mmod_RMS_Derivative-OPLS-2005>
2.01750040054321

$$$$
94
                    3D
 Structure written by MMmdl.
162170  0  0  1  0            999 V2000
  -30.6201  -14.7065   20.4916 C   0  0  0  0  0  0
  -30.4482  -12.4368   19.4644 C   0  0  0  0  0  0
  -29.5107  -12.4808   18.2366 C   0  0  0  0  0  0
  -28.0424  -12.2977   18.6623 C   0  0  0  0  0  0
  -27.6476  -13.2131   19.8486 C   0  0  2  0  0  0
  -28.6932  -13.1430   20.9837 C   0  0  0  0  0  0
  -25.2568  -13.8144   20.5690 C   0  0  0  0  0  0
  -24.1814  -13.0444   20.9167 C   0  0  0  0  0  0
  -24.6344  -11.6911   20.8712 C   0  0  0  0  0  0
  -23.9013  -10.4300   21.0415 C   0  0  0  0  0  0
  -24.3575   -9.4231   21.9192 C   0  0  0  0  0  0
  -23.6253   -8.2274   22.0763 C   0  0  0  0  0  0
  -22.4229   -8.0289   21.3561 C   0  0  0  0  0  0
  -21.9850   -9.0263   20.4670 C   0  0  0  0  0  0
  -22.7181  -10.2140   20.3077 C   0  0  0  0  0  0
  -21.6864   -6.0724   22.5282 C   0  0  0  0  0  0
  -21.4042   -6.5628   23.8212 C   0  0  0  0  0  0
  -21.3637   -5.6785   24.9166 C   0  0  0  0  0  0
  -21.6035   -4.3049   24.7224 C   0  0  0  0  0  0
  -21.8820   -3.8134   23.4348 C   0  0  0  0  0  0
  -21.9194   -4.6962   22.3407 C   0  0  0  0  0  0
  -22.7843  -13.5291   21.1799 C   0  0  0  0  0  0
  -22.1681   -4.2159   21.0984 F   0  0  0  0  0  0
  -21.5600   -3.4521   25.7728 F   0  0  0  0  0  0
  -29.9954  -13.4872   20.3960 N   0  0  0  0  0  0
  -26.2954  -12.9319   20.3237 N   0  0  0  0  0  0
  -25.9257  -11.6490   20.5700 N   0  0  0  0  0  0
  -22.0424  -12.8361   22.0360 N   0  0  0  0  0  0
  -25.4282  -15.1859   20.4213 N   0  0  0  0  0  0
  -31.8163  -14.8299   20.2181 O   0  0  0  0  0  0
  -21.6639   -6.8855   21.4237 O   0  0  0  0  0  0
  -22.3581  -14.5594   20.6613 O   0  0  0  0  0  0
  -24.6268  -31.8558   23.2007 C   0  0  0  0  0  0
  -25.9064  -32.4786   23.8377 C   0  0  1  0  0  0
  -27.2292  -27.2897   20.1270 C   0  0  0  0  0  0
  -25.5830  -33.8595   24.2254 N   0  0  0  0  0  0
  -23.4269  -30.4777   21.5433 C   0  0  2  0  0  0
  -24.8778  -28.9286   20.1187 C   0  0  0  0  0  0
  -22.7500  -29.4573   22.4922 C   0  0  0  0  0  0
  -18.0265  -28.1416   22.8470 C   0  0  0  0  0  0
  -24.1467  -36.7313   23.2635 C   0  0  0  0  0  0
  -25.9717  -30.7826   21.3783 C   0  0  0  0  0  0
  -26.0490  -29.4071   20.7191 C   0  0  0  0  0  0
  -27.2307  -28.6012   20.7056 C   0  0  0  0  0  0
  -26.0341  -26.8741   19.4977 C   0  0  0  0  0  0
  -24.8737  -27.6720   19.4973 C   0  0  0  0  0  0
  -23.6484  -29.8134   20.1602 C   0  0  0  0  0  0
  -25.4083  -36.3093   24.0324 C   0  0  1  0  0  0
  -20.5873  -28.3694   23.1275 C   0  0  2  0  0  0
  -20.6750  -26.9411   22.5409 C   0  0  0  0  0  0
  -19.5737  -26.6389   21.5205 C   0  0  0  0  0  0
  -18.1913  -26.7947   22.1625 C   0  0  0  0  0  0
  -19.1524  -28.8872   23.2870 C   0  0  0  0  0  0
  -18.9461  -30.1465   23.8907 C   0  0  0  0  0  0
  -17.6474  -30.6622   24.0553 C   0  0  0  0  0  0
  -25.9022  -34.9464   23.5109 C   0  0  0  0  0  0
  -16.5357  -29.9130   23.6331 C   0  0  0  0  0  0
  -16.7253  -28.6542   23.0354 C   0  0  0  0  0  0
  -26.4406  -31.6650   25.0803 C   0  0  0  0  0  0
  -25.3590  -31.3909   26.1522 C   0  0  0  0  0  0
  -27.0201  -30.3021   24.6366 C   0  0  0  0  0  0
  -27.5968  -32.4396   25.7559 C   0  0  0  0  0  0
  -27.5573  -37.1792   24.8433 C   0  0  0  0  0  0
  -21.4197  -29.3046   22.3676 N   0  0  0  0  0  0
  -26.4251  -37.3789   23.9433 N   0  0  0  0  0  0
  -24.6934  -31.0551   22.0977 N   0  0  0  0  0  0
  -23.4201  -28.8088   23.2988 O   0  0  0  0  0  0
  -28.3394  -26.4222   20.1389 O   0  0  0  0  0  0
  -26.5650  -34.8928   22.4716 O   0  0  0  0  0  0
  -23.5407  -32.1352   23.7313 O   0  0  0  0  0  0
  -30.1788  -19.7714   22.3385 C   0  0  0  0  0  0
  -30.3793  -18.5974   23.0973 C   0  0  0  0  0  0
  -29.8077  -18.3833   20.3812 C   0  0  0  0  0  0
  -29.8736  -19.7128   20.9633 C   0  0  0  0  0  0
  -30.2907  -17.3121   22.5236 C   0  0  0  0  0  0
  -30.0249  -17.1612   21.1386 C   0  0  0  0  0  0
  -30.4374  -16.1041   23.4458 C   0  0  0  0  0  0
  -29.0364  -23.7316   18.5090 C   0  0  0  0  0  0
  -30.5777  -24.3013   20.3999 C   0  0  0  0  0  0
  -29.7769  -21.0742   20.1470 C   0  0  0  0  0  0
  -28.9054  -22.3434   20.6526 C   0  0  0  0  0  0
  -28.1406  -24.9915   20.5404 C   0  0  0  0  0  0
  -29.1530  -23.8324   20.0417 C   0  0  0  0  0  0
  -29.7948  -15.8084   20.6092 N   0  0  0  0  0  0
  -31.4869  -12.5797   19.1580 H   0  0  0  0  0  0
  -30.4124  -11.4635   19.9548 H   0  0  0  0  0  0
  -29.7933  -11.7042   17.5235 H   0  0  0  0  0  0
  -29.6272  -13.4304   17.7118 H   0  0  0  0  0  0
  -27.9105  -11.2518   18.9470 H   0  0  0  0  0  0
  -27.3797  -12.4704   17.8148 H   0  0  0  0  0  0
  -27.6423  -14.2279   19.4523 H   0  0  0  0  0  0
  -28.7209  -12.1492   21.4330 H   0  0  0  0  0  0
  -28.4297  -13.8284   21.7912 H   0  0  0  0  0  0
  -25.2717   -9.5742   22.4758 H   0  0  0  0  0  0
  -23.9974   -7.4680   22.7492 H   0  0  0  0  0  0
  -21.0774   -8.8773   19.8969 H   0  0  0  0  0  0
  -22.3622  -10.9678   19.6193 H   0  0  0  0  0  0
  -21.2063   -7.6151   23.9727 H   0  0  0  0  0  0
  -21.1439   -6.0508   25.9070 H   0  0  0  0  0  0
  -22.0601   -2.7608   23.2850 H   0  0  0  0  0  0
  -22.4020  -12.0089   22.4886 H   0  0  0  0  0  0
  -21.1054  -13.1476   22.2502 H   0  0  0  0  0  0
  -24.6570  -15.8303   20.5488 H   0  0  0  0  0  0
  -26.2740  -15.6366   20.0947 H   0  0  0  0  0  0
  -26.7166  -32.5449   23.1161 H   0  0  0  0  0  0
  -24.9796  -33.9757   25.0268 H   0  0  0  0  0  0
  -22.7209  -31.2976   21.3974 H   0  0  0  0  0  0
  -23.3728  -35.9640   23.3252 H   0  0  0  0  0  0
  -24.3547  -36.8997   22.2054 H   0  0  0  0  0  0
  -23.7239  -37.6505   23.6695 H   0  0  0  0  0  0
  -26.1068  -31.5484   20.6130 H   0  0  0  0  0  0
  -26.8473  -30.8310   22.0149 H   0  0  0  0  0  0
  -28.1378  -28.9661   21.1698 H   0  0  0  0  0  0
  -25.9824  -25.9188   18.9984 H   0  0  0  0  0  0
  -23.9749  -27.3072   19.0201 H   0  0  0  0  0  0
  -23.7795  -30.5905   19.4057 H   0  0  0  0  0  0
  -22.7697  -29.2462   19.8489 H   0  0  0  0  0  0
  -25.1261  -36.1911   25.0810 H   0  0  0  0  0  0
  -20.9948  -28.3269   24.1397 H   0  0  0  0  0  0
  -20.5605  -26.2308   23.3610 H   0  0  0  0  0  0
  -21.6623  -26.7408   22.1235 H   0  0  0  0  0  0
  -19.6873  -25.6280   21.1276 H   0  0  0  0  0  0
  -19.6692  -27.3162   20.6706 H   0  0  0  0  0  0
  -17.4155  -26.6645   21.4056 H   0  0  0  0  0  0
  -18.0337  -26.0120   22.9060 H   0  0  0  0  0  0
  -19.7931  -30.7254   24.2318 H   0  0  0  0  0  0
  -17.5031  -31.6303   24.5150 H   0  0  0  0  0  0
  -15.5359  -30.3057   23.7655 H   0  0  0  0  0  0
  -15.8637  -28.0873   22.7108 H   0  0  0  0  0  0
  -24.5715  -30.7301   25.7876 H   0  0  0  0  0  0
  -24.8825  -32.3134   26.4852 H   0  0  0  0  0  0
  -25.7829  -30.9148   27.0370 H   0  0  0  0  0  0
  -26.2820  -29.6879   24.1194 H   0  0  0  0  0  0
  -27.3559  -29.7220   25.4971 H   0  0  0  0  0  0
  -27.8835  -30.4217   23.9822 H   0  0  0  0  0  0
  -27.2547  -33.3666   26.2178 H   0  0  0  0  0  0
  -28.3729  -32.7034   25.0361 H   0  0  0  0  0  0
  -28.0683  -31.8518   26.5447 H   0  0  0  0  0  0
  -28.2544  -38.0138   24.7526 H   0  0  0  0  0  0
  -28.1124  -36.2672   24.6157 H   0  0  0  0  0  0
  -27.2321  -37.1331   25.8846 H   0  0  0  0  0  0
  -20.9365  -29.8836   21.6954 H   0  0  0  0  0  0
  -26.0121  -38.2839   24.1517 H   0  0  0  0  0  0
  -30.2826  -20.7281   22.8304 H   0  0  0  0  0  0
  -30.5902  -18.6950   24.1530 H   0  0  0  0  0  0
  -29.5882  -18.2982   19.3283 H   0  0  0  0  0  0
  -30.5048  -16.4009   24.4940 H   0  0  0  0  0  0
  -31.3406  -15.5392   23.2135 H   0  0  0  0  0  0
  -29.5807  -15.4343   23.3558 H   0  0  0  0  0  0
  -29.8634  -23.1594   18.0861 H   0  0  0  0  0  0
  -29.0480  -24.7176   18.0405 H   0  0  0  0  0  0
  -28.1107  -23.2369   18.2122 H   0  0  0  0  0  0
  -31.3404  -23.6153   20.0359 H   0  0  0  0  0  0
  -30.7105  -24.4028   21.4780 H   0  0  0  0  0  0
  -30.7951  -25.2748   19.9547 H   0  0  0  0  0  0
  -29.4778  -20.8338   19.1265 H   0  0  0  0  0  0
  -30.8115  -21.4077   20.0656 H   0  0  0  0  0  0
  -29.0005  -22.4158   21.7340 H   0  0  0  0  0  0
  -27.8591  -22.0857   20.4908 H   0  0  0  0  0  0
  -28.1628  -25.0012   21.6316 H   0  0  0  0  0  0
  -27.1321  -24.6590   20.3015 H   0  0  0  0  0  0
  -28.8197  -15.5602   20.5548 H   0  0  0  0  0  0
  1 25  1  0  0  0
  1 30  2  0  0  0
  1 84  1  0  0  0
  2  3  1  0  0  0
  2 25  1  0  0  0
  2 85  1  0  0  0
  2 86  1  0  0  0
  3  4  1  0  0  0
  3 87  1  0  0  0
  3 88  1  0  0  0
  4  5  1  0  0  0
  4 89  1  0  0  0
  4 90  1  0  0  0
  5  6  1  0  0  0
  5 26  1  0  0  0
  5 91  1  0  0  0
  6 25  1  0  0  0
  6 92  1  0  0  0
  6 93  1  0  0  0
  7  8  2  0  0  0
  7 26  1  0  0  0
  7 29  1  0  0  0
  8  9  1  0  0  0
  8 22  1  0  0  0
  9 10  1  0  0  0
  9 27  2  0  0  0
 10 11  2  0  0  0
 10 15  1  0  0  0
 11 12  1  0  0  0
 11 94  1  0  0  0
 12 13  2  0  0  0
 12 95  1  0  0  0
 13 14  1  0  0  0
 13 31  1  0  0  0
 14 15  2  0  0  0
 14 96  1  0  0  0
 15 97  1  0  0  0
 16 17  2  0  0  0
 16 21  1  0  0  0
 16 31  1  0  0  0
 17 18  1  0  0  0
 17 98  1  0  0  0
 18 19  2  0  0  0
 18 99  1  0  0  0
 19 20  1  0  0  0
 19 24  1  0  0  0
 20 21  2  0  0  0
 20100  1  0  0  0
 21 23  1  0  0  0
 22 28  1  0  0  0
 22 32  2  0  0  0
 26 27  1  0  0  0
 28101  1  0  0  0
 28102  1  0  0  0
 29103  1  0  0  0
 29104  1  0  0  0
 33 34  1  0  0  0
 33 66  1  0  0  0
 33 70  2  0  0  0
 34 36  1  0  0  0
 34 59  1  0  0  0
 34105  1  0  0  0
 35 44  2  0  0  0
 35 45  1  0  0  0
 35 68  1  0  0  0
 36 56  1  0  0  0
 36106  1  0  0  0
 37 39  1  0  0  0
 37 47  1  0  0  0
 37 66  1  0  0  0
 37107  1  0  0  0
 38 43  2  0  0  0
 38 46  1  0  0  0
 38 47  1  0  0  0
 39 64  1  0  0  0
 39 67  2  0  0  0
 40 52  1  0  0  0
 40 53  2  0  0  0
 40 58  1  0  0  0
 41108  1  0  0  0
 41109  1  0  0  0
 41110  1  0  0  0
 41 48  1  0  0  0
 42 43  1  0  0  0
 42 66  1  0  0  0
 42111  1  0  0  0
 42112  1  0  0  0
 43 44  1  0  0  0
 44113  1  0  0  0
 45 46  2  0  0  0
 45114  1  0  0  0
 46115  1  0  0  0
 47116  1  0  0  0
 47117  1  0  0  0
 48 56  1  0  0  0
 48 65  1  0  0  0
 48118  1  0  0  0
 49 50  1  0  0  0
 49 53  1  0  0  0
 49 64  1  0  0  0
 49119  1  0  0  0
 50 51  1  0  0  0
 50120  1  0  0  0
 50121  1  0  0  0
 51 52  1  0  0  0
 51122  1  0  0  0
 51123  1  0  0  0
 52124  1  0  0  0
 52125  1  0  0  0
 53 54  1  0  0  0
 54 55  2  0  0  0
 54126  1  0  0  0
 55 57  1  0  0  0
 55127  1  0  0  0
 56 69  2  0  0  0
 57 58  2  0  0  0
 57128  1  0  0  0
 58129  1  0  0  0
 59 60  1  0  0  0
 59 61  1  0  0  0
 59 62  1  0  0  0
 60130  1  0  0  0
 60131  1  0  0  0
 60132  1  0  0  0
 61133  1  0  0  0
 61134  1  0  0  0
 61135  1  0  0  0
 62136  1  0  0  0
 62137  1  0  0  0
 62138  1  0  0  0
 63 65  1  0  0  0
 63139  1  0  0  0
 63140  1  0  0  0
 63141  1  0  0  0
 64142  1  0  0  0
 65143  1  0  0  0
 68 82  1  0  0  0
 71 72  2  0  0  0
 71 74  1  0  0  0
 71144  1  0  0  0
 72 75  1  0  0  0
 72145  1  0  0  0
 73 74  2  0  0  0
 73 76  1  0  0  0
 73146  1  0  0  0
 74 80  1  0  0  0
 75 76  2  0  0  0
 75 77  1  0  0  0
 76 84  1  0  0  0
 77147  1  0  0  0
 77148  1  0  0  0
 77149  1  0  0  0
 78150  1  0  0  0
 78151  1  0  0  0
 78152  1  0  0  0
 78 83  1  0  0  0
 79 83  1  0  0  0
 79153  1  0  0  0
 79154  1  0  0  0
 79155  1  0  0  0
 80 81  1  0  0  0
 80156  1  0  0  0
 80157  1  0  0  0
 81 83  1  0  0  0
 81158  1  0  0  0
 81159  1  0  0  0
 82 83  1  0  0  0
 82160  1  0  0  0
 82161  1  0  0  0
 84162  1  0  0  0
M  ISO  4   1 100  68 101  82 101  84 100
M  END
> <chiral flag>
0

> <version>
0

> <s_m_source_file>
/data/baiqing/PycharmProjects/Reinvent-master-3.2/result/LINK_invent/BTK/process_docking_weight1_custom_product_contain_oxygen_bond_distance_aromatic_linkinvent_7_9_3/rearranged_h_0135.sdf

> <i_m_source_file_index>
95

> <r_mmod_Potential_Energy-OPLS-2005>
164.450424194336

> <r_mmod_Stretch_Energy-OPLS-2005>
112.34693145752

> <r_mmod_Bend_Energy-OPLS-2005>
152.161178588867

> <r_mmod_Torsional_Energy-OPLS-2005>
267.224243164062

> <r_mmod_Improper_Torsional_Energy-OPLS-2005>
9.07799816131592

> <r_mmod_Van_der_Waal_Energy-OPLS-2005>
134.015930175781

> <r_mmod_Electrostatic_Energy-OPLS-2005>
-386.710815429688

> <r_mmod_Solvation_Energy-OPLS-2005>
-195.256378173828

> <b_mmod_Minimization_Converged-OPLS-2005>
0

> <r_mmod_RMS_Derivative-OPLS-2005>
4.81595277786255

$$$$
95
                    3D
 Structure written by MMmdl.
164172  0  0  1  0            999 V2000
  -30.6156  -14.6456   20.5416 C   0  0  0  0  0  0
  -30.4573  -12.4213   19.4249 C   0  0  0  0  0  0
  -29.5058  -12.5318   18.2072 C   0  0  0  0  0  0
  -28.0245  -12.3742   18.6161 C   0  0  0  0  0  0
  -27.6637  -13.1994   19.8781 C   0  0  2  0  0  0
  -28.7181  -12.9498   20.9770 C   0  0  0  0  0  0
  -25.2623  -13.8147   20.5667 C   0  0  0  0  0  0
  -24.1839  -13.0412   20.9124 C   0  0  0  0  0  0
  -24.6400  -11.6896   20.8698 C   0  0  0  0  0  0
  -23.9064  -10.4298   21.0397 C   0  0  0  0  0  0
  -24.3616   -9.4230   21.9190 C   0  0  0  0  0  0
  -23.6296   -8.2260   22.0764 C   0  0  0  0  0  0
  -22.4286   -8.0298   21.3548 C   0  0  0  0  0  0
  -21.9910   -9.0269   20.4648 C   0  0  0  0  0  0
  -22.7228  -10.2150   20.3056 C   0  0  0  0  0  0
  -21.6855   -6.0754   22.5286 C   0  0  0  0  0  0
  -21.4015   -6.5650   23.8222 C   0  0  0  0  0  0
  -21.3646   -5.6792   24.9175 C   0  0  0  0  0  0
  -21.6033   -4.3056   24.7220 C   0  0  0  0  0  0
  -21.8827   -3.8163   23.4339 C   0  0  0  0  0  0
  -21.9203   -4.6984   22.3404 C   0  0  0  0  0  0
  -22.7873  -13.5242   21.1790 C   0  0  0  0  0  0
  -22.1675   -4.2170   21.0979 F   0  0  0  0  0  0
  -21.5618   -3.4540   25.7733 F   0  0  0  0  0  0
  -30.0176  -13.4013   20.4439 N   0  0  0  0  0  0
  -26.3057  -12.9276   20.3409 N   0  0  0  0  0  0
  -25.9331  -11.6445   20.5753 N   0  0  0  0  0  0
  -22.0503  -12.8264   22.0365 N   0  0  0  0  0  0
  -25.4386  -15.1835   20.4137 N   0  0  0  0  0  0
  -31.7640  -14.8181   20.1164 O   0  0  0  0  0  0
  -21.6636   -6.8897   21.4248 O   0  0  0  0  0  0
  -22.3579  -14.5559   20.6660 O   0  0  0  0  0  0
  -24.6238  -31.8618   23.2040 C   0  0  0  0  0  0
  -25.9081  -32.4801   23.8361 C   0  0  1  0  0  0
  -27.2353  -27.3360   20.1071 C   0  0  0  0  0  0
  -25.5891  -33.8595   24.2278 N   0  0  0  0  0  0
  -23.4192  -30.4852   21.5459 C   0  0  2  0  0  0
  -24.8658  -28.9413   20.1126 C   0  0  0  0  0  0
  -22.7476  -29.4633   22.4928 C   0  0  0  0  0  0
  -18.0290  -28.1404   22.8509 C   0  0  0  0  0  0
  -24.1467  -36.7298   23.2646 C   0  0  0  0  0  0
  -25.9579  -30.8003   21.3682 C   0  0  0  0  0  0
  -26.0338  -29.4263   20.7124 C   0  0  0  0  0  0
  -27.2184  -28.6355   20.7014 C   0  0  0  0  0  0
  -26.0427  -26.9058   19.4786 C   0  0  0  0  0  0
  -24.8709  -27.6841   19.4909 C   0  0  0  0  0  0
  -23.6361  -29.8245   20.1576 C   0  0  0  0  0  0
  -25.4097  -36.3083   24.0329 C   0  0  1  0  0  0
  -20.5888  -28.3687   23.1288 C   0  0  2  0  0  0
  -20.6785  -26.9408   22.5414 C   0  0  0  0  0  0
  -19.5754  -26.6402   21.5225 C   0  0  0  0  0  0
  -18.1935  -26.7954   22.1637 C   0  0  0  0  0  0
  -19.1541  -28.8861   23.2904 C   0  0  0  0  0  0
  -18.9477  -30.1460   23.8910 C   0  0  0  0  0  0
  -17.6472  -30.6602   24.0570 C   0  0  0  0  0  0
  -25.9035  -34.9462   23.5110 C   0  0  0  0  0  0
  -16.5361  -29.9102   23.6340 C   0  0  0  0  0  0
  -16.7281  -28.6523   23.0362 C   0  0  0  0  0  0
  -26.4475  -31.6605   25.0731 C   0  0  0  0  0  0
  -25.3727  -31.3754   26.1466 C   0  0  0  0  0  0
  -27.0295  -30.3032   24.6155 C   0  0  0  0  0  0
  -27.6025  -32.4349   25.7510 C   0  0  0  0  0  0
  -27.5566  -37.1803   24.8477 C   0  0  0  0  0  0
  -21.4196  -29.3048   22.3689 N   0  0  0  0  0  0
  -26.4281  -37.3784   23.9422 N   0  0  0  0  0  0
  -24.6855  -31.0633   22.0986 N   0  0  0  0  0  0
  -23.4205  -28.8171   23.2986 O   0  0  0  0  0  0
  -28.3718  -26.5135   20.1654 O   0  0  0  0  0  0
  -26.5624  -34.8940   22.4693 O   0  0  0  0  0  0
  -23.5407  -32.1399   23.7377 O   0  0  0  0  0  0
  -30.2227  -18.1884   21.9612 C   0  0  0  0  0  0
  -30.2488  -19.6030   21.8914 C   0  0  0  0  0  0
  -30.1643  -19.4799   19.4939 C   0  0  0  0  0  0
  -30.1324  -17.3534   20.8119 C   0  0  0  0  0  0
  -30.1511  -18.0407   19.5485 C   0  0  0  0  0  0
  -30.1735  -20.2917   20.6624 C   0  0  0  0  0  0
  -29.7627  -15.8812   21.0686 C   0  0  0  0  0  0
  -31.5922  -17.2710   17.6170 C   0  0  0  0  0  0
  -29.1308  -17.7194   17.2014 C   0  0  0  0  0  0
  -29.1647  -24.1906   22.0728 C   0  0  0  0  0  0
  -28.2512  -25.0689   19.8717 C   0  0  0  0  0  0
  -29.2113  -22.5381   20.1017 C   0  0  0  0  0  0
  -30.1811  -17.2604   18.2259 C   0  0  0  0  0  0
  -29.2943  -24.0766   20.5427 C   0  0  2  0  0  0
  -28.7054  -15.7529   21.7531 N   0  0  0  0  0  0
  -30.2491  -21.6952   20.6857 O   0  0  0  0  0  0
  -31.4863  -12.5920   19.1035 H   0  0  0  0  0  0
  -30.4427  -11.4092   19.8314 H   0  0  0  0  0  0
  -29.7633  -11.7819   17.4564 H   0  0  0  0  0  0
  -29.6421  -13.5002   17.7249 H   0  0  0  0  0  0
  -27.8427  -11.3162   18.8041 H   0  0  0  0  0  0
  -27.3706  -12.6486   17.7880 H   0  0  0  0  0  0
  -27.7040  -14.2489   19.5902 H   0  0  0  0  0  0
  -28.7579  -11.8838   21.2009 H   0  0  0  0  0  0
  -28.4524  -13.3837   21.9365 H   0  0  0  0  0  0
  -25.2771   -9.5703   22.4754 H   0  0  0  0  0  0
  -24.0006   -7.4656   22.7493 H   0  0  0  0  0  0
  -21.0835   -8.8777   19.8969 H   0  0  0  0  0  0
  -22.3687  -10.9680   19.6161 H   0  0  0  0  0  0
  -21.2009   -7.6157   23.9726 H   0  0  0  0  0  0
  -21.1445   -6.0520   25.9069 H   0  0  0  0  0  0
  -22.0618   -2.7631   23.2828 H   0  0  0  0  0  0
  -22.4121  -11.9925   22.4731 H   0  0  0  0  0  0
  -21.1141  -13.1359   22.2581 H   0  0  0  0  0  0
  -24.6946  -15.8556   20.5615 H   0  0  0  0  0  0
  -26.3461  -15.6146   20.2765 H   0  0  0  0  0  0
  -26.7171  -32.5482   23.1124 H   0  0  0  0  0  0
  -24.9956  -33.9726   25.0364 H   0  0  0  0  0  0
  -22.7126  -31.3062   21.4042 H   0  0  0  0  0  0
  -23.3722  -35.9643   23.3320 H   0  0  0  0  0  0
  -24.3546  -36.8907   22.2059 H   0  0  0  0  0  0
  -23.7230  -37.6511   23.6661 H   0  0  0  0  0  0
  -26.0813  -31.5649   20.5961 H   0  0  0  0  0  0
  -26.8438  -30.8576   21.9902 H   0  0  0  0  0  0
  -28.1138  -29.0103   21.1759 H   0  0  0  0  0  0
  -25.9867  -25.9511   18.9780 H   0  0  0  0  0  0
  -23.9753  -27.3103   19.0158 H   0  0  0  0  0  0
  -23.7615  -30.6083   19.4090 H   0  0  0  0  0  0
  -22.7573  -29.2583   19.8470 H   0  0  0  0  0  0
  -25.1265  -36.1930   25.0826 H   0  0  0  0  0  0
  -20.9995  -28.3249   24.1398 H   0  0  0  0  0  0
  -20.5715  -26.2269   23.3607 H   0  0  0  0  0  0
  -21.6645  -26.7467   22.1167 H   0  0  0  0  0  0
  -19.6901  -25.6329   21.1220 H   0  0  0  0  0  0
  -19.6676  -27.3245   20.6777 H   0  0  0  0  0  0
  -17.4201  -26.6716   21.4045 H   0  0  0  0  0  0
  -18.0313  -26.0098   22.9024 H   0  0  0  0  0  0
  -19.7945  -30.7287   24.2269 H   0  0  0  0  0  0
  -17.5030  -31.6282   24.5180 H   0  0  0  0  0  0
  -15.5368  -30.3010   23.7675 H   0  0  0  0  0  0
  -15.8680  -28.0861   22.7058 H   0  0  0  0  0  0
  -24.5919  -30.7056   25.7847 H   0  0  0  0  0  0
  -24.8886  -32.2920   26.4848 H   0  0  0  0  0  0
  -25.8069  -30.9014   27.0268 H   0  0  0  0  0  0
  -26.2851  -29.6821   24.1159 H   0  0  0  0  0  0
  -27.3970  -29.7242   25.4626 H   0  0  0  0  0  0
  -27.8727  -30.4322   23.9371 H   0  0  0  0  0  0
  -27.2609  -33.3660   26.2048 H   0  0  0  0  0  0
  -28.3855  -32.6889   25.0358 H   0  0  0  0  0  0
  -28.0654  -31.8500   26.5463 H   0  0  0  0  0  0
  -28.2588  -38.0087   24.7488 H   0  0  0  0  0  0
  -28.1032  -36.2611   24.6317 H   0  0  0  0  0  0
  -27.2280  -37.1480   25.8880 H   0  0  0  0  0  0
  -20.9371  -29.8716   21.6879 H   0  0  0  0  0  0
  -26.0140  -38.2852   24.1449 H   0  0  0  0  0  0
  -30.2192  -17.7320   22.9444 H   0  0  0  0  0  0
  -30.3001  -20.1685   22.8107 H   0  0  0  0  0  0
  -30.1902  -19.9697   18.5297 H   0  0  0  0  0  0
  -32.3131  -16.8098   18.2928 H   0  0  0  0  0  0
  -31.9400  -18.2823   17.4098 H   0  0  0  0  0  0
  -31.6164  -16.7151   16.6792 H   0  0  0  0  0  0
  -28.1248  -17.6835   17.6220 H   0  0  0  0  0  0
  -29.1405  -17.0509   16.3377 H   0  0  0  0  0  0
  -29.3107  -18.7271   16.8264 H   0  0  0  0  0  0
  -29.3828  -25.1982   22.4224 H   0  0  0  0  0  0
  -29.8614  -23.5196   22.5824 H   0  0  0  0  0  0
  -28.1574  -23.9393   22.4113 H   0  0  0  0  0  0
  -28.3039  -24.9519   18.7879 H   0  0  0  0  0  0
  -27.2707  -24.7008   20.1695 H   0  0  0  0  0  0
  -29.2939  -22.4675   19.0203 H   0  0  0  0  0  0
  -28.2396  -22.1189   20.3690 H   0  0  0  0  0  0
  -29.9341  -16.2211   18.4163 H   0  0  0  0  0  0
  -30.2922  -24.4292   20.2770 H   0  0  0  0  0  0
  -28.3253  -16.6594   21.9925 H   0  0  0  0  0  0
  1 25  1  0  0  0
  1 30  2  0  0  0
  1 77  1  0  0  0
  2  3  1  0  0  0
  2 25  1  0  0  0
  2 87  1  0  0  0
  2 88  1  0  0  0
  3  4  1  0  0  0
  3 89  1  0  0  0
  3 90  1  0  0  0
  4  5  1  0  0  0
  4 91  1  0  0  0
  4 92  1  0  0  0
  5  6  1  0  0  0
  5 26  1  0  0  0
  5 93  1  0  0  0
  6 25  1  0  0  0
  6 94  1  0  0  0
  6 95  1  0  0  0
  7  8  2  0  0  0
  7 26  1  0  0  0
  7 29  1  0  0  0
  8  9  1  0  0  0
  8 22  1  0  0  0
  9 10  1  0  0  0
  9 27  2  0  0  0
 10 11  2  0  0  0
 10 15  1  0  0  0
 11 12  1  0  0  0
 11 96  1  0  0  0
 12 13  2  0  0  0
 12 97  1  0  0  0
 13 14  1  0  0  0
 13 31  1  0  0  0
 14 15  2  0  0  0
 14 98  1  0  0  0
 15 99  1  0  0  0
 16 17  2  0  0  0
 16 21  1  0  0  0
 16 31  1  0  0  0
 17 18  1  0  0  0
 17100  1  0  0  0
 18 19  2  0  0  0
 18101  1  0  0  0
 19 20  1  0  0  0
 19 24  1  0  0  0
 20 21  2  0  0  0
 20102  1  0  0  0
 21 23  1  0  0  0
 22 28  1  0  0  0
 22 32  2  0  0  0
 26 27  1  0  0  0
 28103  1  0  0  0
 28104  1  0  0  0
 29105  1  0  0  0
 29106  1  0  0  0
 33 34  1  0  0  0
 33 66  1  0  0  0
 33 70  2  0  0  0
 34 36  1  0  0  0
 34 59  1  0  0  0
 34107  1  0  0  0
 35 44  2  0  0  0
 35 45  1  0  0  0
 35 68  1  0  0  0
 36 56  1  0  0  0
 36108  1  0  0  0
 37 39  1  0  0  0
 37 47  1  0  0  0
 37 66  1  0  0  0
 37109  1  0  0  0
 38 43  2  0  0  0
 38 46  1  0  0  0
 38 47  1  0  0  0
 39 64  1  0  0  0
 39 67  2  0  0  0
 40 52  1  0  0  0
 40 53  2  0  0  0
 40 58  1  0  0  0
 41110  1  0  0  0
 41111  1  0  0  0
 41112  1  0  0  0
 41 48  1  0  0  0
 42 43  1  0  0  0
 42 66  1  0  0  0
 42113  1  0  0  0
 42114  1  0  0  0
 43 44  1  0  0  0
 44115  1  0  0  0
 45 46  2  0  0  0
 45116  1  0  0  0
 46117  1  0  0  0
 47118  1  0  0  0
 47119  1  0  0  0
 48 56  1  0  0  0
 48 65  1  0  0  0
 48120  1  0  0  0
 49 50  1  0  0  0
 49 53  1  0  0  0
 49 64  1  0  0  0
 49121  1  0  0  0
 50 51  1  0  0  0
 50122  1  0  0  0
 50123  1  0  0  0
 51 52  1  0  0  0
 51124  1  0  0  0
 51125  1  0  0  0
 52126  1  0  0  0
 52127  1  0  0  0
 53 54  1  0  0  0
 54 55  2  0  0  0
 54128  1  0  0  0
 55 57  1  0  0  0
 55129  1  0  0  0
 56 69  2  0  0  0
 57 58  2  0  0  0
 57130  1  0  0  0
 58131  1  0  0  0
 59 60  1  0  0  0
 59 61  1  0  0  0
 59 62  1  0  0  0
 60132  1  0  0  0
 60133  1  0  0  0
 60134  1  0  0  0
 61135  1  0  0  0
 61136  1  0  0  0
 61137  1  0  0  0
 62138  1  0  0  0
 62139  1  0  0  0
 62140  1  0  0  0
 63 65  1  0  0  0
 63141  1  0  0  0
 63142  1  0  0  0
 63143  1  0  0  0
 64144  1  0  0  0
 65145  1  0  0  0
 68 81  1  0  0  0
 71 72  2  0  0  0
 71 74  1  0  0  0
 71146  1  0  0  0
 72 76  1  0  0  0
 72147  1  0  0  0
 73 75  1  0  0  0
 73 76  2  0  0  0
 73148  1  0  0  0
 74 75  2  0  0  0
 74 77  1  0  0  0
 75 83  1  0  0  0
 76 86  1  0  0  0
 77 85  2  0  0  0
 78149  1  0  0  0
 78150  1  0  0  0
 78151  1  0  0  0
 78 83  1  0  0  0
 79 83  1  0  0  0
 79152  1  0  0  0
 79153  1  0  0  0
 79154  1  0  0  0
 80155  1  0  0  0
 80156  1  0  0  0
 80157  1  0  0  0
 80 84  1  0  0  0
 81 84  1  0  0  0
 81158  1  0  0  0
 81159  1  0  0  0
 82 84  1  0  0  0
 82 86  1  0  0  0
 82160  1  0  0  0
 82161  1  0  0  0
 83162  1  0  0  0
 84163  1  0  0  0
 85164  1  0  0  0
M  ISO  4   1 100  68 101  77 100  81 101
M  END
> <chiral flag>
0

> <version>
0

> <s_m_source_file>
/data/baiqing/PycharmProjects/Reinvent-master-3.2/result/LINK_invent/BTK/process_docking_weight1_custom_product_contain_oxygen_bond_distance_aromatic_linkinvent_7_9_3/rearranged_h_0135.sdf

> <i_m_source_file_index>
96

> <r_mmod_Potential_Energy-OPLS-2005>
257.731750488281

> <r_mmod_Stretch_Energy-OPLS-2005>
92.5976715087891

> <r_mmod_Bend_Energy-OPLS-2005>
165.162185668945

> <r_mmod_Torsional_Energy-OPLS-2005>
229.433700561523

> <r_mmod_Improper_Torsional_Energy-OPLS-2005>
5.25065231323242

> <r_mmod_Van_der_Waal_Energy-OPLS-2005>
152.249694824219

> <r_mmod_Electrostatic_Energy-OPLS-2005>
-243.842849731445

> <r_mmod_Solvation_Energy-OPLS-2005>
-185.983016967773

> <b_mmod_Minimization_Converged-OPLS-2005>
0

> <r_mmod_RMS_Derivative-OPLS-2005>
4.40543842315674

$$$$
96
                    3D
 Structure written by MMmdl.
159167  0  0  1  0            999 V2000
  -30.6178  -14.6455   20.5190 C   0  0  0  0  0  0
  -30.4059  -12.3894   19.4613 C   0  0  0  0  0  0
  -29.4854  -12.4925   18.2258 C   0  0  0  0  0  0
  -28.0126  -12.3268   18.6455 C   0  0  0  0  0  0
  -27.6354  -13.2192   19.8590 C   0  0  2  0  0  0
  -28.6709  -13.0777   20.9915 C   0  0  0  0  0  0
  -25.2443  -13.8207   20.5666 C   0  0  0  0  0  0
  -24.1726  -13.0428   20.9227 C   0  0  0  0  0  0
  -24.6331  -11.6935   20.8790 C   0  0  0  0  0  0
  -23.9051  -10.4290   21.0451 C   0  0  0  0  0  0
  -24.3618   -9.4176   21.9187 C   0  0  0  0  0  0
  -23.6285   -8.2220   22.0727 C   0  0  0  0  0  0
  -22.4258   -8.0290   21.3538 C   0  0  0  0  0  0
  -21.9930   -9.0264   20.4616 C   0  0  0  0  0  0
  -22.7269  -10.2136   20.3047 C   0  0  0  0  0  0
  -21.6824   -6.0745   22.5289 C   0  0  0  0  0  0
  -21.4009   -6.5632   23.8231 C   0  0  0  0  0  0
  -21.3660   -5.6765   24.9186 C   0  0  0  0  0  0
  -21.6036   -4.3036   24.7203 C   0  0  0  0  0  0
  -21.8829   -3.8150   23.4329 C   0  0  0  0  0  0
  -21.9186   -4.6981   22.3395 C   0  0  0  0  0  0
  -22.7768  -13.5209   21.1933 C   0  0  0  0  0  0
  -22.1652   -4.2171   21.0969 F   0  0  0  0  0  0
  -21.5630   -3.4513   25.7714 F   0  0  0  0  0  0
  -29.9811  -13.4302   20.4250 N   0  0  0  0  0  0
  -26.2851  -12.9385   20.3304 N   0  0  0  0  0  0
  -25.9230  -11.6548   20.5760 N   0  0  0  0  0  0
  -22.0439  -12.8149   22.0492 N   0  0  0  0  0  0
  -25.4186  -15.1908   20.4041 N   0  0  0  0  0  0
  -31.7965  -14.7498   20.1599 O   0  0  0  0  0  0
  -21.6614   -6.8908   21.4249 O   0  0  0  0  0  0
  -22.3449  -14.5534   20.6829 O   0  0  0  0  0  0
  -24.6289  -31.8519   23.2011 C   0  0  0  0  0  0
  -25.9086  -32.4764   23.8369 C   0  0  1  0  0  0
  -27.2524  -27.3127   20.1140 C   0  0  0  0  0  0
  -25.5838  -33.8568   24.2247 N   0  0  0  0  0  0
  -23.4292  -30.4670   21.5444 C   0  0  2  0  0  0
  -24.8806  -28.9053   20.1240 C   0  0  0  0  0  0
  -22.7532  -29.4519   22.4963 C   0  0  0  0  0  0
  -18.0305  -28.1282   22.8432 C   0  0  0  0  0  0
  -24.1512  -36.7323   23.2645 C   0  0  0  0  0  0
  -25.9701  -30.7760   21.3754 C   0  0  0  0  0  0
  -26.0505  -29.4018   20.7174 C   0  0  0  0  0  0
  -27.2415  -28.6156   20.6963 C   0  0  0  0  0  0
  -26.0593  -26.8553   19.5171 C   0  0  0  0  0  0
  -24.8846  -27.6351   19.5188 C   0  0  0  0  0  0
  -23.6484  -29.7840   20.1657 C   0  0  0  0  0  0
  -25.4128  -36.3087   24.0322 C   0  0  1  0  0  0
  -20.5900  -28.3582   23.1244 C   0  0  2  0  0  0
  -20.6801  -26.9285   22.5399 C   0  0  0  0  0  0
  -19.5783  -26.6288   21.5179 C   0  0  0  0  0  0
  -18.1952  -26.7817   22.1576 C   0  0  0  0  0  0
  -19.1556  -28.8748   23.2840 C   0  0  0  0  0  0
  -18.9478  -30.1363   23.8842 C   0  0  0  0  0  0
  -17.6465  -30.6501   24.0491 C   0  0  0  0  0  0
  -25.9025  -34.9454   23.5103 C   0  0  0  0  0  0
  -16.5360  -29.8959   23.6308 C   0  0  0  0  0  0
  -16.7292  -28.6389   23.0299 C   0  0  0  0  0  0
  -26.4449  -31.6616   25.0778 C   0  0  0  0  0  0
  -25.3636  -31.3733   26.1470 C   0  0  0  0  0  0
  -27.0322  -30.3067   24.6219 C   0  0  0  0  0  0
  -27.6048  -32.4327   25.7502 C   0  0  0  0  0  0
  -27.5621  -37.1806   24.8444 C   0  0  0  0  0  0
  -21.4242  -29.2942   22.3684 N   0  0  0  0  0  0
  -26.4338  -37.3758   23.9377 N   0  0  0  0  0  0
  -24.6957  -31.0480   22.0991 N   0  0  0  0  0  0
  -23.4230  -28.8059   23.3073 O   0  0  0  0  0  0
  -28.3918  -26.5041   20.0561 O   0  0  0  0  0  0
  -26.5635  -34.8904   22.4704 O   0  0  0  0  0  0
  -23.5434  -32.1311   23.7283 O   0  0  0  0  0  0
  -31.9614  -18.7281   21.8402 C   0  0  0  0  0  0
  -31.5003  -17.4205   21.6247 C   0  0  0  0  0  0
  -29.5039  -18.3568   20.6095 C   0  0  0  0  0  0
  -31.2409  -19.8641   21.4062 C   0  0  0  0  0  0
  -29.9615  -19.7338   20.7840 C   0  0  0  0  0  0
  -30.2718  -17.1755   20.9834 C   0  0  0  0  0  0
  -31.9232  -21.1972   21.6239 C   0  0  0  0  0  0
  -29.7492  -24.0487   18.8574 C   0  0  0  0  0  0
  -29.1731  -20.9964   20.1629 C   0  0  0  0  0  0
  -29.0347  -22.4913   20.8179 C   0  0  0  0  0  0
  -28.3970  -25.1783   20.7205 C   0  0  0  0  0  0
  -28.6663  -23.8029   19.9234 C   0  0  1  0  0  0
  -29.8549  -15.7661   20.8041 N   0  0  0  0  0  0
  -31.4509  -12.4877   19.1679 H   0  0  0  0  0  0
  -30.3168  -11.3959   19.9052 H   0  0  0  0  0  0
  -29.7479  -11.7268   17.4947 H   0  0  0  0  0  0
  -29.6212  -13.4555   17.7295 H   0  0  0  0  0  0
  -27.8712  -11.2781   18.9103 H   0  0  0  0  0  0
  -27.3443  -12.5187   17.8048 H   0  0  0  0  0  0
  -27.6570  -14.2521   19.5112 H   0  0  0  0  0  0
  -28.6691  -12.0480   21.3568 H   0  0  0  0  0  0
  -28.4087  -13.6997   21.8470 H   0  0  0  0  0  0
  -25.2780   -9.5599   22.4744 H   0  0  0  0  0  0
  -23.9980   -7.4581   22.7414 H   0  0  0  0  0  0
  -21.0885   -8.8806   19.8885 H   0  0  0  0  0  0
  -22.3792  -10.9673   19.6132 H   0  0  0  0  0  0
  -21.2019   -7.6137   23.9752 H   0  0  0  0  0  0
  -21.1467   -6.0483   25.9087 H   0  0  0  0  0  0
  -22.0620   -2.7619   23.2809 H   0  0  0  0  0  0
  -22.4100  -11.9787   22.4791 H   0  0  0  0  0  0
  -21.1055  -13.1124   22.2763 H   0  0  0  0  0  0
  -24.6580  -15.8536   20.5109 H   0  0  0  0  0  0
  -26.2659  -15.6181   20.0518 H   0  0  0  0  0  0
  -26.7139  -32.5426   23.1131 H   0  0  0  0  0  0
  -24.9954  -33.9676   25.0364 H   0  0  0  0  0  0
  -22.7220  -31.2865   21.3894 H   0  0  0  0  0  0
  -23.3770  -35.9666   23.3285 H   0  0  0  0  0  0
  -24.3598  -36.8955   22.2066 H   0  0  0  0  0  0
  -23.7267  -37.6514   23.6682 H   0  0  0  0  0  0
  -26.0948  -31.5416   20.6073 H   0  0  0  0  0  0
  -26.8515  -30.8290   22.0053 H   0  0  0  0  0  0
  -28.1551  -28.9951   21.1340 H   0  0  0  0  0  0
  -26.0419  -25.8787   19.0486 H   0  0  0  0  0  0
  -23.9859  -27.2396   19.0618 H   0  0  0  0  0  0
  -23.7612  -30.5495   19.3967 H   0  0  0  0  0  0
  -22.7753  -29.1973   19.8770 H   0  0  0  0  0  0
  -25.1317  -36.1990   25.0815 H   0  0  0  0  0  0
  -20.9963  -28.3165   24.1371 H   0  0  0  0  0  0
  -20.5652  -26.2181   23.3610 H   0  0  0  0  0  0
  -21.6680  -26.7288   22.1197 H   0  0  0  0  0  0
  -19.6940  -25.6207   21.1184 H   0  0  0  0  0  0
  -19.6736  -27.3147   20.6737 H   0  0  0  0  0  0
  -17.4226  -26.6535   21.3983 H   0  0  0  0  0  0
  -18.0342  -25.9992   22.9001 H   0  0  0  0  0  0
  -19.7988  -30.7174   24.2202 H   0  0  0  0  0  0
  -17.5017  -31.6187   24.5093 H   0  0  0  0  0  0
  -15.5334  -30.2777   23.7688 H   0  0  0  0  0  0
  -15.8722  -28.0685   22.6952 H   0  0  0  0  0  0
  -24.5830  -30.7058   25.7762 H   0  0  0  0  0  0
  -24.8800  -32.2896   26.4891 H   0  0  0  0  0  0
  -25.7933  -30.8922   27.0268 H   0  0  0  0  0  0
  -26.2931  -29.6800   24.1215 H   0  0  0  0  0  0
  -27.3992  -29.7325   25.4725 H   0  0  0  0  0  0
  -27.8800  -30.4386   23.9482 H   0  0  0  0  0  0
  -27.2726  -33.3659   26.2059 H   0  0  0  0  0  0
  -28.3871  -32.6789   25.0309 H   0  0  0  0  0  0
  -28.0692  -31.8431   26.5410 H   0  0  0  0  0  0
  -28.2584  -38.0155   24.7523 H   0  0  0  0  0  0
  -28.1152  -36.2671   24.6251 H   0  0  0  0  0  0
  -27.2298  -37.1405   25.8825 H   0  0  0  0  0  0
  -20.9426  -29.8715   21.6933 H   0  0  0  0  0  0
  -26.0248  -38.2848   24.1344 H   0  0  0  0  0  0
  -32.9109  -18.8481   22.3446 H   0  0  0  0  0  0
  -32.1167  -16.6019   21.9675 H   0  0  0  0  0  0
  -28.5441  -18.2029   20.1373 H   0  0  0  0  0  0
  -32.9541  -21.0683   21.9586 H   0  0  0  0  0  0
  -31.4045  -21.7468   22.4080 H   0  0  0  0  0  0
  -31.9465  -21.7775   20.7002 H   0  0  0  0  0  0
  -29.7761  -23.2390   18.1276 H   0  0  0  0  0  0
  -30.7288  -24.1404   19.3246 H   0  0  0  0  0  0
  -29.5778  -24.9741   18.3005 H   0  0  0  0  0  0
  -28.1560  -20.6494   19.9845 H   0  0  0  0  0  0
  -29.5841  -21.1109   19.1611 H   0  0  0  0  0  0
  -29.9408  -22.7896   21.3347 H   0  0  0  0  0  0
  -28.3042  -22.4165   21.6256 H   0  0  0  0  0  0
  -29.2101  -25.2730   21.4390 H   0  0  0  0  0  0
  -27.4946  -25.0835   21.3244 H   0  0  0  0  0  0
  -27.7443  -23.5868   19.3858 H   0  0  0  0  0  0
  -28.8691  -15.5789   20.9226 H   0  0  0  0  0  0
  1 25  1  0  0  0
  1 30  2  0  0  0
  1 83  1  0  0  0
  2  3  1  0  0  0
  2 25  1  0  0  0
  2 84  1  0  0  0
  2 85  1  0  0  0
  3  4  1  0  0  0
  3 86  1  0  0  0
  3 87  1  0  0  0
  4  5  1  0  0  0
  4 88  1  0  0  0
  4 89  1  0  0  0
  5  6  1  0  0  0
  5 26  1  0  0  0
  5 90  1  0  0  0
  6 25  1  0  0  0
  6 91  1  0  0  0
  6 92  1  0  0  0
  7  8  2  0  0  0
  7 26  1  0  0  0
  7 29  1  0  0  0
  8  9  1  0  0  0
  8 22  1  0  0  0
  9 10  1  0  0  0
  9 27  2  0  0  0
 10 11  2  0  0  0
 10 15  1  0  0  0
 11 12  1  0  0  0
 11 93  1  0  0  0
 12 13  2  0  0  0
 12 94  1  0  0  0
 13 14  1  0  0  0
 13 31  1  0  0  0
 14 15  2  0  0  0
 14 95  1  0  0  0
 15 96  1  0  0  0
 16 17  2  0  0  0
 16 21  1  0  0  0
 16 31  1  0  0  0
 17 18  1  0  0  0
 17 97  1  0  0  0
 18 19  2  0  0  0
 18 98  1  0  0  0
 19 20  1  0  0  0
 19 24  1  0  0  0
 20 21  2  0  0  0
 20 99  1  0  0  0
 21 23  1  0  0  0
 22 28  1  0  0  0
 22 32  2  0  0  0
 26 27  1  0  0  0
 28100  1  0  0  0
 28101  1  0  0  0
 29102  1  0  0  0
 29103  1  0  0  0
 33 34  1  0  0  0
 33 66  1  0  0  0
 33 70  2  0  0  0
 34 36  1  0  0  0
 34 59  1  0  0  0
 34104  1  0  0  0
 35 44  2  0  0  0
 35 45  1  0  0  0
 35 68  1  0  0  0
 36 56  1  0  0  0
 36105  1  0  0  0
 37 39  1  0  0  0
 37 47  1  0  0  0
 37 66  1  0  0  0
 37106  1  0  0  0
 38 43  2  0  0  0
 38 46  1  0  0  0
 38 47  1  0  0  0
 39 64  1  0  0  0
 39 67  2  0  0  0
 40 52  1  0  0  0
 40 53  2  0  0  0
 40 58  1  0  0  0
 41107  1  0  0  0
 41108  1  0  0  0
 41109  1  0  0  0
 41 48  1  0  0  0
 42 43  1  0  0  0
 42 66  1  0  0  0
 42110  1  0  0  0
 42111  1  0  0  0
 43 44  1  0  0  0
 44112  1  0  0  0
 45 46  2  0  0  0
 45113  1  0  0  0
 46114  1  0  0  0
 47115  1  0  0  0
 47116  1  0  0  0
 48 56  1  0  0  0
 48 65  1  0  0  0
 48117  1  0  0  0
 49 50  1  0  0  0
 49 53  1  0  0  0
 49 64  1  0  0  0
 49118  1  0  0  0
 50 51  1  0  0  0
 50119  1  0  0  0
 50120  1  0  0  0
 51 52  1  0  0  0
 51121  1  0  0  0
 51122  1  0  0  0
 52123  1  0  0  0
 52124  1  0  0  0
 53 54  1  0  0  0
 54 55  2  0  0  0
 54125  1  0  0  0
 55 57  1  0  0  0
 55126  1  0  0  0
 56 69  2  0  0  0
 57 58  2  0  0  0
 57127  1  0  0  0
 58128  1  0  0  0
 59 60  1  0  0  0
 59 61  1  0  0  0
 59 62  1  0  0  0
 60129  1  0  0  0
 60130  1  0  0  0
 60131  1  0  0  0
 61132  1  0  0  0
 61133  1  0  0  0
 61134  1  0  0  0
 62135  1  0  0  0
 62136  1  0  0  0
 62137  1  0  0  0
 63 65  1  0  0  0
 63138  1  0  0  0
 63139  1  0  0  0
 63140  1  0  0  0
 64141  1  0  0  0
 65142  1  0  0  0
 68 81  1  0  0  0
 71 72  2  0  0  0
 71 74  1  0  0  0
 71143  1  0  0  0
 72 76  1  0  0  0
 72144  1  0  0  0
 73 75  1  0  0  0
 73 76  2  0  0  0
 73145  1  0  0  0
 74 75  2  0  0  0
 74 77  1  0  0  0
 75 79  1  0  0  0
 76 83  1  0  0  0
 77146  1  0  0  0
 77147  1  0  0  0
 77148  1  0  0  0
 78149  1  0  0  0
 78150  1  0  0  0
 78151  1  0  0  0
 78 82  1  0  0  0
 79 80  1  0  0  0
 79152  1  0  0  0
 79153  1  0  0  0
 80 82  1  0  0  0
 80154  1  0  0  0
 80155  1  0  0  0
 81 82  1  0  0  0
 81156  1  0  0  0
 81157  1  0  0  0
 82158  1  0  0  0
 83159  1  0  0  0
M  ISO  4   1 100  68 101  81 101  83 100
M  END
> <chiral flag>
0

> <version>
0

> <s_m_source_file>
/data/baiqing/PycharmProjects/Reinvent-master-3.2/result/LINK_invent/BTK/process_docking_weight1_custom_product_contain_oxygen_bond_distance_aromatic_linkinvent_7_9_3/rearranged_h_0135.sdf

> <i_m_source_file_index>
97

> <r_mmod_Potential_Energy-OPLS-2005>
165.954437255859

> <r_mmod_Stretch_Energy-OPLS-2005>
121.486282348633

> <r_mmod_Bend_Energy-OPLS-2005>
171.396255493164

> <r_mmod_Torsional_Energy-OPLS-2005>
249.827255249023

> <r_mmod_Improper_Torsional_Energy-OPLS-2005>
5.64220809936523

> <r_mmod_Van_der_Waal_Energy-OPLS-2005>
139.611770629883

> <r_mmod_Electrostatic_Energy-OPLS-2005>
-370.339050292969

> <r_mmod_Solvation_Energy-OPLS-2005>
-200.247634887695

> <b_mmod_Minimization_Converged-OPLS-2005>
0

> <r_mmod_RMS_Derivative-OPLS-2005>
6.4608325958252

$$$$
97
                    3D
 Structure written by MMmdl.
171179  0  0  1  0            999 V2000
  -30.5992  -14.6532   20.5171 C   0  0  0  0  0  0
  -30.4523  -12.4079   19.4492 C   0  0  0  0  0  0
  -29.5149  -12.5158   18.2246 C   0  0  0  0  0  0
  -28.0369  -12.3468   18.6340 C   0  0  0  0  0  0
  -27.6559  -13.2115   19.8646 C   0  0  2  0  0  0
  -28.7005  -13.0502   20.9928 C   0  0  0  0  0  0
  -25.2553  -13.8126   20.5671 C   0  0  0  0  0  0
  -24.1826  -13.0405   20.9194 C   0  0  0  0  0  0
  -24.6394  -11.6880   20.8729 C   0  0  0  0  0  0
  -23.9058  -10.4272   21.0390 C   0  0  0  0  0  0
  -24.3612   -9.4197   21.9176 C   0  0  0  0  0  0
  -23.6288   -8.2235   22.0749 C   0  0  0  0  0  0
  -22.4272   -8.0273   21.3545 C   0  0  0  0  0  0
  -21.9902   -9.0242   20.4645 C   0  0  0  0  0  0
  -22.7228  -10.2119   20.3049 C   0  0  0  0  0  0
  -21.6855   -6.0731   22.5277 C   0  0  0  0  0  0
  -21.4011   -6.5629   23.8211 C   0  0  0  0  0  0
  -21.3661   -5.6783   24.9174 C   0  0  0  0  0  0
  -21.6048   -4.3049   24.7221 C   0  0  0  0  0  0
  -21.8822   -3.8144   23.4338 C   0  0  0  0  0  0
  -21.9194   -4.6963   22.3398 C   0  0  0  0  0  0
  -22.7852  -13.5221   21.1853 C   0  0  0  0  0  0
  -22.1664   -4.2152   21.0974 F   0  0  0  0  0  0
  -21.5635   -3.4532   25.7732 F   0  0  0  0  0  0
  -30.0171  -13.4131   20.4387 N   0  0  0  0  0  0
  -26.2997  -12.9315   20.3304 N   0  0  0  0  0  0
  -25.9322  -11.6475   20.5733 N   0  0  0  0  0  0
  -22.0480  -12.8231   22.0410 N   0  0  0  0  0  0
  -25.4196  -15.1844   20.4059 N   0  0  0  0  0  0
  -31.7518  -14.8545   20.1214 O   0  0  0  0  0  0
  -21.6635   -6.8871   21.4238 O   0  0  0  0  0  0
  -22.3545  -14.5525   20.6690 O   0  0  0  0  0  0
  -24.6247  -31.8584   23.2017 C   0  0  0  0  0  0
  -25.9090  -32.4775   23.8352 C   0  0  1  0  0  0
  -27.2372  -27.3290   20.1281 C   0  0  0  0  0  0
  -25.5898  -33.8575   24.2287 N   0  0  0  0  0  0
  -23.4187  -30.4785   21.5439 C   0  0  2  0  0  0
  -24.8678  -28.9243   20.1190 C   0  0  0  0  0  0
  -22.7459  -29.4614   22.4959 C   0  0  0  0  0  0
  -18.0280  -28.1395   22.8490 C   0  0  0  0  0  0
  -24.1483  -36.7296   23.2642 C   0  0  0  0  0  0
  -25.9558  -30.7950   21.3662 C   0  0  0  0  0  0
  -26.0335  -29.4183   20.7172 C   0  0  0  0  0  0
  -27.2219  -28.6335   20.7057 C   0  0  0  0  0  0
  -26.0481  -26.8722   19.5216 C   0  0  0  0  0  0
  -24.8755  -27.6569   19.5111 C   0  0  0  0  0  0
  -23.6334  -29.8025   20.1630 C   0  0  0  0  0  0
  -25.4106  -36.3084   24.0339 C   0  0  1  0  0  0
  -20.5876  -28.3681   23.1302 C   0  0  2  0  0  0
  -20.6767  -26.9405   22.5421 C   0  0  0  0  0  0
  -19.5753  -26.6392   21.5213 C   0  0  0  0  0  0
  -18.1926  -26.7943   22.1615 C   0  0  0  0  0  0
  -19.1530  -28.8856   23.2895 C   0  0  0  0  0  0
  -18.9454  -30.1457   23.8915 C   0  0  0  0  0  0
  -17.6454  -30.6597   24.0563 C   0  0  0  0  0  0
  -25.9040  -34.9449   23.5116 C   0  0  0  0  0  0
  -16.5344  -29.9094   23.6331 C   0  0  0  0  0  0
  -16.7263  -28.6508   23.0357 C   0  0  0  0  0  0
  -26.4496  -31.6587   25.0714 C   0  0  0  0  0  0
  -25.3747  -31.3685   26.1449 C   0  0  0  0  0  0
  -27.0342  -30.3026   24.6138 C   0  0  0  0  0  0
  -27.6074  -32.4307   25.7466 C   0  0  0  0  0  0
  -27.5583  -37.1791   24.8463 C   0  0  0  0  0  0
  -21.4174  -29.3034   22.3698 N   0  0  0  0  0  0
  -26.4282  -37.3780   23.9423 N   0  0  0  0  0  0
  -24.6854  -31.0611   22.0949 N   0  0  0  0  0  0
  -23.4177  -28.8164   23.3047 O   0  0  0  0  0  0
  -28.3922  -26.5409   20.1075 O   0  0  0  0  0  0
  -26.5618  -34.8918   22.4687 O   0  0  0  0  0  0
  -23.5412  -32.1357   23.7364 O   0  0  0  0  0  0
  -30.3557  -19.4708   20.9663 C   0  0  0  0  0  0
  -30.6499  -18.0655   21.0143 C   0  0  0  0  0  0
  -28.4258  -17.6010   20.2450 C   0  0  0  0  0  0
  -29.0783  -19.9804   20.5832 C   0  0  0  0  0  0
  -28.1302  -18.9928   20.1778 C   0  0  0  0  0  0
  -29.6704  -17.0896   20.6850 C   0  0  0  0  0  0
  -26.7344  -19.3860   19.7213 C   0  0  0  0  0  0
  -27.4935  -21.4000   24.5365 C   0  0  0  0  0  0
  -27.6855  -23.6745   18.5297 C   0  0  0  0  0  0
  -29.9719  -24.6633   18.6500 C   0  0  0  0  0  0
  -27.5882  -20.9716   23.0686 C   0  0  0  0  0  0
  -28.5583  -21.8556   22.2667 C   0  0  0  0  0  0
  -29.4945  -22.6296   20.0291 C   0  0  0  0  0  0
  -28.3556  -25.1200   20.5223 C   0  0  0  0  0  0
  -28.6606  -21.5055   20.7664 C   0  0  1  0  0  0
  -28.8489  -24.0087   19.4838 C   0  0  0  0  0  0
  -29.7582  -15.6508   20.9338 N   0  0  0  0  0  0
  -31.4884  -12.5607   19.1429 H   0  0  0  0  0  0
  -30.4137  -11.4075   19.8825 H   0  0  0  0  0  0
  -29.7845  -11.7668   17.4788 H   0  0  0  0  0  0
  -29.6539  -13.4862   17.7457 H   0  0  0  0  0  0
  -27.8777  -11.2927   18.8635 H   0  0  0  0  0  0
  -27.3833  -12.5757   17.7906 H   0  0  0  0  0  0
  -27.6766  -14.2492   19.5315 H   0  0  0  0  0  0
  -28.7180  -12.0208   21.3537 H   0  0  0  0  0  0
  -28.4362  -13.6581   21.8597 H   0  0  0  0  0  0
  -25.2749   -9.5688   22.4758 H   0  0  0  0  0  0
  -24.0002   -7.4631   22.7467 H   0  0  0  0  0  0
  -21.0835   -8.8752   19.8954 H   0  0  0  0  0  0
  -22.3671  -10.9661   19.6167 H   0  0  0  0  0  0
  -21.1994   -7.6135   23.9720 H   0  0  0  0  0  0
  -21.1487   -6.0508   25.9080 H   0  0  0  0  0  0
  -22.0604   -2.7610   23.2835 H   0  0  0  0  0  0
  -22.4067  -11.9892   22.4822 H   0  0  0  0  0  0
  -21.1108  -13.1286   22.2597 H   0  0  0  0  0  0
  -24.6401  -15.8258   20.5043 H   0  0  0  0  0  0
  -26.2461  -15.6201   20.0237 H   0  0  0  0  0  0
  -26.7160  -32.5476   23.1110 H   0  0  0  0  0  0
  -25.0030  -33.9716   25.0421 H   0  0  0  0  0  0
  -22.7129  -31.2984   21.3962 H   0  0  0  0  0  0
  -23.3754  -35.9617   23.3283 H   0  0  0  0  0  0
  -24.3583  -36.8937   22.2060 H   0  0  0  0  0  0
  -23.7221  -37.6485   23.6679 H   0  0  0  0  0  0
  -26.0787  -31.5545   20.5927 H   0  0  0  0  0  0
  -26.8388  -30.8546   21.9906 H   0  0  0  0  0  0
  -28.1241  -29.0128   21.1641 H   0  0  0  0  0  0
  -26.0207  -25.9030   19.0480 H   0  0  0  0  0  0
  -23.9821  -27.2747   19.0370 H   0  0  0  0  0  0
  -23.7484  -30.5719   19.3994 H   0  0  0  0  0  0
  -22.7556  -29.2253   19.8668 H   0  0  0  0  0  0
  -25.1289  -36.1926   25.0831 H   0  0  0  0  0  0
  -20.9972  -28.3251   24.1423 H   0  0  0  0  0  0
  -20.5655  -26.2286   23.3616 H   0  0  0  0  0  0
  -21.6637  -26.7439   22.1215 H   0  0  0  0  0  0
  -19.6905  -25.6302   21.1248 H   0  0  0  0  0  0
  -19.6708  -27.3201   20.6743 H   0  0  0  0  0  0
  -17.4196  -26.6694   21.4013 H   0  0  0  0  0  0
  -18.0322  -26.0081   22.9004 H   0  0  0  0  0  0
  -19.7927  -30.7270   24.2299 H   0  0  0  0  0  0
  -17.5005  -31.6285   24.5152 H   0  0  0  0  0  0
  -15.5343  -30.2998   23.7665 H   0  0  0  0  0  0
  -15.8656  -28.0831   22.7082 H   0  0  0  0  0  0
  -24.5949  -30.7005   25.7771 H   0  0  0  0  0  0
  -24.8910  -32.2826   26.4898 H   0  0  0  0  0  0
  -25.8097  -30.8854   27.0207 H   0  0  0  0  0  0
  -26.2894  -29.6755   24.1222 H   0  0  0  0  0  0
  -27.4124  -29.7305   25.4621 H   0  0  0  0  0  0
  -27.8726  -30.4338   23.9293 H   0  0  0  0  0  0
  -27.2716  -33.3604   26.2065 H   0  0  0  0  0  0
  -28.3864  -32.6858   25.0269 H   0  0  0  0  0  0
  -28.0765  -31.8410   26.5351 H   0  0  0  0  0  0
  -28.2583  -38.0105   24.7542 H   0  0  0  0  0  0
  -28.1096  -36.2643   24.6242 H   0  0  0  0  0  0
  -27.2320  -37.1380   25.8870 H   0  0  0  0  0  0
  -20.9350  -29.8727   21.6890 H   0  0  0  0  0  0
  -26.0168  -38.2848   24.1452 H   0  0  0  0  0  0
  -31.1160  -20.1663   21.2939 H   0  0  0  0  0  0
  -31.6167  -17.7463   21.3787 H   0  0  0  0  0  0
  -27.6476  -16.8989   19.9890 H   0  0  0  0  0  0
  -26.1788  -18.5311   19.3352 H   0  0  0  0  0  0
  -26.7815  -20.1281   18.9240 H   0  0  0  0  0  0
  -26.1635  -19.8008   20.5518 H   0  0  0  0  0  0
  -26.7916  -20.7674   25.0802 H   0  0  0  0  0  0
  -27.1504  -22.4313   24.6266 H   0  0  0  0  0  0
  -28.4606  -21.3250   25.0343 H   0  0  0  0  0  0
  -27.9478  -22.8710   17.8411 H   0  0  0  0  0  0
  -27.4076  -24.5369   17.9236 H   0  0  0  0  0  0
  -26.7949  -23.3615   19.0752 H   0  0  0  0  0  0
  -30.3420  -23.9961   17.8708 H   0  0  0  0  0  0
  -30.8211  -24.9364   19.2773 H   0  0  0  0  0  0
  -29.6331  -25.5708   18.1497 H   0  0  0  0  0  0
  -26.5953  -21.0127   22.6197 H   0  0  0  0  0  0
  -27.9048  -19.9289   23.0241 H   0  0  0  0  0  0
  -29.5489  -21.7936   22.7193 H   0  0  0  0  0  0
  -28.2452  -22.8942   22.3708 H   0  0  0  0  0  0
  -29.9039  -22.1267   19.1516 H   0  0  0  0  0  0
  -30.3735  -22.8597   20.6332 H   0  0  0  0  0  0
  -29.0173  -25.0663   21.3872 H   0  0  0  0  0  0
  -27.3717  -24.8595   20.9155 H   0  0  0  0  0  0
  -27.6545  -21.6179   20.3748 H   0  0  0  0  0  0
  -28.8816  -15.2521   21.2304 H   0  0  0  0  0  0
  1 25  1  0  0  0
  1 30  2  0  0  0
  1 87  1  0  0  0
  2  3  1  0  0  0
  2 25  1  0  0  0
  2 88  1  0  0  0
  2 89  1  0  0  0
  3  4  1  0  0  0
  3 90  1  0  0  0
  3 91  1  0  0  0
  4  5  1  0  0  0
  4 92  1  0  0  0
  4 93  1  0  0  0
  5  6  1  0  0  0
  5 26  1  0  0  0
  5 94  1  0  0  0
  6 25  1  0  0  0
  6 95  1  0  0  0
  6 96  1  0  0  0
  7  8  2  0  0  0
  7 26  1  0  0  0
  7 29  1  0  0  0
  8  9  1  0  0  0
  8 22  1  0  0  0
  9 10  1  0  0  0
  9 27  2  0  0  0
 10 11  2  0  0  0
 10 15  1  0  0  0
 11 12  1  0  0  0
 11 97  1  0  0  0
 12 13  2  0  0  0
 12 98  1  0  0  0
 13 14  1  0  0  0
 13 31  1  0  0  0
 14 15  2  0  0  0
 14 99  1  0  0  0
 15100  1  0  0  0
 16 17  2  0  0  0
 16 21  1  0  0  0
 16 31  1  0  0  0
 17 18  1  0  0  0
 17101  1  0  0  0
 18 19  2  0  0  0
 18102  1  0  0  0
 19 20  1  0  0  0
 19 24  1  0  0  0
 20 21  2  0  0  0
 20103  1  0  0  0
 21 23  1  0  0  0
 22 28  1  0  0  0
 22 32  2  0  0  0
 26 27  1  0  0  0
 28104  1  0  0  0
 28105  1  0  0  0
 29106  1  0  0  0
 29107  1  0  0  0
 33 34  1  0  0  0
 33 66  1  0  0  0
 33 70  2  0  0  0
 34 36  1  0  0  0
 34 59  1  0  0  0
 34108  1  0  0  0
 35 44  2  0  0  0
 35 45  1  0  0  0
 35 68  1  0  0  0
 36 56  1  0  0  0
 36109  1  0  0  0
 37 39  1  0  0  0
 37 47  1  0  0  0
 37 66  1  0  0  0
 37110  1  0  0  0
 38 43  2  0  0  0
 38 46  1  0  0  0
 38 47  1  0  0  0
 39 64  1  0  0  0
 39 67  2  0  0  0
 40 52  1  0  0  0
 40 53  2  0  0  0
 40 58  1  0  0  0
 41111  1  0  0  0
 41112  1  0  0  0
 41113  1  0  0  0
 41 48  1  0  0  0
 42 43  1  0  0  0
 42 66  1  0  0  0
 42114  1  0  0  0
 42115  1  0  0  0
 43 44  1  0  0  0
 44116  1  0  0  0
 45 46  2  0  0  0
 45117  1  0  0  0
 46118  1  0  0  0
 47119  1  0  0  0
 47120  1  0  0  0
 48 56  1  0  0  0
 48 65  1  0  0  0
 48121  1  0  0  0
 49 50  1  0  0  0
 49 53  1  0  0  0
 49 64  1  0  0  0
 49122  1  0  0  0
 50 51  1  0  0  0
 50123  1  0  0  0
 50124  1  0  0  0
 51 52  1  0  0  0
 51125  1  0  0  0
 51126  1  0  0  0
 52127  1  0  0  0
 52128  1  0  0  0
 53 54  1  0  0  0
 54 55  2  0  0  0
 54129  1  0  0  0
 55 57  1  0  0  0
 55130  1  0  0  0
 56 69  2  0  0  0
 57 58  2  0  0  0
 57131  1  0  0  0
 58132  1  0  0  0
 59 60  1  0  0  0
 59 61  1  0  0  0
 59 62  1  0  0  0
 60133  1  0  0  0
 60134  1  0  0  0
 60135  1  0  0  0
 61136  1  0  0  0
 61137  1  0  0  0
 61138  1  0  0  0
 62139  1  0  0  0
 62140  1  0  0  0
 62141  1  0  0  0
 63 65  1  0  0  0
 63142  1  0  0  0
 63143  1  0  0  0
 63144  1  0  0  0
 64145  1  0  0  0
 65146  1  0  0  0
 68 84  1  0  0  0
 71 72  2  0  0  0
 71 74  1  0  0  0
 71147  1  0  0  0
 72 76  1  0  0  0
 72148  1  0  0  0
 73 75  1  0  0  0
 73 76  2  0  0  0
 73149  1  0  0  0
 74 75  2  0  0  0
 74 85  1  0  0  0
 75 77  1  0  0  0
 76 87  1  0  0  0
 77150  1  0  0  0
 77151  1  0  0  0
 77152  1  0  0  0
 78 81  1  0  0  0
 78153  1  0  0  0
 78154  1  0  0  0
 78155  1  0  0  0
 79156  1  0  0  0
 79157  1  0  0  0
 79158  1  0  0  0
 79 86  1  0  0  0
 80 86  1  0  0  0
 80159  1  0  0  0
 80160  1  0  0  0
 80161  1  0  0  0
 81 82  1  0  0  0
 81162  1  0  0  0
 81163  1  0  0  0
 82164  1  0  0  0
 82165  1  0  0  0
 82 85  1  0  0  0
 83 85  1  0  0  0
 83 86  1  0  0  0
 83166  1  0  0  0
 83167  1  0  0  0
 84 86  1  0  0  0
 84168  1  0  0  0
 84169  1  0  0  0
 85170  1  0  0  0
 87171  1  0  0  0
M  ISO  4   1 100  68 101  84 101  87 100
M  END
> <chiral flag>
0

> <version>
0

> <s_m_source_file>
/data/baiqing/PycharmProjects/Reinvent-master-3.2/result/LINK_invent/BTK/process_docking_weight1_custom_product_contain_oxygen_bond_distance_aromatic_linkinvent_7_9_3/rearranged_h_0135.sdf

> <i_m_source_file_index>
98

> <r_mmod_Potential_Energy-OPLS-2005>
147.177719116211

> <r_mmod_Stretch_Energy-OPLS-2005>
86.3347778320312

> <r_mmod_Bend_Energy-OPLS-2005>
166.537292480469

> <r_mmod_Torsional_Energy-OPLS-2005>
270.275054931641

> <r_mmod_Improper_Torsional_Energy-OPLS-2005>
6.45932102203369

> <r_mmod_Van_der_Waal_Energy-OPLS-2005>
131.232940673828

> <r_mmod_Electrostatic_Energy-OPLS-2005>
-368.727203369141

> <r_mmod_Solvation_Energy-OPLS-2005>
-190.330368041992

> <b_mmod_Minimization_Converged-OPLS-2005>
0

> <r_mmod_RMS_Derivative-OPLS-2005>
1.31996202468872

$$$$
98
                    3D
 Structure written by MMmdl.
160168  0  0  1  0            999 V2000
  -30.5937  -14.7090   20.4764 C   0  0  0  0  0  0
  -30.4364  -12.4361   19.4440 C   0  0  0  0  0  0
  -29.5051  -12.5146   18.2149 C   0  0  0  0  0  0
  -28.0308  -12.3388   18.6315 C   0  0  0  0  0  0
  -27.6460  -13.2170   19.8518 C   0  0  2  0  0  0
  -28.6962  -13.1077   20.9792 C   0  0  0  0  0  0
  -25.2561  -13.8156   20.5663 C   0  0  0  0  0  0
  -24.1821  -13.0416   20.9161 C   0  0  0  0  0  0
  -24.6393  -11.6890   20.8721 C   0  0  0  0  0  0
  -23.9052  -10.4276   21.0404 C   0  0  0  0  0  0
  -24.3605   -9.4188   21.9179 C   0  0  0  0  0  0
  -23.6283   -8.2227   22.0757 C   0  0  0  0  0  0
  -22.4263   -8.0266   21.3552 C   0  0  0  0  0  0
  -21.9903   -9.0227   20.4630 C   0  0  0  0  0  0
  -22.7233  -10.2107   20.3046 C   0  0  0  0  0  0
  -21.6858   -6.0716   22.5273 C   0  0  0  0  0  0
  -21.4020   -6.5631   23.8195 C   0  0  0  0  0  0
  -21.3659   -5.6792   24.9168 C   0  0  0  0  0  0
  -21.6055   -4.3055   24.7228 C   0  0  0  0  0  0
  -21.8828   -3.8137   23.4357 C   0  0  0  0  0  0
  -21.9194   -4.6947   22.3409 C   0  0  0  0  0  0
  -22.7857  -13.5205   21.1823 C   0  0  0  0  0  0
  -22.1667   -4.2126   21.0991 F   0  0  0  0  0  0
  -21.5626   -3.4544   25.7743 F   0  0  0  0  0  0
  -29.9898  -13.4774   20.3923 N   0  0  0  0  0  0
  -26.2965  -12.9320   20.3266 N   0  0  0  0  0  0
  -25.9321  -11.6478   20.5725 N   0  0  0  0  0  0
  -22.0517  -12.8182   22.0380 N   0  0  0  0  0  0
  -25.4275  -15.1878   20.4092 N   0  0  0  0  0  0
  -31.7963  -14.8313   20.2197 O   0  0  0  0  0  0
  -21.6637   -6.8864   21.4234 O   0  0  0  0  0  0
  -22.3522  -14.5500   20.6660 O   0  0  0  0  0  0
  -24.6303  -31.8558   23.1987 C   0  0  0  0  0  0
  -25.9129  -32.4731   23.8347 C   0  0  1  0  0  0
  -27.2054  -27.2450   20.1377 C   0  0  0  0  0  0
  -25.5920  -33.8547   24.2262 N   0  0  0  0  0  0
  -23.4304  -30.4761   21.5422 C   0  0  2  0  0  0
  -24.8775  -28.9247   20.1073 C   0  0  0  0  0  0
  -22.7515  -29.4594   22.4918 C   0  0  0  0  0  0
  -18.0295  -28.1393   22.8483 C   0  0  0  0  0  0
  -24.1490  -36.7264   23.2648 C   0  0  0  0  0  0
  -25.9805  -30.7503   21.3978 C   0  0  0  0  0  0
  -26.0469  -29.3782   20.7314 C   0  0  0  0  0  0
  -27.2177  -28.5516   20.7329 C   0  0  0  0  0  0
  -26.0226  -26.8701   19.4667 C   0  0  0  0  0  0
  -24.8738  -27.6826   19.4548 C   0  0  0  0  0  0
  -23.6502  -29.8133   20.1582 C   0  0  0  0  0  0
  -25.4127  -36.3068   24.0335 C   0  0  1  0  0  0
  -20.5898  -28.3717   23.1265 C   0  0  2  0  0  0
  -20.6785  -26.9439   22.5406 C   0  0  0  0  0  0
  -19.5760  -26.6405   21.5210 C   0  0  0  0  0  0
  -18.1942  -26.7938   22.1622 C   0  0  0  0  0  0
  -19.1549  -28.8874   23.2851 C   0  0  0  0  0  0
  -18.9468  -30.1467   23.8879 C   0  0  0  0  0  0
  -17.6467  -30.6596   24.0568 C   0  0  0  0  0  0
  -25.9065  -34.9429   23.5108 C   0  0  0  0  0  0
  -16.5356  -29.9095   23.6334 C   0  0  0  0  0  0
  -16.7279  -28.6508   23.0361 C   0  0  0  0  0  0
  -26.4503  -31.6556   25.0739 C   0  0  0  0  0  0
  -25.3701  -31.3664   26.1419 C   0  0  0  0  0  0
  -27.0406  -30.2974   24.6276 C   0  0  0  0  0  0
  -27.6046  -32.4342   25.7483 C   0  0  0  0  0  0
  -27.5599  -37.1783   24.8470 C   0  0  0  0  0  0
  -21.4224  -29.3045   22.3648 N   0  0  0  0  0  0
  -26.4309  -37.3767   23.9407 N   0  0  0  0  0  0
  -24.6983  -31.0484   22.0987 N   0  0  0  0  0  0
  -23.4210  -28.8141   23.3027 O   0  0  0  0  0  0
  -28.2791  -26.3274   20.1774 O   0  0  0  0  0  0
  -26.5666  -34.8905   22.4694 O   0  0  0  0  0  0
  -23.5443  -32.1427   23.7228 O   0  0  0  0  0  0
  -30.8836  -17.5041   21.9752 C   0  0  0  0  0  0
  -30.4339  -19.9262   21.8346 C   0  0  0  0  0  0
  -29.3648  -18.3829   20.2944 C   0  0  0  0  0  0
  -31.0846  -18.8239   22.4391 C   0  0  0  0  0  0
  -30.0186  -17.2289   20.8962 C   0  0  0  0  0  0
  -29.5610  -19.7576   20.7362 C   0  0  0  0  0  0
  -31.2556  -19.2336   24.9290 C   0  0  0  0  0  0
  -30.3655  -23.9555   20.2698 C   0  0  0  0  0  0
  -32.0178  -19.0598   23.6114 C   0  0  0  0  0  0
  -27.9978  -24.9046   20.6064 C   0  0  0  0  0  0
  -28.5848  -22.1606   20.7594 C   0  0  0  0  0  0
  -28.8761  -23.6289   20.1105 C   0  0  2  0  0  0
  -29.7583  -15.8136   20.5456 N   0  0  0  0  0  0
  -29.0008  -20.8929   20.0754 O   0  0  0  0  0  0
  -31.4763  -12.5745   19.1413 H   0  0  0  0  0  0
  -30.3841  -11.4481   19.9024 H   0  0  0  0  0  0
  -29.7838  -11.7611   17.4772 H   0  0  0  0  0  0
  -29.6329  -13.4830   17.7276 H   0  0  0  0  0  0
  -27.8815  -11.2851   18.8715 H   0  0  0  0  0  0
  -27.3705  -12.5571   17.7906 H   0  0  0  0  0  0
  -27.6470  -14.2457   19.4920 H   0  0  0  0  0  0
  -28.7346  -12.0929   21.3784 H   0  0  0  0  0  0
  -28.4415  -13.7549   21.8205 H   0  0  0  0  0  0
  -25.2771   -9.5659   22.4723 H   0  0  0  0  0  0
  -24.0001   -7.4633   22.7491 H   0  0  0  0  0  0
  -21.0843   -8.8731   19.8929 H   0  0  0  0  0  0
  -22.3711  -10.9624   19.6128 H   0  0  0  0  0  0
  -21.2015   -7.6139   23.9686 H   0  0  0  0  0  0
  -21.1477   -6.0530   25.9063 H   0  0  0  0  0  0
  -22.0609   -2.7599   23.2859 H   0  0  0  0  0  0
  -22.4183  -11.9854   22.4755 H   0  0  0  0  0  0
  -21.1114  -13.1144   22.2549 H   0  0  0  0  0  0
  -24.6585  -15.8400   20.5131 H   0  0  0  0  0  0
  -26.2789  -15.6310   20.0900 H   0  0  0  0  0  0
  -26.7171  -32.5362   23.1059 H   0  0  0  0  0  0
  -24.9976  -33.9674   25.0349 H   0  0  0  0  0  0
  -22.7262  -31.2974   21.3958 H   0  0  0  0  0  0
  -23.3780  -35.9567   23.3306 H   0  0  0  0  0  0
  -24.3555  -36.8908   22.2060 H   0  0  0  0  0  0
  -23.7214  -37.6442   23.6695 H   0  0  0  0  0  0
  -26.1518  -31.5135   20.6383 H   0  0  0  0  0  0
  -26.8442  -30.7759   22.0498 H   0  0  0  0  0  0
  -28.1134  -28.8888   21.2346 H   0  0  0  0  0  0
  -25.9748  -25.9262   18.9438 H   0  0  0  0  0  0
  -23.9903  -27.3428   18.9319 H   0  0  0  0  0  0
  -23.7760  -30.5904   19.4040 H   0  0  0  0  0  0
  -22.7683  -29.2468   19.8537 H   0  0  0  0  0  0
  -25.1304  -36.1926   25.0834 H   0  0  0  0  0  0
  -20.9951  -28.3306   24.1396 H   0  0  0  0  0  0
  -20.5701  -26.2331   23.3613 H   0  0  0  0  0  0
  -21.6648  -26.7481   22.1190 H   0  0  0  0  0  0
  -19.6923  -25.6317   21.1242 H   0  0  0  0  0  0
  -19.6683  -27.3203   20.6731 H   0  0  0  0  0  0
  -17.4206  -26.6680   21.4028 H   0  0  0  0  0  0
  -18.0340  -26.0086   22.9023 H   0  0  0  0  0  0
  -19.7940  -30.7288   24.2253 H   0  0  0  0  0  0
  -17.5020  -31.6268   24.5186 H   0  0  0  0  0  0
  -15.5349  -30.2987   23.7681 H   0  0  0  0  0  0
  -15.8679  -28.0815   22.7099 H   0  0  0  0  0  0
  -24.5854  -30.7078   25.7671 H   0  0  0  0  0  0
  -24.8898  -32.2803   26.4921 H   0  0  0  0  0  0
  -25.7966  -30.8724   27.0157 H   0  0  0  0  0  0
  -26.3026  -29.6639   24.1329 H   0  0  0  0  0  0
  -27.4116  -29.7303   25.4824 H   0  0  0  0  0  0
  -27.8898  -30.4258   23.9558 H   0  0  0  0  0  0
  -27.2657  -33.3663   26.2023 H   0  0  0  0  0  0
  -28.3832  -32.6882   25.0276 H   0  0  0  0  0  0
  -28.0752  -31.8506   26.5399 H   0  0  0  0  0  0
  -28.2594  -38.0109   24.7561 H   0  0  0  0  0  0
  -28.1136  -36.2635   24.6274 H   0  0  0  0  0  0
  -27.2303  -37.1386   25.8871 H   0  0  0  0  0  0
  -20.9442  -29.8753   21.6816 H   0  0  0  0  0  0
  -26.0198  -38.2850   24.1401 H   0  0  0  0  0  0
  -31.3839  -16.6883   22.4811 H   0  0  0  0  0  0
  -30.6480  -20.9173   22.2096 H   0  0  0  0  0  0
  -28.6952  -18.2143   19.4631 H   0  0  0  0  0  0
  -31.9443  -19.3993   25.7586 H   0  0  0  0  0  0
  -30.6647  -18.3474   25.1606 H   0  0  0  0  0  0
  -30.5768  -20.0869   24.8854 H   0  0  0  0  0  0
  -30.6113  -24.9096   19.8028 H   0  0  0  0  0  0
  -30.9900  -23.1922   19.8051 H   0  0  0  0  0  0
  -30.6456  -24.0230   21.3215 H   0  0  0  0  0  0
  -32.6241  -19.9439   23.4125 H   0  0  0  0  0  0
  -32.7158  -18.2255   23.6984 H   0  0  0  0  0  0
  -28.0437  -24.9218   21.6951 H   0  0  0  0  0  0
  -26.9600  -24.6492   20.4023 H   0  0  0  0  0  0
  -27.5012  -22.0696   20.8211 H   0  0  0  0  0  0
  -28.8997  -22.1633   21.8011 H   0  0  0  0  0  0
  -28.6756  -23.5341   19.0434 H   0  0  0  0  0  0
  -28.7851  -15.5807   20.4294 H   0  0  0  0  0  0
  1 25  1  0  0  0
  1 30  2  0  0  0
  1 83  1  0  0  0
  2  3  1  0  0  0
  2 25  1  0  0  0
  2 85  1  0  0  0
  2 86  1  0  0  0
  3  4  1  0  0  0
  3 87  1  0  0  0
  3 88  1  0  0  0
  4  5  1  0  0  0
  4 89  1  0  0  0
  4 90  1  0  0  0
  5  6  1  0  0  0
  5 26  1  0  0  0
  5 91  1  0  0  0
  6 25  1  0  0  0
  6 92  1  0  0  0
  6 93  1  0  0  0
  7  8  2  0  0  0
  7 26  1  0  0  0
  7 29  1  0  0  0
  8  9  1  0  0  0
  8 22  1  0  0  0
  9 10  1  0  0  0
  9 27  2  0  0  0
 10 11  2  0  0  0
 10 15  1  0  0  0
 11 12  1  0  0  0
 11 94  1  0  0  0
 12 13  2  0  0  0
 12 95  1  0  0  0
 13 14  1  0  0  0
 13 31  1  0  0  0
 14 15  2  0  0  0
 14 96  1  0  0  0
 15 97  1  0  0  0
 16 17  2  0  0  0
 16 21  1  0  0  0
 16 31  1  0  0  0
 17 18  1  0  0  0
 17 98  1  0  0  0
 18 19  2  0  0  0
 18 99  1  0  0  0
 19 20  1  0  0  0
 19 24  1  0  0  0
 20 21  2  0  0  0
 20100  1  0  0  0
 21 23  1  0  0  0
 22 28  1  0  0  0
 22 32  2  0  0  0
 26 27  1  0  0  0
 28101  1  0  0  0
 28102  1  0  0  0
 29103  1  0  0  0
 29104  1  0  0  0
 33 34  1  0  0  0
 33 66  1  0  0  0
 33 70  2  0  0  0
 34 36  1  0  0  0
 34 59  1  0  0  0
 34105  1  0  0  0
 35 44  2  0  0  0
 35 45  1  0  0  0
 35 68  1  0  0  0
 36 56  1  0  0  0
 36106  1  0  0  0
 37 39  1  0  0  0
 37 47  1  0  0  0
 37 66  1  0  0  0
 37107  1  0  0  0
 38 43  2  0  0  0
 38 46  1  0  0  0
 38 47  1  0  0  0
 39 64  1  0  0  0
 39 67  2  0  0  0
 40 52  1  0  0  0
 40 53  2  0  0  0
 40 58  1  0  0  0
 41108  1  0  0  0
 41109  1  0  0  0
 41110  1  0  0  0
 41 48  1  0  0  0
 42 43  1  0  0  0
 42 66  1  0  0  0
 42111  1  0  0  0
 42112  1  0  0  0
 43 44  1  0  0  0
 44113  1  0  0  0
 45 46  2  0  0  0
 45114  1  0  0  0
 46115  1  0  0  0
 47116  1  0  0  0
 47117  1  0  0  0
 48 56  1  0  0  0
 48 65  1  0  0  0
 48118  1  0  0  0
 49 50  1  0  0  0
 49 53  1  0  0  0
 49 64  1  0  0  0
 49119  1  0  0  0
 50 51  1  0  0  0
 50120  1  0  0  0
 50121  1  0  0  0
 51 52  1  0  0  0
 51122  1  0  0  0
 51123  1  0  0  0
 52124  1  0  0  0
 52125  1  0  0  0
 53 54  1  0  0  0
 54 55  2  0  0  0
 54126  1  0  0  0
 55 57  1  0  0  0
 55127  1  0  0  0
 56 69  2  0  0  0
 57 58  2  0  0  0
 57128  1  0  0  0
 58129  1  0  0  0
 59 60  1  0  0  0
 59 61  1  0  0  0
 59 62  1  0  0  0
 60130  1  0  0  0
 60131  1  0  0  0
 60132  1  0  0  0
 61133  1  0  0  0
 61134  1  0  0  0
 61135  1  0  0  0
 62136  1  0  0  0
 62137  1  0  0  0
 62138  1  0  0  0
 63 65  1  0  0  0
 63139  1  0  0  0
 63140  1  0  0  0
 63141  1  0  0  0
 64142  1  0  0  0
 65143  1  0  0  0
 68 80  1  0  0  0
 71 74  2  0  0  0
 71 75  1  0  0  0
 71144  1  0  0  0
 72 74  1  0  0  0
 72 76  2  0  0  0
 72145  1  0  0  0
 73 75  2  0  0  0
 73 76  1  0  0  0
 73146  1  0  0  0
 74 79  1  0  0  0
 75 83  1  0  0  0
 76 84  1  0  0  0
 77 79  1  0  0  0
 77147  1  0  0  0
 77148  1  0  0  0
 77149  1  0  0  0
 78150  1  0  0  0
 78151  1  0  0  0
 78152  1  0  0  0
 78 82  1  0  0  0
 79153  1  0  0  0
 79154  1  0  0  0
 80 82  1  0  0  0
 80155  1  0  0  0
 80156  1  0  0  0
 81 82  1  0  0  0
 81 84  1  0  0  0
 81157  1  0  0  0
 81158  1  0  0  0
 82159  1  0  0  0
 83160  1  0  0  0
M  ISO  4   1 100  68 101  80 101  83 100
M  END
> <chiral flag>
0

> <version>
0

> <s_m_source_file>
/data/baiqing/PycharmProjects/Reinvent-master-3.2/result/LINK_invent/BTK/process_docking_weight1_custom_product_contain_oxygen_bond_distance_aromatic_linkinvent_7_9_3/rearranged_h_0135.sdf

> <i_m_source_file_index>
99

> <r_mmod_Potential_Energy-OPLS-2005>
215.843612670898

> <r_mmod_Stretch_Energy-OPLS-2005>
124.654792785645

> <r_mmod_Bend_Energy-OPLS-2005>
166.842727661133

> <r_mmod_Torsional_Energy-OPLS-2005>
261.320434570312

> <r_mmod_Improper_Torsional_Energy-OPLS-2005>
8.06905841827393

> <r_mmod_Van_der_Waal_Energy-OPLS-2005>
134.47981262207

> <r_mmod_Electrostatic_Energy-OPLS-2005>
-356.121978759766

> <r_mmod_Solvation_Energy-OPLS-2005>
-208.422836303711

> <b_mmod_Minimization_Converged-OPLS-2005>
0

> <r_mmod_RMS_Derivative-OPLS-2005>
2.87469124794006

$$$$
