0
                    3D
 Structure written by MMmdl.
160168  0  0  1  0            999 V2000
  -30.7123  -14.4758   20.7123 C   0  0  0  0  0  0
  -30.4268  -12.3520   19.4226 C   0  0  0  0  0  0
  -29.4848  -12.5366   18.2135 C   0  0  0  0  0  0
  -28.0120  -12.3605   18.6301 C   0  0  0  0  0  0
  -27.6602  -13.2048   19.8815 C   0  0  2  0  0  0
  -28.6995  -12.9828   21.0025 C   0  0  0  0  0  0
  -25.2536  -13.8132   20.5627 C   0  0  0  0  0  0
  -24.1807  -13.0416   20.9115 C   0  0  0  0  0  0
  -24.6362  -11.6866   20.8712 C   0  0  0  0  0  0
  -23.9014  -10.4274   21.0394 C   0  0  0  0  0  0
  -24.3598   -9.4223   21.9183 C   0  0  0  0  0  0
  -23.6307   -8.2247   22.0757 C   0  0  0  0  0  0
  -22.4288   -8.0259   21.3564 C   0  0  0  0  0  0
  -21.9899   -9.0209   20.4651 C   0  0  0  0  0  0
  -22.7182  -10.2097   20.3056 C   0  0  0  0  0  0
  -21.6853   -6.0733   22.5278 C   0  0  0  0  0  0
  -21.3991   -6.5639   23.8203 C   0  0  0  0  0  0
  -21.3670   -5.6800   24.9168 C   0  0  0  0  0  0
  -21.6066   -4.3067   24.7236 C   0  0  0  0  0  0
  -21.8826   -3.8154   23.4356 C   0  0  0  0  0  0
  -21.9201   -4.6963   22.3409 C   0  0  0  0  0  0
  -22.7814  -13.5186   21.1851 C   0  0  0  0  0  0
  -22.1657   -4.2146   21.0987 F   0  0  0  0  0  0
  -21.5653   -3.4552   25.7754 F   0  0  0  0  0  0
  -30.0323  -13.3122   20.4782 N   0  0  0  0  0  0
  -26.3000  -12.9299   20.3361 N   0  0  0  0  0  0
  -25.9323  -11.6467   20.5811 N   0  0  0  0  0  0
  -22.0501  -12.8172   22.0397 N   0  0  0  0  0  0
  -25.4226  -15.1863   20.4016 N   0  0  0  0  0  0
  -31.7629  -14.7481   20.1221 O   0  0  0  0  0  0
  -21.6641   -6.8878   21.4239 O   0  0  0  0  0  0
  -22.3479  -14.5542   20.6735 O   0  0  0  0  0  0
  -24.6231  -31.8705   23.2127 C   0  0  0  0  0  0
  -25.9081  -32.4842   23.8412 C   0  0  1  0  0  0
  -27.1758  -27.3602   20.0889 C   0  0  0  0  0  0
  -25.5912  -33.8628   24.2301 N   0  0  0  0  0  0
  -23.4067  -30.5096   21.5571 C   0  0  2  0  0  0
  -24.8436  -28.9904   20.1031 C   0  0  0  0  0  0
  -22.7398  -29.4761   22.5003 C   0  0  0  0  0  0
  -18.0204  -28.1424   22.8327 C   0  0  0  0  0  0
  -24.1478  -36.7324   23.2629 C   0  0  0  0  0  0
  -25.9534  -30.8102   21.3859 C   0  0  0  0  0  0
  -26.0192  -29.4489   20.7144 C   0  0  0  0  0  0
  -27.1900  -28.6404   20.7114 C   0  0  0  0  0  0
  -25.9859  -26.9843   19.4103 C   0  0  0  0  0  0
  -24.8284  -27.7640   19.4359 C   0  0  0  0  0  0
  -23.6113  -29.8594   20.1670 C   0  0  0  0  0  0
  -25.4113  -36.3137   24.0334 C   0  0  1  0  0  0
  -20.5790  -28.3840   23.1236 C   0  0  2  0  0  0
  -20.6838  -26.9601   22.5311 C   0  0  0  0  0  0
  -19.5744  -26.6314   21.5230 C   0  0  0  0  0  0
  -18.1892  -26.7929   22.1524 C   0  0  0  0  0  0
  -19.1404  -28.8943   23.2743 C   0  0  0  0  0  0
  -18.9261  -30.1511   23.8833 C   0  0  0  0  0  0
  -17.6232  -30.6544   24.0566 C   0  0  0  0  0  0
  -25.9059  -34.9516   23.5119 C   0  0  0  0  0  0
  -16.5163  -29.9002   23.6252 C   0  0  0  0  0  0
  -16.7146  -28.6482   23.0164 C   0  0  0  0  0  0
  -26.4463  -31.6623   25.0763 C   0  0  0  0  0  0
  -25.3671  -31.3762   26.1477 C   0  0  0  0  0  0
  -27.0309  -30.3062   24.6195 C   0  0  0  0  0  0
  -27.6043  -32.4356   25.7512 C   0  0  0  0  0  0
  -27.5588  -37.1839   24.8474 C   0  0  0  0  0  0
  -21.4111  -29.3298   22.3811 N   0  0  0  0  0  0
  -26.4300  -37.3835   23.9406 N   0  0  0  0  0  0
  -24.6804  -31.0799   22.1042 N   0  0  0  0  0  0
  -23.4135  -28.8141   23.2906 O   0  0  0  0  0  0
  -28.2553  -26.4684   20.1749 O   0  0  0  0  0  0
  -26.5691  -34.8938   22.4727 O   0  0  0  0  0  0
  -23.5380  -32.1495   23.7454 O   0  0  0  0  0  0
  -29.9833  -20.0135   20.3886 C   0  0  0  0  0  0
  -30.6121  -18.8150   20.7943 C   0  0  0  0  0  0
  -28.7010  -18.2687   22.1722 C   0  0  0  0  0  0
  -28.6730  -20.3286   20.8123 C   0  0  0  0  0  0
  -29.9700  -17.9058   21.6659 C   0  0  0  0  0  0
  -28.0657  -19.4775   21.7820 C   0  0  0  0  0  0
  -27.9199  -22.5779   19.6960 C   0  0  0  0  0  0
  -27.8775  -21.2330   19.9250 C   0  0  0  0  0  0
  -26.7095  -19.8014   22.3957 C   0  0  0  0  0  0
  -26.9250  -20.3965   19.0771 C   0  0  0  0  0  0
  -30.6978  -16.6242   22.1115 C   0  0  0  0  0  0
  -28.6869  -23.7904   20.2724 C   0  0  0  0  0  0
  -27.8784  -25.0807   19.8979 C   0  0  0  0  0  0
  -30.1672  -15.3298   21.6142 N   0  0  0  0  0  0
  -31.4655  -12.4829   19.1144 H   0  0  0  0  0  0
  -30.3471  -11.3264   19.7997 H   0  0  0  0  0  0
  -29.7310  -11.8367   17.4144 H   0  0  0  0  0  0
  -29.6257  -13.5362   17.8003 H   0  0  0  0  0  0
  -27.8399  -11.3043   18.8386 H   0  0  0  0  0  0
  -27.3452  -12.6144   17.8038 H   0  0  0  0  0  0
  -27.7091  -14.2524   19.5848 H   0  0  0  0  0  0
  -28.6895  -11.9361   21.3111 H   0  0  0  0  0  0
  -28.4416  -13.5486   21.8972 H   0  0  0  0  0  0
  -25.2750   -9.5710   22.4741 H   0  0  0  0  0  0
  -24.0055   -7.4640   22.7451 H   0  0  0  0  0  0
  -21.0853   -8.8684   19.8949 H   0  0  0  0  0  0
  -22.3631  -10.9638   19.6174 H   0  0  0  0  0  0
  -21.1915   -7.6139   23.9694 H   0  0  0  0  0  0
  -21.1509   -6.0537   25.9077 H   0  0  0  0  0  0
  -22.0605   -2.7611   23.2853 H   0  0  0  0  0  0
  -22.4150  -11.9835   22.4781 H   0  0  0  0  0  0
  -21.1131  -13.1156   22.2698 H   0  0  0  0  0  0
  -24.6585  -15.8395   20.5390 H   0  0  0  0  0  0
  -26.2909  -15.6330   20.1327 H   0  0  0  0  0  0
  -26.7190  -32.5496   23.1186 H   0  0  0  0  0  0
  -24.9959  -33.9785   25.0379 H   0  0  0  0  0  0
  -22.6976  -31.3295   21.4180 H   0  0  0  0  0  0
  -23.3760  -35.9642   23.3338 H   0  0  0  0  0  0
  -24.3531  -36.8912   22.2032 H   0  0  0  0  0  0
  -23.7227  -37.6525   23.6633 H   0  0  0  0  0  0
  -26.0978  -31.5793   20.6269 H   0  0  0  0  0  0
  -26.8314  -30.8369   22.0212 H   0  0  0  0  0  0
  -28.0854  -28.9800   21.2147 H   0  0  0  0  0  0
  -25.8843  -26.0687   18.8472 H   0  0  0  0  0  0
  -23.9337  -27.4176   18.9353 H   0  0  0  0  0  0
  -23.7165  -30.6331   19.4036 H   0  0  0  0  0  0
  -22.7288  -29.2858   19.8708 H   0  0  0  0  0  0
  -25.1289  -36.2024   25.0841 H   0  0  0  0  0  0
  -20.9702  -28.3391   24.1431 H   0  0  0  0  0  0
  -20.5995  -26.2460   23.3518 H   0  0  0  0  0  0
  -21.6694  -26.7894   22.0945 H   0  0  0  0  0  0
  -19.6890  -25.6099   21.1632 H   0  0  0  0  0  0
  -19.6639  -27.2811   20.6507 H   0  0  0  0  0  0
  -17.4254  -26.6637   21.3825 H   0  0  0  0  0  0
  -18.0256  -26.0097   22.8935 H   0  0  0  0  0  0
  -19.7715  -30.7352   24.2233 H   0  0  0  0  0  0
  -17.4691  -31.6120   24.5348 H   0  0  0  0  0  0
  -15.5115  -30.2808   23.7599 H   0  0  0  0  0  0
  -15.8609  -28.0793   22.6723 H   0  0  0  0  0  0
  -24.5843  -30.7135   25.7771 H   0  0  0  0  0  0
  -24.8852  -32.2926   26.4894 H   0  0  0  0  0  0
  -25.7952  -30.8919   27.0266 H   0  0  0  0  0  0
  -26.2888  -29.6864   24.1163 H   0  0  0  0  0  0
  -27.3959  -29.7275   25.4682 H   0  0  0  0  0  0
  -27.8772  -30.4364   23.9455 H   0  0  0  0  0  0
  -27.2686  -33.3666   26.2101 H   0  0  0  0  0  0
  -28.3838  -32.6935   25.0323 H   0  0  0  0  0  0
  -28.0759  -31.8494   26.5415 H   0  0  0  0  0  0
  -28.2662  -38.0086   24.7538 H   0  0  0  0  0  0
  -28.1055  -36.2650   24.6325 H   0  0  0  0  0  0
  -27.2305  -37.1510   25.8872 H   0  0  0  0  0  0
  -20.9295  -29.9275   21.7258 H   0  0  0  0  0  0
  -26.0218  -38.2921   24.1403 H   0  0  0  0  0  0
  -30.4638  -20.6436   19.6535 H   0  0  0  0  0  0
  -31.5825  -18.5696   20.3929 H   0  0  0  0  0  0
  -28.1915  -17.6024   22.8570 H   0  0  0  0  0  0
  -27.2587  -22.8906   18.8993 H   0  0  0  0  0  0
  -26.1778  -20.5957   21.8720 H   0  0  0  0  0  0
  -26.8445  -20.1325   23.4268 H   0  0  0  0  0  0
  -26.0578  -18.9279   22.4161 H   0  0  0  0  0  0
  -26.4128  -20.9527   18.2902 H   0  0  0  0  0  0
  -26.1525  -19.9277   19.6862 H   0  0  0  0  0  0
  -27.4809  -19.5920   18.5941 H   0  0  0  0  0  0
  -31.7641  -16.7188   21.9050 H   0  0  0  0  0  0
  -30.6157  -16.6057   23.2014 H   0  0  0  0  0  0
  -29.6766  -23.8319   19.8242 H   0  0  0  0  0  0
  -28.7991  -23.6846   21.3518 H   0  0  0  0  0  0
  -26.9123  -24.8960   20.3745 H   0  0  0  0  0  0
  -27.7356  -25.0462   18.8155 H   0  0  0  0  0  0
  -29.3451  -15.0014   22.0958 H   0  0  0  0  0  0
  1 25  1  0  0  0
  1 30  2  0  0  0
  1 84  1  0  0  0
  2  3  1  0  0  0
  2 25  1  0  0  0
  2 85  1  0  0  0
  2 86  1  0  0  0
  3  4  1  0  0  0
  3 87  1  0  0  0
  3 88  1  0  0  0
  4  5  1  0  0  0
  4 89  1  0  0  0
  4 90  1  0  0  0
  5  6  1  0  0  0
  5 26  1  0  0  0
  5 91  1  0  0  0
  6 25  1  0  0  0
  6 92  1  0  0  0
  6 93  1  0  0  0
  7  8  2  0  0  0
  7 26  1  0  0  0
  7 29  1  0  0  0
  8  9  1  0  0  0
  8 22  1  0  0  0
  9 10  1  0  0  0
  9 27  2  0  0  0
 10 11  2  0  0  0
 10 15  1  0  0  0
 11 12  1  0  0  0
 11 94  1  0  0  0
 12 13  2  0  0  0
 12 95  1  0  0  0
 13 14  1  0  0  0
 13 31  1  0  0  0
 14 15  2  0  0  0
 14 96  1  0  0  0
 15 97  1  0  0  0
 16 17  2  0  0  0
 16 21  1  0  0  0
 16 31  1  0  0  0
 17 18  1  0  0  0
 17 98  1  0  0  0
 18 19  2  0  0  0
 18 99  1  0  0  0
 19 20  1  0  0  0
 19 24  1  0  0  0
 20 21  2  0  0  0
 20100  1  0  0  0
 21 23  1  0  0  0
 22 28  1  0  0  0
 22 32  2  0  0  0
 26 27  1  0  0  0
 28101  1  0  0  0
 28102  1  0  0  0
 29103  1  0  0  0
 29104  1  0  0  0
 33 34  1  0  0  0
 33 66  1  0  0  0
 33 70  2  0  0  0
 34 36  1  0  0  0
 34 59  1  0  0  0
 34105  1  0  0  0
 35 44  2  0  0  0
 35 45  1  0  0  0
 35 68  1  0  0  0
 36 56  1  0  0  0
 36106  1  0  0  0
 37 39  1  0  0  0
 37 47  1  0  0  0
 37 66  1  0  0  0
 37107  1  0  0  0
 38 43  2  0  0  0
 38 46  1  0  0  0
 38 47  1  0  0  0
 39 64  1  0  0  0
 39 67  2  0  0  0
 40 52  1  0  0  0
 40 53  2  0  0  0
 40 58  1  0  0  0
 41108  1  0  0  0
 41109  1  0  0  0
 41110  1  0  0  0
 41 48  1  0  0  0
 42 43  1  0  0  0
 42 66  1  0  0  0
 42111  1  0  0  0
 42112  1  0  0  0
 43 44  1  0  0  0
 44113  1  0  0  0
 45 46  2  0  0  0
 45114  1  0  0  0
 46115  1  0  0  0
 47116  1  0  0  0
 47117  1  0  0  0
 48 56  1  0  0  0
 48 65  1  0  0  0
 48118  1  0  0  0
 49 50  1  0  0  0
 49 53  1  0  0  0
 49 64  1  0  0  0
 49119  1  0  0  0
 50 51  1  0  0  0
 50120  1  0  0  0
 50121  1  0  0  0
 51 52  1  0  0  0
 51122  1  0  0  0
 51123  1  0  0  0
 52124  1  0  0  0
 52125  1  0  0  0
 53 54  1  0  0  0
 54 55  2  0  0  0
 54126  1  0  0  0
 55 57  1  0  0  0
 55127  1  0  0  0
 56 69  2  0  0  0
 57 58  2  0  0  0
 57128  1  0  0  0
 58129  1  0  0  0
 59 60  1  0  0  0
 59 61  1  0  0  0
 59 62  1  0  0  0
 60130  1  0  0  0
 60131  1  0  0  0
 60132  1  0  0  0
 61133  1  0  0  0
 61134  1  0  0  0
 61135  1  0  0  0
 62136  1  0  0  0
 62137  1  0  0  0
 62138  1  0  0  0
 63 65  1  0  0  0
 63139  1  0  0  0
 63140  1  0  0  0
 63141  1  0  0  0
 64142  1  0  0  0
 65143  1  0  0  0
 68 83  1  0  0  0
 71 72  2  0  0  0
 71 74  1  0  0  0
 71144  1  0  0  0
 72 75  1  0  0  0
 72145  1  0  0  0
 73 75  2  0  0  0
 73 76  1  0  0  0
 73146  1  0  0  0
 74 76  2  0  0  0
 74 78  1  0  0  0
 75 81  1  0  0  0
 76 79  1  0  0  0
 77 78  2  0  0  0
 77 82  1  0  0  0
 77147  1  0  0  0
 78 80  1  0  0  0
 79148  1  0  0  0
 79149  1  0  0  0
 79150  1  0  0  0
 80151  1  0  0  0
 80152  1  0  0  0
 80153  1  0  0  0
 81 84  1  0  0  0
 81154  1  0  0  0
 81155  1  0  0  0
 82 83  1  0  0  0
 82156  1  0  0  0
 82157  1  0  0  0
 83158  1  0  0  0
 83159  1  0  0  0
 84160  1  0  0  0
M  ISO  4   1 100  68 101  83 101  84 100
M  END
> <chiral flag>
0

> <version>
0

> <s_m_source_file>
/data/baiqing/PycharmProjects/Reinvent-master-3.2/result/LINK_invent/BTK/process_docking_weight1_custom_product_contain_oxygen_bond_distance_aromatic_linkinvent_7_9_3/rearranged_h_0127.sdf

> <i_m_source_file_index>
1

> <r_mmod_Potential_Energy-OPLS-2005>
37.8654251098633

> <r_mmod_Stretch_Energy-OPLS-2005>
54.1108436584473

> <r_mmod_Bend_Energy-OPLS-2005>
159.776519775391

> <r_mmod_Torsional_Energy-OPLS-2005>
236.437301635742

> <r_mmod_Improper_Torsional_Energy-OPLS-2005>
6.78583526611328

> <r_mmod_Van_der_Waal_Energy-OPLS-2005>
167.206924438477

> <r_mmod_Electrostatic_Energy-OPLS-2005>
-418.043487548828

> <r_mmod_Solvation_Energy-OPLS-2005>
-201.797790527344

> <b_mmod_Minimization_Converged-OPLS-2005>
0

> <r_mmod_RMS_Derivative-OPLS-2005>
8.71615886688232

$$$$
1
                    3D
 Structure written by MMmdl.
153161  0  0  1  0            999 V2000
  -30.7184  -14.4811   20.5091 C   0  0  0  0  0  0
  -30.4094  -12.2906   19.4418 C   0  0  0  0  0  0
  -29.4952  -12.4816   18.2138 C   0  0  0  0  0  0
  -28.0144  -12.3478   18.6223 C   0  0  0  0  0  0
  -27.6536  -13.2089   19.8630 C   0  0  2  0  0  0
  -28.6953  -13.0321   20.9908 C   0  0  0  0  0  0
  -25.2560  -13.8158   20.5664 C   0  0  0  0  0  0
  -24.1821  -13.0435   20.9182 C   0  0  0  0  0  0
  -24.6368  -11.6908   20.8731 C   0  0  0  0  0  0
  -23.9033  -10.4292   21.0399 C   0  0  0  0  0  0
  -24.3607   -9.4213   21.9180 C   0  0  0  0  0  0
  -23.6295   -8.2238   22.0745 C   0  0  0  0  0  0
  -22.4271   -8.0265   21.3542 C   0  0  0  0  0  0
  -21.9887   -9.0240   20.4646 C   0  0  0  0  0  0
  -22.7200  -10.2128   20.3055 C   0  0  0  0  0  0
  -21.6852   -6.0718   22.5280 C   0  0  0  0  0  0
  -21.4012   -6.5629   23.8215 C   0  0  0  0  0  0
  -21.3665   -5.6786   24.9184 C   0  0  0  0  0  0
  -21.6050   -4.3046   24.7236 C   0  0  0  0  0  0
  -21.8824   -3.8131   23.4353 C   0  0  0  0  0  0
  -21.9197   -4.6944   22.3409 C   0  0  0  0  0  0
  -22.7853  -13.5246   21.1860 C   0  0  0  0  0  0
  -22.1663   -4.2131   21.0988 F   0  0  0  0  0  0
  -21.5641   -3.4534   25.7748 F   0  0  0  0  0  0
  -30.0257  -13.3104   20.4332 N   0  0  0  0  0  0
  -26.2982  -12.9332   20.3315 N   0  0  0  0  0  0
  -25.9290  -11.6491   20.5746 N   0  0  0  0  0  0
  -22.0499  -12.8251   22.0428 N   0  0  0  0  0  0
  -25.4267  -15.1872   20.4041 N   0  0  0  0  0  0
  -31.8974  -14.5411   20.1488 O   0  0  0  0  0  0
  -21.6643   -6.8854   21.4232 O   0  0  0  0  0  0
  -22.3548  -14.5555   20.6700 O   0  0  0  0  0  0
  -24.6147  -31.8669   23.2098 C   0  0  0  0  0  0
  -25.9057  -32.4808   23.8361 C   0  0  1  0  0  0
  -27.2329  -27.4418   20.0946 C   0  0  0  0  0  0
  -25.5926  -33.8605   24.2309 N   0  0  0  0  0  0
  -23.3991  -30.4916   21.5532 C   0  0  2  0  0  0
  -24.8431  -28.9609   20.1125 C   0  0  0  0  0  0
  -22.7401  -29.4655   22.5014 C   0  0  0  0  0  0
  -18.0278  -28.1381   22.8510 C   0  0  0  0  0  0
  -24.1496  -36.7312   23.2637 C   0  0  0  0  0  0
  -25.9258  -30.8388   21.3563 C   0  0  0  0  0  0
  -26.0043  -29.4745   20.7026 C   0  0  0  0  0  0
  -27.2023  -28.7254   20.6852 C   0  0  0  0  0  0
  -26.0527  -26.9424   19.4950 C   0  0  0  0  0  0
  -24.8627  -27.6942   19.5042 C   0  0  0  0  0  0
  -23.6034  -29.8248   20.1670 C   0  0  0  0  0  0
  -25.4116  -36.3097   24.0331 C   0  0  1  0  0  0
  -20.5866  -28.3654   23.1354 C   0  0  2  0  0  0
  -20.6785  -26.9401   22.5440 C   0  0  0  0  0  0
  -19.5768  -26.6391   21.5239 C   0  0  0  0  0  0
  -18.1936  -26.7940   22.1625 C   0  0  0  0  0  0
  -19.1525  -28.8840   23.2925 C   0  0  0  0  0  0
  -18.9447  -30.1457   23.8917 C   0  0  0  0  0  0
  -17.6446  -30.6588   24.0580 C   0  0  0  0  0  0
  -25.9040  -34.9466   23.5114 C   0  0  0  0  0  0
  -16.5340  -29.9086   23.6339 C   0  0  0  0  0  0
  -16.7266  -28.6508   23.0352 C   0  0  0  0  0  0
  -26.4508  -31.6579   25.0672 C   0  0  0  0  0  0
  -25.3803  -31.3693   26.1448 C   0  0  0  0  0  0
  -27.0324  -30.3021   24.6023 C   0  0  0  0  0  0
  -27.6093  -32.4297   25.7418 C   0  0  0  0  0  0
  -27.5583  -37.1806   24.8467 C   0  0  0  0  0  0
  -21.4132  -29.3009   22.3751 N   0  0  0  0  0  0
  -26.4300  -37.3780   23.9404 N   0  0  0  0  0  0
  -24.6655  -31.0777   22.0997 N   0  0  0  0  0  0
  -23.4188  -28.8211   23.3055 O   0  0  0  0  0  0
  -28.4028  -26.7101   20.1163 O   0  0  0  0  0  0
  -26.5578  -34.8926   22.4659 O   0  0  0  0  0  0
  -23.5353  -32.1420   23.7522 O   0  0  0  0  0  0
  -28.6911  -18.5978   20.8815 C   0  0  0  0  0  0
  -30.9937  -19.3400   20.7149 C   0  0  0  0  0  0
  -28.2674  -19.9479   20.8457 C   0  0  0  0  0  0
  -30.5726  -20.6843   20.6917 C   0  0  0  0  0  0
  -30.0655  -18.2790   20.8007 C   0  0  0  0  0  0
  -29.2005  -21.0062   20.7586 C   0  0  0  0  0  0
  -30.5952  -16.8990   20.7221 C   0  0  0  0  0  0
  -29.9509  -15.7056   20.7785 C   0  0  0  0  0  0
  -29.5580  -24.6560   20.8017 C   0  0  0  0  0  0
  -29.3686  -23.2911   21.5036 C   0  0  0  0  0  0
  -28.2577  -25.2909   20.2744 C   0  0  0  0  0  0
  -28.7424  -22.3069   20.6697 O   0  0  0  0  0  0
  -31.4587  -12.3526   19.1448 H   0  0  0  0  0  0
  -30.2832  -11.2913   19.8608 H   0  0  0  0  0  0
  -29.7372  -11.7440   17.4475 H   0  0  0  0  0  0
  -29.6706  -13.4612   17.7659 H   0  0  0  0  0  0
  -27.8316  -11.2944   18.8380 H   0  0  0  0  0  0
  -27.3633  -12.6025   17.7853 H   0  0  0  0  0  0
  -27.6816  -14.2475   19.5352 H   0  0  0  0  0  0
  -28.6671  -12.0113   21.3744 H   0  0  0  0  0  0
  -28.4700  -13.6721   21.8451 H   0  0  0  0  0  0
  -25.2751   -9.5708   22.4756 H   0  0  0  0  0  0
  -24.0022   -7.4626   22.7454 H   0  0  0  0  0  0
  -21.0816   -8.8735   19.8966 H   0  0  0  0  0  0
  -22.3628  -10.9668   19.6173 H   0  0  0  0  0  0
  -21.1989   -7.6133   23.9715 H   0  0  0  0  0  0
  -21.1491   -6.0513   25.9089 H   0  0  0  0  0  0
  -22.0595   -2.7582   23.2863 H   0  0  0  0  0  0
  -22.4108  -11.9924   22.4858 H   0  0  0  0  0  0
  -21.1118  -13.1288   22.2633 H   0  0  0  0  0  0
  -24.6541  -15.8373   20.4979 H   0  0  0  0  0  0
  -26.2705  -15.6216   20.0523 H   0  0  0  0  0  0
  -26.7110  -32.5532   23.1107 H   0  0  0  0  0  0
  -25.0129  -33.9749   25.0494 H   0  0  0  0  0  0
  -22.6878  -31.3091   21.4194 H   0  0  0  0  0  0
  -23.3729  -35.9679   23.3354 H   0  0  0  0  0  0
  -24.3582  -36.8865   22.2040 H   0  0  0  0  0  0
  -23.7295  -37.6555   23.6613 H   0  0  0  0  0  0
  -26.0270  -31.6055   20.5867 H   0  0  0  0  0  0
  -26.8175  -30.8941   21.9686 H   0  0  0  0  0  0
  -28.0989  -29.1215   21.1420 H   0  0  0  0  0  0
  -26.0382  -25.9749   19.0143 H   0  0  0  0  0  0
  -23.9699  -27.2946   19.0430 H   0  0  0  0  0  0
  -23.7049  -30.6013   19.4080 H   0  0  0  0  0  0
  -22.7266  -29.2423   19.8760 H   0  0  0  0  0  0
  -25.1302  -36.1946   25.0826 H   0  0  0  0  0  0
  -20.9950  -28.3220   24.1480 H   0  0  0  0  0  0
  -20.5747  -26.2246   23.3613 H   0  0  0  0  0  0
  -21.6652  -26.7505   22.1199 H   0  0  0  0  0  0
  -19.6936  -25.6311   21.1252 H   0  0  0  0  0  0
  -19.6725  -27.3225   20.6799 H   0  0  0  0  0  0
  -17.4232  -26.6736   21.3992 H   0  0  0  0  0  0
  -18.0296  -26.0059   22.8992 H   0  0  0  0  0  0
  -19.7916  -30.7287   24.2277 H   0  0  0  0  0  0
  -17.4994  -31.6275   24.5170 H   0  0  0  0  0  0
  -15.5339  -30.2988   23.7659 H   0  0  0  0  0  0
  -15.8671  -28.0839   22.7038 H   0  0  0  0  0  0
  -24.5940  -30.7076   25.7798 H   0  0  0  0  0  0
  -24.9051  -32.2864   26.4934 H   0  0  0  0  0  0
  -25.8175  -30.8823   27.0174 H   0  0  0  0  0  0
  -26.2820  -29.6729   24.1214 H   0  0  0  0  0  0
  -27.4260  -29.7296   25.4432 H   0  0  0  0  0  0
  -27.8587  -30.4330   23.9031 H   0  0  0  0  0  0
  -27.2712  -33.3576   26.2040 H   0  0  0  0  0  0
  -28.3870  -32.6890   25.0220 H   0  0  0  0  0  0
  -28.0809  -31.8402   26.5291 H   0  0  0  0  0  0
  -28.2635  -38.0068   24.7470 H   0  0  0  0  0  0
  -28.1042  -36.2602   24.6343 H   0  0  0  0  0  0
  -27.2302  -37.1524   25.8871 H   0  0  0  0  0  0
  -20.9292  -29.8662   21.6916 H   0  0  0  0  0  0
  -26.0190  -38.2860   24.1391 H   0  0  0  0  0  0
  -27.9474  -17.8155   20.9361 H   0  0  0  0  0  0
  -32.0509  -19.1290   20.6337 H   0  0  0  0  0  0
  -27.2113  -20.1707   20.8775 H   0  0  0  0  0  0
  -31.3157  -21.4616   20.5842 H   0  0  0  0  0  0
  -31.6649  -16.8788   20.5595 H   0  0  0  0  0  0
  -28.8895  -15.6748   20.9671 H   0  0  0  0  0  0
  -30.2857  -24.5707   19.9949 H   0  0  0  0  0  0
  -30.0031  -25.3353   21.5307 H   0  0  0  0  0  0
  -28.7304  -23.4276   22.3766 H   0  0  0  0  0  0
  -30.3309  -22.9679   21.8990 H   0  0  0  0  0  0
  -27.4473  -25.0759   20.9740 H   0  0  0  0  0  0
  -27.9967  -24.8295   19.3215 H   0  0  0  0  0  0
  1 25  1  0  0  0
  1 30  2  0  0  0
  1 78  1  0  0  0
  2  3  1  0  0  0
  2 25  1  0  0  0
  2 83  1  0  0  0
  2 84  1  0  0  0
  3  4  1  0  0  0
  3 85  1  0  0  0
  3 86  1  0  0  0
  4  5  1  0  0  0
  4 87  1  0  0  0
  4 88  1  0  0  0
  5  6  1  0  0  0
  5 26  1  0  0  0
  5 89  1  0  0  0
  6 25  1  0  0  0
  6 90  1  0  0  0
  6 91  1  0  0  0
  7  8  2  0  0  0
  7 26  1  0  0  0
  7 29  1  0  0  0
  8  9  1  0  0  0
  8 22  1  0  0  0
  9 10  1  0  0  0
  9 27  2  0  0  0
 10 11  2  0  0  0
 10 15  1  0  0  0
 11 12  1  0  0  0
 11 92  1  0  0  0
 12 13  2  0  0  0
 12 93  1  0  0  0
 13 14  1  0  0  0
 13 31  1  0  0  0
 14 15  2  0  0  0
 14 94  1  0  0  0
 15 95  1  0  0  0
 16 17  2  0  0  0
 16 21  1  0  0  0
 16 31  1  0  0  0
 17 18  1  0  0  0
 17 96  1  0  0  0
 18 19  2  0  0  0
 18 97  1  0  0  0
 19 20  1  0  0  0
 19 24  1  0  0  0
 20 21  2  0  0  0
 20 98  1  0  0  0
 21 23  1  0  0  0
 22 28  1  0  0  0
 22 32  2  0  0  0
 26 27  1  0  0  0
 28 99  1  0  0  0
 28100  1  0  0  0
 29101  1  0  0  0
 29102  1  0  0  0
 33 34  1  0  0  0
 33 66  1  0  0  0
 33 70  2  0  0  0
 34 36  1  0  0  0
 34 59  1  0  0  0
 34103  1  0  0  0
 35 44  2  0  0  0
 35 45  1  0  0  0
 35 68  1  0  0  0
 36 56  1  0  0  0
 36104  1  0  0  0
 37 39  1  0  0  0
 37 47  1  0  0  0
 37 66  1  0  0  0
 37105  1  0  0  0
 38 43  2  0  0  0
 38 46  1  0  0  0
 38 47  1  0  0  0
 39 64  1  0  0  0
 39 67  2  0  0  0
 40 52  1  0  0  0
 40 53  2  0  0  0
 40 58  1  0  0  0
 41106  1  0  0  0
 41107  1  0  0  0
 41108  1  0  0  0
 41 48  1  0  0  0
 42 43  1  0  0  0
 42 66  1  0  0  0
 42109  1  0  0  0
 42110  1  0  0  0
 43 44  1  0  0  0
 44111  1  0  0  0
 45 46  2  0  0  0
 45112  1  0  0  0
 46113  1  0  0  0
 47114  1  0  0  0
 47115  1  0  0  0
 48 56  1  0  0  0
 48 65  1  0  0  0
 48116  1  0  0  0
 49 50  1  0  0  0
 49 53  1  0  0  0
 49 64  1  0  0  0
 49117  1  0  0  0
 50 51  1  0  0  0
 50118  1  0  0  0
 50119  1  0  0  0
 51 52  1  0  0  0
 51120  1  0  0  0
 51121  1  0  0  0
 52122  1  0  0  0
 52123  1  0  0  0
 53 54  1  0  0  0
 54 55  2  0  0  0
 54124  1  0  0  0
 55 57  1  0  0  0
 55125  1  0  0  0
 56 69  2  0  0  0
 57 58  2  0  0  0
 57126  1  0  0  0
 58127  1  0  0  0
 59 60  1  0  0  0
 59 61  1  0  0  0
 59 62  1  0  0  0
 60128  1  0  0  0
 60129  1  0  0  0
 60130  1  0  0  0
 61131  1  0  0  0
 61132  1  0  0  0
 61133  1  0  0  0
 62134  1  0  0  0
 62135  1  0  0  0
 62136  1  0  0  0
 63 65  1  0  0  0
 63137  1  0  0  0
 63138  1  0  0  0
 63139  1  0  0  0
 64140  1  0  0  0
 65141  1  0  0  0
 68 81  1  0  0  0
 71 73  2  0  0  0
 71 75  1  0  0  0
 71142  1  0  0  0
 72 74  1  0  0  0
 72 75  2  0  0  0
 72143  1  0  0  0
 73 76  1  0  0  0
 73144  1  0  0  0
 74 76  2  0  0  0
 74145  1  0  0  0
 75 77  1  0  0  0
 76 82  1  0  0  0
 77 78  2  0  0  0
 77146  1  0  0  0
 78147  1  0  0  0
 79 80  1  0  0  0
 79 81  1  0  0  0
 79148  1  0  0  0
 79149  1  0  0  0
 80 82  1  0  0  0
 80150  1  0  0  0
 80151  1  0  0  0
 81152  1  0  0  0
 81153  1  0  0  0
M  ISO  4   1 100  68 101  78 100  81 101
M  END
> <chiral flag>
0

> <version>
0

> <s_m_source_file>
/data/baiqing/PycharmProjects/Reinvent-master-3.2/result/LINK_invent/BTK/process_docking_weight1_custom_product_contain_oxygen_bond_distance_aromatic_linkinvent_7_9_3/rearranged_h_0127.sdf

> <i_m_source_file_index>
2

> <r_mmod_Potential_Energy-OPLS-2005>
-11.5927791595459

> <r_mmod_Stretch_Energy-OPLS-2005>
36.5487327575684

> <r_mmod_Bend_Energy-OPLS-2005>
101.432075500488

> <r_mmod_Torsional_Energy-OPLS-2005>
209.678497314453

> <r_mmod_Improper_Torsional_Energy-OPLS-2005>
6.48852396011353

> <r_mmod_Van_der_Waal_Energy-OPLS-2005>
162.611740112305

> <r_mmod_Electrostatic_Energy-OPLS-2005>
-350.659545898438

> <r_mmod_Solvation_Energy-OPLS-2005>
-196.605072021484

> <b_mmod_Minimization_Converged-OPLS-2005>
0

> <r_mmod_RMS_Derivative-OPLS-2005>
1.88642621040344

$$$$
2
                    3D
 Structure written by MMmdl.
155163  0  0  1  0            999 V2000
  -30.7046  -14.5610   20.4541 C   0  0  0  0  0  0
  -30.4164  -12.3244   19.4635 C   0  0  0  0  0  0
  -29.5093  -12.4770   18.2243 C   0  0  0  0  0  0
  -28.0284  -12.3379   18.6280 C   0  0  0  0  0  0
  -27.6511  -13.2191   19.8517 C   0  0  2  0  0  0
  -28.6953  -13.0933   20.9847 C   0  0  0  0  0  0
  -25.2521  -13.8140   20.5663 C   0  0  0  0  0  0
  -24.1806  -13.0406   20.9195 C   0  0  0  0  0  0
  -24.6393  -11.6883   20.8725 C   0  0  0  0  0  0
  -23.9058  -10.4276   21.0406 C   0  0  0  0  0  0
  -24.3610   -9.4191   21.9181 C   0  0  0  0  0  0
  -23.6290   -8.2233   22.0749 C   0  0  0  0  0  0
  -22.4269   -8.0278   21.3549 C   0  0  0  0  0  0
  -21.9896   -9.0253   20.4660 C   0  0  0  0  0  0
  -22.7228  -10.2128   20.3066 C   0  0  0  0  0  0
  -21.6855   -6.0734   22.5278 C   0  0  0  0  0  0
  -21.4028   -6.5635   23.8215 C   0  0  0  0  0  0
  -21.3655   -5.6777   24.9168 C   0  0  0  0  0  0
  -21.6038   -4.3035   24.7236 C   0  0  0  0  0  0
  -21.8812   -3.8146   23.4345 C   0  0  0  0  0  0
  -21.9189   -4.6961   22.3398 C   0  0  0  0  0  0
  -22.7836  -13.5211   21.1845 C   0  0  0  0  0  0
  -22.1651   -4.2141   21.0982 F   0  0  0  0  0  0
  -21.5616   -3.4523   25.7746 F   0  0  0  0  0  0
  -30.0228  -13.3742   20.4210 N   0  0  0  0  0  0
  -26.2969  -12.9357   20.3250 N   0  0  0  0  0  0
  -25.9325  -11.6506   20.5738 N   0  0  0  0  0  0
  -22.0460  -12.8255   22.0433 N   0  0  0  0  0  0
  -25.4112  -15.1856   20.4095 N   0  0  0  0  0  0
  -31.8999  -14.5994   20.1568 O   0  0  0  0  0  0
  -21.6628   -6.8880   21.4245 O   0  0  0  0  0  0
  -22.3515  -14.5490   20.6633 O   0  0  0  0  0  0
  -24.6219  -31.8635   23.2087 C   0  0  0  0  0  0
  -25.9089  -32.4787   23.8392 C   0  0  1  0  0  0
  -27.2178  -27.3491   20.0997 C   0  0  0  0  0  0
  -25.5918  -33.8584   24.2290 N   0  0  0  0  0  0
  -23.4145  -30.4913   21.5480 C   0  0  2  0  0  0
  -24.8609  -28.9615   20.1077 C   0  0  0  0  0  0
  -22.7450  -29.4643   22.4922 C   0  0  0  0  0  0
  -18.0286  -28.1385   22.8490 C   0  0  0  0  0  0
  -24.1489  -36.7299   23.2632 C   0  0  0  0  0  0
  -25.9568  -30.7958   21.3873 C   0  0  0  0  0  0
  -26.0275  -29.4297   20.7242 C   0  0  0  0  0  0
  -27.2072  -28.6319   20.7225 C   0  0  0  0  0  0
  -26.0274  -26.9439   19.4429 C   0  0  0  0  0  0
  -24.8619  -27.7213   19.4599 C   0  0  0  0  0  0
  -23.6289  -29.8355   20.1605 C   0  0  0  0  0  0
  -25.4107  -36.3079   24.0323 C   0  0  1  0  0  0
  -20.5881  -28.3681   23.1280 C   0  0  2  0  0  0
  -20.6772  -26.9405   22.5413 C   0  0  0  0  0  0
  -19.5756  -26.6384   21.5203 C   0  0  0  0  0  0
  -18.1934  -26.7933   22.1618 C   0  0  0  0  0  0
  -19.1540  -28.8849   23.2882 C   0  0  0  0  0  0
  -18.9459  -30.1445   23.8904 C   0  0  0  0  0  0
  -17.6464  -30.6594   24.0558 C   0  0  0  0  0  0
  -25.9045  -34.9444   23.5100 C   0  0  0  0  0  0
  -16.5349  -29.9093   23.6329 C   0  0  0  0  0  0
  -16.7274  -28.6503   23.0361 C   0  0  0  0  0  0
  -26.4486  -31.6600   25.0764 C   0  0  0  0  0  0
  -25.3718  -31.3761   26.1494 C   0  0  0  0  0  0
  -27.0329  -30.3010   24.6254 C   0  0  0  0  0  0
  -27.6044  -32.4349   25.7519 C   0  0  0  0  0  0
  -27.5582  -37.1795   24.8446 C   0  0  0  0  0  0
  -21.4170  -29.3044   22.3679 N   0  0  0  0  0  0
  -26.4279  -37.3780   23.9420 N   0  0  0  0  0  0
  -24.6816  -31.0673   22.1029 N   0  0  0  0  0  0
  -23.4189  -28.8163   23.2973 O   0  0  0  0  0  0
  -28.3322  -26.5009   20.1546 O   0  0  0  0  0  0
  -26.5622  -34.8905   22.4669 O   0  0  0  0  0  0
  -23.5387  -32.1421   23.7416 O   0  0  0  0  0  0
  -30.7839  -19.5160   20.5318 C   0  0  0  0  0  0
  -30.3867  -20.8698   20.3509 C   0  0  0  0  0  0
  -28.2372  -20.0902   19.5917 C   0  0  0  0  0  0
  -29.9358  -18.4167   20.2210 C   0  0  0  0  0  0
  -29.0970  -21.1804   19.8648 C   0  0  0  0  0  0
  -28.6358  -18.7372   19.7431 C   0  0  0  0  0  0
  -30.4964  -17.0232   20.3408 C   0  0  0  0  0  0
  -29.9127  -15.8065   20.5741 C   0  0  0  0  0  0
  -27.6661  -17.6648   19.2838 C   0  0  0  0  0  0
  -28.5958  -22.5994   19.4821 C   0  0  0  0  0  0
  -29.0799  -23.9262   20.1758 C   0  0  0  0  0  0
  -28.0791  -25.0911   19.8363 C   0  0  0  0  0  0
  -31.4678  -12.3797   19.1763 H   0  0  0  0  0  0
  -30.2885  -11.3370   19.9108 H   0  0  0  0  0  0
  -29.7676  -11.7264   17.4751 H   0  0  0  0  0  0
  -29.6741  -13.4485   17.7552 H   0  0  0  0  0  0
  -27.8501  -11.2889   18.8643 H   0  0  0  0  0  0
  -27.3825  -12.5702   17.7801 H   0  0  0  0  0  0
  -27.6646  -14.2503   19.5003 H   0  0  0  0  0  0
  -28.6802  -12.0897   21.4102 H   0  0  0  0  0  0
  -28.4655  -13.7662   21.8123 H   0  0  0  0  0  0
  -25.2775   -9.5664   22.4733 H   0  0  0  0  0  0
  -23.9999   -7.4621   22.7471 H   0  0  0  0  0  0
  -21.0807   -8.8788   19.8983 H   0  0  0  0  0  0
  -22.3691  -10.9667   19.6166 H   0  0  0  0  0  0
  -21.2037   -7.6145   23.9722 H   0  0  0  0  0  0
  -21.1472   -6.0505   25.9064 H   0  0  0  0  0  0
  -22.0601   -2.7614   23.2842 H   0  0  0  0  0  0
  -22.4071  -11.9955   22.4908 H   0  0  0  0  0  0
  -21.1093  -13.1317   22.2623 H   0  0  0  0  0  0
  -24.6334  -15.8289   20.5153 H   0  0  0  0  0  0
  -26.2535  -15.6275   20.0708 H   0  0  0  0  0  0
  -26.7153  -32.5459   23.1137 H   0  0  0  0  0  0
  -25.0038  -33.9739   25.0416 H   0  0  0  0  0  0
  -22.7070  -31.3110   21.4090 H   0  0  0  0  0  0
  -23.3751  -35.9631   23.3273 H   0  0  0  0  0  0
  -24.3584  -36.8950   22.2053 H   0  0  0  0  0  0
  -23.7244  -37.6493   23.6670 H   0  0  0  0  0  0
  -26.1005  -31.5635   20.6257 H   0  0  0  0  0  0
  -26.8316  -30.8308   22.0234 H   0  0  0  0  0  0
  -28.0956  -28.9766   21.2313 H   0  0  0  0  0  0
  -25.9510  -26.0122   18.9036 H   0  0  0  0  0  0
  -23.9732  -27.3639   18.9587 H   0  0  0  0  0  0
  -23.7450  -30.6133   19.4048 H   0  0  0  0  0  0
  -22.7527  -29.2601   19.8580 H   0  0  0  0  0  0
  -25.1285  -36.1922   25.0815 H   0  0  0  0  0  0
  -20.9974  -28.3254   24.1394 H   0  0  0  0  0  0
  -20.5662  -26.2279   23.3606 H   0  0  0  0  0  0
  -21.6641  -26.7436   22.1211 H   0  0  0  0  0  0
  -19.6911  -25.6287   21.1251 H   0  0  0  0  0  0
  -19.6708  -27.3177   20.6718 H   0  0  0  0  0  0
  -17.4204  -26.6674   21.4024 H   0  0  0  0  0  0
  -18.0340  -26.0071   22.9008 H   0  0  0  0  0  0
  -19.7929  -30.7252   24.2284 H   0  0  0  0  0  0
  -17.5021  -31.6278   24.5158 H   0  0  0  0  0  0
  -15.5350  -30.3001   23.7650 H   0  0  0  0  0  0
  -15.8669  -28.0821   22.7084 H   0  0  0  0  0  0
  -24.5848  -30.7171   25.7825 H   0  0  0  0  0  0
  -24.8962  -32.2939   26.4954 H   0  0  0  0  0  0
  -25.8024  -30.8899   27.0252 H   0  0  0  0  0  0
  -26.2918  -29.6778   24.1238 H   0  0  0  0  0  0
  -27.3949  -29.7267   25.4793 H   0  0  0  0  0  0
  -27.8826  -30.4282   23.9542 H   0  0  0  0  0  0
  -27.2634  -33.3608   26.2157 H   0  0  0  0  0  0
  -28.3804  -32.6992   25.0326 H   0  0  0  0  0  0
  -28.0776  -31.8461   26.5386 H   0  0  0  0  0  0
  -28.2567  -38.0124   24.7530 H   0  0  0  0  0  0
  -28.1111  -36.2657   24.6208 H   0  0  0  0  0  0
  -27.2314  -37.1368   25.8851 H   0  0  0  0  0  0
  -20.9330  -29.8754   21.6896 H   0  0  0  0  0  0
  -26.0154  -38.2844   24.1464 H   0  0  0  0  0  0
  -31.7894  -19.3190   20.8797 H   0  0  0  0  0  0
  -31.0929  -21.6626   20.5567 H   0  0  0  0  0  0
  -27.2561  -20.2992   19.1883 H   0  0  0  0  0  0
  -31.5588  -17.0101   20.1457 H   0  0  0  0  0  0
  -28.8649  -15.7513   20.8104 H   0  0  0  0  0  0
  -26.7920  -18.0996   18.7991 H   0  0  0  0  0  0
  -27.3096  -17.0937   20.1371 H   0  0  0  0  0  0
  -28.1359  -16.9918   18.5663 H   0  0  0  0  0  0
  -27.5102  -22.5626   19.5866 H   0  0  0  0  0  0
  -28.7675  -22.7062   18.4091 H   0  0  0  0  0  0
  -30.0880  -24.1724   19.8416 H   0  0  0  0  0  0
  -29.1251  -23.7955   21.2570 H   0  0  0  0  0  0
  -27.1516  -24.7980   20.3349 H   0  0  0  0  0  0
  -27.8897  -25.0403   18.7629 H   0  0  0  0  0  0
  1 25  1  0  0  0
  1 30  2  0  0  0
  1 78  1  0  0  0
  2  3  1  0  0  0
  2 25  1  0  0  0
  2 83  1  0  0  0
  2 84  1  0  0  0
  3  4  1  0  0  0
  3 85  1  0  0  0
  3 86  1  0  0  0
  4  5  1  0  0  0
  4 87  1  0  0  0
  4 88  1  0  0  0
  5  6  1  0  0  0
  5 26  1  0  0  0
  5 89  1  0  0  0
  6 25  1  0  0  0
  6 90  1  0  0  0
  6 91  1  0  0  0
  7  8  2  0  0  0
  7 26  1  0  0  0
  7 29  1  0  0  0
  8  9  1  0  0  0
  8 22  1  0  0  0
  9 10  1  0  0  0
  9 27  2  0  0  0
 10 11  2  0  0  0
 10 15  1  0  0  0
 11 12  1  0  0  0
 11 92  1  0  0  0
 12 13  2  0  0  0
 12 93  1  0  0  0
 13 14  1  0  0  0
 13 31  1  0  0  0
 14 15  2  0  0  0
 14 94  1  0  0  0
 15 95  1  0  0  0
 16 17  2  0  0  0
 16 21  1  0  0  0
 16 31  1  0  0  0
 17 18  1  0  0  0
 17 96  1  0  0  0
 18 19  2  0  0  0
 18 97  1  0  0  0
 19 20  1  0  0  0
 19 24  1  0  0  0
 20 21  2  0  0  0
 20 98  1  0  0  0
 21 23  1  0  0  0
 22 28  1  0  0  0
 22 32  2  0  0  0
 26 27  1  0  0  0
 28 99  1  0  0  0
 28100  1  0  0  0
 29101  1  0  0  0
 29102  1  0  0  0
 33 34  1  0  0  0
 33 66  1  0  0  0
 33 70  2  0  0  0
 34 36  1  0  0  0
 34 59  1  0  0  0
 34103  1  0  0  0
 35 44  2  0  0  0
 35 45  1  0  0  0
 35 68  1  0  0  0
 36 56  1  0  0  0
 36104  1  0  0  0
 37 39  1  0  0  0
 37 47  1  0  0  0
 37 66  1  0  0  0
 37105  1  0  0  0
 38 43  2  0  0  0
 38 46  1  0  0  0
 38 47  1  0  0  0
 39 64  1  0  0  0
 39 67  2  0  0  0
 40 52  1  0  0  0
 40 53  2  0  0  0
 40 58  1  0  0  0
 41106  1  0  0  0
 41107  1  0  0  0
 41108  1  0  0  0
 41 48  1  0  0  0
 42 43  1  0  0  0
 42 66  1  0  0  0
 42109  1  0  0  0
 42110  1  0  0  0
 43 44  1  0  0  0
 44111  1  0  0  0
 45 46  2  0  0  0
 45112  1  0  0  0
 46113  1  0  0  0
 47114  1  0  0  0
 47115  1  0  0  0
 48 56  1  0  0  0
 48 65  1  0  0  0
 48116  1  0  0  0
 49 50  1  0  0  0
 49 53  1  0  0  0
 49 64  1  0  0  0
 49117  1  0  0  0
 50 51  1  0  0  0
 50118  1  0  0  0
 50119  1  0  0  0
 51 52  1  0  0  0
 51120  1  0  0  0
 51121  1  0  0  0
 52122  1  0  0  0
 52123  1  0  0  0
 53 54  1  0  0  0
 54 55  2  0  0  0
 54124  1  0  0  0
 55 57  1  0  0  0
 55125  1  0  0  0
 56 69  2  0  0  0
 57 58  2  0  0  0
 57126  1  0  0  0
 58127  1  0  0  0
 59 60  1  0  0  0
 59 61  1  0  0  0
 59 62  1  0  0  0
 60128  1  0  0  0
 60129  1  0  0  0
 60130  1  0  0  0
 61131  1  0  0  0
 61132  1  0  0  0
 61133  1  0  0  0
 62134  1  0  0  0
 62135  1  0  0  0
 62136  1  0  0  0
 63 65  1  0  0  0
 63137  1  0  0  0
 63138  1  0  0  0
 63139  1  0  0  0
 64140  1  0  0  0
 65141  1  0  0  0
 68 82  1  0  0  0
 71 72  2  0  0  0
 71 74  1  0  0  0
 71142  1  0  0  0
 72 75  1  0  0  0
 72143  1  0  0  0
 73 75  2  0  0  0
 73 76  1  0  0  0
 73144  1  0  0  0
 74 76  2  0  0  0
 74 77  1  0  0  0
 75 80  1  0  0  0
 76 79  1  0  0  0
 77 78  2  0  0  0
 77145  1  0  0  0
 78146  1  0  0  0
 79147  1  0  0  0
 79148  1  0  0  0
 79149  1  0  0  0
 80 81  1  0  0  0
 80150  1  0  0  0
 80151  1  0  0  0
 81 82  1  0  0  0
 81152  1  0  0  0
 81153  1  0  0  0
 82154  1  0  0  0
 82155  1  0  0  0
M  ISO  4   1 100  68 101  78 100  82 101
M  END
> <chiral flag>
0

> <version>
0

> <s_m_source_file>
/data/baiqing/PycharmProjects/Reinvent-master-3.2/result/LINK_invent/BTK/process_docking_weight1_custom_product_contain_oxygen_bond_distance_aromatic_linkinvent_7_9_3/rearranged_h_0127.sdf

> <i_m_source_file_index>
3

> <r_mmod_Potential_Energy-OPLS-2005>
65.8363342285156

> <r_mmod_Stretch_Energy-OPLS-2005>
58.2092132568359

> <r_mmod_Bend_Energy-OPLS-2005>
139.730911254883

> <r_mmod_Torsional_Energy-OPLS-2005>
194.04182434082

> <r_mmod_Improper_Torsional_Energy-OPLS-2005>
7.61992740631104

> <r_mmod_Van_der_Waal_Energy-OPLS-2005>
161.931900024414

> <r_mmod_Electrostatic_Energy-OPLS-2005>
-343.298522949219

> <r_mmod_Solvation_Energy-OPLS-2005>
-193.110900878906

> <b_mmod_Minimization_Converged-OPLS-2005>
0

> <r_mmod_RMS_Derivative-OPLS-2005>
2.919677734375

$$$$
3
                    3D
 Structure written by MMmdl.
154162  0  0  1  0            999 V2000
  -30.6257  -14.7209   20.4382 C   0  0  0  0  0  0
  -30.4280  -12.4184   19.4833 C   0  0  0  0  0  0
  -29.4868  -12.3833   18.2549 C   0  0  0  0  0  0
  -28.0161  -12.2740   18.6802 C   0  0  0  0  0  0
  -27.6383  -13.2233   19.8447 C   0  0  2  0  0  0
  -28.6787  -13.1813   20.9841 C   0  0  0  0  0  0
  -25.2556  -13.8183   20.5714 C   0  0  0  0  0  0
  -24.1817  -13.0438   20.9214 C   0  0  0  0  0  0
  -24.6394  -11.6923   20.8816 C   0  0  0  0  0  0
  -23.9064  -10.4312   21.0462 C   0  0  0  0  0  0
  -24.3625   -9.4238   21.9230 C   0  0  0  0  0  0
  -23.6301   -8.2280   22.0794 C   0  0  0  0  0  0
  -22.4305   -8.0309   21.3546 C   0  0  0  0  0  0
  -21.9919   -9.0290   20.4662 C   0  0  0  0  0  0
  -22.7246  -10.2174   20.3091 C   0  0  0  0  0  0
  -21.6866   -6.0755   22.5272 C   0  0  0  0  0  0
  -21.4010   -6.5649   23.8207 C   0  0  0  0  0  0
  -21.3681   -5.6814   24.9169 C   0  0  0  0  0  0
  -21.6031   -4.3072   24.7226 C   0  0  0  0  0  0
  -21.8803   -3.8161   23.4343 C   0  0  0  0  0  0
  -21.9205   -4.6976   22.3407 C   0  0  0  0  0  0
  -22.7870  -13.5282   21.1797 C   0  0  0  0  0  0
  -22.1691   -4.2158   21.0988 F   0  0  0  0  0  0
  -21.5609   -3.4567   25.7748 F   0  0  0  0  0  0
  -29.9908  -13.5006   20.4013 N   0  0  0  0  0  0
  -26.2945  -12.9364   20.3327 N   0  0  0  0  0  0
  -25.9333  -11.6518   20.5900 N   0  0  0  0  0  0
  -22.0478  -12.8289   22.0324 N   0  0  0  0  0  0
  -25.4265  -15.1882   20.4117 N   0  0  0  0  0  0
  -31.8099  -14.8088   20.0961 O   0  0  0  0  0  0
  -21.6648   -6.8916   21.4256 O   0  0  0  0  0  0
  -22.3603  -14.5622   20.6669 O   0  0  0  0  0  0
  -24.6324  -31.8538   23.1976 C   0  0  0  0  0  0
  -25.9128  -32.4746   23.8350 C   0  0  1  0  0  0
  -27.2302  -27.2812   20.1193 C   0  0  0  0  0  0
  -25.5946  -33.8546   24.2294 N   0  0  0  0  0  0
  -23.4318  -30.4799   21.5390 C   0  0  2  0  0  0
  -24.8834  -28.9345   20.0991 C   0  0  0  0  0  0
  -22.7530  -29.4579   22.4866 C   0  0  0  0  0  0
  -18.0289  -28.1340   22.8511 C   0  0  0  0  0  0
  -24.1496  -36.7290   23.2646 C   0  0  0  0  0  0
  -25.9794  -30.7679   21.3812 C   0  0  0  0  0  0
  -26.0501  -29.3955   20.7228 C   0  0  0  0  0  0
  -27.2244  -28.5805   20.7253 C   0  0  0  0  0  0
  -26.0498  -26.8970   19.4418 C   0  0  0  0  0  0
  -24.8903  -27.6960   19.4409 C   0  0  0  0  0  0
  -23.6548  -29.8218   20.1517 C   0  0  0  0  0  0
  -25.4120  -36.3068   24.0353 C   0  0  1  0  0  0
  -20.5891  -28.3683   23.1176 C   0  0  2  0  0  0
  -20.6842  -26.9432   22.5212 C   0  0  0  0  0  0
  -19.5674  -26.6228   21.5231 C   0  0  0  0  0  0
  -18.1934  -26.7802   22.1820 C   0  0  0  0  0  0
  -19.1533  -28.8837   23.2830 C   0  0  0  0  0  0
  -18.9444  -30.1454   23.8823 C   0  0  0  0  0  0
  -17.6449  -30.6592   24.0470 C   0  0  0  0  0  0
  -25.9058  -34.9448   23.5129 C   0  0  0  0  0  0
  -16.5343  -29.9089   23.6270 C   0  0  0  0  0  0
  -16.7280  -28.6476   23.0369 C   0  0  0  0  0  0
  -26.4526  -31.6555   25.0730 C   0  0  0  0  0  0
  -25.3757  -31.3683   26.1470 C   0  0  0  0  0  0
  -27.0381  -30.2986   24.6165 C   0  0  0  0  0  0
  -27.6103  -32.4287   25.7477 C   0  0  0  0  0  0
  -27.5584  -37.1801   24.8477 C   0  0  0  0  0  0
  -21.4219  -29.3111   22.3674 N   0  0  0  0  0  0
  -26.4283  -37.3772   23.9415 N   0  0  0  0  0  0
  -24.7016  -31.0517   22.0949 N   0  0  0  0  0  0
  -23.4231  -28.8017   23.2882 O   0  0  0  0  0  0
  -28.3407  -26.4112   20.2088 O   0  0  0  0  0  0
  -26.5617  -34.8919   22.4685 O   0  0  0  0  0  0
  -23.5457  -32.1345   23.7249 O   0  0  0  0  0  0
  -29.5625  -19.7202   18.6352 C   0  0  0  0  0  0
  -29.7091  -18.5252   17.9228 C   0  0  0  0  0  0
  -29.6815  -18.4552   20.6946 C   0  0  0  0  0  0
  -29.5362  -19.7537   20.0408 C   0  0  0  0  0  0
  -29.8450  -17.2766   18.5580 C   0  0  0  0  0  0
  -29.8497  -17.1836   19.9850 C   0  0  0  0  0  0
  -29.3652  -21.1473   20.6961 C   0  0  0  0  0  0
  -29.1431  -22.3763   20.0858 C   0  0  0  0  0  0
  -29.9023  -16.0982   17.5963 C   0  0  0  0  0  0
  -29.0628  -23.8439   20.6786 C   0  0  0  0  0  0
  -28.2245  -24.9570   19.8728 C   0  0  0  0  0  0
  -29.8609  -15.8558   20.6614 N   0  0  0  0  0  0
  -31.4584  -12.5434   19.1451 H   0  0  0  0  0  0
  -30.3968  -11.4621   20.0099 H   0  0  0  0  0  0
  -29.7399  -11.5198   17.6360 H   0  0  0  0  0  0
  -29.6212  -13.2413   17.6069 H   0  0  0  0  0  0
  -27.8650  -11.2417   18.9972 H   0  0  0  0  0  0
  -27.3523  -12.4201   17.8280 H   0  0  0  0  0  0
  -27.6334  -14.2325   19.4305 H   0  0  0  0  0  0
  -28.6950  -12.2014   21.4635 H   0  0  0  0  0  0
  -28.4079  -13.8972   21.7616 H   0  0  0  0  0  0
  -25.2770   -9.5722   22.4792 H   0  0  0  0  0  0
  -23.9980   -7.4710   22.7559 H   0  0  0  0  0  0
  -21.0820   -8.8818   19.9018 H   0  0  0  0  0  0
  -22.3682  -10.9720   19.6208 H   0  0  0  0  0  0
  -21.1976   -7.6158   23.9691 H   0  0  0  0  0  0
  -21.1537   -6.0559   25.9069 H   0  0  0  0  0  0
  -22.0549   -2.7622   23.2828 H   0  0  0  0  0  0
  -22.4096  -11.9958   22.4712 H   0  0  0  0  0  0
  -21.1131  -13.1393   22.2609 H   0  0  0  0  0  0
  -24.6594  -15.8386   20.5421 H   0  0  0  0  0  0
  -26.2708  -15.6341   20.0726 H   0  0  0  0  0  0
  -26.7184  -32.5406   23.1097 H   0  0  0  0  0  0
  -25.0181  -33.9705   25.0504 H   0  0  0  0  0  0
  -22.7270  -31.3020   21.3947 H   0  0  0  0  0  0
  -23.3754  -35.9618   23.3301 H   0  0  0  0  0  0
  -24.3597  -36.8886   22.2049 H   0  0  0  0  0  0
  -23.7243  -37.6505   23.6648 H   0  0  0  0  0  0
  -26.1284  -31.5259   20.6117 H   0  0  0  0  0  0
  -26.8556  -30.8140   22.0156 H   0  0  0  0  0  0
  -28.1204  -28.9273   21.2237 H   0  0  0  0  0  0
  -25.9928  -25.9707   18.8899 H   0  0  0  0  0  0
  -24.0098  -27.3557   18.9121 H   0  0  0  0  0  0
  -23.7823  -30.6021   19.4021 H   0  0  0  0  0  0
  -22.7722  -29.2609   19.8382 H   0  0  0  0  0  0
  -25.1271  -36.1950   25.0834 H   0  0  0  0  0  0
  -20.9965  -28.3238   24.1307 H   0  0  0  0  0  0
  -20.6023  -26.2291   23.3411 H   0  0  0  0  0  0
  -21.6612  -26.7590   22.0765 H   0  0  0  0  0  0
  -19.6773  -25.6033   21.1501 H   0  0  0  0  0  0
  -19.6412  -27.2816   20.6574 H   0  0  0  0  0  0
  -17.4076  -26.6290   21.4418 H   0  0  0  0  0  0
  -18.0584  -26.0080   22.9405 H   0  0  0  0  0  0
  -19.7943  -30.7256   24.2179 H   0  0  0  0  0  0
  -17.5013  -31.6284   24.5040 H   0  0  0  0  0  0
  -15.5341  -30.2994   23.7579 H   0  0  0  0  0  0
  -15.8681  -28.0769   22.7132 H   0  0  0  0  0  0
  -24.5947  -30.7018   25.7787 H   0  0  0  0  0  0
  -24.8957  -32.2838   26.4906 H   0  0  0  0  0  0
  -25.8101  -30.8848   27.0222 H   0  0  0  0  0  0
  -26.2935  -29.6724   24.1239 H   0  0  0  0  0  0
  -27.4161  -29.7255   25.4628 H   0  0  0  0  0  0
  -27.8770  -30.4312   23.9346 H   0  0  0  0  0  0
  -27.2746  -33.3583   26.2092 H   0  0  0  0  0  0
  -28.3898  -32.6840   25.0283 H   0  0  0  0  0  0
  -28.0823  -31.8397   26.5353 H   0  0  0  0  0  0
  -28.2608  -38.0091   24.7500 H   0  0  0  0  0  0
  -28.1075  -36.2618   24.6319 H   0  0  0  0  0  0
  -27.2320  -37.1479   25.8889 H   0  0  0  0  0  0
  -20.9428  -29.9045   21.7048 H   0  0  0  0  0  0
  -26.0184  -38.2848   24.1389 H   0  0  0  0  0  0
  -29.4691  -20.6226   18.0571 H   0  0  0  0  0  0
  -29.6904  -18.5752   16.8419 H   0  0  0  0  0  0
  -29.6612  -18.4340   21.7754 H   0  0  0  0  0  0
  -29.4636  -21.1527   21.7716 H   0  0  0  0  0  0
  -29.0404  -22.3935   19.0150 H   0  0  0  0  0  0
  -28.9096  -15.8735   17.2013 H   0  0  0  0  0  0
  -30.3157  -15.1897   17.9974 H   0  0  0  0  0  0
  -30.5417  -16.3521   16.7501 H   0  0  0  0  0  0
  -30.0942  -24.1921   20.7387 H   0  0  0  0  0  0
  -28.7050  -23.7974   21.7067 H   0  0  0  0  0  0
  -27.1896  -24.6315   19.9450 H   0  0  0  0  0  0
  -28.4863  -24.8778   18.8167 H   0  0  0  0  0  0
  -29.0219  -15.6595   21.1851 H   0  0  0  0  0  0
  1 25  1  0  0  0
  1 30  2  0  0  0
  1 82  1  0  0  0
  2  3  1  0  0  0
  2 25  1  0  0  0
  2 83  1  0  0  0
  2 84  1  0  0  0
  3  4  1  0  0  0
  3 85  1  0  0  0
  3 86  1  0  0  0
  4  5  1  0  0  0
  4 87  1  0  0  0
  4 88  1  0  0  0
  5  6  1  0  0  0
  5 26  1  0  0  0
  5 89  1  0  0  0
  6 25  1  0  0  0
  6 90  1  0  0  0
  6 91  1  0  0  0
  7  8  2  0  0  0
  7 26  1  0  0  0
  7 29  1  0  0  0
  8  9  1  0  0  0
  8 22  1  0  0  0
  9 10  1  0  0  0
  9 27  2  0  0  0
 10 11  2  0  0  0
 10 15  1  0  0  0
 11 12  1  0  0  0
 11 92  1  0  0  0
 12 13  2  0  0  0
 12 93  1  0  0  0
 13 14  1  0  0  0
 13 31  1  0  0  0
 14 15  2  0  0  0
 14 94  1  0  0  0
 15 95  1  0  0  0
 16 17  2  0  0  0
 16 21  1  0  0  0
 16 31  1  0  0  0
 17 18  1  0  0  0
 17 96  1  0  0  0
 18 19  2  0  0  0
 18 97  1  0  0  0
 19 20  1  0  0  0
 19 24  1  0  0  0
 20 21  2  0  0  0
 20 98  1  0  0  0
 21 23  1  0  0  0
 22 28  1  0  0  0
 22 32  2  0  0  0
 26 27  1  0  0  0
 28 99  1  0  0  0
 28100  1  0  0  0
 29101  1  0  0  0
 29102  1  0  0  0
 33 34  1  0  0  0
 33 66  1  0  0  0
 33 70  2  0  0  0
 34 36  1  0  0  0
 34 59  1  0  0  0
 34103  1  0  0  0
 35 44  2  0  0  0
 35 45  1  0  0  0
 35 68  1  0  0  0
 36 56  1  0  0  0
 36104  1  0  0  0
 37 39  1  0  0  0
 37 47  1  0  0  0
 37 66  1  0  0  0
 37105  1  0  0  0
 38 43  2  0  0  0
 38 46  1  0  0  0
 38 47  1  0  0  0
 39 64  1  0  0  0
 39 67  2  0  0  0
 40 52  1  0  0  0
 40 53  2  0  0  0
 40 58  1  0  0  0
 41106  1  0  0  0
 41107  1  0  0  0
 41108  1  0  0  0
 41 48  1  0  0  0
 42 43  1  0  0  0
 42 66  1  0  0  0
 42109  1  0  0  0
 42110  1  0  0  0
 43 44  1  0  0  0
 44111  1  0  0  0
 45 46  2  0  0  0
 45112  1  0  0  0
 46113  1  0  0  0
 47114  1  0  0  0
 47115  1  0  0  0
 48 56  1  0  0  0
 48 65  1  0  0  0
 48116  1  0  0  0
 49 50  1  0  0  0
 49 53  1  0  0  0
 49 64  1  0  0  0
 49117  1  0  0  0
 50 51  1  0  0  0
 50118  1  0  0  0
 50119  1  0  0  0
 51 52  1  0  0  0
 51120  1  0  0  0
 51121  1  0  0  0
 52122  1  0  0  0
 52123  1  0  0  0
 53 54  1  0  0  0
 54 55  2  0  0  0
 54124  1  0  0  0
 55 57  1  0  0  0
 55125  1  0  0  0
 56 69  2  0  0  0
 57 58  2  0  0  0
 57126  1  0  0  0
 58127  1  0  0  0
 59 60  1  0  0  0
 59 61  1  0  0  0
 59 62  1  0  0  0
 60128  1  0  0  0
 60129  1  0  0  0
 60130  1  0  0  0
 61131  1  0  0  0
 61132  1  0  0  0
 61133  1  0  0  0
 62134  1  0  0  0
 62135  1  0  0  0
 62136  1  0  0  0
 63 65  1  0  0  0
 63137  1  0  0  0
 63138  1  0  0  0
 63139  1  0  0  0
 64140  1  0  0  0
 65141  1  0  0  0
 68 81  1  0  0  0
 71 72  2  0  0  0
 71 74  1  0  0  0
 71142  1  0  0  0
 72 75  1  0  0  0
 72143  1  0  0  0
 73 74  2  0  0  0
 73 76  1  0  0  0
 73144  1  0  0  0
 74 77  1  0  0  0
 75 76  2  0  0  0
 75 79  1  0  0  0
 76 82  1  0  0  0
 77 78  2  0  0  0
 77145  1  0  0  0
 78 80  1  0  0  0
 78146  1  0  0  0
 79147  1  0  0  0
 79148  1  0  0  0
 79149  1  0  0  0
 80 81  1  0  0  0
 80150  1  0  0  0
 80151  1  0  0  0
 81152  1  0  0  0
 81153  1  0  0  0
 82154  1  0  0  0
M  ISO  4   1 100  68 101  81 101  82 100
M  END
> <chiral flag>
0

> <version>
0

> <s_m_source_file>
/data/baiqing/PycharmProjects/Reinvent-master-3.2/result/LINK_invent/BTK/process_docking_weight1_custom_product_contain_oxygen_bond_distance_aromatic_linkinvent_7_9_3/rearranged_h_0127.sdf

> <i_m_source_file_index>
4

> <r_mmod_Potential_Energy-OPLS-2005>
181.869201660156

> <r_mmod_Stretch_Energy-OPLS-2005>
118.174728393555

> <r_mmod_Bend_Energy-OPLS-2005>
156.911224365234

> <r_mmod_Torsional_Energy-OPLS-2005>
246.07502746582

> <r_mmod_Improper_Torsional_Energy-OPLS-2005>
6.28940200805664

> <r_mmod_Van_der_Waal_Energy-OPLS-2005>
151.774963378906

> <r_mmod_Electrostatic_Energy-OPLS-2005>
-370.474914550781

> <r_mmod_Solvation_Energy-OPLS-2005>
-207.688140869141

> <b_mmod_Minimization_Converged-OPLS-2005>
0

> <r_mmod_RMS_Derivative-OPLS-2005>
5.55993223190308

$$$$
4
                    3D
 Structure written by MMmdl.
162170  0  0  1  0            999 V2000
  -30.7337  -14.4655   20.6715 C   0  0  0  0  0  0
  -30.4209  -12.3448   19.4267 C   0  0  0  0  0  0
  -29.4944  -12.5477   18.2127 C   0  0  0  0  0  0
  -28.0201  -12.3763   18.6214 C   0  0  0  0  0  0
  -27.6607  -13.2083   19.8794 C   0  0  2  0  0  0
  -28.6927  -12.9851   21.0041 C   0  0  0  0  0  0
  -25.2581  -13.8161   20.5689 C   0  0  0  0  0  0
  -24.1823  -13.0445   20.9155 C   0  0  0  0  0  0
  -24.6366  -11.6911   20.8713 C   0  0  0  0  0  0
  -23.9029  -10.4309   21.0401 C   0  0  0  0  0  0
  -24.3597   -9.4237   21.9187 C   0  0  0  0  0  0
  -23.6279   -8.2267   22.0755 C   0  0  0  0  0  0
  -22.4264   -8.0287   21.3542 C   0  0  0  0  0  0
  -21.9891   -9.0249   20.4643 C   0  0  0  0  0  0
  -22.7199  -10.2136   20.3039 C   0  0  0  0  0  0
  -21.6842   -6.0737   22.5279 C   0  0  0  0  0  0
  -21.4018   -6.5642   23.8219 C   0  0  0  0  0  0
  -21.3668   -5.6792   24.9179 C   0  0  0  0  0  0
  -21.6039   -4.3047   24.7224 C   0  0  0  0  0  0
  -21.8819   -3.8138   23.4350 C   0  0  0  0  0  0
  -21.9194   -4.6962   22.3406 C   0  0  0  0  0  0
  -22.7854  -13.5256   21.1815 C   0  0  0  0  0  0
  -22.1655   -4.2151   21.0971 F   0  0  0  0  0  0
  -21.5641   -3.4535   25.7734 F   0  0  0  0  0  0
  -30.0306  -13.3069   20.4762 N   0  0  0  0  0  0
  -26.3009  -12.9328   20.3358 N   0  0  0  0  0  0
  -25.9295  -11.6493   20.5723 N   0  0  0  0  0  0
  -22.0481  -12.8255   22.0370 N   0  0  0  0  0  0
  -25.4280  -15.1886   20.4151 N   0  0  0  0  0  0
  -31.7627  -14.7264   20.0364 O   0  0  0  0  0  0
  -21.6625   -6.8878   21.4235 O   0  0  0  0  0  0
  -22.3557  -14.5563   20.6657 O   0  0  0  0  0  0
  -24.6154  -31.8682   23.2130 C   0  0  0  0  0  0
  -25.9043  -32.4835   23.8407 C   0  0  1  0  0  0
  -27.2379  -27.4416   20.0925 C   0  0  0  0  0  0
  -25.5885  -33.8631   24.2340 N   0  0  0  0  0  0
  -23.4030  -30.4933   21.5522 C   0  0  2  0  0  0
  -24.8533  -28.9597   20.1142 C   0  0  0  0  0  0
  -22.7397  -29.4683   22.4992 C   0  0  0  0  0  0
  -18.0267  -28.1402   22.8501 C   0  0  0  0  0  0
  -24.1468  -36.7342   23.2647 C   0  0  0  0  0  0
  -25.9300  -30.8375   21.3620 C   0  0  0  0  0  0
  -26.0121  -29.4692   20.7148 C   0  0  0  0  0  0
  -27.2084  -28.7144   20.7108 C   0  0  0  0  0  0
  -26.0690  -26.9520   19.4767 C   0  0  0  0  0  0
  -24.8758  -27.6967   19.4959 C   0  0  0  0  0  0
  -23.6102  -29.8198   20.1669 C   0  0  0  0  0  0
  -25.4099  -36.3127   24.0327 C   0  0  1  0  0  0
  -20.5852  -28.3705   23.1337 C   0  0  2  0  0  0
  -20.6760  -26.9442   22.5433 C   0  0  0  0  0  0
  -19.5751  -26.6417   21.5222 C   0  0  0  0  0  0
  -18.1919  -26.7953   22.1627 C   0  0  0  0  0  0
  -19.1520  -28.8867   23.2923 C   0  0  0  0  0  0
  -18.9449  -30.1460   23.8963 C   0  0  0  0  0  0
  -17.6446  -30.6608   24.0580 C   0  0  0  0  0  0
  -25.9031  -34.9488   23.5143 C   0  0  0  0  0  0
  -16.5344  -29.9127   23.6314 C   0  0  0  0  0  0
  -16.7257  -28.6514   23.0355 C   0  0  0  0  0  0
  -26.4474  -31.6613   25.0730 C   0  0  0  0  0  0
  -25.3728  -31.3636   26.1446 C   0  0  0  0  0  0
  -27.0382  -30.3096   24.6091 C   0  0  0  0  0  0
  -27.6025  -32.4362   25.7499 C   0  0  0  0  0  0
  -27.5587  -37.1824   24.8459 C   0  0  0  0  0  0
  -21.4125  -29.3070   22.3728 N   0  0  0  0  0  0
  -26.4292  -37.3812   23.9402 N   0  0  0  0  0  0
  -24.6677  -31.0786   22.1031 N   0  0  0  0  0  0
  -23.4167  -28.8217   23.3044 O   0  0  0  0  0  0
  -28.3577  -26.6412   20.1086 O   0  0  0  0  0  0
  -26.5620  -34.8945   22.4723 O   0  0  0  0  0  0
  -23.5345  -32.1435   23.7526 O   0  0  0  0  0  0
  -30.0481  -18.9279   20.2077 C   0  0  0  0  0  0
  -30.4344  -17.5931   20.4902 C   0  0  0  0  0  0
  -28.3337  -18.7687   21.8902 C   0  0  0  0  0  0
  -29.0028  -19.5443   20.9254 C   0  0  0  0  0  0
  -29.7840  -16.8008   21.4778 C   0  0  0  0  0  0
  -28.6991  -17.4294   22.1772 C   0  0  0  0  0  0
  -28.4839  -20.8997   20.6081 C   0  0  0  0  0  0
  -28.9471  -22.0734   21.1065 C   0  0  0  0  0  0
  -29.0295  -24.5087   21.2612 C   0  0  0  0  0  0
  -30.2859  -15.4012   21.8134 C   0  0  0  0  0  0
  -28.3271  -23.3974   20.9280 C   0  0  0  0  0  0
  -26.8866  -23.5334   20.4519 C   0  0  0  0  0  0
  -28.2957  -17.1178   24.6741 C   0  0  0  0  0  0
  -27.8616  -16.7332   23.2509 C   0  0  0  0  0  0
  -28.5154  -25.9547   21.3583 C   0  0  0  0  0  0
  -30.3706  -15.0052   23.0165 N   0  0  0  0  0  0
  -31.4637  -12.4546   19.1265 H   0  0  0  0  0  0
  -30.3351  -11.3264   19.8101 H   0  0  0  0  0  0
  -29.7536  -11.8505   17.4152 H   0  0  0  0  0  0
  -29.6433  -13.5477   17.8040 H   0  0  0  0  0  0
  -27.8479  -11.3171   18.8144 H   0  0  0  0  0  0
  -27.3646  -12.6419   17.7920 H   0  0  0  0  0  0
  -27.7075  -14.2572   19.5908 H   0  0  0  0  0  0
  -28.6731  -11.9453   21.3354 H   0  0  0  0  0  0
  -28.4107  -13.5642   21.8809 H   0  0  0  0  0  0
  -25.2728   -9.5741   22.4775 H   0  0  0  0  0  0
  -23.9993   -7.4663   22.7483 H   0  0  0  0  0  0
  -21.0824   -8.8750   19.8954 H   0  0  0  0  0  0
  -22.3633  -10.9676   19.6154 H   0  0  0  0  0  0
  -21.2000   -7.6145   23.9724 H   0  0  0  0  0  0
  -21.1495   -6.0515   25.9086 H   0  0  0  0  0  0
  -22.0592   -2.7610   23.2834 H   0  0  0  0  0  0
  -22.4067  -11.9916   22.4795 H   0  0  0  0  0  0
  -21.1098  -13.1323   22.2526 H   0  0  0  0  0  0
  -24.6621  -15.8440   20.5251 H   0  0  0  0  0  0
  -26.2880  -15.6363   20.1282 H   0  0  0  0  0  0
  -26.7107  -32.5539   23.1166 H   0  0  0  0  0  0
  -24.9918  -33.9761   25.0400 H   0  0  0  0  0  0
  -22.6910  -31.3097   21.4121 H   0  0  0  0  0  0
  -23.3737  -35.9670   23.3280 H   0  0  0  0  0  0
  -24.3560  -36.9017   22.2066 H   0  0  0  0  0  0
  -23.7212  -37.6525   23.6719 H   0  0  0  0  0  0
  -26.0280  -31.5965   20.5854 H   0  0  0  0  0  0
  -26.8254  -30.9090   21.9682 H   0  0  0  0  0  0
  -28.1015  -29.0994   21.1837 H   0  0  0  0  0  0
  -26.0718  -25.9870   18.9942 H   0  0  0  0  0  0
  -23.9839  -27.2946   19.0341 H   0  0  0  0  0  0
  -23.7073  -30.5942   19.4050 H   0  0  0  0  0  0
  -22.7357  -29.2327   19.8783 H   0  0  0  0  0  0
  -25.1273  -36.2001   25.0819 H   0  0  0  0  0  0
  -20.9954  -28.3301   24.1455 H   0  0  0  0  0  0
  -20.5691  -26.2308   23.3622 H   0  0  0  0  0  0
  -21.6633  -26.7494   22.1235 H   0  0  0  0  0  0
  -19.6907  -25.6334   21.1254 H   0  0  0  0  0  0
  -19.6697  -27.3214   20.6746 H   0  0  0  0  0  0
  -17.4198  -26.6747   21.4003 H   0  0  0  0  0  0
  -18.0282  -26.0074   22.9002 H   0  0  0  0  0  0
  -19.7920  -30.7246   24.2388 H   0  0  0  0  0  0
  -17.5021  -31.6278   24.5206 H   0  0  0  0  0  0
  -15.5360  -30.3064   23.7597 H   0  0  0  0  0  0
  -15.8645  -28.0852   22.7079 H   0  0  0  0  0  0
  -24.5979  -30.6912   25.7735 H   0  0  0  0  0  0
  -24.8804  -32.2739   26.4876 H   0  0  0  0  0  0
  -25.8082  -30.8823   27.0210 H   0  0  0  0  0  0
  -26.2942  -29.6776   24.1221 H   0  0  0  0  0  0
  -27.4277  -29.7408   25.4549 H   0  0  0  0  0  0
  -27.8709  -30.4485   23.9188 H   0  0  0  0  0  0
  -27.2635  -33.3670   26.2050 H   0  0  0  0  0  0
  -28.3830  -32.6892   25.0319 H   0  0  0  0  0  0
  -28.0705  -31.8506   26.5422 H   0  0  0  0  0  0
  -28.2563  -38.0162   24.7573 H   0  0  0  0  0  0
  -28.1105  -36.2690   24.6194 H   0  0  0  0  0  0
  -27.2300  -37.1366   25.8856 H   0  0  0  0  0  0
  -20.9282  -29.8791   21.6939 H   0  0  0  0  0  0
  -26.0179  -38.2881   24.1426 H   0  0  0  0  0  0
  -30.5620  -19.4725   19.4273 H   0  0  0  0  0  0
  -31.2677  -17.1911   19.9333 H   0  0  0  0  0  0
  -27.5074  -19.2152   22.4293 H   0  0  0  0  0  0
  -27.6391  -20.9023   19.9320 H   0  0  0  0  0  0
  -29.8175  -22.0205   21.7480 H   0  0  0  0  0  0
  -30.0661  -24.3959   21.5508 H   0  0  0  0  0  0
  -26.3744  -22.5780   20.3591 H   0  0  0  0  0  0
  -26.8640  -24.0101   19.4717 H   0  0  0  0  0  0
  -26.3006  -24.1393   21.1418 H   0  0  0  0  0  0
  -27.7000  -16.5837   25.4152 H   0  0  0  0  0  0
  -28.1637  -18.1855   24.8563 H   0  0  0  0  0  0
  -29.3444  -16.8838   24.8581 H   0  0  0  0  0  0
  -27.8463  -15.6520   23.1219 H   0  0  0  0  0  0
  -26.8215  -17.0327   23.1177 H   0  0  0  0  0  0
  -29.2205  -26.5232   21.9665 H   0  0  0  0  0  0
  -27.5848  -25.9399   21.9329 H   0  0  0  0  0  0
  -30.0567  -15.7310   23.6480 H   0  0  0  0  0  0
  1 25  1  0  0  0
  1 30  2  0  0  0
  1 80  1  0  0  0
  2  3  1  0  0  0
  2 25  1  0  0  0
  2 87  1  0  0  0
  2 88  1  0  0  0
  3  4  1  0  0  0
  3 89  1  0  0  0
  3 90  1  0  0  0
  4  5  1  0  0  0
  4 91  1  0  0  0
  4 92  1  0  0  0
  5  6  1  0  0  0
  5 26  1  0  0  0
  5 93  1  0  0  0
  6 25  1  0  0  0
  6 94  1  0  0  0
  6 95  1  0  0  0
  7  8  2  0  0  0
  7 26  1  0  0  0
  7 29  1  0  0  0
  8  9  1  0  0  0
  8 22  1  0  0  0
  9 10  1  0  0  0
  9 27  2  0  0  0
 10 11  2  0  0  0
 10 15  1  0  0  0
 11 12  1  0  0  0
 11 96  1  0  0  0
 12 13  2  0  0  0
 12 97  1  0  0  0
 13 14  1  0  0  0
 13 31  1  0  0  0
 14 15  2  0  0  0
 14 98  1  0  0  0
 15 99  1  0  0  0
 16 17  2  0  0  0
 16 21  1  0  0  0
 16 31  1  0  0  0
 17 18  1  0  0  0
 17100  1  0  0  0
 18 19  2  0  0  0
 18101  1  0  0  0
 19 20  1  0  0  0
 19 24  1  0  0  0
 20 21  2  0  0  0
 20102  1  0  0  0
 21 23  1  0  0  0
 22 28  1  0  0  0
 22 32  2  0  0  0
 26 27  1  0  0  0
 28103  1  0  0  0
 28104  1  0  0  0
 29105  1  0  0  0
 29106  1  0  0  0
 33 34  1  0  0  0
 33 66  1  0  0  0
 33 70  2  0  0  0
 34 36  1  0  0  0
 34 59  1  0  0  0
 34107  1  0  0  0
 35 44  2  0  0  0
 35 45  1  0  0  0
 35 68  1  0  0  0
 36 56  1  0  0  0
 36108  1  0  0  0
 37 39  1  0  0  0
 37 47  1  0  0  0
 37 66  1  0  0  0
 37109  1  0  0  0
 38 43  2  0  0  0
 38 46  1  0  0  0
 38 47  1  0  0  0
 39 64  1  0  0  0
 39 67  2  0  0  0
 40 52  1  0  0  0
 40 53  2  0  0  0
 40 58  1  0  0  0
 41110  1  0  0  0
 41111  1  0  0  0
 41112  1  0  0  0
 41 48  1  0  0  0
 42 43  1  0  0  0
 42 66  1  0  0  0
 42113  1  0  0  0
 42114  1  0  0  0
 43 44  1  0  0  0
 44115  1  0  0  0
 45 46  2  0  0  0
 45116  1  0  0  0
 46117  1  0  0  0
 47118  1  0  0  0
 47119  1  0  0  0
 48 56  1  0  0  0
 48 65  1  0  0  0
 48120  1  0  0  0
 49 50  1  0  0  0
 49 53  1  0  0  0
 49 64  1  0  0  0
 49121  1  0  0  0
 50 51  1  0  0  0
 50122  1  0  0  0
 50123  1  0  0  0
 51 52  1  0  0  0
 51124  1  0  0  0
 51125  1  0  0  0
 52126  1  0  0  0
 52127  1  0  0  0
 53 54  1  0  0  0
 54 55  2  0  0  0
 54128  1  0  0  0
 55 57  1  0  0  0
 55129  1  0  0  0
 56 69  2  0  0  0
 57 58  2  0  0  0
 57130  1  0  0  0
 58131  1  0  0  0
 59 60  1  0  0  0
 59 61  1  0  0  0
 59 62  1  0  0  0
 60132  1  0  0  0
 60133  1  0  0  0
 60134  1  0  0  0
 61135  1  0  0  0
 61136  1  0  0  0
 61137  1  0  0  0
 62138  1  0  0  0
 62139  1  0  0  0
 62140  1  0  0  0
 63 65  1  0  0  0
 63141  1  0  0  0
 63142  1  0  0  0
 63143  1  0  0  0
 64144  1  0  0  0
 65145  1  0  0  0
 68 85  1  0  0  0
 71 72  2  0  0  0
 71 74  1  0  0  0
 71146  1  0  0  0
 72 75  1  0  0  0
 72147  1  0  0  0
 73 74  2  0  0  0
 73 76  1  0  0  0
 73148  1  0  0  0
 74 77  1  0  0  0
 75 76  2  0  0  0
 75 80  1  0  0  0
 76 84  1  0  0  0
 77 78  2  0  0  0
 77149  1  0  0  0
 78 81  1  0  0  0
 78150  1  0  0  0
 79 81  2  0  0  0
 79 85  1  0  0  0
 79151  1  0  0  0
 80 86  2  0  0  0
 81 82  1  0  0  0
 82152  1  0  0  0
 82153  1  0  0  0
 82154  1  0  0  0
 83 84  1  0  0  0
 83155  1  0  0  0
 83156  1  0  0  0
 83157  1  0  0  0
 84158  1  0  0  0
 84159  1  0  0  0
 85160  1  0  0  0
 85161  1  0  0  0
 86162  1  0  0  0
M  ISO  4   1 100  68 101  80 100  85 101
M  END
> <chiral flag>
0

> <version>
0

> <s_m_source_file>
/data/baiqing/PycharmProjects/Reinvent-master-3.2/result/LINK_invent/BTK/process_docking_weight1_custom_product_contain_oxygen_bond_distance_aromatic_linkinvent_7_9_3/rearranged_h_0127.sdf

> <i_m_source_file_index>
5

> <r_mmod_Potential_Energy-OPLS-2005>
205.452056884766

> <r_mmod_Stretch_Energy-OPLS-2005>
50.1321220397949

> <r_mmod_Bend_Energy-OPLS-2005>
109.539421081543

> <r_mmod_Torsional_Energy-OPLS-2005>
279.808685302734

> <r_mmod_Improper_Torsional_Energy-OPLS-2005>
4.80156993865967

> <r_mmod_Van_der_Waal_Energy-OPLS-2005>
148.809494018555

> <r_mmod_Electrostatic_Energy-OPLS-2005>
-221.07991027832

> <r_mmod_Solvation_Energy-OPLS-2005>
-179.011322021484

> <b_mmod_Minimization_Converged-OPLS-2005>
0

> <r_mmod_RMS_Derivative-OPLS-2005>
3.32392954826355

$$$$
5
                    3D
 Structure written by MMmdl.
155163  0  0  1  0            999 V2000
  -30.6179  -14.5609   20.2742 C   0  0  0  0  0  0
  -30.4355  -12.2691   19.4663 C   0  0  0  0  0  0
  -29.5094  -12.3069   18.2276 C   0  0  0  0  0  0
  -28.0125  -12.3032   18.6185 C   0  0  0  0  0  0
  -27.6441  -13.1913   19.8422 C   0  0  2  0  0  0
  -28.7074  -13.0922   20.9632 C   0  0  0  0  0  0
  -25.2569  -13.8076   20.5699 C   0  0  0  0  0  0
  -24.1806  -13.0367   20.9229 C   0  0  0  0  0  0
  -24.6357  -11.6844   20.8801 C   0  0  0  0  0  0
  -23.9010  -10.4243   21.0441 C   0  0  0  0  0  0
  -24.3567   -9.4162   21.9217 C   0  0  0  0  0  0
  -23.6256   -8.2190   22.0762 C   0  0  0  0  0  0
  -22.4245   -8.0238   21.3547 C   0  0  0  0  0  0
  -21.9875   -9.0204   20.4652 C   0  0  0  0  0  0
  -22.7189  -10.2096   20.3080 C   0  0  0  0  0  0
  -21.6826   -6.0704   22.5273 C   0  0  0  0  0  0
  -21.4001   -6.5618   23.8213 C   0  0  0  0  0  0
  -21.3677   -5.6781   24.9186 C   0  0  0  0  0  0
  -21.6060   -4.3043   24.7238 C   0  0  0  0  0  0
  -21.8805   -3.8128   23.4361 C   0  0  0  0  0  0
  -21.9174   -4.6930   22.3415 C   0  0  0  0  0  0
  -22.7843  -13.5217   21.1870 C   0  0  0  0  0  0
  -22.1642   -4.2106   21.0986 F   0  0  0  0  0  0
  -21.5647   -3.4539   25.7762 F   0  0  0  0  0  0
  -30.0414  -13.3351   20.3943 N   0  0  0  0  0  0
  -26.2953  -12.9199   20.3333 N   0  0  0  0  0  0
  -25.9286  -11.6393   20.5844 N   0  0  0  0  0  0
  -22.0480  -12.8222   22.0432 N   0  0  0  0  0  0
  -25.4328  -15.1799   20.4109 N   0  0  0  0  0  0
  -31.8340  -14.7375   20.3251 O   0  0  0  0  0  0
  -21.6618   -6.8835   21.4234 O   0  0  0  0  0  0
  -22.3552  -14.5518   20.6703 O   0  0  0  0  0  0
  -24.6160  -31.8691   23.2104 C   0  0  0  0  0  0
  -25.9060  -32.4807   23.8394 C   0  0  1  0  0  0
  -27.2270  -27.4228   20.1154 C   0  0  0  0  0  0
  -25.5945  -33.8597   24.2335 N   0  0  0  0  0  0
  -23.3995  -30.4953   21.5526 C   0  0  2  0  0  0
  -24.8412  -28.9544   20.1190 C   0  0  0  0  0  0
  -22.7411  -29.4689   22.5013 C   0  0  0  0  0  0
  -18.0292  -28.1353   22.8522 C   0  0  0  0  0  0
  -24.1488  -36.7306   23.2646 C   0  0  0  0  0  0
  -25.9279  -30.8273   21.3668 C   0  0  0  0  0  0
  -25.9987  -29.4587   20.7223 C   0  0  0  0  0  0
  -27.1873  -28.6961   20.7276 C   0  0  0  0  0  0
  -26.0547  -26.9437   19.4841 C   0  0  0  0  0  0
  -24.8619  -27.6912   19.5033 C   0  0  0  0  0  0
  -23.6047  -29.8279   20.1657 C   0  0  0  0  0  0
  -25.4099  -36.3097   24.0359 C   0  0  1  0  0  0
  -20.5879  -28.3640   23.1336 C   0  0  2  0  0  0
  -20.6767  -26.9385   22.5421 C   0  0  0  0  0  0
  -19.5731  -26.6378   21.5228 C   0  0  0  0  0  0
  -18.1921  -26.7909   22.1651 C   0  0  0  0  0  0
  -19.1540  -28.8823   23.2926 C   0  0  0  0  0  0
  -18.9468  -30.1445   23.8911 C   0  0  0  0  0  0
  -17.6462  -30.6561   24.0574 C   0  0  0  0  0  0
  -25.9032  -34.9458   23.5134 C   0  0  0  0  0  0
  -16.5353  -29.9062   23.6334 C   0  0  0  0  0  0
  -16.7282  -28.6482   23.0356 C   0  0  0  0  0  0
  -26.4466  -31.6572   25.0730 C   0  0  0  0  0  0
  -25.3749  -31.3685   26.1503 C   0  0  0  0  0  0
  -27.0273  -30.3016   24.6078 C   0  0  0  0  0  0
  -27.6054  -32.4253   25.7493 C   0  0  0  0  0  0
  -27.5568  -37.1819   24.8478 C   0  0  0  0  0  0
  -21.4147  -29.3023   22.3747 N   0  0  0  0  0  0
  -26.4268  -37.3787   23.9437 N   0  0  0  0  0  0
  -24.6652  -31.0815   22.1001 N   0  0  0  0  0  0
  -23.4191  -28.8255   23.3053 O   0  0  0  0  0  0
  -28.4152  -26.7154   20.1578 O   0  0  0  0  0  0
  -26.5569  -34.8923   22.4683 O   0  0  0  0  0  0
  -23.5374  -32.1451   23.7520 O   0  0  0  0  0  0
  -30.4604  -18.9439   19.6592 C   0  0  0  0  0  0
  -28.7252  -18.1503   21.1567 C   0  0  0  0  0  0
  -30.2300  -20.2679   20.0964 C   0  0  0  0  0  0
  -28.5015  -19.4729   21.5989 C   0  0  0  0  0  0
  -29.6769  -17.8829   20.1541 C   0  0  0  0  0  0
  -29.2087  -20.5691   21.0358 C   0  0  0  0  0  0
  -29.5055  -16.6973   19.3134 C   0  0  0  0  0  0
  -29.8242  -15.3865   19.3595 C   0  0  0  0  0  0
  -28.8185  -21.9882   21.3748 C   0  0  0  0  0  0
  -29.6654  -23.1437   20.8094 C   0  0  0  0  0  0
  -29.2183  -24.6080   21.1237 C   0  0  0  0  0  0
  -28.4203  -25.2846   19.9841 C   0  0  0  0  0  0
  -27.8085  -22.2526   22.0937 N   0  0  0  0  0  0
  -31.4824  -12.3574   19.1712 H   0  0  0  0  0  0
  -30.3497  -11.3074   19.9721 H   0  0  0  0  0  0
  -29.7114  -11.4203   17.6241 H   0  0  0  0  0  0
  -29.7532  -13.1305   17.5622 H   0  0  0  0  0  0
  -27.7612  -11.2659   18.8422 H   0  0  0  0  0  0
  -27.3982  -12.5783   17.7599 H   0  0  0  0  0  0
  -27.6074  -14.2119   19.4769 H   0  0  0  0  0  0
  -28.6846  -12.1088   21.4336 H   0  0  0  0  0  0
  -28.4980  -13.8187   21.7523 H   0  0  0  0  0  0
  -25.2709   -9.5623   22.4804 H   0  0  0  0  0  0
  -23.9952   -7.4573   22.7477 H   0  0  0  0  0  0
  -21.0819   -8.8730   19.8958 H   0  0  0  0  0  0
  -22.3665  -10.9638   19.6193 H   0  0  0  0  0  0
  -21.1990   -7.6122   23.9700 H   0  0  0  0  0  0
  -21.1535   -6.0526   25.9088 H   0  0  0  0  0  0
  -22.0577   -2.7575   23.2883 H   0  0  0  0  0  0
  -22.4080  -11.9892   22.4832 H   0  0  0  0  0  0
  -21.1113  -13.1290   22.2657 H   0  0  0  0  0  0
  -24.6733  -15.8428   20.5245 H   0  0  0  0  0  0
  -26.2952  -15.6144   20.1056 H   0  0  0  0  0  0
  -26.7146  -32.5487   23.1163 H   0  0  0  0  0  0
  -25.0190  -33.9748   25.0540 H   0  0  0  0  0  0
  -22.6876  -31.3141   21.4175 H   0  0  0  0  0  0
  -23.3731  -35.9655   23.3304 H   0  0  0  0  0  0
  -24.3587  -36.8912   22.2063 H   0  0  0  0  0  0
  -23.7261  -37.6530   23.6630 H   0  0  0  0  0  0
  -26.0444  -31.5842   20.5905 H   0  0  0  0  0  0
  -26.8138  -30.8761   21.9869 H   0  0  0  0  0  0
  -28.0664  -29.0768   21.2272 H   0  0  0  0  0  0
  -26.0398  -26.0005   18.9620 H   0  0  0  0  0  0
  -23.9721  -27.2888   19.0360 H   0  0  0  0  0  0
  -23.7226  -30.6043   19.4088 H   0  0  0  0  0  0
  -22.7239  -29.2567   19.8635 H   0  0  0  0  0  0
  -25.1267  -36.1945   25.0849 H   0  0  0  0  0  0
  -20.9988  -28.3194   24.1445 H   0  0  0  0  0  0
  -20.5685  -26.2264   23.3613 H   0  0  0  0  0  0
  -21.6644  -26.7423   22.1215 H   0  0  0  0  0  0
  -19.6884  -25.6306   21.1231 H   0  0  0  0  0  0
  -19.6639  -27.3225   20.6798 H   0  0  0  0  0  0
  -17.4200  -26.6716   21.4036 H   0  0  0  0  0  0
  -18.0283  -26.0014   22.9013 H   0  0  0  0  0  0
  -19.7944  -30.7277   24.2250 H   0  0  0  0  0  0
  -17.5010  -31.6247   24.5173 H   0  0  0  0  0  0
  -15.5352  -30.2954   23.7626 H   0  0  0  0  0  0
  -15.8703  -28.0794   22.7030 H   0  0  0  0  0  0
  -24.5934  -30.6999   25.7889 H   0  0  0  0  0  0
  -24.8930  -32.2847   26.4927 H   0  0  0  0  0  0
  -25.8150  -30.8915   27.0278 H   0  0  0  0  0  0
  -26.2871  -29.6882   24.0952 H   0  0  0  0  0  0
  -27.3878  -29.7123   25.4518 H   0  0  0  0  0  0
  -27.8752  -30.4346   23.9361 H   0  0  0  0  0  0
  -27.2698  -33.3550   26.2090 H   0  0  0  0  0  0
  -28.3868  -32.6811   25.0321 H   0  0  0  0  0  0
  -28.0712  -31.8354   26.5403 H   0  0  0  0  0  0
  -28.2607  -38.0098   24.7495 H   0  0  0  0  0  0
  -28.1052  -36.2637   24.6306 H   0  0  0  0  0  0
  -27.2305  -37.1474   25.8890 H   0  0  0  0  0  0
  -20.9287  -29.8771   21.6992 H   0  0  0  0  0  0
  -26.0157  -38.2873   24.1393 H   0  0  0  0  0  0
  -31.1551  -18.7702   18.8466 H   0  0  0  0  0  0
  -28.0716  -17.3605   21.5013 H   0  0  0  0  0  0
  -30.8054  -21.0529   19.6300 H   0  0  0  0  0  0
  -27.7114  -19.6393   22.3168 H   0  0  0  0  0  0
  -28.9313  -16.9484   18.4324 H   0  0  0  0  0  0
  -29.4291  -14.8813   18.5026 H   0  0  0  0  0  0
  -29.7516  -23.0280   19.7299 H   0  0  0  0  0  0
  -30.6789  -23.0199   21.1865 H   0  0  0  0  0  0
  -30.1226  -25.1955   21.3024 H   0  0  0  0  0  0
  -28.6577  -24.6821   22.0571 H   0  0  0  0  0  0
  -27.4361  -24.8190   19.9592 H   0  0  0  0  0  0
  -28.8866  -25.0816   19.0198 H   0  0  0  0  0  0
  -27.3202  -21.4193   22.3989 H   0  0  0  0  0  0
  1 25  1  0  0  0
  1 30  2  0  0  0
  1 78  1  0  0  0
  2  3  1  0  0  0
  2 25  1  0  0  0
  2 84  1  0  0  0
  2 85  1  0  0  0
  3  4  1  0  0  0
  3 86  1  0  0  0
  3 87  1  0  0  0
  4  5  1  0  0  0
  4 88  1  0  0  0
  4 89  1  0  0  0
  5  6  1  0  0  0
  5 26  1  0  0  0
  5 90  1  0  0  0
  6 25  1  0  0  0
  6 91  1  0  0  0
  6 92  1  0  0  0
  7  8  2  0  0  0
  7 26  1  0  0  0
  7 29  1  0  0  0
  8  9  1  0  0  0
  8 22  1  0  0  0
  9 10  1  0  0  0
  9 27  2  0  0  0
 10 11  2  0  0  0
 10 15  1  0  0  0
 11 12  1  0  0  0
 11 93  1  0  0  0
 12 13  2  0  0  0
 12 94  1  0  0  0
 13 14  1  0  0  0
 13 31  1  0  0  0
 14 15  2  0  0  0
 14 95  1  0  0  0
 15 96  1  0  0  0
 16 17  2  0  0  0
 16 21  1  0  0  0
 16 31  1  0  0  0
 17 18  1  0  0  0
 17 97  1  0  0  0
 18 19  2  0  0  0
 18 98  1  0  0  0
 19 20  1  0  0  0
 19 24  1  0  0  0
 20 21  2  0  0  0
 20 99  1  0  0  0
 21 23  1  0  0  0
 22 28  1  0  0  0
 22 32  2  0  0  0
 26 27  1  0  0  0
 28100  1  0  0  0
 28101  1  0  0  0
 29102  1  0  0  0
 29103  1  0  0  0
 33 34  1  0  0  0
 33 66  1  0  0  0
 33 70  2  0  0  0
 34 36  1  0  0  0
 34 59  1  0  0  0
 34104  1  0  0  0
 35 44  2  0  0  0
 35 45  1  0  0  0
 35 68  1  0  0  0
 36 56  1  0  0  0
 36105  1  0  0  0
 37 39  1  0  0  0
 37 47  1  0  0  0
 37 66  1  0  0  0
 37106  1  0  0  0
 38 43  2  0  0  0
 38 46  1  0  0  0
 38 47  1  0  0  0
 39 64  1  0  0  0
 39 67  2  0  0  0
 40 52  1  0  0  0
 40 53  2  0  0  0
 40 58  1  0  0  0
 41107  1  0  0  0
 41108  1  0  0  0
 41109  1  0  0  0
 41 48  1  0  0  0
 42 43  1  0  0  0
 42 66  1  0  0  0
 42110  1  0  0  0
 42111  1  0  0  0
 43 44  1  0  0  0
 44112  1  0  0  0
 45 46  2  0  0  0
 45113  1  0  0  0
 46114  1  0  0  0
 47115  1  0  0  0
 47116  1  0  0  0
 48 56  1  0  0  0
 48 65  1  0  0  0
 48117  1  0  0  0
 49 50  1  0  0  0
 49 53  1  0  0  0
 49 64  1  0  0  0
 49118  1  0  0  0
 50 51  1  0  0  0
 50119  1  0  0  0
 50120  1  0  0  0
 51 52  1  0  0  0
 51121  1  0  0  0
 51122  1  0  0  0
 52123  1  0  0  0
 52124  1  0  0  0
 53 54  1  0  0  0
 54 55  2  0  0  0
 54125  1  0  0  0
 55 57  1  0  0  0
 55126  1  0  0  0
 56 69  2  0  0  0
 57 58  2  0  0  0
 57127  1  0  0  0
 58128  1  0  0  0
 59 60  1  0  0  0
 59 61  1  0  0  0
 59 62  1  0  0  0
 60129  1  0  0  0
 60130  1  0  0  0
 60131  1  0  0  0
 61132  1  0  0  0
 61133  1  0  0  0
 61134  1  0  0  0
 62135  1  0  0  0
 62136  1  0  0  0
 62137  1  0  0  0
 63 65  1  0  0  0
 63138  1  0  0  0
 63139  1  0  0  0
 63140  1  0  0  0
 64141  1  0  0  0
 65142  1  0  0  0
 68 82  1  0  0  0
 71 73  2  0  0  0
 71 75  1  0  0  0
 71143  1  0  0  0
 72 74  1  0  0  0
 72 75  2  0  0  0
 72144  1  0  0  0
 73 76  1  0  0  0
 73145  1  0  0  0
 74 76  2  0  0  0
 74146  1  0  0  0
 75 77  1  0  0  0
 76 79  1  0  0  0
 77 78  2  0  0  0
 77147  1  0  0  0
 78148  1  0  0  0
 79 80  1  0  0  0
 79 83  2  0  0  0
 80 81  1  0  0  0
 80149  1  0  0  0
 80150  1  0  0  0
 81 82  1  0  0  0
 81151  1  0  0  0
 81152  1  0  0  0
 82153  1  0  0  0
 82154  1  0  0  0
 83155  1  0  0  0
M  ISO  4   1 100  68 101  78 100  82 101
M  END
> <chiral flag>
0

> <version>
0

> <s_m_source_file>
/data/baiqing/PycharmProjects/Reinvent-master-3.2/result/LINK_invent/BTK/process_docking_weight1_custom_product_contain_oxygen_bond_distance_aromatic_linkinvent_7_9_3/rearranged_h_0127.sdf

> <i_m_source_file_index>
6

> <r_mmod_Potential_Energy-OPLS-2005>
171.925765991211

> <r_mmod_Stretch_Energy-OPLS-2005>
40.0121116638184

> <r_mmod_Bend_Energy-OPLS-2005>
150.747222900391

> <r_mmod_Torsional_Energy-OPLS-2005>
291.896362304688

> <r_mmod_Improper_Torsional_Energy-OPLS-2005>
32.7951774597168

> <r_mmod_Van_der_Waal_Energy-OPLS-2005>
165.547378540039

> <r_mmod_Electrostatic_Energy-OPLS-2005>
-349.886749267578

> <r_mmod_Solvation_Energy-OPLS-2005>
-209.945129394531

> <b_mmod_Minimization_Converged-OPLS-2005>
0

> <r_mmod_RMS_Derivative-OPLS-2005>
4.44738483428955

$$$$
6
                    3D
 Structure written by MMmdl.
150158  0  0  1  0            999 V2000
  -30.4311  -15.1836   20.3868 C   0  0  0  0  0  0
  -30.4483  -12.7460   19.5266 C   0  0  0  0  0  0
  -29.5383  -12.5705   18.2838 C   0  0  0  0  0  0
  -28.0802  -12.3081   18.7034 C   0  0  0  0  0  0
  -27.6212  -13.2644   19.8325 C   0  0  2  0  0  0
  -28.6561  -13.3786   20.9726 C   0  0  0  0  0  0
  -25.2413  -13.8216   20.5692 C   0  0  0  0  0  0
  -24.1761  -13.0429   20.9246 C   0  0  0  0  0  0
  -24.6404  -11.6922   20.8764 C   0  0  0  0  0  0
  -23.9093  -10.4289   21.0409 C   0  0  0  0  0  0
  -24.3637   -9.4202   21.9187 C   0  0  0  0  0  0
  -23.6302   -8.2242   22.0758 C   0  0  0  0  0  0
  -22.4284   -8.0284   21.3548 C   0  0  0  0  0  0
  -21.9925   -9.0260   20.4650 C   0  0  0  0  0  0
  -22.7262  -10.2135   20.3057 C   0  0  0  0  0  0
  -21.6857   -6.0735   22.5278 C   0  0  0  0  0  0
  -21.4015   -6.5639   23.8211 C   0  0  0  0  0  0
  -21.3658   -5.6793   24.9174 C   0  0  0  0  0  0
  -21.6044   -4.3055   24.7224 C   0  0  0  0  0  0
  -21.8818   -3.8146   23.4345 C   0  0  0  0  0  0
  -21.9193   -4.6962   22.3401 C   0  0  0  0  0  0
  -22.7779  -13.5192   21.1897 C   0  0  0  0  0  0
  -22.1661   -4.2146   21.0979 F   0  0  0  0  0  0
  -21.5630   -3.4539   25.7737 F   0  0  0  0  0  0
  -29.9049  -13.8680   20.3679 N   0  0  0  0  0  0
  -26.2851  -12.9480   20.3217 N   0  0  0  0  0  0
  -25.9341  -11.6598   20.5732 N   0  0  0  0  0  0
  -22.0435  -12.8178   22.0453 N   0  0  0  0  0  0
  -25.4022  -15.1934   20.4029 N   0  0  0  0  0  0
  -31.6358  -15.2515   20.1041 O   0  0  0  0  0  0
  -21.6645   -6.8882   21.4241 O   0  0  0  0  0  0
  -22.3458  -14.5493   20.6738 O   0  0  0  0  0  0
  -24.6578  -31.8283   23.1736 C   0  0  0  0  0  0
  -25.9280  -32.4612   23.8189 C   0  0  1  0  0  0
  -27.2229  -26.9814   20.1798 C   0  0  0  0  0  0
  -25.5966  -33.8424   24.2099 N   0  0  0  0  0  0
  -23.4706  -30.4403   21.5213 C   0  0  2  0  0  0
  -24.9240  -28.8351   20.1113 C   0  0  0  0  0  0
  -22.7642  -29.4462   22.4793 C   0  0  0  0  0  0
  -18.0322  -28.1407   22.8462 C   0  0  0  0  0  0
  -24.1493  -36.7221   23.2647 C   0  0  0  0  0  0
  -26.0356  -30.6527   21.3948 C   0  0  0  0  0  0
  -26.1055  -29.2472   20.7400 C   0  0  0  0  0  0
  -27.2511  -28.3405   20.7493 C   0  0  0  0  0  0
  -26.0134  -26.7054   19.5053 C   0  0  0  0  0  0
  -24.8999  -27.5835   19.4742 C   0  0  0  0  0  0
  -23.7073  -29.7566   20.1467 C   0  0  0  0  0  0
  -25.4131  -36.2981   24.0305 C   0  0  1  0  0  0
  -20.5941  -28.3747   23.1194 C   0  0  2  0  0  0
  -20.6796  -26.9429   22.5408 C   0  0  0  0  0  0
  -19.5775  -26.6370   21.5217 C   0  0  0  0  0  0
  -18.1955  -26.7936   22.1622 C   0  0  0  0  0  0
  -19.1581  -28.8898   23.2813 C   0  0  0  0  0  0
  -18.9492  -30.1487   23.8849 C   0  0  0  0  0  0
  -17.6485  -30.6592   24.0556 C   0  0  0  0  0  0
  -25.9092  -34.9364   23.5024 C   0  0  0  0  0  0
  -16.5376  -29.9084   23.6335 C   0  0  0  0  0  0
  -16.7304  -28.6507   23.0351 C   0  0  0  0  0  0
  -26.4549  -31.6538   25.0697 C   0  0  0  0  0  0
  -25.3692  -31.3769   26.1364 C   0  0  0  0  0  0
  -27.0442  -30.2914   24.6391 C   0  0  0  0  0  0
  -27.6048  -32.4340   25.7496 C   0  0  0  0  0  0
  -27.5571  -37.1765   24.8467 C   0  0  0  0  0  0
  -21.4317  -29.3041   22.3542 N   0  0  0  0  0  0
  -26.4281  -37.3711   23.9410 N   0  0  0  0  0  0
  -24.7422  -30.9994   22.0843 N   0  0  0  0  0  0
  -23.4212  -28.8032   23.3020 O   0  0  0  0  0  0
  -28.2463  -25.9162   20.2633 O   0  0  0  0  0  0
  -26.5699  -34.8893   22.4617 O   0  0  0  0  0  0
  -23.5661  -32.1226   23.6862 O   0  0  0  0  0  0
  -30.1294  -20.4000   19.7064 C   0  0  0  0  0  0
  -30.3261  -18.9270   19.7592 C   0  0  0  0  0  0
  -28.2955  -20.2407   21.0840 C   0  0  0  0  0  0
  -29.0986  -21.2069   20.3579 C   0  0  0  0  0  0
  -28.4784  -18.7659   21.1434 C   0  0  0  0  0  0
  -29.5185  -17.9666   20.4915 C   0  0  0  0  0  0
  -27.4852  -18.0055   22.0041 C   0  0  0  0  0  0
  -29.1009  -22.9428   20.4740 C   0  0  0  0  0  0
  -28.0290  -24.3068   20.1068 C   0  0  0  0  0  0
  -29.5811  -16.3632   20.5818 N   0  0  0  0  0  0
  -31.4711  -12.9469   19.2052 H   0  0  0  0  0  0
  -30.4992  -11.8211   20.1034 H   0  0  0  0  0  0
  -29.9027  -11.7553   17.6573 H   0  0  0  0  0  0
  -29.5842  -13.4719   17.6708 H   0  0  0  0  0  0
  -28.0177  -11.2763   19.0507 H   0  0  0  0  0  0
  -27.4152  -12.3827   17.8420 H   0  0  0  0  0  0
  -27.5560  -14.2462   19.3628 H   0  0  0  0  0  0
  -28.7994  -12.4217   21.4764 H   0  0  0  0  0  0
  -28.3094  -14.0783   21.7347 H   0  0  0  0  0  0
  -25.2782   -9.5673   22.4765 H   0  0  0  0  0  0
  -24.0005   -7.4630   22.7479 H   0  0  0  0  0  0
  -21.0856   -8.8784   19.8955 H   0  0  0  0  0  0
  -22.3722  -10.9675   19.6169 H   0  0  0  0  0  0
  -21.2008   -7.6148   23.9711 H   0  0  0  0  0  0
  -21.1482   -6.0525   25.9076 H   0  0  0  0  0  0
  -22.0598   -2.7607   23.2849 H   0  0  0  0  0  0
  -22.4071  -11.9848   22.4841 H   0  0  0  0  0  0
  -21.1048  -13.1189   22.2661 H   0  0  0  0  0  0
  -24.6166  -15.8296   20.4849 H   0  0  0  0  0  0
  -26.2128  -15.6207   19.9757 H   0  0  0  0  0  0
  -26.7346  -32.5170   23.0904 H   0  0  0  0  0  0
  -25.0064  -33.9507   25.0216 H   0  0  0  0  0  0
  -22.7818  -31.2705   21.3528 H   0  0  0  0  0  0
  -23.3767  -35.9540   23.3282 H   0  0  0  0  0  0
  -24.3571  -36.8890   22.2066 H   0  0  0  0  0  0
  -23.7239  -37.6399   23.6716 H   0  0  0  0  0  0
  -26.2082  -31.3965   20.6158 H   0  0  0  0  0  0
  -26.8986  -30.7095   22.0464 H   0  0  0  0  0  0
  -28.1476  -28.6534   21.2660 H   0  0  0  0  0  0
  -25.8997  -25.7469   19.0204 H   0  0  0  0  0  0
  -24.0011  -27.2624   18.9656 H   0  0  0  0  0  0
  -23.8584  -30.5250   19.3878 H   0  0  0  0  0  0
  -22.8184  -29.2069   19.8317 H   0  0  0  0  0  0
  -25.1325  -36.1785   25.0795 H   0  0  0  0  0  0
  -21.0033  -28.3366   24.1318 H   0  0  0  0  0  0
  -21.6662  -26.7404   22.1217 H   0  0  0  0  0  0
  -20.5674  -26.2371   23.3653 H   0  0  0  0  0  0
  -19.6932  -25.6262   21.1293 H   0  0  0  0  0  0
  -19.6720  -27.3142   20.6717 H   0  0  0  0  0  0
  -17.4220  -26.6667   21.4031 H   0  0  0  0  0  0
  -18.0361  -26.0097   22.9040 H   0  0  0  0  0  0
  -19.7969  -30.7316   24.2195 H   0  0  0  0  0  0
  -17.5035  -31.6266   24.5171 H   0  0  0  0  0  0
  -15.5374  -30.2970   23.7685 H   0  0  0  0  0  0
  -15.8704  -28.0813   22.7089 H   0  0  0  0  0  0
  -24.5889  -30.7100   25.7676 H   0  0  0  0  0  0
  -24.8863  -32.2963   26.4684 H   0  0  0  0  0  0
  -25.7939  -30.9007   27.0210 H   0  0  0  0  0  0
  -26.3097  -29.6597   24.1384 H   0  0  0  0  0  0
  -27.3983  -29.7263   25.5022 H   0  0  0  0  0  0
  -27.9033  -30.4114   23.9787 H   0  0  0  0  0  0
  -27.2620  -33.3678   26.1964 H   0  0  0  0  0  0
  -28.3915  -32.6840   25.0364 H   0  0  0  0  0  0
  -28.0658  -31.8541   26.5501 H   0  0  0  0  0  0
  -28.2569  -38.0077   24.7510 H   0  0  0  0  0  0
  -28.1083  -36.2603   24.6296 H   0  0  0  0  0  0
  -27.2288  -37.1412   25.8868 H   0  0  0  0  0  0
  -20.9564  -29.8741   21.6685 H   0  0  0  0  0  0
  -26.0136  -38.2773   24.1414 H   0  0  0  0  0  0
  -30.8681  -20.9480   19.1379 H   0  0  0  0  0  0
  -31.1574  -18.5301   19.1938 H   0  0  0  0  0  0
  -27.4939  -20.6585   21.6776 H   0  0  0  0  0  0
  -26.8527  -18.6756   22.5864 H   0  0  0  0  0  0
  -28.0048  -17.3540   22.7074 H   0  0  0  0  0  0
  -26.8357  -17.3922   21.3817 H   0  0  0  0  0  0
  -30.0246  -23.2069   19.9592 H   0  0  0  0  0  0
  -29.3474  -23.0953   21.5250 H   0  0  0  0  0  0
  -27.1071  -24.1044   20.6525 H   0  0  0  0  0  0
  -27.7563  -24.1794   19.0591 H   0  0  0  0  0  0
  -28.6865  -16.0101   20.8840 H   0  0  0  0  0  0
  1 25  1  0  0  0
  1 30  2  0  0  0
  1 80  1  0  0  0
  2  3  1  0  0  0
  2 25  1  0  0  0
  2 81  1  0  0  0
  2 82  1  0  0  0
  3  4  1  0  0  0
  3 83  1  0  0  0
  3 84  1  0  0  0
  4  5  1  0  0  0
  4 85  1  0  0  0
  4 86  1  0  0  0
  5  6  1  0  0  0
  5 26  1  0  0  0
  5 87  1  0  0  0
  6 25  1  0  0  0
  6 88  1  0  0  0
  6 89  1  0  0  0
  7  8  2  0  0  0
  7 26  1  0  0  0
  7 29  1  0  0  0
  8  9  1  0  0  0
  8 22  1  0  0  0
  9 10  1  0  0  0
  9 27  2  0  0  0
 10 11  2  0  0  0
 10 15  1  0  0  0
 11 12  1  0  0  0
 11 90  1  0  0  0
 12 13  2  0  0  0
 12 91  1  0  0  0
 13 14  1  0  0  0
 13 31  1  0  0  0
 14 15  2  0  0  0
 14 92  1  0  0  0
 15 93  1  0  0  0
 16 17  2  0  0  0
 16 21  1  0  0  0
 16 31  1  0  0  0
 17 18  1  0  0  0
 17 94  1  0  0  0
 18 19  2  0  0  0
 18 95  1  0  0  0
 19 20  1  0  0  0
 19 24  1  0  0  0
 20 21  2  0  0  0
 20 96  1  0  0  0
 21 23  1  0  0  0
 22 28  1  0  0  0
 22 32  2  0  0  0
 26 27  1  0  0  0
 28 97  1  0  0  0
 28 98  1  0  0  0
 29 99  1  0  0  0
 29100  1  0  0  0
 33 34  1  0  0  0
 33 66  1  0  0  0
 33 70  2  0  0  0
 34 36  1  0  0  0
 34 59  1  0  0  0
 34101  1  0  0  0
 35 44  2  0  0  0
 35 45  1  0  0  0
 35 68  1  0  0  0
 36 56  1  0  0  0
 36102  1  0  0  0
 37 39  1  0  0  0
 37 47  1  0  0  0
 37 66  1  0  0  0
 37103  1  0  0  0
 38 43  2  0  0  0
 38 46  1  0  0  0
 38 47  1  0  0  0
 39 64  1  0  0  0
 39 67  2  0  0  0
 40 52  1  0  0  0
 40 53  2  0  0  0
 40 58  1  0  0  0
 41104  1  0  0  0
 41105  1  0  0  0
 41106  1  0  0  0
 41 48  1  0  0  0
 42 43  1  0  0  0
 42 66  1  0  0  0
 42107  1  0  0  0
 42108  1  0  0  0
 43 44  1  0  0  0
 44109  1  0  0  0
 45 46  2  0  0  0
 45110  1  0  0  0
 46111  1  0  0  0
 47112  1  0  0  0
 47113  1  0  0  0
 48 56  1  0  0  0
 48 65  1  0  0  0
 48114  1  0  0  0
 49 50  1  0  0  0
 49 53  1  0  0  0
 49 64  1  0  0  0
 49115  1  0  0  0
 50 51  1  0  0  0
 50116  1  0  0  0
 50117  1  0  0  0
 51 52  1  0  0  0
 51118  1  0  0  0
 51119  1  0  0  0
 52120  1  0  0  0
 52121  1  0  0  0
 53 54  1  0  0  0
 54 55  2  0  0  0
 54122  1  0  0  0
 55 57  1  0  0  0
 55123  1  0  0  0
 56 69  2  0  0  0
 57 58  2  0  0  0
 57124  1  0  0  0
 58125  1  0  0  0
 59 60  1  0  0  0
 59 61  1  0  0  0
 59 62  1  0  0  0
 60126  1  0  0  0
 60127  1  0  0  0
 60128  1  0  0  0
 61129  1  0  0  0
 61130  1  0  0  0
 61131  1  0  0  0
 62132  1  0  0  0
 62133  1  0  0  0
 62134  1  0  0  0
 63 65  1  0  0  0
 63135  1  0  0  0
 63136  1  0  0  0
 63137  1  0  0  0
 64138  1  0  0  0
 65139  1  0  0  0
 68 79  1  0  0  0
 71 72  2  0  0  0
 71 74  1  0  0  0
 71140  1  0  0  0
 72 76  1  0  0  0
 72141  1  0  0  0
 73 74  2  0  0  0
 73 75  1  0  0  0
 73142  1  0  0  0
 74 78  1  0  0  0
 75 76  2  0  0  0
 75 77  1  0  0  0
 76 80  1  0  0  0
 77143  1  0  0  0
 77144  1  0  0  0
 77145  1  0  0  0
 78 79  1  0  0  0
 78146  1  0  0  0
 78147  1  0  0  0
 79148  1  0  0  0
 79149  1  0  0  0
 80150  1  0  0  0
M  ISO  4   1 100  68 101  79 101  80 100
M  END
> <chiral flag>
0

> <version>
0

> <s_m_source_file>
/data/baiqing/PycharmProjects/Reinvent-master-3.2/result/LINK_invent/BTK/process_docking_weight1_custom_product_contain_oxygen_bond_distance_aromatic_linkinvent_7_9_3/rearranged_h_0127.sdf

> <i_m_source_file_index>
7

> <r_mmod_Potential_Energy-OPLS-2005>
1005.93634033203

> <r_mmod_Stretch_Energy-OPLS-2005>
452.986022949219

> <r_mmod_Bend_Energy-OPLS-2005>
406.785766601562

> <r_mmod_Torsional_Energy-OPLS-2005>
217.974044799805

> <r_mmod_Improper_Torsional_Energy-OPLS-2005>
5.6987566947937

> <r_mmod_Van_der_Waal_Energy-OPLS-2005>
125.833541870117

> <r_mmod_Electrostatic_Energy-OPLS-2005>
-374.945709228516

> <r_mmod_Solvation_Energy-OPLS-2005>
-207.769088745117

> <b_mmod_Minimization_Converged-OPLS-2005>
0

> <r_mmod_RMS_Derivative-OPLS-2005>
0.520359933376312

$$$$
7
                    3D
 Structure written by MMmdl.
164173  0  0  1  0            999 V2000
  -30.7600  -14.4472   20.4801 C   0  0  0  0  0  0
  -30.3876  -12.2643   19.4555 C   0  0  0  0  0  0
  -29.4913  -12.4757   18.2196 C   0  0  0  0  0  0
  -28.0102  -12.3549   18.6216 C   0  0  0  0  0  0
  -27.6499  -13.2239   19.8579 C   0  0  2  0  0  0
  -28.6882  -13.0762   20.9908 C   0  0  0  0  0  0
  -25.2541  -13.8208   20.5693 C   0  0  0  0  0  0
  -24.1812  -13.0460   20.9183 C   0  0  0  0  0  0
  -24.6386  -11.6932   20.8730 C   0  0  0  0  0  0
  -23.9063  -10.4306   21.0398 C   0  0  0  0  0  0
  -24.3619   -9.4223   21.9176 C   0  0  0  0  0  0
  -23.6299   -8.2254   22.0752 C   0  0  0  0  0  0
  -22.4280   -8.0285   21.3544 C   0  0  0  0  0  0
  -21.9913   -9.0256   20.4643 C   0  0  0  0  0  0
  -22.7237  -10.2138   20.3050 C   0  0  0  0  0  0
  -21.6858   -6.0739   22.5279 C   0  0  0  0  0  0
  -21.4019   -6.5641   23.8213 C   0  0  0  0  0  0
  -21.3661   -5.6794   24.9175 C   0  0  0  0  0  0
  -21.6041   -4.3054   24.7222 C   0  0  0  0  0  0
  -21.8818   -3.8148   23.4343 C   0  0  0  0  0  0
  -21.9195   -4.6966   22.3400 C   0  0  0  0  0  0
  -22.7833  -13.5243   21.1856 C   0  0  0  0  0  0
  -22.1667   -4.2151   21.0980 F   0  0  0  0  0  0
  -21.5631   -3.4539   25.7738 F   0  0  0  0  0  0
  -30.0252  -13.3047   20.4323 N   0  0  0  0  0  0
  -26.2969  -12.9408   20.3305 N   0  0  0  0  0  0
  -25.9315  -11.6551   20.5748 N   0  0  0  0  0  0
  -22.0482  -12.8226   22.0409 N   0  0  0  0  0  0
  -25.4264  -15.1927   20.4139 N   0  0  0  0  0  0
  -31.9555  -14.4434   20.1795 O   0  0  0  0  0  0
  -21.6645   -6.8882   21.4241 O   0  0  0  0  0  0
  -22.3515  -14.5551   20.6713 O   0  0  0  0  0  0
  -24.6145  -31.8704   23.2146 C   0  0  0  0  0  0
  -25.9046  -32.4832   23.8425 C   0  0  1  0  0  0
  -27.2109  -27.4406   20.0945 C   0  0  0  0  0  0
  -25.5911  -33.8633   24.2353 N   0  0  0  0  0  0
  -23.3995  -30.4995   21.5556 C   0  0  2  0  0  0
  -24.8400  -28.9757   20.1138 C   0  0  0  0  0  0
  -22.7402  -29.4684   22.4999 C   0  0  0  0  0  0
  -18.0271  -28.1372   22.8498 C   0  0  0  0  0  0
  -24.1485  -36.7322   23.2637 C   0  0  0  0  0  0
  -25.9297  -30.8402   21.3662 C   0  0  0  0  0  0
  -26.0038  -29.4780   20.7095 C   0  0  0  0  0  0
  -27.1971  -28.7192   20.6955 C   0  0  0  0  0  0
  -26.0313  -26.9638   19.4837 C   0  0  0  0  0  0
  -24.8476  -27.7163   19.4973 C   0  0  0  0  0  0
  -23.6046  -29.8425   20.1665 C   0  0  0  0  0  0
  -25.4105  -36.3120   24.0340 C   0  0  1  0  0  0
  -20.5861  -28.3663   23.1317 C   0  0  2  0  0  0
  -20.6765  -26.9403   22.5413 C   0  0  0  0  0  0
  -19.5741  -26.6388   21.5212 C   0  0  0  0  0  0
  -18.1919  -26.7921   22.1625 C   0  0  0  0  0  0
  -19.1520  -28.8835   23.2903 C   0  0  0  0  0  0
  -18.9448  -30.1444   23.8911 C   0  0  0  0  0  0
  -17.6451  -30.6583   24.0571 C   0  0  0  0  0  0
  -25.9036  -34.9482   23.5138 C   0  0  0  0  0  0
  -16.5343  -29.9088   23.6327 C   0  0  0  0  0  0
  -16.7261  -28.6500   23.0354 C   0  0  0  0  0  0
  -26.4480  -31.6598   25.0739 C   0  0  0  0  0  0
  -25.3759  -31.3690   26.1493 C   0  0  0  0  0  0
  -27.0302  -30.3043   24.6095 C   0  0  0  0  0  0
  -27.6061  -32.4305   25.7501 C   0  0  0  0  0  0
  -27.5584  -37.1811   24.8460 C   0  0  0  0  0  0
  -21.4134  -29.3037   22.3729 N   0  0  0  0  0  0
  -26.4291  -37.3804   23.9414 N   0  0  0  0  0  0
  -24.6664  -31.0829   22.1039 N   0  0  0  0  0  0
  -23.4182  -28.8212   23.3023 O   0  0  0  0  0  0
  -28.3512  -26.6684   20.1037 O   0  0  0  0  0  0
  -26.5588  -34.8926   22.4695 O   0  0  0  0  0  0
  -23.5342  -32.1453   23.7552 O   0  0  0  0  0  0
  -29.5748  -18.9526   20.6233 C   0  0  0  0  0  0
  -30.7972  -18.7697   18.5434 C   0  0  0  0  0  0
  -29.5374  -20.3618   20.4575 C   0  0  0  0  0  0
  -30.7605  -20.1606   18.3814 C   0  0  0  0  0  0
  -30.2450  -18.1474   19.6778 C   0  0  0  0  0  0
  -30.1585  -21.0010   19.3490 C   0  0  0  0  0  0
  -28.6566  -24.2267   19.7480 C   0  0  0  0  0  0
  -29.6352  -23.3455   20.0957 C   0  0  0  0  0  0
  -29.5226  -22.9759   16.8825 C   0  0  0  0  0  0
  -30.5058  -16.7024   19.7936 C   0  0  0  0  0  0
  -30.0667  -15.7290   20.6311 C   0  0  0  0  0  0
  -27.8635  -24.1896   18.4282 C   0  0  0  0  0  0
  -28.0969  -23.0434   17.4192 C   0  0  0  0  0  0
  -30.6343  -22.9728   17.9258 C   0  0  0  0  0  0
  -30.3607  -23.3902   21.4326 C   0  0  0  0  0  0
  -28.1884  -25.3562   20.6779 C   0  0  0  0  0  0
  -30.1749  -22.4186   19.2070 N   0  0  0  0  0  0
  -29.7580  -22.9126   15.6738 O   0  0  0  0  0  0
  -31.4401  -12.2861   19.1676 H   0  0  0  0  0  0
  -30.2214  -11.2749   19.8849 H   0  0  0  0  0  0
  -29.7300  -11.7418   17.4490 H   0  0  0  0  0  0
  -29.6809  -13.4572   17.7815 H   0  0  0  0  0  0
  -27.8181  -11.3037   18.8386 H   0  0  0  0  0  0
  -27.3667  -12.6115   17.7793 H   0  0  0  0  0  0
  -27.6761  -14.2616   19.5251 H   0  0  0  0  0  0
  -28.6410  -12.0760   21.4241 H   0  0  0  0  0  0
  -28.4728  -13.7673   21.8065 H   0  0  0  0  0  0
  -25.2761   -9.5703   22.4755 H   0  0  0  0  0  0
  -24.0009   -7.4652   22.7482 H   0  0  0  0  0  0
  -21.0842   -8.8773   19.8954 H   0  0  0  0  0  0
  -22.3691  -10.9677   19.6163 H   0  0  0  0  0  0
  -21.2008   -7.6150   23.9717 H   0  0  0  0  0  0
  -21.1490   -6.0525   25.9082 H   0  0  0  0  0  0
  -22.0589   -2.7608   23.2847 H   0  0  0  0  0  0
  -22.4105  -11.9882   22.4777 H   0  0  0  0  0  0
  -21.1106  -13.1253   22.2637 H   0  0  0  0  0  0
  -24.6648  -15.8522   20.5298 H   0  0  0  0  0  0
  -26.2892  -15.6313   20.1168 H   0  0  0  0  0  0
  -26.7120  -32.5548   23.1192 H   0  0  0  0  0  0
  -25.0073  -33.9797   25.0507 H   0  0  0  0  0  0
  -22.6874  -31.3169   21.4232 H   0  0  0  0  0  0
  -23.3742  -35.9661   23.3303 H   0  0  0  0  0  0
  -24.3587  -36.8933   22.2052 H   0  0  0  0  0  0
  -23.7238  -37.6530   23.6644 H   0  0  0  0  0  0
  -26.0418  -31.6090   20.6003 H   0  0  0  0  0  0
  -26.8181  -30.8883   21.9845 H   0  0  0  0  0  0
  -28.0951  -29.0998   21.1622 H   0  0  0  0  0  0
  -26.0030  -26.0092   18.9919 H   0  0  0  0  0  0
  -23.9548  -27.3247   19.0298 H   0  0  0  0  0  0
  -23.7161  -30.6228   19.4124 H   0  0  0  0  0  0
  -22.7263  -29.2679   19.8664 H   0  0  0  0  0  0
  -25.1280  -36.1995   25.0832 H   0  0  0  0  0  0
  -20.9951  -28.3223   24.1439 H   0  0  0  0  0  0
  -20.5672  -26.2272   23.3598 H   0  0  0  0  0  0
  -21.6636  -26.7452   22.1202 H   0  0  0  0  0  0
  -19.6906  -25.6305   21.1227 H   0  0  0  0  0  0
  -19.6676  -27.3212   20.6750 H   0  0  0  0  0  0
  -17.4191  -26.6674   21.4023 H   0  0  0  0  0  0
  -18.0321  -26.0053   22.9010 H   0  0  0  0  0  0
  -19.7926  -30.7258   24.2282 H   0  0  0  0  0  0
  -17.5008  -31.6261   24.5172 H   0  0  0  0  0  0
  -15.5345  -30.2995   23.7643 H   0  0  0  0  0  0
  -15.8659  -28.0826   22.7065 H   0  0  0  0  0  0
  -24.5932  -30.7032   25.7835 H   0  0  0  0  0  0
  -24.8953  -32.2840   26.4964 H   0  0  0  0  0  0
  -25.8134  -30.8849   27.0235 H   0  0  0  0  0  0
  -26.2834  -29.6807   24.1162 H   0  0  0  0  0  0
  -27.4091  -29.7272   25.4540 H   0  0  0  0  0  0
  -27.8665  -30.4363   23.9225 H   0  0  0  0  0  0
  -27.2684  -33.3590   26.2118 H   0  0  0  0  0  0
  -28.3858  -32.6886   25.0322 H   0  0  0  0  0  0
  -28.0738  -31.8400   26.5389 H   0  0  0  0  0  0
  -28.2592  -38.0117   24.7531 H   0  0  0  0  0  0
  -28.1090  -36.2651   24.6259 H   0  0  0  0  0  0
  -27.2306  -37.1435   25.8862 H   0  0  0  0  0  0
  -20.9285  -29.8782   21.6979 H   0  0  0  0  0  0
  -26.0182  -38.2881   24.1429 H   0  0  0  0  0  0
  -29.1327  -18.5049   21.5014 H   0  0  0  0  0  0
  -31.3035  -18.1854   17.7875 H   0  0  0  0  0  0
  -29.0414  -20.9513   21.2142 H   0  0  0  0  0  0
  -31.2386  -20.5361   17.4924 H   0  0  0  0  0  0
  -31.2420  -16.3971   19.0598 H   0  0  0  0  0  0
  -29.3043  -15.8958   21.3766 H   0  0  0  0  0  0
  -27.9911  -25.1462   17.9201 H   0  0  0  0  0  0
  -26.8141  -24.1121   18.7056 H   0  0  0  0  0  0
  -27.8583  -22.0859   17.8826 H   0  0  0  0  0  0
  -27.4144  -23.1539   16.5768 H   0  0  0  0  0  0
  -30.9251  -24.0126   18.0785 H   0  0  0  0  0  0
  -31.5349  -22.4962   17.5454 H   0  0  0  0  0  0
  -29.6627  -23.2155   22.2523 H   0  0  0  0  0  0
  -30.8319  -24.3628   21.5810 H   0  0  0  0  0  0
  -31.1476  -22.6376   21.5005 H   0  0  0  0  0  0
  -28.7401  -25.3599   21.6157 H   0  0  0  0  0  0
  -27.1588  -25.1434   20.9707 H   0  0  0  0  0  0
  1 25  1  0  0  0
  1 30  2  0  0  0
  1 81  1  0  0  0
  2  3  1  0  0  0
  2 25  1  0  0  0
  2 89  1  0  0  0
  2 90  1  0  0  0
  3  4  1  0  0  0
  3 91  1  0  0  0
  3 92  1  0  0  0
  4  5  1  0  0  0
  4 93  1  0  0  0
  4 94  1  0  0  0
  5  6  1  0  0  0
  5 26  1  0  0  0
  5 95  1  0  0  0
  6 25  1  0  0  0
  6 96  1  0  0  0
  6 97  1  0  0  0
  7  8  2  0  0  0
  7 26  1  0  0  0
  7 29  1  0  0  0
  8  9  1  0  0  0
  8 22  1  0  0  0
  9 10  1  0  0  0
  9 27  2  0  0  0
 10 11  2  0  0  0
 10 15  1  0  0  0
 11 12  1  0  0  0
 11 98  1  0  0  0
 12 13  2  0  0  0
 12 99  1  0  0  0
 13 14  1  0  0  0
 13 31  1  0  0  0
 14 15  2  0  0  0
 14100  1  0  0  0
 15101  1  0  0  0
 16 17  2  0  0  0
 16 21  1  0  0  0
 16 31  1  0  0  0
 17 18  1  0  0  0
 17102  1  0  0  0
 18 19  2  0  0  0
 18103  1  0  0  0
 19 20  1  0  0  0
 19 24  1  0  0  0
 20 21  2  0  0  0
 20104  1  0  0  0
 21 23  1  0  0  0
 22 28  1  0  0  0
 22 32  2  0  0  0
 26 27  1  0  0  0
 28105  1  0  0  0
 28106  1  0  0  0
 29107  1  0  0  0
 29108  1  0  0  0
 33 34  1  0  0  0
 33 66  1  0  0  0
 33 70  2  0  0  0
 34 36  1  0  0  0
 34 59  1  0  0  0
 34109  1  0  0  0
 35 44  2  0  0  0
 35 45  1  0  0  0
 35 68  1  0  0  0
 36 56  1  0  0  0
 36110  1  0  0  0
 37 39  1  0  0  0
 37 47  1  0  0  0
 37 66  1  0  0  0
 37111  1  0  0  0
 38 43  2  0  0  0
 38 46  1  0  0  0
 38 47  1  0  0  0
 39 64  1  0  0  0
 39 67  2  0  0  0
 40 52  1  0  0  0
 40 53  2  0  0  0
 40 58  1  0  0  0
 41112  1  0  0  0
 41113  1  0  0  0
 41114  1  0  0  0
 41 48  1  0  0  0
 42 43  1  0  0  0
 42 66  1  0  0  0
 42115  1  0  0  0
 42116  1  0  0  0
 43 44  1  0  0  0
 44117  1  0  0  0
 45 46  2  0  0  0
 45118  1  0  0  0
 46119  1  0  0  0
 47120  1  0  0  0
 47121  1  0  0  0
 48 56  1  0  0  0
 48 65  1  0  0  0
 48122  1  0  0  0
 49 50  1  0  0  0
 49 53  1  0  0  0
 49 64  1  0  0  0
 49123  1  0  0  0
 50 51  1  0  0  0
 50124  1  0  0  0
 50125  1  0  0  0
 51 52  1  0  0  0
 51126  1  0  0  0
 51127  1  0  0  0
 52128  1  0  0  0
 52129  1  0  0  0
 53 54  1  0  0  0
 54 55  2  0  0  0
 54130  1  0  0  0
 55 57  1  0  0  0
 55131  1  0  0  0
 56 69  2  0  0  0
 57 58  2  0  0  0
 57132  1  0  0  0
 58133  1  0  0  0
 59 60  1  0  0  0
 59 61  1  0  0  0
 59 62  1  0  0  0
 60134  1  0  0  0
 60135  1  0  0  0
 60136  1  0  0  0
 61137  1  0  0  0
 61138  1  0  0  0
 61139  1  0  0  0
 62140  1  0  0  0
 62141  1  0  0  0
 62142  1  0  0  0
 63 65  1  0  0  0
 63143  1  0  0  0
 63144  1  0  0  0
 63145  1  0  0  0
 64146  1  0  0  0
 65147  1  0  0  0
 68 86  1  0  0  0
 71 73  2  0  0  0
 71 75  1  0  0  0
 71148  1  0  0  0
 72 74  1  0  0  0
 72 75  2  0  0  0
 72149  1  0  0  0
 73 76  1  0  0  0
 73150  1  0  0  0
 74 76  2  0  0  0
 74151  1  0  0  0
 75 80  1  0  0  0
 76 87  1  0  0  0
 77 78  2  0  0  0
 77 82  1  0  0  0
 77 86  1  0  0  0
 78 85  1  0  0  0
 78 87  1  0  0  0
 79 83  1  0  0  0
 79 84  1  0  0  0
 79 88  2  0  0  0
 80 81  2  0  0  0
 80152  1  0  0  0
 81153  1  0  0  0
 82 83  1  0  0  0
 82154  1  0  0  0
 82155  1  0  0  0
 83156  1  0  0  0
 83157  1  0  0  0
 84 87  1  0  0  0
 84158  1  0  0  0
 84159  1  0  0  0
 85160  1  0  0  0
 85161  1  0  0  0
 85162  1  0  0  0
 86163  1  0  0  0
 86164  1  0  0  0
M  ISO  4   1 100  68 101  81 100  86 101
M  END
> <chiral flag>
0

> <version>
0

> <s_m_source_file>
/data/baiqing/PycharmProjects/Reinvent-master-3.2/result/LINK_invent/BTK/process_docking_weight1_custom_product_contain_oxygen_bond_distance_aromatic_linkinvent_7_9_3/rearranged_h_0127.sdf

> <i_m_source_file_index>
8

> <r_mmod_Potential_Energy-OPLS-2005>
85.1133422851562

> <r_mmod_Stretch_Energy-OPLS-2005>
40.891487121582

> <r_mmod_Bend_Energy-OPLS-2005>
136.220352172852

> <r_mmod_Torsional_Energy-OPLS-2005>
236.166137695312

> <r_mmod_Improper_Torsional_Energy-OPLS-2005>
6.72096300125122

> <r_mmod_Van_der_Waal_Energy-OPLS-2005>
187.842544555664

> <r_mmod_Electrostatic_Energy-OPLS-2005>
-347.834594726562

> <r_mmod_Solvation_Energy-OPLS-2005>
-201.561904907227

> <b_mmod_Minimization_Converged-OPLS-2005>
0

> <r_mmod_RMS_Derivative-OPLS-2005>
0.850226223468781

$$$$
8
                    3D
 Structure written by MMmdl.
157165  0  0  1  0            999 V2000
  -30.6518  -14.7637   20.4068 C   0  0  0  0  0  0
  -30.4103  -12.4569   19.4949 C   0  0  0  0  0  0
  -29.5086  -12.5079   18.2441 C   0  0  0  0  0  0
  -28.0307  -12.3461   18.6419 C   0  0  0  0  0  0
  -27.6291  -13.2538   19.8362 C   0  0  2  0  0  0
  -28.6684  -13.2306   20.9734 C   0  0  0  0  0  0
  -25.2448  -13.8254   20.5725 C   0  0  0  0  0  0
  -24.1765  -13.0449   20.9239 C   0  0  0  0  0  0
  -24.6391  -11.6946   20.8742 C   0  0  0  0  0  0
  -23.9086  -10.4289   21.0392 C   0  0  0  0  0  0
  -24.3635   -9.4209   21.9173 C   0  0  0  0  0  0
  -23.6321   -8.2245   22.0756 C   0  0  0  0  0  0
  -22.4299   -8.0283   21.3544 C   0  0  0  0  0  0
  -21.9933   -9.0238   20.4631 C   0  0  0  0  0  0
  -22.7261  -10.2127   20.3040 C   0  0  0  0  0  0
  -21.6851   -6.0735   22.5276 C   0  0  0  0  0  0
  -21.4010   -6.5641   23.8209 C   0  0  0  0  0  0
  -21.3665   -5.6809   24.9178 C   0  0  0  0  0  0
  -21.6052   -4.3072   24.7230 C   0  0  0  0  0  0
  -21.8819   -3.8151   23.4361 C   0  0  0  0  0  0
  -21.9199   -4.6962   22.3410 C   0  0  0  0  0  0
  -22.7772  -13.5188   21.1909 C   0  0  0  0  0  0
  -22.1659   -4.2138   21.0988 F   0  0  0  0  0  0
  -21.5638   -3.4565   25.7753 F   0  0  0  0  0  0
  -29.9774  -13.5568   20.3945 N   0  0  0  0  0  0
  -26.2870  -12.9497   20.3223 N   0  0  0  0  0  0
  -25.9325  -11.6610   20.5700 N   0  0  0  0  0  0
  -22.0434  -12.8136   22.0453 N   0  0  0  0  0  0
  -25.4162  -15.1988   20.4177 N   0  0  0  0  0  0
  -31.8552  -14.7315   20.1292 O   0  0  0  0  0  0
  -21.6670   -6.8884   21.4236 O   0  0  0  0  0  0
  -22.3401  -14.5463   20.6759 O   0  0  0  0  0  0
  -24.6332  -31.8537   23.1996 C   0  0  0  0  0  0
  -25.9147  -32.4739   23.8351 C   0  0  1  0  0  0
  -27.2136  -27.2548   20.1254 C   0  0  0  0  0  0
  -25.5945  -33.8540   24.2260 N   0  0  0  0  0  0
  -23.4276  -30.4759   21.5450 C   0  0  2  0  0  0
  -24.8720  -28.9161   20.1166 C   0  0  0  0  0  0
  -22.7495  -29.4598   22.4944 C   0  0  0  0  0  0
  -18.0281  -28.1360   22.8495 C   0  0  0  0  0  0
  -24.1484  -36.7269   23.2651 C   0  0  0  0  0  0
  -25.9748  -30.7622   21.3816 C   0  0  0  0  0  0
  -26.0477  -29.3852   20.7192 C   0  0  0  0  0  0
  -27.2252  -28.5689   20.7059 C   0  0  0  0  0  0
  -26.0172  -26.8462   19.5039 C   0  0  0  0  0  0
  -24.8612  -27.6538   19.5013 C   0  0  0  0  0  0
  -23.6434  -29.8057   20.1637 C   0  0  0  0  0  0
  -25.4117  -36.3061   24.0326 C   0  0  1  0  0  0
  -20.5885  -28.3678   23.1257 C   0  0  2  0  0  0
  -20.6773  -26.9401   22.5398 C   0  0  0  0  0  0
  -19.5749  -26.6362   21.5200 C   0  0  0  0  0  0
  -18.1924  -26.7909   22.1604 C   0  0  0  0  0  0
  -19.1541  -28.8839   23.2858 C   0  0  0  0  0  0
  -18.9470  -30.1436   23.8884 C   0  0  0  0  0  0
  -17.6477  -30.6587   24.0543 C   0  0  0  0  0  0
  -25.9068  -34.9425   23.5106 C   0  0  0  0  0  0
  -16.5358  -29.9079   23.6347 C   0  0  0  0  0  0
  -16.7269  -28.6474   23.0409 C   0  0  0  0  0  0
  -26.4524  -31.6579   25.0756 C   0  0  0  0  0  0
  -25.3746  -31.3697   26.1470 C   0  0  0  0  0  0
  -27.0403  -30.3008   24.6258 C   0  0  0  0  0  0
  -27.6077  -32.4339   25.7524 C   0  0  0  0  0  0
  -27.5578  -37.1790   24.8472 C   0  0  0  0  0  0
  -21.4207  -29.3019   22.3654 N   0  0  0  0  0  0
  -26.4298  -37.3767   23.9408 N   0  0  0  0  0  0
  -24.6978  -31.0487   22.0977 N   0  0  0  0  0  0
  -23.4188  -28.8160   23.3066 O   0  0  0  0  0  0
  -28.3100  -26.3642   20.1199 O   0  0  0  0  0  0
  -26.5637  -34.8906   22.4672 O   0  0  0  0  0  0
  -23.5478  -32.1359   23.7284 O   0  0  0  0  0  0
  -31.7700  -19.4007   19.9134 C   0  0  0  0  0  0
  -32.0392  -20.7739   19.9305 C   0  0  0  0  0  0
  -29.4499  -19.8570   20.3831 C   0  0  0  0  0  0
  -30.4923  -18.8494   20.1758 C   0  0  0  0  0  0
  -31.0402  -21.7305   20.1793 C   0  0  0  0  0  0
  -29.6826  -21.3151   20.3374 C   0  0  0  0  0  0
  -31.5546  -25.0156   18.6098 C   0  0  0  0  0  0
  -30.5970  -17.2831   20.2044 C   0  0  0  0  0  0
  -29.9418  -16.1069   20.5680 C   0  0  0  0  0  0
  -31.9835  -23.8238   19.0558 C   0  0  0  0  0  0
  -31.5446  -23.1647   20.3542 C   0  0  0  0  0  0
  -28.1298  -24.9560   20.6318 C   0  0  0  0  0  0
  -28.5069  -23.5905   19.8255 C   0  0  0  0  0  0
  -28.6479  -22.2801   20.5560 O   0  0  0  0  0  0
  -31.4566  -12.5302   19.1962 H   0  0  0  0  0  0
  -30.3207  -11.4952   20.0029 H   0  0  0  0  0  0
  -29.7944  -11.7276   17.5382 H   0  0  0  0  0  0
  -29.6515  -13.4558   17.7235 H   0  0  0  0  0  0
  -27.8733  -11.2971   18.8972 H   0  0  0  0  0  0
  -27.3896  -12.5510   17.7846 H   0  0  0  0  0  0
  -27.6085  -14.2715   19.4442 H   0  0  0  0  0  0
  -28.6922  -12.2499   21.4507 H   0  0  0  0  0  0
  -28.4010  -13.9464   21.7516 H   0  0  0  0  0  0
  -25.2776   -9.5682   22.4736 H   0  0  0  0  0  0
  -24.0029   -7.4630   22.7472 H   0  0  0  0  0  0
  -21.0882   -8.8746   19.8906 H   0  0  0  0  0  0
  -22.3731  -10.9656   19.6138 H   0  0  0  0  0  0
  -21.1983   -7.6152   23.9690 H   0  0  0  0  0  0
  -21.1489   -6.0557   25.9079 H   0  0  0  0  0  0
  -22.0592   -2.7609   23.2885 H   0  0  0  0  0  0
  -22.4135  -11.9860   22.4872 H   0  0  0  0  0  0
  -21.0993  -13.1041   22.2588 H   0  0  0  0  0  0
  -24.6633  -15.8685   20.5430 H   0  0  0  0  0  0
  -26.2776  -15.6268   20.0998 H   0  0  0  0  0  0
  -26.7207  -32.5369   23.1082 H   0  0  0  0  0  0
  -25.0113  -33.9681   25.0417 H   0  0  0  0  0  0
  -22.7241  -31.2988   21.4003 H   0  0  0  0  0  0
  -23.3773  -35.9583   23.3311 H   0  0  0  0  0  0
  -24.3562  -36.8917   22.2072 H   0  0  0  0  0  0
  -23.7220  -37.6452   23.6689 H   0  0  0  0  0  0
  -26.1195  -31.5257   20.6169 H   0  0  0  0  0  0
  -26.8471  -30.8020   22.0217 H   0  0  0  0  0  0
  -28.1311  -28.9258   21.1736 H   0  0  0  0  0  0
  -25.9694  -25.8795   19.0207 H   0  0  0  0  0  0
  -23.9569  -27.2897   19.0317 H   0  0  0  0  0  0
  -23.7645  -30.5782   19.4039 H   0  0  0  0  0  0
  -22.7590  -29.2401   19.8669 H   0  0  0  0  0  0
  -25.1306  -36.1929   25.0825 H   0  0  0  0  0  0
  -20.9949  -28.3265   24.1385 H   0  0  0  0  0  0
  -20.5660  -26.2304   23.3604 H   0  0  0  0  0  0
  -21.6643  -26.7421   22.1208 H   0  0  0  0  0  0
  -19.6919  -25.6264   21.1252 H   0  0  0  0  0  0
  -19.6697  -27.3145   20.6704 H   0  0  0  0  0  0
  -17.4200  -26.6671   21.3993 H   0  0  0  0  0  0
  -18.0313  -26.0015   22.8964 H   0  0  0  0  0  0
  -19.7957  -30.7233   24.2266 H   0  0  0  0  0  0
  -17.5051  -31.6285   24.5112 H   0  0  0  0  0  0
  -15.5368  -30.2995   23.7674 H   0  0  0  0  0  0
  -15.8655  -28.0762   22.7211 H   0  0  0  0  0  0
  -24.5935  -30.7037   25.7779 H   0  0  0  0  0  0
  -24.8910  -32.2840   26.4920 H   0  0  0  0  0  0
  -25.8067  -30.8858   27.0240 H   0  0  0  0  0  0
  -26.2996  -29.6718   24.1303 H   0  0  0  0  0  0
  -27.4119  -29.7318   25.4792 H   0  0  0  0  0  0
  -27.8858  -30.4310   23.9495 H   0  0  0  0  0  0
  -27.2701  -33.3668   26.2052 H   0  0  0  0  0  0
  -28.3908  -32.6856   25.0355 H   0  0  0  0  0  0
  -28.0720  -31.8494   26.5479 H   0  0  0  0  0  0
  -28.2599  -38.0090   24.7548 H   0  0  0  0  0  0
  -28.1082  -36.2624   24.6288 H   0  0  0  0  0  0
  -27.2281  -37.1427   25.8872 H   0  0  0  0  0  0
  -20.9408  -29.8729   21.6835 H   0  0  0  0  0  0
  -26.0183  -38.2847   24.1422 H   0  0  0  0  0  0
  -32.6267  -18.7640   19.7333 H   0  0  0  0  0  0
  -33.0626  -21.0943   19.7872 H   0  0  0  0  0  0
  -28.4433  -19.5124   20.5777 H   0  0  0  0  0  0
  -31.9123  -25.4191   17.6724 H   0  0  0  0  0  0
  -30.8353  -25.6016   19.1649 H   0  0  0  0  0  0
  -31.5512  -17.0238   19.7723 H   0  0  0  0  0  0
  -28.9446  -16.1463   20.9788 H   0  0  0  0  0  0
  -32.7036  -23.2771   18.4629 H   0  0  0  0  0  0
  -32.4352  -23.1259   20.9849 H   0  0  0  0  0  0
  -30.8535  -23.7826   20.9258 H   0  0  0  0  0  0
  -28.7400  -24.9417   21.5336 H   0  0  0  0  0  0
  -27.1113  -24.8385   21.0043 H   0  0  0  0  0  0
  -29.3515  -23.7547   19.1720 H   0  0  0  0  0  0
  -27.7007  -23.4269   19.1103 H   0  0  0  0  0  0
  1 25  1  0  0  0
  1 30  2  0  0  0
  1 79  1  0  0  0
  2  3  1  0  0  0
  2 25  1  0  0  0
  2 85  1  0  0  0
  2 86  1  0  0  0
  3  4  1  0  0  0
  3 87  1  0  0  0
  3 88  1  0  0  0
  4  5  1  0  0  0
  4 89  1  0  0  0
  4 90  1  0  0  0
  5  6  1  0  0  0
  5 26  1  0  0  0
  5 91  1  0  0  0
  6 25  1  0  0  0
  6 92  1  0  0  0
  6 93  1  0  0  0
  7  8  2  0  0  0
  7 26  1  0  0  0
  7 29  1  0  0  0
  8  9  1  0  0  0
  8 22  1  0  0  0
  9 10  1  0  0  0
  9 27  2  0  0  0
 10 11  2  0  0  0
 10 15  1  0  0  0
 11 12  1  0  0  0
 11 94  1  0  0  0
 12 13  2  0  0  0
 12 95  1  0  0  0
 13 14  1  0  0  0
 13 31  1  0  0  0
 14 15  2  0  0  0
 14 96  1  0  0  0
 15 97  1  0  0  0
 16 17  2  0  0  0
 16 21  1  0  0  0
 16 31  1  0  0  0
 17 18  1  0  0  0
 17 98  1  0  0  0
 18 19  2  0  0  0
 18 99  1  0  0  0
 19 20  1  0  0  0
 19 24  1  0  0  0
 20 21  2  0  0  0
 20100  1  0  0  0
 21 23  1  0  0  0
 22 28  1  0  0  0
 22 32  2  0  0  0
 26 27  1  0  0  0
 28101  1  0  0  0
 28102  1  0  0  0
 29103  1  0  0  0
 29104  1  0  0  0
 33 34  1  0  0  0
 33 66  1  0  0  0
 33 70  2  0  0  0
 34 36  1  0  0  0
 34 59  1  0  0  0
 34105  1  0  0  0
 35 44  2  0  0  0
 35 45  1  0  0  0
 35 68  1  0  0  0
 36 56  1  0  0  0
 36106  1  0  0  0
 37 39  1  0  0  0
 37 47  1  0  0  0
 37 66  1  0  0  0
 37107  1  0  0  0
 38 43  2  0  0  0
 38 46  1  0  0  0
 38 47  1  0  0  0
 39 64  1  0  0  0
 39 67  2  0  0  0
 40 52  1  0  0  0
 40 53  2  0  0  0
 40 58  1  0  0  0
 41108  1  0  0  0
 41109  1  0  0  0
 41110  1  0  0  0
 41 48  1  0  0  0
 42 43  1  0  0  0
 42 66  1  0  0  0
 42111  1  0  0  0
 42112  1  0  0  0
 43 44  1  0  0  0
 44113  1  0  0  0
 45 46  2  0  0  0
 45114  1  0  0  0
 46115  1  0  0  0
 47116  1  0  0  0
 47117  1  0  0  0
 48 56  1  0  0  0
 48 65  1  0  0  0
 48118  1  0  0  0
 49 50  1  0  0  0
 49 53  1  0  0  0
 49 64  1  0  0  0
 49119  1  0  0  0
 50 51  1  0  0  0
 50120  1  0  0  0
 50121  1  0  0  0
 51 52  1  0  0  0
 51122  1  0  0  0
 51123  1  0  0  0
 52124  1  0  0  0
 52125  1  0  0  0
 53 54  1  0  0  0
 54 55  2  0  0  0
 54126  1  0  0  0
 55 57  1  0  0  0
 55127  1  0  0  0
 56 69  2  0  0  0
 57 58  2  0  0  0
 57128  1  0  0  0
 58129  1  0  0  0
 59 60  1  0  0  0
 59 61  1  0  0  0
 59 62  1  0  0  0
 60130  1  0  0  0
 60131  1  0  0  0
 60132  1  0  0  0
 61133  1  0  0  0
 61134  1  0  0  0
 61135  1  0  0  0
 62136  1  0  0  0
 62137  1  0  0  0
 62138  1  0  0  0
 63 65  1  0  0  0
 63139  1  0  0  0
 63140  1  0  0  0
 63141  1  0  0  0
 64142  1  0  0  0
 65143  1  0  0  0
 68 82  1  0  0  0
 71 72  2  0  0  0
 71 74  1  0  0  0
 71144  1  0  0  0
 72 75  1  0  0  0
 72145  1  0  0  0
 73 74  2  0  0  0
 73 76  1  0  0  0
 73146  1  0  0  0
 74 78  1  0  0  0
 75 76  2  0  0  0
 75 81  1  0  0  0
 76 84  1  0  0  0
 77 80  2  0  0  0
 77147  1  0  0  0
 77148  1  0  0  0
 78 79  2  0  0  0
 78149  1  0  0  0
 79150  1  0  0  0
 80 81  1  0  0  0
 80151  1  0  0  0
 81152  1  0  0  0
 81153  1  0  0  0
 82 83  1  0  0  0
 82154  1  0  0  0
 82155  1  0  0  0
 83 84  1  0  0  0
 83156  1  0  0  0
 83157  1  0  0  0
M  ISO  4   1 100  68 101  79 100  82 101
M  END
> <chiral flag>
0

> <version>
0

> <s_m_source_file>
/data/baiqing/PycharmProjects/Reinvent-master-3.2/result/LINK_invent/BTK/process_docking_weight1_custom_product_contain_oxygen_bond_distance_aromatic_linkinvent_7_9_3/rearranged_h_0127.sdf

> <i_m_source_file_index>
9

> <r_mmod_Potential_Energy-OPLS-2005>
353.877075195312

> <r_mmod_Stretch_Energy-OPLS-2005>
147.652679443359

> <r_mmod_Bend_Energy-OPLS-2005>
256.091949462891

> <r_mmod_Torsional_Energy-OPLS-2005>
228.656204223633

> <r_mmod_Improper_Torsional_Energy-OPLS-2005>
4.07382011413574

> <r_mmod_Van_der_Waal_Energy-OPLS-2005>
153.372543334961

> <r_mmod_Electrostatic_Energy-OPLS-2005>
-333.093414306641

> <r_mmod_Solvation_Energy-OPLS-2005>
-195.722549438477

> <b_mmod_Minimization_Converged-OPLS-2005>
0

> <r_mmod_RMS_Derivative-OPLS-2005>
3.00972771644592

$$$$
9
                    3D
 Structure written by MMmdl.
158166  0  0  1  0            999 V2000
  -30.7697  -14.3971   20.5548 C   0  0  0  0  0  0
  -30.3999  -12.2471   19.4366 C   0  0  0  0  0  0
  -29.4949  -12.4804   18.2099 C   0  0  0  0  0  0
  -28.0100  -12.3614   18.6108 C   0  0  0  0  0  0
  -27.6548  -13.2054   19.8632 C   0  0  2  0  0  0
  -28.6961  -13.0221   20.9925 C   0  0  0  0  0  0
  -25.2577  -13.8142   20.5697 C   0  0  0  0  0  0
  -24.1817  -13.0433   20.9186 C   0  0  0  0  0  0
  -24.6354  -11.6897   20.8731 C   0  0  0  0  0  0
  -23.9015  -10.4277   21.0388 C   0  0  0  0  0  0
  -24.3575   -9.4206   21.9172 C   0  0  0  0  0  0
  -23.6287   -8.2209   22.0728 C   0  0  0  0  0  0
  -22.4274   -8.0243   21.3526 C   0  0  0  0  0  0
  -21.9888   -9.0215   20.4636 C   0  0  0  0  0  0
  -22.7178  -10.2107   20.3044 C   0  0  0  0  0  0
  -21.6831   -6.0711   22.5286 C   0  0  0  0  0  0
  -21.4005   -6.5620   23.8225 C   0  0  0  0  0  0
  -21.3681   -5.6779   24.9192 C   0  0  0  0  0  0
  -21.6042   -4.3039   24.7225 C   0  0  0  0  0  0
  -21.8825   -3.8123   23.4356 C   0  0  0  0  0  0
  -21.9193   -4.6941   22.3418 C   0  0  0  0  0  0
  -22.7857  -13.5241   21.1866 C   0  0  0  0  0  0
  -22.1668   -4.2133   21.0998 F   0  0  0  0  0  0
  -21.5647   -3.4529   25.7746 F   0  0  0  0  0  0
  -30.0369  -13.2575   20.4398 N   0  0  0  0  0  0
  -26.2992  -12.9306   20.3320 N   0  0  0  0  0  0
  -25.9276  -11.6465   20.5706 N   0  0  0  0  0  0
  -22.0494  -12.8247   22.0437 N   0  0  0  0  0  0
  -25.4324  -15.1858   20.4141 N   0  0  0  0  0  0
  -31.9425  -14.4631   20.1874 O   0  0  0  0  0  0
  -21.6619   -6.8852   21.4245 O   0  0  0  0  0  0
  -22.3570  -14.5569   20.6728 O   0  0  0  0  0  0
  -24.6109  -31.8727   23.2136 C   0  0  0  0  0  0
  -25.9021  -32.4843   23.8421 C   0  0  1  0  0  0
  -27.2351  -27.4770   20.0966 C   0  0  0  0  0  0
  -25.5896  -33.8646   24.2344 N   0  0  0  0  0  0
  -23.3976  -30.4968   21.5533 C   0  0  2  0  0  0
  -24.8436  -28.9610   20.1224 C   0  0  0  0  0  0
  -22.7377  -29.4710   22.5015 C   0  0  0  0  0  0
  -18.0260  -28.1390   22.8503 C   0  0  0  0  0  0
  -24.1480  -36.7316   23.2644 C   0  0  0  0  0  0
  -25.9244  -30.8464   21.3667 C   0  0  0  0  0  0
  -26.0015  -29.4859   20.7111 C   0  0  0  0  0  0
  -27.2025  -28.7519   20.6926 C   0  0  0  0  0  0
  -26.0681  -26.9538   19.5015 C   0  0  0  0  0  0
  -24.8682  -27.6915   19.5170 C   0  0  0  0  0  0
  -23.6054  -29.8250   20.1691 C   0  0  0  0  0  0
  -25.4103  -36.3118   24.0341 C   0  0  1  0  0  0
  -20.5852  -28.3674   23.1340 C   0  0  2  0  0  0
  -20.6747  -26.9402   22.5460 C   0  0  0  0  0  0
  -19.5731  -26.6382   21.5248 C   0  0  0  0  0  0
  -18.1897  -26.7945   22.1622 C   0  0  0  0  0  0
  -19.1508  -28.8849   23.2924 C   0  0  0  0  0  0
  -18.9435  -30.1458   23.8925 C   0  0  0  0  0  0
  -17.6440  -30.6602   24.0571 C   0  0  0  0  0  0
  -25.9035  -34.9489   23.5140 C   0  0  0  0  0  0
  -16.5333  -29.9105   23.6330 C   0  0  0  0  0  0
  -16.7249  -28.6525   23.0342 C   0  0  0  0  0  0
  -26.4447  -31.6627   25.0758 C   0  0  0  0  0  0
  -25.3725  -31.3769   26.1521 C   0  0  0  0  0  0
  -27.0241  -30.3042   24.6182 C   0  0  0  0  0  0
  -27.6039  -32.4347   25.7500 C   0  0  0  0  0  0
  -27.5591  -37.1804   24.8450 C   0  0  0  0  0  0
  -21.4114  -29.3047   22.3733 N   0  0  0  0  0  0
  -26.4281  -37.3811   23.9419 N   0  0  0  0  0  0
  -24.6620  -31.0865   22.1023 N   0  0  0  0  0  0
  -23.4170  -28.8256   23.3037 O   0  0  0  0  0  0
  -28.4084  -26.7742   20.0797 O   0  0  0  0  0  0
  -26.5594  -34.8932   22.4700 O   0  0  0  0  0  0
  -23.5317  -32.1456   23.7559 O   0  0  0  0  0  0
  -30.5890  -19.1010   21.9409 C   0  0  0  0  0  0
  -30.3466  -20.4458   21.6028 C   0  0  0  0  0  0
  -29.5389  -18.4144   19.8562 C   0  0  0  0  0  0
  -30.2304  -18.0843   21.0386 C   0  0  0  0  0  0
  -29.7829  -20.7873   20.3496 C   0  0  0  0  0  0
  -29.3292  -19.7558   19.4891 C   0  0  0  0  0  0
  -30.7010  -16.7119   21.2080 C   0  0  0  0  0  0
  -29.6692  -22.1960   19.9506 C   0  0  0  0  0  0
  -30.0303  -15.6212   20.7932 C   0  0  0  0  0  0
  -29.4723  -23.2321   20.7834 C   0  0  0  0  0  0
  -29.4383  -24.5946   20.2431 C   0  0  0  0  0  0
  -27.2045  -20.5303   18.3184 C   0  0  0  0  0  0
  -28.6493  -20.0380   18.1516 C   0  0  0  0  0  0
  -28.3454  -25.5263   20.7661 C   0  0  0  0  0  0
  -30.2435  -24.9894   19.3906 O   0  0  0  0  0  0
  -31.4512  -12.2896   19.1491 H   0  0  0  0  0  0
  -30.2426  -11.2461   19.8389 H   0  0  0  0  0  0
  -29.7295  -11.7579   17.4274 H   0  0  0  0  0  0
  -29.6888  -13.4659   17.7889 H   0  0  0  0  0  0
  -27.7958  -11.3081   18.7946 H   0  0  0  0  0  0
  -27.3747  -12.6568   17.7740 H   0  0  0  0  0  0
  -27.6816  -14.2437   19.5391 H   0  0  0  0  0  0
  -28.6415  -12.0113   21.3987 H   0  0  0  0  0  0
  -28.4790  -13.6883   21.8275 H   0  0  0  0  0  0
  -25.2711   -9.5712   22.4751 H   0  0  0  0  0  0
  -24.0031   -7.4593   22.7412 H   0  0  0  0  0  0
  -21.0823   -8.8699   19.8935 H   0  0  0  0  0  0
  -22.3615  -10.9643   19.6155 H   0  0  0  0  0  0
  -21.1966   -7.6125   23.9718 H   0  0  0  0  0  0
  -21.1527   -6.0507   25.9108 H   0  0  0  0  0  0
  -22.0584   -2.7583   23.2824 H   0  0  0  0  0  0
  -22.4103  -11.9935   22.4869 H   0  0  0  0  0  0
  -21.1099  -13.1283   22.2600 H   0  0  0  0  0  0
  -24.6667  -15.8419   20.5236 H   0  0  0  0  0  0
  -26.2921  -15.6308   20.1150 H   0  0  0  0  0  0
  -26.7111  -32.5555   23.1209 H   0  0  0  0  0  0
  -25.0003  -33.9809   25.0457 H   0  0  0  0  0  0
  -22.6851  -31.3127   21.4146 H   0  0  0  0  0  0
  -23.3751  -35.9639   23.3288 H   0  0  0  0  0  0
  -24.3573  -36.8951   22.2059 H   0  0  0  0  0  0
  -23.7200  -37.6509   23.6665 H   0  0  0  0  0  0
  -26.0483  -31.6193   20.6065 H   0  0  0  0  0  0
  -26.8081  -30.8869   21.9931 H   0  0  0  0  0  0
  -28.1018  -29.1531   21.1392 H   0  0  0  0  0  0
  -26.0869  -25.9877   19.0175 H   0  0  0  0  0  0
  -23.9779  -27.2808   19.0615 H   0  0  0  0  0  0
  -23.7129  -30.5983   19.4068 H   0  0  0  0  0  0
  -22.7296  -29.2440   19.8746 H   0  0  0  0  0  0
  -25.1274  -36.1989   25.0832 H   0  0  0  0  0  0
  -20.9955  -28.3256   24.1457 H   0  0  0  0  0  0
  -20.5646  -26.2286   23.3649 H   0  0  0  0  0  0
  -21.6617  -26.7438   22.1261 H   0  0  0  0  0  0
  -19.6880  -25.6292   21.1276 H   0  0  0  0  0  0
  -19.6693  -27.3187   20.6768 H   0  0  0  0  0  0
  -17.4192  -26.6730   21.3997 H   0  0  0  0  0  0
  -18.0246  -26.0087   22.9002 H   0  0  0  0  0  0
  -19.7917  -30.7264   24.2301 H   0  0  0  0  0  0
  -17.5000  -31.6284   24.5159 H   0  0  0  0  0  0
  -15.5335  -30.3007   23.7657 H   0  0  0  0  0  0
  -15.8642  -28.0864   22.7019 H   0  0  0  0  0  0
  -24.5861  -30.7164   25.7865 H   0  0  0  0  0  0
  -24.8965  -32.2944   26.4995 H   0  0  0  0  0  0
  -25.8068  -30.8910   27.0268 H   0  0  0  0  0  0
  -26.2800  -29.6862   24.1159 H   0  0  0  0  0  0
  -27.3848  -29.7238   25.4682 H   0  0  0  0  0  0
  -27.8711  -30.4281   23.9435 H   0  0  0  0  0  0
  -27.2663  -33.3624   26.2131 H   0  0  0  0  0  0
  -28.3810  -32.6965   25.0310 H   0  0  0  0  0  0
  -28.0767  -31.8462   26.5373 H   0  0  0  0  0  0
  -28.2603  -38.0107   24.7514 H   0  0  0  0  0  0
  -28.1084  -36.2644   24.6227 H   0  0  0  0  0  0
  -27.2333  -37.1408   25.8859 H   0  0  0  0  0  0
  -20.9255  -29.8748   21.6949 H   0  0  0  0  0  0
  -26.0176  -38.2893   24.1432 H   0  0  0  0  0  0
  -31.1025  -18.8611   22.8609 H   0  0  0  0  0  0
  -30.6768  -21.2164   22.2841 H   0  0  0  0  0  0
  -29.2585  -17.6326   19.1631 H   0  0  0  0  0  0
  -31.7204  -16.6178   21.5610 H   0  0  0  0  0  0
  -29.7864  -22.4046   18.8946 H   0  0  0  0  0  0
  -28.9901  -15.6968   20.5242 H   0  0  0  0  0  0
  -29.3340  -23.0934   21.8459 H   0  0  0  0  0  0
  -26.7456  -20.7194   17.3469 H   0  0  0  0  0  0
  -27.1639  -21.4583   18.8889 H   0  0  0  0  0  0
  -26.5919  -19.7914   18.8360 H   0  0  0  0  0  0
  -28.6458  -19.1289   17.5484 H   0  0  0  0  0  0
  -29.2303  -20.7565   17.5733 H   0  0  0  0  0  0
  -28.4877  -25.6886   21.8354 H   0  0  0  0  0  0
  -27.3799  -25.0335   20.6346 H   0  0  0  0  0  0
  1 25  1  0  0  0
  1 30  2  0  0  0
  1 79  1  0  0  0
  2  3  1  0  0  0
  2 25  1  0  0  0
  2 86  1  0  0  0
  2 87  1  0  0  0
  3  4  1  0  0  0
  3 88  1  0  0  0
  3 89  1  0  0  0
  4  5  1  0  0  0
  4 90  1  0  0  0
  4 91  1  0  0  0
  5  6  1  0  0  0
  5 26  1  0  0  0
  5 92  1  0  0  0
  6 25  1  0  0  0
  6 93  1  0  0  0
  6 94  1  0  0  0
  7  8  2  0  0  0
  7 26  1  0  0  0
  7 29  1  0  0  0
  8  9  1  0  0  0
  8 22  1  0  0  0
  9 10  1  0  0  0
  9 27  2  0  0  0
 10 11  2  0  0  0
 10 15  1  0  0  0
 11 12  1  0  0  0
 11 95  1  0  0  0
 12 13  2  0  0  0
 12 96  1  0  0  0
 13 14  1  0  0  0
 13 31  1  0  0  0
 14 15  2  0  0  0
 14 97  1  0  0  0
 15 98  1  0  0  0
 16 17  2  0  0  0
 16 21  1  0  0  0
 16 31  1  0  0  0
 17 18  1  0  0  0
 17 99  1  0  0  0
 18 19  2  0  0  0
 18100  1  0  0  0
 19 20  1  0  0  0
 19 24  1  0  0  0
 20 21  2  0  0  0
 20101  1  0  0  0
 21 23  1  0  0  0
 22 28  1  0  0  0
 22 32  2  0  0  0
 26 27  1  0  0  0
 28102  1  0  0  0
 28103  1  0  0  0
 29104  1  0  0  0
 29105  1  0  0  0
 33 34  1  0  0  0
 33 66  1  0  0  0
 33 70  2  0  0  0
 34 36  1  0  0  0
 34 59  1  0  0  0
 34106  1  0  0  0
 35 44  2  0  0  0
 35 45  1  0  0  0
 35 68  1  0  0  0
 36 56  1  0  0  0
 36107  1  0  0  0
 37 39  1  0  0  0
 37 47  1  0  0  0
 37 66  1  0  0  0
 37108  1  0  0  0
 38 43  2  0  0  0
 38 46  1  0  0  0
 38 47  1  0  0  0
 39 64  1  0  0  0
 39 67  2  0  0  0
 40 52  1  0  0  0
 40 53  2  0  0  0
 40 58  1  0  0  0
 41109  1  0  0  0
 41110  1  0  0  0
 41111  1  0  0  0
 41 48  1  0  0  0
 42 43  1  0  0  0
 42 66  1  0  0  0
 42112  1  0  0  0
 42113  1  0  0  0
 43 44  1  0  0  0
 44114  1  0  0  0
 45 46  2  0  0  0
 45115  1  0  0  0
 46116  1  0  0  0
 47117  1  0  0  0
 47118  1  0  0  0
 48 56  1  0  0  0
 48 65  1  0  0  0
 48119  1  0  0  0
 49 50  1  0  0  0
 49 53  1  0  0  0
 49 64  1  0  0  0
 49120  1  0  0  0
 50 51  1  0  0  0
 50121  1  0  0  0
 50122  1  0  0  0
 51 52  1  0  0  0
 51123  1  0  0  0
 51124  1  0  0  0
 52125  1  0  0  0
 52126  1  0  0  0
 53 54  1  0  0  0
 54 55  2  0  0  0
 54127  1  0  0  0
 55 57  1  0  0  0
 55128  1  0  0  0
 56 69  2  0  0  0
 57 58  2  0  0  0
 57129  1  0  0  0
 58130  1  0  0  0
 59 60  1  0  0  0
 59 61  1  0  0  0
 59 62  1  0  0  0
 60131  1  0  0  0
 60132  1  0  0  0
 60133  1  0  0  0
 61134  1  0  0  0
 61135  1  0  0  0
 61136  1  0  0  0
 62137  1  0  0  0
 62138  1  0  0  0
 62139  1  0  0  0
 63 65  1  0  0  0
 63140  1  0  0  0
 63141  1  0  0  0
 63142  1  0  0  0
 64143  1  0  0  0
 65144  1  0  0  0
 68 84  1  0  0  0
 71 72  2  0  0  0
 71 74  1  0  0  0
 71145  1  0  0  0
 72 75  1  0  0  0
 72146  1  0  0  0
 73 74  2  0  0  0
 73 76  1  0  0  0
 73147  1  0  0  0
 74 77  1  0  0  0
 75 76  2  0  0  0
 75 78  1  0  0  0
 76 83  1  0  0  0
 77 79  2  0  0  0
 77148  1  0  0  0
 78 80  2  0  0  0
 78149  1  0  0  0
 79150  1  0  0  0
 80 81  1  0  0  0
 80151  1  0  0  0
 81 84  1  0  0  0
 81 85  2  0  0  0
 82 83  1  0  0  0
 82152  1  0  0  0
 82153  1  0  0  0
 82154  1  0  0  0
 83155  1  0  0  0
 83156  1  0  0  0
 84157  1  0  0  0
 84158  1  0  0  0
M  ISO  4   1 100  68 101  79 100  84 101
M  END
> <chiral flag>
0

> <version>
0

> <s_m_source_file>
/data/baiqing/PycharmProjects/Reinvent-master-3.2/result/LINK_invent/BTK/process_docking_weight1_custom_product_contain_oxygen_bond_distance_aromatic_linkinvent_7_9_3/rearranged_h_0127.sdf

> <i_m_source_file_index>
10

> <r_mmod_Potential_Energy-OPLS-2005>
24.7438468933105

> <r_mmod_Stretch_Energy-OPLS-2005>
30.5565643310547

> <r_mmod_Bend_Energy-OPLS-2005>
86.2376098632812

> <r_mmod_Torsional_Energy-OPLS-2005>
255.958953857422

> <r_mmod_Improper_Torsional_Energy-OPLS-2005>
14.3235492706299

> <r_mmod_Van_der_Waal_Energy-OPLS-2005>
161.693420410156

> <r_mmod_Electrostatic_Energy-OPLS-2005>
-328.600646972656

> <r_mmod_Solvation_Energy-OPLS-2005>
-213.631332397461

> <b_mmod_Minimization_Converged-OPLS-2005>
0

> <r_mmod_RMS_Derivative-OPLS-2005>
3.29125213623047

$$$$
10
                    3D
 Structure written by MMmdl.
159167  0  0  1  0            999 V2000
  -30.5327  -14.6814   20.5135 C   0  0  0  0  0  0
  -30.4618  -12.4186   19.4465 C   0  0  0  0  0  0
  -29.5205  -12.5033   18.2198 C   0  0  0  0  0  0
  -28.0363  -12.3539   18.6219 C   0  0  0  0  0  0
  -27.6574  -13.2070   19.8633 C   0  0  2  0  0  0
  -28.7003  -13.0141   20.9862 C   0  0  0  0  0  0
  -25.2616  -13.8153   20.5711 C   0  0  0  0  0  0
  -24.1860  -13.0430   20.9187 C   0  0  0  0  0  0
  -24.6400  -11.6892   20.8693 C   0  0  0  0  0  0
  -23.9067  -10.4280   21.0381 C   0  0  0  0  0  0
  -24.3624   -9.4194   21.9169 C   0  0  0  0  0  0
  -23.6299   -8.2229   22.0744 C   0  0  0  0  0  0
  -22.4281   -8.0275   21.3546 C   0  0  0  0  0  0
  -21.9906   -9.0241   20.4655 C   0  0  0  0  0  0
  -22.7225  -10.2123   20.3044 C   0  0  0  0  0  0
  -21.6862   -6.0732   22.5290 C   0  0  0  0  0  0
  -21.4004   -6.5639   23.8218 C   0  0  0  0  0  0
  -21.3647   -5.6787   24.9187 C   0  0  0  0  0  0
  -21.6038   -4.3052   24.7244 C   0  0  0  0  0  0
  -21.8830   -3.8144   23.4366 C   0  0  0  0  0  0
  -21.9194   -4.6953   22.3412 C   0  0  0  0  0  0
  -22.7892  -13.5231   21.1862 C   0  0  0  0  0  0
  -22.1672   -4.2141   21.0995 F   0  0  0  0  0  0
  -21.5618   -3.4537   25.7748 F   0  0  0  0  0  0
  -30.0060  -13.4132   20.4401 N   0  0  0  0  0  0
  -26.3002  -12.9295   20.3259 N   0  0  0  0  0  0
  -25.9309  -11.6456   20.5665 N   0  0  0  0  0  0
  -22.0532  -12.8222   22.0423 N   0  0  0  0  0  0
  -25.4399  -15.1873   20.4287 N   0  0  0  0  0  0
  -31.6749  -14.9239   20.1034 O   0  0  0  0  0  0
  -21.6649   -6.8878   21.4253 O   0  0  0  0  0  0
  -22.3567  -14.5541   20.6732 O   0  0  0  0  0  0
  -24.6185  -31.8625   23.1958 C   0  0  0  0  0  0
  -25.9028  -32.4824   23.8299 C   0  0  1  0  0  0
  -27.2419  -27.3515   20.1286 C   0  0  0  0  0  0
  -25.5859  -33.8610   24.2261 N   0  0  0  0  0  0
  -23.4123  -30.4826   21.5399 C   0  0  2  0  0  0
  -24.8587  -28.9275   20.1177 C   0  0  0  0  0  0
  -22.7438  -29.4685   22.4965 C   0  0  0  0  0  0
  -18.0309  -28.1424   22.8570 C   0  0  0  0  0  0
  -24.1471  -36.7290   23.2646 C   0  0  0  0  0  0
  -25.9397  -30.8188   21.3383 C   0  0  0  0  0  0
  -26.0240  -29.4325   20.7085 C   0  0  0  0  0  0
  -27.2209  -28.6635   20.6947 C   0  0  0  0  0  0
  -26.0535  -26.8797   19.5293 C   0  0  0  0  0  0
  -24.8743  -27.6575   19.5122 C   0  0  0  0  0  0
  -23.6218  -29.8015   20.1597 C   0  0  0  0  0  0
  -25.4097  -36.3105   24.0358 C   0  0  1  0  0  0
  -20.5912  -28.3690   23.1355 C   0  0  2  0  0  0
  -20.6787  -26.9418   22.5456 C   0  0  0  0  0  0
  -19.5774  -26.6440   21.5242 C   0  0  0  0  0  0
  -18.1935  -26.8002   22.1632 C   0  0  0  0  0  0
  -19.1578  -28.8866   23.2980 C   0  0  0  0  0  0
  -18.9496  -30.1485   23.8980 C   0  0  0  0  0  0
  -17.6500  -30.6631   24.0623 C   0  0  0  0  0  0
  -25.9052  -34.9507   23.5125 C   0  0  0  0  0  0
  -16.5392  -29.9161   23.6344 C   0  0  0  0  0  0
  -16.7307  -28.6573   23.0356 C   0  0  0  0  0  0
  -26.4410  -31.6579   25.0613 C   0  0  0  0  0  0
  -25.3655  -31.3757   26.1346 C   0  0  0  0  0  0
  -27.0129  -30.3034   24.5867 C   0  0  0  0  0  0
  -27.6088  -32.4164   25.7365 C   0  0  0  0  0  0
  -27.5584  -37.1802   24.8490 C   0  0  0  0  0  0
  -21.4160  -29.3066   22.3735 N   0  0  0  0  0  0
  -26.4281  -37.3797   23.9451 N   0  0  0  0  0  0
  -24.6789  -31.0716   22.0849 N   0  0  0  0  0  0
  -23.4166  -28.8260   23.3081 O   0  0  0  0  0  0
  -28.4056  -26.5797   20.0890 O   0  0  0  0  0  0
  -26.5627  -34.8970   22.4700 O   0  0  0  0  0  0
  -23.5391  -32.1348   23.7381 O   0  0  0  0  0  0
  -29.9087  -19.3868   19.9348 C   0  0  0  0  0  0
  -30.1639  -17.9708   19.9839 C   0  0  0  0  0  0
  -28.2841  -19.1367   21.6751 C   0  0  0  0  0  0
  -28.9476  -20.0097   20.7800 C   0  0  0  0  0  0
  -28.5186  -17.7284   21.7395 C   0  0  0  0  0  0
  -29.4880  -17.1003   20.8917 C   0  0  0  0  0  0
  -26.4188  -17.4999   23.2966 C   0  0  0  0  0  0
  -28.5839  -21.5519   20.8469 C   0  0  0  0  0  0
  -27.7443  -16.9008   22.7762 C   0  0  0  0  0  0
  -28.9399  -22.5802   19.6887 C   0  0  0  0  0  0
  -28.1801  -23.9925   19.5707 C   0  0  0  0  0  0
  -28.4256  -25.1883   20.5802 C   0  0  0  0  0  0
  -29.6528  -15.6348   20.9764 N   0  0  0  0  0  0
  -31.4945  -12.5952   19.1380 H   0  0  0  0  0  0
  -30.4516  -11.4144   19.8742 H   0  0  0  0  0  0
  -29.7882  -11.7381   17.4896 H   0  0  0  0  0  0
  -29.6692  -13.4598   17.7193 H   0  0  0  0  0  0
  -27.8531  -11.3002   18.8292 H   0  0  0  0  0  0
  -27.3944  -12.6108   17.7789 H   0  0  0  0  0  0
  -27.6832  -14.2506   19.5438 H   0  0  0  0  0  0
  -28.7246  -11.9657   21.2895 H   0  0  0  0  0  0
  -28.4354  -13.5691   21.8858 H   0  0  0  0  0  0
  -25.2780   -9.5686   22.4730 H   0  0  0  0  0  0
  -24.0017   -7.4629   22.7457 H   0  0  0  0  0  0
  -21.0824   -8.8761   19.8977 H   0  0  0  0  0  0
  -22.3672  -10.9661   19.6152 H   0  0  0  0  0  0
  -21.1995   -7.6142   23.9716 H   0  0  0  0  0  0
  -21.1451   -6.0527   25.9087 H   0  0  0  0  0  0
  -22.0616   -2.7604   23.2876 H   0  0  0  0  0  0
  -22.4156  -11.9879   22.4799 H   0  0  0  0  0  0
  -21.1146  -13.1246   22.2633 H   0  0  0  0  0  0
  -24.7023  -15.8496   20.6411 H   0  0  0  0  0  0
  -26.3039  -15.6335   20.1495 H   0  0  0  0  0  0
  -26.7106  -32.5515   23.1079 H   0  0  0  0  0  0
  -24.9937  -33.9740   25.0359 H   0  0  0  0  0  0
  -22.7152  -31.3087   21.3964 H   0  0  0  0  0  0
  -23.3766  -35.9581   23.3295 H   0  0  0  0  0  0
  -24.3618  -36.8896   22.2067 H   0  0  0  0  0  0
  -23.7146  -37.6474   23.6643 H   0  0  0  0  0  0
  -26.0234  -31.5668   20.5476 H   0  0  0  0  0  0
  -26.8390  -30.9087   21.9366 H   0  0  0  0  0  0
  -28.1257  -29.0732   21.1256 H   0  0  0  0  0  0
  -26.0414  -25.9084   19.0548 H   0  0  0  0  0  0
  -23.9806  -27.2804   19.0337 H   0  0  0  0  0  0
  -23.7266  -30.5651   19.3874 H   0  0  0  0  0  0
  -22.7424  -29.2175   19.8766 H   0  0  0  0  0  0
  -25.1272  -36.1980   25.0848 H   0  0  0  0  0  0
  -21.0062  -28.3244   24.1456 H   0  0  0  0  0  0
  -20.5666  -26.2295   23.3648 H   0  0  0  0  0  0
  -21.6658  -26.7438   22.1259 H   0  0  0  0  0  0
  -19.6892  -25.6354   21.1233 H   0  0  0  0  0  0
  -19.6714  -27.3308   20.6819 H   0  0  0  0  0  0
  -17.4226  -26.6855   21.3998 H   0  0  0  0  0  0
  -18.0299  -26.0126   22.9007 H   0  0  0  0  0  0
  -19.7967  -30.7330   24.2329 H   0  0  0  0  0  0
  -17.5058  -31.6310   24.5235 H   0  0  0  0  0  0
  -15.5392  -30.3096   23.7625 H   0  0  0  0  0  0
  -15.8721  -28.0935   22.6971 H   0  0  0  0  0  0
  -24.5961  -30.6912   25.7765 H   0  0  0  0  0  0
  -24.8645  -32.2902   26.4546 H   0  0  0  0  0  0
  -25.7985  -30.9190   27.0250 H   0  0  0  0  0  0
  -26.2570  -29.6921   24.0912 H   0  0  0  0  0  0
  -27.3942  -29.7156   25.4225 H   0  0  0  0  0  0
  -27.8401  -30.4421   23.8903 H   0  0  0  0  0  0
  -27.2894  -33.3603   26.1794 H   0  0  0  0  0  0
  -28.3973  -32.6389   25.0174 H   0  0  0  0  0  0
  -28.0551  -31.8238   26.5357 H   0  0  0  0  0  0
  -28.2635  -38.0074   24.7526 H   0  0  0  0  0  0
  -28.1028  -36.2613   24.6290 H   0  0  0  0  0  0
  -27.2350  -37.1449   25.8910 H   0  0  0  0  0  0
  -20.9305  -29.8799   21.6976 H   0  0  0  0  0  0
  -26.0182  -38.2881   24.1477 H   0  0  0  0  0  0
  -30.4655  -19.9958   19.2369 H   0  0  0  0  0  0
  -30.8887  -17.5594   19.2952 H   0  0  0  0  0  0
  -27.5725  -19.5889   22.3485 H   0  0  0  0  0  0
  -25.9330  -16.8000   23.9785 H   0  0  0  0  0  0
  -25.7167  -17.7057   22.4880 H   0  0  0  0  0  0
  -26.5675  -18.4208   23.8626 H   0  0  0  0  0  0
  -29.0031  -21.9393   21.7783 H   0  0  0  0  0  0
  -27.5029  -21.5947   20.9963 H   0  0  0  0  0  0
  -28.4133  -16.7393   23.6213 H   0  0  0  0  0  0
  -27.5175  -15.9149   22.3704 H   0  0  0  0  0  0
  -28.7177  -22.0743   18.7451 H   0  0  0  0  0  0
  -30.0198  -22.7401   19.6620 H   0  0  0  0  0  0
  -27.1073  -23.8144   19.5019 H   0  0  0  0  0  0
  -28.4440  -24.3862   18.5873 H   0  0  0  0  0  0
  -29.4297  -25.0529   20.9894 H   0  0  0  0  0  0
  -27.7575  -25.0994   21.4389 H   0  0  0  0  0  0
  -28.8576  -15.1813   21.3975 H   0  0  0  0  0  0
  1 25  1  0  0  0
  1 30  2  0  0  0
  1 83  1  0  0  0
  2  3  1  0  0  0
  2 25  1  0  0  0
  2 84  1  0  0  0
  2 85  1  0  0  0
  3  4  1  0  0  0
  3 86  1  0  0  0
  3 87  1  0  0  0
  4  5  1  0  0  0
  4 88  1  0  0  0
  4 89  1  0  0  0
  5  6  1  0  0  0
  5 26  1  0  0  0
  5 90  1  0  0  0
  6 25  1  0  0  0
  6 91  1  0  0  0
  6 92  1  0  0  0
  7  8  2  0  0  0
  7 26  1  0  0  0
  7 29  1  0  0  0
  8  9  1  0  0  0
  8 22  1  0  0  0
  9 10  1  0  0  0
  9 27  2  0  0  0
 10 11  2  0  0  0
 10 15  1  0  0  0
 11 12  1  0  0  0
 11 93  1  0  0  0
 12 13  2  0  0  0
 12 94  1  0  0  0
 13 14  1  0  0  0
 13 31  1  0  0  0
 14 15  2  0  0  0
 14 95  1  0  0  0
 15 96  1  0  0  0
 16 17  2  0  0  0
 16 21  1  0  0  0
 16 31  1  0  0  0
 17 18  1  0  0  0
 17 97  1  0  0  0
 18 19  2  0  0  0
 18 98  1  0  0  0
 19 20  1  0  0  0
 19 24  1  0  0  0
 20 21  2  0  0  0
 20 99  1  0  0  0
 21 23  1  0  0  0
 22 28  1  0  0  0
 22 32  2  0  0  0
 26 27  1  0  0  0
 28100  1  0  0  0
 28101  1  0  0  0
 29102  1  0  0  0
 29103  1  0  0  0
 33 34  1  0  0  0
 33 66  1  0  0  0
 33 70  2  0  0  0
 34 36  1  0  0  0
 34 59  1  0  0  0
 34104  1  0  0  0
 35 44  2  0  0  0
 35 45  1  0  0  0
 35 68  1  0  0  0
 36 56  1  0  0  0
 36105  1  0  0  0
 37 39  1  0  0  0
 37 47  1  0  0  0
 37 66  1  0  0  0
 37106  1  0  0  0
 38 43  2  0  0  0
 38 46  1  0  0  0
 38 47  1  0  0  0
 39 64  1  0  0  0
 39 67  2  0  0  0
 40 52  1  0  0  0
 40 53  2  0  0  0
 40 58  1  0  0  0
 41107  1  0  0  0
 41108  1  0  0  0
 41109  1  0  0  0
 41 48  1  0  0  0
 42 43  1  0  0  0
 42 66  1  0  0  0
 42110  1  0  0  0
 42111  1  0  0  0
 43 44  1  0  0  0
 44112  1  0  0  0
 45 46  2  0  0  0
 45113  1  0  0  0
 46114  1  0  0  0
 47115  1  0  0  0
 47116  1  0  0  0
 48 56  1  0  0  0
 48 65  1  0  0  0
 48117  1  0  0  0
 49 50  1  0  0  0
 49 53  1  0  0  0
 49 64  1  0  0  0
 49118  1  0  0  0
 50 51  1  0  0  0
 50119  1  0  0  0
 50120  1  0  0  0
 51 52  1  0  0  0
 51121  1  0  0  0
 51122  1  0  0  0
 52123  1  0  0  0
 52124  1  0  0  0
 53 54  1  0  0  0
 54 55  2  0  0  0
 54125  1  0  0  0
 55 57  1  0  0  0
 55126  1  0  0  0
 56 69  2  0  0  0
 57 58  2  0  0  0
 57127  1  0  0  0
 58128  1  0  0  0
 59 60  1  0  0  0
 59 61  1  0  0  0
 59 62  1  0  0  0
 60129  1  0  0  0
 60130  1  0  0  0
 60131  1  0  0  0
 61132  1  0  0  0
 61133  1  0  0  0
 61134  1  0  0  0
 62135  1  0  0  0
 62136  1  0  0  0
 62137  1  0  0  0
 63 65  1  0  0  0
 63138  1  0  0  0
 63139  1  0  0  0
 63140  1  0  0  0
 64141  1  0  0  0
 65142  1  0  0  0
 68 82  1  0  0  0
 71 72  2  0  0  0
 71 74  1  0  0  0
 71143  1  0  0  0
 72 76  1  0  0  0
 72144  1  0  0  0
 73 74  2  0  0  0
 73 75  1  0  0  0
 73145  1  0  0  0
 74 78  1  0  0  0
 75 76  2  0  0  0
 75 79  1  0  0  0
 76 83  1  0  0  0
 77 79  1  0  0  0
 77146  1  0  0  0
 77147  1  0  0  0
 77148  1  0  0  0
 78 80  1  0  0  0
 78149  1  0  0  0
 78150  1  0  0  0
 79151  1  0  0  0
 79152  1  0  0  0
 80 81  1  0  0  0
 80153  1  0  0  0
 80154  1  0  0  0
 81 82  1  0  0  0
 81155  1  0  0  0
 81156  1  0  0  0
 82157  1  0  0  0
 82158  1  0  0  0
 83159  1  0  0  0
M  ISO  4   1 100  68 101  82 101  83 100
M  END
> <chiral flag>
0

> <version>
0

> <s_m_source_file>
/data/baiqing/PycharmProjects/Reinvent-master-3.2/result/LINK_invent/BTK/process_docking_weight1_custom_product_contain_oxygen_bond_distance_aromatic_linkinvent_7_9_3/rearranged_h_0127.sdf

> <i_m_source_file_index>
11

> <r_mmod_Potential_Energy-OPLS-2005>
109.51001739502

> <r_mmod_Stretch_Energy-OPLS-2005>
87.7397842407227

> <r_mmod_Bend_Energy-OPLS-2005>
177.589004516602

> <r_mmod_Torsional_Energy-OPLS-2005>
234.628082275391

> <r_mmod_Improper_Torsional_Energy-OPLS-2005>
3.30152487754822

> <r_mmod_Van_der_Waal_Energy-OPLS-2005>
132.659530639648

> <r_mmod_Electrostatic_Energy-OPLS-2005>
-379.081176757812

> <r_mmod_Solvation_Energy-OPLS-2005>
-197.209701538086

> <b_mmod_Minimization_Converged-OPLS-2005>
0

> <r_mmod_RMS_Derivative-OPLS-2005>
5.76249551773071

$$$$
11
                    3D
 Structure written by MMmdl.
162170  0  0  1  0            999 V2000
  -30.7368  -14.4453   20.6624 C   0  0  0  0  0  0
  -30.4222  -12.3183   19.4335 C   0  0  0  0  0  0
  -29.5023  -12.5300   18.2153 C   0  0  0  0  0  0
  -28.0261  -12.3681   18.6247 C   0  0  0  0  0  0
  -27.6657  -13.2085   19.8761 C   0  0  2  0  0  0
  -28.7000  -12.9900   21.0020 C   0  0  0  0  0  0
  -25.2612  -13.8149   20.5656 C   0  0  0  0  0  0
  -24.1859  -13.0420   20.9152 C   0  0  0  0  0  0
  -24.6413  -11.6896   20.8715 C   0  0  0  0  0  0
  -23.9084  -10.4273   21.0413 C   0  0  0  0  0  0
  -24.3638   -9.4195   21.9188 C   0  0  0  0  0  0
  -23.6297   -8.2236   22.0770 C   0  0  0  0  0  0
  -22.4279   -8.0274   21.3561 C   0  0  0  0  0  0
  -21.9928   -9.0245   20.4670 C   0  0  0  0  0  0
  -22.7261  -10.2116   20.3068 C   0  0  0  0  0  0
  -21.6847   -6.0741   22.5272 C   0  0  0  0  0  0
  -21.4011   -6.5647   23.8206 C   0  0  0  0  0  0
  -21.3654   -5.6805   24.9165 C   0  0  0  0  0  0
  -21.6048   -4.3068   24.7221 C   0  0  0  0  0  0
  -21.8818   -3.8155   23.4336 C   0  0  0  0  0  0
  -21.9191   -4.6970   22.3394 C   0  0  0  0  0  0
  -22.7884  -13.5233   21.1802 C   0  0  0  0  0  0
  -22.1667   -4.2164   21.0972 F   0  0  0  0  0  0
  -21.5629   -3.4544   25.7731 F   0  0  0  0  0  0
  -30.0378  -13.2915   20.4693 N   0  0  0  0  0  0
  -26.3053  -12.9320   20.3332 N   0  0  0  0  0  0
  -25.9342  -11.6486   20.5727 N   0  0  0  0  0  0
  -22.0537  -12.8222   22.0364 N   0  0  0  0  0  0
  -25.4334  -15.1861   20.4092 N   0  0  0  0  0  0
  -31.7820  -14.6791   20.0479 O   0  0  0  0  0  0
  -21.6639   -6.8876   21.4237 O   0  0  0  0  0  0
  -22.3563  -14.5513   20.6631 O   0  0  0  0  0  0
  -24.6130  -31.8687   23.2078 C   0  0  0  0  0  0
  -25.9027  -32.4824   23.8372 C   0  0  1  0  0  0
  -27.2325  -27.4391   20.1060 C   0  0  0  0  0  0
  -25.5881  -33.8614   24.2312 N   0  0  0  0  0  0
  -23.3998  -30.4904   21.5493 C   0  0  2  0  0  0
  -24.8474  -28.9548   20.1161 C   0  0  0  0  0  0
  -22.7410  -29.4658   22.5008 C   0  0  0  0  0  0
  -18.0271  -28.1381   22.8495 C   0  0  0  0  0  0
  -24.1495  -36.7327   23.2636 C   0  0  0  0  0  0
  -25.9261  -30.8420   21.3533 C   0  0  0  0  0  0
  -26.0070  -29.4742   20.7054 C   0  0  0  0  0  0
  -27.2056  -28.7263   20.6889 C   0  0  0  0  0  0
  -26.0574  -26.9282   19.5172 C   0  0  0  0  0  0
  -24.8681  -27.6828   19.5166 C   0  0  0  0  0  0
  -23.6070  -29.8179   20.1647 C   0  0  0  0  0  0
  -25.4112  -36.3103   24.0332 C   0  0  1  0  0  0
  -20.5864  -28.3660   23.1335 C   0  0  2  0  0  0
  -20.6757  -26.9403   22.5430 C   0  0  0  0  0  0
  -19.5734  -26.6392   21.5219 C   0  0  0  0  0  0
  -18.1912  -26.7931   22.1627 C   0  0  0  0  0  0
  -19.1520  -28.8840   23.2907 C   0  0  0  0  0  0
  -18.9441  -30.1447   23.8926 C   0  0  0  0  0  0
  -17.6441  -30.6592   24.0560 C   0  0  0  0  0  0
  -25.9026  -34.9468   23.5112 C   0  0  0  0  0  0
  -16.5337  -29.9084   23.6325 C   0  0  0  0  0  0
  -16.7257  -28.6495   23.0356 C   0  0  0  0  0  0
  -26.4476  -31.6586   25.0683 C   0  0  0  0  0  0
  -25.3761  -31.3681   26.1440 C   0  0  0  0  0  0
  -27.0272  -30.3029   24.6009 C   0  0  0  0  0  0
  -27.6055  -32.4294   25.7448 C   0  0  0  0  0  0
  -27.5587  -37.1815   24.8465 C   0  0  0  0  0  0
  -21.4144  -29.3018   22.3741 N   0  0  0  0  0  0
  -26.4304  -37.3786   23.9404 N   0  0  0  0  0  0
  -24.6651  -31.0805   22.0962 N   0  0  0  0  0  0
  -23.4195  -28.8219   23.3052 O   0  0  0  0  0  0
  -28.4092  -26.7262   20.0906 O   0  0  0  0  0  0
  -26.5596  -34.8920   22.4683 O   0  0  0  0  0  0
  -23.5323  -32.1432   23.7478 O   0  0  0  0  0  0
  -28.1101  -19.8408   23.7856 C   0  0  0  0  0  0
  -27.7831  -20.9935   23.0485 C   0  0  0  0  0  0
  -29.0974  -20.1655   21.1809 C   0  0  0  0  0  0
  -28.9164  -18.8320   23.2224 C   0  0  0  0  0  0
  -28.2960  -21.1934   21.7517 C   0  0  0  0  0  0
  -29.3779  -18.9662   21.8887 C   0  0  0  0  0  0
  -29.2982  -17.6371   24.0771 C   0  0  0  0  0  0
  -29.3513  -24.6481   18.3833 C   0  0  0  0  0  0
  -30.2661  -15.5197   21.6697 C   0  0  0  0  0  0
  -29.5011  -16.7176   21.0371 C   0  0  0  0  0  0
  -28.3861  -25.3861   20.6152 C   0  0  0  0  0  0
  -28.8219  -22.8735   20.0935 C   0  0  0  0  0  0
  -28.4091  -24.2686   19.5388 C   0  0  2  0  0  0
  -27.9652  -22.3887   21.1295 O   0  0  0  0  0  0
  -30.1409  -17.9848   21.2831 O   0  0  0  0  0  0
  -31.4719  -12.4015   19.1466 H   0  0  0  0  0  0
  -30.3079  -11.3057   19.8251 H   0  0  0  0  0  0
  -29.7572  -11.8254   17.4238 H   0  0  0  0  0  0
  -29.6607  -13.5281   17.8043 H   0  0  0  0  0  0
  -27.8593  -11.3111   18.8351 H   0  0  0  0  0  0
  -27.3689  -12.6247   17.7929 H   0  0  0  0  0  0
  -27.7100  -14.2571   19.5790 H   0  0  0  0  0  0
  -28.6768  -11.9532   21.3428 H   0  0  0  0  0  0
  -28.4216  -13.5801   21.8721 H   0  0  0  0  0  0
  -25.2789   -9.5659   22.4761 H   0  0  0  0  0  0
  -24.0005   -7.4637   22.7506 H   0  0  0  0  0  0
  -21.0845   -8.8747   19.8992 H   0  0  0  0  0  0
  -22.3706  -10.9645   19.6173 H   0  0  0  0  0  0
  -21.2003   -7.6159   23.9701 H   0  0  0  0  0  0
  -21.1487   -6.0542   25.9066 H   0  0  0  0  0  0
  -22.0607   -2.7622   23.2819 H   0  0  0  0  0  0
  -22.4163  -11.9876   22.4719 H   0  0  0  0  0  0
  -21.1172  -13.1266   22.2598 H   0  0  0  0  0  0
  -24.6707  -15.8453   20.5273 H   0  0  0  0  0  0
  -26.2825  -15.6197   20.0695 H   0  0  0  0  0  0
  -26.7095  -32.5550   23.1131 H   0  0  0  0  0  0
  -25.0003  -33.9773   25.0432 H   0  0  0  0  0  0
  -22.6857  -31.3053   21.4101 H   0  0  0  0  0  0
  -23.3727  -35.9688   23.3314 H   0  0  0  0  0  0
  -24.3604  -36.8930   22.2051 H   0  0  0  0  0  0
  -23.7272  -37.6548   23.6642 H   0  0  0  0  0  0
  -26.0276  -31.6064   20.5818 H   0  0  0  0  0  0
  -26.8175  -30.9039   21.9646 H   0  0  0  0  0  0
  -28.1068  -29.1259   21.1338 H   0  0  0  0  0  0
  -26.0567  -25.9563   19.0470 H   0  0  0  0  0  0
  -23.9758  -27.2810   19.0577 H   0  0  0  0  0  0
  -23.7064  -30.5895   19.4004 H   0  0  0  0  0  0
  -22.7332  -29.2313   19.8754 H   0  0  0  0  0  0
  -25.1288  -36.1962   25.0826 H   0  0  0  0  0  0
  -20.9944  -28.3218   24.1453 H   0  0  0  0  0  0
  -20.5665  -26.2259   23.3607 H   0  0  0  0  0  0
  -21.6623  -26.7450   22.1219 H   0  0  0  0  0  0
  -19.6892  -25.6304   21.1227 H   0  0  0  0  0  0
  -19.6679  -27.3219   20.6764 H   0  0  0  0  0  0
  -17.4188  -26.6688   21.4027 H   0  0  0  0  0  0
  -18.0313  -26.0072   22.9021 H   0  0  0  0  0  0
  -19.7911  -30.7253   24.2316 H   0  0  0  0  0  0
  -17.4989  -31.6279   24.5149 H   0  0  0  0  0  0
  -15.5330  -30.2988   23.7641 H   0  0  0  0  0  0
  -15.8652  -28.0813   22.7072 H   0  0  0  0  0  0
  -24.5914  -30.7057   25.7772 H   0  0  0  0  0  0
  -24.8984  -32.2830   26.4943 H   0  0  0  0  0  0
  -25.8131  -30.8798   27.0152 H   0  0  0  0  0  0
  -26.2795  -29.6850   24.1014 H   0  0  0  0  0  0
  -27.3996  -29.7210   25.4446 H   0  0  0  0  0  0
  -27.8656  -30.4352   23.9167 H   0  0  0  0  0  0
  -27.2667  -33.3549   26.2114 H   0  0  0  0  0  0
  -28.3818  -32.6933   25.0258 H   0  0  0  0  0  0
  -28.0773  -31.8358   26.5285 H   0  0  0  0  0  0
  -28.2599  -38.0114   24.7497 H   0  0  0  0  0  0
  -28.1087  -36.2637   24.6297 H   0  0  0  0  0  0
  -27.2316  -37.1489   25.8874 H   0  0  0  0  0  0
  -20.9302  -29.8700   21.6931 H   0  0  0  0  0  0
  -26.0185  -38.2868   24.1375 H   0  0  0  0  0  0
  -27.7427  -19.7401   24.7980 H   0  0  0  0  0  0
  -27.1531  -21.7448   23.5024 H   0  0  0  0  0  0
  -29.4948  -20.2700   20.1826 H   0  0  0  0  0  0
  -30.3394  -17.3604   23.9121 H   0  0  0  0  0  0
  -28.6682  -16.7788   23.8453 H   0  0  0  0  0  0
  -29.1948  -17.8572   25.1394 H   0  0  0  0  0  0
  -29.3291  -23.9002   17.5897 H   0  0  0  0  0  0
  -30.3815  -24.7281   18.7294 H   0  0  0  0  0  0
  -29.0760  -25.6024   17.9339 H   0  0  0  0  0  0
  -29.7100  -15.0893   22.4977 H   0  0  0  0  0  0
  -31.1684  -15.9069   22.1435 H   0  0  0  0  0  0
  -28.4635  -16.7152   21.3768 H   0  0  0  0  0  0
  -29.4461  -16.6023   19.9552 H   0  0  0  0  0  0
  -29.2762  -25.2967   21.2377 H   0  0  0  0  0  0
  -27.5408  -25.2365   21.2887 H   0  0  0  0  0  0
  -29.8460  -22.9185   20.4690 H   0  0  0  0  0  0
  -28.8122  -22.1642   19.2658 H   0  0  0  0  0  0
  -27.4061  -24.1759   19.1226 H   0  0  0  0  0  0
  1 25  1  0  0  0
  1 30  2  0  0  0
  1 79  1  0  0  0
  2  3  1  0  0  0
  2 25  1  0  0  0
  2 86  1  0  0  0
  2 87  1  0  0  0
  3  4  1  0  0  0
  3 88  1  0  0  0
  3 89  1  0  0  0
  4  5  1  0  0  0
  4 90  1  0  0  0
  4 91  1  0  0  0
  5  6  1  0  0  0
  5 26  1  0  0  0
  5 92  1  0  0  0
  6 25  1  0  0  0
  6 93  1  0  0  0
  6 94  1  0  0  0
  7  8  2  0  0  0
  7 26  1  0  0  0
  7 29  1  0  0  0
  8  9  1  0  0  0
  8 22  1  0  0  0
  9 10  1  0  0  0
  9 27  2  0  0  0
 10 11  2  0  0  0
 10 15  1  0  0  0
 11 12  1  0  0  0
 11 95  1  0  0  0
 12 13  2  0  0  0
 12 96  1  0  0  0
 13 14  1  0  0  0
 13 31  1  0  0  0
 14 15  2  0  0  0
 14 97  1  0  0  0
 15 98  1  0  0  0
 16 17  2  0  0  0
 16 21  1  0  0  0
 16 31  1  0  0  0
 17 18  1  0  0  0
 17 99  1  0  0  0
 18 19  2  0  0  0
 18100  1  0  0  0
 19 20  1  0  0  0
 19 24  1  0  0  0
 20 21  2  0  0  0
 20101  1  0  0  0
 21 23  1  0  0  0
 22 28  1  0  0  0
 22 32  2  0  0  0
 26 27  1  0  0  0
 28102  1  0  0  0
 28103  1  0  0  0
 29104  1  0  0  0
 29105  1  0  0  0
 33 34  1  0  0  0
 33 66  1  0  0  0
 33 70  2  0  0  0
 34 36  1  0  0  0
 34 59  1  0  0  0
 34106  1  0  0  0
 35 44  2  0  0  0
 35 45  1  0  0  0
 35 68  1  0  0  0
 36 56  1  0  0  0
 36107  1  0  0  0
 37 39  1  0  0  0
 37 47  1  0  0  0
 37 66  1  0  0  0
 37108  1  0  0  0
 38 43  2  0  0  0
 38 46  1  0  0  0
 38 47  1  0  0  0
 39 64  1  0  0  0
 39 67  2  0  0  0
 40 52  1  0  0  0
 40 53  2  0  0  0
 40 58  1  0  0  0
 41109  1  0  0  0
 41110  1  0  0  0
 41111  1  0  0  0
 41 48  1  0  0  0
 42 43  1  0  0  0
 42 66  1  0  0  0
 42112  1  0  0  0
 42113  1  0  0  0
 43 44  1  0  0  0
 44114  1  0  0  0
 45 46  2  0  0  0
 45115  1  0  0  0
 46116  1  0  0  0
 47117  1  0  0  0
 47118  1  0  0  0
 48 56  1  0  0  0
 48 65  1  0  0  0
 48119  1  0  0  0
 49 50  1  0  0  0
 49 53  1  0  0  0
 49 64  1  0  0  0
 49120  1  0  0  0
 50 51  1  0  0  0
 50121  1  0  0  0
 50122  1  0  0  0
 51 52  1  0  0  0
 51123  1  0  0  0
 51124  1  0  0  0
 52125  1  0  0  0
 52126  1  0  0  0
 53 54  1  0  0  0
 54 55  2  0  0  0
 54127  1  0  0  0
 55 57  1  0  0  0
 55128  1  0  0  0
 56 69  2  0  0  0
 57 58  2  0  0  0
 57129  1  0  0  0
 58130  1  0  0  0
 59 60  1  0  0  0
 59 61  1  0  0  0
 59 62  1  0  0  0
 60131  1  0  0  0
 60132  1  0  0  0
 60133  1  0  0  0
 61134  1  0  0  0
 61135  1  0  0  0
 61136  1  0  0  0
 62137  1  0  0  0
 62138  1  0  0  0
 62139  1  0  0  0
 63 65  1  0  0  0
 63140  1  0  0  0
 63141  1  0  0  0
 63142  1  0  0  0
 64143  1  0  0  0
 65144  1  0  0  0
 68 81  1  0  0  0
 71 72  2  0  0  0
 71 74  1  0  0  0
 71145  1  0  0  0
 72 75  1  0  0  0
 72146  1  0  0  0
 73 75  2  0  0  0
 73 76  1  0  0  0
 73147  1  0  0  0
 74 76  2  0  0  0
 74 77  1  0  0  0
 75 84  1  0  0  0
 76 85  1  0  0  0
 77148  1  0  0  0
 77149  1  0  0  0
 77150  1  0  0  0
 78151  1  0  0  0
 78152  1  0  0  0
 78153  1  0  0  0
 78 83  1  0  0  0
 79 80  1  0  0  0
 79154  1  0  0  0
 79155  1  0  0  0
 80 85  1  0  0  0
 80156  1  0  0  0
 80157  1  0  0  0
 81 83  1  0  0  0
 81158  1  0  0  0
 81159  1  0  0  0
 82 83  1  0  0  0
 82 84  1  0  0  0
 82160  1  0  0  0
 82161  1  0  0  0
 83162  1  0  0  0
M  ISO  4   1 100  68 101  79 100  81 101
M  END
> <chiral flag>
0

> <version>
0

> <s_m_source_file>
/data/baiqing/PycharmProjects/Reinvent-master-3.2/result/LINK_invent/BTK/process_docking_weight1_custom_product_contain_oxygen_bond_distance_aromatic_linkinvent_7_9_3/rearranged_h_0127.sdf

> <i_m_source_file_index>
12

> <r_mmod_Potential_Energy-OPLS-2005>
-7.81963539123535

> <r_mmod_Stretch_Energy-OPLS-2005>
40.0400657653809

> <r_mmod_Bend_Energy-OPLS-2005>
108.837432861328

> <r_mmod_Torsional_Energy-OPLS-2005>
229.201263427734

> <r_mmod_Improper_Torsional_Energy-OPLS-2005>
1.88801753520966

> <r_mmod_Van_der_Waal_Energy-OPLS-2005>
147.63639831543

> <r_mmod_Electrostatic_Energy-OPLS-2005>
-345.262664794922

> <r_mmod_Solvation_Energy-OPLS-2005>
-199.985794067383

> <b_mmod_Minimization_Converged-OPLS-2005>
0

> <r_mmod_RMS_Derivative-OPLS-2005>
2.65426921844482

$$$$
12
                    3D
 Structure written by MMmdl.
160168  0  0  1  0            999 V2000
  -30.7263  -14.4737   20.5792 C   0  0  0  0  0  0
  -30.4166  -12.3139   19.4237 C   0  0  0  0  0  0
  -29.4917  -12.5090   18.2061 C   0  0  0  0  0  0
  -28.0146  -12.3663   18.6205 C   0  0  0  0  0  0
  -27.6594  -13.2134   19.8720 C   0  0  2  0  0  0
  -28.7023  -13.0153   20.9955 C   0  0  0  0  0  0
  -25.2575  -13.8173   20.5673 C   0  0  0  0  0  0
  -24.1840  -13.0444   20.9189 C   0  0  0  0  0  0
  -24.6403  -11.6914   20.8742 C   0  0  0  0  0  0
  -23.9070  -10.4295   21.0405 C   0  0  0  0  0  0
  -24.3620   -9.4208   21.9181 C   0  0  0  0  0  0
  -23.6296   -8.2244   22.0754 C   0  0  0  0  0  0
  -22.4276   -8.0283   21.3547 C   0  0  0  0  0  0
  -21.9911   -9.0256   20.4649 C   0  0  0  0  0  0
  -22.7242  -10.2135   20.3056 C   0  0  0  0  0  0
  -21.6854   -6.0735   22.5283 C   0  0  0  0  0  0
  -21.4013   -6.5640   23.8216 C   0  0  0  0  0  0
  -21.3657   -5.6790   24.9176 C   0  0  0  0  0  0
  -21.6042   -4.3052   24.7226 C   0  0  0  0  0  0
  -21.8818   -3.8146   23.4346 C   0  0  0  0  0  0
  -21.9192   -4.6963   22.3403 C   0  0  0  0  0  0
  -22.7861  -13.5236   21.1847 C   0  0  0  0  0  0
  -22.1661   -4.2148   21.0982 F   0  0  0  0  0  0
  -21.5625   -3.4534   25.7737 F   0  0  0  0  0  0
  -30.0325  -13.3102   20.4378 N   0  0  0  0  0  0
  -26.3018  -12.9359   20.3357 N   0  0  0  0  0  0
  -25.9332  -11.6512   20.5774 N   0  0  0  0  0  0
  -22.0500  -12.8228   22.0402 N   0  0  0  0  0  0
  -25.4280  -15.1884   20.4032 N   0  0  0  0  0  0
  -31.8524  -14.6287   20.0990 O   0  0  0  0  0  0
  -21.6641   -6.8878   21.4244 O   0  0  0  0  0  0
  -22.3543  -14.5543   20.6698 O   0  0  0  0  0  0
  -24.6177  -31.8680   23.2112 C   0  0  0  0  0  0
  -25.9069  -32.4819   23.8405 C   0  0  1  0  0  0
  -27.2207  -27.4064   20.0933 C   0  0  0  0  0  0
  -25.5927  -33.8618   24.2334 N   0  0  0  0  0  0
  -23.4054  -30.4958   21.5530 C   0  0  2  0  0  0
  -24.8480  -28.9678   20.1109 C   0  0  0  0  0  0
  -22.7427  -29.4670   22.4982 C   0  0  0  0  0  0
  -18.0273  -28.1381   22.8494 C   0  0  0  0  0  0
  -24.1488  -36.7303   23.2630 C   0  0  0  0  0  0
  -25.9399  -30.8250   21.3704 C   0  0  0  0  0  0
  -26.0135  -29.4609   20.7106 C   0  0  0  0  0  0
  -27.2030  -28.6889   20.6983 C   0  0  0  0  0  0
  -26.0323  -26.9507   19.4694 C   0  0  0  0  0  0
  -24.8541  -27.7132   19.4861 C   0  0  0  0  0  0
  -23.6128  -29.8369   20.1650 C   0  0  0  0  0  0
  -25.4104  -36.3104   24.0341 C   0  0  1  0  0  0
  -20.5868  -28.3673   23.1308 C   0  0  2  0  0  0
  -20.6768  -26.9411   22.5411 C   0  0  0  0  0  0
  -19.5744  -26.6389   21.5212 C   0  0  0  0  0  0
  -18.1923  -26.7928   22.1626 C   0  0  0  0  0  0
  -19.1523  -28.8845   23.2896 C   0  0  0  0  0  0
  -18.9451  -30.1451   23.8906 C   0  0  0  0  0  0
  -17.6454  -30.6587   24.0566 C   0  0  0  0  0  0
  -25.9046  -34.9475   23.5131 C   0  0  0  0  0  0
  -16.5343  -29.9089   23.6331 C   0  0  0  0  0  0
  -16.7262  -28.6505   23.0353 C   0  0  0  0  0  0
  -26.4484  -31.6598   25.0736 C   0  0  0  0  0  0
  -25.3749  -31.3718   26.1489 C   0  0  0  0  0  0
  -27.0302  -30.3028   24.6131 C   0  0  0  0  0  0
  -27.6066  -32.4314   25.7489 C   0  0  0  0  0  0
  -27.5599  -37.1777   24.8444 C   0  0  0  0  0  0
  -21.4152  -29.3041   22.3718 N   0  0  0  0  0  0
  -26.4274  -37.3806   23.9445 N   0  0  0  0  0  0
  -24.6729  -31.0770   22.1026 N   0  0  0  0  0  0
  -23.4194  -28.8205   23.3021 O   0  0  0  0  0  0
  -28.3645  -26.6179   20.1381 O   0  0  0  0  0  0
  -26.5599  -34.8931   22.4686 O   0  0  0  0  0  0
  -23.5365  -32.1444   23.7494 O   0  0  0  0  0  0
  -31.8238  -17.0858   21.8287 C   0  0  0  0  0  0
  -31.5267  -19.4933   21.6051 C   0  0  0  0  0  0
  -29.7269  -17.9785   20.9388 C   0  0  0  0  0  0
  -30.5368  -16.8543   21.2916 C   0  0  0  0  0  0
  -30.2242  -19.3120   21.0781 C   0  0  0  0  0  0
  -32.3141  -18.3925   21.9811 C   0  0  0  0  0  0
  -28.3304  -17.4197   18.8874 C   0  0  0  0  0  0
  -28.3234  -17.7569   20.3844 C   0  0  0  0  0  0
  -29.2807  -24.2584   20.4627 C   0  0  0  0  0  0
  -28.8816  -22.7571   20.3288 C   0  0  0  0  0  0
  -28.1580  -25.1967   19.9570 C   0  0  0  0  0  0
  -29.9241  -21.7290   20.8307 C   0  0  0  0  0  0
  -30.0600  -15.5046   21.1458 N   0  0  0  0  0  0
  -29.4261  -20.3849   20.6907 O   0  0  0  0  0  0
  -33.5529  -18.5932   22.4915 F   0  0  0  0  0  0
  -31.4617  -12.4005   19.1206 H   0  0  0  0  0  0
  -30.3094  -11.3065   19.8288 H   0  0  0  0  0  0
  -29.7332  -11.7835   17.4280 H   0  0  0  0  0  0
  -29.6581  -13.4948   17.7688 H   0  0  0  0  0  0
  -27.8292  -11.3110   18.8232 H   0  0  0  0  0  0
  -27.3617  -12.6329   17.7885 H   0  0  0  0  0  0
  -27.6974  -14.2589   19.5649 H   0  0  0  0  0  0
  -28.6789  -11.9873   21.3594 H   0  0  0  0  0  0
  -28.4652  -13.6366   21.8601 H   0  0  0  0  0  0
  -25.2769   -9.5682   22.4752 H   0  0  0  0  0  0
  -24.0006   -7.4633   22.7472 H   0  0  0  0  0  0
  -21.0842   -8.8776   19.8955 H   0  0  0  0  0  0
  -22.3703  -10.9672   19.6162 H   0  0  0  0  0  0
  -21.2005   -7.6146   23.9721 H   0  0  0  0  0  0
  -21.1476   -6.0517   25.9080 H   0  0  0  0  0  0
  -22.0595   -2.7607   23.2846 H   0  0  0  0  0  0
  -22.4111  -11.9885   22.4786 H   0  0  0  0  0  0
  -21.1123  -13.1264   22.2615 H   0  0  0  0  0  0
  -24.6551  -15.8385   20.4936 H   0  0  0  0  0  0
  -26.2657  -15.6174   20.0342 H   0  0  0  0  0  0
  -26.7137  -32.5514   23.1162 H   0  0  0  0  0  0
  -25.0111  -33.9784   25.0501 H   0  0  0  0  0  0
  -22.6954  -31.3143   21.4182 H   0  0  0  0  0  0
  -23.3774  -35.9606   23.3235 H   0  0  0  0  0  0
  -24.3608  -36.8971   22.2057 H   0  0  0  0  0  0
  -23.7200  -37.6476   23.6674 H   0  0  0  0  0  0
  -26.0615  -31.5942   20.6065 H   0  0  0  0  0  0
  -26.8249  -30.8702   21.9935 H   0  0  0  0  0  0
  -28.0984  -29.0625   21.1752 H   0  0  0  0  0  0
  -25.9812  -25.9981   18.9639 H   0  0  0  0  0  0
  -23.9606  -27.3306   19.0119 H   0  0  0  0  0  0
  -23.7223  -30.6158   19.4093 H   0  0  0  0  0  0
  -22.7351  -29.2606   19.8667 H   0  0  0  0  0  0
  -25.1262  -36.1954   25.0828 H   0  0  0  0  0  0
  -20.9958  -28.3235   24.1430 H   0  0  0  0  0  0
  -20.5682  -26.2283   23.3598 H   0  0  0  0  0  0
  -21.6636  -26.7462   22.1194 H   0  0  0  0  0  0
  -19.6908  -25.6304   21.1238 H   0  0  0  0  0  0
  -19.6682  -27.3204   20.6745 H   0  0  0  0  0  0
  -17.4196  -26.6681   21.4023 H   0  0  0  0  0  0
  -18.0319  -26.0064   22.9015 H   0  0  0  0  0  0
  -19.7928  -30.7263   24.2279 H   0  0  0  0  0  0
  -17.5010  -31.6270   24.5162 H   0  0  0  0  0  0
  -15.5345  -30.2994   23.7654 H   0  0  0  0  0  0
  -15.8660  -28.0828   22.7065 H   0  0  0  0  0  0
  -24.5904  -30.7085   25.7830 H   0  0  0  0  0  0
  -24.8963  -32.2878   26.4957 H   0  0  0  0  0  0
  -25.8098  -30.8870   27.0236 H   0  0  0  0  0  0
  -26.2843  -29.6799   24.1179 H   0  0  0  0  0  0
  -27.4048  -29.7263   25.4598 H   0  0  0  0  0  0
  -27.8699  -30.4326   23.9298 H   0  0  0  0  0  0
  -27.2694  -33.3614   26.2078 H   0  0  0  0  0  0
  -28.3862  -32.6873   25.0301 H   0  0  0  0  0  0
  -28.0747  -31.8430   26.5390 H   0  0  0  0  0  0
  -28.2524  -38.0166   24.7639 H   0  0  0  0  0  0
  -28.1188  -36.2713   24.6066 H   0  0  0  0  0  0
  -27.2354  -37.1173   25.8846 H   0  0  0  0  0  0
  -20.9318  -29.8774   21.6947 H   0  0  0  0  0  0
  -26.0155  -38.2860   24.1536 H   0  0  0  0  0  0
  -32.4534  -16.2610   22.1293 H   0  0  0  0  0  0
  -31.9564  -20.4739   21.7381 H   0  0  0  0  0  0
  -27.3154  -17.2792   18.5147 H   0  0  0  0  0  0
  -28.8880  -16.5049   18.6841 H   0  0  0  0  0  0
  -28.7867  -18.2234   18.3089 H   0  0  0  0  0  0
  -27.7087  -18.6411   20.5550 H   0  0  0  0  0  0
  -27.8332  -16.9620   20.9465 H   0  0  0  0  0  0
  -30.1992  -24.4526   19.9078 H   0  0  0  0  0  0
  -29.4945  -24.4842   21.5077 H   0  0  0  0  0  0
  -28.6574  -22.5418   19.2835 H   0  0  0  0  0  0
  -27.9506  -22.5910   20.8722 H   0  0  0  0  0  0
  -27.2527  -24.8955   20.4878 H   0  0  0  0  0  0
  -27.9924  -24.9988   18.8970 H   0  0  0  0  0  0
  -30.1503  -21.9296   21.8790 H   0  0  0  0  0  0
  -30.8459  -21.8477   20.2593 H   0  0  0  0  0  0
  -29.0934  -15.3291   21.3728 H   0  0  0  0  0  0
  1 25  1  0  0  0
  1 30  2  0  0  0
  1 83  1  0  0  0
  2  3  1  0  0  0
  2 25  1  0  0  0
  2 86  1  0  0  0
  2 87  1  0  0  0
  3  4  1  0  0  0
  3 88  1  0  0  0
  3 89  1  0  0  0
  4  5  1  0  0  0
  4 90  1  0  0  0
  4 91  1  0  0  0
  5  6  1  0  0  0
  5 26  1  0  0  0
  5 92  1  0  0  0
  6 25  1  0  0  0
  6 93  1  0  0  0
  6 94  1  0  0  0
  7  8  2  0  0  0
  7 26  1  0  0  0
  7 29  1  0  0  0
  8  9  1  0  0  0
  8 22  1  0  0  0
  9 10  1  0  0  0
  9 27  2  0  0  0
 10 11  2  0  0  0
 10 15  1  0  0  0
 11 12  1  0  0  0
 11 95  1  0  0  0
 12 13  2  0  0  0
 12 96  1  0  0  0
 13 14  1  0  0  0
 13 31  1  0  0  0
 14 15  2  0  0  0
 14 97  1  0  0  0
 15 98  1  0  0  0
 16 17  2  0  0  0
 16 21  1  0  0  0
 16 31  1  0  0  0
 17 18  1  0  0  0
 17 99  1  0  0  0
 18 19  2  0  0  0
 18100  1  0  0  0
 19 20  1  0  0  0
 19 24  1  0  0  0
 20 21  2  0  0  0
 20101  1  0  0  0
 21 23  1  0  0  0
 22 28  1  0  0  0
 22 32  2  0  0  0
 26 27  1  0  0  0
 28102  1  0  0  0
 28103  1  0  0  0
 29104  1  0  0  0
 29105  1  0  0  0
 33 34  1  0  0  0
 33 66  1  0  0  0
 33 70  2  0  0  0
 34 36  1  0  0  0
 34 59  1  0  0  0
 34106  1  0  0  0
 35 44  2  0  0  0
 35 45  1  0  0  0
 35 68  1  0  0  0
 36 56  1  0  0  0
 36107  1  0  0  0
 37 39  1  0  0  0
 37 47  1  0  0  0
 37 66  1  0  0  0
 37108  1  0  0  0
 38 43  2  0  0  0
 38 46  1  0  0  0
 38 47  1  0  0  0
 39 64  1  0  0  0
 39 67  2  0  0  0
 40 52  1  0  0  0
 40 53  2  0  0  0
 40 58  1  0  0  0
 41109  1  0  0  0
 41110  1  0  0  0
 41111  1  0  0  0
 41 48  1  0  0  0
 42 43  1  0  0  0
 42 66  1  0  0  0
 42112  1  0  0  0
 42113  1  0  0  0
 43 44  1  0  0  0
 44114  1  0  0  0
 45 46  2  0  0  0
 45115  1  0  0  0
 46116  1  0  0  0
 47117  1  0  0  0
 47118  1  0  0  0
 48 56  1  0  0  0
 48 65  1  0  0  0
 48119  1  0  0  0
 49 50  1  0  0  0
 49 53  1  0  0  0
 49 64  1  0  0  0
 49120  1  0  0  0
 50 51  1  0  0  0
 50121  1  0  0  0
 50122  1  0  0  0
 51 52  1  0  0  0
 51123  1  0  0  0
 51124  1  0  0  0
 52125  1  0  0  0
 52126  1  0  0  0
 53 54  1  0  0  0
 54 55  2  0  0  0
 54127  1  0  0  0
 55 57  1  0  0  0
 55128  1  0  0  0
 56 69  2  0  0  0
 57 58  2  0  0  0
 57129  1  0  0  0
 58130  1  0  0  0
 59 60  1  0  0  0
 59 61  1  0  0  0
 59 62  1  0  0  0
 60131  1  0  0  0
 60132  1  0  0  0
 60133  1  0  0  0
 61134  1  0  0  0
 61135  1  0  0  0
 61136  1  0  0  0
 62137  1  0  0  0
 62138  1  0  0  0
 62139  1  0  0  0
 63 65  1  0  0  0
 63140  1  0  0  0
 63141  1  0  0  0
 63142  1  0  0  0
 64143  1  0  0  0
 65144  1  0  0  0
 68 81  1  0  0  0
 71 74  2  0  0  0
 71 76  1  0  0  0
 71145  1  0  0  0
 72 75  1  0  0  0
 72 76  2  0  0  0
 72146  1  0  0  0
 73 74  1  0  0  0
 73 75  2  0  0  0
 73 78  1  0  0  0
 74 83  1  0  0  0
 75 84  1  0  0  0
 76 85  1  0  0  0
 77 78  1  0  0  0
 77147  1  0  0  0
 77148  1  0  0  0
 77149  1  0  0  0
 78150  1  0  0  0
 78151  1  0  0  0
 79 80  1  0  0  0
 79 81  1  0  0  0
 79152  1  0  0  0
 79153  1  0  0  0
 80 82  1  0  0  0
 80154  1  0  0  0
 80155  1  0  0  0
 81156  1  0  0  0
 81157  1  0  0  0
 82 84  1  0  0  0
 82158  1  0  0  0
 82159  1  0  0  0
 83160  1  0  0  0
M  ISO  4   1 100  68 101  81 101  83 100
M  END
> <chiral flag>
0

> <version>
0

> <s_m_source_file>
/data/baiqing/PycharmProjects/Reinvent-master-3.2/result/LINK_invent/BTK/process_docking_weight1_custom_product_contain_oxygen_bond_distance_aromatic_linkinvent_7_9_3/rearranged_h_0127.sdf

> <i_m_source_file_index>
13

> <r_mmod_Potential_Energy-OPLS-2005>
-21.7614707946777

> <r_mmod_Stretch_Energy-OPLS-2005>
44.985221862793

> <r_mmod_Bend_Energy-OPLS-2005>
99.7718276977539

> <r_mmod_Torsional_Energy-OPLS-2005>
214.068618774414

> <r_mmod_Improper_Torsional_Energy-OPLS-2005>
3.50429797172546

> <r_mmod_Van_der_Waal_Energy-OPLS-2005>
158.376586914062

> <r_mmod_Electrostatic_Energy-OPLS-2005>
-358.067810058594

> <r_mmod_Solvation_Energy-OPLS-2005>
-201.722412109375

> <b_mmod_Minimization_Converged-OPLS-2005>
0

> <r_mmod_RMS_Derivative-OPLS-2005>
0.604870319366455

$$$$
13
                    3D
 Structure written by MMmdl.
156164  0  0  1  0            999 V2000
  -27.2857  -17.4476   20.8934 C   0  0  0  0  0  0
  -29.2808  -14.9553   19.8141 C   0  0  0  0  0  0
  -29.2795  -13.6120   18.7951 C   0  0  0  0  0  0
  -28.2313  -12.5626   19.1381 C   0  0  0  0  0  0
  -27.2844  -13.4360   19.9315 C   0  0  2  0  0  0
  -27.7835  -14.3309   21.1250 C   0  0  0  0  0  0
  -25.0069  -13.7984   20.5272 C   0  0  0  0  0  0
  -24.0181  -12.9933   20.9356 C   0  0  0  0  0  0
  -24.5431  -11.6634   20.8953 C   0  0  0  0  0  0
  -23.8551  -10.3983   21.0548 C   0  0  0  0  0  0
  -24.3325   -9.4010   21.9282 C   0  0  0  0  0  0
  -23.6127   -8.1998   22.0783 C   0  0  0  0  0  0
  -22.4129   -8.0019   21.3531 C   0  0  0  0  0  0
  -21.9642   -8.9911   20.4626 C   0  0  0  0  0  0
  -22.6835  -10.1818   20.3088 C   0  0  0  0  0  0
  -21.6777   -6.0578   22.5296 C   0  0  0  0  0  0
  -21.3949   -6.5550   23.8203 C   0  0  0  0  0  0
  -21.3643   -5.6748   24.9197 C   0  0  0  0  0  0
  -21.6053   -4.3008   24.7277 C   0  0  0  0  0  0
  -21.8836   -3.8052   23.4417 C   0  0  0  0  0  0
  -21.9162   -4.6826   22.3446 C   0  0  0  0  0  0
  -22.6386  -13.4687   21.2155 C   0  0  0  0  0  0
  -22.1656   -4.2025   21.1022 F   0  0  0  0  0  0
  -21.5640   -3.4522   25.7803 F   0  0  0  0  0  0
  -27.9250  -15.7833   20.5895 N   0  0  0  0  0  0
  -26.0551  -12.9456   20.3085 N   0  0  0  0  0  0
  -25.8299  -11.6519   20.5794 N   0  0  0  0  0  0
  -21.9307  -12.7765   22.0922 N   0  0  0  0  0  0
  -25.0877  -15.1754   20.3132 N   0  0  0  0  0  0
  -28.6374  -17.4887   20.7236 O   0  0  0  0  0  0
  -21.6530   -6.8635   21.4230 O   0  0  0  0  0  0
  -22.2141  -14.5048   20.7033 O   0  0  0  0  0  0
  -24.6570  -32.1147   22.9698 C   0  0  0  0  0  0
  -25.9386  -32.5645   23.7657 C   0  0  1  0  0  0
  -26.2857  -27.5312   21.2405 C   0  0  0  0  0  0
  -25.6241  -33.9128   24.2165 N   0  0  0  0  0  0
  -23.5205  -30.7687   21.0651 C   0  0  2  0  0  0
  -25.0489  -29.2632   19.7184 C   0  0  0  0  0  0
  -23.3770  -29.4936   21.8268 C   0  0  0  0  0  0
  -19.4527  -25.7090   23.4633 C   0  0  0  0  0  0
  -24.1491  -36.7635   23.2644 C   0  0  0  0  0  0
  -26.0377  -31.1496   21.0988 C   0  0  0  0  0  0
  -26.0911  -29.7226   20.5522 C   0  0  0  0  0  0
  -26.9155  -28.7785   21.1685 C   0  0  0  0  0  0
  -25.8021  -26.9973   20.0158 C   0  0  0  0  0  0
  -25.0230  -27.9135   19.2906 C   0  0  0  0  0  0
  -23.8341  -30.1838   19.6589 C   0  0  0  0  0  0
  -25.4107  -36.3456   24.0346 C   0  0  1  0  0  0
  -22.0033  -27.0920   22.5581 C   0  0  2  0  0  0
  -22.3325  -26.4653   21.0116 C   0  0  0  0  0  0
  -21.4002  -25.7157   19.8829 C   0  0  0  0  0  0
  -20.3115  -24.6752   20.4571 C   0  0  0  0  0  0
  -20.3813  -26.9279   23.8760 C   0  0  0  0  0  0
  -19.6526  -28.1182   24.7047 C   0  0  0  0  0  0
  -18.4342  -28.8875   24.3910 C   0  0  0  0  0  0
  -25.9136  -35.0003   23.5003 C   0  0  0  0  0  0
  -17.5449  -28.0289   23.7653 C   0  0  0  0  0  0
  -18.0154  -26.5959   23.5997 C   0  0  0  0  0  0
  -26.4339  -31.6961   25.0060 C   0  0  0  0  0  0
  -25.3518  -31.3837   26.0599 C   0  0  0  0  0  0
  -27.0590  -30.3646   24.5456 C   0  0  0  0  0  0
  -27.5781  -32.4499   25.7341 C   0  0  0  0  0  0
  -27.5629  -37.1981   24.8454 C   0  0  0  0  0  0
  -22.6214  -28.3549   21.6315 N   0  0  0  0  0  0
  -26.4276  -37.4128   23.9505 N   0  0  0  0  0  0
  -24.7270  -31.5386   21.6938 N   0  0  0  0  0  0
  -24.1661  -29.5665   22.6917 O   0  0  0  0  0  0
  -25.6446  -27.1032   22.4892 O   0  0  0  0  0  0
  -26.5560  -34.9545   22.4474 O   0  0  0  0  0  0
  -23.5683  -32.2570   23.5557 O   0  0  0  0  0  0
  -18.4525  -25.3492   21.4442 C   0  0  0  0  0  0
  -18.8915  -23.6970   21.9950 C   0  0  0  0  0  0
  -21.3853  -24.6532   22.3689 C   0  0  0  0  0  0
  -19.9213  -26.4775   21.5389 C   0  0  0  0  0  0
  -22.0690  -22.7559   21.9631 C   0  0  0  0  0  0
  -20.3551  -22.7088   22.0941 C   0  0  0  0  0  0
  -20.0138  -28.3778   21.9253 C   0  0  0  0  0  0
  -24.1431  -20.8186   21.5639 C   0  0  0  0  0  0
  -25.3879  -19.0832   21.2967 C   0  0  0  0  0  0
  -20.9093  -29.2586   22.9650 C   0  0  0  0  0  0
  -19.9282  -21.2574   22.1908 C   0  0  0  0  0  0
  -22.5196  -28.7168   24.1843 C   0  0  0  0  0  0
  -24.3825  -27.5933   23.7882 C   0  0  0  0  0  0
  -29.6921  -15.7386   19.1751 H   0  0  0  0  0  0
  -30.0932  -14.8474   20.5395 H   0  0  0  0  0  0
  -30.2719  -13.1624   18.7414 H   0  0  0  0  0  0
  -29.0707  -13.9715   17.7870 H   0  0  0  0  0  0
  -28.6405  -11.7705   19.7650 H   0  0  0  0  0  0
  -27.7647  -12.1178   18.2575 H   0  0  0  0  0  0
  -26.9815  -14.1148   19.1272 H   0  0  0  0  0  0
  -28.6123  -13.8968   21.6953 H   0  0  0  0  0  0
  -27.0443  -14.4194   21.9233 H   0  0  0  0  0  0
  -25.2416   -9.5640   22.4903 H   0  0  0  0  0  0
  -23.9867   -7.4400   22.7503 H   0  0  0  0  0  0
  -21.0579   -8.8325   19.8947 H   0  0  0  0  0  0
  -22.3208  -10.9356   19.6238 H   0  0  0  0  0  0
  -21.1930   -7.6063   23.9663 H   0  0  0  0  0  0
  -21.1457   -6.0499   25.9087 H   0  0  0  0  0  0
  -22.0635   -2.7518   23.2953 H   0  0  0  0  0  0
  -22.3013  -11.9440   22.5260 H   0  0  0  0  0  0
  -21.0013  -13.0838   22.3405 H   0  0  0  0  0  0
  -24.2400  -15.7321   20.2937 H   0  0  0  0  0  0
  -25.8384  -15.5548   19.7544 H   0  0  0  0  0  0
  -26.8031  -32.6640   23.1159 H   0  0  0  0  0  0
  -25.0343  -34.0034   25.0294 H   0  0  0  0  0  0
  -22.6084  -31.3638   21.0801 H   0  0  0  0  0  0
  -23.3758  -35.9962   23.3238 H   0  0  0  0  0  0
  -24.3620  -36.9343   22.2084 H   0  0  0  0  0  0
  -23.7241  -37.6814   23.6702 H   0  0  0  0  0  0
  -26.2432  -31.8327   20.2730 H   0  0  0  0  0  0
  -26.8971  -31.2378   21.7519 H   0  0  0  0  0  0
  -27.4718  -29.1211   22.0259 H   0  0  0  0  0  0
  -25.4848  -25.9664   19.9464 H   0  0  0  0  0  0
  -24.2740  -27.5572   18.5980 H   0  0  0  0  0  0
  -24.0637  -30.9958   18.9689 H   0  0  0  0  0  0
  -22.9785  -29.6596   19.2262 H   0  0  0  0  0  0
  -25.1283  -36.2198   25.0826 H   0  0  0  0  0  0
  -22.7054  -26.5224   23.0676 H   0  0  0  0  0  0
  -23.1277  -25.7432   21.2206 H   0  0  0  0  0  0
  -22.9841  -26.9087   20.2488 H   0  0  0  0  0  0
  -22.0412  -25.1849   19.1765 H   0  0  0  0  0  0
  -20.9118  -26.4637   19.2533 H   0  0  0  0  0  0
  -19.5737  -24.6427   19.6358 H   0  0  0  0  0  0
  -20.7796  -23.7401   20.1572 H   0  0  0  0  0  0
  -20.2701  -28.7315   25.3413 H   0  0  0  0  0  0
  -18.1744  -29.8563   24.7944 H   0  0  0  0  0  0
  -16.5101  -28.3066   23.6253 H   0  0  0  0  0  0
  -17.1443  -25.9893   23.3858 H   0  0  0  0  0  0
  -24.5385  -30.7957   25.6409 H   0  0  0  0  0  0
  -24.9268  -32.2969   26.4762 H   0  0  0  0  0  0
  -25.7645  -30.8059   26.8879 H   0  0  0  0  0  0
  -27.4058  -29.7693   25.3937 H   0  0  0  0  0  0
  -27.9242  -30.5429   23.9055 H   0  0  0  0  0  0
  -26.3584  -29.7577   23.9828 H   0  0  0  0  0  0
  -27.2323  -33.3793   26.1884 H   0  0  0  0  0  0
  -28.3865  -32.7108   25.0478 H   0  0  0  0  0  0
  -28.0124  -31.8519   26.5369 H   0  0  0  0  0  0
  -28.2556  -38.0373   24.7662 H   0  0  0  0  0  0
  -28.1209  -36.2929   24.5990 H   0  0  0  0  0  0
  -27.2421  -37.1328   25.8869 H   0  0  0  0  0  0
  -22.1193  -28.4083   20.7593 H   0  0  0  0  0  0
  -26.0178  -38.3183   24.1627 H   0  0  0  0  0  0
  -17.4353  -25.6823   21.2849 H   0  0  0  0  0  0
  -18.0013  -23.0931   22.1033 H   0  0  0  0  0  0
  -22.1056  -24.8104   23.1439 H   0  0  0  0  0  0
  -19.2790  -28.9402   21.3646 H   0  0  0  0  0  0
  -24.9295  -21.5316   21.3590 H   0  0  0  0  0  0
  -24.6260  -18.3354   21.4661 H   0  0  0  0  0  0
  -20.6780  -30.3130   23.0189 H   0  0  0  0  0  0
  -19.2920  -21.1008   23.0610 H   0  0  0  0  0  0
  -20.7803  -20.5804   22.2614 H   0  0  0  0  0  0
  -19.3625  -20.9780   21.3006 H   0  0  0  0  0  0
  -22.1861  -28.2297   25.0946 H   0  0  0  0  0  0
  -22.8084  -29.6744   24.6221 H   0  0  0  0  0  0
  -24.2777  -26.6433   24.3161 H   0  0  0  0  0  0
  -25.0543  -28.0728   24.5006 H   0  0  0  0  0  0
  1 25  1  0  0  0
  1 30  2  0  0  0
  1 79  1  0  0  0
  2  3  1  0  0  0
  2 25  1  0  0  0
  2 84  1  0  0  0
  2 85  1  0  0  0
  3  4  1  0  0  0
  3 86  1  0  0  0
  3 87  1  0  0  0
  4  5  1  0  0  0
  4 88  1  0  0  0
  4 89  1  0  0  0
  5  6  1  0  0  0
  5 26  1  0  0  0
  5 90  1  0  0  0
  6 25  1  0  0  0
  6 91  1  0  0  0
  6 92  1  0  0  0
  7  8  2  0  0  0
  7 26  1  0  0  0
  7 29  1  0  0  0
  8  9  1  0  0  0
  8 22  1  0  0  0
  9 10  1  0  0  0
  9 27  2  0  0  0
 10 11  2  0  0  0
 10 15  1  0  0  0
 11 12  1  0  0  0
 11 93  1  0  0  0
 12 13  2  0  0  0
 12 94  1  0  0  0
 13 14  1  0  0  0
 13 31  1  0  0  0
 14 15  2  0  0  0
 14 95  1  0  0  0
 15 96  1  0  0  0
 16 17  2  0  0  0
 16 21  1  0  0  0
 16 31  1  0  0  0
 17 18  1  0  0  0
 17 97  1  0  0  0
 18 19  2  0  0  0
 18 98  1  0  0  0
 19 20  1  0  0  0
 19 24  1  0  0  0
 20 21  2  0  0  0
 20 99  1  0  0  0
 21 23  1  0  0  0
 22 28  1  0  0  0
 22 32  2  0  0  0
 26 27  1  0  0  0
 28100  1  0  0  0
 28101  1  0  0  0
 29102  1  0  0  0
 29103  1  0  0  0
 33 34  1  0  0  0
 33 66  1  0  0  0
 33 70  2  0  0  0
 34 36  1  0  0  0
 34 59  1  0  0  0
 34104  1  0  0  0
 35 44  2  0  0  0
 35 45  1  0  0  0
 35 68  1  0  0  0
 36 56  1  0  0  0
 36105  1  0  0  0
 37 39  1  0  0  0
 37 47  1  0  0  0
 37 66  1  0  0  0
 37106  1  0  0  0
 38 43  2  0  0  0
 38 46  1  0  0  0
 38 47  1  0  0  0
 39 64  1  0  0  0
 39 67  2  0  0  0
 40 52  1  0  0  0
 40 53  2  0  0  0
 40 58  1  0  0  0
 41107  1  0  0  0
 41108  1  0  0  0
 41109  1  0  0  0
 41 48  1  0  0  0
 42 43  1  0  0  0
 42 66  1  0  0  0
 42110  1  0  0  0
 42111  1  0  0  0
 43 44  1  0  0  0
 44112  1  0  0  0
 45 46  2  0  0  0
 45113  1  0  0  0
 46114  1  0  0  0
 47115  1  0  0  0
 47116  1  0  0  0
 48 56  1  0  0  0
 48 65  1  0  0  0
 48117  1  0  0  0
 49 50  1  0  0  0
 49 53  1  0  0  0
 49 64  1  0  0  0
 49118  1  0  0  0
 50 51  1  0  0  0
 50119  1  0  0  0
 50120  1  0  0  0
 51 52  1  0  0  0
 51121  1  0  0  0
 51122  1  0  0  0
 52123  1  0  0  0
 52124  1  0  0  0
 53 54  1  0  0  0
 54 55  2  0  0  0
 54125  1  0  0  0
 55 57  1  0  0  0
 55126  1  0  0  0
 56 69  2  0  0  0
 57 58  2  0  0  0
 57127  1  0  0  0
 58128  1  0  0  0
 59 60  1  0  0  0
 59 61  1  0  0  0
 59 62  1  0  0  0
 60129  1  0  0  0
 60130  1  0  0  0
 60131  1  0  0  0
 61132  1  0  0  0
 61133  1  0  0  0
 61134  1  0  0  0
 62135  1  0  0  0
 62136  1  0  0  0
 62137  1  0  0  0
 63 65  1  0  0  0
 63138  1  0  0  0
 63139  1  0  0  0
 63140  1  0  0  0
 64141  1  0  0  0
 65142  1  0  0  0
 68 83  1  0  0  0
 71 72  2  0  0  0
 71 74  1  0  0  0
 71143  1  0  0  0
 72 76  1  0  0  0
 72144  1  0  0  0
 73 74  2  0  0  0
 73 75  1  0  0  0
 73145  1  0  0  0
 74 77  1  0  0  0
 75 76  2  0  0  0
 75 78  1  0  0  0
 76 81  1  0  0  0
 77 80  2  0  0  0
 77146  1  0  0  0
 78 79  2  0  0  0
 78147  1  0  0  0
 79148  1  0  0  0
 80 82  1  0  0  0
 80149  1  0  0  0
 81150  1  0  0  0
 81151  1  0  0  0
 81152  1  0  0  0
 82 83  1  0  0  0
 82153  1  0  0  0
 82154  1  0  0  0
 83155  1  0  0  0
 83156  1  0  0  0
M  ISO  4   1 100  68 101  79 100  83 101
M  END
> <chiral flag>
0

> <version>
0

> <s_m_source_file>
/data/baiqing/PycharmProjects/Reinvent-master-3.2/result/LINK_invent/BTK/process_docking_weight1_custom_product_contain_oxygen_bond_distance_aromatic_linkinvent_7_9_3/rearranged_h_0127.sdf

> <i_m_source_file_index>
14

> <r_mmod_Potential_Energy-OPLS-2005>
40895.8125

> <r_mmod_Stretch_Energy-OPLS-2005>
18270.060546875

> <r_mmod_Bend_Energy-OPLS-2005>
2685.6279296875

> <r_mmod_Torsional_Energy-OPLS-2005>
806.054260253906

> <r_mmod_Improper_Torsional_Energy-OPLS-2005>
87.2986373901367

> <r_mmod_Van_der_Waal_Energy-OPLS-2005>
4416.07421875

> <r_mmod_Electrostatic_Energy-OPLS-2005>
-320.570770263672

> <r_mmod_Solvation_Energy-OPLS-2005>
-175.084106445312

> <b_mmod_Minimization_Converged-OPLS-2005>
0

> <r_mmod_RMS_Derivative-OPLS-2005>
8.44067192077637

$$$$
14
                    3D
 Structure written by MMmdl.
152160  0  0  1  0            999 V2000
  -30.6768  -14.5573   20.4728 C   0  0  0  0  0  0
  -30.4124  -12.3232   19.4655 C   0  0  0  0  0  0
  -29.4997  -12.4738   18.2278 C   0  0  0  0  0  0
  -28.0166  -12.3358   18.6292 C   0  0  0  0  0  0
  -27.6458  -13.2117   19.8571 C   0  0  2  0  0  0
  -28.6862  -13.0669   20.9896 C   0  0  0  0  0  0
  -25.2498  -13.8180   20.5709 C   0  0  0  0  0  0
  -24.1769  -13.0439   20.9205 C   0  0  0  0  0  0
  -24.6348  -11.6909   20.8763 C   0  0  0  0  0  0
  -23.9040  -10.4278   21.0414 C   0  0  0  0  0  0
  -24.3595   -9.4190   21.9185 C   0  0  0  0  0  0
  -23.6265   -8.2238   22.0766 C   0  0  0  0  0  0
  -22.4230   -8.0298   21.3577 C   0  0  0  0  0  0
  -21.9860   -9.0278   20.4680 C   0  0  0  0  0  0
  -22.7203  -10.2148   20.3074 C   0  0  0  0  0  0
  -21.6841   -6.0734   22.5283 C   0  0  0  0  0  0
  -21.4014   -6.5630   23.8228 C   0  0  0  0  0  0
  -21.3666   -5.6791   24.9195 C   0  0  0  0  0  0
  -21.6028   -4.3056   24.7237 C   0  0  0  0  0  0
  -21.8814   -3.8139   23.4363 C   0  0  0  0  0  0
  -21.9180   -4.6956   22.3409 C   0  0  0  0  0  0
  -22.7797  -13.5249   21.1855 C   0  0  0  0  0  0
  -22.1644   -4.2147   21.0992 F   0  0  0  0  0  0
  -21.5626   -3.4542   25.7750 F   0  0  0  0  0  0
  -30.0112  -13.3640   20.4308 N   0  0  0  0  0  0
  -26.2919  -12.9356   20.3306 N   0  0  0  0  0  0
  -25.9250  -11.6514   20.5734 N   0  0  0  0  0  0
  -22.0413  -12.8312   22.0447 N   0  0  0  0  0  0
  -25.4219  -15.1905   20.4157 N   0  0  0  0  0  0
  -31.8664  -14.6180   20.1491 O   0  0  0  0  0  0
  -21.6626   -6.8874   21.4245 O   0  0  0  0  0  0
  -22.3512  -14.5557   20.6682 O   0  0  0  0  0  0
  -24.6228  -31.8642   23.2080 C   0  0  0  0  0  0
  -25.9091  -32.4803   23.8389 C   0  0  1  0  0  0
  -27.2132  -27.3487   20.1044 C   0  0  0  0  0  0
  -25.5920  -33.8600   24.2299 N   0  0  0  0  0  0
  -23.4135  -30.4927   21.5513 C   0  0  2  0  0  0
  -24.8568  -28.9616   20.1153 C   0  0  0  0  0  0
  -22.7456  -29.4646   22.4957 C   0  0  0  0  0  0
  -18.0292  -28.1379   22.8522 C   0  0  0  0  0  0
  -24.1482  -36.7309   23.2639 C   0  0  0  0  0  0
  -25.9563  -30.8039   21.3794 C   0  0  0  0  0  0
  -26.0289  -29.4371   20.7149 C   0  0  0  0  0  0
  -27.2111  -28.6416   20.7033 C   0  0  0  0  0  0
  -26.0098  -26.9269   19.4806 C   0  0  0  0  0  0
  -24.8449  -27.7075   19.4964 C   0  0  0  0  0  0
  -23.6270  -29.8378   20.1642 C   0  0  0  0  0  0
  -25.4108  -36.3087   24.0322 C   0  0  1  0  0  0
  -20.5888  -28.3679   23.1319 C   0  0  2  0  0  0
  -20.6778  -26.9410   22.5430 C   0  0  0  0  0  0
  -19.5744  -26.6384   21.5237 C   0  0  0  0  0  0
  -18.1925  -26.7933   22.1648 C   0  0  0  0  0  0
  -19.1541  -28.8846   23.2919 C   0  0  0  0  0  0
  -18.9466  -30.1455   23.8921 C   0  0  0  0  0  0
  -17.6461  -30.6590   24.0569 C   0  0  0  0  0  0
  -25.9055  -34.9461   23.5112 C   0  0  0  0  0  0
  -16.5357  -29.9092   23.6327 C   0  0  0  0  0  0
  -16.7276  -28.6503   23.0371 C   0  0  0  0  0  0
  -26.4484  -31.6612   25.0749 C   0  0  0  0  0  0
  -25.3727  -31.3778   26.1491 C   0  0  0  0  0  0
  -27.0318  -30.3023   24.6218 C   0  0  0  0  0  0
  -27.6043  -32.4365   25.7505 C   0  0  0  0  0  0
  -27.5575  -37.1804   24.8460 C   0  0  0  0  0  0
  -21.4174  -29.3037   22.3702 N   0  0  0  0  0  0
  -26.4280  -37.3785   23.9412 N   0  0  0  0  0  0
  -24.6827  -31.0686   22.1033 N   0  0  0  0  0  0
  -23.4200  -28.8179   23.3005 O   0  0  0  0  0  0
  -28.3281  -26.4972   20.1613 O   0  0  0  0  0  0
  -26.5629  -34.8914   22.4675 O   0  0  0  0  0  0
  -23.5403  -32.1447   23.7420 O   0  0  0  0  0  0
  -28.5115  -18.6883   20.5676 C   0  0  0  0  0  0
  -30.7684  -19.5064   20.3110 C   0  0  0  0  0  0
  -28.0382  -20.0203   20.4508 C   0  0  0  0  0  0
  -30.2964  -20.8415   20.1989 C   0  0  0  0  0  0
  -29.8915  -18.3991   20.4741 C   0  0  0  0  0  0
  -28.9121  -21.1219   20.2493 C   0  0  0  0  0  0
  -30.4641  -17.0134   20.4772 C   0  0  0  0  0  0
  -29.8780  -15.7934   20.6575 C   0  0  0  0  0  0
  -28.2865  -22.5198   19.9816 C   0  0  0  0  0  0
  -29.0161  -23.8874   20.2770 C   0  0  0  0  0  0
  -28.0430  -25.0758   19.9260 C   0  0  0  0  0  0
  -31.4612  -12.3931   19.1758 H   0  0  0  0  0  0
  -30.2999  -11.3337   19.9137 H   0  0  0  0  0  0
  -29.7547  -11.7219   17.4802 H   0  0  0  0  0  0
  -29.6690  -13.4424   17.7534 H   0  0  0  0  0  0
  -27.8347  -11.2847   18.8588 H   0  0  0  0  0  0
  -27.3717  -12.5764   17.7830 H   0  0  0  0  0  0
  -27.6665  -14.2442   19.5101 H   0  0  0  0  0  0
  -28.6737  -12.0521   21.3904 H   0  0  0  0  0  0
  -28.4486  -13.7205   21.8294 H   0  0  0  0  0  0
  -25.2742   -9.5677   22.4768 H   0  0  0  0  0  0
  -23.9998   -7.4610   22.7452 H   0  0  0  0  0  0
  -21.0793   -8.8789   19.8986 H   0  0  0  0  0  0
  -22.3639  -10.9702   19.6212 H   0  0  0  0  0  0
  -21.2020   -7.6141   23.9741 H   0  0  0  0  0  0
  -21.1487   -6.0516   25.9106 H   0  0  0  0  0  0
  -22.0575   -2.7593   23.2856 H   0  0  0  0  0  0
  -22.4017  -12.0036   22.4935 H   0  0  0  0  0  0
  -21.1057  -13.1419   22.2647 H   0  0  0  0  0  0
  -24.6575  -15.8439   20.5459 H   0  0  0  0  0  0
  -26.2753  -15.6365   20.1034 H   0  0  0  0  0  0
  -26.7154  -32.5467   23.1132 H   0  0  0  0  0  0
  -24.9985  -33.9772   25.0386 H   0  0  0  0  0  0
  -22.7042  -31.3105   21.4130 H   0  0  0  0  0  0
  -23.3728  -35.9657   23.3309 H   0  0  0  0  0  0
  -24.3580  -36.8933   22.2054 H   0  0  0  0  0  0
  -23.7250  -37.6517   23.6669 H   0  0  0  0  0  0
  -26.0883  -31.5728   20.6174 H   0  0  0  0  0  0
  -26.8362  -30.8442   22.0108 H   0  0  0  0  0  0
  -28.1089  -29.0002   21.1884 H   0  0  0  0  0  0
  -25.9143  -25.9712   18.9888 H   0  0  0  0  0  0
  -23.9406  -27.3321   19.0381 H   0  0  0  0  0  0
  -23.7520  -30.6185   19.4133 H   0  0  0  0  0  0
  -22.7466  -29.2703   19.8566 H   0  0  0  0  0  0
  -25.1275  -36.1937   25.0814 H   0  0  0  0  0  0
  -20.9979  -28.3248   24.1440 H   0  0  0  0  0  0
  -20.5701  -26.2282   23.3621 H   0  0  0  0  0  0
  -21.6645  -26.7460   22.1198 H   0  0  0  0  0  0
  -19.6902  -25.6292   21.1270 H   0  0  0  0  0  0
  -19.6671  -27.3194   20.6767 H   0  0  0  0  0  0
  -17.4195  -26.6716   21.4047 H   0  0  0  0  0  0
  -18.0309  -26.0058   22.9024 H   0  0  0  0  0  0
  -19.7941  -30.7283   24.2286 H   0  0  0  0  0  0
  -17.5017  -31.6273   24.5163 H   0  0  0  0  0  0
  -15.5356  -30.2999   23.7629 H   0  0  0  0  0  0
  -15.8686  -28.0814   22.7082 H   0  0  0  0  0  0
  -24.5793  -30.7273   25.7800 H   0  0  0  0  0  0
  -24.9061  -32.2982   26.5013 H   0  0  0  0  0  0
  -25.8024  -30.8828   27.0206 H   0  0  0  0  0  0
  -26.2905  -29.6790   24.1208 H   0  0  0  0  0  0
  -27.3960  -29.7265   25.4737 H   0  0  0  0  0  0
  -27.8798  -30.4288   23.9482 H   0  0  0  0  0  0
  -27.2604  -33.3594   26.2183 H   0  0  0  0  0  0
  -28.3770  -32.7069   25.0298 H   0  0  0  0  0  0
  -28.0814  -31.8464   26.5338 H   0  0  0  0  0  0
  -28.2593  -38.0097   24.7478 H   0  0  0  0  0  0
  -28.1059  -36.2629   24.6286 H   0  0  0  0  0  0
  -27.2313  -37.1457   25.8870 H   0  0  0  0  0  0
  -20.9340  -29.8766   21.6934 H   0  0  0  0  0  0
  -26.0156  -38.2852   24.1434 H   0  0  0  0  0  0
  -27.7930  -17.8876   20.6841 H   0  0  0  0  0  0
  -31.8322  -19.3282   20.2339 H   0  0  0  0  0  0
  -26.9697  -20.1886   20.4786 H   0  0  0  0  0  0
  -31.0087  -21.6404   20.0344 H   0  0  0  0  0  0
  -31.5240  -17.0140   20.2615 H   0  0  0  0  0  0
  -28.8279  -15.7411   20.8977 H   0  0  0  0  0  0
  -27.3446  -22.5344   20.5346 H   0  0  0  0  0  0
  -27.9932  -22.5168   18.9301 H   0  0  0  0  0  0
  -29.9299  -23.9677   19.6870 H   0  0  0  0  0  0
  -29.3074  -23.9390   21.3270 H   0  0  0  0  0  0
  -27.1296  -24.8421   20.4761 H   0  0  0  0  0  0
  -27.8123  -24.9737   18.8645 H   0  0  0  0  0  0
  1 25  1  0  0  0
  1 30  2  0  0  0
  1 78  1  0  0  0
  2  3  1  0  0  0
  2 25  1  0  0  0
  2 82  1  0  0  0
  2 83  1  0  0  0
  3  4  1  0  0  0
  3 84  1  0  0  0
  3 85  1  0  0  0
  4  5  1  0  0  0
  4 86  1  0  0  0
  4 87  1  0  0  0
  5  6  1  0  0  0
  5 26  1  0  0  0
  5 88  1  0  0  0
  6 25  1  0  0  0
  6 89  1  0  0  0
  6 90  1  0  0  0
  7  8  2  0  0  0
  7 26  1  0  0  0
  7 29  1  0  0  0
  8  9  1  0  0  0
  8 22  1  0  0  0
  9 10  1  0  0  0
  9 27  2  0  0  0
 10 11  2  0  0  0
 10 15  1  0  0  0
 11 12  1  0  0  0
 11 91  1  0  0  0
 12 13  2  0  0  0
 12 92  1  0  0  0
 13 14  1  0  0  0
 13 31  1  0  0  0
 14 15  2  0  0  0
 14 93  1  0  0  0
 15 94  1  0  0  0
 16 17  2  0  0  0
 16 21  1  0  0  0
 16 31  1  0  0  0
 17 18  1  0  0  0
 17 95  1  0  0  0
 18 19  2  0  0  0
 18 96  1  0  0  0
 19 20  1  0  0  0
 19 24  1  0  0  0
 20 21  2  0  0  0
 20 97  1  0  0  0
 21 23  1  0  0  0
 22 28  1  0  0  0
 22 32  2  0  0  0
 26 27  1  0  0  0
 28 98  1  0  0  0
 28 99  1  0  0  0
 29100  1  0  0  0
 29101  1  0  0  0
 33 34  1  0  0  0
 33 66  1  0  0  0
 33 70  2  0  0  0
 34 36  1  0  0  0
 34 59  1  0  0  0
 34102  1  0  0  0
 35 44  2  0  0  0
 35 45  1  0  0  0
 35 68  1  0  0  0
 36 56  1  0  0  0
 36103  1  0  0  0
 37 39  1  0  0  0
 37 47  1  0  0  0
 37 66  1  0  0  0
 37104  1  0  0  0
 38 43  2  0  0  0
 38 46  1  0  0  0
 38 47  1  0  0  0
 39 64  1  0  0  0
 39 67  2  0  0  0
 40 52  1  0  0  0
 40 53  2  0  0  0
 40 58  1  0  0  0
 41105  1  0  0  0
 41106  1  0  0  0
 41107  1  0  0  0
 41 48  1  0  0  0
 42 43  1  0  0  0
 42 66  1  0  0  0
 42108  1  0  0  0
 42109  1  0  0  0
 43 44  1  0  0  0
 44110  1  0  0  0
 45 46  2  0  0  0
 45111  1  0  0  0
 46112  1  0  0  0
 47113  1  0  0  0
 47114  1  0  0  0
 48 56  1  0  0  0
 48 65  1  0  0  0
 48115  1  0  0  0
 49 50  1  0  0  0
 49 53  1  0  0  0
 49 64  1  0  0  0
 49116  1  0  0  0
 50 51  1  0  0  0
 50117  1  0  0  0
 50118  1  0  0  0
 51 52  1  0  0  0
 51119  1  0  0  0
 51120  1  0  0  0
 52121  1  0  0  0
 52122  1  0  0  0
 53 54  1  0  0  0
 54 55  2  0  0  0
 54123  1  0  0  0
 55 57  1  0  0  0
 55124  1  0  0  0
 56 69  2  0  0  0
 57 58  2  0  0  0
 57125  1  0  0  0
 58126  1  0  0  0
 59 60  1  0  0  0
 59 61  1  0  0  0
 59 62  1  0  0  0
 60127  1  0  0  0
 60128  1  0  0  0
 60129  1  0  0  0
 61130  1  0  0  0
 61131  1  0  0  0
 61132  1  0  0  0
 62133  1  0  0  0
 62134  1  0  0  0
 62135  1  0  0  0
 63 65  1  0  0  0
 63136  1  0  0  0
 63137  1  0  0  0
 63138  1  0  0  0
 64139  1  0  0  0
 65140  1  0  0  0
 68 81  1  0  0  0
 71 73  2  0  0  0
 71 75  1  0  0  0
 71141  1  0  0  0
 72 74  1  0  0  0
 72 75  2  0  0  0
 72142  1  0  0  0
 73 76  1  0  0  0
 73143  1  0  0  0
 74 76  2  0  0  0
 74144  1  0  0  0
 75 77  1  0  0  0
 76 79  1  0  0  0
 77 78  2  0  0  0
 77145  1  0  0  0
 78146  1  0  0  0
 79 80  1  0  0  0
 79147  1  0  0  0
 79148  1  0  0  0
 80 81  1  0  0  0
 80149  1  0  0  0
 80150  1  0  0  0
 81151  1  0  0  0
 81152  1  0  0  0
M  ISO  4   1 100  68 101  78 100  81 101
M  END
> <chiral flag>
0

> <version>
0

> <s_m_source_file>
/data/baiqing/PycharmProjects/Reinvent-master-3.2/result/LINK_invent/BTK/process_docking_weight1_custom_product_contain_oxygen_bond_distance_aromatic_linkinvent_7_9_3/rearranged_h_0127.sdf

> <i_m_source_file_index>
15

> <r_mmod_Potential_Energy-OPLS-2005>
53.9852981567383

> <r_mmod_Stretch_Energy-OPLS-2005>
58.0835304260254

> <r_mmod_Bend_Energy-OPLS-2005>
136.699890136719

> <r_mmod_Torsional_Energy-OPLS-2005>
180.458831787109

> <r_mmod_Improper_Torsional_Energy-OPLS-2005>
6.45808601379395

> <r_mmod_Van_der_Waal_Energy-OPLS-2005>
162.085784912109

> <r_mmod_Electrostatic_Energy-OPLS-2005>
-334.26708984375

> <r_mmod_Solvation_Energy-OPLS-2005>
-193.531509399414

> <b_mmod_Minimization_Converged-OPLS-2005>
0

> <r_mmod_RMS_Derivative-OPLS-2005>
3.39928030967712

$$$$
15
                    3D
 Structure written by MMmdl.
160168  0  0  1  0            999 V2000
  -30.6301  -14.5812   20.4711 C   0  0  0  0  0  0
  -30.4432  -12.3275   19.4653 C   0  0  0  0  0  0
  -29.5146  -12.3854   18.2312 C   0  0  0  0  0  0
  -28.0229  -12.3272   18.6308 C   0  0  0  0  0  0
  -27.6559  -13.2029   19.8615 C   0  0  2  0  0  0
  -28.6982  -13.0427   20.9896 C   0  0  0  0  0  0
  -25.2586  -13.8150   20.5678 C   0  0  0  0  0  0
  -24.1833  -13.0436   20.9184 C   0  0  0  0  0  0
  -24.6376  -11.6901   20.8744 C   0  0  0  0  0  0
  -23.9042  -10.4289   21.0409 C   0  0  0  0  0  0
  -24.3601   -9.4205   21.9183 C   0  0  0  0  0  0
  -23.6283   -8.2237   22.0750 C   0  0  0  0  0  0
  -22.4265   -8.0275   21.3542 C   0  0  0  0  0  0
  -21.9895   -9.0248   20.4645 C   0  0  0  0  0  0
  -22.7216  -10.2131   20.3057 C   0  0  0  0  0  0
  -21.6853   -6.0733   22.5276 C   0  0  0  0  0  0
  -21.4015   -6.5636   23.8209 C   0  0  0  0  0  0
  -21.3658   -5.6790   24.9171 C   0  0  0  0  0  0
  -21.6042   -4.3052   24.7222 C   0  0  0  0  0  0
  -21.8821   -3.8145   23.4344 C   0  0  0  0  0  0
  -21.9193   -4.6961   22.3400 C   0  0  0  0  0  0
  -22.7858  -13.5241   21.1852 C   0  0  0  0  0  0
  -22.1662   -4.2149   21.0978 F   0  0  0  0  0  0
  -21.5627   -3.4536   25.7735 F   0  0  0  0  0  0
  -30.0178  -13.3617   20.4252 N   0  0  0  0  0  0
  -26.3000  -12.9301   20.3320 N   0  0  0  0  0  0
  -25.9301  -11.6476   20.5783 N   0  0  0  0  0  0
  -22.0498  -12.8238   22.0410 N   0  0  0  0  0  0
  -25.4330  -15.1868   20.4098 N   0  0  0  0  0  0
  -31.7999  -14.7421   20.1140 O   0  0  0  0  0  0
  -21.6634   -6.8870   21.4236 O   0  0  0  0  0  0
  -22.3544  -14.5547   20.6699 O   0  0  0  0  0  0
  -24.6167  -31.8640   23.2057 C   0  0  0  0  0  0
  -25.9050  -32.4799   23.8362 C   0  0  1  0  0  0
  -27.2428  -27.4002   20.1078 C   0  0  0  0  0  0
  -25.5894  -33.8598   24.2298 N   0  0  0  0  0  0
  -23.4065  -30.4851   21.5457 C   0  0  2  0  0  0
  -24.8543  -28.9411   20.1136 C   0  0  0  0  0  0
  -22.7417  -29.4641   22.4968 C   0  0  0  0  0  0
  -18.0273  -28.1381   22.8488 C   0  0  0  0  0  0
  -24.1486  -36.7310   23.2640 C   0  0  0  0  0  0
  -25.9359  -30.8198   21.3615 C   0  0  0  0  0  0
  -26.0124  -29.4500   20.7115 C   0  0  0  0  0  0
  -27.2038  -28.6866   20.7036 C   0  0  0  0  0  0
  -26.0624  -26.9074   19.5066 C   0  0  0  0  0  0
  -24.8761  -27.6712   19.5080 C   0  0  0  0  0  0
  -23.6167  -29.8115   20.1618 C   0  0  0  0  0  0
  -25.4108  -36.3099   24.0336 C   0  0  1  0  0  0
  -20.5863  -28.3671   23.1311 C   0  0  2  0  0  0
  -20.6760  -26.9402   22.5422 C   0  0  0  0  0  0
  -19.5745  -26.6385   21.5212 C   0  0  0  0  0  0
  -18.1921  -26.7927   22.1619 C   0  0  0  0  0  0
  -19.1522  -28.8842   23.2897 C   0  0  0  0  0  0
  -18.9451  -30.1447   23.8911 C   0  0  0  0  0  0
  -17.6454  -30.6587   24.0567 C   0  0  0  0  0  0
  -25.9036  -34.9465   23.5118 C   0  0  0  0  0  0
  -16.5345  -29.9090   23.6326 C   0  0  0  0  0  0
  -16.7263  -28.6507   23.0346 C   0  0  0  0  0  0
  -26.4474  -31.6592   25.0705 C   0  0  0  0  0  0
  -25.3741  -31.3712   26.1458 C   0  0  0  0  0  0
  -27.0309  -30.3031   24.6100 C   0  0  0  0  0  0
  -27.6045  -32.4319   25.7467 C   0  0  0  0  0  0
  -27.5580  -37.1805   24.8463 C   0  0  0  0  0  0
  -21.4141  -29.3032   22.3711 N   0  0  0  0  0  0
  -26.4291  -37.3786   23.9409 N   0  0  0  0  0  0
  -24.6714  -31.0719   22.0962 N   0  0  0  0  0  0
  -23.4176  -28.8193   23.3030 O   0  0  0  0  0  0
  -28.4349  -26.6930   20.1521 O   0  0  0  0  0  0
  -26.5605  -34.8925   22.4684 O   0  0  0  0  0  0
  -23.5356  -32.1403   23.7441 O   0  0  0  0  0  0
  -29.4934  -18.4937   18.2811 C   0  0  0  0  0  0
  -29.3955  -19.5998   19.1360 C   0  0  0  0  0  0
  -29.6715  -18.1078   21.0397 C   0  0  0  0  0  0
  -29.6478  -17.1857   18.7838 C   0  0  0  0  0  0
  -29.7706  -16.9615   20.1901 C   0  0  0  0  0  0
  -29.4644  -19.4274   20.5303 C   0  0  0  0  0  0
  -30.9098  -15.8678   17.0062 C   0  0  0  0  0  0
  -29.5831  -16.0796   17.7485 C   0  0  0  0  0  0
  -28.2023  -24.1853   20.5858 C   0  0  0  0  0  0
  -29.0361  -22.8694   20.3981 C   0  0  0  0  0  0
  -28.5803  -25.3551   19.6229 C   0  0  0  0  0  0
  -28.4423  -21.5948   21.0806 C   0  0  0  0  0  0
  -29.8186  -15.6319   20.7754 N   0  0  0  0  0  0
  -29.3613  -20.5146   21.3887 O   0  0  0  0  0  0
  -31.4836  -12.4489   19.1581 H   0  0  0  0  0  0
  -30.3872  -11.3452   19.9366 H   0  0  0  0  0  0
  -29.7387  -11.5422   17.5765 H   0  0  0  0  0  0
  -29.7308  -13.2580   17.6246 H   0  0  0  0  0  0
  -27.8010  -11.2829   18.8533 H   0  0  0  0  0  0
  -27.3934  -12.5893   17.7797 H   0  0  0  0  0  0
  -27.6743  -14.2392   19.5301 H   0  0  0  0  0  0
  -28.6937  -12.0209   21.3721 H   0  0  0  0  0  0
  -28.4547  -13.6782   21.8422 H   0  0  0  0  0  0
  -25.2745   -9.5688   22.4755 H   0  0  0  0  0  0
  -24.0002   -7.4626   22.7462 H   0  0  0  0  0  0
  -21.0829   -8.8759   19.8950 H   0  0  0  0  0  0
  -22.3667  -10.9669   19.6170 H   0  0  0  0  0  0
  -21.2009   -7.6144   23.9713 H   0  0  0  0  0  0
  -21.1478   -6.0518   25.9073 H   0  0  0  0  0  0
  -22.0603   -2.7609   23.2841 H   0  0  0  0  0  0
  -22.4111  -11.9898   22.4801 H   0  0  0  0  0  0
  -21.1120  -13.1271   22.2624 H   0  0  0  0  0  0
  -24.6694  -15.8444   20.5244 H   0  0  0  0  0  0
  -26.2868  -15.6260   20.0897 H   0  0  0  0  0  0
  -26.7117  -32.5501   23.1119 H   0  0  0  0  0  0
  -25.0044  -33.9750   25.0443 H   0  0  0  0  0  0
  -22.6967  -31.3025   21.4025 H   0  0  0  0  0  0
  -23.3742  -35.9649   23.3308 H   0  0  0  0  0  0
  -24.3579  -36.8921   22.2053 H   0  0  0  0  0  0
  -23.7247  -37.6520   23.6653 H   0  0  0  0  0  0
  -26.0504  -31.5827   20.5902 H   0  0  0  0  0  0
  -26.8228  -30.8757   21.9810 H   0  0  0  0  0  0
  -28.0983  -29.0783   21.1678 H   0  0  0  0  0  0
  -26.0366  -25.9325   19.0433 H   0  0  0  0  0  0
  -23.9837  -27.2712   19.0464 H   0  0  0  0  0  0
  -23.7265  -30.5834   19.3993 H   0  0  0  0  0  0
  -22.7402  -29.2314   19.8676 H   0  0  0  0  0  0
  -25.1285  -36.1959   25.0830 H   0  0  0  0  0  0
  -20.9955  -28.3244   24.1431 H   0  0  0  0  0  0
  -20.5654  -26.2279   23.3612 H   0  0  0  0  0  0
  -21.6634  -26.7440   22.1221 H   0  0  0  0  0  0
  -19.6907  -25.6297   21.1237 H   0  0  0  0  0  0
  -19.6690  -27.3199   20.6745 H   0  0  0  0  0  0
  -17.4193  -26.6677   21.4019 H   0  0  0  0  0  0
  -18.0323  -26.0067   22.9014 H   0  0  0  0  0  0
  -19.7929  -30.7255   24.2288 H   0  0  0  0  0  0
  -17.5014  -31.6268   24.5167 H   0  0  0  0  0  0
  -15.5348  -30.3000   23.7644 H   0  0  0  0  0  0
  -15.8660  -28.0836   22.7052 H   0  0  0  0  0  0
  -24.5898  -30.7075   25.7800 H   0  0  0  0  0  0
  -24.8953  -32.2877   26.4917 H   0  0  0  0  0  0
  -25.8095  -30.8870   27.0208 H   0  0  0  0  0  0
  -26.2856  -29.6782   24.1163 H   0  0  0  0  0  0
  -27.4083  -29.7278   25.4564 H   0  0  0  0  0  0
  -27.8687  -30.4342   23.9248 H   0  0  0  0  0  0
  -27.2655  -33.3603   26.2075 H   0  0  0  0  0  0
  -28.3835  -32.6907   25.0283 H   0  0  0  0  0  0
  -28.0736  -31.8429   26.5358 H   0  0  0  0  0  0
  -28.2601  -38.0099   24.7508 H   0  0  0  0  0  0
  -28.1072  -36.2631   24.6287 H   0  0  0  0  0  0
  -27.2302  -37.1458   25.8867 H   0  0  0  0  0  0
  -20.9304  -29.8749   21.6926 H   0  0  0  0  0  0
  -26.0180  -38.2865   24.1408 H   0  0  0  0  0  0
  -29.4108  -18.6538   17.2149 H   0  0  0  0  0  0
  -29.2642  -20.5769   18.6982 H   0  0  0  0  0  0
  -29.7212  -17.9736   22.1109 H   0  0  0  0  0  0
  -30.8228  -15.0622   16.2769 H   0  0  0  0  0  0
  -31.7195  -15.6116   17.6872 H   0  0  0  0  0  0
  -31.2069  -16.7676   16.4672 H   0  0  0  0  0  0
  -28.8114  -16.3319   17.0198 H   0  0  0  0  0  0
  -29.2219  -15.1749   18.2141 H   0  0  0  0  0  0
  -28.3282  -24.5196   21.6162 H   0  0  0  0  0  0
  -27.1387  -23.9727   20.4723 H   0  0  0  0  0  0
  -30.0387  -23.0443   20.7900 H   0  0  0  0  0  0
  -29.1649  -22.6803   19.3332 H   0  0  0  0  0  0
  -28.0929  -25.2442   18.6541 H   0  0  0  0  0  0
  -29.6447  -25.2656   19.4030 H   0  0  0  0  0  0
  -27.5882  -21.2257   20.5101 H   0  0  0  0  0  0
  -28.0279  -21.8974   22.0430 H   0  0  0  0  0  0
  -28.9781  -15.3616   21.2638 H   0  0  0  0  0  0
  1 25  1  0  0  0
  1 30  2  0  0  0
  1 83  1  0  0  0
  2  3  1  0  0  0
  2 25  1  0  0  0
  2 85  1  0  0  0
  2 86  1  0  0  0
  3  4  1  0  0  0
  3 87  1  0  0  0
  3 88  1  0  0  0
  4  5  1  0  0  0
  4 89  1  0  0  0
  4 90  1  0  0  0
  5  6  1  0  0  0
  5 26  1  0  0  0
  5 91  1  0  0  0
  6 25  1  0  0  0
  6 92  1  0  0  0
  6 93  1  0  0  0
  7  8  2  0  0  0
  7 26  1  0  0  0
  7 29  1  0  0  0
  8  9  1  0  0  0
  8 22  1  0  0  0
  9 10  1  0  0  0
  9 27  2  0  0  0
 10 11  2  0  0  0
 10 15  1  0  0  0
 11 12  1  0  0  0
 11 94  1  0  0  0
 12 13  2  0  0  0
 12 95  1  0  0  0
 13 14  1  0  0  0
 13 31  1  0  0  0
 14 15  2  0  0  0
 14 96  1  0  0  0
 15 97  1  0  0  0
 16 17  2  0  0  0
 16 21  1  0  0  0
 16 31  1  0  0  0
 17 18  1  0  0  0
 17 98  1  0  0  0
 18 19  2  0  0  0
 18 99  1  0  0  0
 19 20  1  0  0  0
 19 24  1  0  0  0
 20 21  2  0  0  0
 20100  1  0  0  0
 21 23  1  0  0  0
 22 28  1  0  0  0
 22 32  2  0  0  0
 26 27  1  0  0  0
 28101  1  0  0  0
 28102  1  0  0  0
 29103  1  0  0  0
 29104  1  0  0  0
 33 34  1  0  0  0
 33 66  1  0  0  0
 33 70  2  0  0  0
 34 36  1  0  0  0
 34 59  1  0  0  0
 34105  1  0  0  0
 35 44  2  0  0  0
 35 45  1  0  0  0
 35 68  1  0  0  0
 36 56  1  0  0  0
 36106  1  0  0  0
 37 39  1  0  0  0
 37 47  1  0  0  0
 37 66  1  0  0  0
 37107  1  0  0  0
 38 43  2  0  0  0
 38 46  1  0  0  0
 38 47  1  0  0  0
 39 64  1  0  0  0
 39 67  2  0  0  0
 40 52  1  0  0  0
 40 53  2  0  0  0
 40 58  1  0  0  0
 41108  1  0  0  0
 41109  1  0  0  0
 41110  1  0  0  0
 41 48  1  0  0  0
 42 43  1  0  0  0
 42 66  1  0  0  0
 42111  1  0  0  0
 42112  1  0  0  0
 43 44  1  0  0  0
 44113  1  0  0  0
 45 46  2  0  0  0
 45114  1  0  0  0
 46115  1  0  0  0
 47116  1  0  0  0
 47117  1  0  0  0
 48 56  1  0  0  0
 48 65  1  0  0  0
 48118  1  0  0  0
 49 50  1  0  0  0
 49 53  1  0  0  0
 49 64  1  0  0  0
 49119  1  0  0  0
 50 51  1  0  0  0
 50120  1  0  0  0
 50121  1  0  0  0
 51 52  1  0  0  0
 51122  1  0  0  0
 51123  1  0  0  0
 52124  1  0  0  0
 52125  1  0  0  0
 53 54  1  0  0  0
 54 55  2  0  0  0
 54126  1  0  0  0
 55 57  1  0  0  0
 55127  1  0  0  0
 56 69  2  0  0  0
 57 58  2  0  0  0
 57128  1  0  0  0
 58129  1  0  0  0
 59 60  1  0  0  0
 59 61  1  0  0  0
 59 62  1  0  0  0
 60130  1  0  0  0
 60131  1  0  0  0
 60132  1  0  0  0
 61133  1  0  0  0
 61134  1  0  0  0
 61135  1  0  0  0
 62136  1  0  0  0
 62137  1  0  0  0
 62138  1  0  0  0
 63 65  1  0  0  0
 63139  1  0  0  0
 63140  1  0  0  0
 63141  1  0  0  0
 64142  1  0  0  0
 65143  1  0  0  0
 68 81  1  0  0  0
 71 72  2  0  0  0
 71 74  1  0  0  0
 71144  1  0  0  0
 72 76  1  0  0  0
 72145  1  0  0  0
 73 75  1  0  0  0
 73 76  2  0  0  0
 73146  1  0  0  0
 74 75  2  0  0  0
 74 78  1  0  0  0
 75 83  1  0  0  0
 76 84  1  0  0  0
 77 78  1  0  0  0
 77147  1  0  0  0
 77148  1  0  0  0
 77149  1  0  0  0
 78150  1  0  0  0
 78151  1  0  0  0
 79 80  1  0  0  0
 79 81  1  0  0  0
 79152  1  0  0  0
 79153  1  0  0  0
 80 82  1  0  0  0
 80154  1  0  0  0
 80155  1  0  0  0
 81156  1  0  0  0
 81157  1  0  0  0
 82 84  1  0  0  0
 82158  1  0  0  0
 82159  1  0  0  0
 83160  1  0  0  0
M  ISO  4   1 100  68 101  81 101  83 100
M  END
> <chiral flag>
0

> <version>
0

> <s_m_source_file>
/data/baiqing/PycharmProjects/Reinvent-master-3.2/result/LINK_invent/BTK/process_docking_weight1_custom_product_contain_oxygen_bond_distance_aromatic_linkinvent_7_9_3/rearranged_h_0127.sdf

> <i_m_source_file_index>
16

> <r_mmod_Potential_Energy-OPLS-2005>
33.9452247619629

> <r_mmod_Stretch_Energy-OPLS-2005>
52.3212623596191

> <r_mmod_Bend_Energy-OPLS-2005>
129.44548034668

> <r_mmod_Torsional_Energy-OPLS-2005>
255.643020629883

> <r_mmod_Improper_Torsional_Energy-OPLS-2005>
5.4886212348938

> <r_mmod_Van_der_Waal_Energy-OPLS-2005>
143.126663208008

> <r_mmod_Electrostatic_Energy-OPLS-2005>
-372.530639648438

> <r_mmod_Solvation_Energy-OPLS-2005>
-209.503524780273

> <b_mmod_Minimization_Converged-OPLS-2005>
0

> <r_mmod_RMS_Derivative-OPLS-2005>
0.448191195726395

$$$$
16
                    3D
 Structure written by MMmdl.
156164  0  0  1  0            999 V2000
  -30.7519  -14.4056   20.5416 C   0  0  0  0  0  0
  -30.3994  -12.2537   19.4326 C   0  0  0  0  0  0
  -29.4923  -12.4923   18.2089 C   0  0  0  0  0  0
  -28.0084  -12.3779   18.6097 C   0  0  0  0  0  0
  -27.6605  -13.2141   19.8724 C   0  0  2  0  0  0
  -28.6975  -12.9963   20.9962 C   0  0  0  0  0  0
  -25.2579  -13.8185   20.5684 C   0  0  0  0  0  0
  -24.1837  -13.0446   20.9171 C   0  0  0  0  0  0
  -24.6409  -11.6918   20.8734 C   0  0  0  0  0  0
  -23.9087  -10.4300   21.0403 C   0  0  0  0  0  0
  -24.3640   -9.4214   21.9183 C   0  0  0  0  0  0
  -23.6310   -8.2249   22.0754 C   0  0  0  0  0  0
  -22.4289   -8.0289   21.3547 C   0  0  0  0  0  0
  -21.9930   -9.0264   20.4648 C   0  0  0  0  0  0
  -22.7257  -10.2142   20.3057 C   0  0  0  0  0  0
  -21.6860   -6.0746   22.5282 C   0  0  0  0  0  0
  -21.4013   -6.5649   23.8216 C   0  0  0  0  0  0
  -21.3658   -5.6798   24.9173 C   0  0  0  0  0  0
  -21.6048   -4.3062   24.7224 C   0  0  0  0  0  0
  -21.8816   -3.8160   23.4345 C   0  0  0  0  0  0
  -21.9192   -4.6977   22.3400 C   0  0  0  0  0  0
  -22.7857  -13.5233   21.1835 C   0  0  0  0  0  0
  -22.1657   -4.2163   21.0974 F   0  0  0  0  0  0
  -21.5635   -3.4542   25.7737 F   0  0  0  0  0  0
  -30.0373  -13.2535   20.4492 N   0  0  0  0  0  0
  -26.3022  -12.9371   20.3356 N   0  0  0  0  0  0
  -25.9335  -11.6523   20.5764 N   0  0  0  0  0  0
  -22.0502  -12.8225   22.0394 N   0  0  0  0  0  0
  -25.4315  -15.1904   20.4121 N   0  0  0  0  0  0
  -31.8969  -14.4986   20.0897 O   0  0  0  0  0  0
  -21.6648   -6.8889   21.4246 O   0  0  0  0  0  0
  -22.3533  -14.5531   20.6680 O   0  0  0  0  0  0
  -24.6126  -31.8704   23.2118 C   0  0  0  0  0  0
  -25.9037  -32.4829   23.8408 C   0  0  1  0  0  0
  -27.2325  -27.4678   20.0905 C   0  0  0  0  0  0
  -25.5901  -33.8626   24.2339 N   0  0  0  0  0  0
  -23.3969  -30.4957   21.5511 C   0  0  2  0  0  0
  -24.8406  -28.9668   20.1125 C   0  0  0  0  0  0
  -22.7387  -29.4684   22.4994 C   0  0  0  0  0  0
  -18.0271  -28.1391   22.8490 C   0  0  0  0  0  0
  -24.1478  -36.7329   23.2633 C   0  0  0  0  0  0
  -25.9210  -30.8485   21.3565 C   0  0  0  0  0  0
  -25.9975  -29.4847   20.7066 C   0  0  0  0  0  0
  -27.1950  -28.7417   20.6925 C   0  0  0  0  0  0
  -26.0595  -26.9610   19.4818 C   0  0  0  0  0  0
  -24.8652  -27.7038   19.4971 C   0  0  0  0  0  0
  -23.6012  -29.8284   20.1646 C   0  0  0  0  0  0
  -25.4094  -36.3114   24.0335 C   0  0  1  0  0  0
  -20.5858  -28.3669   23.1324 C   0  0  2  0  0  0
  -20.6764  -26.9409   22.5419 C   0  0  0  0  0  0
  -19.5745  -26.6394   21.5213 C   0  0  0  0  0  0
  -18.1922  -26.7941   22.1617 C   0  0  0  0  0  0
  -19.1520  -28.8845   23.2910 C   0  0  0  0  0  0
  -18.9449  -30.1452   23.8920 C   0  0  0  0  0  0
  -17.6452  -30.6593   24.0572 C   0  0  0  0  0  0
  -25.9029  -34.9479   23.5131 C   0  0  0  0  0  0
  -16.5344  -29.9099   23.6326 C   0  0  0  0  0  0
  -16.7262  -28.6521   23.0337 C   0  0  0  0  0  0
  -26.4479  -31.6598   25.0722 C   0  0  0  0  0  0
  -25.3753  -31.3697   26.1473 C   0  0  0  0  0  0
  -27.0307  -30.3046   24.6076 C   0  0  0  0  0  0
  -27.6064  -32.4302   25.7487 C   0  0  0  0  0  0
  -27.5586  -37.1802   24.8452 C   0  0  0  0  0  0
  -21.4121  -29.3042   22.3735 N   0  0  0  0  0  0
  -26.4277  -37.3804   23.9426 N   0  0  0  0  0  0
  -24.6618  -31.0849   22.0990 N   0  0  0  0  0  0
  -23.4175  -28.8230   23.3027 O   0  0  0  0  0  0
  -28.4234  -26.7815   20.1163 O   0  0  0  0  0  0
  -26.5587  -34.8929   22.4690 O   0  0  0  0  0  0
  -23.5330  -32.1434   23.7542 O   0  0  0  0  0  0
  -30.1110  -19.0502   19.5992 C   0  0  0  0  0  0
  -29.8805  -20.4105   19.8398 C   0  0  0  0  0  0
  -29.3266  -18.5114   21.8321 C   0  0  0  0  0  0
  -29.8723  -18.0945   20.6018 C   0  0  0  0  0  0
  -29.4041  -20.8562   21.0937 C   0  0  0  0  0  0
  -29.1044  -19.8846   22.0880 C   0  0  0  0  0  0
  -30.2811  -16.7187   20.3199 C   0  0  0  0  0  0
  -29.2706  -22.3053   21.3603 C   0  0  0  0  0  0
  -30.0601  -15.5891   21.0257 C   0  0  0  0  0  0
  -29.6591  -23.2936   20.5325 C   0  0  0  0  0  0
  -28.5758  -20.2878   23.4539 C   0  0  0  0  0  0
  -29.5073  -24.7687   20.8152 C   0  0  0  0  0  0
  -28.3836  -25.3688   19.9692 C   0  0  0  0  0  0
  -31.4497  -12.2984   19.1387 H   0  0  0  0  0  0
  -30.2504  -11.2483   19.8284 H   0  0  0  0  0  0
  -29.7212  -11.7722   17.4225 H   0  0  0  0  0  0
  -29.6872  -13.4790   17.7858 H   0  0  0  0  0  0
  -27.7967  -11.3239   18.7909 H   0  0  0  0  0  0
  -27.3695  -12.6761   17.7770 H   0  0  0  0  0  0
  -27.7064  -14.2638   19.5811 H   0  0  0  0  0  0
  -28.6487  -11.9684   21.3593 H   0  0  0  0  0  0
  -28.4714  -13.6192   21.8612 H   0  0  0  0  0  0
  -25.2790   -9.5687   22.4755 H   0  0  0  0  0  0
  -24.0020   -7.4648   22.7473 H   0  0  0  0  0  0
  -21.0867   -8.8789   19.8954 H   0  0  0  0  0  0
  -22.3722  -10.9689   19.6167 H   0  0  0  0  0  0
  -21.1998   -7.6159   23.9725 H   0  0  0  0  0  0
  -21.1482   -6.0525   25.9074 H   0  0  0  0  0  0
  -22.0596   -2.7624   23.2844 H   0  0  0  0  0  0
  -22.4124  -11.9896   22.4802 H   0  0  0  0  0  0
  -21.1115  -13.1240   22.2588 H   0  0  0  0  0  0
  -24.6746  -15.8540   20.5353 H   0  0  0  0  0  0
  -26.3015  -15.6278   20.1334 H   0  0  0  0  0  0
  -26.7114  -32.5559   23.1188 H   0  0  0  0  0  0
  -25.0046  -33.9786   25.0479 H   0  0  0  0  0  0
  -22.6857  -31.3126   21.4138 H   0  0  0  0  0  0
  -23.3735  -35.9664   23.3267 H   0  0  0  0  0  0
  -24.3591  -36.8975   22.2055 H   0  0  0  0  0  0
  -23.7221  -37.6522   23.6669 H   0  0  0  0  0  0
  -26.0231  -31.6143   20.5862 H   0  0  0  0  0  0
  -26.8135  -30.9065   21.9677 H   0  0  0  0  0  0
  -28.0902  -29.1399   21.1494 H   0  0  0  0  0  0
  -26.0511  -26.0035   18.9819 H   0  0  0  0  0  0
  -23.9782  -27.3034   19.0260 H   0  0  0  0  0  0
  -23.7043  -30.6019   19.4029 H   0  0  0  0  0  0
  -22.7266  -29.2448   19.8722 H   0  0  0  0  0  0
  -25.1261  -36.1974   25.0827 H   0  0  0  0  0  0
  -20.9956  -28.3235   24.1440 H   0  0  0  0  0  0
  -20.5667  -26.2278   23.3604 H   0  0  0  0  0  0
  -21.6638  -26.7463   22.1214 H   0  0  0  0  0  0
  -19.6909  -25.6306   21.1240 H   0  0  0  0  0  0
  -19.6694  -27.3206   20.6745 H   0  0  0  0  0  0
  -17.4195  -26.6692   21.4016 H   0  0  0  0  0  0
  -18.0323  -26.0082   22.9012 H   0  0  0  0  0  0
  -19.7921  -30.7267   24.2297 H   0  0  0  0  0  0
  -17.5004  -31.6274   24.5173 H   0  0  0  0  0  0
  -15.5346  -30.3009   23.7640 H   0  0  0  0  0  0
  -15.8662  -28.0859   22.7022 H   0  0  0  0  0  0
  -24.5930  -30.7037   25.7819 H   0  0  0  0  0  0
  -24.8936  -32.2844   26.4935 H   0  0  0  0  0  0
  -25.8110  -30.8865   27.0224 H   0  0  0  0  0  0
  -26.2842  -29.6800   24.1149 H   0  0  0  0  0  0
  -27.4110  -29.7290   25.4528 H   0  0  0  0  0  0
  -27.8661  -30.4379   23.9196 H   0  0  0  0  0  0
  -27.2699  -33.3589   26.2111 H   0  0  0  0  0  0
  -28.3861  -32.6874   25.0306 H   0  0  0  0  0  0
  -28.0745  -31.8387   26.5367 H   0  0  0  0  0  0
  -28.2561  -38.0142   24.7559 H   0  0  0  0  0  0
  -28.1122  -36.2677   24.6183 H   0  0  0  0  0  0
  -27.2328  -37.1340   25.8859 H   0  0  0  0  0  0
  -20.9276  -29.8761   21.6960 H   0  0  0  0  0  0
  -26.0161  -38.2873   24.1466 H   0  0  0  0  0  0
  -30.5157  -18.7522   18.6416 H   0  0  0  0  0  0
  -30.1083  -21.0958   19.0387 H   0  0  0  0  0  0
  -29.1291  -17.7817   22.6044 H   0  0  0  0  0  0
  -30.8863  -16.6375   19.4249 H   0  0  0  0  0  0
  -28.8184  -22.5924   22.2980 H   0  0  0  0  0  0
  -29.4469  -15.5758   21.9125 H   0  0  0  0  0  0
  -30.1130  -23.0811   19.5774 H   0  0  0  0  0  0
  -28.4027  -19.4196   24.0903 H   0  0  0  0  0  0
  -27.6290  -20.8191   23.3572 H   0  0  0  0  0  0
  -29.2892  -20.9344   23.9660 H   0  0  0  0  0  0
  -30.4559  -25.2589   20.5935 H   0  0  0  0  0  0
  -29.3062  -24.9335   21.8744 H   0  0  0  0  0  0
  -27.4453  -24.9324   20.3159 H   0  0  0  0  0  0
  -28.5035  -25.1149   18.9155 H   0  0  0  0  0  0
  1 25  1  0  0  0
  1 30  2  0  0  0
  1 79  1  0  0  0
  2  3  1  0  0  0
  2 25  1  0  0  0
  2 84  1  0  0  0
  2 85  1  0  0  0
  3  4  1  0  0  0
  3 86  1  0  0  0
  3 87  1  0  0  0
  4  5  1  0  0  0
  4 88  1  0  0  0
  4 89  1  0  0  0
  5  6  1  0  0  0
  5 26  1  0  0  0
  5 90  1  0  0  0
  6 25  1  0  0  0
  6 91  1  0  0  0
  6 92  1  0  0  0
  7  8  2  0  0  0
  7 26  1  0  0  0
  7 29  1  0  0  0
  8  9  1  0  0  0
  8 22  1  0  0  0
  9 10  1  0  0  0
  9 27  2  0  0  0
 10 11  2  0  0  0
 10 15  1  0  0  0
 11 12  1  0  0  0
 11 93  1  0  0  0
 12 13  2  0  0  0
 12 94  1  0  0  0
 13 14  1  0  0  0
 13 31  1  0  0  0
 14 15  2  0  0  0
 14 95  1  0  0  0
 15 96  1  0  0  0
 16 17  2  0  0  0
 16 21  1  0  0  0
 16 31  1  0  0  0
 17 18  1  0  0  0
 17 97  1  0  0  0
 18 19  2  0  0  0
 18 98  1  0  0  0
 19 20  1  0  0  0
 19 24  1  0  0  0
 20 21  2  0  0  0
 20 99  1  0  0  0
 21 23  1  0  0  0
 22 28  1  0  0  0
 22 32  2  0  0  0
 26 27  1  0  0  0
 28100  1  0  0  0
 28101  1  0  0  0
 29102  1  0  0  0
 29103  1  0  0  0
 33 34  1  0  0  0
 33 66  1  0  0  0
 33 70  2  0  0  0
 34 36  1  0  0  0
 34 59  1  0  0  0
 34104  1  0  0  0
 35 44  2  0  0  0
 35 45  1  0  0  0
 35 68  1  0  0  0
 36 56  1  0  0  0
 36105  1  0  0  0
 37 39  1  0  0  0
 37 47  1  0  0  0
 37 66  1  0  0  0
 37106  1  0  0  0
 38 43  2  0  0  0
 38 46  1  0  0  0
 38 47  1  0  0  0
 39 64  1  0  0  0
 39 67  2  0  0  0
 40 52  1  0  0  0
 40 53  2  0  0  0
 40 58  1  0  0  0
 41107  1  0  0  0
 41108  1  0  0  0
 41109  1  0  0  0
 41 48  1  0  0  0
 42 43  1  0  0  0
 42 66  1  0  0  0
 42110  1  0  0  0
 42111  1  0  0  0
 43 44  1  0  0  0
 44112  1  0  0  0
 45 46  2  0  0  0
 45113  1  0  0  0
 46114  1  0  0  0
 47115  1  0  0  0
 47116  1  0  0  0
 48 56  1  0  0  0
 48 65  1  0  0  0
 48117  1  0  0  0
 49 50  1  0  0  0
 49 53  1  0  0  0
 49 64  1  0  0  0
 49118  1  0  0  0
 50 51  1  0  0  0
 50119  1  0  0  0
 50120  1  0  0  0
 51 52  1  0  0  0
 51121  1  0  0  0
 51122  1  0  0  0
 52123  1  0  0  0
 52124  1  0  0  0
 53 54  1  0  0  0
 54 55  2  0  0  0
 54125  1  0  0  0
 55 57  1  0  0  0
 55126  1  0  0  0
 56 69  2  0  0  0
 57 58  2  0  0  0
 57127  1  0  0  0
 58128  1  0  0  0
 59 60  1  0  0  0
 59 61  1  0  0  0
 59 62  1  0  0  0
 60129  1  0  0  0
 60130  1  0  0  0
 60131  1  0  0  0
 61132  1  0  0  0
 61133  1  0  0  0
 61134  1  0  0  0
 62135  1  0  0  0
 62136  1  0  0  0
 62137  1  0  0  0
 63 65  1  0  0  0
 63138  1  0  0  0
 63139  1  0  0  0
 63140  1  0  0  0
 64141  1  0  0  0
 65142  1  0  0  0
 68 83  1  0  0  0
 71 72  2  0  0  0
 71 74  1  0  0  0
 71143  1  0  0  0
 72 75  1  0  0  0
 72144  1  0  0  0
 73 74  2  0  0  0
 73 76  1  0  0  0
 73145  1  0  0  0
 74 77  1  0  0  0
 75 76  2  0  0  0
 75 78  1  0  0  0
 76 81  1  0  0  0
 77 79  2  0  0  0
 77146  1  0  0  0
 78 80  2  0  0  0
 78147  1  0  0  0
 79148  1  0  0  0
 80 82  1  0  0  0
 80149  1  0  0  0
 81150  1  0  0  0
 81151  1  0  0  0
 81152  1  0  0  0
 82 83  1  0  0  0
 82153  1  0  0  0
 82154  1  0  0  0
 83155  1  0  0  0
 83156  1  0  0  0
M  ISO  4   1 100  68 101  79 100  83 101
M  END
> <chiral flag>
0

> <version>
0

> <s_m_source_file>
/data/baiqing/PycharmProjects/Reinvent-master-3.2/result/LINK_invent/BTK/process_docking_weight1_custom_product_contain_oxygen_bond_distance_aromatic_linkinvent_7_9_3/rearranged_h_0127.sdf

> <i_m_source_file_index>
17

> <r_mmod_Potential_Energy-OPLS-2005>
-18.2799453735352

> <r_mmod_Stretch_Energy-OPLS-2005>
31.6534461975098

> <r_mmod_Bend_Energy-OPLS-2005>
101.136154174805

> <r_mmod_Torsional_Energy-OPLS-2005>
188.513534545898

> <r_mmod_Improper_Torsional_Energy-OPLS-2005>
4.46892070770264

> <r_mmod_Van_der_Waal_Energy-OPLS-2005>
171.750717163086

> <r_mmod_Electrostatic_Energy-OPLS-2005>
-340.486999511719

> <r_mmod_Solvation_Energy-OPLS-2005>
-189.82746887207

> <b_mmod_Minimization_Converged-OPLS-2005>
0

> <r_mmod_RMS_Derivative-OPLS-2005>
1.26761615276337

$$$$
17
                    3D
 Structure written by MMmdl.
159167  0  0  1  0            999 V2000
  -30.5233  -14.8814   20.4254 C   0  0  0  0  0  0
  -30.4383  -12.5263   19.5110 C   0  0  0  0  0  0
  -29.5321  -12.5527   18.2572 C   0  0  0  0  0  0
  -28.0562  -12.3388   18.6534 C   0  0  0  0  0  0
  -27.6351  -13.2414   19.8460 C   0  0  2  0  0  0
  -28.6733  -13.2115   20.9901 C   0  0  0  0  0  0
  -25.2458  -13.8209   20.5664 C   0  0  0  0  0  0
  -24.1794  -13.0442   20.9245 C   0  0  0  0  0  0
  -24.6405  -11.6935   20.8782 C   0  0  0  0  0  0
  -23.9066  -10.4327   21.0443 C   0  0  0  0  0  0
  -24.3618   -9.4235   21.9214 C   0  0  0  0  0  0
  -23.6296   -8.2266   22.0741 C   0  0  0  0  0  0
  -22.4273   -8.0316   21.3534 C   0  0  0  0  0  0
  -21.9922   -9.0302   20.4627 C   0  0  0  0  0  0
  -22.7245  -10.2190   20.3059 C   0  0  0  0  0  0
  -21.6855   -6.0752   22.5292 C   0  0  0  0  0  0
  -21.4020   -6.5654   23.8226 C   0  0  0  0  0  0
  -21.3664   -5.6789   24.9181 C   0  0  0  0  0  0
  -21.6041   -4.3044   24.7227 C   0  0  0  0  0  0
  -21.8800   -3.8152   23.4341 C   0  0  0  0  0  0
  -21.9183   -4.6980   22.3401 C   0  0  0  0  0  0
  -22.7818  -13.5262   21.1885 C   0  0  0  0  0  0
  -22.1662   -4.2193   21.0962 F   0  0  0  0  0  0
  -21.5643   -3.4503   25.7719 F   0  0  0  0  0  0
  -29.9697  -13.6070   20.4171 N   0  0  0  0  0  0
  -26.2895  -12.9420   20.3224 N   0  0  0  0  0  0
  -25.9328  -11.6565   20.5744 N   0  0  0  0  0  0
  -22.0384  -12.8288   22.0401 N   0  0  0  0  0  0
  -25.4101  -15.1919   20.4001 N   0  0  0  0  0  0
  -31.7073  -15.0081   20.0892 O   0  0  0  0  0  0
  -21.6623   -6.8904   21.4260 O   0  0  0  0  0  0
  -22.3548  -14.5605   20.6761 O   0  0  0  0  0  0
  -24.6455  -31.8463   23.1838 C   0  0  0  0  0  0
  -25.9240  -32.4692   23.8266 C   0  0  1  0  0  0
  -27.2412  -27.1861   20.1400 C   0  0  0  0  0  0
  -25.6013  -33.8498   24.2247 N   0  0  0  0  0  0
  -23.4476  -30.4573   21.5277 C   0  0  2  0  0  0
  -24.8994  -28.8795   20.1060 C   0  0  0  0  0  0
  -22.7571  -29.4562   22.4879 C   0  0  0  0  0  0
  -18.0323  -28.1328   22.8437 C   0  0  0  0  0  0
  -24.1483  -36.7214   23.2634 C   0  0  0  0  0  0
  -25.9976  -30.7310   21.3733 C   0  0  0  0  0  0
  -26.0685  -29.3444   20.7169 C   0  0  0  0  0  0
  -27.2397  -28.5097   20.7147 C   0  0  0  0  0  0
  -26.0425  -26.7936   19.5076 C   0  0  0  0  0  0
  -24.8946  -27.6160   19.4895 C   0  0  0  0  0  0
  -23.6712  -29.7724   20.1507 C   0  0  0  0  0  0
  -25.4117  -36.3034   24.0355 C   0  0  1  0  0  0
  -20.5915  -28.3715   23.1236 C   0  0  2  0  0  0
  -20.6822  -26.9399   22.5496 C   0  0  0  0  0  0
  -19.5844  -26.6259   21.5272 C   0  0  0  0  0  0
  -18.1995  -26.7806   22.1668 C   0  0  0  0  0  0
  -19.1551  -28.8839   23.2807 C   0  0  0  0  0  0
  -18.9466  -30.1439   23.8812 C   0  0  0  0  0  0
  -17.6463  -30.6595   24.0442 C   0  0  0  0  0  0
  -25.9079  -34.9407   23.5107 C   0  0  0  0  0  0
  -16.5364  -29.9030   23.6278 C   0  0  0  0  0  0
  -16.7305  -28.6420   23.0347 C   0  0  0  0  0  0
  -26.4552  -31.6537   25.0707 C   0  0  0  0  0  0
  -25.3762  -31.3714   26.1445 C   0  0  0  0  0  0
  -27.0461  -30.2960   24.6250 C   0  0  0  0  0  0
  -27.6108  -32.4290   25.7446 C   0  0  0  0  0  0
  -27.5590  -37.1755   24.8492 C   0  0  0  0  0  0
  -21.4285  -29.3026   22.3599 N   0  0  0  0  0  0
  -26.4279  -37.3753   23.9438 N   0  0  0  0  0  0
  -24.7156  -31.0362   22.0833 N   0  0  0  0  0  0
  -23.4221  -28.8145   23.3061 O   0  0  0  0  0  0
  -28.3421  -26.2846   20.2596 O   0  0  0  0  0  0
  -26.5633  -34.8893   22.4656 O   0  0  0  0  0  0
  -23.5574  -32.1366   23.7052 O   0  0  0  0  0  0
  -30.3131  -19.7058   19.4414 C   0  0  0  0  0  0
  -30.4982  -18.2804   19.6574 C   0  0  0  0  0  0
  -28.4912  -19.7386   20.9362 C   0  0  0  0  0  0
  -29.2884  -20.5197   20.0426 C   0  0  0  0  0  0
  -28.6553  -18.3086   21.1485 C   0  0  0  0  0  0
  -29.6568  -17.4916   20.5029 C   0  0  0  0  0  0
  -27.6851  -17.6295   22.1026 C   0  0  0  0  0  0
  -26.8971  -23.1402   20.6050 C   0  0  0  0  0  0
  -29.1022  -23.4718   21.7608 C   0  0  0  0  0  0
  -29.0318  -22.0774   19.5698 C   0  0  0  0  0  0
  -28.4877  -24.8870   19.6488 C   0  0  0  0  0  0
  -28.4038  -23.3925   20.3883 C   0  0  0  0  0  0
  -29.6798  -15.9767   20.6872 N   0  0  0  0  0  0
  -31.4903  -12.6424   19.2433 H   0  0  0  0  0  0
  -30.3680  -11.5584   20.0134 H   0  0  0  0  0  0
  -29.8533  -11.8026   17.5353 H   0  0  0  0  0  0
  -29.6339  -13.5159   17.7542 H   0  0  0  0  0  0
  -27.9243  -11.2871   18.9149 H   0  0  0  0  0  0
  -27.4118  -12.5253   17.7947 H   0  0  0  0  0  0
  -27.6193  -14.2586   19.4544 H   0  0  0  0  0  0
  -28.7273  -12.2191   21.4353 H   0  0  0  0  0  0
  -28.3798  -13.8847   21.7960 H   0  0  0  0  0  0
  -25.2758   -9.5709   22.4804 H   0  0  0  0  0  0
  -24.0000   -7.4645   22.7466 H   0  0  0  0  0  0
  -21.0829   -8.8862   19.8931 H   0  0  0  0  0  0
  -22.3722  -10.9773   19.6179 H   0  0  0  0  0  0
  -21.2022   -7.6164   23.9777 H   0  0  0  0  0  0
  -21.1506   -6.0487   25.9093 H   0  0  0  0  0  0
  -22.0555   -2.7629   23.2829 H   0  0  0  0  0  0
  -22.3918  -11.9940   22.4825 H   0  0  0  0  0  0
  -21.1042  -13.1444   22.2646 H   0  0  0  0  0  0
  -24.6371  -15.8407   20.4789 H   0  0  0  0  0  0
  -26.2416  -15.6207   20.0139 H   0  0  0  0  0  0
  -26.7310  -32.5310   23.0989 H   0  0  0  0  0  0
  -25.0254  -33.9568   25.0468 H   0  0  0  0  0  0
  -22.7505  -31.2825   21.3646 H   0  0  0  0  0  0
  -23.3790  -35.9497   23.3289 H   0  0  0  0  0  0
  -24.3566  -36.8850   22.2051 H   0  0  0  0  0  0
  -23.7185  -37.6395   23.6638 H   0  0  0  0  0  0
  -26.1570  -31.4842   20.6009 H   0  0  0  0  0  0
  -26.8663  -30.7799   22.0154 H   0  0  0  0  0  0
  -28.1363  -28.8605   21.2045 H   0  0  0  0  0  0
  -25.9680  -25.8106   19.0661 H   0  0  0  0  0  0
  -23.9943  -27.2498   19.0177 H   0  0  0  0  0  0
  -23.7952  -30.5381   19.3850 H   0  0  0  0  0  0
  -22.7932  -29.1997   19.8492 H   0  0  0  0  0  0
  -25.1259  -36.1880   25.0845 H   0  0  0  0  0  0
  -20.9973  -28.3352   24.1377 H   0  0  0  0  0  0
  -20.5699  -26.2364   23.3752 H   0  0  0  0  0  0
  -21.6725  -26.7426   22.1345 H   0  0  0  0  0  0
  -19.7115  -25.6136   21.1446 H   0  0  0  0  0  0
  -19.6755  -27.2976   20.6734 H   0  0  0  0  0  0
  -17.4238  -26.6440   21.4113 H   0  0  0  0  0  0
  -18.0444  -26.0039   22.9155 H   0  0  0  0  0  0
  -19.7959  -30.7237   24.2187 H   0  0  0  0  0  0
  -17.5020  -31.6306   24.4999 H   0  0  0  0  0  0
  -15.5345  -30.2901   23.7616 H   0  0  0  0  0  0
  -15.8703  -28.0704   22.7126 H   0  0  0  0  0  0
  -24.5936  -30.7038   25.7792 H   0  0  0  0  0  0
  -24.8944  -32.2901   26.4819 H   0  0  0  0  0  0
  -25.8119  -30.8960   27.0256 H   0  0  0  0  0  0
  -26.3107  -29.6614   24.1297 H   0  0  0  0  0  0
  -27.4197  -29.7292   25.4791 H   0  0  0  0  0  0
  -27.8925  -30.4252   23.9501 H   0  0  0  0  0  0
  -27.2742  -33.3618   26.1957 H   0  0  0  0  0  0
  -28.3909  -32.6819   25.0250 H   0  0  0  0  0  0
  -28.0768  -31.8478   26.5412 H   0  0  0  0  0  0
  -28.2608  -38.0048   24.7542 H   0  0  0  0  0  0
  -28.1097  -36.2600   24.6300 H   0  0  0  0  0  0
  -27.2314  -37.1366   25.8893 H   0  0  0  0  0  0
  -20.9513  -29.8691   21.6733 H   0  0  0  0  0  0
  -26.0195  -38.2829   24.1457 H   0  0  0  0  0  0
  -30.9804  -20.1809   18.7320 H   0  0  0  0  0  0
  -31.2908  -17.7808   19.1179 H   0  0  0  0  0  0
  -27.6951  -20.2409   21.4653 H   0  0  0  0  0  0
  -27.2195  -16.7702   21.6217 H   0  0  0  0  0  0
  -26.8833  -18.3018   22.4090 H   0  0  0  0  0  0
  -28.2092  -17.2909   22.9963 H   0  0  0  0  0  0
  -26.6976  -22.2013   21.1187 H   0  0  0  0  0  0
  -26.3650  -23.1030   19.6534 H   0  0  0  0  0  0
  -26.4365  -23.9317   21.2009 H   0  0  0  0  0  0
  -29.0109  -22.5337   22.3085 H   0  0  0  0  0  0
  -28.6649  -24.2450   22.3932 H   0  0  0  0  0  0
  -30.1668  -23.6930   21.6626 H   0  0  0  0  0  0
  -28.4413  -21.9839   18.6553 H   0  0  0  0  0  0
  -30.0068  -22.4099   19.2007 H   0  0  0  0  0  0
  -27.9049  -24.8521   18.7269 H   0  0  0  0  0  0
  -29.5129  -24.9348   19.2848 H   0  0  0  0  0  0
  -28.8031  -15.6379   21.0517 H   0  0  0  0  0  0
  1 25  1  0  0  0
  1 30  2  0  0  0
  1 83  1  0  0  0
  2  3  1  0  0  0
  2 25  1  0  0  0
  2 84  1  0  0  0
  2 85  1  0  0  0
  3  4  1  0  0  0
  3 86  1  0  0  0
  3 87  1  0  0  0
  4  5  1  0  0  0
  4 88  1  0  0  0
  4 89  1  0  0  0
  5  6  1  0  0  0
  5 26  1  0  0  0
  5 90  1  0  0  0
  6 25  1  0  0  0
  6 91  1  0  0  0
  6 92  1  0  0  0
  7  8  2  0  0  0
  7 26  1  0  0  0
  7 29  1  0  0  0
  8  9  1  0  0  0
  8 22  1  0  0  0
  9 10  1  0  0  0
  9 27  2  0  0  0
 10 11  2  0  0  0
 10 15  1  0  0  0
 11 12  1  0  0  0
 11 93  1  0  0  0
 12 13  2  0  0  0
 12 94  1  0  0  0
 13 14  1  0  0  0
 13 31  1  0  0  0
 14 15  2  0  0  0
 14 95  1  0  0  0
 15 96  1  0  0  0
 16 17  2  0  0  0
 16 21  1  0  0  0
 16 31  1  0  0  0
 17 18  1  0  0  0
 17 97  1  0  0  0
 18 19  2  0  0  0
 18 98  1  0  0  0
 19 20  1  0  0  0
 19 24  1  0  0  0
 20 21  2  0  0  0
 20 99  1  0  0  0
 21 23  1  0  0  0
 22 28  1  0  0  0
 22 32  2  0  0  0
 26 27  1  0  0  0
 28100  1  0  0  0
 28101  1  0  0  0
 29102  1  0  0  0
 29103  1  0  0  0
 33 34  1  0  0  0
 33 66  1  0  0  0
 33 70  2  0  0  0
 34 36  1  0  0  0
 34 59  1  0  0  0
 34104  1  0  0  0
 35 44  2  0  0  0
 35 45  1  0  0  0
 35 68  1  0  0  0
 36 56  1  0  0  0
 36105  1  0  0  0
 37 39  1  0  0  0
 37 47  1  0  0  0
 37 66  1  0  0  0
 37106  1  0  0  0
 38 43  2  0  0  0
 38 46  1  0  0  0
 38 47  1  0  0  0
 39 64  1  0  0  0
 39 67  2  0  0  0
 40 52  1  0  0  0
 40 53  2  0  0  0
 40 58  1  0  0  0
 41107  1  0  0  0
 41108  1  0  0  0
 41109  1  0  0  0
 41 48  1  0  0  0
 42 43  1  0  0  0
 42 66  1  0  0  0
 42110  1  0  0  0
 42111  1  0  0  0
 43 44  1  0  0  0
 44112  1  0  0  0
 45 46  2  0  0  0
 45113  1  0  0  0
 46114  1  0  0  0
 47115  1  0  0  0
 47116  1  0  0  0
 48 56  1  0  0  0
 48 65  1  0  0  0
 48117  1  0  0  0
 49 50  1  0  0  0
 49 53  1  0  0  0
 49 64  1  0  0  0
 49118  1  0  0  0
 50 51  1  0  0  0
 50119  1  0  0  0
 50120  1  0  0  0
 51 52  1  0  0  0
 51121  1  0  0  0
 51122  1  0  0  0
 52123  1  0  0  0
 52124  1  0  0  0
 53 54  1  0  0  0
 54 55  2  0  0  0
 54125  1  0  0  0
 55 57  1  0  0  0
 55126  1  0  0  0
 56 69  2  0  0  0
 57 58  2  0  0  0
 57127  1  0  0  0
 58128  1  0  0  0
 59 60  1  0  0  0
 59 61  1  0  0  0
 59 62  1  0  0  0
 60129  1  0  0  0
 60130  1  0  0  0
 60131  1  0  0  0
 61132  1  0  0  0
 61133  1  0  0  0
 61134  1  0  0  0
 62135  1  0  0  0
 62136  1  0  0  0
 62137  1  0  0  0
 63 65  1  0  0  0
 63138  1  0  0  0
 63139  1  0  0  0
 63140  1  0  0  0
 64141  1  0  0  0
 65142  1  0  0  0
 68 81  1  0  0  0
 71 72  2  0  0  0
 71 74  1  0  0  0
 71143  1  0  0  0
 72 76  1  0  0  0
 72144  1  0  0  0
 73 74  2  0  0  0
 73 75  1  0  0  0
 73145  1  0  0  0
 74 80  1  0  0  0
 75 76  2  0  0  0
 75 77  1  0  0  0
 76 83  1  0  0  0
 77146  1  0  0  0
 77147  1  0  0  0
 77148  1  0  0  0
 78149  1  0  0  0
 78150  1  0  0  0
 78151  1  0  0  0
 78 82  1  0  0  0
 79 82  1  0  0  0
 79152  1  0  0  0
 79153  1  0  0  0
 79154  1  0  0  0
 80 82  1  0  0  0
 80155  1  0  0  0
 80156  1  0  0  0
 81 82  1  0  0  0
 81157  1  0  0  0
 81158  1  0  0  0
 83159  1  0  0  0
M  ISO  4   1 100  68 101  81 101  83 100
M  END
> <chiral flag>
0

> <version>
0

> <s_m_source_file>
/data/baiqing/PycharmProjects/Reinvent-master-3.2/result/LINK_invent/BTK/process_docking_weight1_custom_product_contain_oxygen_bond_distance_aromatic_linkinvent_7_9_3/rearranged_h_0127.sdf

> <i_m_source_file_index>
18

> <r_mmod_Potential_Energy-OPLS-2005>
382.936981201172

> <r_mmod_Stretch_Energy-OPLS-2005>
199.934127807617

> <r_mmod_Bend_Energy-OPLS-2005>
271.093963623047

> <r_mmod_Torsional_Energy-OPLS-2005>
219.462905883789

> <r_mmod_Improper_Torsional_Energy-OPLS-2005>
4.57311487197876

> <r_mmod_Van_der_Waal_Energy-OPLS-2005>
121.298110961914

> <r_mmod_Electrostatic_Energy-OPLS-2005>
-384.082061767578

> <r_mmod_Solvation_Energy-OPLS-2005>
-198.794921875

> <b_mmod_Minimization_Converged-OPLS-2005>
0

> <r_mmod_RMS_Derivative-OPLS-2005>
6.13225317001343

$$$$
18
                    3D
 Structure written by MMmdl.
162171  0  0  1  0            999 V2000
  -30.6995  -14.5567   20.5350 C   0  0  0  0  0  0
  -30.4097  -12.3428   19.4561 C   0  0  0  0  0  0
  -29.4987  -12.5043   18.2222 C   0  0  0  0  0  0
  -28.0178  -12.3591   18.6272 C   0  0  0  0  0  0
  -27.6482  -13.2219   19.8658 C   0  0  2  0  0  0
  -28.6895  -13.0653   20.9964 C   0  0  0  0  0  0
  -25.2547  -13.8175   20.5745 C   0  0  0  0  0  0
  -24.1803  -13.0444   20.9231 C   0  0  0  0  0  0
  -24.6374  -11.6908   20.8749 C   0  0  0  0  0  0
  -23.9070  -10.4298   21.0415 C   0  0  0  0  0  0
  -24.3621   -9.4213   21.9198 C   0  0  0  0  0  0
  -23.6308   -8.2238   22.0745 C   0  0  0  0  0  0
  -22.4302   -8.0266   21.3537 C   0  0  0  0  0  0
  -21.9932   -9.0228   20.4640 C   0  0  0  0  0  0
  -22.7238  -10.2133   20.3055 C   0  0  0  0  0  0
  -21.6852   -6.0743   22.5293 C   0  0  0  0  0  0
  -21.4008   -6.5659   23.8221 C   0  0  0  0  0  0
  -21.3654   -5.6818   24.9194 C   0  0  0  0  0  0
  -21.6045   -4.3071   24.7248 C   0  0  0  0  0  0
  -21.8813   -3.8159   23.4362 C   0  0  0  0  0  0
  -21.9197   -4.6975   22.3424 C   0  0  0  0  0  0
  -22.7817  -13.5247   21.1893 C   0  0  0  0  0  0
  -22.1658   -4.2158   21.0995 F   0  0  0  0  0  0
  -21.5640   -3.4553   25.7757 F   0  0  0  0  0  0
  -30.0118  -13.3764   20.4367 N   0  0  0  0  0  0
  -26.2955  -12.9357   20.3365 N   0  0  0  0  0  0
  -25.9305  -11.6520   20.5768 N   0  0  0  0  0  0
  -22.0454  -12.8212   22.0424 N   0  0  0  0  0  0
  -25.4319  -15.1881   20.4174 N   0  0  0  0  0  0
  -31.8546  -14.6250   20.1021 O   0  0  0  0  0  0
  -21.6648   -6.8875   21.4238 O   0  0  0  0  0  0
  -22.3502  -14.5571   20.6756 O   0  0  0  0  0  0
  -24.6224  -31.8657   23.2183 C   0  0  0  0  0  0
  -25.9109  -32.4781   23.8455 C   0  0  1  0  0  0
  -27.2048  -27.3957   20.1130 C   0  0  0  0  0  0
  -25.5993  -33.8595   24.2355 N   0  0  0  0  0  0
  -23.4028  -30.4907   21.5639 C   0  0  2  0  0  0
  -24.8382  -28.9543   20.1220 C   0  0  0  0  0  0
  -22.7383  -29.4649   22.5109 C   0  0  0  0  0  0
  -18.0239  -28.1364   22.8534 C   0  0  0  0  0  0
  -24.1443  -36.7227   23.2665 C   0  0  0  0  0  0
  -25.9363  -30.8191   21.3726 C   0  0  0  0  0  0
  -26.0053  -29.4526   20.7169 C   0  0  0  0  0  0
  -27.1961  -28.6826   20.7066 C   0  0  0  0  0  0
  -26.0247  -26.9205   19.5069 C   0  0  0  0  0  0
  -24.8436  -27.6860   19.5149 C   0  0  0  0  0  0
  -23.6028  -29.8255   20.1770 C   0  0  0  0  0  0
  -25.4079  -36.3076   24.0351 C   0  0  1  0  0  0
  -20.5826  -28.3641   23.1362 C   0  0  2  0  0  0
  -20.6713  -26.9381   22.5448 C   0  0  0  0  0  0
  -19.5680  -26.6380   21.5243 C   0  0  0  0  0  0
  -18.1851  -26.7922   22.1634 C   0  0  0  0  0  0
  -19.1496  -28.8837   23.2904 C   0  0  0  0  0  0
  -18.9409  -30.1449   23.8887 C   0  0  0  0  0  0
  -17.6418  -30.6588   24.0579 C   0  0  0  0  0  0
  -25.9061  -34.9455   23.5130 C   0  0  0  0  0  0
  -16.5314  -29.9072   23.6377 C   0  0  0  0  0  0
  -16.7226  -28.6479   23.0419 C   0  0  0  0  0  0
  -26.4534  -31.6619   25.0819 C   0  0  0  0  0  0
  -25.3825  -31.3666   26.1583 C   0  0  0  0  0  0
  -27.0477  -30.3102   24.6262 C   0  0  0  0  0  0
  -27.6111  -32.4415   25.7517 C   0  0  0  0  0  0
  -27.5527  -37.1733   24.8477 C   0  0  0  0  0  0
  -21.4130  -29.3017   22.3805 N   0  0  0  0  0  0
  -26.4233  -37.3791   23.9467 N   0  0  0  0  0  0
  -24.6718  -31.0724   22.1100 N   0  0  0  0  0  0
  -23.4124  -28.8193   23.3177 O   0  0  0  0  0  0
  -28.3304  -26.5932   20.0970 O   0  0  0  0  0  0
  -26.5567  -34.8897   22.4655 O   0  0  0  0  0  0
  -23.5420  -32.1448   23.7564 O   0  0  0  0  0  0
  -31.1048  -18.7979   22.7559 C   0  0  0  0  0  0
  -29.5272  -19.2371   20.9523 C   0  0  0  0  0  0
  -30.2580  -21.0577   22.4089 C   0  0  0  0  0  0
  -30.3668  -18.3124   21.6548 C   0  0  0  0  0  0
  -31.0600  -20.1526   23.1392 C   0  0  0  0  0  0
  -29.4746  -20.6398   21.3001 C   0  0  0  0  0  0
  -28.2110  -24.1476   20.2779 C   0  0  0  0  0  0
  -30.7151  -16.9145   21.2318 C   0  0  0  0  0  0
  -28.2683  -25.4000   20.8061 C   0  0  0  0  0  0
  -29.9917  -15.7758   21.0059 C   0  0  0  0  0  0
  -28.0939  -23.9115   18.7788 C   0  0  0  0  0  0
  -28.1722  -22.8638   21.1538 C   0  0  0  0  0  0
  -28.8678  -22.6624   18.3273 C   0  0  0  0  0  0
  -28.4744  -21.4065   19.1300 C   0  0  0  0  0  0
  -31.9371  -20.6373   24.2911 C   0  0  0  0  0  0
  -28.7345  -21.6181   20.5551 N   0  0  0  0  0  0
  -31.4569  -12.4105   19.1598 H   0  0  0  0  0  0
  -30.2953  -11.3480   19.8872 H   0  0  0  0  0  0
  -29.7548  -11.7652   17.4653 H   0  0  0  0  0  0
  -29.6621  -13.4794   17.7556 H   0  0  0  0  0  0
  -27.8467  -11.3038   18.8460 H   0  0  0  0  0  0
  -27.3659  -12.6063   17.7860 H   0  0  0  0  0  0
  -27.6672  -14.2620   19.5385 H   0  0  0  0  0  0
  -28.6793  -12.0415   21.3778 H   0  0  0  0  0  0
  -28.4461  -13.7039   21.8471 H   0  0  0  0  0  0
  -25.2752   -9.5710   22.4799 H   0  0  0  0  0  0
  -24.0033   -7.4645   22.7462 H   0  0  0  0  0  0
  -21.0866   -8.8719   19.8947 H   0  0  0  0  0  0
  -22.3664  -10.9672   19.6169 H   0  0  0  0  0  0
  -21.1975   -7.6158   23.9741 H   0  0  0  0  0  0
  -21.1489   -6.0540   25.9100 H   0  0  0  0  0  0
  -22.0596   -2.7616   23.2876 H   0  0  0  0  0  0
  -22.4049  -11.9877   22.4839 H   0  0  0  0  0  0
  -21.1057  -13.1199   22.2621 H   0  0  0  0  0  0
  -24.6821  -15.8596   20.5442 H   0  0  0  0  0  0
  -26.3037  -15.6171   20.1297 H   0  0  0  0  0  0
  -26.7185  -32.5424   23.1214 H   0  0  0  0  0  0
  -25.0263  -33.9793   25.0580 H   0  0  0  0  0  0
  -22.6939  -31.3093   21.4303 H   0  0  0  0  0  0
  -23.3767  -35.9495   23.3312 H   0  0  0  0  0  0
  -24.3539  -36.8903   22.2092 H   0  0  0  0  0  0
  -23.7108  -37.6367   23.6727 H   0  0  0  0  0  0
  -26.0567  -31.5894   20.6088 H   0  0  0  0  0  0
  -26.8207  -30.8601   21.9951 H   0  0  0  0  0  0
  -28.0998  -29.0635   21.1615 H   0  0  0  0  0  0
  -26.0128  -25.9433   19.0460 H   0  0  0  0  0  0
  -23.9435  -27.2925   19.0646 H   0  0  0  0  0  0
  -23.6947  -30.6038   19.4179 H   0  0  0  0  0  0
  -22.7212  -29.2474   19.8910 H   0  0  0  0  0  0
  -25.1251  -36.1927   25.0844 H   0  0  0  0  0  0
  -20.9880  -28.3185   24.1494 H   0  0  0  0  0  0
  -20.5635  -26.2241   23.3632 H   0  0  0  0  0  0
  -21.6572  -26.7444   22.1203 H   0  0  0  0  0  0
  -19.6848  -25.6289   21.1245 H   0  0  0  0  0  0
  -19.6621  -27.3225   20.6797 H   0  0  0  0  0  0
  -17.4149  -26.6781   21.4004 H   0  0  0  0  0  0
  -18.0154  -26.0002   22.8931 H   0  0  0  0  0  0
  -19.7885  -30.7289   24.2229 H   0  0  0  0  0  0
  -17.4947  -31.6280   24.5128 H   0  0  0  0  0  0
  -15.5291  -30.2946   23.7734 H   0  0  0  0  0  0
  -15.8602  -28.0774   22.7210 H   0  0  0  0  0  0
  -24.6033  -30.6973   25.7907 H   0  0  0  0  0  0
  -24.8965  -32.2786   26.5085 H   0  0  0  0  0  0
  -25.8222  -30.8820   27.0321 H   0  0  0  0  0  0
  -26.3075  -29.6663   24.1515 H   0  0  0  0  0  0
  -27.4493  -29.7536   25.4742 H   0  0  0  0  0  0
  -27.8758  -30.4467   23.9301 H   0  0  0  0  0  0
  -27.2803  -33.3833   26.1900 H   0  0  0  0  0  0
  -28.3960  -32.6808   25.0324 H   0  0  0  0  0  0
  -28.0714  -31.8672   26.5567 H   0  0  0  0  0  0
  -28.2556  -38.0016   24.7598 H   0  0  0  0  0  0
  -28.1023  -36.2578   24.6246 H   0  0  0  0  0  0
  -27.2257  -37.1291   25.8875 H   0  0  0  0  0  0
  -20.9306  -29.8689   21.6978 H   0  0  0  0  0  0
  -26.0106  -38.2846   24.1576 H   0  0  0  0  0  0
  -31.7719  -18.1240   23.2789 H   0  0  0  0  0  0
  -28.9650  -18.8578   20.1116 H   0  0  0  0  0  0
  -30.3081  -22.0995   22.6976 H   0  0  0  0  0  0
  -31.7815  -16.8339   21.0706 H   0  0  0  0  0  0
  -28.2961  -25.5827   21.8686 H   0  0  0  0  0  0
  -28.9202  -15.7787   21.1454 H   0  0  0  0  0  0
  -28.4375  -24.7908   18.2314 H   0  0  0  0  0  0
  -27.0351  -23.7903   18.5442 H   0  0  0  0  0  0
  -27.1159  -22.6623   21.3410 H   0  0  0  0  0  0
  -28.6002  -23.0960   22.1277 H   0  0  0  0  0  0
  -29.9399  -22.8389   18.4230 H   0  0  0  0  0  0
  -28.6898  -22.4923   17.2654 H   0  0  0  0  0  0
  -29.0325  -20.5590   18.7347 H   0  0  0  0  0  0
  -27.4176  -21.1679   18.9793 H   0  0  0  0  0  0
  -32.1886  -19.8252   24.9771 H   0  0  0  0  0  0
  -31.4266  -21.4025   24.8762 H   0  0  0  0  0  0
  -32.8722  -21.0596   23.9162 H   0  0  0  0  0  0
  1 25  1  0  0  0
  1 30  2  0  0  0
  1 80  1  0  0  0
  2  3  1  0  0  0
  2 25  1  0  0  0
  2 87  1  0  0  0
  2 88  1  0  0  0
  3  4  1  0  0  0
  3 89  1  0  0  0
  3 90  1  0  0  0
  4  5  1  0  0  0
  4 91  1  0  0  0
  4 92  1  0  0  0
  5  6  1  0  0  0
  5 26  1  0  0  0
  5 93  1  0  0  0
  6 25  1  0  0  0
  6 94  1  0  0  0
  6 95  1  0  0  0
  7  8  2  0  0  0
  7 26  1  0  0  0
  7 29  1  0  0  0
  8  9  1  0  0  0
  8 22  1  0  0  0
  9 10  1  0  0  0
  9 27  2  0  0  0
 10 11  2  0  0  0
 10 15  1  0  0  0
 11 12  1  0  0  0
 11 96  1  0  0  0
 12 13  2  0  0  0
 12 97  1  0  0  0
 13 14  1  0  0  0
 13 31  1  0  0  0
 14 15  2  0  0  0
 14 98  1  0  0  0
 15 99  1  0  0  0
 16 17  2  0  0  0
 16 21  1  0  0  0
 16 31  1  0  0  0
 17 18  1  0  0  0
 17100  1  0  0  0
 18 19  2  0  0  0
 18101  1  0  0  0
 19 20  1  0  0  0
 19 24  1  0  0  0
 20 21  2  0  0  0
 20102  1  0  0  0
 21 23  1  0  0  0
 22 28  1  0  0  0
 22 32  2  0  0  0
 26 27  1  0  0  0
 28103  1  0  0  0
 28104  1  0  0  0
 29105  1  0  0  0
 29106  1  0  0  0
 33 34  1  0  0  0
 33 66  1  0  0  0
 33 70  2  0  0  0
 34 36  1  0  0  0
 34 59  1  0  0  0
 34107  1  0  0  0
 35 44  2  0  0  0
 35 45  1  0  0  0
 35 68  1  0  0  0
 36 56  1  0  0  0
 36108  1  0  0  0
 37 39  1  0  0  0
 37 47  1  0  0  0
 37 66  1  0  0  0
 37109  1  0  0  0
 38 43  2  0  0  0
 38 46  1  0  0  0
 38 47  1  0  0  0
 39 64  1  0  0  0
 39 67  2  0  0  0
 40 52  1  0  0  0
 40 53  2  0  0  0
 40 58  1  0  0  0
 41110  1  0  0  0
 41111  1  0  0  0
 41112  1  0  0  0
 41 48  1  0  0  0
 42 43  1  0  0  0
 42 66  1  0  0  0
 42113  1  0  0  0
 42114  1  0  0  0
 43 44  1  0  0  0
 44115  1  0  0  0
 45 46  2  0  0  0
 45116  1  0  0  0
 46117  1  0  0  0
 47118  1  0  0  0
 47119  1  0  0  0
 48 56  1  0  0  0
 48 65  1  0  0  0
 48120  1  0  0  0
 49 50  1  0  0  0
 49 53  1  0  0  0
 49 64  1  0  0  0
 49121  1  0  0  0
 50 51  1  0  0  0
 50122  1  0  0  0
 50123  1  0  0  0
 51 52  1  0  0  0
 51124  1  0  0  0
 51125  1  0  0  0
 52126  1  0  0  0
 52127  1  0  0  0
 53 54  1  0  0  0
 54 55  2  0  0  0
 54128  1  0  0  0
 55 57  1  0  0  0
 55129  1  0  0  0
 56 69  2  0  0  0
 57 58  2  0  0  0
 57130  1  0  0  0
 58131  1  0  0  0
 59 60  1  0  0  0
 59 61  1  0  0  0
 59 62  1  0  0  0
 60132  1  0  0  0
 60133  1  0  0  0
 60134  1  0  0  0
 61135  1  0  0  0
 61136  1  0  0  0
 61137  1  0  0  0
 62138  1  0  0  0
 62139  1  0  0  0
 62140  1  0  0  0
 63 65  1  0  0  0
 63141  1  0  0  0
 63142  1  0  0  0
 63143  1  0  0  0
 64144  1  0  0  0
 65145  1  0  0  0
 68 79  1  0  0  0
 71 74  2  0  0  0
 71 75  1  0  0  0
 71146  1  0  0  0
 72 74  1  0  0  0
 72 76  2  0  0  0
 72147  1  0  0  0
 73 75  2  0  0  0
 73 76  1  0  0  0
 73148  1  0  0  0
 74 78  1  0  0  0
 75 85  1  0  0  0
 76 86  1  0  0  0
 77 79  2  0  0  0
 77 81  1  0  0  0
 77 82  1  0  0  0
 78 80  2  0  0  0
 78149  1  0  0  0
 79150  1  0  0  0
 80151  1  0  0  0
 81 83  1  0  0  0
 81152  1  0  0  0
 81153  1  0  0  0
 82 86  1  0  0  0
 82154  1  0  0  0
 82155  1  0  0  0
 83 84  1  0  0  0
 83156  1  0  0  0
 83157  1  0  0  0
 84 86  1  0  0  0
 84158  1  0  0  0
 84159  1  0  0  0
 85160  1  0  0  0
 85161  1  0  0  0
 85162  1  0  0  0
M  ISO  4   1 100  68 101  79 101  80 100
M  END
> <chiral flag>
0

> <version>
0

> <s_m_source_file>
/data/baiqing/PycharmProjects/Reinvent-master-3.2/result/LINK_invent/BTK/process_docking_weight1_custom_product_contain_oxygen_bond_distance_aromatic_linkinvent_7_9_3/rearranged_h_0127.sdf

> <i_m_source_file_index>
19

> <r_mmod_Potential_Energy-OPLS-2005>
84.5483856201172

> <r_mmod_Stretch_Energy-OPLS-2005>
59.8922882080078

> <r_mmod_Bend_Energy-OPLS-2005>
141.432312011719

> <r_mmod_Torsional_Energy-OPLS-2005>
227.561325073242

> <r_mmod_Improper_Torsional_Energy-OPLS-2005>
4.5317497253418

> <r_mmod_Van_der_Waal_Energy-OPLS-2005>
155.061737060547

> <r_mmod_Electrostatic_Energy-OPLS-2005>
-325.538055419922

> <r_mmod_Solvation_Energy-OPLS-2005>
-204.340835571289

> <b_mmod_Minimization_Converged-OPLS-2005>
0

> <r_mmod_RMS_Derivative-OPLS-2005>
5.67115354537964

$$$$
19
                    3D
 Structure written by MMmdl.
155163  0  0  1  0            999 V2000
  -30.6312  -14.7534   20.4730 C   0  0  0  0  0  0
  -30.4150  -12.4931   19.4430 C   0  0  0  0  0  0
  -29.4925  -12.5557   18.2067 C   0  0  0  0  0  0
  -28.0200  -12.3702   18.6191 C   0  0  0  0  0  0
  -27.6341  -13.2511   19.8416 C   0  0  2  0  0  0
  -28.6862  -13.1532   20.9633 C   0  0  0  0  0  0
  -25.2460  -13.8240   20.5631 C   0  0  0  0  0  0
  -24.1820  -13.0493   20.9133 C   0  0  0  0  0  0
  -24.6421  -11.6952   20.8631 C   0  0  0  0  0  0
  -23.9118  -10.4360   21.0335 C   0  0  0  0  0  0
  -24.3682   -9.4292   21.9164 C   0  0  0  0  0  0
  -23.6362   -8.2318   22.0769 C   0  0  0  0  0  0
  -22.4329   -8.0335   21.3556 C   0  0  0  0  0  0
  -21.9943   -9.0280   20.4647 C   0  0  0  0  0  0
  -22.7261  -10.2166   20.3024 C   0  0  0  0  0  0
  -21.6901   -6.0766   22.5259 C   0  0  0  0  0  0
  -21.4061   -6.5689   23.8181 C   0  0  0  0  0  0
  -21.3646   -5.6835   24.9145 C   0  0  0  0  0  0
  -21.6038   -4.3085   24.7182 C   0  0  0  0  0  0
  -21.8829   -3.8192   23.4296 C   0  0  0  0  0  0
  -21.9232   -4.7013   22.3377 C   0  0  0  0  0  0
  -22.7848  -13.5221   21.1844 C   0  0  0  0  0  0
  -22.1700   -4.2210   21.0934 F   0  0  0  0  0  0
  -21.5603   -3.4558   25.7676 F   0  0  0  0  0  0
  -29.9554  -13.5569   20.3616 N   0  0  0  0  0  0
  -26.2912  -12.9518   20.3207 N   0  0  0  0  0  0
  -25.9370  -11.6622   20.5633 N   0  0  0  0  0  0
  -22.0555  -12.8175   22.0372 N   0  0  0  0  0  0
  -25.4042  -15.1957   20.4065 N   0  0  0  0  0  0
  -31.8534  -14.7500   20.3357 O   0  0  0  0  0  0
  -21.6699   -6.8921   21.4218 O   0  0  0  0  0  0
  -22.3495  -14.5532   20.6689 O   0  0  0  0  0  0
  -24.6300  -31.8600   23.1982 C   0  0  0  0  0  0
  -25.9086  -32.4790   23.8411 C   0  0  1  0  0  0
  -27.2281  -27.3058   20.1125 C   0  0  0  0  0  0
  -25.5910  -33.8592   24.2373 N   0  0  0  0  0  0
  -23.4311  -30.4723   21.5439 C   0  0  2  0  0  0
  -24.8857  -28.9365   20.1094 C   0  0  0  0  0  0
  -22.7543  -29.4513   22.4925 C   0  0  0  0  0  0
  -18.0325  -28.1379   22.8325 C   0  0  0  0  0  0
  -24.1498  -36.7278   23.2663 C   0  0  0  0  0  0
  -25.9709  -30.7980   21.3744 C   0  0  0  0  0  0
  -26.0589  -29.4273   20.6989 C   0  0  0  0  0  0
  -27.2450  -28.6258   20.6711 C   0  0  0  0  0  0
  -26.0373  -26.8786   19.4855 C   0  0  0  0  0  0
  -24.8831  -27.6814   19.4793 C   0  0  0  0  0  0
  -23.6474  -29.8038   20.1607 C   0  0  0  0  0  0
  -25.4117  -36.3110   24.0361 C   0  0  1  0  0  0
  -20.5935  -28.3658   23.1267 C   0  0  2  0  0  0
  -20.6797  -26.9319   22.5316 C   0  0  0  0  0  0
  -19.5791  -26.6409   21.5012 C   0  0  0  0  0  0
  -18.1949  -26.8022   22.1336 C   0  0  0  0  0  0
  -19.1609  -28.8823   23.2785 C   0  0  0  0  0  0
  -18.9564  -30.1369   23.8885 C   0  0  0  0  0  0
  -17.6603  -30.6567   24.0547 C   0  0  0  0  0  0
  -25.9009  -34.9446   23.5148 C   0  0  0  0  0  0
  -16.5483  -29.9082   23.6264 C   0  0  0  0  0  0
  -16.7327  -28.6505   23.0239 C   0  0  0  0  0  0
  -26.4478  -31.6580   25.0779 C   0  0  0  0  0  0
  -25.3713  -31.3658   26.1515 C   0  0  0  0  0  0
  -27.0358  -30.3017   24.6219 C   0  0  0  0  0  0
  -27.6071  -32.4308   25.7545 C   0  0  0  0  0  0
  -27.5593  -37.1805   24.8470 C   0  0  0  0  0  0
  -21.4217  -29.3123   22.3801 N   0  0  0  0  0  0
  -26.4320  -37.3788   23.9371 N   0  0  0  0  0  0
  -24.6957  -31.0585   22.0963 N   0  0  0  0  0  0
  -23.4308  -28.7902   23.2878 O   0  0  0  0  0  0
  -28.3021  -26.4036   20.1568 O   0  0  0  0  0  0
  -26.5552  -34.8902   22.4703 O   0  0  0  0  0  0
  -23.5431  -32.1259   23.7308 O   0  0  0  0  0  0
  -27.4974  -19.1080   21.6845 C   0  0  0  0  0  0
  -28.2970  -16.7636   21.7150 C   0  0  0  0  0  0
  -29.3240  -18.4115   20.2482 C   0  0  0  0  0  0
  -27.4178  -17.7764   22.1764 C   0  0  0  0  0  0
  -28.4671  -19.4830   20.7265 C   0  0  0  0  0  0
  -29.2507  -17.0302   20.7114 C   0  0  0  0  0  0
  -28.4286  -23.7374   20.1751 C   0  0  0  0  0  0
  -26.3263  -17.4147   23.1706 C   0  0  0  0  0  0
  -28.4225  -20.9625   20.1162 C   0  0  0  0  0  0
  -28.3595  -22.3467   20.9659 C   0  0  0  0  0  0
  -28.0866  -25.1153   20.8971 C   0  0  0  0  0  0
  -30.0284  -15.9450   20.0787 N   0  0  0  0  0  0
  -28.7837  -23.7560   18.9912 O   0  0  0  0  0  0
  -31.4526  -12.6212   19.1429 H   0  0  0  0  0  0
  -30.3616  -11.5154   19.9202 H   0  0  0  0  0  0
  -29.7721  -11.8024   17.4678 H   0  0  0  0  0  0
  -29.6120  -13.5221   17.7187 H   0  0  0  0  0  0
  -27.8725  -11.3177   18.8548 H   0  0  0  0  0  0
  -27.3541  -12.5893   17.7835 H   0  0  0  0  0  0
  -27.6289  -14.2815   19.4922 H   0  0  0  0  0  0
  -28.7428  -12.1280   21.3299 H   0  0  0  0  0  0
  -28.4279  -13.7496   21.8354 H   0  0  0  0  0  0
  -25.2794   -9.5827   22.4761 H   0  0  0  0  0  0
  -24.0076   -7.4736   22.7526 H   0  0  0  0  0  0
  -21.0876   -8.8803   19.8975 H   0  0  0  0  0  0
  -22.3678  -10.9712   19.6174 H   0  0  0  0  0  0
  -21.2084   -7.6201   23.9687 H   0  0  0  0  0  0
  -21.1432   -6.0559   25.9028 H   0  0  0  0  0  0
  -22.0613   -2.7652   23.2746 H   0  0  0  0  0  0
  -22.4274  -11.9859   22.4784 H   0  0  0  0  0  0
  -21.1145  -13.1219   22.2596 H   0  0  0  0  0  0
  -24.6546  -15.8498   20.5771 H   0  0  0  0  0  0
  -26.2595  -15.6403   20.1027 H   0  0  0  0  0  0
  -26.7187  -32.5480   23.1234 H   0  0  0  0  0  0
  -25.0160  -33.9825   25.0603 H   0  0  0  0  0  0
  -22.7251  -31.2854   21.3873 H   0  0  0  0  0  0
  -23.3796  -35.9581   23.3300 H   0  0  0  0  0  0
  -24.3624  -36.8891   22.2084 H   0  0  0  0  0  0
  -23.7180  -37.6456   23.6646 H   0  0  0  0  0  0
  -26.1053  -31.5940   20.6422 H   0  0  0  0  0  0
  -26.8479  -30.8431   22.0041 H   0  0  0  0  0  0
  -28.1626  -29.0053   21.1013 H   0  0  0  0  0  0
  -25.9860  -25.9080   19.0074 H   0  0  0  0  0  0
  -23.9846  -27.3222   19.0015 H   0  0  0  0  0  0
  -23.7619  -30.5761   19.3991 H   0  0  0  0  0  0
  -22.7728  -29.2060   19.8736 H   0  0  0  0  0  0
  -25.1293  -36.2051   25.0852 H   0  0  0  0  0  0
  -20.9816  -28.3206   24.1465 H   0  0  0  0  0  0
  -20.5627  -26.2171   23.3545 H   0  0  0  0  0  0
  -21.6624  -26.7424   22.1098 H   0  0  0  0  0  0
  -19.6909  -25.6407   21.0870 H   0  0  0  0  0  0
  -19.6754  -27.3095   20.6529 H   0  0  0  0  0  0
  -17.4298  -26.6955   21.3603 H   0  0  0  0  0  0
  -18.0180  -26.0210   22.8736 H   0  0  0  0  0  0
  -19.8115  -30.6992   24.2295 H   0  0  0  0  0  0
  -17.5210  -31.6188   24.5294 H   0  0  0  0  0  0
  -15.5523  -30.2955   23.7658 H   0  0  0  0  0  0
  -15.8765  -28.0939   22.6849 H   0  0  0  0  0  0
  -24.5955  -30.6985   25.7769 H   0  0  0  0  0  0
  -24.8877  -32.2788   26.4953 H   0  0  0  0  0  0
  -25.8106  -30.8795   27.0239 H   0  0  0  0  0  0
  -26.2978  -29.6760   24.1197 H   0  0  0  0  0  0
  -27.3989  -29.7318   25.4772 H   0  0  0  0  0  0
  -27.8843  -30.4309   23.9512 H   0  0  0  0  0  0
  -27.2736  -33.3626   26.2093 H   0  0  0  0  0  0
  -28.3888  -32.6799   25.0374 H   0  0  0  0  0  0
  -28.0686  -31.8424   26.5464 H   0  0  0  0  0  0
  -28.2607  -38.0116   24.7518 H   0  0  0  0  0  0
  -28.1110  -36.2630   24.6315 H   0  0  0  0  0  0
  -27.2289  -37.1445   25.8883 H   0  0  0  0  0  0
  -20.9312  -29.9540   21.7732 H   0  0  0  0  0  0
  -26.0226  -38.2879   24.1404 H   0  0  0  0  0  0
  -26.7633  -19.8325   22.0265 H   0  0  0  0  0  0
  -28.1919  -15.7710   22.1097 H   0  0  0  0  0  0
  -30.0301  -18.6583   19.4694 H   0  0  0  0  0  0
  -25.8976  -18.3060   23.6244 H   0  0  0  0  0  0
  -26.6921  -16.7900   23.9831 H   0  0  0  0  0  0
  -25.5194  -16.8739   22.6804 H   0  0  0  0  0  0
  -27.5091  -20.9594   19.5278 H   0  0  0  0  0  0
  -29.2068  -21.0661   19.3723 H   0  0  0  0  0  0
  -27.4443  -22.3554   21.5614 H   0  0  0  0  0  0
  -29.1842  -22.4093   21.6849 H   0  0  0  0  0  0
  -27.0595  -25.0414   21.2569 H   0  0  0  0  0  0
  -28.7434  -25.1520   21.7720 H   0  0  0  0  0  0
  -30.7036  -16.3739   19.4593 H   0  0  0  0  0  0
  1 25  1  0  0  0
  1 30  2  0  0  0
  1 82  1  0  0  0
  2  3  1  0  0  0
  2 25  1  0  0  0
  2 84  1  0  0  0
  2 85  1  0  0  0
  3  4  1  0  0  0
  3 86  1  0  0  0
  3 87  1  0  0  0
  4  5  1  0  0  0
  4 88  1  0  0  0
  4 89  1  0  0  0
  5  6  1  0  0  0
  5 26  1  0  0  0
  5 90  1  0  0  0
  6 25  1  0  0  0
  6 91  1  0  0  0
  6 92  1  0  0  0
  7  8  2  0  0  0
  7 26  1  0  0  0
  7 29  1  0  0  0
  8  9  1  0  0  0
  8 22  1  0  0  0
  9 10  1  0  0  0
  9 27  2  0  0  0
 10 11  2  0  0  0
 10 15  1  0  0  0
 11 12  1  0  0  0
 11 93  1  0  0  0
 12 13  2  0  0  0
 12 94  1  0  0  0
 13 14  1  0  0  0
 13 31  1  0  0  0
 14 15  2  0  0  0
 14 95  1  0  0  0
 15 96  1  0  0  0
 16 17  2  0  0  0
 16 21  1  0  0  0
 16 31  1  0  0  0
 17 18  1  0  0  0
 17 97  1  0  0  0
 18 19  2  0  0  0
 18 98  1  0  0  0
 19 20  1  0  0  0
 19 24  1  0  0  0
 20 21  2  0  0  0
 20 99  1  0  0  0
 21 23  1  0  0  0
 22 28  1  0  0  0
 22 32  2  0  0  0
 26 27  1  0  0  0
 28100  1  0  0  0
 28101  1  0  0  0
 29102  1  0  0  0
 29103  1  0  0  0
 33 34  1  0  0  0
 33 66  1  0  0  0
 33 70  2  0  0  0
 34 36  1  0  0  0
 34 59  1  0  0  0
 34104  1  0  0  0
 35 44  2  0  0  0
 35 45  1  0  0  0
 35 68  1  0  0  0
 36 56  1  0  0  0
 36105  1  0  0  0
 37 39  1  0  0  0
 37 47  1  0  0  0
 37 66  1  0  0  0
 37106  1  0  0  0
 38 43  2  0  0  0
 38 46  1  0  0  0
 38 47  1  0  0  0
 39 64  1  0  0  0
 39 67  2  0  0  0
 40 52  1  0  0  0
 40 53  2  0  0  0
 40 58  1  0  0  0
 41107  1  0  0  0
 41108  1  0  0  0
 41109  1  0  0  0
 41 48  1  0  0  0
 42 43  1  0  0  0
 42 66  1  0  0  0
 42110  1  0  0  0
 42111  1  0  0  0
 43 44  1  0  0  0
 44112  1  0  0  0
 45 46  2  0  0  0
 45113  1  0  0  0
 46114  1  0  0  0
 47115  1  0  0  0
 47116  1  0  0  0
 48 56  1  0  0  0
 48 65  1  0  0  0
 48117  1  0  0  0
 49 50  1  0  0  0
 49 53  1  0  0  0
 49 64  1  0  0  0
 49118  1  0  0  0
 50 51  1  0  0  0
 50119  1  0  0  0
 50120  1  0  0  0
 51 52  1  0  0  0
 51121  1  0  0  0
 51122  1  0  0  0
 52123  1  0  0  0
 52124  1  0  0  0
 53 54  1  0  0  0
 54 55  2  0  0  0
 54125  1  0  0  0
 55 57  1  0  0  0
 55126  1  0  0  0
 56 69  2  0  0  0
 57 58  2  0  0  0
 57127  1  0  0  0
 58128  1  0  0  0
 59 60  1  0  0  0
 59 61  1  0  0  0
 59 62  1  0  0  0
 60129  1  0  0  0
 60130  1  0  0  0
 60131  1  0  0  0
 61132  1  0  0  0
 61133  1  0  0  0
 61134  1  0  0  0
 62135  1  0  0  0
 62136  1  0  0  0
 62137  1  0  0  0
 63 65  1  0  0  0
 63138  1  0  0  0
 63139  1  0  0  0
 63140  1  0  0  0
 64141  1  0  0  0
 65142  1  0  0  0
 68 81  1  0  0  0
 71 74  2  0  0  0
 71 75  1  0  0  0
 71143  1  0  0  0
 72 74  1  0  0  0
 72 76  2  0  0  0
 72144  1  0  0  0
 73 75  2  0  0  0
 73 76  1  0  0  0
 73145  1  0  0  0
 74 78  1  0  0  0
 75 79  1  0  0  0
 76 82  1  0  0  0
 77 80  1  0  0  0
 77 81  1  0  0  0
 77 83  2  0  0  0
 78146  1  0  0  0
 78147  1  0  0  0
 78148  1  0  0  0
 79 80  1  0  0  0
 79149  1  0  0  0
 79150  1  0  0  0
 80151  1  0  0  0
 80152  1  0  0  0
 81153  1  0  0  0
 81154  1  0  0  0
 82155  1  0  0  0
M  ISO  4   1 100  68 101  81 101  82 100
M  END
> <chiral flag>
0

> <version>
0

> <s_m_source_file>
/data/baiqing/PycharmProjects/Reinvent-master-3.2/result/LINK_invent/BTK/process_docking_weight1_custom_product_contain_oxygen_bond_distance_aromatic_linkinvent_7_9_3/rearranged_h_0127.sdf

> <i_m_source_file_index>
20

> <r_mmod_Potential_Energy-OPLS-2005>
252.43505859375

> <r_mmod_Stretch_Energy-OPLS-2005>
118.431854248047

> <r_mmod_Bend_Energy-OPLS-2005>
201.16569519043

> <r_mmod_Torsional_Energy-OPLS-2005>
280.612182617188

> <r_mmod_Improper_Torsional_Energy-OPLS-2005>
29.2228698730469

> <r_mmod_Van_der_Waal_Energy-OPLS-2005>
120.965255737305

> <r_mmod_Electrostatic_Energy-OPLS-2005>
-376.554138183594

> <r_mmod_Solvation_Energy-OPLS-2005>
-208.009048461914

> <b_mmod_Minimization_Converged-OPLS-2005>
0

> <r_mmod_RMS_Derivative-OPLS-2005>
13.7865581512451

$$$$
20
                    3D
 Structure written by MMmdl.
152160  0  0  1  0            999 V2000
  -30.6390  -14.6788   20.4920 C   0  0  0  0  0  0
  -30.4300  -12.4130   19.4753 C   0  0  0  0  0  0
  -29.5099  -12.5119   18.2370 C   0  0  0  0  0  0
  -28.0323  -12.3468   18.6431 C   0  0  0  0  0  0
  -27.6496  -13.2275   19.8619 C   0  0  2  0  0  0
  -28.6905  -13.1068   20.9954 C   0  0  0  0  0  0
  -25.2535  -13.8193   20.5698 C   0  0  0  0  0  0
  -24.1809  -13.0442   20.9187 C   0  0  0  0  0  0
  -24.6395  -11.6919   20.8735 C   0  0  0  0  0  0
  -23.9074  -10.4294   21.0402 C   0  0  0  0  0  0
  -24.3625   -9.4208   21.9180 C   0  0  0  0  0  0
  -23.6295   -8.2246   22.0756 C   0  0  0  0  0  0
  -22.4271   -8.0286   21.3551 C   0  0  0  0  0  0
  -21.9909   -9.0261   20.4649 C   0  0  0  0  0  0
  -22.7246  -10.2137   20.3053 C   0  0  0  0  0  0
  -21.6851   -6.0734   22.5280 C   0  0  0  0  0  0
  -21.4017   -6.5637   23.8215 C   0  0  0  0  0  0
  -21.3661   -5.6789   24.9176 C   0  0  0  0  0  0
  -21.6042   -4.3053   24.7228 C   0  0  0  0  0  0
  -21.8817   -3.8146   23.4348 C   0  0  0  0  0  0
  -21.9193   -4.6962   22.3403 C   0  0  0  0  0  0
  -22.7830  -13.5223   21.1852 C   0  0  0  0  0  0
  -22.1659   -4.2147   21.0983 F   0  0  0  0  0  0
  -21.5630   -3.4537   25.7741 F   0  0  0  0  0  0
  -30.0052  -13.4563   20.4384 N   0  0  0  0  0  0
  -26.2970  -12.9398   20.3317 N   0  0  0  0  0  0
  -25.9330  -11.6539   20.5758 N   0  0  0  0  0  0
  -22.0479  -12.8222   22.0418 N   0  0  0  0  0  0
  -25.4243  -15.1917   20.4147 N   0  0  0  0  0  0
  -31.7914  -14.7786   20.0608 O   0  0  0  0  0  0
  -21.6637   -6.8882   21.4244 O   0  0  0  0  0  0
  -22.3511  -14.5524   20.6696 O   0  0  0  0  0  0
  -24.6279  -31.8590   23.2030 C   0  0  0  0  0  0
  -25.9121  -32.4774   23.8357 C   0  0  1  0  0  0
  -27.2172  -27.2912   20.1207 C   0  0  0  0  0  0
  -25.5930  -33.8576   24.2277 N   0  0  0  0  0  0
  -23.4230  -30.4843   21.5449 C   0  0  2  0  0  0
  -24.8697  -28.9413   20.1070 C   0  0  0  0  0  0
  -22.7487  -29.4621   22.4914 C   0  0  0  0  0  0
  -18.0288  -28.1397   22.8482 C   0  0  0  0  0  0
  -24.1487  -36.7293   23.2638 C   0  0  0  0  0  0
  -25.9677  -30.7790   21.3823 C   0  0  0  0  0  0
  -26.0387  -29.4057   20.7224 C   0  0  0  0  0  0
  -27.2126  -28.5904   20.7250 C   0  0  0  0  0  0
  -26.0308  -26.9037   19.4531 C   0  0  0  0  0  0
  -24.8695  -27.6968   19.4627 C   0  0  0  0  0  0
  -23.6400  -29.8250   20.1581 C   0  0  0  0  0  0
  -25.4113  -36.3082   24.0326 C   0  0  1  0  0  0
  -20.5891  -28.3704   23.1271 C   0  0  2  0  0  0
  -20.6778  -26.9424   22.5406 C   0  0  0  0  0  0
  -19.5753  -26.6390   21.5211 C   0  0  0  0  0  0
  -18.1934  -26.7937   22.1624 C   0  0  0  0  0  0
  -19.1543  -28.8865   23.2874 C   0  0  0  0  0  0
  -18.9467  -30.1463   23.8896 C   0  0  0  0  0  0
  -17.6468  -30.6595   24.0566 C   0  0  0  0  0  0
  -25.9054  -34.9449   23.5105 C   0  0  0  0  0  0
  -16.5357  -29.9098   23.6329 C   0  0  0  0  0  0
  -16.7276  -28.6517   23.0347 C   0  0  0  0  0  0
  -26.4495  -31.6590   25.0734 C   0  0  0  0  0  0
  -25.3721  -31.3740   26.1455 C   0  0  0  0  0  0
  -27.0347  -30.3009   24.6215 C   0  0  0  0  0  0
  -27.6042  -32.4336   25.7506 C   0  0  0  0  0  0
  -27.5579  -37.1798   24.8460 C   0  0  0  0  0  0
  -21.4197  -29.3057   22.3663 N   0  0  0  0  0  0
  -26.4287  -37.3782   23.9411 N   0  0  0  0  0  0
  -24.6915  -31.0578   22.0997 N   0  0  0  0  0  0
  -23.4200  -28.8151   23.2997 O   0  0  0  0  0  0
  -28.3157  -26.4087   20.2096 O   0  0  0  0  0  0
  -26.5627  -34.8916   22.4674 O   0  0  0  0  0  0
  -23.5436  -32.1399   23.7342 O   0  0  0  0  0  0
  -28.3654  -19.7435   22.7937 C   0  0  0  0  0  0
  -28.8992  -18.5454   22.2760 C   0  0  0  0  0  0
  -28.4026  -20.9438   22.0562 C   0  0  0  0  0  0
  -29.5342  -19.7469   20.2668 C   0  0  0  0  0  0
  -29.5166  -18.5007   21.0068 C   0  0  0  0  0  0
  -28.9790  -20.9885   20.7704 C   0  0  0  0  0  0
  -30.1071  -17.1713   20.5215 C   0  0  0  0  0  0
  -29.8853  -15.8827   20.9763 C   0  0  0  0  0  0
  -28.8529  -22.3193   19.9239 C   0  0  0  0  0  0
  -28.9690  -23.7903   20.5749 C   0  0  0  0  0  0
  -28.1295  -24.9637   19.8763 C   0  0  0  0  0  0
  -31.4741  -12.5167   19.1762 H   0  0  0  0  0  0
  -30.3558  -11.4245   19.9314 H   0  0  0  0  0  0
  -29.7820  -11.7536   17.5016 H   0  0  0  0  0  0
  -29.6510  -13.4779   17.7492 H   0  0  0  0  0  0
  -27.8740  -11.2949   18.8842 H   0  0  0  0  0  0
  -27.3780  -12.5650   17.7979 H   0  0  0  0  0  0
  -27.6632  -14.2600   19.5126 H   0  0  0  0  0  0
  -28.7089  -12.0883   21.3858 H   0  0  0  0  0  0
  -28.4205  -13.7352   21.8427 H   0  0  0  0  0  0
  -25.2772   -9.5680   22.4754 H   0  0  0  0  0  0
  -24.0004   -7.4633   22.7470 H   0  0  0  0  0  0
  -21.0843   -8.8782   19.8955 H   0  0  0  0  0  0
  -22.3704  -10.9678   19.6162 H   0  0  0  0  0  0
  -21.2010   -7.6147   23.9722 H   0  0  0  0  0  0
  -21.1483   -6.0517   25.9079 H   0  0  0  0  0  0
  -22.0595   -2.7606   23.2849 H   0  0  0  0  0  0
  -22.4097  -11.9892   22.4820 H   0  0  0  0  0  0
  -21.1100  -13.1257   22.2626 H   0  0  0  0  0  0
  -24.6611  -15.8494   20.5336 H   0  0  0  0  0  0
  -26.2866  -15.6349   20.1238 H   0  0  0  0  0  0
  -26.7187  -32.5433   23.1097 H   0  0  0  0  0  0
  -25.0058  -33.9723   25.0406 H   0  0  0  0  0  0
  -22.7180  -31.3061   21.4031 H   0  0  0  0  0  0
  -23.3751  -35.9623   23.3298 H   0  0  0  0  0  0
  -24.3578  -36.8922   22.2054 H   0  0  0  0  0  0
  -23.7234  -37.6490   23.6666 H   0  0  0  0  0  0
  -26.1075  -31.5426   20.6159 H   0  0  0  0  0  0
  -26.8449  -30.8238   22.0159 H   0  0  0  0  0  0
  -28.1031  -28.9367   21.2305 H   0  0  0  0  0  0
  -25.9608  -25.9687   18.9189 H   0  0  0  0  0  0
  -23.9784  -27.3424   18.9629 H   0  0  0  0  0  0
  -23.7657  -30.6054   19.4068 H   0  0  0  0  0  0
  -22.7586  -29.2602   19.8490 H   0  0  0  0  0  0
  -25.1292  -36.1933   25.0818 H   0  0  0  0  0  0
  -20.9981  -28.3286   24.1393 H   0  0  0  0  0  0
  -20.5686  -26.2316   23.3613 H   0  0  0  0  0  0
  -21.6646  -26.7458   22.1197 H   0  0  0  0  0  0
  -19.6917  -25.6299   21.1250 H   0  0  0  0  0  0
  -19.6690  -27.3191   20.6736 H   0  0  0  0  0  0
  -17.4200  -26.6674   21.4033 H   0  0  0  0  0  0
  -18.0341  -26.0084   22.9031 H   0  0  0  0  0  0
  -19.7944  -30.7277   24.2269 H   0  0  0  0  0  0
  -17.5027  -31.6273   24.5175 H   0  0  0  0  0  0
  -15.5361  -30.3006   23.7656 H   0  0  0  0  0  0
  -15.8672  -28.0843   22.7061 H   0  0  0  0  0  0
  -24.5903  -30.7079   25.7789 H   0  0  0  0  0  0
  -24.8902  -32.2912   26.4856 H   0  0  0  0  0  0
  -25.8042  -30.8942   27.0248 H   0  0  0  0  0  0
  -26.2939  -29.6759   24.1220 H   0  0  0  0  0  0
  -27.4007  -29.7267   25.4737 H   0  0  0  0  0  0
  -27.8824  -30.4286   23.9480 H   0  0  0  0  0  0
  -27.2636  -33.3624   26.2095 H   0  0  0  0  0  0
  -28.3849  -32.6927   25.0341 H   0  0  0  0  0  0
  -28.0721  -31.8468   26.5420 H   0  0  0  0  0  0
  -28.2586  -38.0108   24.7526 H   0  0  0  0  0  0
  -28.1090  -36.2640   24.6263 H   0  0  0  0  0  0
  -27.2302  -37.1417   25.8865 H   0  0  0  0  0  0
  -20.9376  -29.8794   21.6884 H   0  0  0  0  0  0
  -26.0167  -38.2852   24.1432 H   0  0  0  0  0  0
  -27.9082  -19.7380   23.7735 H   0  0  0  0  0  0
  -28.8464  -17.6564   22.8872 H   0  0  0  0  0  0
  -27.9458  -21.8255   22.4824 H   0  0  0  0  0  0
  -29.9672  -19.7447   19.2759 H   0  0  0  0  0  0
  -30.8355  -17.2820   19.7297 H   0  0  0  0  0  0
  -29.1478  -15.7453   21.7496 H   0  0  0  0  0  0
  -27.8710  -22.2542   19.4544 H   0  0  0  0  0  0
  -29.5588  -22.2594   19.0945 H   0  0  0  0  0  0
  -30.0226  -24.0673   20.6129 H   0  0  0  0  0  0
  -28.6459  -23.7552   21.6144 H   0  0  0  0  0  0
  -27.1010  -24.6748   20.0861 H   0  0  0  0  0  0
  -28.2572  -24.8770   18.7967 H   0  0  0  0  0  0
  1 25  1  0  0  0
  1 30  2  0  0  0
  1 78  1  0  0  0
  2  3  1  0  0  0
  2 25  1  0  0  0
  2 82  1  0  0  0
  2 83  1  0  0  0
  3  4  1  0  0  0
  3 84  1  0  0  0
  3 85  1  0  0  0
  4  5  1  0  0  0
  4 86  1  0  0  0
  4 87  1  0  0  0
  5  6  1  0  0  0
  5 26  1  0  0  0
  5 88  1  0  0  0
  6 25  1  0  0  0
  6 89  1  0  0  0
  6 90  1  0  0  0
  7  8  2  0  0  0
  7 26  1  0  0  0
  7 29  1  0  0  0
  8  9  1  0  0  0
  8 22  1  0  0  0
  9 10  1  0  0  0
  9 27  2  0  0  0
 10 11  2  0  0  0
 10 15  1  0  0  0
 11 12  1  0  0  0
 11 91  1  0  0  0
 12 13  2  0  0  0
 12 92  1  0  0  0
 13 14  1  0  0  0
 13 31  1  0  0  0
 14 15  2  0  0  0
 14 93  1  0  0  0
 15 94  1  0  0  0
 16 17  2  0  0  0
 16 21  1  0  0  0
 16 31  1  0  0  0
 17 18  1  0  0  0
 17 95  1  0  0  0
 18 19  2  0  0  0
 18 96  1  0  0  0
 19 20  1  0  0  0
 19 24  1  0  0  0
 20 21  2  0  0  0
 20 97  1  0  0  0
 21 23  1  0  0  0
 22 28  1  0  0  0
 22 32  2  0  0  0
 26 27  1  0  0  0
 28 98  1  0  0  0
 28 99  1  0  0  0
 29100  1  0  0  0
 29101  1  0  0  0
 33 34  1  0  0  0
 33 66  1  0  0  0
 33 70  2  0  0  0
 34 36  1  0  0  0
 34 59  1  0  0  0
 34102  1  0  0  0
 35 44  2  0  0  0
 35 45  1  0  0  0
 35 68  1  0  0  0
 36 56  1  0  0  0
 36103  1  0  0  0
 37 39  1  0  0  0
 37 47  1  0  0  0
 37 66  1  0  0  0
 37104  1  0  0  0
 38 43  2  0  0  0
 38 46  1  0  0  0
 38 47  1  0  0  0
 39 64  1  0  0  0
 39 67  2  0  0  0
 40 52  1  0  0  0
 40 53  2  0  0  0
 40 58  1  0  0  0
 41105  1  0  0  0
 41106  1  0  0  0
 41107  1  0  0  0
 41 48  1  0  0  0
 42 43  1  0  0  0
 42 66  1  0  0  0
 42108  1  0  0  0
 42109  1  0  0  0
 43 44  1  0  0  0
 44110  1  0  0  0
 45 46  2  0  0  0
 45111  1  0  0  0
 46112  1  0  0  0
 47113  1  0  0  0
 47114  1  0  0  0
 48 56  1  0  0  0
 48 65  1  0  0  0
 48115  1  0  0  0
 49 50  1  0  0  0
 49 53  1  0  0  0
 49 64  1  0  0  0
 49116  1  0  0  0
 50 51  1  0  0  0
 50117  1  0  0  0
 50118  1  0  0  0
 51 52  1  0  0  0
 51119  1  0  0  0
 51120  1  0  0  0
 52121  1  0  0  0
 52122  1  0  0  0
 53 54  1  0  0  0
 54 55  2  0  0  0
 54123  1  0  0  0
 55 57  1  0  0  0
 55124  1  0  0  0
 56 69  2  0  0  0
 57 58  2  0  0  0
 57125  1  0  0  0
 58126  1  0  0  0
 59 60  1  0  0  0
 59 61  1  0  0  0
 59 62  1  0  0  0
 60127  1  0  0  0
 60128  1  0  0  0
 60129  1  0  0  0
 61130  1  0  0  0
 61131  1  0  0  0
 61132  1  0  0  0
 62133  1  0  0  0
 62134  1  0  0  0
 62135  1  0  0  0
 63 65  1  0  0  0
 63136  1  0  0  0
 63137  1  0  0  0
 63138  1  0  0  0
 64139  1  0  0  0
 65140  1  0  0  0
 68 81  1  0  0  0
 71 72  2  0  0  0
 71 73  1  0  0  0
 71141  1  0  0  0
 72 75  1  0  0  0
 72142  1  0  0  0
 73 76  2  0  0  0
 73143  1  0  0  0
 74 75  2  0  0  0
 74 76  1  0  0  0
 74144  1  0  0  0
 75 77  1  0  0  0
 76 79  1  0  0  0
 77 78  2  0  0  0
 77145  1  0  0  0
 78146  1  0  0  0
 79 80  1  0  0  0
 79147  1  0  0  0
 79148  1  0  0  0
 80 81  1  0  0  0
 80149  1  0  0  0
 80150  1  0  0  0
 81151  1  0  0  0
 81152  1  0  0  0
M  ISO  4   1 100  68 101  78 100  81 101
M  END
> <chiral flag>
0

> <version>
0

> <s_m_source_file>
/data/baiqing/PycharmProjects/Reinvent-master-3.2/result/LINK_invent/BTK/process_docking_weight1_custom_product_contain_oxygen_bond_distance_aromatic_linkinvent_7_9_3/rearranged_h_0127.sdf

> <i_m_source_file_index>
21

> <r_mmod_Potential_Energy-OPLS-2005>
120.917083740234

> <r_mmod_Stretch_Energy-OPLS-2005>
99.5385589599609

> <r_mmod_Bend_Energy-OPLS-2005>
144.346664428711

> <r_mmod_Torsional_Energy-OPLS-2005>
187.363647460938

> <r_mmod_Improper_Torsional_Energy-OPLS-2005>
3.27065896987915

> <r_mmod_Van_der_Waal_Energy-OPLS-2005>
148.433212280273

> <r_mmod_Electrostatic_Energy-OPLS-2005>
-332.481079101562

> <r_mmod_Solvation_Energy-OPLS-2005>
-192.375839233398

> <b_mmod_Minimization_Converged-OPLS-2005>
0

> <r_mmod_RMS_Derivative-OPLS-2005>
0.82677698135376

$$$$
21
                    3D
 Structure written by MMmdl.
153161  0  0  1  0            999 V2000
  -30.5381  -14.9630   20.3961 C   0  0  0  0  0  0
  -30.4374  -12.5947   19.5027 C   0  0  0  0  0  0
  -29.5234  -12.5341   18.2571 C   0  0  0  0  0  0
  -28.0547  -12.3230   18.6689 C   0  0  0  0  0  0
  -27.6286  -13.2518   19.8367 C   0  0  2  0  0  0
  -28.6699  -13.2855   20.9751 C   0  0  0  0  0  0
  -25.2459  -13.8216   20.5698 C   0  0  0  0  0  0
  -24.1777  -13.0438   20.9222 C   0  0  0  0  0  0
  -24.6401  -11.6926   20.8749 C   0  0  0  0  0  0
  -23.9084  -10.4298   21.0406 C   0  0  0  0  0  0
  -24.3631   -9.4209   21.9182 C   0  0  0  0  0  0
  -23.6298   -8.2247   22.0755 C   0  0  0  0  0  0
  -22.4279   -8.0289   21.3545 C   0  0  0  0  0  0
  -21.9919   -9.0266   20.4645 C   0  0  0  0  0  0
  -22.7255  -10.2143   20.3056 C   0  0  0  0  0  0
  -21.6853   -6.0740   22.5277 C   0  0  0  0  0  0
  -21.4022   -6.5642   23.8214 C   0  0  0  0  0  0
  -21.3661   -5.6791   24.9171 C   0  0  0  0  0  0
  -21.6041   -4.3056   24.7220 C   0  0  0  0  0  0
  -21.8816   -3.8148   23.4342 C   0  0  0  0  0  0
  -21.9195   -4.6966   22.3400 C   0  0  0  0  0  0
  -22.7795  -13.5207   21.1871 C   0  0  0  0  0  0
  -22.1658   -4.2148   21.0976 F   0  0  0  0  0  0
  -21.5629   -3.4541   25.7734 F   0  0  0  0  0  0
  -29.9440  -13.7000   20.3758 N   0  0  0  0  0  0
  -26.2882  -12.9456   20.3223 N   0  0  0  0  0  0
  -25.9333  -11.6582   20.5717 N   0  0  0  0  0  0
  -22.0432  -12.8211   22.0427 N   0  0  0  0  0  0
  -25.4131  -15.1944   20.4112 N   0  0  0  0  0  0
  -31.7526  -14.9924   20.1715 O   0  0  0  0  0  0
  -21.6637   -6.8889   21.4243 O   0  0  0  0  0  0
  -22.3481  -14.5507   20.6708 O   0  0  0  0  0  0
  -24.6452  -31.8418   23.1869 C   0  0  0  0  0  0
  -25.9214  -32.4679   23.8269 C   0  0  1  0  0  0
  -27.2141  -27.1161   20.1642 C   0  0  0  0  0  0
  -25.5952  -33.8488   24.2181 N   0  0  0  0  0  0
  -23.4506  -30.4600   21.5326 C   0  0  2  0  0  0
  -24.9005  -28.8826   20.1135 C   0  0  0  0  0  0
  -22.7581  -29.4527   22.4853 C   0  0  0  0  0  0
  -18.0304  -28.1395   22.8473 C   0  0  0  0  0  0
  -24.1492  -36.7253   23.2642 C   0  0  0  0  0  0
  -26.0080  -30.7093   21.3896 C   0  0  0  0  0  0
  -26.0785  -29.3180   20.7342 C   0  0  0  0  0  0
  -27.2388  -28.4528   20.7380 C   0  0  0  0  0  0
  -26.0138  -26.7901   19.4972 C   0  0  0  0  0  0
  -24.8823  -27.6331   19.4773 C   0  0  0  0  0  0
  -23.6790  -29.7875   20.1530 C   0  0  0  0  0  0
  -25.4123  -36.3026   24.0316 C   0  0  1  0  0  0
  -20.5918  -28.3720   23.1233 C   0  0  2  0  0  0
  -20.6788  -26.9421   22.5405 C   0  0  0  0  0  0
  -19.5763  -26.6377   21.5213 C   0  0  0  0  0  0
  -18.1945  -26.7932   22.1620 C   0  0  0  0  0  0
  -19.1563  -28.8874   23.2842 C   0  0  0  0  0  0
  -18.9476  -30.1474   23.8868 C   0  0  0  0  0  0
  -17.6474  -30.6589   24.0555 C   0  0  0  0  0  0
  -25.9073  -34.9399   23.5059 C   0  0  0  0  0  0
  -16.5363  -29.9082   23.6336 C   0  0  0  0  0  0
  -16.7290  -28.6499   23.0355 C   0  0  0  0  0  0
  -26.4532  -31.6551   25.0717 C   0  0  0  0  0  0
  -25.3708  -31.3747   26.1405 C   0  0  0  0  0  0
  -27.0401  -30.2942   24.6314 C   0  0  0  0  0  0
  -27.6054  -32.4324   25.7506 C   0  0  0  0  0  0
  -27.5580  -37.1779   24.8460 C   0  0  0  0  0  0
  -21.4267  -29.3046   22.3606 N   0  0  0  0  0  0
  -26.4285  -37.3742   23.9410 N   0  0  0  0  0  0
  -24.7212  -31.0257   22.0912 N   0  0  0  0  0  0
  -23.4213  -28.8074   23.3010 O   0  0  0  0  0  0
  -28.2648  -26.1235   20.2000 O   0  0  0  0  0  0
  -26.5668  -34.8901   22.4643 O   0  0  0  0  0  0
  -23.5564  -32.1297   23.7076 O   0  0  0  0  0  0
  -30.1922  -20.3865   18.9742 C   0  0  0  0  0  0
  -30.7914  -19.2660   18.3668 C   0  0  0  0  0  0
  -29.2639  -18.8537   20.6082 C   0  0  0  0  0  0
  -29.3663  -20.2594   20.1015 C   0  0  0  0  0  0
  -30.6389  -17.9348   18.8322 C   0  0  0  0  0  0
  -29.9143  -17.6336   20.0290 C   0  0  0  0  0  0
  -31.2276  -16.8660   17.9243 C   0  0  0  0  0  0
  -28.6214  -21.6419   20.6314 C   0  0  0  0  0  0
  -28.9119  -23.2352   20.1072 C   0  0  0  0  0  0
  -27.9821  -24.6057   20.4795 C   0  0  0  0  0  0
  -29.7613  -16.1637   20.5044 N   0  0  0  0  0  0
  -31.4722  -12.7481   19.1925 H   0  0  0  0  0  0
  -30.4274  -11.6448   20.0400 H   0  0  0  0  0  0
  -29.8449  -11.7339   17.5893 H   0  0  0  0  0  0
  -29.6146  -13.4628   17.6910 H   0  0  0  0  0  0
  -27.9449  -11.2801   18.9679 H   0  0  0  0  0  0
  -27.3963  -12.4645   17.8107 H   0  0  0  0  0  0
  -27.5904  -14.2545   19.4099 H   0  0  0  0  0  0
  -28.7594  -12.3109   21.4567 H   0  0  0  0  0  0
  -28.3697  -13.9885   21.7534 H   0  0  0  0  0  0
  -25.2775   -9.5675   22.4758 H   0  0  0  0  0  0
  -23.9997   -7.4637   22.7481 H   0  0  0  0  0  0
  -21.0846   -8.8796   19.8952 H   0  0  0  0  0  0
  -22.3716  -10.9689   19.6169 H   0  0  0  0  0  0
  -21.2022   -7.6152   23.9719 H   0  0  0  0  0  0
  -21.1483   -6.0520   25.9074 H   0  0  0  0  0  0
  -22.0595   -2.7612   23.2839 H   0  0  0  0  0  0
  -22.4036  -11.9890   22.4848 H   0  0  0  0  0  0
  -21.1048  -13.1249   22.2613 H   0  0  0  0  0  0
  -24.6444  -15.8466   20.5203 H   0  0  0  0  0  0
  -26.2524  -15.6320   20.0539 H   0  0  0  0  0  0
  -26.7280  -32.5280   23.0998 H   0  0  0  0  0  0
  -25.0068  -33.9601   25.0308 H   0  0  0  0  0  0
  -22.7541  -31.2860   21.3756 H   0  0  0  0  0  0
  -23.3762  -35.9576   23.3276 H   0  0  0  0  0  0
  -24.3582  -36.8915   22.2063 H   0  0  0  0  0  0
  -23.7233  -37.6436   23.6697 H   0  0  0  0  0  0
  -26.1664  -31.4608   20.6151 H   0  0  0  0  0  0
  -26.8777  -30.7610   22.0331 H   0  0  0  0  0  0
  -28.1392  -28.7828   21.2370 H   0  0  0  0  0  0
  -25.9245  -25.8435   18.9859 H   0  0  0  0  0  0
  -23.9871  -27.2982   18.9711 H   0  0  0  0  0  0
  -23.8199  -30.5603   19.3966 H   0  0  0  0  0  0
  -22.7940  -29.2300   19.8409 H   0  0  0  0  0  0
  -25.1309  -36.1855   25.0807 H   0  0  0  0  0  0
  -21.0005  -28.3309   24.1355 H   0  0  0  0  0  0
  -20.5680  -26.2332   23.3625 H   0  0  0  0  0  0
  -21.6652  -26.7425   22.1201 H   0  0  0  0  0  0
  -19.6926  -25.6280   21.1263 H   0  0  0  0  0  0
  -19.6707  -27.3171   20.6730 H   0  0  0  0  0  0
  -17.4215  -26.6674   21.4024 H   0  0  0  0  0  0
  -18.0344  -26.0080   22.9021 H   0  0  0  0  0  0
  -19.7951  -30.7299   24.2220 H   0  0  0  0  0  0
  -17.5024  -31.6267   24.5163 H   0  0  0  0  0  0
  -15.5363  -30.2975   23.7676 H   0  0  0  0  0  0
  -15.8686  -28.0815   22.7084 H   0  0  0  0  0  0
  -24.5885  -30.7103   25.7719 H   0  0  0  0  0  0
  -24.8902  -32.2932   26.4781 H   0  0  0  0  0  0
  -25.7978  -30.8943   27.0214 H   0  0  0  0  0  0
  -26.3025  -29.6654   24.1312 H   0  0  0  0  0  0
  -27.3995  -29.7255   25.4901 H   0  0  0  0  0  0
  -27.8943  -30.4174   23.9652 H   0  0  0  0  0  0
  -27.2637  -33.3639   26.2034 H   0  0  0  0  0  0
  -28.3891  -32.6859   25.0353 H   0  0  0  0  0  0
  -28.0692  -31.8480   26.5463 H   0  0  0  0  0  0
  -28.2568  -38.0105   24.7529 H   0  0  0  0  0  0
  -28.1104  -36.2631   24.6253 H   0  0  0  0  0  0
  -27.2302  -37.1383   25.8864 H   0  0  0  0  0  0
  -20.9484  -29.8760   21.6781 H   0  0  0  0  0  0
  -26.0150  -38.2808   24.1422 H   0  0  0  0  0  0
  -30.3451  -21.3590   18.5272 H   0  0  0  0  0  0
  -31.3670  -19.4459   17.4685 H   0  0  0  0  0  0
  -28.6390  -18.7033   21.4774 H   0  0  0  0  0  0
  -31.3486  -17.2382   16.9066 H   0  0  0  0  0  0
  -30.5785  -15.9950   17.8470 H   0  0  0  0  0  0
  -32.2149  -16.5643   18.2714 H   0  0  0  0  0  0
  -28.7347  -21.6407   21.7161 H   0  0  0  0  0  0
  -27.5590  -21.4588   20.4695 H   0  0  0  0  0  0
  -28.9331  -23.1970   19.0186 H   0  0  0  0  0  0
  -29.9375  -23.4659   20.3951 H   0  0  0  0  0  0
  -27.8477  -24.5717   21.5608 H   0  0  0  0  0  0
  -26.9918  -24.3749   20.0948 H   0  0  0  0  0  0
  -28.8528  -15.9730   20.8998 H   0  0  0  0  0  0
  1 25  1  0  0  0
  1 30  2  0  0  0
  1 81  1  0  0  0
  2  3  1  0  0  0
  2 25  1  0  0  0
  2 82  1  0  0  0
  2 83  1  0  0  0
  3  4  1  0  0  0
  3 84  1  0  0  0
  3 85  1  0  0  0
  4  5  1  0  0  0
  4 86  1  0  0  0
  4 87  1  0  0  0
  5  6  1  0  0  0
  5 26  1  0  0  0
  5 88  1  0  0  0
  6 25  1  0  0  0
  6 89  1  0  0  0
  6 90  1  0  0  0
  7  8  2  0  0  0
  7 26  1  0  0  0
  7 29  1  0  0  0
  8  9  1  0  0  0
  8 22  1  0  0  0
  9 10  1  0  0  0
  9 27  2  0  0  0
 10 11  2  0  0  0
 10 15  1  0  0  0
 11 12  1  0  0  0
 11 91  1  0  0  0
 12 13  2  0  0  0
 12 92  1  0  0  0
 13 14  1  0  0  0
 13 31  1  0  0  0
 14 15  2  0  0  0
 14 93  1  0  0  0
 15 94  1  0  0  0
 16 17  2  0  0  0
 16 21  1  0  0  0
 16 31  1  0  0  0
 17 18  1  0  0  0
 17 95  1  0  0  0
 18 19  2  0  0  0
 18 96  1  0  0  0
 19 20  1  0  0  0
 19 24  1  0  0  0
 20 21  2  0  0  0
 20 97  1  0  0  0
 21 23  1  0  0  0
 22 28  1  0  0  0
 22 32  2  0  0  0
 26 27  1  0  0  0
 28 98  1  0  0  0
 28 99  1  0  0  0
 29100  1  0  0  0
 29101  1  0  0  0
 33 34  1  0  0  0
 33 66  1  0  0  0
 33 70  2  0  0  0
 34 36  1  0  0  0
 34 59  1  0  0  0
 34102  1  0  0  0
 35 44  2  0  0  0
 35 45  1  0  0  0
 35 68  1  0  0  0
 36 56  1  0  0  0
 36103  1  0  0  0
 37 39  1  0  0  0
 37 47  1  0  0  0
 37 66  1  0  0  0
 37104  1  0  0  0
 38 43  2  0  0  0
 38 46  1  0  0  0
 38 47  1  0  0  0
 39 64  1  0  0  0
 39 67  2  0  0  0
 40 52  1  0  0  0
 40 53  2  0  0  0
 40 58  1  0  0  0
 41105  1  0  0  0
 41106  1  0  0  0
 41107  1  0  0  0
 41 48  1  0  0  0
 42 43  1  0  0  0
 42 66  1  0  0  0
 42108  1  0  0  0
 42109  1  0  0  0
 43 44  1  0  0  0
 44110  1  0  0  0
 45 46  2  0  0  0
 45111  1  0  0  0
 46112  1  0  0  0
 47113  1  0  0  0
 47114  1  0  0  0
 48 56  1  0  0  0
 48 65  1  0  0  0
 48115  1  0  0  0
 49 50  1  0  0  0
 49 53  1  0  0  0
 49 64  1  0  0  0
 49116  1  0  0  0
 50 51  1  0  0  0
 50117  1  0  0  0
 50118  1  0  0  0
 51 52  1  0  0  0
 51119  1  0  0  0
 51120  1  0  0  0
 52121  1  0  0  0
 52122  1  0  0  0
 53 54  1  0  0  0
 54 55  2  0  0  0
 54123  1  0  0  0
 55 57  1  0  0  0
 55124  1  0  0  0
 56 69  2  0  0  0
 57 58  2  0  0  0
 57125  1  0  0  0
 58126  1  0  0  0
 59 60  1  0  0  0
 59 61  1  0  0  0
 59 62  1  0  0  0
 60127  1  0  0  0
 60128  1  0  0  0
 60129  1  0  0  0
 61130  1  0  0  0
 61131  1  0  0  0
 61132  1  0  0  0
 62133  1  0  0  0
 62134  1  0  0  0
 62135  1  0  0  0
 63 65  1  0  0  0
 63136  1  0  0  0
 63137  1  0  0  0
 63138  1  0  0  0
 64139  1  0  0  0
 65140  1  0  0  0
 68 80  1  0  0  0
 71 72  2  0  0  0
 71 74  1  0  0  0
 71141  1  0  0  0
 72 75  1  0  0  0
 72142  1  0  0  0
 73 74  2  0  0  0
 73 76  1  0  0  0
 73143  1  0  0  0
 74 78  1  0  0  0
 75 76  2  0  0  0
 75 77  1  0  0  0
 76 81  1  0  0  0
 77144  1  0  0  0
 77145  1  0  0  0
 77146  1  0  0  0
 78 79  1  0  0  0
 78147  1  0  0  0
 78148  1  0  0  0
 79 80  1  0  0  0
 79149  1  0  0  0
 79150  1  0  0  0
 80151  1  0  0  0
 80152  1  0  0  0
 81153  1  0  0  0
M  ISO  4   1 100  68 101  80 101  81 100
M  END
> <chiral flag>
0

> <version>
0

> <s_m_source_file>
/data/baiqing/PycharmProjects/Reinvent-master-3.2/result/LINK_invent/BTK/process_docking_weight1_custom_product_contain_oxygen_bond_distance_aromatic_linkinvent_7_9_3/rearranged_h_0127.sdf

> <i_m_source_file_index>
22

> <r_mmod_Potential_Energy-OPLS-2005>
538.704406738281

> <r_mmod_Stretch_Energy-OPLS-2005>
286.209411621094

> <r_mmod_Bend_Energy-OPLS-2005>
255.099731445312

> <r_mmod_Torsional_Energy-OPLS-2005>
239.894393920898

> <r_mmod_Improper_Torsional_Energy-OPLS-2005>
4.1789665222168

> <r_mmod_Van_der_Waal_Energy-OPLS-2005>
135.960174560547

> <r_mmod_Electrostatic_Energy-OPLS-2005>
-382.007293701172

> <r_mmod_Solvation_Energy-OPLS-2005>
-204.827941894531

> <b_mmod_Minimization_Converged-OPLS-2005>
0

> <r_mmod_RMS_Derivative-OPLS-2005>
1.00801181793213

$$$$
22
                    3D
 Structure written by MMmdl.
158166  0  0  1  0            999 V2000
  -30.7357  -14.4380   20.5669 C   0  0  0  0  0  0
  -30.4096  -12.2811   19.4309 C   0  0  0  0  0  0
  -29.4928  -12.5013   18.2102 C   0  0  0  0  0  0
  -28.0108  -12.3760   18.6156 C   0  0  0  0  0  0
  -27.6618  -13.2092   19.8791 C   0  0  2  0  0  0
  -28.7013  -12.9777   20.9986 C   0  0  0  0  0  0
  -25.2581  -13.8172   20.5693 C   0  0  0  0  0  0
  -24.1829  -13.0446   20.9176 C   0  0  0  0  0  0
  -24.6384  -11.6913   20.8732 C   0  0  0  0  0  0
  -23.9048  -10.4303   21.0407 C   0  0  0  0  0  0
  -24.3606   -9.4219   21.9182 C   0  0  0  0  0  0
  -23.6292   -8.2248   22.0751 C   0  0  0  0  0  0
  -22.4275   -8.0283   21.3543 C   0  0  0  0  0  0
  -21.9904   -9.0252   20.4644 C   0  0  0  0  0  0
  -22.7224  -10.2137   20.3056 C   0  0  0  0  0  0
  -21.6850   -6.0736   22.5281 C   0  0  0  0  0  0
  -21.4013   -6.5640   23.8215 C   0  0  0  0  0  0
  -21.3661   -5.6792   24.9177 C   0  0  0  0  0  0
  -21.6044   -4.3053   24.7224 C   0  0  0  0  0  0
  -21.8819   -3.8147   23.4345 C   0  0  0  0  0  0
  -21.9192   -4.6963   22.3404 C   0  0  0  0  0  0
  -22.7858  -13.5245   21.1844 C   0  0  0  0  0  0
  -22.1662   -4.2151   21.0982 F   0  0  0  0  0  0
  -21.5631   -3.4538   25.7737 F   0  0  0  0  0  0
  -30.0336  -13.2756   20.4506 N   0  0  0  0  0  0
  -26.3019  -12.9347   20.3385 N   0  0  0  0  0  0
  -25.9310  -11.6499   20.5761 N   0  0  0  0  0  0
  -22.0492  -12.8244   22.0401 N   0  0  0  0  0  0
  -25.4322  -15.1891   20.4125 N   0  0  0  0  0  0
  -31.8717  -14.5427   20.0944 O   0  0  0  0  0  0
  -21.6640   -6.8879   21.4242 O   0  0  0  0  0  0
  -22.3549  -14.5553   20.6695 O   0  0  0  0  0  0
  -24.6095  -31.8708   23.2127 C   0  0  0  0  0  0
  -25.9006  -32.4838   23.8413 C   0  0  1  0  0  0
  -27.2465  -27.4702   20.1024 C   0  0  0  0  0  0
  -25.5876  -33.8636   24.2346 N   0  0  0  0  0  0
  -23.3963  -30.4930   21.5513 C   0  0  2  0  0  0
  -24.8467  -28.9628   20.1160 C   0  0  0  0  0  0
  -22.7386  -29.4668   22.5004 C   0  0  0  0  0  0
  -18.0265  -28.1373   22.8496 C   0  0  0  0  0  0
  -24.1484  -36.7328   23.2639 C   0  0  0  0  0  0
  -25.9189  -30.8505   21.3587 C   0  0  0  0  0  0
  -26.0005  -29.4849   20.7136 C   0  0  0  0  0  0
  -27.2024  -28.7480   20.7097 C   0  0  0  0  0  0
  -26.0801  -26.9618   19.4962 C   0  0  0  0  0  0
  -24.8792  -27.6970   19.5046 C   0  0  0  0  0  0
  -23.6041  -29.8222   20.1660 C   0  0  0  0  0  0
  -25.4102  -36.3123   24.0342 C   0  0  1  0  0  0
  -20.5850  -28.3653   23.1332 C   0  0  2  0  0  0
  -20.6755  -26.9394   22.5422 C   0  0  0  0  0  0
  -19.5736  -26.6383   21.5214 C   0  0  0  0  0  0
  -18.1914  -26.7921   22.1626 C   0  0  0  0  0  0
  -19.1512  -28.8828   23.2913 C   0  0  0  0  0  0
  -18.9444  -30.1437   23.8919 C   0  0  0  0  0  0
  -17.6449  -30.6583   24.0563 C   0  0  0  0  0  0
  -25.9023  -34.9485   23.5141 C   0  0  0  0  0  0
  -16.5339  -29.9086   23.6323 C   0  0  0  0  0  0
  -16.7256  -28.6501   23.0347 C   0  0  0  0  0  0
  -26.4459  -31.6601   25.0719 C   0  0  0  0  0  0
  -25.3747  -31.3691   26.1483 C   0  0  0  0  0  0
  -27.0284  -30.3054   24.6050 C   0  0  0  0  0  0
  -27.6045  -32.4312   25.7473 C   0  0  0  0  0  0
  -27.5579  -37.1819   24.8467 C   0  0  0  0  0  0
  -21.4117  -29.3025   22.3744 N   0  0  0  0  0  0
  -26.4296  -37.3798   23.9405 N   0  0  0  0  0  0
  -24.6594  -31.0847   22.1005 N   0  0  0  0  0  0
  -23.4174  -28.8216   23.3038 O   0  0  0  0  0  0
  -28.3680  -26.6736   20.0561 O   0  0  0  0  0  0
  -26.5585  -34.8930   22.4703 O   0  0  0  0  0  0
  -23.5298  -32.1438   23.7548 O   0  0  0  0  0  0
  -30.9918  -19.2334   21.2945 C   0  0  0  0  0  0
  -30.5547  -20.5354   21.5868 C   0  0  0  0  0  0
  -28.8367  -18.3521   21.9616 C   0  0  0  0  0  0
  -30.1383  -18.1278   21.4667 C   0  0  0  0  0  0
  -29.2450  -20.7833   22.0633 C   0  0  0  0  0  0
  -28.3812  -19.6610   22.2581 C   0  0  0  0  0  0
  -30.6530  -16.8053   21.0728 C   0  0  0  0  0  0
  -30.0321  -15.6030   21.1100 C   0  0  0  0  0  0
  -29.4963  -23.2616   21.5153 C   0  0  0  0  0  0
  -29.5624  -24.5471   21.9161 C   0  0  0  0  0  0
  -28.8378  -22.2108   22.3273 C   0  0  0  0  0  0
  -26.9505  -19.8079   22.7581 C   0  0  0  0  0  0
  -30.2621  -25.6578   21.1475 C   0  0  0  0  0  0
  -29.4054  -26.9245   20.9966 C   0  0  0  0  0  0
  -27.9987  -22.5070   23.1838 O   0  0  0  0  0  0
  -31.4578  -12.3445   19.1334 H   0  0  0  0  0  0
  -30.2824  -11.2724   19.8263 H   0  0  0  0  0  0
  -29.7282  -11.7797   17.4268 H   0  0  0  0  0  0
  -29.6766  -13.4887   17.7833 H   0  0  0  0  0  0
  -27.8083  -11.3203   18.7999 H   0  0  0  0  0  0
  -27.3670  -12.6666   17.7849 H   0  0  0  0  0  0
  -27.7108  -14.2596   19.5921 H   0  0  0  0  0  0
  -28.6708  -11.9369   21.3250 H   0  0  0  0  0  0
  -28.4672  -13.5539   21.8930 H   0  0  0  0  0  0
  -25.2750   -9.5697   22.4752 H   0  0  0  0  0  0
  -24.0007   -7.4637   22.7466 H   0  0  0  0  0  0
  -21.0836   -8.8764   19.8952 H   0  0  0  0  0  0
  -22.3678  -10.9672   19.6164 H   0  0  0  0  0  0
  -21.2004   -7.6147   23.9720 H   0  0  0  0  0  0
  -21.1484   -6.0521   25.9080 H   0  0  0  0  0  0
  -22.0596   -2.7609   23.2842 H   0  0  0  0  0  0
  -22.4099  -11.9907   22.4795 H   0  0  0  0  0  0
  -21.1109  -13.1277   22.2598 H   0  0  0  0  0  0
  -24.6686  -15.8473   20.5227 H   0  0  0  0  0  0
  -26.2912  -15.6272   20.1035 H   0  0  0  0  0  0
  -26.7083  -32.5580   23.1193 H   0  0  0  0  0  0
  -25.0026  -33.9806   25.0489 H   0  0  0  0  0  0
  -22.6826  -31.3077   21.4123 H   0  0  0  0  0  0
  -23.3732  -35.9679   23.3327 H   0  0  0  0  0  0
  -24.3577  -36.8913   22.2049 H   0  0  0  0  0  0
  -23.7255  -37.6552   23.6632 H   0  0  0  0  0  0
  -26.0195  -31.6142   20.5862 H   0  0  0  0  0  0
  -26.8105  -30.9125   21.9703 H   0  0  0  0  0  0
  -28.0836  -29.1743   21.1669 H   0  0  0  0  0  0
  -26.1023  -25.9889   19.0252 H   0  0  0  0  0  0
  -23.9932  -27.2877   19.0392 H   0  0  0  0  0  0
  -23.7059  -30.5953   19.4036 H   0  0  0  0  0  0
  -22.7310  -29.2356   19.8739 H   0  0  0  0  0  0
  -25.1278  -36.1998   25.0835 H   0  0  0  0  0  0
  -20.9945  -28.3212   24.1450 H   0  0  0  0  0  0
  -20.5657  -26.2258   23.3602 H   0  0  0  0  0  0
  -21.6627  -26.7441   22.1213 H   0  0  0  0  0  0
  -19.6897  -25.6298   21.1227 H   0  0  0  0  0  0
  -19.6677  -27.3205   20.6753 H   0  0  0  0  0  0
  -17.4185  -26.6669   21.4027 H   0  0  0  0  0  0
  -18.0319  -26.0056   22.9018 H   0  0  0  0  0  0
  -19.7922  -30.7242   24.2299 H   0  0  0  0  0  0
  -17.5007  -31.6265   24.5158 H   0  0  0  0  0  0
  -15.5342  -30.2995   23.7633 H   0  0  0  0  0  0
  -15.8656  -28.0826   22.7052 H   0  0  0  0  0  0
  -24.5899  -30.7064   25.7821 H   0  0  0  0  0  0
  -24.8966  -32.2844   26.4982 H   0  0  0  0  0  0
  -25.8117  -30.8819   27.0209 H   0  0  0  0  0  0
  -26.2809  -29.6822   24.1125 H   0  0  0  0  0  0
  -27.4098  -29.7276   25.4479 H   0  0  0  0  0  0
  -27.8623  -30.4391   23.9155 H   0  0  0  0  0  0
  -27.2672  -33.3593   26.2097 H   0  0  0  0  0  0
  -28.3829  -32.6901   25.0284 H   0  0  0  0  0  0
  -28.0744  -31.8410   26.5350 H   0  0  0  0  0  0
  -28.2615  -38.0097   24.7489 H   0  0  0  0  0  0
  -28.1053  -36.2628   24.6319 H   0  0  0  0  0  0
  -27.2296  -37.1505   25.8871 H   0  0  0  0  0  0
  -20.9269  -29.8748   21.6974 H   0  0  0  0  0  0
  -26.0191  -38.2884   24.1386 H   0  0  0  0  0  0
  -31.9970  -19.0935   20.9202 H   0  0  0  0  0  0
  -31.2598  -21.3423   21.4446 H   0  0  0  0  0  0
  -28.1676  -17.5146   22.0993 H   0  0  0  0  0  0
  -31.6618  -16.8446   20.6832 H   0  0  0  0  0  0
  -29.0330  -15.5360   21.5046 H   0  0  0  0  0  0
  -29.9451  -22.9674   20.5782 H   0  0  0  0  0  0
  -29.1129  -24.8373   22.8560 H   0  0  0  0  0  0
  -26.4116  -18.8604   22.7202 H   0  0  0  0  0  0
  -26.3951  -20.5208   22.1479 H   0  0  0  0  0  0
  -26.9372  -20.1500   23.7936 H   0  0  0  0  0  0
  -30.5882  -25.3012   20.1695 H   0  0  0  0  0  0
  -31.1671  -25.9112   21.7005 H   0  0  0  0  0  0
  -30.0200  -27.7495   20.6336 H   0  0  0  0  0  0
  -29.0114  -27.2100   21.9736 H   0  0  0  0  0  0
  1 25  1  0  0  0
  1 30  2  0  0  0
  1 78  1  0  0  0
  2  3  1  0  0  0
  2 25  1  0  0  0
  2 86  1  0  0  0
  2 87  1  0  0  0
  3  4  1  0  0  0
  3 88  1  0  0  0
  3 89  1  0  0  0
  4  5  1  0  0  0
  4 90  1  0  0  0
  4 91  1  0  0  0
  5  6  1  0  0  0
  5 26  1  0  0  0
  5 92  1  0  0  0
  6 25  1  0  0  0
  6 93  1  0  0  0
  6 94  1  0  0  0
  7  8  2  0  0  0
  7 26  1  0  0  0
  7 29  1  0  0  0
  8  9  1  0  0  0
  8 22  1  0  0  0
  9 10  1  0  0  0
  9 27  2  0  0  0
 10 11  2  0  0  0
 10 15  1  0  0  0
 11 12  1  0  0  0
 11 95  1  0  0  0
 12 13  2  0  0  0
 12 96  1  0  0  0
 13 14  1  0  0  0
 13 31  1  0  0  0
 14 15  2  0  0  0
 14 97  1  0  0  0
 15 98  1  0  0  0
 16 17  2  0  0  0
 16 21  1  0  0  0
 16 31  1  0  0  0
 17 18  1  0  0  0
 17 99  1  0  0  0
 18 19  2  0  0  0
 18100  1  0  0  0
 19 20  1  0  0  0
 19 24  1  0  0  0
 20 21  2  0  0  0
 20101  1  0  0  0
 21 23  1  0  0  0
 22 28  1  0  0  0
 22 32  2  0  0  0
 26 27  1  0  0  0
 28102  1  0  0  0
 28103  1  0  0  0
 29104  1  0  0  0
 29105  1  0  0  0
 33 34  1  0  0  0
 33 66  1  0  0  0
 33 70  2  0  0  0
 34 36  1  0  0  0
 34 59  1  0  0  0
 34106  1  0  0  0
 35 44  2  0  0  0
 35 45  1  0  0  0
 35 68  1  0  0  0
 36 56  1  0  0  0
 36107  1  0  0  0
 37 39  1  0  0  0
 37 47  1  0  0  0
 37 66  1  0  0  0
 37108  1  0  0  0
 38 43  2  0  0  0
 38 46  1  0  0  0
 38 47  1  0  0  0
 39 64  1  0  0  0
 39 67  2  0  0  0
 40 52  1  0  0  0
 40 53  2  0  0  0
 40 58  1  0  0  0
 41109  1  0  0  0
 41110  1  0  0  0
 41111  1  0  0  0
 41 48  1  0  0  0
 42 43  1  0  0  0
 42 66  1  0  0  0
 42112  1  0  0  0
 42113  1  0  0  0
 43 44  1  0  0  0
 44114  1  0  0  0
 45 46  2  0  0  0
 45115  1  0  0  0
 46116  1  0  0  0
 47117  1  0  0  0
 47118  1  0  0  0
 48 56  1  0  0  0
 48 65  1  0  0  0
 48119  1  0  0  0
 49 50  1  0  0  0
 49 53  1  0  0  0
 49 64  1  0  0  0
 49120  1  0  0  0
 50 51  1  0  0  0
 50121  1  0  0  0
 50122  1  0  0  0
 51 52  1  0  0  0
 51123  1  0  0  0
 51124  1  0  0  0
 52125  1  0  0  0
 52126  1  0  0  0
 53 54  1  0  0  0
 54 55  2  0  0  0
 54127  1  0  0  0
 55 57  1  0  0  0
 55128  1  0  0  0
 56 69  2  0  0  0
 57 58  2  0  0  0
 57129  1  0  0  0
 58130  1  0  0  0
 59 60  1  0  0  0
 59 61  1  0  0  0
 59 62  1  0  0  0
 60131  1  0  0  0
 60132  1  0  0  0
 60133  1  0  0  0
 61134  1  0  0  0
 61135  1  0  0  0
 61136  1  0  0  0
 62137  1  0  0  0
 62138  1  0  0  0
 62139  1  0  0  0
 63 65  1  0  0  0
 63140  1  0  0  0
 63141  1  0  0  0
 63142  1  0  0  0
 64143  1  0  0  0
 65144  1  0  0  0
 68 84  1  0  0  0
 71 72  2  0  0  0
 71 74  1  0  0  0
 71145  1  0  0  0
 72 75  1  0  0  0
 72146  1  0  0  0
 73 74  2  0  0  0
 73 76  1  0  0  0
 73147  1  0  0  0
 74 77  1  0  0  0
 75 76  2  0  0  0
 75 81  1  0  0  0
 76 82  1  0  0  0
 77 78  2  0  0  0
 77148  1  0  0  0
 78149  1  0  0  0
 79 80  2  0  0  0
 79 81  1  0  0  0
 79150  1  0  0  0
 80 83  1  0  0  0
 80151  1  0  0  0
 81 85  2  0  0  0
 82152  1  0  0  0
 82153  1  0  0  0
 82154  1  0  0  0
 83 84  1  0  0  0
 83155  1  0  0  0
 83156  1  0  0  0
 84157  1  0  0  0
 84158  1  0  0  0
M  ISO  4   1 100  68 101  78 100  84 101
M  END
> <chiral flag>
0

> <version>
0

> <s_m_source_file>
/data/baiqing/PycharmProjects/Reinvent-master-3.2/result/LINK_invent/BTK/process_docking_weight1_custom_product_contain_oxygen_bond_distance_aromatic_linkinvent_7_9_3/rearranged_h_0127.sdf

> <i_m_source_file_index>
23

> <r_mmod_Potential_Energy-OPLS-2005>
9.09117794036865

> <r_mmod_Stretch_Energy-OPLS-2005>
37.0217552185059

> <r_mmod_Bend_Energy-OPLS-2005>
103.211990356445

> <r_mmod_Torsional_Energy-OPLS-2005>
174.81022644043

> <r_mmod_Improper_Torsional_Energy-OPLS-2005>
3.86428666114807

> <r_mmod_Van_der_Waal_Energy-OPLS-2005>
173.319641113281

> <r_mmod_Electrostatic_Energy-OPLS-2005>
-293.15478515625

> <r_mmod_Solvation_Energy-OPLS-2005>
-201.262390136719

> <b_mmod_Minimization_Converged-OPLS-2005>
0

> <r_mmod_RMS_Derivative-OPLS-2005>
0.745666563510895

$$$$
23
                    3D
 Structure written by MMmdl.
159167  0  0  1  0            999 V2000
  -30.6960  -14.5840   20.5194 C   0  0  0  0  0  0
  -30.4190  -12.3675   19.4447 C   0  0  0  0  0  0
  -29.4984  -12.5019   18.2155 C   0  0  0  0  0  0
  -28.0215  -12.3554   18.6283 C   0  0  0  0  0  0
  -27.6504  -13.2254   19.8602 C   0  0  2  0  0  0
  -28.6970  -13.0935   20.9891 C   0  0  0  0  0  0
  -25.2530  -13.8180   20.5670 C   0  0  0  0  0  0
  -24.1818  -13.0435   20.9213 C   0  0  0  0  0  0
  -24.6405  -11.6918   20.8761 C   0  0  0  0  0  0
  -23.9080  -10.4294   21.0415 C   0  0  0  0  0  0
  -24.3627   -9.4208   21.9191 C   0  0  0  0  0  0
  -23.6299   -8.2246   22.0756 C   0  0  0  0  0  0
  -22.4283   -8.0286   21.3541 C   0  0  0  0  0  0
  -21.9923   -9.0262   20.4646 C   0  0  0  0  0  0
  -22.7254  -10.2138   20.3060 C   0  0  0  0  0  0
  -21.6850   -6.0743   22.5278 C   0  0  0  0  0  0
  -21.4012   -6.5643   23.8217 C   0  0  0  0  0  0
  -21.3659   -5.6793   24.9176 C   0  0  0  0  0  0
  -21.6045   -4.3058   24.7224 C   0  0  0  0  0  0
  -21.8820   -3.8151   23.4343 C   0  0  0  0  0  0
  -21.9192   -4.6973   22.3404 C   0  0  0  0  0  0
  -22.7839  -13.5228   21.1868 C   0  0  0  0  0  0
  -22.1661   -4.2160   21.0980 F   0  0  0  0  0  0
  -21.5628   -3.4541   25.7734 F   0  0  0  0  0  0
  -30.0132  -13.4035   20.4136 N   0  0  0  0  0  0
  -26.2981  -12.9391   20.3322 N   0  0  0  0  0  0
  -25.9339  -11.6538   20.5776 N   0  0  0  0  0  0
  -22.0471  -12.8215   22.0413 N   0  0  0  0  0  0
  -25.4181  -15.1887   20.3988 N   0  0  0  0  0  0
  -31.8633  -14.6814   20.1353 O   0  0  0  0  0  0
  -21.6639   -6.8890   21.4243 O   0  0  0  0  0  0
  -22.3528  -14.5535   20.6718 O   0  0  0  0  0  0
  -24.6242  -31.8631   23.2082 C   0  0  0  0  0  0
  -25.9105  -32.4788   23.8397 C   0  0  1  0  0  0
  -27.2171  -27.3378   20.0973 C   0  0  0  0  0  0
  -25.5951  -33.8592   24.2325 N   0  0  0  0  0  0
  -23.4169  -30.4908   21.5496 C   0  0  2  0  0  0
  -24.8628  -28.9605   20.1050 C   0  0  0  0  0  0
  -22.7478  -29.4632   22.4927 C   0  0  0  0  0  0
  -18.0290  -28.1356   22.8471 C   0  0  0  0  0  0
  -24.1496  -36.7286   23.2644 C   0  0  0  0  0  0
  -25.9609  -30.7929   21.3864 C   0  0  0  0  0  0
  -26.0300  -29.4259   20.7222 C   0  0  0  0  0  0
  -27.2069  -28.6217   20.7208 C   0  0  0  0  0  0
  -26.0321  -26.9444   19.4258 C   0  0  0  0  0  0
  -24.8654  -27.7240   19.4480 C   0  0  0  0  0  0
  -23.6301  -29.8371   20.1610 C   0  0  0  0  0  0
  -25.4115  -36.3090   24.0352 C   0  0  1  0  0  0
  -20.5897  -28.3663   23.1280 C   0  0  2  0  0  0
  -20.6782  -26.9380   22.5411 C   0  0  0  0  0  0
  -19.5765  -26.6368   21.5203 C   0  0  0  0  0  0
  -18.1929  -26.7900   22.1604 C   0  0  0  0  0  0
  -19.1546  -28.8824   23.2866 C   0  0  0  0  0  0
  -18.9474  -30.1426   23.8879 C   0  0  0  0  0  0
  -17.6473  -30.6565   24.0547 C   0  0  0  0  0  0
  -25.9058  -34.9458   23.5131 C   0  0  0  0  0  0
  -16.5360  -29.9067   23.6323 C   0  0  0  0  0  0
  -16.7279  -28.6481   23.0339 C   0  0  0  0  0  0
  -26.4495  -31.6588   25.0756 C   0  0  0  0  0  0
  -25.3737  -31.3721   26.1484 C   0  0  0  0  0  0
  -27.0336  -30.3013   24.6199 C   0  0  0  0  0  0
  -27.6067  -32.4317   25.7511 C   0  0  0  0  0  0
  -27.5583  -37.1802   24.8470 C   0  0  0  0  0  0
  -21.4198  -29.3023   22.3673 N   0  0  0  0  0  0
  -26.4292  -37.3783   23.9422 N   0  0  0  0  0  0
  -24.6854  -31.0651   22.1040 N   0  0  0  0  0  0
  -23.4212  -28.8156   23.2977 O   0  0  0  0  0  0
  -28.3248  -26.4768   20.1680 O   0  0  0  0  0  0
  -26.5603  -34.8917   22.4681 O   0  0  0  0  0  0
  -23.5410  -32.1446   23.7401 O   0  0  0  0  0  0
  -28.2585  -20.1247   20.7823 C   0  0  0  0  0  0
  -30.8703  -19.3621   20.2262 C   0  0  0  0  0  0
  -28.6886  -18.7978   21.0863 C   0  0  0  0  0  0
  -30.4403  -20.6852   19.9189 C   0  0  0  0  0  0
  -29.1128  -21.1018   20.2013 C   0  0  0  0  0  0
  -30.0190  -18.3850   20.8072 C   0  0  0  0  0  0
  -27.7033  -17.8397   21.7290 C   0  0  0  0  0  0
  -31.4273  -21.6389   19.2706 C   0  0  0  0  0  0
  -28.5232  -22.4808   19.7446 C   0  0  0  0  0  0
  -30.6380  -17.0140   21.2485 C   0  0  0  0  0  0
  -29.0000  -23.8749   20.3324 C   0  0  0  0  0  0
  -28.1041  -25.0646   19.8010 C   0  0  0  0  0  0
  -30.0133  -15.6921   20.9254 N   0  0  0  0  0  0
  -31.4637  -12.4598   19.1424 H   0  0  0  0  0  0
  -30.3249  -11.3753   19.8902 H   0  0  0  0  0  0
  -29.7538  -11.7479   17.4705 H   0  0  0  0  0  0
  -29.6554  -13.4706   17.7381 H   0  0  0  0  0  0
  -27.8470  -11.3021   18.8528 H   0  0  0  0  0  0
  -27.3709  -12.5989   17.7872 H   0  0  0  0  0  0
  -27.6677  -14.2617   19.5217 H   0  0  0  0  0  0
  -28.6977  -12.0824   21.3997 H   0  0  0  0  0  0
  -28.4551  -13.7563   21.8215 H   0  0  0  0  0  0
  -25.2775   -9.5682   22.4767 H   0  0  0  0  0  0
  -24.0006   -7.4639   22.7474 H   0  0  0  0  0  0
  -21.0858   -8.8793   19.8947 H   0  0  0  0  0  0
  -22.3727  -10.9684   19.6169 H   0  0  0  0  0  0
  -21.2001   -7.6148   23.9725 H   0  0  0  0  0  0
  -21.1479   -6.0520   25.9081 H   0  0  0  0  0  0
  -22.0597   -2.7616   23.2840 H   0  0  0  0  0  0
  -22.4080  -11.9877   22.4804 H   0  0  0  0  0  0
  -21.1086  -13.1245   22.2606 H   0  0  0  0  0  0
  -24.6404  -15.8342   20.4869 H   0  0  0  0  0  0
  -26.2454  -15.6163   20.0048 H   0  0  0  0  0  0
  -26.7171  -32.5454   23.1150 H   0  0  0  0  0  0
  -25.0141  -33.9751   25.0499 H   0  0  0  0  0  0
  -22.7097  -31.3117   21.4121 H   0  0  0  0  0  0
  -23.3764  -35.9612   23.3312 H   0  0  0  0  0  0
  -24.3588  -36.8882   22.2054 H   0  0  0  0  0  0
  -23.7237  -37.6496   23.6646 H   0  0  0  0  0  0
  -26.1041  -31.5624   20.6263 H   0  0  0  0  0  0
  -26.8386  -30.8304   22.0203 H   0  0  0  0  0  0
  -28.0961  -28.9652   21.2301 H   0  0  0  0  0  0
  -25.9668  -26.0225   18.8679 H   0  0  0  0  0  0
  -23.9789  -27.3735   18.9384 H   0  0  0  0  0  0
  -23.7475  -30.6205   19.4112 H   0  0  0  0  0  0
  -22.7513  -29.2681   19.8535 H   0  0  0  0  0  0
  -25.1283  -36.1963   25.0846 H   0  0  0  0  0  0
  -20.9978  -28.3231   24.1408 H   0  0  0  0  0  0
  -20.5672  -26.2269   23.3613 H   0  0  0  0  0  0
  -21.6653  -26.7407   22.1198 H   0  0  0  0  0  0
  -19.6942  -25.6288   21.1219 H   0  0  0  0  0  0
  -19.6712  -27.3188   20.6740 H   0  0  0  0  0  0
  -17.4212  -26.6661   21.3987 H   0  0  0  0  0  0
  -18.0303  -26.0030   22.8988 H   0  0  0  0  0  0
  -19.7957  -30.7227   24.2247 H   0  0  0  0  0  0
  -17.5039  -31.6249   24.5146 H   0  0  0  0  0  0
  -15.5358  -30.2955   23.7670 H   0  0  0  0  0  0
  -15.8678  -28.0805   22.7056 H   0  0  0  0  0  0
  -24.5954  -30.7009   25.7840 H   0  0  0  0  0  0
  -24.8868  -32.2875   26.4860 H   0  0  0  0  0  0
  -25.8075  -30.8971   27.0290 H   0  0  0  0  0  0
  -26.2906  -29.6769   24.1227 H   0  0  0  0  0  0
  -27.4051  -29.7261   25.4687 H   0  0  0  0  0  0
  -27.8781  -30.4313   23.9422 H   0  0  0  0  0  0
  -27.2700  -33.3640   26.2060 H   0  0  0  0  0  0
  -28.3886  -32.6833   25.0332 H   0  0  0  0  0  0
  -28.0728  -31.8458   26.5444 H   0  0  0  0  0  0
  -28.2598  -38.0095   24.7493 H   0  0  0  0  0  0
  -28.1072  -36.2626   24.6312 H   0  0  0  0  0  0
  -27.2298  -37.1457   25.8869 H   0  0  0  0  0  0
  -20.9375  -29.8777   21.6911 H   0  0  0  0  0  0
  -26.0182  -38.2865   24.1413 H   0  0  0  0  0  0
  -27.2305  -20.3929   20.9853 H   0  0  0  0  0  0
  -31.8976  -19.0927   20.0188 H   0  0  0  0  0  0
  -26.8129  -18.3564   22.0880 H   0  0  0  0  0  0
  -28.1531  -17.3281   22.5794 H   0  0  0  0  0  0
  -27.3855  -17.0926   21.0037 H   0  0  0  0  0  0
  -32.2935  -21.1081   18.8742 H   0  0  0  0  0  0
  -31.7867  -22.3633   20.0022 H   0  0  0  0  0  0
  -30.9724  -22.1820   18.4425 H   0  0  0  0  0  0
  -27.4456  -22.4229   19.9041 H   0  0  0  0  0  0
  -28.6288  -22.5220   18.6598 H   0  0  0  0  0  0
  -30.7131  -17.0525   22.3363 H   0  0  0  0  0  0
  -31.6753  -17.0095   20.9105 H   0  0  0  0  0  0
  -30.0444  -24.0585   20.0817 H   0  0  0  0  0  0
  -28.9403  -23.8460   21.4207 H   0  0  0  0  0  0
  -27.1059  -24.7728   20.1268 H   0  0  0  0  0  0
  -28.1050  -25.0229   18.7111 H   0  0  0  0  0  0
  -29.0421  -15.5681   21.1627 H   0  0  0  0  0  0
  1 25  1  0  0  0
  1 30  2  0  0  0
  1 83  1  0  0  0
  2  3  1  0  0  0
  2 25  1  0  0  0
  2 84  1  0  0  0
  2 85  1  0  0  0
  3  4  1  0  0  0
  3 86  1  0  0  0
  3 87  1  0  0  0
  4  5  1  0  0  0
  4 88  1  0  0  0
  4 89  1  0  0  0
  5  6  1  0  0  0
  5 26  1  0  0  0
  5 90  1  0  0  0
  6 25  1  0  0  0
  6 91  1  0  0  0
  6 92  1  0  0  0
  7  8  2  0  0  0
  7 26  1  0  0  0
  7 29  1  0  0  0
  8  9  1  0  0  0
  8 22  1  0  0  0
  9 10  1  0  0  0
  9 27  2  0  0  0
 10 11  2  0  0  0
 10 15  1  0  0  0
 11 12  1  0  0  0
 11 93  1  0  0  0
 12 13  2  0  0  0
 12 94  1  0  0  0
 13 14  1  0  0  0
 13 31  1  0  0  0
 14 15  2  0  0  0
 14 95  1  0  0  0
 15 96  1  0  0  0
 16 17  2  0  0  0
 16 21  1  0  0  0
 16 31  1  0  0  0
 17 18  1  0  0  0
 17 97  1  0  0  0
 18 19  2  0  0  0
 18 98  1  0  0  0
 19 20  1  0  0  0
 19 24  1  0  0  0
 20 21  2  0  0  0
 20 99  1  0  0  0
 21 23  1  0  0  0
 22 28  1  0  0  0
 22 32  2  0  0  0
 26 27  1  0  0  0
 28100  1  0  0  0
 28101  1  0  0  0
 29102  1  0  0  0
 29103  1  0  0  0
 33 34  1  0  0  0
 33 66  1  0  0  0
 33 70  2  0  0  0
 34 36  1  0  0  0
 34 59  1  0  0  0
 34104  1  0  0  0
 35 44  2  0  0  0
 35 45  1  0  0  0
 35 68  1  0  0  0
 36 56  1  0  0  0
 36105  1  0  0  0
 37 39  1  0  0  0
 37 47  1  0  0  0
 37 66  1  0  0  0
 37106  1  0  0  0
 38 43  2  0  0  0
 38 46  1  0  0  0
 38 47  1  0  0  0
 39 64  1  0  0  0
 39 67  2  0  0  0
 40 52  1  0  0  0
 40 53  2  0  0  0
 40 58  1  0  0  0
 41107  1  0  0  0
 41108  1  0  0  0
 41109  1  0  0  0
 41 48  1  0  0  0
 42 43  1  0  0  0
 42 66  1  0  0  0
 42110  1  0  0  0
 42111  1  0  0  0
 43 44  1  0  0  0
 44112  1  0  0  0
 45 46  2  0  0  0
 45113  1  0  0  0
 46114  1  0  0  0
 47115  1  0  0  0
 47116  1  0  0  0
 48 56  1  0  0  0
 48 65  1  0  0  0
 48117  1  0  0  0
 49 50  1  0  0  0
 49 53  1  0  0  0
 49 64  1  0  0  0
 49118  1  0  0  0
 50 51  1  0  0  0
 50119  1  0  0  0
 50120  1  0  0  0
 51 52  1  0  0  0
 51121  1  0  0  0
 51122  1  0  0  0
 52123  1  0  0  0
 52124  1  0  0  0
 53 54  1  0  0  0
 54 55  2  0  0  0
 54125  1  0  0  0
 55 57  1  0  0  0
 55126  1  0  0  0
 56 69  2  0  0  0
 57 58  2  0  0  0
 57127  1  0  0  0
 58128  1  0  0  0
 59 60  1  0  0  0
 59 61  1  0  0  0
 59 62  1  0  0  0
 60129  1  0  0  0
 60130  1  0  0  0
 60131  1  0  0  0
 61132  1  0  0  0
 61133  1  0  0  0
 61134  1  0  0  0
 62135  1  0  0  0
 62136  1  0  0  0
 62137  1  0  0  0
 63 65  1  0  0  0
 63138  1  0  0  0
 63139  1  0  0  0
 63140  1  0  0  0
 64141  1  0  0  0
 65142  1  0  0  0
 68 82  1  0  0  0
 71 73  2  0  0  0
 71 75  1  0  0  0
 71143  1  0  0  0
 72 74  1  0  0  0
 72 76  2  0  0  0
 72144  1  0  0  0
 73 76  1  0  0  0
 73 77  1  0  0  0
 74 75  2  0  0  0
 74 78  1  0  0  0
 75 79  1  0  0  0
 76 80  1  0  0  0
 77145  1  0  0  0
 77146  1  0  0  0
 77147  1  0  0  0
 78148  1  0  0  0
 78149  1  0  0  0
 78150  1  0  0  0
 79 81  1  0  0  0
 79151  1  0  0  0
 79152  1  0  0  0
 80 83  1  0  0  0
 80153  1  0  0  0
 80154  1  0  0  0
 81 82  1  0  0  0
 81155  1  0  0  0
 81156  1  0  0  0
 82157  1  0  0  0
 82158  1  0  0  0
 83159  1  0  0  0
M  ISO  4   1 100  68 101  82 101  83 100
M  END
> <chiral flag>
0

> <version>
0

> <s_m_source_file>
/data/baiqing/PycharmProjects/Reinvent-master-3.2/result/LINK_invent/BTK/process_docking_weight1_custom_product_contain_oxygen_bond_distance_aromatic_linkinvent_7_9_3/rearranged_h_0127.sdf

> <i_m_source_file_index>
24

> <r_mmod_Potential_Energy-OPLS-2005>
-19.866720199585

> <r_mmod_Stretch_Energy-OPLS-2005>
68.5753402709961

> <r_mmod_Bend_Energy-OPLS-2005>
141.191711425781

> <r_mmod_Torsional_Energy-OPLS-2005>
200.321411132812

> <r_mmod_Improper_Torsional_Energy-OPLS-2005>
4.85907554626465

> <r_mmod_Van_der_Waal_Energy-OPLS-2005>
153.650787353516

> <r_mmod_Electrostatic_Energy-OPLS-2005>
-424.625213623047

> <r_mmod_Solvation_Energy-OPLS-2005>
-205.722549438477

> <b_mmod_Minimization_Converged-OPLS-2005>
0

> <r_mmod_RMS_Derivative-OPLS-2005>
1.7969605922699

$$$$
24
                    3D
 Structure written by MMmdl.
156164  0  0  1  0            999 V2000
  -30.5988  -14.6296   20.5208 C   0  0  0  0  0  0
  -30.4447  -12.3891   19.4496 C   0  0  0  0  0  0
  -29.5113  -12.5207   18.2243 C   0  0  0  0  0  0
  -28.0311  -12.3635   18.6298 C   0  0  0  0  0  0
  -27.6585  -13.2140   19.8732 C   0  0  2  0  0  0
  -28.7008  -13.0287   20.9990 C   0  0  0  0  0  0
  -25.2579  -13.8166   20.5686 C   0  0  0  0  0  0
  -24.1838  -13.0435   20.9184 C   0  0  0  0  0  0
  -24.6401  -11.6904   20.8733 C   0  0  0  0  0  0
  -23.9069  -10.4289   21.0402 C   0  0  0  0  0  0
  -24.3618   -9.4206   21.9183 C   0  0  0  0  0  0
  -23.6292   -8.2243   22.0756 C   0  0  0  0  0  0
  -22.4275   -8.0282   21.3546 C   0  0  0  0  0  0
  -21.9913   -9.0254   20.4647 C   0  0  0  0  0  0
  -22.7240  -10.2133   20.3052 C   0  0  0  0  0  0
  -21.6853   -6.0734   22.5280 C   0  0  0  0  0  0
  -21.4012   -6.5636   23.8212 C   0  0  0  0  0  0
  -21.3663   -5.6792   24.9176 C   0  0  0  0  0  0
  -21.6048   -4.3055   24.7227 C   0  0  0  0  0  0
  -21.8820   -3.8145   23.4348 C   0  0  0  0  0  0
  -21.9193   -4.6961   22.3403 C   0  0  0  0  0  0
  -22.7858  -13.5233   21.1845 C   0  0  0  0  0  0
  -22.1660   -4.2146   21.0980 F   0  0  0  0  0  0
  -21.5634   -3.4543   25.7741 F   0  0  0  0  0  0
  -30.0203  -13.3886   20.4498 N   0  0  0  0  0  0
  -26.3015  -12.9341   20.3350 N   0  0  0  0  0  0
  -25.9330  -11.6497   20.5754 N   0  0  0  0  0  0
  -22.0496  -12.8230   22.0402 N   0  0  0  0  0  0
  -25.4287  -15.1884   20.4095 N   0  0  0  0  0  0
  -31.7289  -14.8439   20.0689 O   0  0  0  0  0  0
  -21.6636   -6.8880   21.4244 O   0  0  0  0  0  0
  -22.3541  -14.5539   20.6696 O   0  0  0  0  0  0
  -24.6238  -31.8593   23.2009 C   0  0  0  0  0  0
  -25.9091  -32.4777   23.8337 C   0  0  1  0  0  0
  -27.2373  -27.3354   20.1115 C   0  0  0  0  0  0
  -25.5910  -33.8576   24.2272 N   0  0  0  0  0  0
  -23.4166  -30.4799   21.5431 C   0  0  2  0  0  0
  -24.8639  -28.9283   20.1126 C   0  0  0  0  0  0
  -22.7453  -29.4620   22.4946 C   0  0  0  0  0  0
  -18.0282  -28.1386   22.8495 C   0  0  0  0  0  0
  -24.1487  -36.7291   23.2641 C   0  0  0  0  0  0
  -25.9532  -30.7951   21.3667 C   0  0  0  0  0  0
  -26.0282  -29.4211   20.7125 C   0  0  0  0  0  0
  -27.2130  -28.6341   20.7026 C   0  0  0  0  0  0
  -26.0463  -26.8767   19.5063 C   0  0  0  0  0  0
  -24.8733  -27.6608   19.5042 C   0  0  0  0  0  0
  -23.6298  -29.8063   20.1602 C   0  0  0  0  0  0
  -25.4115  -36.3085   24.0332 C   0  0  1  0  0  0
  -20.5877  -28.3684   23.1298 C   0  0  2  0  0  0
  -20.6771  -26.9411   22.5421 C   0  0  0  0  0  0
  -19.5748  -26.6385   21.5220 C   0  0  0  0  0  0
  -18.1924  -26.7932   22.1627 C   0  0  0  0  0  0
  -19.1533  -28.8854   23.2892 C   0  0  0  0  0  0
  -18.9457  -30.1457   23.8904 C   0  0  0  0  0  0
  -17.6459  -30.6592   24.0567 C   0  0  0  0  0  0
  -25.9047  -34.9453   23.5106 C   0  0  0  0  0  0
  -16.5349  -29.9093   23.6331 C   0  0  0  0  0  0
  -16.7270  -28.6509   23.0355 C   0  0  0  0  0  0
  -26.4489  -31.6584   25.0702 C   0  0  0  0  0  0
  -25.3728  -31.3710   26.1433 C   0  0  0  0  0  0
  -27.0337  -30.3017   24.6139 C   0  0  0  0  0  0
  -27.6047  -32.4318   25.7479 C   0  0  0  0  0  0
  -27.5582  -37.1799   24.8464 C   0  0  0  0  0  0
  -21.4169  -29.3035   22.3689 N   0  0  0  0  0  0
  -26.4293  -37.3781   23.9411 N   0  0  0  0  0  0
  -24.6834  -31.0618   22.0945 N   0  0  0  0  0  0
  -23.4186  -28.8173   23.3031 O   0  0  0  0  0  0
  -28.4043  -26.5656   20.1616 O   0  0  0  0  0  0
  -26.5620  -34.8922   22.4675 O   0  0  0  0  0  0
  -23.5409  -32.1380   23.7353 O   0  0  0  0  0  0
  -29.9574  -19.1873   19.5908 C   0  0  0  0  0  0
  -30.2833  -17.8098   19.8119 C   0  0  0  0  0  0
  -28.4402  -19.1337   21.4524 C   0  0  0  0  0  0
  -29.0054  -19.8799   20.3903 C   0  0  0  0  0  0
  -28.7458  -17.7591   21.6717 C   0  0  0  0  0  0
  -29.6616  -17.0496   20.8420 C   0  0  0  0  0  0
  -28.0294  -17.0363   22.8017 C   0  0  0  0  0  0
  -28.4359  -21.3047   20.0334 C   0  0  0  0  0  0
  -29.1630  -22.6273   20.5077 C   0  0  0  0  0  0
  -28.3202  -23.9829   20.6632 C   0  0  0  0  0  0
  -28.5216  -25.1869   19.6511 C   0  0  0  0  0  0
  -29.8060  -15.6081   21.0523 N   0  0  0  0  0  0
  -31.4852  -12.5249   19.1495 H   0  0  0  0  0  0
  -30.3861  -11.3849   19.8721 H   0  0  0  0  0  0
  -29.7722  -11.7778   17.4694 H   0  0  0  0  0  0
  -29.6600  -13.4950   17.7556 H   0  0  0  0  0  0
  -27.8545  -11.3074   18.8372 H   0  0  0  0  0  0
  -27.3828  -12.6196   17.7912 H   0  0  0  0  0  0
  -27.6880  -14.2576   19.5587 H   0  0  0  0  0  0
  -28.7102  -11.9924   21.3404 H   0  0  0  0  0  0
  -28.4386  -13.6193   21.8780 H   0  0  0  0  0  0
  -25.2764   -9.5685   22.4756 H   0  0  0  0  0  0
  -24.0004   -7.4640   22.7477 H   0  0  0  0  0  0
  -21.0846   -8.8773   19.8949 H   0  0  0  0  0  0
  -22.3703  -10.9673   19.6159 H   0  0  0  0  0  0
  -21.1996   -7.6142   23.9716 H   0  0  0  0  0  0
  -21.1489   -6.0520   25.9080 H   0  0  0  0  0  0
  -22.0594   -2.7605   23.2851 H   0  0  0  0  0  0
  -22.4103  -11.9882   22.4782 H   0  0  0  0  0  0
  -21.1111  -13.1254   22.2598 H   0  0  0  0  0  0
  -24.6617  -15.8428   20.5183 H   0  0  0  0  0  0
  -26.2792  -15.6287   20.0820 H   0  0  0  0  0  0
  -26.7154  -32.5452   23.1083 H   0  0  0  0  0  0
  -25.0055  -33.9717   25.0416 H   0  0  0  0  0  0
  -22.7102  -31.2998   21.3972 H   0  0  0  0  0  0
  -23.3755  -35.9615   23.3297 H   0  0  0  0  0  0
  -24.3576  -36.8918   22.2056 H   0  0  0  0  0  0
  -23.7228  -37.6486   23.6664 H   0  0  0  0  0  0
  -26.0776  -31.5580   20.5971 H   0  0  0  0  0  0
  -26.8364  -30.8486   21.9919 H   0  0  0  0  0  0
  -28.1104  -29.0131   21.1709 H   0  0  0  0  0  0
  -25.9946  -25.9019   19.0461 H   0  0  0  0  0  0
  -23.9764  -27.2733   19.0409 H   0  0  0  0  0  0
  -23.7453  -30.5785   19.3988 H   0  0  0  0  0  0
  -22.7508  -29.2320   19.8621 H   0  0  0  0  0  0
  -25.1294  -36.1940   25.0824 H   0  0  0  0  0  0
  -20.9974  -28.3262   24.1418 H   0  0  0  0  0  0
  -20.5679  -26.2295   23.3615 H   0  0  0  0  0  0
  -21.6639  -26.7446   22.1213 H   0  0  0  0  0  0
  -19.6909  -25.6297   21.1250 H   0  0  0  0  0  0
  -19.6690  -27.3199   20.6753 H   0  0  0  0  0  0
  -17.4199  -26.6692   21.4021 H   0  0  0  0  0  0
  -18.0316  -26.0070   22.9017 H   0  0  0  0  0  0
  -19.7931  -30.7277   24.2274 H   0  0  0  0  0  0
  -17.5010  -31.6273   24.5169 H   0  0  0  0  0  0
  -15.5352  -30.3000   23.7644 H   0  0  0  0  0  0
  -15.8669  -28.0832   22.7067 H   0  0  0  0  0  0
  -24.5899  -30.7068   25.7754 H   0  0  0  0  0  0
  -24.8928  -32.2876   26.4873 H   0  0  0  0  0  0
  -25.8060  -30.8869   27.0196 H   0  0  0  0  0  0
  -26.2905  -29.6759   24.1185 H   0  0  0  0  0  0
  -27.4074  -29.7279   25.4629 H   0  0  0  0  0  0
  -27.8751  -30.4320   23.9331 H   0  0  0  0  0  0
  -27.2656  -33.3615   26.2059 H   0  0  0  0  0  0
  -28.3860  -32.6878   25.0312 H   0  0  0  0  0  0
  -28.0708  -31.8438   26.5396 H   0  0  0  0  0  0
  -28.2592  -38.0104   24.7529 H   0  0  0  0  0  0
  -28.1088  -36.2637   24.6274 H   0  0  0  0  0  0
  -27.2299  -37.1432   25.8866 H   0  0  0  0  0  0
  -20.9348  -29.8744   21.6886 H   0  0  0  0  0  0
  -26.0176  -38.2855   24.1420 H   0  0  0  0  0  0
  -30.4104  -19.6996   18.7532 H   0  0  0  0  0  0
  -30.9818  -17.3294   19.1408 H   0  0  0  0  0  0
  -27.7011  -19.6109   22.0817 H   0  0  0  0  0  0
  -27.4365  -17.7237   23.4054 H   0  0  0  0  0  0
  -28.7462  -16.5521   23.4654 H   0  0  0  0  0  0
  -27.3548  -16.2766   22.4061 H   0  0  0  0  0  0
  -27.4198  -21.3324   20.4296 H   0  0  0  0  0  0
  -28.3067  -21.3516   18.9516 H   0  0  0  0  0  0
  -30.0525  -22.7992   19.9010 H   0  0  0  0  0  0
  -29.5501  -22.4061   21.5031 H   0  0  0  0  0  0
  -28.5843  -24.3843   21.6423 H   0  0  0  0  0  0
  -27.2569  -23.7563   20.7453 H   0  0  0  0  0  0
  -27.9325  -25.0338   18.7478 H   0  0  0  0  0  0
  -29.5525  -25.1273   19.3008 H   0  0  0  0  0  0
  -29.0350  -15.2079   21.5630 H   0  0  0  0  0  0
  1 25  1  0  0  0
  1 30  2  0  0  0
  1 82  1  0  0  0
  2  3  1  0  0  0
  2 25  1  0  0  0
  2 83  1  0  0  0
  2 84  1  0  0  0
  3  4  1  0  0  0
  3 85  1  0  0  0
  3 86  1  0  0  0
  4  5  1  0  0  0
  4 87  1  0  0  0
  4 88  1  0  0  0
  5  6  1  0  0  0
  5 26  1  0  0  0
  5 89  1  0  0  0
  6 25  1  0  0  0
  6 90  1  0  0  0
  6 91  1  0  0  0
  7  8  2  0  0  0
  7 26  1  0  0  0
  7 29  1  0  0  0
  8  9  1  0  0  0
  8 22  1  0  0  0
  9 10  1  0  0  0
  9 27  2  0  0  0
 10 11  2  0  0  0
 10 15  1  0  0  0
 11 12  1  0  0  0
 11 92  1  0  0  0
 12 13  2  0  0  0
 12 93  1  0  0  0
 13 14  1  0  0  0
 13 31  1  0  0  0
 14 15  2  0  0  0
 14 94  1  0  0  0
 15 95  1  0  0  0
 16 17  2  0  0  0
 16 21  1  0  0  0
 16 31  1  0  0  0
 17 18  1  0  0  0
 17 96  1  0  0  0
 18 19  2  0  0  0
 18 97  1  0  0  0
 19 20  1  0  0  0
 19 24  1  0  0  0
 20 21  2  0  0  0
 20 98  1  0  0  0
 21 23  1  0  0  0
 22 28  1  0  0  0
 22 32  2  0  0  0
 26 27  1  0  0  0
 28 99  1  0  0  0
 28100  1  0  0  0
 29101  1  0  0  0
 29102  1  0  0  0
 33 34  1  0  0  0
 33 66  1  0  0  0
 33 70  2  0  0  0
 34 36  1  0  0  0
 34 59  1  0  0  0
 34103  1  0  0  0
 35 44  2  0  0  0
 35 45  1  0  0  0
 35 68  1  0  0  0
 36 56  1  0  0  0
 36104  1  0  0  0
 37 39  1  0  0  0
 37 47  1  0  0  0
 37 66  1  0  0  0
 37105  1  0  0  0
 38 43  2  0  0  0
 38 46  1  0  0  0
 38 47  1  0  0  0
 39 64  1  0  0  0
 39 67  2  0  0  0
 40 52  1  0  0  0
 40 53  2  0  0  0
 40 58  1  0  0  0
 41106  1  0  0  0
 41107  1  0  0  0
 41108  1  0  0  0
 41 48  1  0  0  0
 42 43  1  0  0  0
 42 66  1  0  0  0
 42109  1  0  0  0
 42110  1  0  0  0
 43 44  1  0  0  0
 44111  1  0  0  0
 45 46  2  0  0  0
 45112  1  0  0  0
 46113  1  0  0  0
 47114  1  0  0  0
 47115  1  0  0  0
 48 56  1  0  0  0
 48 65  1  0  0  0
 48116  1  0  0  0
 49 50  1  0  0  0
 49 53  1  0  0  0
 49 64  1  0  0  0
 49117  1  0  0  0
 50 51  1  0  0  0
 50118  1  0  0  0
 50119  1  0  0  0
 51 52  1  0  0  0
 51120  1  0  0  0
 51121  1  0  0  0
 52122  1  0  0  0
 52123  1  0  0  0
 53 54  1  0  0  0
 54 55  2  0  0  0
 54124  1  0  0  0
 55 57  1  0  0  0
 55125  1  0  0  0
 56 69  2  0  0  0
 57 58  2  0  0  0
 57126  1  0  0  0
 58127  1  0  0  0
 59 60  1  0  0  0
 59 61  1  0  0  0
 59 62  1  0  0  0
 60128  1  0  0  0
 60129  1  0  0  0
 60130  1  0  0  0
 61131  1  0  0  0
 61132  1  0  0  0
 61133  1  0  0  0
 62134  1  0  0  0
 62135  1  0  0  0
 62136  1  0  0  0
 63 65  1  0  0  0
 63137  1  0  0  0
 63138  1  0  0  0
 63139  1  0  0  0
 64140  1  0  0  0
 65141  1  0  0  0
 68 81  1  0  0  0
 71 72  2  0  0  0
 71 74  1  0  0  0
 71142  1  0  0  0
 72 76  1  0  0  0
 72143  1  0  0  0
 73 74  2  0  0  0
 73 75  1  0  0  0
 73144  1  0  0  0
 74 78  1  0  0  0
 75 76  2  0  0  0
 75 77  1  0  0  0
 76 82  1  0  0  0
 77145  1  0  0  0
 77146  1  0  0  0
 77147  1  0  0  0
 78 79  1  0  0  0
 78148  1  0  0  0
 78149  1  0  0  0
 79 80  1  0  0  0
 79150  1  0  0  0
 79151  1  0  0  0
 80 81  1  0  0  0
 80152  1  0  0  0
 80153  1  0  0  0
 81154  1  0  0  0
 81155  1  0  0  0
 82156  1  0  0  0
M  ISO  4   1 100  68 101  81 101  82 100
M  END
> <chiral flag>
0

> <version>
0

> <s_m_source_file>
/data/baiqing/PycharmProjects/Reinvent-master-3.2/result/LINK_invent/BTK/process_docking_weight1_custom_product_contain_oxygen_bond_distance_aromatic_linkinvent_7_9_3/rearranged_h_0127.sdf

> <i_m_source_file_index>
25

> <r_mmod_Potential_Energy-OPLS-2005>
56.0194282531738

> <r_mmod_Stretch_Energy-OPLS-2005>
75.4395370483398

> <r_mmod_Bend_Energy-OPLS-2005>
159.136138916016

> <r_mmod_Torsional_Energy-OPLS-2005>
226.887954711914

> <r_mmod_Improper_Torsional_Energy-OPLS-2005>
4.29480504989624

> <r_mmod_Van_der_Waal_Energy-OPLS-2005>
136.684051513672

> <r_mmod_Electrostatic_Energy-OPLS-2005>
-387.721099853516

> <r_mmod_Solvation_Energy-OPLS-2005>
-199.807403564453

> <b_mmod_Minimization_Converged-OPLS-2005>
0

> <r_mmod_RMS_Derivative-OPLS-2005>
0.691461265087128

$$$$
25
                    3D
 Structure written by MMmdl.
155163  0  0  1  0            999 V2000
  -30.6500  -14.6842   20.5376 C   0  0  0  0  0  0
  -30.4356  -12.4283   19.4903 C   0  0  0  0  0  0
  -29.5235  -12.5318   18.2476 C   0  0  0  0  0  0
  -28.0448  -12.3593   18.6419 C   0  0  0  0  0  0
  -27.6528  -13.2338   19.8642 C   0  0  2  0  0  0
  -28.6883  -13.1140   21.0037 C   0  0  0  0  0  0
  -25.2555  -13.8214   20.5678 C   0  0  0  0  0  0
  -24.1825  -13.0466   20.9179 C   0  0  0  0  0  0
  -24.6413  -11.6937   20.8743 C   0  0  0  0  0  0
  -23.9096  -10.4311   21.0412 C   0  0  0  0  0  0
  -24.3642   -9.4228   21.9189 C   0  0  0  0  0  0
  -23.6296   -8.2278   22.0761 C   0  0  0  0  0  0
  -22.4276   -8.0324   21.3560 C   0  0  0  0  0  0
  -21.9930   -9.0311   20.4670 C   0  0  0  0  0  0
  -22.7271  -10.2179   20.3064 C   0  0  0  0  0  0
  -21.6854   -6.0763   22.5278 C   0  0  0  0  0  0
  -21.4024   -6.5635   23.8223 C   0  0  0  0  0  0
  -21.3655   -5.6768   24.9167 C   0  0  0  0  0  0
  -21.6051   -4.3036   24.7208 C   0  0  0  0  0  0
  -21.8811   -3.8148   23.4320 C   0  0  0  0  0  0
  -21.9197   -4.6990   22.3392 C   0  0  0  0  0  0
  -22.7828  -13.5265   21.1792 C   0  0  0  0  0  0
  -22.1653   -4.2181   21.0961 F   0  0  0  0  0  0
  -21.5660   -3.4508   25.7714 F   0  0  0  0  0  0
  -30.0073  -13.4668   20.4602 N   0  0  0  0  0  0
  -26.2993  -12.9413   20.3302 N   0  0  0  0  0  0
  -25.9349  -11.6552   20.5748 N   0  0  0  0  0  0
  -22.0413  -12.8354   22.0355 N   0  0  0  0  0  0
  -25.4268  -15.1950   20.4160 N   0  0  0  0  0  0
  -31.7771  -14.7969   20.0417 O   0  0  0  0  0  0
  -21.6649   -6.8914   21.4239 O   0  0  0  0  0  0
  -22.3505  -14.5518   20.6551 O   0  0  0  0  0  0
  -24.6299  -31.8569   23.2024 C   0  0  0  0  0  0
  -25.9147  -32.4741   23.8370 C   0  0  1  0  0  0
  -27.2251  -27.2857   20.1454 C   0  0  0  0  0  0
  -25.5954  -33.8547   24.2284 N   0  0  0  0  0  0
  -23.4241  -30.4804   21.5447 C   0  0  2  0  0  0
  -24.8754  -28.9328   20.1139 C   0  0  0  0  0  0
  -22.7484  -29.4620   22.4924 C   0  0  0  0  0  0
  -18.0299  -28.1401   22.8498 C   0  0  0  0  0  0
  -24.1495  -36.7285   23.2632 C   0  0  0  0  0  0
  -25.9674  -30.7775   21.3806 C   0  0  0  0  0  0
  -26.0431  -29.4018   20.7279 C   0  0  0  0  0  0
  -27.2183  -28.5895   20.7409 C   0  0  0  0  0  0
  -26.0424  -26.8924   19.4727 C   0  0  0  0  0  0
  -24.8795  -27.6838   19.4763 C   0  0  0  0  0  0
  -23.6436  -29.8127   20.1616 C   0  0  0  0  0  0
  -25.4106  -36.3051   24.0319 C   0  0  1  0  0  0
  -20.5910  -28.3715   23.1271 C   0  0  2  0  0  0
  -20.6811  -26.9434   22.5414 C   0  0  0  0  0  0
  -19.5765  -26.6400   21.5232 C   0  0  0  0  0  0
  -18.1945  -26.7948   22.1637 C   0  0  0  0  0  0
  -19.1562  -28.8880   23.2881 C   0  0  0  0  0  0
  -18.9460  -30.1492   23.8881 C   0  0  0  0  0  0
  -17.6453  -30.6604   24.0567 C   0  0  0  0  0  0
  -25.9057  -34.9424   23.5103 C   0  0  0  0  0  0
  -16.5350  -29.9088   23.6329 C   0  0  0  0  0  0
  -16.7285  -28.6510   23.0348 C   0  0  0  0  0  0
  -26.4536  -31.6556   25.0743 C   0  0  0  0  0  0
  -25.3734  -31.3704   26.1434 C   0  0  0  0  0  0
  -27.0386  -30.2987   24.6208 C   0  0  0  0  0  0
  -27.6119  -32.4261   25.7510 C   0  0  0  0  0  0
  -27.5569  -37.1780   24.8442 C   0  0  0  0  0  0
  -21.4204  -29.3045   22.3645 N   0  0  0  0  0  0
  -26.4267  -37.3747   23.9404 N   0  0  0  0  0  0
  -24.6930  -31.0558   22.0999 N   0  0  0  0  0  0
  -23.4191  -28.8178   23.3025 O   0  0  0  0  0  0
  -28.3189  -26.3999   20.2543 O   0  0  0  0  0  0
  -26.5613  -34.8880   22.4660 O   0  0  0  0  0  0
  -23.5463  -32.1383   23.7326 O   0  0  0  0  0  0
  -29.5062  -18.6166   22.6927 C   0  0  0  0  0  0
  -29.4069  -19.7148   20.5314 C   0  0  0  0  0  0
  -28.9748  -21.0149   22.5394 C   0  0  0  0  0  0
  -29.6536  -18.5061   21.2910 C   0  0  0  0  0  0
  -29.2049  -19.8532   23.3116 C   0  0  0  0  0  0
  -29.0523  -20.9868   21.1309 C   0  0  0  0  0  0
  -30.0905  -17.1628   20.6873 C   0  0  0  0  0  0
  -29.9712  -15.8695   21.1668 C   0  0  0  0  0  0
  -29.1414  -19.9452   24.8291 C   0  0  0  0  0  0
  -28.6311  -22.2699   20.3013 C   0  0  0  0  0  0
  -28.9449  -23.7845   20.7648 C   0  0  0  0  0  0
  -28.0959  -24.9381   20.0363 C   0  0  0  0  0  0
  -31.4814  -12.5324   19.2009 H   0  0  0  0  0  0
  -30.3592  -11.4345   19.9379 H   0  0  0  0  0  0
  -29.8126  -11.7833   17.5088 H   0  0  0  0  0  0
  -29.6653  -13.5018   17.7686 H   0  0  0  0  0  0
  -27.8881  -11.3047   18.8735 H   0  0  0  0  0  0
  -27.4032  -12.5854   17.7885 H   0  0  0  0  0  0
  -27.6678  -14.2694   19.5217 H   0  0  0  0  0  0
  -28.7045  -12.0930   21.3855 H   0  0  0  0  0  0
  -28.4085  -13.7366   21.8534 H   0  0  0  0  0  0
  -25.2804   -9.5722   22.4741 H   0  0  0  0  0  0
  -24.0051   -7.4659   22.7451 H   0  0  0  0  0  0
  -21.0882   -8.8811   19.8942 H   0  0  0  0  0  0
  -22.3731  -10.9724   19.6174 H   0  0  0  0  0  0
  -21.1982   -7.6138   23.9742 H   0  0  0  0  0  0
  -21.1496   -6.0486   25.9085 H   0  0  0  0  0  0
  -22.0593   -2.7619   23.2785 H   0  0  0  0  0  0
  -22.3983  -12.0130   22.4977 H   0  0  0  0  0  0
  -21.1003  -13.1418   22.2367 H   0  0  0  0  0  0
  -24.6687  -15.8547   20.5555 H   0  0  0  0  0  0
  -26.2959  -15.6410   20.1466 H   0  0  0  0  0  0
  -26.7204  -32.5405   23.1120 H   0  0  0  0  0  0
  -25.0080  -33.9695   25.0416 H   0  0  0  0  0  0
  -22.7183  -31.3012   21.3967 H   0  0  0  0  0  0
  -23.3750  -35.9625   23.3263 H   0  0  0  0  0  0
  -24.3619  -36.8950   22.2057 H   0  0  0  0  0  0
  -23.7278  -37.6483   23.6696 H   0  0  0  0  0  0
  -26.0968  -31.5324   20.6039 H   0  0  0  0  0  0
  -26.8497  -30.8356   22.0055 H   0  0  0  0  0  0
  -28.1022  -28.9359   21.2624 H   0  0  0  0  0  0
  -25.9852  -25.9473   18.9521 H   0  0  0  0  0  0
  -23.9846  -27.3164   18.9918 H   0  0  0  0  0  0
  -23.7650  -30.5868   19.4027 H   0  0  0  0  0  0
  -22.7627  -29.2412   19.8611 H   0  0  0  0  0  0
  -25.1306  -36.1873   25.0810 H   0  0  0  0  0  0
  -21.0004  -28.3298   24.1390 H   0  0  0  0  0  0
  -20.5784  -26.2294   23.3609 H   0  0  0  0  0  0
  -21.6656  -26.7498   22.1140 H   0  0  0  0  0  0
  -19.6927  -25.6310   21.1263 H   0  0  0  0  0  0
  -19.6726  -27.3214   20.6770 H   0  0  0  0  0  0
  -17.4227  -26.6735   21.4021 H   0  0  0  0  0  0
  -18.0307  -26.0095   22.9027 H   0  0  0  0  0  0
  -19.7930  -30.7358   24.2205 H   0  0  0  0  0  0
  -17.4988  -31.6278   24.5184 H   0  0  0  0  0  0
  -15.5346  -30.2985   23.7677 H   0  0  0  0  0  0
  -15.8677  -28.0847   22.7034 H   0  0  0  0  0  0
  -24.5912  -30.7073   25.7723 H   0  0  0  0  0  0
  -24.8911  -32.2865   26.4850 H   0  0  0  0  0  0
  -25.8002  -30.8861   27.0220 H   0  0  0  0  0  0
  -26.2984  -29.6710   24.1237 H   0  0  0  0  0  0
  -27.4101  -29.7278   25.4725 H   0  0  0  0  0  0
  -27.8836  -30.4307   23.9451 H   0  0  0  0  0  0
  -27.2800  -33.3559   26.2126 H   0  0  0  0  0  0
  -28.3922  -32.6792   25.0329 H   0  0  0  0  0  0
  -28.0790  -31.8337   26.5381 H   0  0  0  0  0  0
  -28.2546  -38.0114   24.7510 H   0  0  0  0  0  0
  -28.1118  -36.2647   24.6244 H   0  0  0  0  0  0
  -27.2285  -37.1354   25.8841 H   0  0  0  0  0  0
  -20.9384  -29.8697   21.6791 H   0  0  0  0  0  0
  -26.0144  -38.2814   24.1425 H   0  0  0  0  0  0
  -29.6753  -17.7508   23.3165 H   0  0  0  0  0  0
  -29.4774  -19.6639   19.4542 H   0  0  0  0  0  0
  -28.7129  -21.9342   23.0455 H   0  0  0  0  0  0
  -30.6397  -17.2788   19.7600 H   0  0  0  0  0  0
  -29.4074  -15.7121   22.0745 H   0  0  0  0  0  0
  -29.3332  -18.9843   25.3113 H   0  0  0  0  0  0
  -28.1616  -20.2908   25.1621 H   0  0  0  0  0  0
  -29.8911  -20.6464   25.2003 H   0  0  0  0  0  0
  -27.5457  -22.1917   20.2164 H   0  0  0  0  0  0
  -28.9977  -22.1448   19.2819 H   0  0  0  0  0  0
  -30.0095  -23.9802   20.6342 H   0  0  0  0  0  0
  -28.7598  -23.8828   21.8344 H   0  0  0  0  0  0
  -27.0657  -24.7012   20.3017 H   0  0  0  0  0  0
  -28.1739  -24.7742   18.9612 H   0  0  0  0  0  0
  1 25  1  0  0  0
  1 30  2  0  0  0
  1 78  1  0  0  0
  2  3  1  0  0  0
  2 25  1  0  0  0
  2 83  1  0  0  0
  2 84  1  0  0  0
  3  4  1  0  0  0
  3 85  1  0  0  0
  3 86  1  0  0  0
  4  5  1  0  0  0
  4 87  1  0  0  0
  4 88  1  0  0  0
  5  6  1  0  0  0
  5 26  1  0  0  0
  5 89  1  0  0  0
  6 25  1  0  0  0
  6 90  1  0  0  0
  6 91  1  0  0  0
  7  8  2  0  0  0
  7 26  1  0  0  0
  7 29  1  0  0  0
  8  9  1  0  0  0
  8 22  1  0  0  0
  9 10  1  0  0  0
  9 27  2  0  0  0
 10 11  2  0  0  0
 10 15  1  0  0  0
 11 12  1  0  0  0
 11 92  1  0  0  0
 12 13  2  0  0  0
 12 93  1  0  0  0
 13 14  1  0  0  0
 13 31  1  0  0  0
 14 15  2  0  0  0
 14 94  1  0  0  0
 15 95  1  0  0  0
 16 17  2  0  0  0
 16 21  1  0  0  0
 16 31  1  0  0  0
 17 18  1  0  0  0
 17 96  1  0  0  0
 18 19  2  0  0  0
 18 97  1  0  0  0
 19 20  1  0  0  0
 19 24  1  0  0  0
 20 21  2  0  0  0
 20 98  1  0  0  0
 21 23  1  0  0  0
 22 28  1  0  0  0
 22 32  2  0  0  0
 26 27  1  0  0  0
 28 99  1  0  0  0
 28100  1  0  0  0
 29101  1  0  0  0
 29102  1  0  0  0
 33 34  1  0  0  0
 33 66  1  0  0  0
 33 70  2  0  0  0
 34 36  1  0  0  0
 34 59  1  0  0  0
 34103  1  0  0  0
 35 44  2  0  0  0
 35 45  1  0  0  0
 35 68  1  0  0  0
 36 56  1  0  0  0
 36104  1  0  0  0
 37 39  1  0  0  0
 37 47  1  0  0  0
 37 66  1  0  0  0
 37105  1  0  0  0
 38 43  2  0  0  0
 38 46  1  0  0  0
 38 47  1  0  0  0
 39 64  1  0  0  0
 39 67  2  0  0  0
 40 52  1  0  0  0
 40 53  2  0  0  0
 40 58  1  0  0  0
 41106  1  0  0  0
 41107  1  0  0  0
 41108  1  0  0  0
 41 48  1  0  0  0
 42 43  1  0  0  0
 42 66  1  0  0  0
 42109  1  0  0  0
 42110  1  0  0  0
 43 44  1  0  0  0
 44111  1  0  0  0
 45 46  2  0  0  0
 45112  1  0  0  0
 46113  1  0  0  0
 47114  1  0  0  0
 47115  1  0  0  0
 48 56  1  0  0  0
 48 65  1  0  0  0
 48116  1  0  0  0
 49 50  1  0  0  0
 49 53  1  0  0  0
 49 64  1  0  0  0
 49117  1  0  0  0
 50 51  1  0  0  0
 50118  1  0  0  0
 50119  1  0  0  0
 51 52  1  0  0  0
 51120  1  0  0  0
 51121  1  0  0  0
 52122  1  0  0  0
 52123  1  0  0  0
 53 54  1  0  0  0
 54 55  2  0  0  0
 54124  1  0  0  0
 55 57  1  0  0  0
 55125  1  0  0  0
 56 69  2  0  0  0
 57 58  2  0  0  0
 57126  1  0  0  0
 58127  1  0  0  0
 59 60  1  0  0  0
 59 61  1  0  0  0
 59 62  1  0  0  0
 60128  1  0  0  0
 60129  1  0  0  0
 60130  1  0  0  0
 61131  1  0  0  0
 61132  1  0  0  0
 61133  1  0  0  0
 62134  1  0  0  0
 62135  1  0  0  0
 62136  1  0  0  0
 63 65  1  0  0  0
 63137  1  0  0  0
 63138  1  0  0  0
 63139  1  0  0  0
 64140  1  0  0  0
 65141  1  0  0  0
 68 82  1  0  0  0
 71 74  2  0  0  0
 71 75  1  0  0  0
 71142  1  0  0  0
 72 74  1  0  0  0
 72 76  2  0  0  0
 72143  1  0  0  0
 73 75  2  0  0  0
 73 76  1  0  0  0
 73144  1  0  0  0
 74 77  1  0  0  0
 75 79  1  0  0  0
 76 80  1  0  0  0
 77 78  2  0  0  0
 77145  1  0  0  0
 78146  1  0  0  0
 79147  1  0  0  0
 79148  1  0  0  0
 79149  1  0  0  0
 80 81  1  0  0  0
 80150  1  0  0  0
 80151  1  0  0  0
 81 82  1  0  0  0
 81152  1  0  0  0
 81153  1  0  0  0
 82154  1  0  0  0
 82155  1  0  0  0
M  ISO  4   1 100  68 101  78 100  82 101
M  END
> <chiral flag>
0

> <version>
0

> <s_m_source_file>
/data/baiqing/PycharmProjects/Reinvent-master-3.2/result/LINK_invent/BTK/process_docking_weight1_custom_product_contain_oxygen_bond_distance_aromatic_linkinvent_7_9_3/rearranged_h_0127.sdf

> <i_m_source_file_index>
26

> <r_mmod_Potential_Energy-OPLS-2005>
128.596740722656

> <r_mmod_Stretch_Energy-OPLS-2005>
103.473365783691

> <r_mmod_Bend_Energy-OPLS-2005>
149.711090087891

> <r_mmod_Torsional_Energy-OPLS-2005>
190.077835083008

> <r_mmod_Improper_Torsional_Energy-OPLS-2005>
3.44052672386169

> <r_mmod_Van_der_Waal_Energy-OPLS-2005>
143.842575073242

> <r_mmod_Electrostatic_Energy-OPLS-2005>
-336.85693359375

> <r_mmod_Solvation_Energy-OPLS-2005>
-191.578277587891

> <b_mmod_Minimization_Converged-OPLS-2005>
0

> <r_mmod_RMS_Derivative-OPLS-2005>
4.28816509246826

$$$$
26
                    3D
 Structure written by MMmdl.
154162  0  0  1  0            999 V2000
  -30.6298  -14.6250   20.5071 C   0  0  0  0  0  0
  -30.4391  -12.3835   19.4531 C   0  0  0  0  0  0
  -29.5089  -12.5085   18.2254 C   0  0  0  0  0  0
  -28.0303  -12.3506   18.6347 C   0  0  0  0  0  0
  -27.6558  -13.2160   19.8676 C   0  0  2  0  0  0
  -28.7003  -13.0598   20.9966 C   0  0  0  0  0  0
  -25.2561  -13.8158   20.5664 C   0  0  0  0  0  0
  -24.1836  -13.0434   20.9192 C   0  0  0  0  0  0
  -24.6401  -11.6901   20.8744 C   0  0  0  0  0  0
  -23.9066  -10.4292   21.0413 C   0  0  0  0  0  0
  -24.3618   -9.4204   21.9188 C   0  0  0  0  0  0
  -23.6293   -8.2242   22.0753 C   0  0  0  0  0  0
  -22.4275   -8.0282   21.3542 C   0  0  0  0  0  0
  -21.9913   -9.0257   20.4644 C   0  0  0  0  0  0
  -22.7240  -10.2135   20.3058 C   0  0  0  0  0  0
  -21.6852   -6.0736   22.5280 C   0  0  0  0  0  0
  -21.4012   -6.5640   23.8213 C   0  0  0  0  0  0
  -21.3658   -5.6793   24.9175 C   0  0  0  0  0  0
  -21.6047   -4.3058   24.7226 C   0  0  0  0  0  0
  -21.8817   -3.8148   23.4346 C   0  0  0  0  0  0
  -21.9193   -4.6965   22.3401 C   0  0  0  0  0  0
  -22.7854  -13.5228   21.1848 C   0  0  0  0  0  0
  -22.1662   -4.2150   21.0980 F   0  0  0  0  0  0
  -21.5627   -3.4539   25.7739 F   0  0  0  0  0  0
  -30.0192  -13.4001   20.4376 N   0  0  0  0  0  0
  -26.2999  -12.9350   20.3330 N   0  0  0  0  0  0
  -25.9334  -11.6504   20.5772 N   0  0  0  0  0  0
  -22.0496  -12.8228   22.0408 N   0  0  0  0  0  0
  -25.4250  -15.1871   20.4014 N   0  0  0  0  0  0
  -31.7838  -14.7893   20.0990 O   0  0  0  0  0  0
  -21.6637   -6.8876   21.4240 O   0  0  0  0  0  0
  -22.3541  -14.5537   20.6693 O   0  0  0  0  0  0
  -24.6253  -31.8609   23.2020 C   0  0  0  0  0  0
  -25.9104  -32.4785   23.8340 C   0  0  1  0  0  0
  -27.2266  -27.3309   20.1148 C   0  0  0  0  0  0
  -25.5919  -33.8578   24.2277 N   0  0  0  0  0  0
  -23.4186  -30.4852   21.5451 C   0  0  2  0  0  0
  -24.8642  -28.9418   20.1128 C   0  0  0  0  0  0
  -22.7472  -29.4634   22.4933 C   0  0  0  0  0  0
  -18.0288  -28.1389   22.8485 C   0  0  0  0  0  0
  -24.1493  -36.7293   23.2639 C   0  0  0  0  0  0
  -25.9583  -30.7967   21.3698 C   0  0  0  0  0  0
  -26.0333  -29.4248   20.7138 C   0  0  0  0  0  0
  -27.2184  -28.6328   20.7017 C   0  0  0  0  0  0
  -26.0304  -26.8957   19.4968 C   0  0  0  0  0  0
  -24.8642  -27.6825   19.4956 C   0  0  0  0  0  0
  -23.6313  -29.8192   20.1611 C   0  0  0  0  0  0
  -25.4120  -36.3086   24.0330 C   0  0  1  0  0  0
  -20.5890  -28.3693   23.1279 C   0  0  2  0  0  0
  -20.6787  -26.9420   22.5408 C   0  0  0  0  0  0
  -19.5759  -26.6390   21.5216 C   0  0  0  0  0  0
  -18.1934  -26.7932   22.1626 C   0  0  0  0  0  0
  -19.1542  -28.8856   23.2877 C   0  0  0  0  0  0
  -18.9466  -30.1457   23.8897 C   0  0  0  0  0  0
  -17.6467  -30.6592   24.0569 C   0  0  0  0  0  0
  -25.9049  -34.9454   23.5107 C   0  0  0  0  0  0
  -16.5358  -29.9091   23.6332 C   0  0  0  0  0  0
  -16.7275  -28.6510   23.0348 C   0  0  0  0  0  0
  -26.4495  -31.6580   25.0703 C   0  0  0  0  0  0
  -25.3726  -31.3709   26.1427 C   0  0  0  0  0  0
  -27.0341  -30.3011   24.6139 C   0  0  0  0  0  0
  -27.6066  -32.4301   25.7472 C   0  0  0  0  0  0
  -27.5586  -37.1805   24.8469 C   0  0  0  0  0  0
  -21.4188  -29.3045   22.3672 N   0  0  0  0  0  0
  -26.4304  -37.3780   23.9399 N   0  0  0  0  0  0
  -24.6864  -31.0640   22.0962 N   0  0  0  0  0  0
  -23.4202  -28.8167   23.3002 O   0  0  0  0  0  0
  -28.3540  -26.4973   20.1577 O   0  0  0  0  0  0
  -26.5625  -34.8926   22.4682 O   0  0  0  0  0  0
  -23.5422  -32.1376   23.7371 O   0  0  0  0  0  0
  -30.8005  -19.1902   19.7235 C   0  0  0  0  0  0
  -30.8261  -17.7760   19.8987 C   0  0  0  0  0  0
  -28.9460  -19.3696   21.2316 C   0  0  0  0  0  0
  -29.8647  -20.0339   20.3814 C   0  0  0  0  0  0
  -28.9661  -17.9523   21.4223 C   0  0  0  0  0  0
  -29.9073  -17.1118   20.7527 C   0  0  0  0  0  0
  -29.9189  -21.5403   20.1699 C   0  0  0  0  0  0
  -29.1246  -22.5589   20.6270 C   0  0  0  0  0  0
  -27.9427  -17.3499   22.3710 C   0  0  0  0  0  0
  -29.3727  -24.0943   20.4187 C   0  0  0  0  0  0
  -28.1394  -25.0352   20.1068 C   0  0  0  0  0  0
  -29.8394  -15.6600   20.9290 N   0  0  0  0  0  0
  -31.4808  -12.5062   19.1513 H   0  0  0  0  0  0
  -30.3706  -11.3862   19.8892 H   0  0  0  0  0  0
  -29.7709  -11.7598   17.4766 H   0  0  0  0  0  0
  -29.6552  -13.4799   17.7497 H   0  0  0  0  0  0
  -27.8612  -11.2968   18.8584 H   0  0  0  0  0  0
  -27.3785  -12.5903   17.7938 H   0  0  0  0  0  0
  -27.6785  -14.2539   19.5347 H   0  0  0  0  0  0
  -28.7080  -12.0347   21.3700 H   0  0  0  0  0  0
  -28.4452  -13.6831   21.8548 H   0  0  0  0  0  0
  -25.2763   -9.5681   22.4760 H   0  0  0  0  0  0
  -24.0003   -7.4631   22.7471 H   0  0  0  0  0  0
  -21.0842   -8.8774   19.8951 H   0  0  0  0  0  0
  -22.3699  -10.9673   19.6167 H   0  0  0  0  0  0
  -21.2005   -7.6149   23.9715 H   0  0  0  0  0  0
  -21.1481   -6.0524   25.9077 H   0  0  0  0  0  0
  -22.0599   -2.7609   23.2847 H   0  0  0  0  0  0
  -22.4111  -11.9895   22.4810 H   0  0  0  0  0  0
  -21.1108  -13.1246   22.2601 H   0  0  0  0  0  0
  -24.6512  -15.8358   20.4928 H   0  0  0  0  0  0
  -26.2627  -15.6199   20.0347 H   0  0  0  0  0  0
  -26.7177  -32.5470   23.1092 H   0  0  0  0  0  0
  -25.0068  -33.9705   25.0425 H   0  0  0  0  0  0
  -22.7118  -31.3055   21.4023 H   0  0  0  0  0  0
  -23.3754  -35.9629   23.3307 H   0  0  0  0  0  0
  -24.3589  -36.8907   22.2054 H   0  0  0  0  0  0
  -23.7248  -37.6500   23.6655 H   0  0  0  0  0  0
  -26.0875  -31.5579   20.5988 H   0  0  0  0  0  0
  -26.8406  -30.8459   21.9966 H   0  0  0  0  0  0
  -28.1182  -29.0005   21.1753 H   0  0  0  0  0  0
  -25.9675  -25.9335   19.0115 H   0  0  0  0  0  0
  -23.9679  -27.3072   19.0214 H   0  0  0  0  0  0
  -23.7460  -30.5926   19.4007 H   0  0  0  0  0  0
  -22.7522  -29.2444   19.8640 H   0  0  0  0  0  0
  -25.1301  -36.1946   25.0826 H   0  0  0  0  0  0
  -20.9986  -28.3282   24.1400 H   0  0  0  0  0  0
  -20.5707  -26.2306   23.3607 H   0  0  0  0  0  0
  -21.6651  -26.7464   22.1193 H   0  0  0  0  0  0
  -19.6930  -25.6304   21.1237 H   0  0  0  0  0  0
  -19.6699  -27.3209   20.6752 H   0  0  0  0  0  0
  -17.4210  -26.6674   21.4021 H   0  0  0  0  0  0
  -18.0337  -26.0071   22.9021 H   0  0  0  0  0  0
  -19.7942  -30.7272   24.2266 H   0  0  0  0  0  0
  -17.5024  -31.6270   24.5171 H   0  0  0  0  0  0
  -15.5358  -30.2997   23.7657 H   0  0  0  0  0  0
  -15.8671  -28.0833   22.7057 H   0  0  0  0  0  0
  -24.5908  -30.7057   25.7741 H   0  0  0  0  0  0
  -24.8909  -32.2873   26.4844 H   0  0  0  0  0  0
  -25.8043  -30.8883   27.0204 H   0  0  0  0  0  0
  -26.2914  -29.6757   24.1175 H   0  0  0  0  0  0
  -27.4066  -29.7265   25.4626 H   0  0  0  0  0  0
  -27.8763  -30.4302   23.9338 H   0  0  0  0  0  0
  -27.2688  -33.3597   26.2062 H   0  0  0  0  0  0
  -28.3871  -32.6861   25.0294 H   0  0  0  0  0  0
  -28.0741  -31.8412   26.5373 H   0  0  0  0  0  0
  -28.2611  -38.0096   24.7514 H   0  0  0  0  0  0
  -28.1072  -36.2625   24.6300 H   0  0  0  0  0  0
  -27.2293  -37.1462   25.8871 H   0  0  0  0  0  0
  -20.9374  -29.8751   21.6865 H   0  0  0  0  0  0
  -26.0184  -38.2859   24.1400 H   0  0  0  0  0  0
  -31.5297  -19.6325   19.0588 H   0  0  0  0  0  0
  -31.5651  -17.2096   19.3500 H   0  0  0  0  0  0
  -28.2127  -19.9605   21.7624 H   0  0  0  0  0  0
  -30.7607  -21.8543   19.5683 H   0  0  0  0  0  0
  -28.2621  -22.3112   21.2295 H   0  0  0  0  0  0
  -27.5631  -18.1007   23.0646 H   0  0  0  0  0  0
  -28.3731  -16.5485   22.9714 H   0  0  0  0  0  0
  -27.0955  -16.9523   21.8137 H   0  0  0  0  0  0
  -30.1298  -24.2270   19.6452 H   0  0  0  0  0  0
  -29.8295  -24.4539   21.3408 H   0  0  0  0  0  0
  -27.7749  -24.7639   19.1161 H   0  0  0  0  0  0
  -27.3448  -24.7871   20.8129 H   0  0  0  0  0  0
  -28.9771  -15.3376   21.3387 H   0  0  0  0  0  0
  1 25  1  0  0  0
  1 30  2  0  0  0
  1 82  1  0  0  0
  2  3  1  0  0  0
  2 25  1  0  0  0
  2 83  1  0  0  0
  2 84  1  0  0  0
  3  4  1  0  0  0
  3 85  1  0  0  0
  3 86  1  0  0  0
  4  5  1  0  0  0
  4 87  1  0  0  0
  4 88  1  0  0  0
  5  6  1  0  0  0
  5 26  1  0  0  0
  5 89  1  0  0  0
  6 25  1  0  0  0
  6 90  1  0  0  0
  6 91  1  0  0  0
  7  8  2  0  0  0
  7 26  1  0  0  0
  7 29  1  0  0  0
  8  9  1  0  0  0
  8 22  1  0  0  0
  9 10  1  0  0  0
  9 27  2  0  0  0
 10 11  2  0  0  0
 10 15  1  0  0  0
 11 12  1  0  0  0
 11 92  1  0  0  0
 12 13  2  0  0  0
 12 93  1  0  0  0
 13 14  1  0  0  0
 13 31  1  0  0  0
 14 15  2  0  0  0
 14 94  1  0  0  0
 15 95  1  0  0  0
 16 17  2  0  0  0
 16 21  1  0  0  0
 16 31  1  0  0  0
 17 18  1  0  0  0
 17 96  1  0  0  0
 18 19  2  0  0  0
 18 97  1  0  0  0
 19 20  1  0  0  0
 19 24  1  0  0  0
 20 21  2  0  0  0
 20 98  1  0  0  0
 21 23  1  0  0  0
 22 28  1  0  0  0
 22 32  2  0  0  0
 26 27  1  0  0  0
 28 99  1  0  0  0
 28100  1  0  0  0
 29101  1  0  0  0
 29102  1  0  0  0
 33 34  1  0  0  0
 33 66  1  0  0  0
 33 70  2  0  0  0
 34 36  1  0  0  0
 34 59  1  0  0  0
 34103  1  0  0  0
 35 44  2  0  0  0
 35 45  1  0  0  0
 35 68  1  0  0  0
 36 56  1  0  0  0
 36104  1  0  0  0
 37 39  1  0  0  0
 37 47  1  0  0  0
 37 66  1  0  0  0
 37105  1  0  0  0
 38 43  2  0  0  0
 38 46  1  0  0  0
 38 47  1  0  0  0
 39 64  1  0  0  0
 39 67  2  0  0  0
 40 52  1  0  0  0
 40 53  2  0  0  0
 40 58  1  0  0  0
 41106  1  0  0  0
 41107  1  0  0  0
 41108  1  0  0  0
 41 48  1  0  0  0
 42 43  1  0  0  0
 42 66  1  0  0  0
 42109  1  0  0  0
 42110  1  0  0  0
 43 44  1  0  0  0
 44111  1  0  0  0
 45 46  2  0  0  0
 45112  1  0  0  0
 46113  1  0  0  0
 47114  1  0  0  0
 47115  1  0  0  0
 48 56  1  0  0  0
 48 65  1  0  0  0
 48116  1  0  0  0
 49 50  1  0  0  0
 49 53  1  0  0  0
 49 64  1  0  0  0
 49117  1  0  0  0
 50 51  1  0  0  0
 50118  1  0  0  0
 50119  1  0  0  0
 51 52  1  0  0  0
 51120  1  0  0  0
 51121  1  0  0  0
 52122  1  0  0  0
 52123  1  0  0  0
 53 54  1  0  0  0
 54 55  2  0  0  0
 54124  1  0  0  0
 55 57  1  0  0  0
 55125  1  0  0  0
 56 69  2  0  0  0
 57 58  2  0  0  0
 57126  1  0  0  0
 58127  1  0  0  0
 59 60  1  0  0  0
 59 61  1  0  0  0
 59 62  1  0  0  0
 60128  1  0  0  0
 60129  1  0  0  0
 60130  1  0  0  0
 61131  1  0  0  0
 61132  1  0  0  0
 61133  1  0  0  0
 62134  1  0  0  0
 62135  1  0  0  0
 62136  1  0  0  0
 63 65  1  0  0  0
 63137  1  0  0  0
 63138  1  0  0  0
 63139  1  0  0  0
 64140  1  0  0  0
 65141  1  0  0  0
 68 81  1  0  0  0
 71 72  2  0  0  0
 71 74  1  0  0  0
 71142  1  0  0  0
 72 76  1  0  0  0
 72143  1  0  0  0
 73 74  2  0  0  0
 73 75  1  0  0  0
 73144  1  0  0  0
 74 77  1  0  0  0
 75 76  2  0  0  0
 75 79  1  0  0  0
 76 82  1  0  0  0
 77 78  2  0  0  0
 77145  1  0  0  0
 78 80  1  0  0  0
 78146  1  0  0  0
 79147  1  0  0  0
 79148  1  0  0  0
 79149  1  0  0  0
 80 81  1  0  0  0
 80150  1  0  0  0
 80151  1  0  0  0
 81152  1  0  0  0
 81153  1  0  0  0
 82154  1  0  0  0
M  ISO  4   1 100  68 101  81 101  82 100
M  END
> <chiral flag>
0

> <version>
0

> <s_m_source_file>
/data/baiqing/PycharmProjects/Reinvent-master-3.2/result/LINK_invent/BTK/process_docking_weight1_custom_product_contain_oxygen_bond_distance_aromatic_linkinvent_7_9_3/rearranged_h_0127.sdf

> <i_m_source_file_index>
27

> <r_mmod_Potential_Energy-OPLS-2005>
15.8081169128418

> <r_mmod_Stretch_Energy-OPLS-2005>
72.9601364135742

> <r_mmod_Bend_Energy-OPLS-2005>
127.959579467773

> <r_mmod_Torsional_Energy-OPLS-2005>
210.670867919922

> <r_mmod_Improper_Torsional_Energy-OPLS-2005>
3.97630620002747

> <r_mmod_Van_der_Waal_Energy-OPLS-2005>
145.290176391602

> <r_mmod_Electrostatic_Energy-OPLS-2005>
-385.619903564453

> <r_mmod_Solvation_Energy-OPLS-2005>
-202.09001159668

> <b_mmod_Minimization_Converged-OPLS-2005>
0

> <r_mmod_RMS_Derivative-OPLS-2005>
1.18030452728271

$$$$
27
                    3D
 Structure written by MMmdl.
166174  0  0  1  0            999 V2000
  -30.7945  -14.3617   20.6957 C   0  0  0  0  0  0
  -30.4112  -12.2973   19.3927 C   0  0  0  0  0  0
  -29.4800  -12.5274   18.1903 C   0  0  0  0  0  0
  -28.0082  -12.3713   18.6125 C   0  0  0  0  0  0
  -27.6632  -13.2047   19.8740 C   0  0  2  0  0  0
  -28.7031  -12.9678   20.9914 C   0  0  0  0  0  0
  -25.2595  -13.8164   20.5678 C   0  0  0  0  0  0
  -24.1851  -13.0442   20.9174 C   0  0  0  0  0  0
  -24.6394  -11.6901   20.8732 C   0  0  0  0  0  0
  -23.9054  -10.4297   21.0407 C   0  0  0  0  0  0
  -24.3607   -9.4211   21.9187 C   0  0  0  0  0  0
  -23.6283   -8.2245   22.0754 C   0  0  0  0  0  0
  -22.4271   -8.0286   21.3547 C   0  0  0  0  0  0
  -21.9906   -9.0259   20.4646 C   0  0  0  0  0  0
  -22.7230  -10.2136   20.3057 C   0  0  0  0  0  0
  -21.6849   -6.0739   22.5281 C   0  0  0  0  0  0
  -21.4015   -6.5641   23.8208 C   0  0  0  0  0  0
  -21.3664   -5.6796   24.9180 C   0  0  0  0  0  0
  -21.6038   -4.3058   24.7225 C   0  0  0  0  0  0
  -21.8818   -3.8152   23.4354 C   0  0  0  0  0  0
  -21.9192   -4.6965   22.3399 C   0  0  0  0  0  0
  -22.7862  -13.5242   21.1852 C   0  0  0  0  0  0
  -22.1658   -4.2156   21.0983 F   0  0  0  0  0  0
  -21.5632   -3.4539   25.7740 F   0  0  0  0  0  0
  -30.0462  -13.2525   20.4489 N   0  0  0  0  0  0
  -26.3032  -12.9328   20.3361 N   0  0  0  0  0  0
  -25.9318  -11.6486   20.5754 N   0  0  0  0  0  0
  -22.0496  -12.8235   22.0396 N   0  0  0  0  0  0
  -25.4330  -15.1885   20.4110 N   0  0  0  0  0  0
  -31.8122  -14.6471   20.0586 O   0  0  0  0  0  0
  -21.6639   -6.8886   21.4242 O   0  0  0  0  0  0
  -22.3564  -14.5563   20.6707 O   0  0  0  0  0  0
  -24.6148  -31.8710   23.2124 C   0  0  0  0  0  0
  -25.9044  -32.4837   23.8423 C   0  0  1  0  0  0
  -27.2275  -27.4299   20.0893 C   0  0  0  0  0  0
  -25.5927  -33.8637   24.2342 N   0  0  0  0  0  0
  -23.4026  -30.4965   21.5552 C   0  0  2  0  0  0
  -24.8442  -28.9733   20.1109 C   0  0  0  0  0  0
  -22.7416  -29.4652   22.4979 C   0  0  0  0  0  0
  -18.0271  -28.1365   22.8454 C   0  0  0  0  0  0
  -24.1511  -36.7313   23.2631 C   0  0  0  0  0  0
  -25.9353  -30.8326   21.3703 C   0  0  0  0  0  0
  -26.0078  -29.4713   20.7101 C   0  0  0  0  0  0
  -27.2001  -28.7077   20.6989 C   0  0  0  0  0  0
  -26.0412  -26.9628   19.4682 C   0  0  0  0  0  0
  -24.8570  -27.7181   19.4855 C   0  0  0  0  0  0
  -23.6089  -29.8422   20.1649 C   0  0  0  0  0  0
  -25.4136  -36.3120   24.0326 C   0  0  1  0  0  0
  -20.5871  -28.3672   23.1285 C   0  0  2  0  0  0
  -20.6774  -26.9414   22.5381 C   0  0  0  0  0  0
  -19.5761  -26.6368   21.5181 C   0  0  0  0  0  0
  -18.1925  -26.7908   22.1579 C   0  0  0  0  0  0
  -19.1519  -28.8833   23.2865 C   0  0  0  0  0  0
  -18.9453  -30.1424   23.8900 C   0  0  0  0  0  0
  -17.6462  -30.6579   24.0550 C   0  0  0  0  0  0
  -25.9059  -34.9481   23.5125 C   0  0  0  0  0  0
  -16.5354  -29.9075   23.6320 C   0  0  0  0  0  0
  -16.7258  -28.6483   23.0332 C   0  0  0  0  0  0
  -26.4488  -31.6619   25.0748 C   0  0  0  0  0  0
  -25.3744  -31.3734   26.1479 C   0  0  0  0  0  0
  -27.0313  -30.3053   24.6126 C   0  0  0  0  0  0
  -27.6075  -32.4357   25.7492 C   0  0  0  0  0  0
  -27.5610  -37.1805   24.8461 C   0  0  0  0  0  0
  -21.4141  -29.3043   22.3698 N   0  0  0  0  0  0
  -26.4319  -37.3797   23.9398 N   0  0  0  0  0  0
  -24.6691  -31.0816   22.1032 N   0  0  0  0  0  0
  -23.4188  -28.8154   23.2994 O   0  0  0  0  0  0
  -28.3912  -26.6751   20.1281 O   0  0  0  0  0  0
  -26.5614  -34.8927   22.4677 O   0  0  0  0  0  0
  -23.5337  -32.1470   23.7505 O   0  0  0  0  0  0
  -32.3125  -19.9668   21.0971 C   0  0  0  0  0  0
  -32.8929  -17.7061   21.7533 C   0  0  0  0  0  0
  -30.9347  -19.6916   21.2617 C   0  0  0  0  0  0
  -33.2878  -18.9840   21.3329 C   0  0  0  0  0  0
  -31.5317  -17.3878   21.9387 C   0  0  0  0  0  0
  -30.5345  -18.3755   21.6650 C   0  0  0  0  0  0
  -29.9564  -20.7687   20.9513 C   0  0  0  0  0  0
  -30.1879  -21.8848   20.2247 C   0  0  0  0  0  0
  -34.7579  -19.3072   21.1501 C   0  0  0  0  0  0
  -28.5044  -18.1353   23.2258 C   0  0  0  0  0  0
  -29.0470  -18.0230   21.7955 C   0  0  0  0  0  0
  -31.2402  -16.0012   22.5303 C   0  0  0  0  0  0
  -29.1256  -22.9110   19.8590 C   0  0  0  0  0  0
  -29.4110  -24.3677   20.2876 C   0  0  0  0  0  0
  -28.2505  -25.2760   19.8288 C   0  0  0  0  0  0
  -30.4113  -15.0733   21.7621 N   0  0  0  0  0  0
  -31.4553  -12.3893   19.0877 H   0  0  0  0  0  0
  -30.3018  -11.2783   19.7671 H   0  0  0  0  0  0
  -29.7159  -11.8247   17.3899 H   0  0  0  0  0  0
  -29.6441  -13.5265   17.7828 H   0  0  0  0  0  0
  -27.8315  -11.3139   18.8103 H   0  0  0  0  0  0
  -27.3474  -12.6420   17.7880 H   0  0  0  0  0  0
  -27.7155  -14.2566   19.5881 H   0  0  0  0  0  0
  -28.6659  -11.9312   21.3295 H   0  0  0  0  0  0
  -28.4486  -13.5676   21.8650 H   0  0  0  0  0  0
  -25.2753   -9.5695   22.4762 H   0  0  0  0  0  0
  -23.9996   -7.4645   22.7479 H   0  0  0  0  0  0
  -21.0837   -8.8780   19.8954 H   0  0  0  0  0  0
  -22.3691  -10.9679   19.6171 H   0  0  0  0  0  0
  -21.2005   -7.6153   23.9721 H   0  0  0  0  0  0
  -21.1486   -6.0526   25.9082 H   0  0  0  0  0  0
  -22.0591   -2.7609   23.2845 H   0  0  0  0  0  0
  -22.4091  -11.9883   22.4766 H   0  0  0  0  0  0
  -21.1132  -13.1292   22.2611 H   0  0  0  0  0  0
  -24.6711  -15.8471   20.5308 H   0  0  0  0  0  0
  -26.2923  -15.6272   20.1063 H   0  0  0  0  0  0
  -26.7103  -32.5537   23.1189 H   0  0  0  0  0  0
  -25.0150  -33.9823   25.0530 H   0  0  0  0  0  0
  -22.6902  -31.3126   21.4246 H   0  0  0  0  0  0
  -23.3784  -35.9642   23.3302 H   0  0  0  0  0  0
  -24.3601  -36.8919   22.2046 H   0  0  0  0  0  0
  -23.7241  -37.6509   23.6650 H   0  0  0  0  0  0
  -26.0640  -31.6020   20.6086 H   0  0  0  0  0  0
  -26.8180  -30.8717   21.9966 H   0  0  0  0  0  0
  -28.0931  -29.0904   21.1743 H   0  0  0  0  0  0
  -25.9974  -26.0156   18.9538 H   0  0  0  0  0  0
  -23.9678  -27.3344   19.0027 H   0  0  0  0  0  0
  -23.7243  -30.6241   19.4140 H   0  0  0  0  0  0
  -22.7300  -29.2691   19.8637 H   0  0  0  0  0  0
  -25.1306  -36.2008   25.0819 H   0  0  0  0  0  0
  -20.9960  -28.3256   24.1408 H   0  0  0  0  0  0
  -20.5700  -26.2293   23.3567 H   0  0  0  0  0  0
  -21.6638  -26.7455   22.1176 H   0  0  0  0  0  0
  -19.6949  -25.6276   21.1207 H   0  0  0  0  0  0
  -19.6707  -27.3174   20.6712 H   0  0  0  0  0  0
  -17.4192  -26.6638   21.3969 H   0  0  0  0  0  0
  -18.0337  -26.0054   22.8986 H   0  0  0  0  0  0
  -19.7941  -30.7191   24.2302 H   0  0  0  0  0  0
  -17.5030  -31.6262   24.5141 H   0  0  0  0  0  0
  -15.5352  -30.2976   23.7646 H   0  0  0  0  0  0
  -15.8639  -28.0791   22.7076 H   0  0  0  0  0  0
  -24.5897  -30.7123   25.7785 H   0  0  0  0  0  0
  -24.8967  -32.2903   26.4951 H   0  0  0  0  0  0
  -25.8055  -30.8854   27.0222 H   0  0  0  0  0  0
  -26.2846  -29.6817   24.1197 H   0  0  0  0  0  0
  -27.4095  -29.7295   25.4587 H   0  0  0  0  0  0
  -27.8698  -30.4374   23.9277 H   0  0  0  0  0  0
  -27.2692  -33.3644   26.2107 H   0  0  0  0  0  0
  -28.3844  -32.6939   25.0280 H   0  0  0  0  0  0
  -28.0805  -31.8469   26.5366 H   0  0  0  0  0  0
  -28.2602  -38.0132   24.7535 H   0  0  0  0  0  0
  -28.1120  -36.2645   24.6253 H   0  0  0  0  0  0
  -27.2310  -37.1411   25.8859 H   0  0  0  0  0  0
  -20.9296  -29.8765   21.6913 H   0  0  0  0  0  0
  -26.0220  -38.2878   24.1404 H   0  0  0  0  0  0
  -32.6482  -20.9479   20.7940 H   0  0  0  0  0  0
  -33.6545  -16.9646   21.9517 H   0  0  0  0  0  0
  -28.9618  -20.6486   21.3513 H   0  0  0  0  0  0
  -31.1668  -22.0861   19.8174 H   0  0  0  0  0  0
  -34.9709  -20.3370   21.4386 H   0  0  0  0  0  0
  -35.0520  -19.1759   20.1076 H   0  0  0  0  0  0
  -35.3791  -18.6536   21.7630 H   0  0  0  0  0  0
  -27.4370  -17.9100   23.2505 H   0  0  0  0  0  0
  -28.6370  -19.1396   23.6247 H   0  0  0  0  0  0
  -28.9971  -17.4405   23.9042 H   0  0  0  0  0  0
  -28.8663  -17.0182   21.4228 H   0  0  0  0  0  0
  -28.4400  -18.6307   21.1259 H   0  0  0  0  0  0
  -30.7871  -16.1346   23.5114 H   0  0  0  0  0  0
  -32.1836  -15.4924   22.7405 H   0  0  0  0  0  0
  -28.1636  -22.5965   20.2660 H   0  0  0  0  0  0
  -29.0174  -22.8780   18.7742 H   0  0  0  0  0  0
  -30.3513  -24.7099   19.8555 H   0  0  0  0  0  0
  -29.5100  -24.4189   21.3729 H   0  0  0  0  0  0
  -28.1170  -25.1636   18.7520 H   0  0  0  0  0  0
  -27.3517  -24.8838   20.3089 H   0  0  0  0  0  0
  -29.5594  -14.7656   22.2065 H   0  0  0  0  0  0
  1 25  1  0  0  0
  1 30  2  0  0  0
  1 86  1  0  0  0
  2  3  1  0  0  0
  2 25  1  0  0  0
  2 87  1  0  0  0
  2 88  1  0  0  0
  3  4  1  0  0  0
  3 89  1  0  0  0
  3 90  1  0  0  0
  4  5  1  0  0  0
  4 91  1  0  0  0
  4 92  1  0  0  0
  5  6  1  0  0  0
  5 26  1  0  0  0
  5 93  1  0  0  0
  6 25  1  0  0  0
  6 94  1  0  0  0
  6 95  1  0  0  0
  7  8  2  0  0  0
  7 26  1  0  0  0
  7 29  1  0  0  0
  8  9  1  0  0  0
  8 22  1  0  0  0
  9 10  1  0  0  0
  9 27  2  0  0  0
 10 11  2  0  0  0
 10 15  1  0  0  0
 11 12  1  0  0  0
 11 96  1  0  0  0
 12 13  2  0  0  0
 12 97  1  0  0  0
 13 14  1  0  0  0
 13 31  1  0  0  0
 14 15  2  0  0  0
 14 98  1  0  0  0
 15 99  1  0  0  0
 16 17  2  0  0  0
 16 21  1  0  0  0
 16 31  1  0  0  0
 17 18  1  0  0  0
 17100  1  0  0  0
 18 19  2  0  0  0
 18101  1  0  0  0
 19 20  1  0  0  0
 19 24  1  0  0  0
 20 21  2  0  0  0
 20102  1  0  0  0
 21 23  1  0  0  0
 22 28  1  0  0  0
 22 32  2  0  0  0
 26 27  1  0  0  0
 28103  1  0  0  0
 28104  1  0  0  0
 29105  1  0  0  0
 29106  1  0  0  0
 33 34  1  0  0  0
 33 66  1  0  0  0
 33 70  2  0  0  0
 34 36  1  0  0  0
 34 59  1  0  0  0
 34107  1  0  0  0
 35 44  2  0  0  0
 35 45  1  0  0  0
 35 68  1  0  0  0
 36 56  1  0  0  0
 36108  1  0  0  0
 37 39  1  0  0  0
 37 47  1  0  0  0
 37 66  1  0  0  0
 37109  1  0  0  0
 38 43  2  0  0  0
 38 46  1  0  0  0
 38 47  1  0  0  0
 39 64  1  0  0  0
 39 67  2  0  0  0
 40 52  1  0  0  0
 40 53  2  0  0  0
 40 58  1  0  0  0
 41110  1  0  0  0
 41111  1  0  0  0
 41112  1  0  0  0
 41 48  1  0  0  0
 42 43  1  0  0  0
 42 66  1  0  0  0
 42113  1  0  0  0
 42114  1  0  0  0
 43 44  1  0  0  0
 44115  1  0  0  0
 45 46  2  0  0  0
 45116  1  0  0  0
 46117  1  0  0  0
 47118  1  0  0  0
 47119  1  0  0  0
 48 56  1  0  0  0
 48 65  1  0  0  0
 48120  1  0  0  0
 49 50  1  0  0  0
 49 53  1  0  0  0
 49 64  1  0  0  0
 49121  1  0  0  0
 50 51  1  0  0  0
 50122  1  0  0  0
 50123  1  0  0  0
 51 52  1  0  0  0
 51124  1  0  0  0
 51125  1  0  0  0
 52126  1  0  0  0
 52127  1  0  0  0
 53 54  1  0  0  0
 54 55  2  0  0  0
 54128  1  0  0  0
 55 57  1  0  0  0
 55129  1  0  0  0
 56 69  2  0  0  0
 57 58  2  0  0  0
 57130  1  0  0  0
 58131  1  0  0  0
 59 60  1  0  0  0
 59 61  1  0  0  0
 59 62  1  0  0  0
 60132  1  0  0  0
 60133  1  0  0  0
 60134  1  0  0  0
 61135  1  0  0  0
 61136  1  0  0  0
 61137  1  0  0  0
 62138  1  0  0  0
 62139  1  0  0  0
 62140  1  0  0  0
 63 65  1  0  0  0
 63141  1  0  0  0
 63142  1  0  0  0
 63143  1  0  0  0
 64144  1  0  0  0
 65145  1  0  0  0
 68 85  1  0  0  0
 71 73  2  0  0  0
 71 74  1  0  0  0
 71146  1  0  0  0
 72 74  2  0  0  0
 72 75  1  0  0  0
 72147  1  0  0  0
 73 76  1  0  0  0
 73 77  1  0  0  0
 74 79  1  0  0  0
 75 76  2  0  0  0
 75 82  1  0  0  0
 76 81  1  0  0  0
 77 78  2  0  0  0
 77148  1  0  0  0
 78 83  1  0  0  0
 78149  1  0  0  0
 79150  1  0  0  0
 79151  1  0  0  0
 79152  1  0  0  0
 80 81  1  0  0  0
 80153  1  0  0  0
 80154  1  0  0  0
 80155  1  0  0  0
 81156  1  0  0  0
 81157  1  0  0  0
 82 86  1  0  0  0
 82158  1  0  0  0
 82159  1  0  0  0
 83 84  1  0  0  0
 83160  1  0  0  0
 83161  1  0  0  0
 84 85  1  0  0  0
 84162  1  0  0  0
 84163  1  0  0  0
 85164  1  0  0  0
 85165  1  0  0  0
 86166  1  0  0  0
M  ISO  4   1 100  68 101  85 101  86 100
M  END
> <chiral flag>
0

> <version>
0

> <s_m_source_file>
/data/baiqing/PycharmProjects/Reinvent-master-3.2/result/LINK_invent/BTK/process_docking_weight1_custom_product_contain_oxygen_bond_distance_aromatic_linkinvent_7_9_3/rearranged_h_0127.sdf

> <i_m_source_file_index>
28

> <r_mmod_Potential_Energy-OPLS-2005>
-95.1012725830078

> <r_mmod_Stretch_Energy-OPLS-2005>
40.2889213562012

> <r_mmod_Bend_Energy-OPLS-2005>
101.978988647461

> <r_mmod_Torsional_Energy-OPLS-2005>
193.340301513672

> <r_mmod_Improper_Torsional_Energy-OPLS-2005>
3.38902950286865

> <r_mmod_Van_der_Waal_Energy-OPLS-2005>
165.658798217773

> <r_mmod_Electrostatic_Energy-OPLS-2005>
-402.522521972656

> <r_mmod_Solvation_Energy-OPLS-2005>
-207.680145263672

> <b_mmod_Minimization_Converged-OPLS-2005>
0

> <r_mmod_RMS_Derivative-OPLS-2005>
3.05310368537903

$$$$
28
                    3D
 Structure written by MMmdl.
162171  0  0  1  0            999 V2000
  -30.5271  -14.7435   20.5068 C   0  0  0  0  0  0
  -30.4717  -12.4666   19.4484 C   0  0  0  0  0  0
  -29.5222  -12.5371   18.2258 C   0  0  0  0  0  0
  -28.0432  -12.3461   18.6319 C   0  0  0  0  0  0
  -27.6582  -13.1982   19.8685 C   0  0  2  0  0  0
  -28.7105  -13.0067   20.9836 C   0  0  0  0  0  0
  -25.2603  -13.8104   20.5673 C   0  0  0  0  0  0
  -24.1842  -13.0407   20.9175 C   0  0  0  0  0  0
  -24.6380  -11.6868   20.8723 C   0  0  0  0  0  0
  -23.9036  -10.4272   21.0404 C   0  0  0  0  0  0
  -24.3596   -9.4195   21.9182 C   0  0  0  0  0  0
  -23.6275   -8.2232   22.0749 C   0  0  0  0  0  0
  -22.4258   -8.0269   21.3537 C   0  0  0  0  0  0
  -21.9889   -9.0240   20.4640 C   0  0  0  0  0  0
  -22.7212  -10.2121   20.3050 C   0  0  0  0  0  0
  -21.6844   -6.0727   22.5280 C   0  0  0  0  0  0
  -21.4008   -6.5632   23.8212 C   0  0  0  0  0  0
  -21.3659   -5.6785   24.9177 C   0  0  0  0  0  0
  -21.6054   -4.3049   24.7230 C   0  0  0  0  0  0
  -21.8820   -3.8141   23.4349 C   0  0  0  0  0  0
  -21.9187   -4.6956   22.3406 C   0  0  0  0  0  0
  -22.7871  -13.5236   21.1846 C   0  0  0  0  0  0
  -22.1660   -4.2142   21.0985 F   0  0  0  0  0  0
  -21.5630   -3.4538   25.7746 F   0  0  0  0  0  0
  -30.0060  -13.4614   20.4410 N   0  0  0  0  0  0
  -26.3013  -12.9241   20.3322 N   0  0  0  0  0  0
  -25.9305  -11.6418   20.5735 N   0  0  0  0  0  0
  -22.0494  -12.8237   22.0395 N   0  0  0  0  0  0
  -25.4350  -15.1820   20.4086 N   0  0  0  0  0  0
  -31.6876  -14.9471   20.1331 O   0  0  0  0  0  0
  -21.6627   -6.8866   21.4238 O   0  0  0  0  0  0
  -22.3564  -14.5547   20.6695 O   0  0  0  0  0  0
  -24.6299  -31.8586   23.1994 C   0  0  0  0  0  0
  -25.9122  -32.4777   23.8340 C   0  0  1  0  0  0
  -27.2263  -27.2868   20.1184 C   0  0  0  0  0  0
  -25.5935  -33.8577   24.2273 N   0  0  0  0  0  0
  -23.4252  -30.4819   21.5433 C   0  0  2  0  0  0
  -24.8708  -28.9313   20.1124 C   0  0  0  0  0  0
  -22.7486  -29.4633   22.4923 C   0  0  0  0  0  0
  -18.0288  -28.1398   22.8486 C   0  0  0  0  0  0
  -24.1485  -36.7275   23.2639 C   0  0  0  0  0  0
  -25.9695  -30.7798   21.3737 C   0  0  0  0  0  0
  -26.0429  -29.4036   20.7153 C   0  0  0  0  0  0
  -27.2228  -28.5951   20.7058 C   0  0  0  0  0  0
  -26.0249  -26.8761   19.4930 C   0  0  0  0  0  0
  -24.8648  -27.6731   19.4927 C   0  0  0  0  0  0
  -23.6406  -29.8156   20.1596 C   0  0  0  0  0  0
  -25.4112  -36.3081   24.0336 C   0  0  1  0  0  0
  -20.5896  -28.3711   23.1268 C   0  0  2  0  0  0
  -20.6778  -26.9430   22.5408 C   0  0  0  0  0  0
  -19.5752  -26.6398   21.5213 C   0  0  0  0  0  0
  -18.1931  -26.7941   22.1625 C   0  0  0  0  0  0
  -19.1544  -28.8865   23.2881 C   0  0  0  0  0  0
  -18.9467  -30.1463   23.8908 C   0  0  0  0  0  0
  -17.6467  -30.6600   24.0566 C   0  0  0  0  0  0
  -25.9057  -34.9456   23.5104 C   0  0  0  0  0  0
  -16.5356  -29.9105   23.6334 C   0  0  0  0  0  0
  -16.7276  -28.6518   23.0366 C   0  0  0  0  0  0
  -26.4496  -31.6589   25.0711 C   0  0  0  0  0  0
  -25.3729  -31.3731   26.1437 C   0  0  0  0  0  0
  -27.0332  -30.3010   24.6170 C   0  0  0  0  0  0
  -27.6054  -32.4328   25.7487 C   0  0  0  0  0  0
  -27.5580  -37.1795   24.8471 C   0  0  0  0  0  0
  -21.4195  -29.3061   22.3653 N   0  0  0  0  0  0
  -26.4287  -37.3778   23.9418 N   0  0  0  0  0  0
  -24.6938  -31.0576   22.0952 N   0  0  0  0  0  0
  -23.4183  -28.8180   23.3034 O   0  0  0  0  0  0
  -28.3400  -26.4185   20.1642 O   0  0  0  0  0  0
  -26.5621  -34.8935   22.4671 O   0  0  0  0  0  0
  -23.5450  -32.1396   23.7307 O   0  0  0  0  0  0
  -31.4457  -18.6235   20.2846 C   0  0  0  0  0  0
  -32.0261  -19.8896   20.0522 C   0  0  0  0  0  0
  -29.2984  -19.7418   20.3971 C   0  0  0  0  0  0
  -30.0630  -18.5118   20.4941 C   0  0  0  0  0  0
  -31.2675  -21.0889   19.9788 C   0  0  0  0  0  0
  -29.8525  -21.0548   20.1361 C   0  0  0  0  0  0
  -29.3875  -17.1939   20.8624 C   0  0  0  0  0  0
  -29.5348  -15.8122   20.9067 C   0  0  0  0  0  0
  -32.0421  -22.3727   19.7053 C   0  0  0  0  0  0
  -28.9064  -22.3315   19.9291 C   0  0  0  0  0  0
  -31.3747  -23.3016   18.6916 C   0  0  0  0  0  0
  -30.4637  -24.3654   19.3172 C   0  0  0  0  0  0
  -29.3127  -23.8760   20.2377 C   0  0  2  0  0  0
  -29.7188  -23.9648   21.7228 C   0  0  0  0  0  0
  -28.1188  -24.9452   20.0130 C   0  0  0  0  0  0
  -31.5005  -12.6550   19.1361 H   0  0  0  0  0  0
  -30.4737  -11.4647   19.8808 H   0  0  0  0  0  0
  -29.8100  -11.7917   17.4833 H   0  0  0  0  0  0
  -29.6364  -13.5072   17.7403 H   0  0  0  0  0  0
  -27.8905  -11.2893   18.8544 H   0  0  0  0  0  0
  -27.3872  -12.5774   17.7920 H   0  0  0  0  0  0
  -27.6802  -14.2372   19.5413 H   0  0  0  0  0  0
  -28.7680  -11.9530   21.2579 H   0  0  0  0  0  0
  -28.4349  -13.5000   21.9149 H   0  0  0  0  0  0
  -25.2739   -9.5681   22.4753 H   0  0  0  0  0  0
  -23.9990   -7.4629   22.7467 H   0  0  0  0  0  0
  -21.0825   -8.8747   19.8949 H   0  0  0  0  0  0
  -22.3663  -10.9655   19.6158 H   0  0  0  0  0  0
  -21.1993   -7.6140   23.9714 H   0  0  0  0  0  0
  -21.1481   -6.0519   25.9083 H   0  0  0  0  0  0
  -22.0596   -2.7602   23.2853 H   0  0  0  0  0  0
  -22.4099  -11.9903   22.4800 H   0  0  0  0  0  0
  -21.1109  -13.1268   22.2586 H   0  0  0  0  0  0
  -24.6707  -15.8400   20.5187 H   0  0  0  0  0  0
  -26.2875  -15.6156   20.0773 H   0  0  0  0  0  0
  -26.7186  -32.5428   23.1084 H   0  0  0  0  0  0
  -25.0094  -33.9724   25.0427 H   0  0  0  0  0  0
  -22.7206  -31.3028   21.3984 H   0  0  0  0  0  0
  -23.3765  -35.9588   23.3302 H   0  0  0  0  0  0
  -24.3567  -36.8889   22.2051 H   0  0  0  0  0  0
  -23.7224  -37.6476   23.6650 H   0  0  0  0  0  0
  -26.1063  -31.5416   20.6047 H   0  0  0  0  0  0
  -26.8478  -30.8269   22.0057 H   0  0  0  0  0  0
  -28.1210  -28.9567   21.1868 H   0  0  0  0  0  0
  -25.9462  -25.9173   19.0053 H   0  0  0  0  0  0
  -23.9654  -27.3024   19.0184 H   0  0  0  0  0  0
  -23.7635  -30.5917   19.4038 H   0  0  0  0  0  0
  -22.7589  -29.2492   19.8554 H   0  0  0  0  0  0
  -25.1295  -36.1929   25.0829 H   0  0  0  0  0  0
  -21.0000  -28.3297   24.1389 H   0  0  0  0  0  0
  -20.5682  -26.2328   23.3619 H   0  0  0  0  0  0
  -21.6646  -26.7462   22.1201 H   0  0  0  0  0  0
  -19.6919  -25.6311   21.1245 H   0  0  0  0  0  0
  -19.6689  -27.3205   20.6739 H   0  0  0  0  0  0
  -17.4204  -26.6691   21.4026 H   0  0  0  0  0  0
  -18.0332  -26.0089   22.9027 H   0  0  0  0  0  0
  -19.7942  -30.7274   24.2291 H   0  0  0  0  0  0
  -17.5027  -31.6282   24.5166 H   0  0  0  0  0  0
  -15.5362  -30.3015   23.7655 H   0  0  0  0  0  0
  -15.8672  -28.0836   22.7097 H   0  0  0  0  0  0
  -24.5918  -30.7056   25.7773 H   0  0  0  0  0  0
  -24.8902  -32.2896   26.4839 H   0  0  0  0  0  0
  -25.8065  -30.8937   27.0223 H   0  0  0  0  0  0
  -26.2897  -29.6776   24.1186 H   0  0  0  0  0  0
  -27.4015  -29.7250   25.4671 H   0  0  0  0  0  0
  -27.8778  -30.4293   23.9398 H   0  0  0  0  0  0
  -27.2656  -33.3633   26.2050 H   0  0  0  0  0  0
  -28.3873  -32.6883   25.0321 H   0  0  0  0  0  0
  -28.0706  -31.8460   26.5421 H   0  0  0  0  0  0
  -28.2607  -38.0087   24.7532 H   0  0  0  0  0  0
  -28.1073  -36.2625   24.6282 H   0  0  0  0  0  0
  -27.2300  -37.1428   25.8875 H   0  0  0  0  0  0
  -20.9374  -29.8778   21.6855 H   0  0  0  0  0  0
  -26.0172  -38.2852   24.1426 H   0  0  0  0  0  0
  -32.0754  -17.7456   20.3413 H   0  0  0  0  0  0
  -33.0990  -19.9315   19.9260 H   0  0  0  0  0  0
  -28.2271  -19.6729   20.5233 H   0  0  0  0  0  0
  -28.4210  -17.4476   21.2761 H   0  0  0  0  0  0
  -28.6364  -15.4291   21.3516 H   0  0  0  0  0  0
  -33.0180  -22.1007   19.3016 H   0  0  0  0  0  0
  -32.2624  -22.8931   20.6369 H   0  0  0  0  0  0
  -27.9981  -22.1276   20.4968 H   0  0  0  0  0  0
  -28.5813  -22.2890   18.8886 H   0  0  0  0  0  0
  -30.8528  -22.7268   17.9250 H   0  0  0  0  0  0
  -32.1629  -23.8364   18.1594 H   0  0  0  0  0  0
  -30.0466  -24.9254   18.4781 H   0  0  0  0  0  0
  -31.0726  -25.0976   19.8504 H   0  0  0  0  0  0
  -30.5208  -23.2743   21.9773 H   0  0  0  0  0  0
  -28.8763  -23.7198   22.3703 H   0  0  0  0  0  0
  -30.0467  -24.9699   21.9878 H   0  0  0  0  0  0
  -27.7570  -24.7758   18.9988 H   0  0  0  0  0  0
  -27.2920  -24.6682   20.6691 H   0  0  0  0  0  0
  1 25  1  0  0  0
  1 30  2  0  0  0
  1 78  1  0  0  0
  2  3  1  0  0  0
  2 25  1  0  0  0
  2 86  1  0  0  0
  2 87  1  0  0  0
  3  4  1  0  0  0
  3 88  1  0  0  0
  3 89  1  0  0  0
  4  5  1  0  0  0
  4 90  1  0  0  0
  4 91  1  0  0  0
  5  6  1  0  0  0
  5 26  1  0  0  0
  5 92  1  0  0  0
  6 25  1  0  0  0
  6 93  1  0  0  0
  6 94  1  0  0  0
  7  8  2  0  0  0
  7 26  1  0  0  0
  7 29  1  0  0  0
  8  9  1  0  0  0
  8 22  1  0  0  0
  9 10  1  0  0  0
  9 27  2  0  0  0
 10 11  2  0  0  0
 10 15  1  0  0  0
 11 12  1  0  0  0
 11 95  1  0  0  0
 12 13  2  0  0  0
 12 96  1  0  0  0
 13 14  1  0  0  0
 13 31  1  0  0  0
 14 15  2  0  0  0
 14 97  1  0  0  0
 15 98  1  0  0  0
 16 17  2  0  0  0
 16 21  1  0  0  0
 16 31  1  0  0  0
 17 18  1  0  0  0
 17 99  1  0  0  0
 18 19  2  0  0  0
 18100  1  0  0  0
 19 20  1  0  0  0
 19 24  1  0  0  0
 20 21  2  0  0  0
 20101  1  0  0  0
 21 23  1  0  0  0
 22 28  1  0  0  0
 22 32  2  0  0  0
 26 27  1  0  0  0
 28102  1  0  0  0
 28103  1  0  0  0
 29104  1  0  0  0
 29105  1  0  0  0
 33 34  1  0  0  0
 33 66  1  0  0  0
 33 70  2  0  0  0
 34 36  1  0  0  0
 34 59  1  0  0  0
 34106  1  0  0  0
 35 44  2  0  0  0
 35 45  1  0  0  0
 35 68  1  0  0  0
 36 56  1  0  0  0
 36107  1  0  0  0
 37 39  1  0  0  0
 37 47  1  0  0  0
 37 66  1  0  0  0
 37108  1  0  0  0
 38 43  2  0  0  0
 38 46  1  0  0  0
 38 47  1  0  0  0
 39 64  1  0  0  0
 39 67  2  0  0  0
 40 52  1  0  0  0
 40 53  2  0  0  0
 40 58  1  0  0  0
 41109  1  0  0  0
 41110  1  0  0  0
 41111  1  0  0  0
 41 48  1  0  0  0
 42 43  1  0  0  0
 42 66  1  0  0  0
 42112  1  0  0  0
 42113  1  0  0  0
 43 44  1  0  0  0
 44114  1  0  0  0
 45 46  2  0  0  0
 45115  1  0  0  0
 46116  1  0  0  0
 47117  1  0  0  0
 47118  1  0  0  0
 48 56  1  0  0  0
 48 65  1  0  0  0
 48119  1  0  0  0
 49 50  1  0  0  0
 49 53  1  0  0  0
 49 64  1  0  0  0
 49120  1  0  0  0
 50 51  1  0  0  0
 50121  1  0  0  0
 50122  1  0  0  0
 51 52  1  0  0  0
 51123  1  0  0  0
 51124  1  0  0  0
 52125  1  0  0  0
 52126  1  0  0  0
 53 54  1  0  0  0
 54 55  2  0  0  0
 54127  1  0  0  0
 55 57  1  0  0  0
 55128  1  0  0  0
 56 69  2  0  0  0
 57 58  2  0  0  0
 57129  1  0  0  0
 58130  1  0  0  0
 59 60  1  0  0  0
 59 61  1  0  0  0
 59 62  1  0  0  0
 60131  1  0  0  0
 60132  1  0  0  0
 60133  1  0  0  0
 61134  1  0  0  0
 61135  1  0  0  0
 61136  1  0  0  0
 62137  1  0  0  0
 62138  1  0  0  0
 62139  1  0  0  0
 63 65  1  0  0  0
 63140  1  0  0  0
 63141  1  0  0  0
 63142  1  0  0  0
 64143  1  0  0  0
 65144  1  0  0  0
 68 85  1  0  0  0
 71 72  2  0  0  0
 71 74  1  0  0  0
 71145  1  0  0  0
 72 75  1  0  0  0
 72146  1  0  0  0
 73 74  2  0  0  0
 73 76  1  0  0  0
 73147  1  0  0  0
 74 77  1  0  0  0
 75 76  2  0  0  0
 75 79  1  0  0  0
 76 80  1  0  0  0
 77 78  2  0  0  0
 77148  1  0  0  0
 78149  1  0  0  0
 79 81  1  0  0  0
 79150  1  0  0  0
 79151  1  0  0  0
 80 83  1  0  0  0
 80152  1  0  0  0
 80153  1  0  0  0
 81 82  1  0  0  0
 81154  1  0  0  0
 81155  1  0  0  0
 82 83  1  0  0  0
 82156  1  0  0  0
 82157  1  0  0  0
 83 84  1  0  0  0
 83 85  1  0  0  0
 84158  1  0  0  0
 84159  1  0  0  0
 84160  1  0  0  0
 85161  1  0  0  0
 85162  1  0  0  0
M  ISO  4   1 100  68 101  78 100  85 101
M  END
> <chiral flag>
0

> <version>
0

> <s_m_source_file>
/data/baiqing/PycharmProjects/Reinvent-master-3.2/result/LINK_invent/BTK/process_docking_weight1_custom_product_contain_oxygen_bond_distance_aromatic_linkinvent_7_9_3/rearranged_h_0127.sdf

> <i_m_source_file_index>
29

> <r_mmod_Potential_Energy-OPLS-2005>
290.78076171875

> <r_mmod_Stretch_Energy-OPLS-2005>
118.104881286621

> <r_mmod_Bend_Energy-OPLS-2005>
247.971725463867

> <r_mmod_Torsional_Energy-OPLS-2005>
213.326232910156

> <r_mmod_Improper_Torsional_Energy-OPLS-2005>
3.89844131469727

> <r_mmod_Van_der_Waal_Energy-OPLS-2005>
155.246459960938

> <r_mmod_Electrostatic_Energy-OPLS-2005>
-331.562622070312

> <r_mmod_Solvation_Energy-OPLS-2005>
-192.960754394531

> <b_mmod_Minimization_Converged-OPLS-2005>
0

> <r_mmod_RMS_Derivative-OPLS-2005>
1.63739216327667

$$$$
29
                    3D
 Structure written by MMmdl.
155163  0  0  1  0            999 V2000
  -30.8002  -14.4071   20.4970 C   0  0  0  0  0  0
  -30.3747  -12.2437   19.4519 C   0  0  0  0  0  0
  -29.4859  -12.4708   18.2158 C   0  0  0  0  0  0
  -28.0041  -12.3643   18.6170 C   0  0  0  0  0  0
  -27.6513  -13.2270   19.8603 C   0  0  2  0  0  0
  -28.6913  -13.0718   20.9922 C   0  0  0  0  0  0
  -25.2535  -13.8221   20.5694 C   0  0  0  0  0  0
  -24.1810  -13.0470   20.9186 C   0  0  0  0  0  0
  -24.6385  -11.6942   20.8736 C   0  0  0  0  0  0
  -23.9064  -10.4313   21.0403 C   0  0  0  0  0  0
  -24.3614   -9.4228   21.9182 C   0  0  0  0  0  0
  -23.6290   -8.2258   22.0758 C   0  0  0  0  0  0
  -22.4271   -8.0290   21.3546 C   0  0  0  0  0  0
  -21.9904   -9.0265   20.4653 C   0  0  0  0  0  0
  -22.7235  -10.2145   20.3058 C   0  0  0  0  0  0
  -21.6859   -6.0736   22.5276 C   0  0  0  0  0  0
  -21.4023   -6.5638   23.8209 C   0  0  0  0  0  0
  -21.3661   -5.6790   24.9172 C   0  0  0  0  0  0
  -21.6039   -4.3051   24.7223 C   0  0  0  0  0  0
  -21.8818   -3.8146   23.4344 C   0  0  0  0  0  0
  -21.9195   -4.6965   22.3399 C   0  0  0  0  0  0
  -22.7830  -13.5250   21.1842 C   0  0  0  0  0  0
  -22.1663   -4.2153   21.0979 F   0  0  0  0  0  0
  -21.5624   -3.4534   25.7735 F   0  0  0  0  0  0
  -30.0289  -13.2898   20.4300 N   0  0  0  0  0  0
  -26.2976  -12.9433   20.3319 N   0  0  0  0  0  0
  -25.9315  -11.6568   20.5757 N   0  0  0  0  0  0
  -22.0464  -12.8253   22.0405 N   0  0  0  0  0  0
  -25.4247  -15.1939   20.4128 N   0  0  0  0  0  0
  -31.9782  -14.3595   20.1400 O   0  0  0  0  0  0
  -21.6643   -6.8878   21.4237 O   0  0  0  0  0  0
  -22.3511  -14.5550   20.6685 O   0  0  0  0  0  0
  -24.6097  -31.8723   23.2149 C   0  0  0  0  0  0
  -25.9010  -32.4844   23.8426 C   0  0  1  0  0  0
  -27.2191  -27.4806   20.0892 C   0  0  0  0  0  0
  -25.5880  -33.8642   24.2353 N   0  0  0  0  0  0
  -23.3939  -30.4987   21.5551 C   0  0  2  0  0  0
  -24.8370  -28.9765   20.1105 C   0  0  0  0  0  0
  -22.7382  -29.4675   22.5010 C   0  0  0  0  0  0
  -18.0265  -28.1367   22.8494 C   0  0  0  0  0  0
  -24.1483  -36.7333   23.2636 C   0  0  0  0  0  0
  -25.9191  -30.8535   21.3607 C   0  0  0  0  0  0
  -25.9963  -29.4949   20.7021 C   0  0  0  0  0  0
  -27.1952  -28.7546   20.6868 C   0  0  0  0  0  0
  -26.0496  -26.9694   19.4848 C   0  0  0  0  0  0
  -24.8566  -27.7122   19.4976 C   0  0  0  0  0  0
  -23.5975  -29.8376   20.1662 C   0  0  0  0  0  0
  -25.4098  -36.3129   24.0342 C   0  0  1  0  0  0
  -20.5851  -28.3644   23.1335 C   0  0  2  0  0  0
  -20.6753  -26.9386   22.5420 C   0  0  0  0  0  0
  -19.5733  -26.6379   21.5210 C   0  0  0  0  0  0
  -18.1912  -26.7915   22.1623 C   0  0  0  0  0  0
  -19.1512  -28.8823   23.2912 C   0  0  0  0  0  0
  -18.9445  -30.1432   23.8915 C   0  0  0  0  0  0
  -17.6448  -30.6580   24.0566 C   0  0  0  0  0  0
  -25.9024  -34.9489   23.5145 C   0  0  0  0  0  0
  -16.5339  -29.9084   23.6322 C   0  0  0  0  0  0
  -16.7256  -28.6500   23.0343 C   0  0  0  0  0  0
  -26.4458  -31.6608   25.0734 C   0  0  0  0  0  0
  -25.3745  -31.3703   26.1502 C   0  0  0  0  0  0
  -27.0279  -30.3058   24.6073 C   0  0  0  0  0  0
  -27.6046  -32.4321   25.7484 C   0  0  0  0  0  0
  -27.5587  -37.1811   24.8457 C   0  0  0  0  0  0
  -21.4117  -29.3025   22.3756 N   0  0  0  0  0  0
  -26.4291  -37.3807   23.9415 N   0  0  0  0  0  0
  -24.6590  -31.0868   22.1027 N   0  0  0  0  0  0
  -23.4182  -28.8205   23.3019 O   0  0  0  0  0  0
  -28.3648  -26.7370   20.1337 O   0  0  0  0  0  0
  -26.5592  -34.8936   22.4711 O   0  0  0  0  0  0
  -23.5305  -32.1452   23.7580 O   0  0  0  0  0  0
  -29.5235  -20.2125   21.3560 C   0  0  0  0  0  0
  -29.6523  -18.8080   21.2707 C   0  0  0  0  0  0
  -31.4115  -20.4788   19.8509 C   0  0  0  0  0  0
  -30.4310  -21.0526   20.6716 C   0  0  0  0  0  0
  -30.6809  -18.2343   20.4911 C   0  0  0  0  0  0
  -31.5351  -19.0870   19.7377 C   0  0  0  0  0  0
  -30.3821  -22.5146   20.6911 C   0  0  0  0  0  0
  -30.9119  -16.7856   20.4202 C   0  0  0  0  0  0
  -29.3414  -23.2743   21.0619 C   0  0  0  0  0  0
  -30.1698  -15.7025   20.7672 C   0  0  0  0  0  0
  -29.4389  -24.7341   20.9810 C   0  0  0  0  0  0
  -32.6034  -18.5599   18.7857 C   0  0  0  0  0  0
  -28.1297  -25.4697   20.7421 C   0  0  0  0  0  0
  -30.5034  -25.3574   21.0752 O   0  0  0  0  0  0
  -31.4271  -12.2362   19.1630 H   0  0  0  0  0  0
  -30.1862  -11.2578   19.8788 H   0  0  0  0  0  0
  -29.7172  -11.7357   17.4440 H   0  0  0  0  0  0
  -29.6895  -13.4506   17.7806 H   0  0  0  0  0  0
  -27.7958  -11.3140   18.8219 H   0  0  0  0  0  0
  -27.3665  -12.6398   17.7761 H   0  0  0  0  0  0
  -27.6808  -14.2667   19.5331 H   0  0  0  0  0  0
  -28.6384  -12.0716   21.4240 H   0  0  0  0  0  0
  -28.4806  -13.7601   21.8117 H   0  0  0  0  0  0
  -25.2754   -9.5709   22.4762 H   0  0  0  0  0  0
  -24.0002   -7.4652   22.7476 H   0  0  0  0  0  0
  -21.0835   -8.8781   19.8956 H   0  0  0  0  0  0
  -22.3684  -10.9681   19.6169 H   0  0  0  0  0  0
  -21.2019   -7.6147   23.9713 H   0  0  0  0  0  0
  -21.1483   -6.0522   25.9073 H   0  0  0  0  0  0
  -22.0594   -2.7609   23.2844 H   0  0  0  0  0  0
  -22.4075  -11.9922   22.4807 H   0  0  0  0  0  0
  -21.1083  -13.1297   22.2593 H   0  0  0  0  0  0
  -24.6605  -15.8518   20.5248 H   0  0  0  0  0  0
  -26.2832  -15.6333   20.1043 H   0  0  0  0  0  0
  -26.7085  -32.5569   23.1200 H   0  0  0  0  0  0
  -25.0021  -33.9812   25.0491 H   0  0  0  0  0  0
  -22.6795  -31.3138   21.4229 H   0  0  0  0  0  0
  -23.3743  -35.9669   23.3301 H   0  0  0  0  0  0
  -24.3587  -36.8946   22.2052 H   0  0  0  0  0  0
  -23.7238  -37.6541   23.6647 H   0  0  0  0  0  0
  -26.0276  -31.6252   20.5974 H   0  0  0  0  0  0
  -26.8085  -30.9024   21.9771 H   0  0  0  0  0  0
  -28.0905  -29.1444   21.1510 H   0  0  0  0  0  0
  -26.0507  -26.0018   19.0037 H   0  0  0  0  0  0
  -23.9656  -27.3090   19.0362 H   0  0  0  0  0  0
  -23.7011  -30.6170   19.4101 H   0  0  0  0  0  0
  -22.7218  -29.2565   19.8712 H   0  0  0  0  0  0
  -25.1269  -36.2004   25.0835 H   0  0  0  0  0  0
  -20.9938  -28.3199   24.1456 H   0  0  0  0  0  0
  -20.5651  -26.2244   23.3595 H   0  0  0  0  0  0
  -21.6625  -26.7431   22.1215 H   0  0  0  0  0  0
  -19.6892  -25.6294   21.1226 H   0  0  0  0  0  0
  -19.6676  -27.3200   20.6749 H   0  0  0  0  0  0
  -17.4180  -26.6666   21.4028 H   0  0  0  0  0  0
  -18.0315  -26.0050   22.9012 H   0  0  0  0  0  0
  -19.7923  -30.7243   24.2285 H   0  0  0  0  0  0
  -17.5009  -31.6263   24.5161 H   0  0  0  0  0  0
  -15.5340  -30.2994   23.7636 H   0  0  0  0  0  0
  -15.8655  -28.0831   22.7042 H   0  0  0  0  0  0
  -24.5881  -30.7092   25.7846 H   0  0  0  0  0  0
  -24.8982  -32.2859   26.5018 H   0  0  0  0  0  0
  -25.8110  -30.8817   27.0221 H   0  0  0  0  0  0
  -26.2807  -29.6829   24.1140 H   0  0  0  0  0  0
  -27.4086  -29.7280   25.4506 H   0  0  0  0  0  0
  -27.8629  -30.4395   23.9189 H   0  0  0  0  0  0
  -27.2663  -33.3591   26.2130 H   0  0  0  0  0  0
  -28.3812  -32.6933   25.0282 H   0  0  0  0  0  0
  -28.0766  -31.8409   26.5343 H   0  0  0  0  0  0
  -28.2588  -38.0125   24.7537 H   0  0  0  0  0  0
  -28.1097  -36.2662   24.6228 H   0  0  0  0  0  0
  -27.2318  -37.1404   25.8862 H   0  0  0  0  0  0
  -20.9253  -29.8775   21.7022 H   0  0  0  0  0  0
  -26.0188  -38.2886   24.1428 H   0  0  0  0  0  0
  -28.7405  -20.6320   21.9712 H   0  0  0  0  0  0
  -28.9749  -18.1788   21.8302 H   0  0  0  0  0  0
  -32.0759  -21.1199   19.2876 H   0  0  0  0  0  0
  -31.2873  -23.0111   20.3649 H   0  0  0  0  0  0
  -31.8926  -16.5902   20.0225 H   0  0  0  0  0  0
  -28.4099  -22.8430   21.3976 H   0  0  0  0  0  0
  -29.1828  -15.7978   21.1918 H   0  0  0  0  0  0
  -33.0327  -19.3574   18.1781 H   0  0  0  0  0  0
  -32.1804  -17.8275   18.0968 H   0  0  0  0  0  0
  -33.4210  -18.0942   19.3363 H   0  0  0  0  0  0
  -27.6208  -25.5977   21.6988 H   0  0  0  0  0  0
  -27.4977  -24.8460   20.1100 H   0  0  0  0  0  0
  1 25  1  0  0  0
  1 30  2  0  0  0
  1 80  1  0  0  0
  2  3  1  0  0  0
  2 25  1  0  0  0
  2 85  1  0  0  0
  2 86  1  0  0  0
  3  4  1  0  0  0
  3 87  1  0  0  0
  3 88  1  0  0  0
  4  5  1  0  0  0
  4 89  1  0  0  0
  4 90  1  0  0  0
  5  6  1  0  0  0
  5 26  1  0  0  0
  5 91  1  0  0  0
  6 25  1  0  0  0
  6 92  1  0  0  0
  6 93  1  0  0  0
  7  8  2  0  0  0
  7 26  1  0  0  0
  7 29  1  0  0  0
  8  9  1  0  0  0
  8 22  1  0  0  0
  9 10  1  0  0  0
  9 27  2  0  0  0
 10 11  2  0  0  0
 10 15  1  0  0  0
 11 12  1  0  0  0
 11 94  1  0  0  0
 12 13  2  0  0  0
 12 95  1  0  0  0
 13 14  1  0  0  0
 13 31  1  0  0  0
 14 15  2  0  0  0
 14 96  1  0  0  0
 15 97  1  0  0  0
 16 17  2  0  0  0
 16 21  1  0  0  0
 16 31  1  0  0  0
 17 18  1  0  0  0
 17 98  1  0  0  0
 18 19  2  0  0  0
 18 99  1  0  0  0
 19 20  1  0  0  0
 19 24  1  0  0  0
 20 21  2  0  0  0
 20100  1  0  0  0
 21 23  1  0  0  0
 22 28  1  0  0  0
 22 32  2  0  0  0
 26 27  1  0  0  0
 28101  1  0  0  0
 28102  1  0  0  0
 29103  1  0  0  0
 29104  1  0  0  0
 33 34  1  0  0  0
 33 66  1  0  0  0
 33 70  2  0  0  0
 34 36  1  0  0  0
 34 59  1  0  0  0
 34105  1  0  0  0
 35 44  2  0  0  0
 35 45  1  0  0  0
 35 68  1  0  0  0
 36 56  1  0  0  0
 36106  1  0  0  0
 37 39  1  0  0  0
 37 47  1  0  0  0
 37 66  1  0  0  0
 37107  1  0  0  0
 38 43  2  0  0  0
 38 46  1  0  0  0
 38 47  1  0  0  0
 39 64  1  0  0  0
 39 67  2  0  0  0
 40 52  1  0  0  0
 40 53  2  0  0  0
 40 58  1  0  0  0
 41108  1  0  0  0
 41109  1  0  0  0
 41110  1  0  0  0
 41 48  1  0  0  0
 42 43  1  0  0  0
 42 66  1  0  0  0
 42111  1  0  0  0
 42112  1  0  0  0
 43 44  1  0  0  0
 44113  1  0  0  0
 45 46  2  0  0  0
 45114  1  0  0  0
 46115  1  0  0  0
 47116  1  0  0  0
 47117  1  0  0  0
 48 56  1  0  0  0
 48 65  1  0  0  0
 48118  1  0  0  0
 49 50  1  0  0  0
 49 53  1  0  0  0
 49 64  1  0  0  0
 49119  1  0  0  0
 50 51  1  0  0  0
 50120  1  0  0  0
 50121  1  0  0  0
 51 52  1  0  0  0
 51122  1  0  0  0
 51123  1  0  0  0
 52124  1  0  0  0
 52125  1  0  0  0
 53 54  1  0  0  0
 54 55  2  0  0  0
 54126  1  0  0  0
 55 57  1  0  0  0
 55127  1  0  0  0
 56 69  2  0  0  0
 57 58  2  0  0  0
 57128  1  0  0  0
 58129  1  0  0  0
 59 60  1  0  0  0
 59 61  1  0  0  0
 59 62  1  0  0  0
 60130  1  0  0  0
 60131  1  0  0  0
 60132  1  0  0  0
 61133  1  0  0  0
 61134  1  0  0  0
 61135  1  0  0  0
 62136  1  0  0  0
 62137  1  0  0  0
 62138  1  0  0  0
 63 65  1  0  0  0
 63139  1  0  0  0
 63140  1  0  0  0
 63141  1  0  0  0
 64142  1  0  0  0
 65143  1  0  0  0
 68 83  1  0  0  0
 71 72  2  0  0  0
 71 74  1  0  0  0
 71144  1  0  0  0
 72 75  1  0  0  0
 72145  1  0  0  0
 73 74  2  0  0  0
 73 76  1  0  0  0
 73146  1  0  0  0
 74 77  1  0  0  0
 75 76  2  0  0  0
 75 78  1  0  0  0
 76 82  1  0  0  0
 77 79  2  0  0  0
 77147  1  0  0  0
 78 80  2  0  0  0
 78148  1  0  0  0
 79 81  1  0  0  0
 79149  1  0  0  0
 80150  1  0  0  0
 81 83  1  0  0  0
 81 84  2  0  0  0
 82151  1  0  0  0
 82152  1  0  0  0
 82153  1  0  0  0
 83154  1  0  0  0
 83155  1  0  0  0
M  ISO  4   1 100  68 101  80 100  83 101
M  END
> <chiral flag>
0

> <version>
0

> <s_m_source_file>
/data/baiqing/PycharmProjects/Reinvent-master-3.2/result/LINK_invent/BTK/process_docking_weight1_custom_product_contain_oxygen_bond_distance_aromatic_linkinvent_7_9_3/rearranged_h_0127.sdf

> <i_m_source_file_index>
30

> <r_mmod_Potential_Energy-OPLS-2005>
20.0497512817383

> <r_mmod_Stretch_Energy-OPLS-2005>
32.1937065124512

> <r_mmod_Bend_Energy-OPLS-2005>
109.478408813477

> <r_mmod_Torsional_Energy-OPLS-2005>
209.366653442383

> <r_mmod_Improper_Torsional_Energy-OPLS-2005>
5.19498300552368

> <r_mmod_Van_der_Waal_Energy-OPLS-2005>
181.977462768555

> <r_mmod_Electrostatic_Energy-OPLS-2005>
-333.136260986328

> <r_mmod_Solvation_Energy-OPLS-2005>
-213.854568481445

> <b_mmod_Minimization_Converged-OPLS-2005>
0

> <r_mmod_RMS_Derivative-OPLS-2005>
0.951142311096191

$$$$
30
                    3D
 Structure written by MMmdl.
158166  0  0  1  0            999 V2000
  -30.6555  -14.5370   20.4777 C   0  0  0  0  0  0
  -30.4325  -12.3189   19.4362 C   0  0  0  0  0  0
  -29.5024  -12.4885   18.2138 C   0  0  0  0  0  0
  -28.0212  -12.3364   18.6191 C   0  0  0  0  0  0
  -27.6540  -13.1931   19.8576 C   0  0  2  0  0  0
  -28.7007  -13.0076   20.9827 C   0  0  0  0  0  0
  -25.2584  -13.8113   20.5667 C   0  0  0  0  0  0
  -24.1827  -13.0411   20.9163 C   0  0  0  0  0  0
  -24.6375  -11.6879   20.8717 C   0  0  0  0  0  0
  -23.9046  -10.4282   21.0402 C   0  0  0  0  0  0
  -24.3609   -9.4203   21.9178 C   0  0  0  0  0  0
  -23.6287   -8.2239   22.0748 C   0  0  0  0  0  0
  -22.4268   -8.0278   21.3541 C   0  0  0  0  0  0
  -21.9899   -9.0250   20.4643 C   0  0  0  0  0  0
  -22.7224  -10.2129   20.3049 C   0  0  0  0  0  0
  -21.6851   -6.0735   22.5281 C   0  0  0  0  0  0
  -21.4009   -6.5640   23.8216 C   0  0  0  0  0  0
  -21.3652   -5.6792   24.9179 C   0  0  0  0  0  0
  -21.6046   -4.3056   24.7227 C   0  0  0  0  0  0
  -21.8822   -3.8147   23.4350 C   0  0  0  0  0  0
  -21.9189   -4.6962   22.3404 C   0  0  0  0  0  0
  -22.7857  -13.5218   21.1850 C   0  0  0  0  0  0
  -22.1659   -4.2151   21.0982 F   0  0  0  0  0  0
  -21.5633   -3.4537   25.7735 F   0  0  0  0  0  0
  -30.0314  -13.3224   20.4364 N   0  0  0  0  0  0
  -26.2990  -12.9251   20.3284 N   0  0  0  0  0  0
  -25.9290  -11.6434   20.5727 N   0  0  0  0  0  0
  -22.0494  -12.8214   22.0409 N   0  0  0  0  0  0
  -25.4308  -15.1834   20.4142 N   0  0  0  0  0  0
  -31.8448  -14.6656   20.1732 O   0  0  0  0  0  0
  -21.6635   -6.8878   21.4245 O   0  0  0  0  0  0
  -22.3544  -14.5532   20.6709 O   0  0  0  0  0  0
  -24.6151  -31.8670   23.2079 C   0  0  0  0  0  0
  -25.9041  -32.4817   23.8382 C   0  0  1  0  0  0
  -27.2403  -27.4141   20.0883 C   0  0  0  0  0  0
  -25.5895  -33.8614   24.2311 N   0  0  0  0  0  0
  -23.4038  -30.4897   21.5496 C   0  0  2  0  0  0
  -24.8496  -28.9517   20.1175 C   0  0  0  0  0  0
  -22.7413  -29.4654   22.4993 C   0  0  0  0  0  0
  -18.0277  -28.1370   22.8491 C   0  0  0  0  0  0
  -24.1489  -36.7314   23.2637 C   0  0  0  0  0  0
  -25.9351  -30.8247   21.3646 C   0  0  0  0  0  0
  -26.0106  -29.4562   20.7135 C   0  0  0  0  0  0
  -27.2029  -28.6935   20.6993 C   0  0  0  0  0  0
  -26.0471  -26.9215   19.5068 C   0  0  0  0  0  0
  -24.8634  -27.6831   19.5168 C   0  0  0  0  0  0
  -23.6125  -29.8200   20.1656 C   0  0  0  0  0  0
  -25.4111  -36.3111   24.0334 C   0  0  1  0  0  0
  -20.5865  -28.3663   23.1326 C   0  0  2  0  0  0
  -20.6772  -26.9397   22.5430 C   0  0  0  0  0  0
  -19.5761  -26.6380   21.5216 C   0  0  0  0  0  0
  -18.1931  -26.7918   22.1614 C   0  0  0  0  0  0
  -19.1521  -28.8830   23.2907 C   0  0  0  0  0  0
  -18.9448  -30.1436   23.8919 C   0  0  0  0  0  0
  -17.6450  -30.6575   24.0565 C   0  0  0  0  0  0
  -25.9038  -34.9476   23.5122 C   0  0  0  0  0  0
  -16.5343  -29.9081   23.6320 C   0  0  0  0  0  0
  -16.7264  -28.6497   23.0342 C   0  0  0  0  0  0
  -26.4462  -31.6599   25.0714 C   0  0  0  0  0  0
  -25.3722  -31.3715   26.1462 C   0  0  0  0  0  0
  -27.0288  -30.3038   24.6098 C   0  0  0  0  0  0
  -27.6034  -32.4318   25.7476 C   0  0  0  0  0  0
  -27.5580  -37.1811   24.8462 C   0  0  0  0  0  0
  -21.4136  -29.3034   22.3732 N   0  0  0  0  0  0
  -26.4294  -37.3795   23.9403 N   0  0  0  0  0  0
  -24.6696  -31.0758   22.0988 N   0  0  0  0  0  0
  -23.4176  -28.8203   23.3040 O   0  0  0  0  0  0
  -28.4346  -26.7070   20.1035 O   0  0  0  0  0  0
  -26.5610  -34.8930   22.4688 O   0  0  0  0  0  0
  -23.5343  -32.1433   23.7471 O   0  0  0  0  0  0
  -27.8518  -17.7120   19.4880 C   0  0  0  0  0  0
  -26.8938  -18.6952   19.2194 C   0  0  0  0  0  0
  -29.3610  -19.4250   20.2938 C   0  0  0  0  0  0
  -29.1066  -18.0528   20.0210 C   0  0  0  0  0  0
  -27.1452  -20.0608   19.4642 C   0  0  0  0  0  0
  -28.4094  -20.4552   20.0212 C   0  0  0  0  0  0
  -30.0906  -16.9528   20.2221 C   0  0  0  0  0  0
  -29.7438  -15.6882   20.5777 C   0  0  0  0  0  0
  -28.7978  -24.2421   20.2508 C   0  0  0  0  0  0
  -25.1416  -21.3525   20.3622 C   0  0  0  0  0  0
  -25.9741  -20.9814   19.1270 C   0  0  0  0  0  0
  -28.5859  -25.4819   19.3497 C   0  0  0  0  0  0
  -28.2175  -22.9060   19.7417 C   0  0  0  0  0  0
  -29.4004  -24.3201   21.3282 O   0  0  0  0  0  0
  -28.8091  -21.7492   20.3650 O   0  0  0  0  0  0
  -31.4756  -12.4248   19.1336 H   0  0  0  0  0  0
  -30.3424  -11.3135   19.8511 H   0  0  0  0  0  0
  -29.7554  -11.7566   17.4456 H   0  0  0  0  0  0
  -29.6608  -13.4700   17.7638 H   0  0  0  0  0  0
  -27.8431  -11.2820   18.8334 H   0  0  0  0  0  0
  -27.3722  -12.5906   17.7801 H   0  0  0  0  0  0
  -27.6732  -14.2250   19.5138 H   0  0  0  0  0  0
  -28.6876  -11.9777   21.3427 H   0  0  0  0  0  0
  -28.4647  -13.6187   21.8545 H   0  0  0  0  0  0
  -25.2762   -9.5685   22.4739 H   0  0  0  0  0  0
  -24.0004   -7.4634   22.7466 H   0  0  0  0  0  0
  -21.0829   -8.8769   19.8949 H   0  0  0  0  0  0
  -22.3688  -10.9667   19.6151 H   0  0  0  0  0  0
  -21.2002   -7.6147   23.9718 H   0  0  0  0  0  0
  -21.1465   -6.0522   25.9083 H   0  0  0  0  0  0
  -22.0606   -2.7607   23.2850 H   0  0  0  0  0  0
  -22.4104  -11.9864   22.4783 H   0  0  0  0  0  0
  -21.1120  -13.1257   22.2631 H   0  0  0  0  0  0
  -24.6704  -15.8402   20.5497 H   0  0  0  0  0  0
  -26.3003  -15.6327   20.1638 H   0  0  0  0  0  0
  -26.7109  -32.5520   23.1143 H   0  0  0  0  0  0
  -25.0024  -33.9769   25.0445 H   0  0  0  0  0  0
  -22.6934  -31.3070   21.4097 H   0  0  0  0  0  0
  -23.3748  -35.9651   23.3314 H   0  0  0  0  0  0
  -24.3580  -36.8913   22.2047 H   0  0  0  0  0  0
  -23.7248  -37.6525   23.6647 H   0  0  0  0  0  0
  -26.0501  -31.5889   20.5944 H   0  0  0  0  0  0
  -26.8217  -30.8782   21.9845 H   0  0  0  0  0  0
  -28.0993  -29.0847   21.1602 H   0  0  0  0  0  0
  -25.9823  -25.9456   19.0529 H   0  0  0  0  0  0
  -23.9656  -27.2812   19.0673 H   0  0  0  0  0  0
  -23.7207  -30.5933   19.4038 H   0  0  0  0  0  0
  -22.7361  -29.2386   19.8723 H   0  0  0  0  0  0
  -25.1292  -36.1975   25.0828 H   0  0  0  0  0  0
  -20.9954  -28.3229   24.1448 H   0  0  0  0  0  0
  -20.5672  -26.2266   23.3616 H   0  0  0  0  0  0
  -21.6651  -26.7446   22.1233 H   0  0  0  0  0  0
  -19.6926  -25.6298   21.1229 H   0  0  0  0  0  0
  -19.6709  -27.3205   20.6760 H   0  0  0  0  0  0
  -17.4212  -26.6677   21.4000 H   0  0  0  0  0  0
  -18.0321  -26.0048   22.8997 H   0  0  0  0  0  0
  -19.7922  -30.7244   24.2303 H   0  0  0  0  0  0
  -17.5006  -31.6257   24.5170 H   0  0  0  0  0  0
  -15.5343  -30.2987   23.7638 H   0  0  0  0  0  0
  -15.8665  -28.0823   22.7046 H   0  0  0  0  0  0
  -24.5893  -30.7066   25.7800 H   0  0  0  0  0  0
  -24.8920  -32.2876   26.4910 H   0  0  0  0  0  0
  -25.8067  -30.8882   27.0223 H   0  0  0  0  0  0
  -26.2835  -29.6806   24.1145 H   0  0  0  0  0  0
  -27.4043  -29.7268   25.4558 H   0  0  0  0  0  0
  -27.8680  -30.4348   23.9262 H   0  0  0  0  0  0
  -27.2649  -33.3604   26.2087 H   0  0  0  0  0  0
  -28.3827  -32.6899   25.0293 H   0  0  0  0  0  0
  -28.0728  -31.8427   26.5364 H   0  0  0  0  0  0
  -28.2612  -38.0095   24.7505 H   0  0  0  0  0  0
  -28.1065  -36.2629   24.6304 H   0  0  0  0  0  0
  -27.2298  -37.1478   25.8865 H   0  0  0  0  0  0
  -20.9294  -29.8748   21.6949 H   0  0  0  0  0  0
  -26.0189  -38.2876   24.1398 H   0  0  0  0  0  0
  -27.6204  -16.6882   19.2352 H   0  0  0  0  0  0
  -25.9433  -18.3791   18.8119 H   0  0  0  0  0  0
  -30.3191  -19.7008   20.7111 H   0  0  0  0  0  0
  -31.1175  -17.1768   19.9656 H   0  0  0  0  0  0
  -28.7241  -15.5417   20.8876 H   0  0  0  0  0  0
  -24.3189  -22.0134   20.0890 H   0  0  0  0  0  0
  -25.7346  -21.8533   21.1274 H   0  0  0  0  0  0
  -24.7107  -20.4612   20.8190 H   0  0  0  0  0  0
  -25.3095  -20.4633   18.4341 H   0  0  0  0  0  0
  -26.2820  -21.8439   18.5424 H   0  0  0  0  0  0
  -27.7969  -25.2939   18.6270 H   0  0  0  0  0  0
  -29.4904  -25.5913   18.7517 H   0  0  0  0  0  0
  -28.3212  -22.8486   18.6575 H   0  0  0  0  0  0
  -27.1667  -22.9781   19.9950 H   0  0  0  0  0  0
  1 25  1  0  0  0
  1 30  2  0  0  0
  1 78  1  0  0  0
  2  3  1  0  0  0
  2 25  1  0  0  0
  2 86  1  0  0  0
  2 87  1  0  0  0
  3  4  1  0  0  0
  3 88  1  0  0  0
  3 89  1  0  0  0
  4  5  1  0  0  0
  4 90  1  0  0  0
  4 91  1  0  0  0
  5  6  1  0  0  0
  5 26  1  0  0  0
  5 92  1  0  0  0
  6 25  1  0  0  0
  6 93  1  0  0  0
  6 94  1  0  0  0
  7  8  2  0  0  0
  7 26  1  0  0  0
  7 29  1  0  0  0
  8  9  1  0  0  0
  8 22  1  0  0  0
  9 10  1  0  0  0
  9 27  2  0  0  0
 10 11  2  0  0  0
 10 15  1  0  0  0
 11 12  1  0  0  0
 11 95  1  0  0  0
 12 13  2  0  0  0
 12 96  1  0  0  0
 13 14  1  0  0  0
 13 31  1  0  0  0
 14 15  2  0  0  0
 14 97  1  0  0  0
 15 98  1  0  0  0
 16 17  2  0  0  0
 16 21  1  0  0  0
 16 31  1  0  0  0
 17 18  1  0  0  0
 17 99  1  0  0  0
 18 19  2  0  0  0
 18100  1  0  0  0
 19 20  1  0  0  0
 19 24  1  0  0  0
 20 21  2  0  0  0
 20101  1  0  0  0
 21 23  1  0  0  0
 22 28  1  0  0  0
 22 32  2  0  0  0
 26 27  1  0  0  0
 28102  1  0  0  0
 28103  1  0  0  0
 29104  1  0  0  0
 29105  1  0  0  0
 33 34  1  0  0  0
 33 66  1  0  0  0
 33 70  2  0  0  0
 34 36  1  0  0  0
 34 59  1  0  0  0
 34106  1  0  0  0
 35 44  2  0  0  0
 35 45  1  0  0  0
 35 68  1  0  0  0
 36 56  1  0  0  0
 36107  1  0  0  0
 37 39  1  0  0  0
 37 47  1  0  0  0
 37 66  1  0  0  0
 37108  1  0  0  0
 38 43  2  0  0  0
 38 46  1  0  0  0
 38 47  1  0  0  0
 39 64  1  0  0  0
 39 67  2  0  0  0
 40 52  1  0  0  0
 40 53  2  0  0  0
 40 58  1  0  0  0
 41109  1  0  0  0
 41110  1  0  0  0
 41111  1  0  0  0
 41 48  1  0  0  0
 42 43  1  0  0  0
 42 66  1  0  0  0
 42112  1  0  0  0
 42113  1  0  0  0
 43 44  1  0  0  0
 44114  1  0  0  0
 45 46  2  0  0  0
 45115  1  0  0  0
 46116  1  0  0  0
 47117  1  0  0  0
 47118  1  0  0  0
 48 56  1  0  0  0
 48 65  1  0  0  0
 48119  1  0  0  0
 49 50  1  0  0  0
 49 53  1  0  0  0
 49 64  1  0  0  0
 49120  1  0  0  0
 50 51  1  0  0  0
 50121  1  0  0  0
 50122  1  0  0  0
 51 52  1  0  0  0
 51123  1  0  0  0
 51124  1  0  0  0
 52125  1  0  0  0
 52126  1  0  0  0
 53 54  1  0  0  0
 54 55  2  0  0  0
 54127  1  0  0  0
 55 57  1  0  0  0
 55128  1  0  0  0
 56 69  2  0  0  0
 57 58  2  0  0  0
 57129  1  0  0  0
 58130  1  0  0  0
 59 60  1  0  0  0
 59 61  1  0  0  0
 59 62  1  0  0  0
 60131  1  0  0  0
 60132  1  0  0  0
 60133  1  0  0  0
 61134  1  0  0  0
 61135  1  0  0  0
 61136  1  0  0  0
 62137  1  0  0  0
 62138  1  0  0  0
 62139  1  0  0  0
 63 65  1  0  0  0
 63140  1  0  0  0
 63141  1  0  0  0
 63142  1  0  0  0
 64143  1  0  0  0
 65144  1  0  0  0
 68 82  1  0  0  0
 71 72  2  0  0  0
 71 74  1  0  0  0
 71145  1  0  0  0
 72 75  1  0  0  0
 72146  1  0  0  0
 73 74  2  0  0  0
 73 76  1  0  0  0
 73147  1  0  0  0
 74 77  1  0  0  0
 75 76  2  0  0  0
 75 81  1  0  0  0
 76 85  1  0  0  0
 77 78  2  0  0  0
 77148  1  0  0  0
 78149  1  0  0  0
 79 82  1  0  0  0
 79 83  1  0  0  0
 79 84  2  0  0  0
 80 81  1  0  0  0
 80150  1  0  0  0
 80151  1  0  0  0
 80152  1  0  0  0
 81153  1  0  0  0
 81154  1  0  0  0
 82155  1  0  0  0
 82156  1  0  0  0
 83 85  1  0  0  0
 83157  1  0  0  0
 83158  1  0  0  0
M  ISO  4   1 100  68 101  78 100  82 101
M  END
> <chiral flag>
0

> <version>
0

> <s_m_source_file>
/data/baiqing/PycharmProjects/Reinvent-master-3.2/result/LINK_invent/BTK/process_docking_weight1_custom_product_contain_oxygen_bond_distance_aromatic_linkinvent_7_9_3/rearranged_h_0127.sdf

> <i_m_source_file_index>
31

> <r_mmod_Potential_Energy-OPLS-2005>
58.4613418579102

> <r_mmod_Stretch_Energy-OPLS-2005>
47.5870246887207

> <r_mmod_Bend_Energy-OPLS-2005>
131.666427612305

> <r_mmod_Torsional_Energy-OPLS-2005>
205.777328491211

> <r_mmod_Improper_Torsional_Energy-OPLS-2005>
9.81423187255859

> <r_mmod_Van_der_Waal_Energy-OPLS-2005>
162.404342651367

> <r_mmod_Electrostatic_Energy-OPLS-2005>
-291.657928466797

> <r_mmod_Solvation_Energy-OPLS-2005>
-229.204544067383

> <b_mmod_Minimization_Converged-OPLS-2005>
0

> <r_mmod_RMS_Derivative-OPLS-2005>
1.20941567420959

$$$$
31
                    3D
 Structure written by MMmdl.
159168  0  0  1  0            999 V2000
  -30.6305  -14.6395   20.5038 C   0  0  0  0  0  0
  -30.4389  -12.3930   19.4527 C   0  0  0  0  0  0
  -29.5084  -12.5026   18.2244 C   0  0  0  0  0  0
  -28.0311  -12.3416   18.6364 C   0  0  0  0  0  0
  -27.6530  -13.2163   19.8612 C   0  0  2  0  0  0
  -28.6986  -13.0770   20.9913 C   0  0  0  0  0  0
  -25.2555  -13.8167   20.5679 C   0  0  0  0  0  0
  -24.1826  -13.0433   20.9195 C   0  0  0  0  0  0
  -24.6395  -11.6906   20.8737 C   0  0  0  0  0  0
  -23.9064  -10.4289   21.0403 C   0  0  0  0  0  0
  -24.3614   -9.4206   21.9179 C   0  0  0  0  0  0
  -23.6292   -8.2241   22.0751 C   0  0  0  0  0  0
  -22.4274   -8.0279   21.3540 C   0  0  0  0  0  0
  -21.9909   -9.0253   20.4646 C   0  0  0  0  0  0
  -22.7236  -10.2133   20.3053 C   0  0  0  0  0  0
  -21.6854   -6.0735   22.5278 C   0  0  0  0  0  0
  -21.4017   -6.5639   23.8211 C   0  0  0  0  0  0
  -21.3660   -5.6790   24.9173 C   0  0  0  0  0  0
  -21.6043   -4.3052   24.7222 C   0  0  0  0  0  0
  -21.8819   -3.8146   23.4343 C   0  0  0  0  0  0
  -21.9192   -4.6963   22.3400 C   0  0  0  0  0  0
  -22.7848  -13.5228   21.1852 C   0  0  0  0  0  0
  -22.1659   -4.2149   21.0980 F   0  0  0  0  0  0
  -21.5627   -3.4536   25.7733 F   0  0  0  0  0  0
  -30.0138  -13.4183   20.4257 N   0  0  0  0  0  0
  -26.2985  -12.9350   20.3306 N   0  0  0  0  0  0
  -25.9321  -11.6508   20.5751 N   0  0  0  0  0  0
  -22.0484  -12.8228   22.0410 N   0  0  0  0  0  0
  -25.4248  -15.1893   20.4082 N   0  0  0  0  0  0
  -31.7922  -14.7974   20.1217 O   0  0  0  0  0  0
  -21.6639   -6.8876   21.4240 O   0  0  0  0  0  0
  -22.3536  -14.5535   20.6697 O   0  0  0  0  0  0
  -24.6258  -31.8612   23.2037 C   0  0  0  0  0  0
  -25.9109  -32.4784   23.8368 C   0  0  1  0  0  0
  -27.2249  -27.3233   20.1171 C   0  0  0  0  0  0
  -25.5923  -33.8583   24.2290 N   0  0  0  0  0  0
  -23.4195  -30.4860   21.5464 C   0  0  2  0  0  0
  -24.8660  -28.9424   20.1139 C   0  0  0  0  0  0
  -22.7476  -29.4641   22.4943 C   0  0  0  0  0  0
  -18.0292  -28.1383   22.8489 C   0  0  0  0  0  0
  -24.1486  -36.7297   23.2640 C   0  0  0  0  0  0
  -25.9618  -30.7913   21.3775 C   0  0  0  0  0  0
  -26.0357  -29.4203   20.7182 C   0  0  0  0  0  0
  -27.2191  -28.6233   20.7096 C   0  0  0  0  0  0
  -26.0339  -26.9053   19.4790 C   0  0  0  0  0  0
  -24.8669  -27.6894   19.4856 C   0  0  0  0  0  0
  -23.6337  -29.8212   20.1623 C   0  0  0  0  0  0
  -25.4110  -36.3088   24.0333 C   0  0  1  0  0  0
  -20.5892  -28.3695   23.1274 C   0  0  2  0  0  0
  -20.6780  -26.9419   22.5403 C   0  0  0  0  0  0
  -19.5753  -26.6385   21.5208 C   0  0  0  0  0  0
  -18.1936  -26.7926   22.1623 C   0  0  0  0  0  0
  -19.1544  -28.8854   23.2877 C   0  0  0  0  0  0
  -18.9467  -30.1456   23.8899 C   0  0  0  0  0  0
  -17.6468  -30.6587   24.0564 C   0  0  0  0  0  0
  -25.9048  -34.9456   23.5113 C   0  0  0  0  0  0
  -16.5359  -29.9087   23.6328 C   0  0  0  0  0  0
  -16.7280  -28.6498   23.0357 C   0  0  0  0  0  0
  -26.4493  -31.6594   25.0742 C   0  0  0  0  0  0
  -25.3724  -31.3739   26.1469 C   0  0  0  0  0  0
  -27.0342  -30.3015   24.6208 C   0  0  0  0  0  0
  -27.6051  -32.4336   25.7504 C   0  0  0  0  0  0
  -27.5581  -37.1802   24.8464 C   0  0  0  0  0  0
  -21.4191  -29.3049   22.3669 N   0  0  0  0  0  0
  -26.4292  -37.3780   23.9412 N   0  0  0  0  0  0
  -24.6877  -31.0626   22.0991 N   0  0  0  0  0  0
  -23.4195  -28.8183   23.3024 O   0  0  0  0  0  0
  -28.3400  -26.4701   20.1516 O   0  0  0  0  0  0
  -26.5620  -34.8922   22.4681 O   0  0  0  0  0  0
  -23.5420  -32.1417   23.7359 O   0  0  0  0  0  0
  -31.0500  -19.3156   21.1985 C   0  0  0  0  0  0
  -28.9875  -17.9270   20.1029 C   0  0  0  0  0  0
  -31.0615  -17.8949   21.3017 C   0  0  0  0  0  0
  -30.0008  -17.1449   20.7243 C   0  0  0  0  0  0
  -29.9977  -20.0085   20.5486 C   0  0  0  0  0  0
  -30.1417  -22.1023   18.9321 C   0  0  0  0  0  0
  -29.7784  -23.6168   18.9674 C   0  0  0  0  0  0
  -28.9559  -22.5256   20.9665 C   0  0  0  0  0  0
  -30.0469  -21.5775   20.3729 C   0  0  1  0  0  0
  -29.2512  -23.9625   20.3799 C   0  0  2  0  0  0
  -32.1864  -17.2283   22.0716 C   0  0  0  0  0  0
  -28.0780  -25.0361   20.4241 C   0  0  0  0  0  0
  -28.9786  -19.2927   20.0087 N   0  0  0  0  0  0
  -29.8256  -15.6940   20.8456 N   0  0  0  0  0  0
  -31.4797  -12.5186   19.1488 H   0  0  0  0  0  0
  -30.3752  -11.3994   19.8990 H   0  0  0  0  0  0
  -29.7736  -11.7469   17.4837 H   0  0  0  0  0  0
  -29.6499  -13.4696   17.7388 H   0  0  0  0  0  0
  -27.8674  -11.2895   18.8722 H   0  0  0  0  0  0
  -27.3772  -12.5673   17.7928 H   0  0  0  0  0  0
  -27.6692  -14.2497   19.5149 H   0  0  0  0  0  0
  -28.7101  -12.0577   21.3802 H   0  0  0  0  0  0
  -28.4449  -13.7142   21.8398 H   0  0  0  0  0  0
  -25.2759   -9.5685   22.4756 H   0  0  0  0  0  0
  -23.9999   -7.4636   22.7472 H   0  0  0  0  0  0
  -21.0836   -8.8776   19.8956 H   0  0  0  0  0  0
  -22.3691  -10.9673   19.6166 H   0  0  0  0  0  0
  -21.2012   -7.6146   23.9715 H   0  0  0  0  0  0
  -21.1482   -6.0519   25.9075 H   0  0  0  0  0  0
  -22.0599   -2.7607   23.2842 H   0  0  0  0  0  0
  -22.4097  -11.9896   22.4816 H   0  0  0  0  0  0
  -21.1102  -13.1262   22.2605 H   0  0  0  0  0  0
  -24.6513  -15.8375   20.5107 H   0  0  0  0  0  0
  -26.2593  -15.6266   20.0411 H   0  0  0  0  0  0
  -26.7176  -32.5452   23.1117 H   0  0  0  0  0  0
  -25.0059  -33.9726   25.0427 H   0  0  0  0  0  0
  -22.7140  -31.3073   21.4039 H   0  0  0  0  0  0
  -23.3750  -35.9627   23.3299 H   0  0  0  0  0  0
  -24.3576  -36.8922   22.2055 H   0  0  0  0  0  0
  -23.7236  -37.6497   23.6665 H   0  0  0  0  0  0
  -26.0995  -31.5556   20.6114 H   0  0  0  0  0  0
  -26.8397  -30.8342   22.0107 H   0  0  0  0  0  0
  -28.1157  -28.9871   21.1913 H   0  0  0  0  0  0
  -25.9755  -25.9638   18.9561 H   0  0  0  0  0  0
  -23.9733  -27.3206   19.0008 H   0  0  0  0  0  0
  -23.7523  -30.5972   19.4054 H   0  0  0  0  0  0
  -22.7542  -29.2490   19.8610 H   0  0  0  0  0  0
  -25.1287  -36.1944   25.0826 H   0  0  0  0  0  0
  -20.9989  -28.3275   24.1391 H   0  0  0  0  0  0
  -20.5681  -26.2312   23.3607 H   0  0  0  0  0  0
  -21.6651  -26.7449   22.1199 H   0  0  0  0  0  0
  -19.6917  -25.6294   21.1242 H   0  0  0  0  0  0
  -19.6683  -27.3191   20.6733 H   0  0  0  0  0  0
  -17.4205  -26.6678   21.4025 H   0  0  0  0  0  0
  -18.0340  -26.0063   22.9015 H   0  0  0  0  0  0
  -19.7945  -30.7267   24.2270 H   0  0  0  0  0  0
  -17.5025  -31.6267   24.5169 H   0  0  0  0  0  0
  -15.5360  -30.2991   23.7644 H   0  0  0  0  0  0
  -15.8681  -28.0813   22.7078 H   0  0  0  0  0  0
  -24.5882  -30.7108   25.7800 H   0  0  0  0  0  0
  -24.8932  -32.2908   26.4909 H   0  0  0  0  0  0
  -25.8038  -30.8903   27.0241 H   0  0  0  0  0  0
  -26.2926  -29.6761   24.1225 H   0  0  0  0  0  0
  -27.4030  -29.7277   25.4721 H   0  0  0  0  0  0
  -27.8801  -30.4302   23.9450 H   0  0  0  0  0  0
  -27.2660  -33.3640   26.2071 H   0  0  0  0  0  0
  -28.3856  -32.6894   25.0328 H   0  0  0  0  0  0
  -28.0727  -31.8477   26.5426 H   0  0  0  0  0  0
  -28.2598  -38.0101   24.7517 H   0  0  0  0  0  0
  -28.1080  -36.2634   24.6281 H   0  0  0  0  0  0
  -27.2304  -37.1442   25.8869 H   0  0  0  0  0  0
  -20.9374  -29.8760   21.6868 H   0  0  0  0  0  0
  -26.0177  -38.2860   24.1404 H   0  0  0  0  0  0
  -31.8644  -19.8835   21.6286 H   0  0  0  0  0  0
  -28.1316  -17.4345   19.6649 H   0  0  0  0  0  0
  -31.1239  -21.9173   18.4967 H   0  0  0  0  0  0
  -29.4139  -21.5783   18.3107 H   0  0  0  0  0  0
  -29.0263  -23.8304   18.2067 H   0  0  0  0  0  0
  -30.6450  -24.2347   18.7279 H   0  0  0  0  0  0
  -28.9630  -22.5177   22.0566 H   0  0  0  0  0  0
  -27.9692  -22.1889   20.6454 H   0  0  0  0  0  0
  -30.9757  -21.8823   20.8579 H   0  0  0  0  0  0
  -30.0850  -24.3680   20.9558 H   0  0  0  0  0  0
  -32.6731  -17.9336   22.7448 H   0  0  0  0  0  0
  -32.9420  -16.8441   21.3866 H   0  0  0  0  0  0
  -31.8122  -16.4037   22.6781 H   0  0  0  0  0  0
  -27.6443  -24.9994   21.4247 H   0  0  0  0  0  0
  -27.3108  -24.6412   19.7633 H   0  0  0  0  0  0
  -28.8759  -15.4016   21.0194 H   0  0  0  0  0  0
  1 25  1  0  0  0
  1 30  2  0  0  0
  1 84  1  0  0  0
  2  3  1  0  0  0
  2 25  1  0  0  0
  2 85  1  0  0  0
  2 86  1  0  0  0
  3  4  1  0  0  0
  3 87  1  0  0  0
  3 88  1  0  0  0
  4  5  1  0  0  0
  4 89  1  0  0  0
  4 90  1  0  0  0
  5  6  1  0  0  0
  5 26  1  0  0  0
  5 91  1  0  0  0
  6 25  1  0  0  0
  6 92  1  0  0  0
  6 93  1  0  0  0
  7  8  2  0  0  0
  7 26  1  0  0  0
  7 29  1  0  0  0
  8  9  1  0  0  0
  8 22  1  0  0  0
  9 10  1  0  0  0
  9 27  2  0  0  0
 10 11  2  0  0  0
 10 15  1  0  0  0
 11 12  1  0  0  0
 11 94  1  0  0  0
 12 13  2  0  0  0
 12 95  1  0  0  0
 13 14  1  0  0  0
 13 31  1  0  0  0
 14 15  2  0  0  0
 14 96  1  0  0  0
 15 97  1  0  0  0
 16 17  2  0  0  0
 16 21  1  0  0  0
 16 31  1  0  0  0
 17 18  1  0  0  0
 17 98  1  0  0  0
 18 19  2  0  0  0
 18 99  1  0  0  0
 19 20  1  0  0  0
 19 24  1  0  0  0
 20 21  2  0  0  0
 20100  1  0  0  0
 21 23  1  0  0  0
 22 28  1  0  0  0
 22 32  2  0  0  0
 26 27  1  0  0  0
 28101  1  0  0  0
 28102  1  0  0  0
 29103  1  0  0  0
 29104  1  0  0  0
 33 34  1  0  0  0
 33 66  1  0  0  0
 33 70  2  0  0  0
 34 36  1  0  0  0
 34 59  1  0  0  0
 34105  1  0  0  0
 35 44  2  0  0  0
 35 45  1  0  0  0
 35 68  1  0  0  0
 36 56  1  0  0  0
 36106  1  0  0  0
 37 39  1  0  0  0
 37 47  1  0  0  0
 37 66  1  0  0  0
 37107  1  0  0  0
 38 43  2  0  0  0
 38 46  1  0  0  0
 38 47  1  0  0  0
 39 64  1  0  0  0
 39 67  2  0  0  0
 40 52  1  0  0  0
 40 53  2  0  0  0
 40 58  1  0  0  0
 41108  1  0  0  0
 41109  1  0  0  0
 41110  1  0  0  0
 41 48  1  0  0  0
 42 43  1  0  0  0
 42 66  1  0  0  0
 42111  1  0  0  0
 42112  1  0  0  0
 43 44  1  0  0  0
 44113  1  0  0  0
 45 46  2  0  0  0
 45114  1  0  0  0
 46115  1  0  0  0
 47116  1  0  0  0
 47117  1  0  0  0
 48 56  1  0  0  0
 48 65  1  0  0  0
 48118  1  0  0  0
 49 50  1  0  0  0
 49 53  1  0  0  0
 49 64  1  0  0  0
 49119  1  0  0  0
 50 51  1  0  0  0
 50120  1  0  0  0
 50121  1  0  0  0
 51 52  1  0  0  0
 51122  1  0  0  0
 51123  1  0  0  0
 52124  1  0  0  0
 52125  1  0  0  0
 53 54  1  0  0  0
 54 55  2  0  0  0
 54126  1  0  0  0
 55 57  1  0  0  0
 55127  1  0  0  0
 56 69  2  0  0  0
 57 58  2  0  0  0
 57128  1  0  0  0
 58129  1  0  0  0
 59 60  1  0  0  0
 59 61  1  0  0  0
 59 62  1  0  0  0
 60130  1  0  0  0
 60131  1  0  0  0
 60132  1  0  0  0
 61133  1  0  0  0
 61134  1  0  0  0
 61135  1  0  0  0
 62136  1  0  0  0
 62137  1  0  0  0
 62138  1  0  0  0
 63 65  1  0  0  0
 63139  1  0  0  0
 63140  1  0  0  0
 63141  1  0  0  0
 64142  1  0  0  0
 65143  1  0  0  0
 68 82  1  0  0  0
 71 73  2  0  0  0
 71 75  1  0  0  0
 71144  1  0  0  0
 72 74  2  0  0  0
 72 83  1  0  0  0
 72145  1  0  0  0
 73 74  1  0  0  0
 73 81  1  0  0  0
 74 84  1  0  0  0
 75 83  2  0  0  0
 75 79  1  0  0  0
 76 77  1  0  0  0
 76 79  1  0  0  0
 76146  1  0  0  0
 76147  1  0  0  0
 77 80  1  0  0  0
 77148  1  0  0  0
 77149  1  0  0  0
 78 79  1  0  0  0
 78 80  1  0  0  0
 78150  1  0  0  0
 78151  1  0  0  0
 79152  1  0  0  0
 80 82  1  0  0  0
 80153  1  0  0  0
 81154  1  0  0  0
 81155  1  0  0  0
 81156  1  0  0  0
 82157  1  0  0  0
 82158  1  0  0  0
 84159  1  0  0  0
M  ISO  4   1 100  68 101  82 101  84 100
M  END
> <chiral flag>
0

> <version>
0

> <s_m_source_file>
/data/baiqing/PycharmProjects/Reinvent-master-3.2/result/LINK_invent/BTK/process_docking_weight1_custom_product_contain_oxygen_bond_distance_aromatic_linkinvent_7_9_3/rearranged_h_0127.sdf

> <i_m_source_file_index>
32

> <r_mmod_Potential_Energy-OPLS-2005>
-34.8450736999512

> <r_mmod_Stretch_Energy-OPLS-2005>
75.1609420776367

> <r_mmod_Bend_Energy-OPLS-2005>
165.071640014648

> <r_mmod_Torsional_Energy-OPLS-2005>
270.011108398438

> <r_mmod_Improper_Torsional_Energy-OPLS-2005>
5.49089813232422

> <r_mmod_Van_der_Waal_Energy-OPLS-2005>
142.552703857422

> <r_mmod_Electrostatic_Energy-OPLS-2005>
-528.948425292969

> <r_mmod_Solvation_Energy-OPLS-2005>
-212.032211303711

> <b_mmod_Minimization_Converged-OPLS-2005>
0

> <r_mmod_RMS_Derivative-OPLS-2005>
0.750896871089935

$$$$
32
                    3D
 Structure written by MMmdl.
156164  0  0  1  0            999 V2000
  -30.7572  -14.4022   20.5427 C   0  0  0  0  0  0
  -30.4017  -12.2480   19.4414 C   0  0  0  0  0  0
  -29.4998  -12.4889   18.2143 C   0  0  0  0  0  0
  -28.0160  -12.3725   18.6144 C   0  0  0  0  0  0
  -27.6639  -13.2113   19.8741 C   0  0  2  0  0  0
  -28.7001  -13.0027   21.0017 C   0  0  0  0  0  0
  -25.2606  -13.8176   20.5673 C   0  0  0  0  0  0
  -24.1855  -13.0451   20.9157 C   0  0  0  0  0  0
  -24.6409  -11.6919   20.8715 C   0  0  0  0  0  0
  -23.9070  -10.4304   21.0385 C   0  0  0  0  0  0
  -24.3620   -9.4221   21.9166 C   0  0  0  0  0  0
  -23.6300   -8.2256   22.0749 C   0  0  0  0  0  0
  -22.4280   -8.0289   21.3545 C   0  0  0  0  0  0
  -21.9913   -9.0253   20.4639 C   0  0  0  0  0  0
  -22.7239  -10.2136   20.3039 C   0  0  0  0  0  0
  -21.6857   -6.0738   22.5280 C   0  0  0  0  0  0
  -21.4011   -6.5639   23.8214 C   0  0  0  0  0  0
  -21.3663   -5.6793   24.9176 C   0  0  0  0  0  0
  -21.6047   -4.3054   24.7223 C   0  0  0  0  0  0
  -21.8817   -3.8147   23.4344 C   0  0  0  0  0  0
  -21.9193   -4.6968   22.3404 C   0  0  0  0  0  0
  -22.7881  -13.5244   21.1831 C   0  0  0  0  0  0
  -22.1660   -4.2150   21.0983 F   0  0  0  0  0  0
  -21.5636   -3.4541   25.7737 F   0  0  0  0  0  0
  -30.0409  -13.2515   20.4538 N   0  0  0  0  0  0
  -26.3042  -12.9355   20.3350 N   0  0  0  0  0  0
  -25.9337  -11.6506   20.5741 N   0  0  0  0  0  0
  -22.0511  -12.8236   22.0384 N   0  0  0  0  0  0
  -25.4356  -15.1890   20.4117 N   0  0  0  0  0  0
  -31.9003  -14.5007   20.0883 O   0  0  0  0  0  0
  -21.6647   -6.8882   21.4242 O   0  0  0  0  0  0
  -22.3562  -14.5553   20.6697 O   0  0  0  0  0  0
  -24.6113  -31.8704   23.2125 C   0  0  0  0  0  0
  -25.9014  -32.4834   23.8415 C   0  0  1  0  0  0
  -27.2355  -27.4615   20.0829 C   0  0  0  0  0  0
  -25.5871  -33.8636   24.2335 N   0  0  0  0  0  0
  -23.3974  -30.4937   21.5541 C   0  0  2  0  0  0
  -24.8411  -28.9636   20.1164 C   0  0  0  0  0  0
  -22.7396  -29.4658   22.5026 C   0  0  0  0  0  0
  -18.0256  -28.1371   22.8507 C   0  0  0  0  0  0
  -24.1481  -36.7324   23.2641 C   0  0  0  0  0  0
  -25.9243  -30.8421   21.3633 C   0  0  0  0  0  0
  -25.9995  -29.4793   20.7092 C   0  0  0  0  0  0
  -27.1961  -28.7336   20.6922 C   0  0  0  0  0  0
  -26.0559  -26.9543   19.4853 C   0  0  0  0  0  0
  -24.8623  -27.6987   19.5054 C   0  0  0  0  0  0
  -23.6020  -29.8265   20.1680 C   0  0  0  0  0  0
  -25.4101  -36.3126   24.0342 C   0  0  1  0  0  0
  -20.5850  -28.3646   23.1345 C   0  0  2  0  0  0
  -20.6746  -26.9388   22.5433 C   0  0  0  0  0  0
  -19.5719  -26.6380   21.5234 C   0  0  0  0  0  0
  -18.1896  -26.7917   22.1641 C   0  0  0  0  0  0
  -19.1508  -28.8824   23.2921 C   0  0  0  0  0  0
  -18.9441  -30.1433   23.8920 C   0  0  0  0  0  0
  -17.6445  -30.6584   24.0563 C   0  0  0  0  0  0
  -25.9027  -34.9487   23.5143 C   0  0  0  0  0  0
  -16.5334  -29.9091   23.6318 C   0  0  0  0  0  0
  -16.7247  -28.6506   23.0346 C   0  0  0  0  0  0
  -26.4441  -31.6611   25.0743 C   0  0  0  0  0  0
  -25.3724  -31.3715   26.1509 C   0  0  0  0  0  0
  -27.0250  -30.3047   24.6112 C   0  0  0  0  0  0
  -27.6017  -32.4337   25.7496 C   0  0  0  0  0  0
  -27.5576  -37.1818   24.8463 C   0  0  0  0  0  0
  -21.4126  -29.3022   22.3767 N   0  0  0  0  0  0
  -26.4287  -37.3808   23.9410 N   0  0  0  0  0  0
  -24.6624  -31.0828   22.1012 N   0  0  0  0  0  0
  -23.4185  -28.8201   23.3054 O   0  0  0  0  0  0
  -28.4308  -26.7779   20.0976 O   0  0  0  0  0  0
  -26.5605  -34.8929   22.4713 O   0  0  0  0  0  0
  -23.5311  -32.1444   23.7532 O   0  0  0  0  0  0
  -29.5062  -18.5693   21.7231 C   0  0  0  0  0  0
  -29.6952  -18.9101   19.3231 C   0  0  0  0  0  0
  -29.3377  -19.9590   21.8981 C   0  0  0  0  0  0
  -29.5152  -20.2915   19.4975 C   0  0  0  0  0  0
  -29.7448  -18.0477   20.4354 C   0  0  0  0  0  0
  -29.3831  -20.8384   20.7928 C   0  0  0  0  0  0
  -30.1442  -16.6603   20.1965 C   0  0  0  0  0  0
  -29.3808  -22.2939   21.0215 C   0  0  0  0  0  0
  -30.0651  -15.5891   21.0133 C   0  0  0  0  0  0
  -29.6300  -23.2318   20.0878 C   0  0  0  0  0  0
  -30.9858  -25.3153   19.8153 C   0  0  0  0  0  0
  -28.4358  -25.4025   19.7286 C   0  0  0  0  0  0
  -29.6687  -24.7250   20.3440 C   0  0  1  0  0  0
  -31.4549  -12.2805   19.1578 H   0  0  0  0  0  0
  -30.2403  -11.2453   19.8400 H   0  0  0  0  0  0
  -29.7362  -11.7694   17.4291 H   0  0  0  0  0  0
  -29.6957  -13.4759   17.7931 H   0  0  0  0  0  0
  -27.8105  -11.3174   18.8001 H   0  0  0  0  0  0
  -27.3772  -12.6619   17.7794 H   0  0  0  0  0  0
  -27.7102  -14.2597   19.5787 H   0  0  0  0  0  0
  -28.6501  -11.9801   21.3791 H   0  0  0  0  0  0
  -28.4776  -13.6404   21.8564 H   0  0  0  0  0  0
  -25.2767   -9.5713   22.4731 H   0  0  0  0  0  0
  -24.0020   -7.4653   22.7472 H   0  0  0  0  0  0
  -21.0842   -8.8757   19.8948 H   0  0  0  0  0  0
  -22.3684  -10.9664   19.6142 H   0  0  0  0  0  0
  -21.2001   -7.6144   23.9721 H   0  0  0  0  0  0
  -21.1487   -6.0519   25.9082 H   0  0  0  0  0  0
  -22.0598   -2.7608   23.2840 H   0  0  0  0  0  0
  -22.4122  -11.9895   22.4766 H   0  0  0  0  0  0
  -21.1131  -13.1262   22.2580 H   0  0  0  0  0  0
  -24.6795  -15.8530   20.5375 H   0  0  0  0  0  0
  -26.3044  -15.6263   20.1307 H   0  0  0  0  0  0
  -26.7096  -32.5544   23.1191 H   0  0  0  0  0  0
  -24.9990  -33.9803   25.0458 H   0  0  0  0  0  0
  -22.6840  -31.3089   21.4176 H   0  0  0  0  0  0
  -23.3737  -35.9665   23.3322 H   0  0  0  0  0  0
  -24.3582  -36.8917   22.2053 H   0  0  0  0  0  0
  -23.7235  -37.6536   23.6642 H   0  0  0  0  0  0
  -26.0393  -31.6098   20.5968 H   0  0  0  0  0  0
  -26.8117  -30.8908   21.9830 H   0  0  0  0  0  0
  -28.0925  -29.1307   21.1489 H   0  0  0  0  0  0
  -26.0350  -25.9941   18.9918 H   0  0  0  0  0  0
  -23.9713  -27.2954   19.0444 H   0  0  0  0  0  0
  -23.7048  -30.6009   19.4067 H   0  0  0  0  0  0
  -22.7271  -29.2425   19.8764 H   0  0  0  0  0  0
  -25.1275  -36.2003   25.0835 H   0  0  0  0  0  0
  -20.9929  -28.3200   24.1471 H   0  0  0  0  0  0
  -20.5665  -26.2252   23.3616 H   0  0  0  0  0  0
  -21.6614  -26.7444   22.1212 H   0  0  0  0  0  0
  -19.6877  -25.6302   21.1234 H   0  0  0  0  0  0
  -19.6647  -27.3215   20.6786 H   0  0  0  0  0  0
  -17.4173  -26.6677   21.4035 H   0  0  0  0  0  0
  -18.0276  -26.0051   22.9025 H   0  0  0  0  0  0
  -19.7919  -30.7241   24.2297 H   0  0  0  0  0  0
  -17.5004  -31.6269   24.5157 H   0  0  0  0  0  0
  -15.5336  -30.3008   23.7621 H   0  0  0  0  0  0
  -15.8643  -28.0837   22.7045 H   0  0  0  0  0  0
  -24.5893  -30.7054   25.7866 H   0  0  0  0  0  0
  -24.8919  -32.2869   26.4976 H   0  0  0  0  0  0
  -25.8100  -30.8888   27.0258 H   0  0  0  0  0  0
  -26.2789  -29.6851   24.1121 H   0  0  0  0  0  0
  -27.3952  -29.7239   25.4570 H   0  0  0  0  0  0
  -27.8657  -30.4342   23.9293 H   0  0  0  0  0  0
  -27.2618  -33.3615   26.2108 H   0  0  0  0  0  0
  -28.3796  -32.6941   25.0309 H   0  0  0  0  0  0
  -28.0719  -31.8456   26.5385 H   0  0  0  0  0  0
  -28.2609  -38.0100   24.7505 H   0  0  0  0  0  0
  -28.1053  -36.2636   24.6291 H   0  0  0  0  0  0
  -27.2301  -37.1470   25.8868 H   0  0  0  0  0  0
  -20.9283  -29.8767   21.7012 H   0  0  0  0  0  0
  -26.0180  -38.2889   24.1413 H   0  0  0  0  0  0
  -29.5333  -17.9251   22.5905 H   0  0  0  0  0  0
  -29.8573  -18.5259   18.3253 H   0  0  0  0  0  0
  -29.2269  -20.3520   22.8988 H   0  0  0  0  0  0
  -29.5300  -20.9167   18.6176 H   0  0  0  0  0  0
  -30.6259  -16.5217   19.2353 H   0  0  0  0  0  0
  -29.1687  -22.6159   22.0321 H   0  0  0  0  0  0
  -29.5737  -15.6211   21.9740 H   0  0  0  0  0  0
  -29.8365  -22.9488   19.0665 H   0  0  0  0  0  0
  -31.8463  -24.8518   20.3003 H   0  0  0  0  0  0
  -31.0452  -26.3882   19.9998 H   0  0  0  0  0  0
  -31.0867  -25.1607   18.7402 H   0  0  0  0  0  0
  -27.5542  -24.8889   20.1153 H   0  0  0  0  0  0
  -28.4328  -25.3071   18.6413 H   0  0  0  0  0  0
  -29.6309  -24.8828   21.4230 H   0  0  0  0  0  0
  1 25  1  0  0  0
  1 30  2  0  0  0
  1 79  1  0  0  0
  2  3  1  0  0  0
  2 25  1  0  0  0
  2 84  1  0  0  0
  2 85  1  0  0  0
  3  4  1  0  0  0
  3 86  1  0  0  0
  3 87  1  0  0  0
  4  5  1  0  0  0
  4 88  1  0  0  0
  4 89  1  0  0  0
  5  6  1  0  0  0
  5 26  1  0  0  0
  5 90  1  0  0  0
  6 25  1  0  0  0
  6 91  1  0  0  0
  6 92  1  0  0  0
  7  8  2  0  0  0
  7 26  1  0  0  0
  7 29  1  0  0  0
  8  9  1  0  0  0
  8 22  1  0  0  0
  9 10  1  0  0  0
  9 27  2  0  0  0
 10 11  2  0  0  0
 10 15  1  0  0  0
 11 12  1  0  0  0
 11 93  1  0  0  0
 12 13  2  0  0  0
 12 94  1  0  0  0
 13 14  1  0  0  0
 13 31  1  0  0  0
 14 15  2  0  0  0
 14 95  1  0  0  0
 15 96  1  0  0  0
 16 17  2  0  0  0
 16 21  1  0  0  0
 16 31  1  0  0  0
 17 18  1  0  0  0
 17 97  1  0  0  0
 18 19  2  0  0  0
 18 98  1  0  0  0
 19 20  1  0  0  0
 19 24  1  0  0  0
 20 21  2  0  0  0
 20 99  1  0  0  0
 21 23  1  0  0  0
 22 28  1  0  0  0
 22 32  2  0  0  0
 26 27  1  0  0  0
 28100  1  0  0  0
 28101  1  0  0  0
 29102  1  0  0  0
 29103  1  0  0  0
 33 34  1  0  0  0
 33 66  1  0  0  0
 33 70  2  0  0  0
 34 36  1  0  0  0
 34 59  1  0  0  0
 34104  1  0  0  0
 35 44  2  0  0  0
 35 45  1  0  0  0
 35 68  1  0  0  0
 36 56  1  0  0  0
 36105  1  0  0  0
 37 39  1  0  0  0
 37 47  1  0  0  0
 37 66  1  0  0  0
 37106  1  0  0  0
 38 43  2  0  0  0
 38 46  1  0  0  0
 38 47  1  0  0  0
 39 64  1  0  0  0
 39 67  2  0  0  0
 40 52  1  0  0  0
 40 53  2  0  0  0
 40 58  1  0  0  0
 41107  1  0  0  0
 41108  1  0  0  0
 41109  1  0  0  0
 41 48  1  0  0  0
 42 43  1  0  0  0
 42 66  1  0  0  0
 42110  1  0  0  0
 42111  1  0  0  0
 43 44  1  0  0  0
 44112  1  0  0  0
 45 46  2  0  0  0
 45113  1  0  0  0
 46114  1  0  0  0
 47115  1  0  0  0
 47116  1  0  0  0
 48 56  1  0  0  0
 48 65  1  0  0  0
 48117  1  0  0  0
 49 50  1  0  0  0
 49 53  1  0  0  0
 49 64  1  0  0  0
 49118  1  0  0  0
 50 51  1  0  0  0
 50119  1  0  0  0
 50120  1  0  0  0
 51 52  1  0  0  0
 51121  1  0  0  0
 51122  1  0  0  0
 52123  1  0  0  0
 52124  1  0  0  0
 53 54  1  0  0  0
 54 55  2  0  0  0
 54125  1  0  0  0
 55 57  1  0  0  0
 55126  1  0  0  0
 56 69  2  0  0  0
 57 58  2  0  0  0
 57127  1  0  0  0
 58128  1  0  0  0
 59 60  1  0  0  0
 59 61  1  0  0  0
 59 62  1  0  0  0
 60129  1  0  0  0
 60130  1  0  0  0
 60131  1  0  0  0
 61132  1  0  0  0
 61133  1  0  0  0
 61134  1  0  0  0
 62135  1  0  0  0
 62136  1  0  0  0
 62137  1  0  0  0
 63 65  1  0  0  0
 63138  1  0  0  0
 63139  1  0  0  0
 63140  1  0  0  0
 64141  1  0  0  0
 65142  1  0  0  0
 68 82  1  0  0  0
 71 73  2  0  0  0
 71 75  1  0  0  0
 71143  1  0  0  0
 72 74  1  0  0  0
 72 75  2  0  0  0
 72144  1  0  0  0
 73 76  1  0  0  0
 73145  1  0  0  0
 74 76  2  0  0  0
 74146  1  0  0  0
 75 77  1  0  0  0
 76 78  1  0  0  0
 77 79  2  0  0  0
 77147  1  0  0  0
 78 80  2  0  0  0
 78148  1  0  0  0
 79149  1  0  0  0
 80 83  1  0  0  0
 80150  1  0  0  0
 81151  1  0  0  0
 81152  1  0  0  0
 81153  1  0  0  0
 81 83  1  0  0  0
 82 83  1  0  0  0
 82154  1  0  0  0
 82155  1  0  0  0
 83156  1  0  0  0
M  ISO  4   1 100  68 101  79 100  82 101
M  END
> <chiral flag>
0

> <version>
0

> <s_m_source_file>
/data/baiqing/PycharmProjects/Reinvent-master-3.2/result/LINK_invent/BTK/process_docking_weight1_custom_product_contain_oxygen_bond_distance_aromatic_linkinvent_7_9_3/rearranged_h_0127.sdf

> <i_m_source_file_index>
33

> <r_mmod_Potential_Energy-OPLS-2005>
-13.7924356460571

> <r_mmod_Stretch_Energy-OPLS-2005>
30.960973739624

> <r_mmod_Bend_Energy-OPLS-2005>
101.193168640137

> <r_mmod_Torsional_Energy-OPLS-2005>
192.387130737305

> <r_mmod_Improper_Torsional_Energy-OPLS-2005>
5.56471872329712

> <r_mmod_Van_der_Waal_Energy-OPLS-2005>
164.138717651367

> <r_mmod_Electrostatic_Energy-OPLS-2005>
-334.476470947266

> <r_mmod_Solvation_Energy-OPLS-2005>
-188.112869262695

> <b_mmod_Minimization_Converged-OPLS-2005>
0

> <r_mmod_RMS_Derivative-OPLS-2005>
1.25504386425018

$$$$
33
                    3D
 Structure written by MMmdl.
156164  0  0  1  0            999 V2000
  -27.3067  -17.4679   20.8955 C   0  0  0  0  0  0
  -29.2771  -14.9597   19.8060 C   0  0  0  0  0  0
  -29.2728  -13.6208   18.7829 C   0  0  0  0  0  0
  -28.2355  -12.5642   19.1379 C   0  0  0  0  0  0
  -27.2850  -13.4362   19.9290 C   0  0  2  0  0  0
  -27.7839  -14.3401   21.1171 C   0  0  0  0  0  0
  -25.0091  -13.7969   20.5308 C   0  0  0  0  0  0
  -24.0209  -12.9904   20.9362 C   0  0  0  0  0  0
  -24.5474  -11.6609   20.8937 C   0  0  0  0  0  0
  -23.8604  -10.3972   21.0539 C   0  0  0  0  0  0
  -24.3372   -9.3999   21.9272 C   0  0  0  0  0  0
  -23.6153   -8.2001   22.0775 C   0  0  0  0  0  0
  -22.4145   -8.0037   21.3540 C   0  0  0  0  0  0
  -21.9680   -8.9930   20.4629 C   0  0  0  0  0  0
  -22.6892  -10.1826   20.3078 C   0  0  0  0  0  0
  -21.6778   -6.0608   22.5303 C   0  0  0  0  0  0
  -21.3959   -6.5566   23.8217 C   0  0  0  0  0  0
  -21.3639   -5.6749   24.9198 C   0  0  0  0  0  0
  -21.6042   -4.3010   24.7269 C   0  0  0  0  0  0
  -21.8830   -3.8071   23.4403 C   0  0  0  0  0  0
  -21.9176   -4.6859   22.3444 C   0  0  0  0  0  0
  -22.6412  -13.4647   21.2168 C   0  0  0  0  0  0
  -22.1658   -4.2056   21.1019 F   0  0  0  0  0  0
  -21.5640   -3.4512   25.7794 F   0  0  0  0  0  0
  -27.9154  -15.7934   20.5735 N   0  0  0  0  0  0
  -26.0584  -12.9456   20.3093 N   0  0  0  0  0  0
  -25.8338  -11.6503   20.5755 N   0  0  0  0  0  0
  -21.9351  -12.7715   22.0940 N   0  0  0  0  0  0
  -25.0853  -15.1752   20.3232 N   0  0  0  0  0  0
  -28.6652  -17.4558   20.7480 O   0  0  0  0  0  0
  -21.6533   -6.8664   21.4235 O   0  0  0  0  0  0
  -22.2160  -14.5012   20.7055 O   0  0  0  0  0  0
  -24.6316  -32.0863   22.9743 C   0  0  0  0  0  0
  -25.9115  -32.5577   23.7652 C   0  0  1  0  0  0
  -26.3002  -27.5470   21.2565 C   0  0  0  0  0  0
  -25.6001  -33.9104   24.2126 N   0  0  0  0  0  0
  -23.4976  -30.7368   21.0660 C   0  0  2  0  0  0
  -25.0521  -29.2609   19.7083 C   0  0  0  0  0  0
  -23.3805  -29.4424   21.8069 C   0  0  0  0  0  0
  -19.4179  -25.7427   23.4366 C   0  0  0  0  0  0
  -24.1462  -36.7609   23.2650 C   0  0  0  0  0  0
  -26.0155  -31.1576   21.0871 C   0  0  0  0  0  0
  -26.0927  -29.7327   20.5382 C   0  0  0  0  0  0
  -26.9221  -28.7985   21.1682 C   0  0  0  0  0  0
  -25.8292  -27.0049   20.0277 C   0  0  0  0  0  0
  -25.0361  -27.9076   19.2960 C   0  0  0  0  0  0
  -23.8178  -30.1658   19.6583 C   0  0  0  0  0  0
  -25.4100  -36.3473   24.0346 C   0  0  1  0  0  0
  -22.0032  -27.0903   22.6854 C   0  0  2  0  0  0
  -22.4433  -26.4511   21.1802 C   0  0  0  0  0  0
  -21.5461  -25.7769   19.9715 C   0  0  0  0  0  0
  -20.3836  -24.7542   20.4487 C   0  0  0  0  0  0
  -20.3413  -26.9477   23.9047 C   0  0  0  0  0  0
  -19.6203  -28.1534   24.7042 C   0  0  0  0  0  0
  -18.4052  -28.9150   24.3808 C   0  0  0  0  0  0
  -25.9069  -34.9972   23.5014 C   0  0  0  0  0  0
  -17.5220  -28.0632   23.7374 C   0  0  0  0  0  0
  -17.9870  -26.6324   23.5511 C   0  0  0  0  0  0
  -26.4192  -31.6953   25.0040 C   0  0  0  0  0  0
  -25.3392  -31.3767   26.0604 C   0  0  0  0  0  0
  -27.0420  -30.3675   24.5291 C   0  0  0  0  0  0
  -27.5629  -32.4531   25.7289 C   0  0  0  0  0  0
  -27.5617  -37.1978   24.8469 C   0  0  0  0  0  0
  -22.6054  -28.3063   21.6714 N   0  0  0  0  0  0
  -26.4299  -37.4127   23.9481 N   0  0  0  0  0  0
  -24.6998  -31.5253   21.6925 N   0  0  0  0  0  0
  -24.2150  -29.5053   22.6176 O   0  0  0  0  0  0
  -25.6715  -27.1179   22.5152 O   0  0  0  0  0  0
  -26.5562  -34.9485   22.4529 O   0  0  0  0  0  0
  -23.5457  -32.2123   23.5650 O   0  0  0  0  0  0
  -21.3596  -24.6584   22.4070 C   0  0  0  0  0  0
  -20.3194  -22.7881   22.0481 C   0  0  0  0  0  0
  -18.4953  -25.4543   21.3651 C   0  0  0  0  0  0
  -22.0366  -22.7652   21.9671 C   0  0  0  0  0  0
  -19.9749  -26.5425   21.5445 C   0  0  0  0  0  0
  -18.8617  -23.7805   21.8950 C   0  0  0  0  0  0
  -23.9295  -20.6458   21.5556 C   0  0  0  0  0  0
  -20.0719  -28.4418   21.9703 C   0  0  0  0  0  0
  -25.6133  -19.3270   21.2913 C   0  0  0  0  0  0
  -20.9683  -29.3069   23.0288 C   0  0  0  0  0  0
  -17.5885  -22.9675   22.0174 C   0  0  0  0  0  0
  -22.5858  -28.7826   24.2207 C   0  0  0  0  0  0
  -24.4202  -27.6133   23.8308 C   0  0  0  0  0  0
  -29.7029  -15.7399   19.1736 H   0  0  0  0  0  0
  -30.0839  -14.8383   20.5349 H   0  0  0  0  0  0
  -30.2673  -13.1774   18.7201 H   0  0  0  0  0  0
  -29.0494  -13.9787   17.7768 H   0  0  0  0  0  0
  -28.6551  -11.7806   19.7694 H   0  0  0  0  0  0
  -27.7733  -12.1079   18.2613 H   0  0  0  0  0  0
  -26.9788  -14.1119   19.1239 H   0  0  0  0  0  0
  -28.6118  -13.9027   21.6850 H   0  0  0  0  0  0
  -27.0515  -14.4236   21.9205 H   0  0  0  0  0  0
  -25.2481   -9.5608   22.4872 H   0  0  0  0  0  0
  -23.9891   -7.4397   22.7487 H   0  0  0  0  0  0
  -21.0618   -8.8372   19.8938 H   0  0  0  0  0  0
  -22.3299  -10.9372   19.6216 H   0  0  0  0  0  0
  -21.1927   -7.6073   23.9687 H   0  0  0  0  0  0
  -21.1456   -6.0493   25.9093 H   0  0  0  0  0  0
  -22.0637   -2.7535   23.2929 H   0  0  0  0  0  0
  -22.3113  -11.9406   22.5256 H   0  0  0  0  0  0
  -21.0040  -13.0756   22.3420 H   0  0  0  0  0  0
  -24.2425  -15.7400   20.3274 H   0  0  0  0  0  0
  -25.8492  -15.5815   19.8004 H   0  0  0  0  0  0
  -26.7713  -32.6596   23.1129 H   0  0  0  0  0  0
  -25.0207  -34.0063   25.0331 H   0  0  0  0  0  0
  -22.5709  -31.3102   21.0935 H   0  0  0  0  0  0
  -23.3765  -35.9900   23.3310 H   0  0  0  0  0  0
  -24.3549  -36.9246   22.2066 H   0  0  0  0  0  0
  -23.7156  -37.6787   23.6665 H   0  0  0  0  0  0
  -26.1971  -31.8454   20.2609 H   0  0  0  0  0  0
  -26.8784  -31.2584   21.7327 H   0  0  0  0  0  0
  -27.4859  -29.1548   22.0166 H   0  0  0  0  0  0
  -25.5388  -25.9663   19.9555 H   0  0  0  0  0  0
  -24.2775  -27.5335   18.6232 H   0  0  0  0  0  0
  -24.0174  -30.9873   18.9697 H   0  0  0  0  0  0
  -22.9652  -29.6288   19.2370 H   0  0  0  0  0  0
  -25.1285  -36.2270   25.0833 H   0  0  0  0  0  0
  -22.6445  -26.5443   23.3074 H   0  0  0  0  0  0
  -23.1635  -25.6797   21.4704 H   0  0  0  0  0  0
  -23.3040  -26.7489   20.5685 H   0  0  0  0  0  0
  -22.2129  -25.2479   19.2888 H   0  0  0  0  0  0
  -21.1290  -26.5713   19.3474 H   0  0  0  0  0  0
  -19.6915  -24.7889   19.5869 H   0  0  0  0  0  0
  -20.8282  -23.8103   20.1337 H   0  0  0  0  0  0
  -20.2498  -28.7705   25.3244 H   0  0  0  0  0  0
  -18.1465  -29.8871   24.7768 H   0  0  0  0  0  0
  -16.4911  -28.3481   23.5761 H   0  0  0  0  0  0
  -17.1227  -26.0420   23.2789 H   0  0  0  0  0  0
  -24.5717  -30.7194   25.6590 H   0  0  0  0  0  0
  -24.8465  -32.2799   26.4206 H   0  0  0  0  0  0
  -25.7681  -30.8727   26.9278 H   0  0  0  0  0  0
  -26.3424  -29.7898   23.9354 H   0  0  0  0  0  0
  -27.3615  -29.7443   25.3656 H   0  0  0  0  0  0
  -27.9200  -30.5444   23.9066 H   0  0  0  0  0  0
  -27.2150  -33.3778   26.1908 H   0  0  0  0  0  0
  -28.3641  -32.7215   25.0388 H   0  0  0  0  0  0
  -28.0054  -31.8544   26.5257 H   0  0  0  0  0  0
  -28.2654  -38.0271   24.7629 H   0  0  0  0  0  0
  -28.1094  -36.2838   24.6130 H   0  0  0  0  0  0
  -27.2377  -37.1466   25.8878 H   0  0  0  0  0  0
  -22.0383  -28.3515   20.8395 H   0  0  0  0  0  0
  -26.0237  -38.3206   24.1587 H   0  0  0  0  0  0
  -22.0937  -24.8038   23.1706 H   0  0  0  0  0  0
  -20.0027  -21.7574   22.1220 H   0  0  0  0  0  0
  -17.4977  -25.8234   21.1676 H   0  0  0  0  0  0
  -23.1871  -19.8847   21.3627 H   0  0  0  0  0  0
  -19.3399  -29.0187   21.4230 H   0  0  0  0  0  0
  -26.3650  -20.0861   21.4512 H   0  0  0  0  0  0
  -20.7223  -30.3563   23.1019 H   0  0  0  0  0  0
  -17.7374  -22.0729   22.6208 H   0  0  0  0  0  0
  -17.2434  -22.6634   21.0281 H   0  0  0  0  0  0
  -16.8008  -23.5608   22.4821 H   0  0  0  0  0  0
  -22.2285  -28.3496   25.1516 H   0  0  0  0  0  0
  -22.9077  -29.7516   24.6000 H   0  0  0  0  0  0
  -24.3099  -26.6772   24.3819 H   0  0  0  0  0  0
  -25.1010  -28.0936   24.5310 H   0  0  0  0  0  0
  1 25  1  0  0  0
  1 30  2  0  0  0
  1 79  1  0  0  0
  2  3  1  0  0  0
  2 25  1  0  0  0
  2 84  1  0  0  0
  2 85  1  0  0  0
  3  4  1  0  0  0
  3 86  1  0  0  0
  3 87  1  0  0  0
  4  5  1  0  0  0
  4 88  1  0  0  0
  4 89  1  0  0  0
  5  6  1  0  0  0
  5 26  1  0  0  0
  5 90  1  0  0  0
  6 25  1  0  0  0
  6 91  1  0  0  0
  6 92  1  0  0  0
  7  8  2  0  0  0
  7 26  1  0  0  0
  7 29  1  0  0  0
  8  9  1  0  0  0
  8 22  1  0  0  0
  9 10  1  0  0  0
  9 27  2  0  0  0
 10 11  2  0  0  0
 10 15  1  0  0  0
 11 12  1  0  0  0
 11 93  1  0  0  0
 12 13  2  0  0  0
 12 94  1  0  0  0
 13 14  1  0  0  0
 13 31  1  0  0  0
 14 15  2  0  0  0
 14 95  1  0  0  0
 15 96  1  0  0  0
 16 17  2  0  0  0
 16 21  1  0  0  0
 16 31  1  0  0  0
 17 18  1  0  0  0
 17 97  1  0  0  0
 18 19  2  0  0  0
 18 98  1  0  0  0
 19 20  1  0  0  0
 19 24  1  0  0  0
 20 21  2  0  0  0
 20 99  1  0  0  0
 21 23  1  0  0  0
 22 28  1  0  0  0
 22 32  2  0  0  0
 26 27  1  0  0  0
 28100  1  0  0  0
 28101  1  0  0  0
 29102  1  0  0  0
 29103  1  0  0  0
 33 34  1  0  0  0
 33 66  1  0  0  0
 33 70  2  0  0  0
 34 36  1  0  0  0
 34 59  1  0  0  0
 34104  1  0  0  0
 35 44  2  0  0  0
 35 45  1  0  0  0
 35 68  1  0  0  0
 36 56  1  0  0  0
 36105  1  0  0  0
 37 39  1  0  0  0
 37 47  1  0  0  0
 37 66  1  0  0  0
 37106  1  0  0  0
 38 43  2  0  0  0
 38 46  1  0  0  0
 38 47  1  0  0  0
 39 64  1  0  0  0
 39 67  2  0  0  0
 40 52  1  0  0  0
 40 53  2  0  0  0
 40 58  1  0  0  0
 41107  1  0  0  0
 41108  1  0  0  0
 41109  1  0  0  0
 41 48  1  0  0  0
 42 43  1  0  0  0
 42 66  1  0  0  0
 42110  1  0  0  0
 42111  1  0  0  0
 43 44  1  0  0  0
 44112  1  0  0  0
 45 46  2  0  0  0
 45113  1  0  0  0
 46114  1  0  0  0
 47115  1  0  0  0
 47116  1  0  0  0
 48 56  1  0  0  0
 48 65  1  0  0  0
 48117  1  0  0  0
 49 50  1  0  0  0
 49 53  1  0  0  0
 49 64  1  0  0  0
 49118  1  0  0  0
 50 51  1  0  0  0
 50119  1  0  0  0
 50120  1  0  0  0
 51 52  1  0  0  0
 51121  1  0  0  0
 51122  1  0  0  0
 52123  1  0  0  0
 52124  1  0  0  0
 53 54  1  0  0  0
 54 55  2  0  0  0
 54125  1  0  0  0
 55 57  1  0  0  0
 55126  1  0  0  0
 56 69  2  0  0  0
 57 58  2  0  0  0
 57127  1  0  0  0
 58128  1  0  0  0
 59 60  1  0  0  0
 59 61  1  0  0  0
 59 62  1  0  0  0
 60129  1  0  0  0
 60130  1  0  0  0
 60131  1  0  0  0
 61132  1  0  0  0
 61133  1  0  0  0
 61134  1  0  0  0
 62135  1  0  0  0
 62136  1  0  0  0
 62137  1  0  0  0
 63 65  1  0  0  0
 63138  1  0  0  0
 63139  1  0  0  0
 63140  1  0  0  0
 64141  1  0  0  0
 65142  1  0  0  0
 68 83  1  0  0  0
 71 74  2  0  0  0
 71 75  1  0  0  0
 71143  1  0  0  0
 72 74  1  0  0  0
 72 76  2  0  0  0
 72144  1  0  0  0
 73 75  2  0  0  0
 73 76  1  0  0  0
 73145  1  0  0  0
 74 77  1  0  0  0
 75 78  1  0  0  0
 76 81  1  0  0  0
 77 79  2  0  0  0
 77146  1  0  0  0
 78 80  2  0  0  0
 78147  1  0  0  0
 79148  1  0  0  0
 80 82  1  0  0  0
 80149  1  0  0  0
 81150  1  0  0  0
 81151  1  0  0  0
 81152  1  0  0  0
 82 83  1  0  0  0
 82153  1  0  0  0
 82154  1  0  0  0
 83155  1  0  0  0
 83156  1  0  0  0
M  ISO  4   1 100  68 101  79 100  83 101
M  END
> <chiral flag>
0

> <version>
0

> <s_m_source_file>
/data/baiqing/PycharmProjects/Reinvent-master-3.2/result/LINK_invent/BTK/process_docking_weight1_custom_product_contain_oxygen_bond_distance_aromatic_linkinvent_7_9_3/rearranged_h_0127.sdf

> <i_m_source_file_index>
34

> <r_mmod_Potential_Energy-OPLS-2005>
40960.8984375

> <r_mmod_Stretch_Energy-OPLS-2005>
18315.40234375

> <r_mmod_Bend_Energy-OPLS-2005>
2864.71630859375

> <r_mmod_Torsional_Energy-OPLS-2005>
799.324645996094

> <r_mmod_Improper_Torsional_Energy-OPLS-2005>
88.1467056274414

> <r_mmod_Van_der_Waal_Energy-OPLS-2005>
4392.71337890625

> <r_mmod_Electrostatic_Energy-OPLS-2005>
-310.3935546875

> <r_mmod_Solvation_Energy-OPLS-2005>
-174.134902954102

> <b_mmod_Minimization_Converged-OPLS-2005>
0

> <r_mmod_RMS_Derivative-OPLS-2005>
3.52138090133667

$$$$
34
                    3D
 Structure written by MMmdl.
155163  0  0  1  0            999 V2000
  -30.6646  -14.5670   20.5861 C   0  0  0  0  0  0
  -30.4377  -12.3720   19.4311 C   0  0  0  0  0  0
  -29.5028  -12.5269   18.2106 C   0  0  0  0  0  0
  -28.0238  -12.3667   18.6171 C   0  0  0  0  0  0
  -27.6624  -13.2048   19.8719 C   0  0  2  0  0  0
  -28.7031  -12.9880   20.9887 C   0  0  0  0  0  0
  -25.2615  -13.8137   20.5658 C   0  0  0  0  0  0
  -24.1857  -13.0433   20.9136 C   0  0  0  0  0  0
  -24.6404  -11.6897   20.8707 C   0  0  0  0  0  0
  -23.9063  -10.4296   21.0394 C   0  0  0  0  0  0
  -24.3621   -9.4213   21.9173 C   0  0  0  0  0  0
  -23.6289   -8.2254   22.0761 C   0  0  0  0  0  0
  -22.4268   -8.0294   21.3549 C   0  0  0  0  0  0
  -21.9901   -9.0265   20.4647 C   0  0  0  0  0  0
  -22.7231  -10.2141   20.3048 C   0  0  0  0  0  0
  -21.6862   -6.0735   22.5279 C   0  0  0  0  0  0
  -21.4014   -6.5638   23.8210 C   0  0  0  0  0  0
  -21.3662   -5.6791   24.9176 C   0  0  0  0  0  0
  -21.6044   -4.3054   24.7225 C   0  0  0  0  0  0
  -21.8821   -3.8143   23.4349 C   0  0  0  0  0  0
  -21.9195   -4.6961   22.3402 C   0  0  0  0  0  0
  -22.7887  -13.5263   21.1807 C   0  0  0  0  0  0
  -22.1666   -4.2144   21.0981 F   0  0  0  0  0  0
  -21.5629   -3.4542   25.7741 F   0  0  0  0  0  0
  -30.0253  -13.3596   20.4493 N   0  0  0  0  0  0
  -26.3042  -12.9297   20.3332 N   0  0  0  0  0  0
  -25.9333  -11.6462   20.5728 N   0  0  0  0  0  0
  -22.0528  -12.8274   22.0369 N   0  0  0  0  0  0
  -25.4358  -15.1860   20.4106 N   0  0  0  0  0  0
  -31.7816  -14.7449   20.0900 O   0  0  0  0  0  0
  -21.6643   -6.8886   21.4243 O   0  0  0  0  0  0
  -22.3589  -14.5576   20.6662 O   0  0  0  0  0  0
  -24.6215  -31.8617   23.2069 C   0  0  0  0  0  0
  -25.9079  -32.4786   23.8383 C   0  0  1  0  0  0
  -27.2325  -27.3626   20.1149 C   0  0  0  0  0  0
  -25.5924  -33.8594   24.2309 N   0  0  0  0  0  0
  -23.4144  -30.4855   21.5450 C   0  0  2  0  0  0
  -24.8630  -28.9452   20.1155 C   0  0  0  0  0  0
  -22.7440  -29.4625   22.4929 C   0  0  0  0  0  0
  -18.0279  -28.1397   22.8461 C   0  0  0  0  0  0
  -24.1491  -36.7304   23.2637 C   0  0  0  0  0  0
  -25.9511  -30.8074   21.3720 C   0  0  0  0  0  0
  -26.0285  -29.4366   20.7182 C   0  0  0  0  0  0
  -27.2166  -28.6550   20.7101 C   0  0  0  0  0  0
  -26.0463  -26.9135   19.4902 C   0  0  0  0  0  0
  -24.8718  -27.6877   19.4932 C   0  0  0  0  0  0
  -23.6299  -29.8212   20.1597 C   0  0  0  0  0  0
  -25.4111  -36.3090   24.0334 C   0  0  1  0  0  0
  -20.5873  -28.3690   23.1282 C   0  0  2  0  0  0
  -20.6777  -26.9418   22.5406 C   0  0  0  0  0  0
  -19.5760  -26.6390   21.5200 C   0  0  0  0  0  0
  -18.1933  -26.7938   22.1605 C   0  0  0  0  0  0
  -19.1530  -28.8857   23.2867 C   0  0  0  0  0  0
  -18.9459  -30.1462   23.8877 C   0  0  0  0  0  0
  -17.6462  -30.6593   24.0563 C   0  0  0  0  0  0
  -25.9042  -34.9456   23.5114 C   0  0  0  0  0  0
  -16.5350  -29.9093   23.6334 C   0  0  0  0  0  0
  -16.7265  -28.6523   23.0324 C   0  0  0  0  0  0
  -26.4502  -31.6582   25.0722 C   0  0  0  0  0  0
  -25.3784  -31.3693   26.1480 C   0  0  0  0  0  0
  -27.0342  -30.3012   24.6144 C   0  0  0  0  0  0
  -27.6060  -32.4314   25.7494 C   0  0  0  0  0  0
  -27.5575  -37.1811   24.8463 C   0  0  0  0  0  0
  -21.4154  -29.3050   22.3676 N   0  0  0  0  0  0
  -26.4289  -37.3775   23.9406 N   0  0  0  0  0  0
  -24.6803  -31.0673   22.0987 N   0  0  0  0  0  0
  -23.4175  -28.8159   23.2996 O   0  0  0  0  0  0
  -28.3716  -26.5604   20.1306 O   0  0  0  0  0  0
  -26.5583  -34.8908   22.4661 O   0  0  0  0  0  0
  -23.5385  -32.1395   23.7418 O   0  0  0  0  0  0
  -29.9720  -19.4026   20.4108 C   0  0  0  0  0  0
  -31.1848  -20.0263   18.4081 C   0  0  0  0  0  0
  -30.9935  -17.6733   19.0266 C   0  0  0  0  0  0
  -30.4455  -20.4342   19.5382 C   0  0  0  0  0  0
  -30.2635  -18.0092   20.1859 C   0  0  0  0  0  0
  -31.4566  -18.6702   18.1480 C   0  0  0  0  0  0
  -30.2588  -21.9271   19.6422 C   0  0  0  0  0  0
  -29.8093  -16.9643   21.1709 C   0  0  0  0  0  0
  -29.3148  -22.7300   20.2103 C   0  0  0  0  0  0
  -29.9385  -15.6070   21.3509 C   0  0  0  0  0  0
  -29.4130  -24.2381   20.1134 C   0  0  0  0  0  0
  -32.2576  -18.2787   16.9221 C   0  0  0  0  0  0
  -28.1674  -25.1308   20.3985 C   0  0  0  0  0  0
  -30.4692  -24.8003   19.8001 O   0  0  0  0  0  0
  -31.4774  -12.4947   19.1236 H   0  0  0  0  0  0
  -30.3702  -11.3607   19.8353 H   0  0  0  0  0  0
  -29.7598  -11.7964   17.4420 H   0  0  0  0  0  0
  -29.6520  -13.5094   17.7583 H   0  0  0  0  0  0
  -27.8465  -11.3082   18.8138 H   0  0  0  0  0  0
  -27.3753  -12.6343   17.7823 H   0  0  0  0  0  0
  -27.7087  -14.2548   19.5835 H   0  0  0  0  0  0
  -28.7130  -11.9404   21.2928 H   0  0  0  0  0  0
  -28.4160  -13.5251   21.8890 H   0  0  0  0  0  0
  -25.2786   -9.5689   22.4735 H   0  0  0  0  0  0
  -24.0001   -7.4653   22.7495 H   0  0  0  0  0  0
  -21.0828   -8.8774   19.8965 H   0  0  0  0  0  0
  -22.3687  -10.9673   19.6149 H   0  0  0  0  0  0
  -21.2007   -7.6149   23.9709 H   0  0  0  0  0  0
  -21.1480   -6.0526   25.9074 H   0  0  0  0  0  0
  -22.0598   -2.7608   23.2850 H   0  0  0  0  0  0
  -22.4159  -11.9947   22.4759 H   0  0  0  0  0  0
  -21.1146  -13.1300   22.2581 H   0  0  0  0  0  0
  -24.6744  -15.8453   20.5313 H   0  0  0  0  0  0
  -26.3028  -15.6257   20.1259 H   0  0  0  0  0  0
  -26.7143  -32.5486   23.1139 H   0  0  0  0  0  0
  -25.0130  -33.9766   25.0491 H   0  0  0  0  0  0
  -22.7074  -31.3051   21.4019 H   0  0  0  0  0  0
  -23.3740  -35.9651   23.3305 H   0  0  0  0  0  0
  -24.3584  -36.8910   22.2050 H   0  0  0  0  0  0
  -23.7273  -37.6519   23.6653 H   0  0  0  0  0  0
  -26.0772  -31.5715   20.6040 H   0  0  0  0  0  0
  -26.8342  -30.8587   21.9969 H   0  0  0  0  0  0
  -28.1146  -29.0238   21.1864 H   0  0  0  0  0  0
  -26.0084  -25.9637   18.9799 H   0  0  0  0  0  0
  -23.9817  -27.3101   19.0082 H   0  0  0  0  0  0
  -23.7508  -30.5988   19.4043 H   0  0  0  0  0  0
  -22.7530  -29.2482   19.8516 H   0  0  0  0  0  0
  -25.1299  -36.1939   25.0829 H   0  0  0  0  0  0
  -20.9973  -28.3280   24.1397 H   0  0  0  0  0  0
  -20.5681  -26.2299   23.3601 H   0  0  0  0  0  0
  -21.6651  -26.7455   22.1201 H   0  0  0  0  0  0
  -19.6931  -25.6297   21.1236 H   0  0  0  0  0  0
  -19.6721  -27.3193   20.6724 H   0  0  0  0  0  0
  -17.4206  -26.6651   21.4011 H   0  0  0  0  0  0
  -18.0345  -26.0099   22.9021 H   0  0  0  0  0  0
  -19.7939  -30.7280   24.2231 H   0  0  0  0  0  0
  -17.5022  -31.6269   24.5179 H   0  0  0  0  0  0
  -15.5354  -30.2991   23.7693 H   0  0  0  0  0  0
  -15.8655  -28.0865   22.7019 H   0  0  0  0  0  0
  -24.5955  -30.7032   25.7835 H   0  0  0  0  0  0
  -24.8991  -32.2848   26.4954 H   0  0  0  0  0  0
  -25.8172  -30.8857   27.0218 H   0  0  0  0  0  0
  -26.2894  -29.6747   24.1217 H   0  0  0  0  0  0
  -27.4100  -29.7281   25.4631 H   0  0  0  0  0  0
  -27.8741  -30.4294   23.9312 H   0  0  0  0  0  0
  -27.2657  -33.3596   26.2096 H   0  0  0  0  0  0
  -28.3865  -32.6902   25.0328 H   0  0  0  0  0  0
  -28.0732  -31.8427   26.5396 H   0  0  0  0  0  0
  -28.2595  -38.0102   24.7485 H   0  0  0  0  0  0
  -28.1071  -36.2633   24.6320 H   0  0  0  0  0  0
  -27.2290  -37.1494   25.8864 H   0  0  0  0  0  0
  -20.9316  -29.8790   21.6911 H   0  0  0  0  0  0
  -26.0167  -38.2844   24.1412 H   0  0  0  0  0  0
  -29.4016  -19.6874   21.2831 H   0  0  0  0  0  0
  -31.5514  -20.7737   17.7171 H   0  0  0  0  0  0
  -31.2075  -16.6455   18.7865 H   0  0  0  0  0  0
  -31.0641  -22.4609   19.1537 H   0  0  0  0  0  0
  -29.2079  -17.4090   21.9506 H   0  0  0  0  0  0
  -28.4660  -22.3090   20.7294 H   0  0  0  0  0  0
  -29.4373  -15.2601   22.2401 H   0  0  0  0  0  0
  -32.7020  -19.1497   16.4389 H   0  0  0  0  0  0
  -31.6224  -17.7728   16.1946 H   0  0  0  0  0  0
  -33.0669  -17.6018   17.1973 H   0  0  0  0  0  0
  -27.8993  -25.0133   21.4489 H   0  0  0  0  0  0
  -27.3569  -24.7125   19.8064 H   0  0  0  0  0  0
  1 25  1  0  0  0
  1 30  2  0  0  0
  1 80  1  0  0  0
  2  3  1  0  0  0
  2 25  1  0  0  0
  2 85  1  0  0  0
  2 86  1  0  0  0
  3  4  1  0  0  0
  3 87  1  0  0  0
  3 88  1  0  0  0
  4  5  1  0  0  0
  4 89  1  0  0  0
  4 90  1  0  0  0
  5  6  1  0  0  0
  5 26  1  0  0  0
  5 91  1  0  0  0
  6 25  1  0  0  0
  6 92  1  0  0  0
  6 93  1  0  0  0
  7  8  2  0  0  0
  7 26  1  0  0  0
  7 29  1  0  0  0
  8  9  1  0  0  0
  8 22  1  0  0  0
  9 10  1  0  0  0
  9 27  2  0  0  0
 10 11  2  0  0  0
 10 15  1  0  0  0
 11 12  1  0  0  0
 11 94  1  0  0  0
 12 13  2  0  0  0
 12 95  1  0  0  0
 13 14  1  0  0  0
 13 31  1  0  0  0
 14 15  2  0  0  0
 14 96  1  0  0  0
 15 97  1  0  0  0
 16 17  2  0  0  0
 16 21  1  0  0  0
 16 31  1  0  0  0
 17 18  1  0  0  0
 17 98  1  0  0  0
 18 19  2  0  0  0
 18 99  1  0  0  0
 19 20  1  0  0  0
 19 24  1  0  0  0
 20 21  2  0  0  0
 20100  1  0  0  0
 21 23  1  0  0  0
 22 28  1  0  0  0
 22 32  2  0  0  0
 26 27  1  0  0  0
 28101  1  0  0  0
 28102  1  0  0  0
 29103  1  0  0  0
 29104  1  0  0  0
 33 34  1  0  0  0
 33 66  1  0  0  0
 33 70  2  0  0  0
 34 36  1  0  0  0
 34 59  1  0  0  0
 34105  1  0  0  0
 35 44  2  0  0  0
 35 45  1  0  0  0
 35 68  1  0  0  0
 36 56  1  0  0  0
 36106  1  0  0  0
 37 39  1  0  0  0
 37 47  1  0  0  0
 37 66  1  0  0  0
 37107  1  0  0  0
 38 43  2  0  0  0
 38 46  1  0  0  0
 38 47  1  0  0  0
 39 64  1  0  0  0
 39 67  2  0  0  0
 40 52  1  0  0  0
 40 53  2  0  0  0
 40 58  1  0  0  0
 41108  1  0  0  0
 41109  1  0  0  0
 41110  1  0  0  0
 41 48  1  0  0  0
 42 43  1  0  0  0
 42 66  1  0  0  0
 42111  1  0  0  0
 42112  1  0  0  0
 43 44  1  0  0  0
 44113  1  0  0  0
 45 46  2  0  0  0
 45114  1  0  0  0
 46115  1  0  0  0
 47116  1  0  0  0
 47117  1  0  0  0
 48 56  1  0  0  0
 48 65  1  0  0  0
 48118  1  0  0  0
 49 50  1  0  0  0
 49 53  1  0  0  0
 49 64  1  0  0  0
 49119  1  0  0  0
 50 51  1  0  0  0
 50120  1  0  0  0
 50121  1  0  0  0
 51 52  1  0  0  0
 51122  1  0  0  0
 51123  1  0  0  0
 52124  1  0  0  0
 52125  1  0  0  0
 53 54  1  0  0  0
 54 55  2  0  0  0
 54126  1  0  0  0
 55 57  1  0  0  0
 55127  1  0  0  0
 56 69  2  0  0  0
 57 58  2  0  0  0
 57128  1  0  0  0
 58129  1  0  0  0
 59 60  1  0  0  0
 59 61  1  0  0  0
 59 62  1  0  0  0
 60130  1  0  0  0
 60131  1  0  0  0
 60132  1  0  0  0
 61133  1  0  0  0
 61134  1  0  0  0
 61135  1  0  0  0
 62136  1  0  0  0
 62137  1  0  0  0
 62138  1  0  0  0
 63 65  1  0  0  0
 63139  1  0  0  0
 63140  1  0  0  0
 63141  1  0  0  0
 64142  1  0  0  0
 65143  1  0  0  0
 68 83  1  0  0  0
 71 74  2  0  0  0
 71 75  1  0  0  0
 71144  1  0  0  0
 72 74  1  0  0  0
 72 76  2  0  0  0
 72145  1  0  0  0
 73 75  2  0  0  0
 73 76  1  0  0  0
 73146  1  0  0  0
 74 77  1  0  0  0
 75 78  1  0  0  0
 76 82  1  0  0  0
 77 79  2  0  0  0
 77147  1  0  0  0
 78 80  2  0  0  0
 78148  1  0  0  0
 79 81  1  0  0  0
 79149  1  0  0  0
 80150  1  0  0  0
 81 83  1  0  0  0
 81 84  2  0  0  0
 82151  1  0  0  0
 82152  1  0  0  0
 82153  1  0  0  0
 83154  1  0  0  0
 83155  1  0  0  0
M  ISO  4   1 100  68 101  80 100  83 101
M  END
> <chiral flag>
0

> <version>
0

> <s_m_source_file>
/data/baiqing/PycharmProjects/Reinvent-master-3.2/result/LINK_invent/BTK/process_docking_weight1_custom_product_contain_oxygen_bond_distance_aromatic_linkinvent_7_9_3/rearranged_h_0127.sdf

> <i_m_source_file_index>
35

> <r_mmod_Potential_Energy-OPLS-2005>
69.2755584716797

> <r_mmod_Stretch_Energy-OPLS-2005>
63.7347793579102

> <r_mmod_Bend_Energy-OPLS-2005>
157.100204467773

> <r_mmod_Torsional_Energy-OPLS-2005>
195.385620117188

> <r_mmod_Improper_Torsional_Energy-OPLS-2005>
1.95292520523071

> <r_mmod_Van_der_Waal_Energy-OPLS-2005>
154.194686889648

> <r_mmod_Electrostatic_Energy-OPLS-2005>
-311.874450683594

> <r_mmod_Solvation_Energy-OPLS-2005>
-218.05094909668

> <b_mmod_Minimization_Converged-OPLS-2005>
0

> <r_mmod_RMS_Derivative-OPLS-2005>
2.09699583053589

$$$$
35
                    3D
 Structure written by MMmdl.
160168  0  0  1  0            999 V2000
  -30.5942  -14.6335   20.5048 C   0  0  0  0  0  0
  -30.4481  -12.3940   19.4266 C   0  0  0  0  0  0
  -29.4967  -12.5175   18.2142 C   0  0  0  0  0  0
  -28.0221  -12.3637   18.6354 C   0  0  0  0  0  0
  -27.6606  -13.2101   19.8834 C   0  0  2  0  0  0
  -28.7154  -13.0205   20.9975 C   0  0  0  0  0  0
  -25.2595  -13.8157   20.5745 C   0  0  0  0  0  0
  -24.1838  -13.0443   20.9211 C   0  0  0  0  0  0
  -24.6393  -11.6918   20.8767 C   0  0  0  0  0  0
  -23.9039  -10.4289   21.0412 C   0  0  0  0  0  0
  -24.3597   -9.4225   21.9192 C   0  0  0  0  0  0
  -23.6290   -8.2241   22.0744 C   0  0  0  0  0  0
  -22.4270   -8.0262   21.3542 C   0  0  0  0  0  0
  -21.9906   -9.0244   20.4637 C   0  0  0  0  0  0
  -22.7211  -10.2130   20.3075 C   0  0  0  0  0  0
  -21.6848   -6.0750   22.5275 C   0  0  0  0  0  0
  -21.3999   -6.5640   23.8202 C   0  0  0  0  0  0
  -21.3672   -5.6791   24.9167 C   0  0  0  0  0  0
  -21.6051   -4.3063   24.7207 C   0  0  0  0  0  0
  -21.8822   -3.8155   23.4317 C   0  0  0  0  0  0
  -21.9191   -4.6978   22.3391 C   0  0  0  0  0  0
  -22.7862  -13.5255   21.1872 C   0  0  0  0  0  0
  -22.1665   -4.2170   21.0961 F   0  0  0  0  0  0
  -21.5647   -3.4543   25.7719 F   0  0  0  0  0  0
  -30.0281  -13.3895   20.4319 N   0  0  0  0  0  0
  -26.3025  -12.9336   20.3476 N   0  0  0  0  0  0
  -25.9335  -11.6478   20.5851 N   0  0  0  0  0  0
  -22.0511  -12.8218   22.0413 N   0  0  0  0  0  0
  -25.4333  -15.1879   20.4152 N   0  0  0  0  0  0
  -31.7289  -14.8596   20.0605 O   0  0  0  0  0  0
  -21.6641   -6.8881   21.4228 O   0  0  0  0  0  0
  -22.3544  -14.5584   20.6759 O   0  0  0  0  0  0
  -24.6206  -31.8571   23.2040 C   0  0  0  0  0  0
  -25.9084  -32.4759   23.8318 C   0  0  1  0  0  0
  -27.2133  -27.3162   20.1260 C   0  0  0  0  0  0
  -25.5972  -33.8554   24.2313 N   0  0  0  0  0  0
  -23.4117  -30.4806   21.5495 C   0  0  2  0  0  0
  -24.8574  -28.9304   20.1171 C   0  0  0  0  0  0
  -22.7510  -29.4505   22.4963 C   0  0  0  0  0  0
  -18.0265  -28.1246   22.8424 C   0  0  0  0  0  0
  -24.1522  -36.7210   23.2680 C   0  0  0  0  0  0
  -25.9569  -30.7786   21.3877 C   0  0  0  0  0  0
  -26.0222  -29.4102   20.7233 C   0  0  0  0  0  0
  -27.2037  -28.6130   20.7178 C   0  0  0  0  0  0
  -26.0300  -26.8765   19.5024 C   0  0  0  0  0  0
  -24.8610  -27.6681   19.4973 C   0  0  0  0  0  0
  -23.6334  -29.8221   20.1604 C   0  0  0  0  0  0
  -25.4117  -36.3008   24.0397 C   0  0  1  0  0  0
  -20.5863  -28.3490   23.1301 C   0  0  2  0  0  0
  -20.6755  -26.9216   22.5383 C   0  0  0  0  0  0
  -19.5743  -26.6209   21.5189 C   0  0  0  0  0  0
  -18.1899  -26.7768   22.1573 C   0  0  0  0  0  0
  -19.1530  -28.8683   23.2846 C   0  0  0  0  0  0
  -18.9483  -30.1326   23.8795 C   0  0  0  0  0  0
  -17.6464  -30.6437   24.0476 C   0  0  0  0  0  0
  -25.9022  -34.9412   23.5112 C   0  0  0  0  0  0
  -16.5343  -29.8903   23.6335 C   0  0  0  0  0  0
  -16.7244  -28.6373   23.0265 C   0  0  0  0  0  0
  -26.4530  -31.6546   25.0665 C   0  0  0  0  0  0
  -25.3839  -31.3696   26.1465 C   0  0  0  0  0  0
  -27.0346  -30.2961   24.6045 C   0  0  0  0  0  0
  -27.6034  -32.4335   25.7429 C   0  0  0  0  0  0
  -27.5585  -37.1778   24.8509 C   0  0  0  0  0  0
  -21.4207  -29.2915   22.3811 N   0  0  0  0  0  0
  -26.4284  -37.3688   23.9442 N   0  0  0  0  0  0
  -24.6795  -31.0567   22.1028 N   0  0  0  0  0  0
  -23.4303  -28.8012   23.2945 O   0  0  0  0  0  0
  -28.3541  -26.5045   20.1149 O   0  0  0  0  0  0
  -26.5465  -34.8905   22.4603 O   0  0  0  0  0  0
  -23.5372  -32.1358   23.7397 O   0  0  0  0  0  0
  -30.0687  -19.3748   20.0688 C   0  0  0  0  0  0
  -30.4044  -17.9759   20.1188 C   0  0  0  0  0  0
  -28.5691  -17.6199   21.6223 C   0  0  0  0  0  0
  -28.9656  -19.9346   20.7930 C   0  0  0  0  0  0
  -28.2599  -19.0051   21.6196 C   0  0  0  0  0  0
  -29.6367  -17.0551   20.8882 C   0  0  0  0  0  0
  -27.2049  -20.2366   25.0116 C   0  0  0  0  0  0
  -27.6984  -20.2397   23.7607 C   0  0  0  0  0  0
  -27.1580  -19.4612   22.5707 C   0  0  0  0  0  0
  -28.4680  -21.4452   20.7191 C   0  0  0  0  0  0
  -29.2212  -22.5579   19.8767 C   0  0  0  0  0  0
  -28.4424  -23.9265   19.5453 C   0  0  0  0  0  0
  -28.2756  -25.1078   20.6056 C   0  0  0  0  0  0
  -29.7733  -15.6018   21.0026 N   0  0  0  0  0  0
  -31.4822  -12.5471   19.1093 H   0  0  0  0  0  0
  -30.4134  -11.3898   19.8468 H   0  0  0  0  0  0
  -29.7428  -11.7676   17.4629 H   0  0  0  0  0  0
  -29.6344  -13.4896   17.7339 H   0  0  0  0  0  0
  -27.8449  -11.3078   18.8407 H   0  0  0  0  0  0
  -27.3622  -12.6303   17.8078 H   0  0  0  0  0  0
  -27.6890  -14.2545   19.5731 H   0  0  0  0  0  0
  -28.7340  -11.9861   21.3437 H   0  0  0  0  0  0
  -28.4688  -13.6126   21.8789 H   0  0  0  0  0  0
  -25.2739   -9.5736   22.4766 H   0  0  0  0  0  0
  -24.0032   -7.4646   22.7466 H   0  0  0  0  0  0
  -21.0850   -8.8752   19.8929 H   0  0  0  0  0  0
  -22.3661  -10.9691   19.6199 H   0  0  0  0  0  0
  -21.1958   -7.6149   23.9717 H   0  0  0  0  0  0
  -21.1500   -6.0517   25.9074 H   0  0  0  0  0  0
  -22.0584   -2.7616   23.2807 H   0  0  0  0  0  0
  -22.4111  -11.9858   22.4762 H   0  0  0  0  0  0
  -21.1155  -13.1282   22.2706 H   0  0  0  0  0  0
  -24.6684  -15.8464   20.5171 H   0  0  0  0  0  0
  -26.2846  -15.6232   20.0805 H   0  0  0  0  0  0
  -26.7094  -32.5427   23.0971 H   0  0  0  0  0  0
  -25.0553  -33.9683   25.0744 H   0  0  0  0  0  0
  -22.6995  -31.2983   21.4069 H   0  0  0  0  0  0
  -23.3820  -35.9495   23.3238 H   0  0  0  0  0  0
  -24.3671  -36.8815   22.2111 H   0  0  0  0  0  0
  -23.7242  -37.6397   23.6685 H   0  0  0  0  0  0
  -26.1084  -31.5551   20.6405 H   0  0  0  0  0  0
  -26.8293  -30.7969   22.0309 H   0  0  0  0  0  0
  -28.1002  -28.9704   21.2034 H   0  0  0  0  0  0
  -26.0023  -25.9152   19.0097 H   0  0  0  0  0  0
  -23.9649  -27.2938   19.0267 H   0  0  0  0  0  0
  -23.7957  -30.6141   19.4274 H   0  0  0  0  0  0
  -22.7503  -29.2809   19.8201 H   0  0  0  0  0  0
  -25.1295  -36.1855   25.0876 H   0  0  0  0  0  0
  -20.9879  -28.2945   24.1447 H   0  0  0  0  0  0
  -20.5583  -26.2069   23.3542 H   0  0  0  0  0  0
  -21.6623  -26.7135   22.1227 H   0  0  0  0  0  0
  -19.6896  -25.6124   21.1201 H   0  0  0  0  0  0
  -19.6717  -27.3064   20.6751 H   0  0  0  0  0  0
  -17.4193  -26.6502   21.3955 H   0  0  0  0  0  0
  -18.0218  -25.9871   22.8910 H   0  0  0  0  0  0
  -19.7978  -30.7174   24.2061 H   0  0  0  0  0  0
  -17.5018  -31.6138   24.5027 H   0  0  0  0  0  0
  -15.5349  -30.2743   23.7730 H   0  0  0  0  0  0
  -15.8651  -28.0703   22.6897 H   0  0  0  0  0  0
  -24.5947  -30.7067   25.7875 H   0  0  0  0  0  0
  -24.9178  -32.2921   26.4972 H   0  0  0  0  0  0
  -25.8264  -30.8866   27.0189 H   0  0  0  0  0  0
  -26.2819  -29.6721   24.1217 H   0  0  0  0  0  0
  -27.4263  -29.7164   25.4403 H   0  0  0  0  0  0
  -27.8601  -30.4229   23.9032 H   0  0  0  0  0  0
  -27.2558  -33.3681   26.1828 H   0  0  0  0  0  0
  -28.3947  -32.6822   25.0348 H   0  0  0  0  0  0
  -28.0568  -31.8623   26.5534 H   0  0  0  0  0  0
  -28.2569  -38.0100   24.7462 H   0  0  0  0  0  0
  -28.1106  -36.2612   24.6388 H   0  0  0  0  0  0
  -27.2323  -37.1443   25.8921 H   0  0  0  0  0  0
  -20.9332  -29.8816   21.7215 H   0  0  0  0  0  0
  -26.0183  -38.2756   24.1370 H   0  0  0  0  0  0
  -30.6781  -20.0165   19.4491 H   0  0  0  0  0  0
  -31.2428  -17.6142   19.5382 H   0  0  0  0  0  0
  -27.9586  -16.9562   22.2202 H   0  0  0  0  0  0
  -27.6615  -20.8571   25.7694 H   0  0  0  0  0  0
  -26.3597  -19.6339   25.3039 H   0  0  0  0  0  0
  -28.5516  -20.8722   23.5763 H   0  0  0  0  0  0
  -26.5973  -18.5988   22.9379 H   0  0  0  0  0  0
  -26.4370  -20.0694   22.0242 H   0  0  0  0  0  0
  -28.4138  -21.8529   21.7349 H   0  0  0  0  0  0
  -27.4250  -21.4041   20.3780 H   0  0  0  0  0  0
  -29.4670  -22.1163   18.9041 H   0  0  0  0  0  0
  -30.1943  -22.7757   20.3301 H   0  0  0  0  0  0
  -27.4499  -23.6697   19.1603 H   0  0  0  0  0  0
  -28.9587  -24.3547   18.6808 H   0  0  0  0  0  0
  -29.0612  -25.0088   21.3589 H   0  0  0  0  0  0
  -27.3457  -24.9710   21.1667 H   0  0  0  0  0  0
  -28.9713  -15.1733   21.4411 H   0  0  0  0  0  0
  1 25  1  0  0  0
  1 30  2  0  0  0
  1 84  1  0  0  0
  2  3  1  0  0  0
  2 25  1  0  0  0
  2 85  1  0  0  0
  2 86  1  0  0  0
  3  4  1  0  0  0
  3 87  1  0  0  0
  3 88  1  0  0  0
  4  5  1  0  0  0
  4 89  1  0  0  0
  4 90  1  0  0  0
  5  6  1  0  0  0
  5 26  1  0  0  0
  5 91  1  0  0  0
  6 25  1  0  0  0
  6 92  1  0  0  0
  6 93  1  0  0  0
  7  8  2  0  0  0
  7 26  1  0  0  0
  7 29  1  0  0  0
  8  9  1  0  0  0
  8 22  1  0  0  0
  9 10  1  0  0  0
  9 27  2  0  0  0
 10 11  2  0  0  0
 10 15  1  0  0  0
 11 12  1  0  0  0
 11 94  1  0  0  0
 12 13  2  0  0  0
 12 95  1  0  0  0
 13 14  1  0  0  0
 13 31  1  0  0  0
 14 15  2  0  0  0
 14 96  1  0  0  0
 15 97  1  0  0  0
 16 17  2  0  0  0
 16 21  1  0  0  0
 16 31  1  0  0  0
 17 18  1  0  0  0
 17 98  1  0  0  0
 18 19  2  0  0  0
 18 99  1  0  0  0
 19 20  1  0  0  0
 19 24  1  0  0  0
 20 21  2  0  0  0
 20100  1  0  0  0
 21 23  1  0  0  0
 22 28  1  0  0  0
 22 32  2  0  0  0
 26 27  1  0  0  0
 28101  1  0  0  0
 28102  1  0  0  0
 29103  1  0  0  0
 29104  1  0  0  0
 33 34  1  0  0  0
 33 66  1  0  0  0
 33 70  2  0  0  0
 34 36  1  0  0  0
 34 59  1  0  0  0
 34105  1  0  0  0
 35 44  2  0  0  0
 35 45  1  0  0  0
 35 68  1  0  0  0
 36 56  1  0  0  0
 36106  1  0  0  0
 37 39  1  0  0  0
 37 47  1  0  0  0
 37 66  1  0  0  0
 37107  1  0  0  0
 38 43  2  0  0  0
 38 46  1  0  0  0
 38 47  1  0  0  0
 39 64  1  0  0  0
 39 67  2  0  0  0
 40 52  1  0  0  0
 40 53  2  0  0  0
 40 58  1  0  0  0
 41108  1  0  0  0
 41109  1  0  0  0
 41110  1  0  0  0
 41 48  1  0  0  0
 42 43  1  0  0  0
 42 66  1  0  0  0
 42111  1  0  0  0
 42112  1  0  0  0
 43 44  1  0  0  0
 44113  1  0  0  0
 45 46  2  0  0  0
 45114  1  0  0  0
 46115  1  0  0  0
 47116  1  0  0  0
 47117  1  0  0  0
 48 56  1  0  0  0
 48 65  1  0  0  0
 48118  1  0  0  0
 49 50  1  0  0  0
 49 53  1  0  0  0
 49 64  1  0  0  0
 49119  1  0  0  0
 50 51  1  0  0  0
 50120  1  0  0  0
 50121  1  0  0  0
 51 52  1  0  0  0
 51122  1  0  0  0
 51123  1  0  0  0
 52124  1  0  0  0
 52125  1  0  0  0
 53 54  1  0  0  0
 54 55  2  0  0  0
 54126  1  0  0  0
 55 57  1  0  0  0
 55127  1  0  0  0
 56 69  2  0  0  0
 57 58  2  0  0  0
 57128  1  0  0  0
 58129  1  0  0  0
 59 60  1  0  0  0
 59 61  1  0  0  0
 59 62  1  0  0  0
 60130  1  0  0  0
 60131  1  0  0  0
 60132  1  0  0  0
 61133  1  0  0  0
 61134  1  0  0  0
 61135  1  0  0  0
 62136  1  0  0  0
 62137  1  0  0  0
 62138  1  0  0  0
 63 65  1  0  0  0
 63139  1  0  0  0
 63140  1  0  0  0
 63141  1  0  0  0
 64142  1  0  0  0
 65143  1  0  0  0
 68 83  1  0  0  0
 71 72  2  0  0  0
 71 74  1  0  0  0
 71144  1  0  0  0
 72 76  1  0  0  0
 72145  1  0  0  0
 73 75  1  0  0  0
 73 76  2  0  0  0
 73146  1  0  0  0
 74 75  2  0  0  0
 74 80  1  0  0  0
 75 79  1  0  0  0
 76 84  1  0  0  0
 77 78  2  0  0  0
 77147  1  0  0  0
 77148  1  0  0  0
 78 79  1  0  0  0
 78149  1  0  0  0
 79150  1  0  0  0
 79151  1  0  0  0
 80 81  1  0  0  0
 80152  1  0  0  0
 80153  1  0  0  0
 81 82  1  0  0  0
 81154  1  0  0  0
 81155  1  0  0  0
 82 83  1  0  0  0
 82156  1  0  0  0
 82157  1  0  0  0
 83158  1  0  0  0
 83159  1  0  0  0
 84160  1  0  0  0
M  ISO  4   1 100  68 101  83 101  84 100
M  END
> <chiral flag>
0

> <version>
0

> <s_m_source_file>
/data/baiqing/PycharmProjects/Reinvent-master-3.2/result/LINK_invent/BTK/process_docking_weight1_custom_product_contain_oxygen_bond_distance_aromatic_linkinvent_7_9_3/rearranged_h_0127.sdf

> <i_m_source_file_index>
36

> <r_mmod_Potential_Energy-OPLS-2005>
122.018203735352

> <r_mmod_Stretch_Energy-OPLS-2005>
85.5999603271484

> <r_mmod_Bend_Energy-OPLS-2005>
169.749267578125

> <r_mmod_Torsional_Energy-OPLS-2005>
245.284591674805

> <r_mmod_Improper_Torsional_Energy-OPLS-2005>
3.32712149620056

> <r_mmod_Van_der_Waal_Energy-OPLS-2005>
137.401626586914

> <r_mmod_Electrostatic_Energy-OPLS-2005>
-366.736022949219

> <r_mmod_Solvation_Energy-OPLS-2005>
-199.012008666992

> <b_mmod_Minimization_Converged-OPLS-2005>
0

> <r_mmod_RMS_Derivative-OPLS-2005>
8.83064270019531

$$$$
36
                    3D
 Structure written by MMmdl.
155163  0  0  1  0            999 V2000
  -30.6646  -14.5670   20.5861 C   0  0  0  0  0  0
  -30.4377  -12.3720   19.4311 C   0  0  0  0  0  0
  -29.5028  -12.5269   18.2106 C   0  0  0  0  0  0
  -28.0238  -12.3667   18.6171 C   0  0  0  0  0  0
  -27.6624  -13.2048   19.8719 C   0  0  2  0  0  0
  -28.7031  -12.9880   20.9887 C   0  0  0  0  0  0
  -25.2615  -13.8137   20.5658 C   0  0  0  0  0  0
  -24.1857  -13.0433   20.9136 C   0  0  0  0  0  0
  -24.6404  -11.6897   20.8707 C   0  0  0  0  0  0
  -23.9063  -10.4296   21.0394 C   0  0  0  0  0  0
  -24.3621   -9.4213   21.9173 C   0  0  0  0  0  0
  -23.6289   -8.2254   22.0761 C   0  0  0  0  0  0
  -22.4268   -8.0294   21.3549 C   0  0  0  0  0  0
  -21.9901   -9.0265   20.4647 C   0  0  0  0  0  0
  -22.7231  -10.2141   20.3048 C   0  0  0  0  0  0
  -21.6862   -6.0735   22.5279 C   0  0  0  0  0  0
  -21.4014   -6.5638   23.8210 C   0  0  0  0  0  0
  -21.3662   -5.6791   24.9176 C   0  0  0  0  0  0
  -21.6044   -4.3054   24.7225 C   0  0  0  0  0  0
  -21.8821   -3.8143   23.4349 C   0  0  0  0  0  0
  -21.9195   -4.6961   22.3402 C   0  0  0  0  0  0
  -22.7887  -13.5263   21.1807 C   0  0  0  0  0  0
  -22.1666   -4.2144   21.0981 F   0  0  0  0  0  0
  -21.5629   -3.4542   25.7741 F   0  0  0  0  0  0
  -30.0253  -13.3596   20.4493 N   0  0  0  0  0  0
  -26.3042  -12.9297   20.3332 N   0  0  0  0  0  0
  -25.9333  -11.6462   20.5728 N   0  0  0  0  0  0
  -22.0528  -12.8274   22.0369 N   0  0  0  0  0  0
  -25.4358  -15.1860   20.4106 N   0  0  0  0  0  0
  -31.7816  -14.7449   20.0900 O   0  0  0  0  0  0
  -21.6643   -6.8886   21.4243 O   0  0  0  0  0  0
  -22.3589  -14.5576   20.6662 O   0  0  0  0  0  0
  -24.6215  -31.8617   23.2069 C   0  0  0  0  0  0
  -25.9079  -32.4786   23.8383 C   0  0  1  0  0  0
  -27.2325  -27.3626   20.1149 C   0  0  0  0  0  0
  -25.5924  -33.8594   24.2309 N   0  0  0  0  0  0
  -23.4144  -30.4855   21.5450 C   0  0  2  0  0  0
  -24.8630  -28.9452   20.1155 C   0  0  0  0  0  0
  -22.7440  -29.4625   22.4929 C   0  0  0  0  0  0
  -18.0279  -28.1397   22.8461 C   0  0  0  0  0  0
  -24.1491  -36.7304   23.2637 C   0  0  0  0  0  0
  -25.9511  -30.8074   21.3720 C   0  0  0  0  0  0
  -26.0285  -29.4366   20.7182 C   0  0  0  0  0  0
  -27.2166  -28.6550   20.7101 C   0  0  0  0  0  0
  -26.0463  -26.9135   19.4902 C   0  0  0  0  0  0
  -24.8718  -27.6877   19.4932 C   0  0  0  0  0  0
  -23.6299  -29.8212   20.1597 C   0  0  0  0  0  0
  -25.4111  -36.3090   24.0334 C   0  0  1  0  0  0
  -20.5873  -28.3690   23.1282 C   0  0  2  0  0  0
  -20.6777  -26.9418   22.5406 C   0  0  0  0  0  0
  -19.5760  -26.6390   21.5200 C   0  0  0  0  0  0
  -18.1933  -26.7938   22.1605 C   0  0  0  0  0  0
  -19.1530  -28.8857   23.2867 C   0  0  0  0  0  0
  -18.9459  -30.1462   23.8877 C   0  0  0  0  0  0
  -17.6462  -30.6593   24.0563 C   0  0  0  0  0  0
  -25.9042  -34.9456   23.5114 C   0  0  0  0  0  0
  -16.5350  -29.9093   23.6334 C   0  0  0  0  0  0
  -16.7265  -28.6523   23.0324 C   0  0  0  0  0  0
  -26.4502  -31.6582   25.0722 C   0  0  0  0  0  0
  -25.3784  -31.3693   26.1480 C   0  0  0  0  0  0
  -27.0342  -30.3012   24.6144 C   0  0  0  0  0  0
  -27.6060  -32.4314   25.7494 C   0  0  0  0  0  0
  -27.5575  -37.1811   24.8463 C   0  0  0  0  0  0
  -21.4154  -29.3050   22.3676 N   0  0  0  0  0  0
  -26.4289  -37.3775   23.9406 N   0  0  0  0  0  0
  -24.6803  -31.0673   22.0987 N   0  0  0  0  0  0
  -23.4175  -28.8159   23.2996 O   0  0  0  0  0  0
  -28.3716  -26.5604   20.1306 O   0  0  0  0  0  0
  -26.5583  -34.8908   22.4661 O   0  0  0  0  0  0
  -23.5385  -32.1395   23.7418 O   0  0  0  0  0  0
  -29.9720  -19.4026   20.4108 C   0  0  0  0  0  0
  -31.1848  -20.0263   18.4081 C   0  0  0  0  0  0
  -30.9935  -17.6733   19.0266 C   0  0  0  0  0  0
  -30.4455  -20.4342   19.5382 C   0  0  0  0  0  0
  -30.2635  -18.0092   20.1859 C   0  0  0  0  0  0
  -31.4566  -18.6702   18.1480 C   0  0  0  0  0  0
  -30.2588  -21.9271   19.6422 C   0  0  0  0  0  0
  -29.8093  -16.9643   21.1709 C   0  0  0  0  0  0
  -29.3148  -22.7300   20.2103 C   0  0  0  0  0  0
  -29.9385  -15.6070   21.3509 C   0  0  0  0  0  0
  -29.4130  -24.2381   20.1134 C   0  0  0  0  0  0
  -32.2576  -18.2787   16.9221 C   0  0  0  0  0  0
  -28.1674  -25.1308   20.3985 C   0  0  0  0  0  0
  -30.4692  -24.8003   19.8001 O   0  0  0  0  0  0
  -31.4774  -12.4947   19.1236 H   0  0  0  0  0  0
  -30.3702  -11.3607   19.8353 H   0  0  0  0  0  0
  -29.7598  -11.7964   17.4420 H   0  0  0  0  0  0
  -29.6520  -13.5094   17.7583 H   0  0  0  0  0  0
  -27.8465  -11.3082   18.8138 H   0  0  0  0  0  0
  -27.3753  -12.6343   17.7823 H   0  0  0  0  0  0
  -27.7087  -14.2548   19.5835 H   0  0  0  0  0  0
  -28.7130  -11.9404   21.2928 H   0  0  0  0  0  0
  -28.4160  -13.5251   21.8890 H   0  0  0  0  0  0
  -25.2786   -9.5689   22.4735 H   0  0  0  0  0  0
  -24.0001   -7.4653   22.7495 H   0  0  0  0  0  0
  -21.0828   -8.8774   19.8965 H   0  0  0  0  0  0
  -22.3687  -10.9673   19.6149 H   0  0  0  0  0  0
  -21.2007   -7.6149   23.9709 H   0  0  0  0  0  0
  -21.1480   -6.0526   25.9074 H   0  0  0  0  0  0
  -22.0598   -2.7608   23.2850 H   0  0  0  0  0  0
  -22.4159  -11.9947   22.4759 H   0  0  0  0  0  0
  -21.1146  -13.1300   22.2581 H   0  0  0  0  0  0
  -24.6744  -15.8453   20.5313 H   0  0  0  0  0  0
  -26.3028  -15.6257   20.1259 H   0  0  0  0  0  0
  -26.7143  -32.5486   23.1139 H   0  0  0  0  0  0
  -25.0130  -33.9766   25.0491 H   0  0  0  0  0  0
  -22.7074  -31.3051   21.4019 H   0  0  0  0  0  0
  -23.3740  -35.9651   23.3305 H   0  0  0  0  0  0
  -24.3584  -36.8910   22.2050 H   0  0  0  0  0  0
  -23.7273  -37.6519   23.6653 H   0  0  0  0  0  0
  -26.0772  -31.5715   20.6040 H   0  0  0  0  0  0
  -26.8342  -30.8587   21.9969 H   0  0  0  0  0  0
  -28.1146  -29.0238   21.1864 H   0  0  0  0  0  0
  -26.0084  -25.9637   18.9799 H   0  0  0  0  0  0
  -23.9817  -27.3101   19.0082 H   0  0  0  0  0  0
  -23.7508  -30.5988   19.4043 H   0  0  0  0  0  0
  -22.7530  -29.2482   19.8516 H   0  0  0  0  0  0
  -25.1299  -36.1939   25.0829 H   0  0  0  0  0  0
  -20.9973  -28.3280   24.1397 H   0  0  0  0  0  0
  -20.5681  -26.2299   23.3601 H   0  0  0  0  0  0
  -21.6651  -26.7455   22.1201 H   0  0  0  0  0  0
  -19.6931  -25.6297   21.1236 H   0  0  0  0  0  0
  -19.6721  -27.3193   20.6724 H   0  0  0  0  0  0
  -17.4206  -26.6651   21.4011 H   0  0  0  0  0  0
  -18.0345  -26.0099   22.9021 H   0  0  0  0  0  0
  -19.7939  -30.7280   24.2231 H   0  0  0  0  0  0
  -17.5022  -31.6269   24.5179 H   0  0  0  0  0  0
  -15.5354  -30.2991   23.7693 H   0  0  0  0  0  0
  -15.8655  -28.0865   22.7019 H   0  0  0  0  0  0
  -24.5955  -30.7032   25.7835 H   0  0  0  0  0  0
  -24.8991  -32.2848   26.4954 H   0  0  0  0  0  0
  -25.8172  -30.8857   27.0218 H   0  0  0  0  0  0
  -26.2894  -29.6747   24.1217 H   0  0  0  0  0  0
  -27.4100  -29.7281   25.4631 H   0  0  0  0  0  0
  -27.8741  -30.4294   23.9312 H   0  0  0  0  0  0
  -27.2657  -33.3596   26.2096 H   0  0  0  0  0  0
  -28.3865  -32.6902   25.0328 H   0  0  0  0  0  0
  -28.0732  -31.8427   26.5396 H   0  0  0  0  0  0
  -28.2595  -38.0102   24.7485 H   0  0  0  0  0  0
  -28.1071  -36.2633   24.6320 H   0  0  0  0  0  0
  -27.2290  -37.1494   25.8864 H   0  0  0  0  0  0
  -20.9316  -29.8790   21.6911 H   0  0  0  0  0  0
  -26.0167  -38.2844   24.1412 H   0  0  0  0  0  0
  -29.4016  -19.6874   21.2831 H   0  0  0  0  0  0
  -31.5514  -20.7737   17.7171 H   0  0  0  0  0  0
  -31.2075  -16.6455   18.7865 H   0  0  0  0  0  0
  -31.0641  -22.4609   19.1537 H   0  0  0  0  0  0
  -29.2079  -17.4090   21.9506 H   0  0  0  0  0  0
  -28.4660  -22.3090   20.7294 H   0  0  0  0  0  0
  -29.4373  -15.2601   22.2401 H   0  0  0  0  0  0
  -32.7020  -19.1497   16.4389 H   0  0  0  0  0  0
  -31.6224  -17.7728   16.1946 H   0  0  0  0  0  0
  -33.0669  -17.6018   17.1973 H   0  0  0  0  0  0
  -27.8993  -25.0133   21.4489 H   0  0  0  0  0  0
  -27.3569  -24.7125   19.8064 H   0  0  0  0  0  0
  1 25  1  0  0  0
  1 30  2  0  0  0
  1 80  1  0  0  0
  2  3  1  0  0  0
  2 25  1  0  0  0
  2 85  1  0  0  0
  2 86  1  0  0  0
  3  4  1  0  0  0
  3 87  1  0  0  0
  3 88  1  0  0  0
  4  5  1  0  0  0
  4 89  1  0  0  0
  4 90  1  0  0  0
  5  6  1  0  0  0
  5 26  1  0  0  0
  5 91  1  0  0  0
  6 25  1  0  0  0
  6 92  1  0  0  0
  6 93  1  0  0  0
  7  8  2  0  0  0
  7 26  1  0  0  0
  7 29  1  0  0  0
  8  9  1  0  0  0
  8 22  1  0  0  0
  9 10  1  0  0  0
  9 27  2  0  0  0
 10 11  2  0  0  0
 10 15  1  0  0  0
 11 12  1  0  0  0
 11 94  1  0  0  0
 12 13  2  0  0  0
 12 95  1  0  0  0
 13 14  1  0  0  0
 13 31  1  0  0  0
 14 15  2  0  0  0
 14 96  1  0  0  0
 15 97  1  0  0  0
 16 17  2  0  0  0
 16 21  1  0  0  0
 16 31  1  0  0  0
 17 18  1  0  0  0
 17 98  1  0  0  0
 18 19  2  0  0  0
 18 99  1  0  0  0
 19 20  1  0  0  0
 19 24  1  0  0  0
 20 21  2  0  0  0
 20100  1  0  0  0
 21 23  1  0  0  0
 22 28  1  0  0  0
 22 32  2  0  0  0
 26 27  1  0  0  0
 28101  1  0  0  0
 28102  1  0  0  0
 29103  1  0  0  0
 29104  1  0  0  0
 33 34  1  0  0  0
 33 66  1  0  0  0
 33 70  2  0  0  0
 34 36  1  0  0  0
 34 59  1  0  0  0
 34105  1  0  0  0
 35 44  2  0  0  0
 35 45  1  0  0  0
 35 68  1  0  0  0
 36 56  1  0  0  0
 36106  1  0  0  0
 37 39  1  0  0  0
 37 47  1  0  0  0
 37 66  1  0  0  0
 37107  1  0  0  0
 38 43  2  0  0  0
 38 46  1  0  0  0
 38 47  1  0  0  0
 39 64  1  0  0  0
 39 67  2  0  0  0
 40 52  1  0  0  0
 40 53  2  0  0  0
 40 58  1  0  0  0
 41108  1  0  0  0
 41109  1  0  0  0
 41110  1  0  0  0
 41 48  1  0  0  0
 42 43  1  0  0  0
 42 66  1  0  0  0
 42111  1  0  0  0
 42112  1  0  0  0
 43 44  1  0  0  0
 44113  1  0  0  0
 45 46  2  0  0  0
 45114  1  0  0  0
 46115  1  0  0  0
 47116  1  0  0  0
 47117  1  0  0  0
 48 56  1  0  0  0
 48 65  1  0  0  0
 48118  1  0  0  0
 49 50  1  0  0  0
 49 53  1  0  0  0
 49 64  1  0  0  0
 49119  1  0  0  0
 50 51  1  0  0  0
 50120  1  0  0  0
 50121  1  0  0  0
 51 52  1  0  0  0
 51122  1  0  0  0
 51123  1  0  0  0
 52124  1  0  0  0
 52125  1  0  0  0
 53 54  1  0  0  0
 54 55  2  0  0  0
 54126  1  0  0  0
 55 57  1  0  0  0
 55127  1  0  0  0
 56 69  2  0  0  0
 57 58  2  0  0  0
 57128  1  0  0  0
 58129  1  0  0  0
 59 60  1  0  0  0
 59 61  1  0  0  0
 59 62  1  0  0  0
 60130  1  0  0  0
 60131  1  0  0  0
 60132  1  0  0  0
 61133  1  0  0  0
 61134  1  0  0  0
 61135  1  0  0  0
 62136  1  0  0  0
 62137  1  0  0  0
 62138  1  0  0  0
 63 65  1  0  0  0
 63139  1  0  0  0
 63140  1  0  0  0
 63141  1  0  0  0
 64142  1  0  0  0
 65143  1  0  0  0
 68 83  1  0  0  0
 71 74  2  0  0  0
 71 75  1  0  0  0
 71144  1  0  0  0
 72 74  1  0  0  0
 72 76  2  0  0  0
 72145  1  0  0  0
 73 75  2  0  0  0
 73 76  1  0  0  0
 73146  1  0  0  0
 74 77  1  0  0  0
 75 78  1  0  0  0
 76 82  1  0  0  0
 77 79  2  0  0  0
 77147  1  0  0  0
 78 80  2  0  0  0
 78148  1  0  0  0
 79 81  1  0  0  0
 79149  1  0  0  0
 80150  1  0  0  0
 81 83  1  0  0  0
 81 84  2  0  0  0
 82151  1  0  0  0
 82152  1  0  0  0
 82153  1  0  0  0
 83154  1  0  0  0
 83155  1  0  0  0
M  ISO  4   1 100  68 101  80 100  83 101
M  END
> <chiral flag>
0

> <version>
0

> <s_m_source_file>
/data/baiqing/PycharmProjects/Reinvent-master-3.2/result/LINK_invent/BTK/process_docking_weight1_custom_product_contain_oxygen_bond_distance_aromatic_linkinvent_7_9_3/rearranged_h_0127.sdf

> <i_m_source_file_index>
37

> <r_mmod_Potential_Energy-OPLS-2005>
69.2755584716797

> <r_mmod_Stretch_Energy-OPLS-2005>
63.7347793579102

> <r_mmod_Bend_Energy-OPLS-2005>
157.100204467773

> <r_mmod_Torsional_Energy-OPLS-2005>
195.385620117188

> <r_mmod_Improper_Torsional_Energy-OPLS-2005>
1.95292520523071

> <r_mmod_Van_der_Waal_Energy-OPLS-2005>
154.194686889648

> <r_mmod_Electrostatic_Energy-OPLS-2005>
-311.874450683594

> <r_mmod_Solvation_Energy-OPLS-2005>
-218.05094909668

> <b_mmod_Minimization_Converged-OPLS-2005>
0

> <r_mmod_RMS_Derivative-OPLS-2005>
2.09699583053589

$$$$
37
                    3D
 Structure written by MMmdl.
156165  0  0  1  0            999 V2000
  -30.6164  -14.6086   20.5891 C   0  0  0  0  0  0
  -30.4496  -12.3988   19.4361 C   0  0  0  0  0  0
  -29.5091  -12.5361   18.2159 C   0  0  0  0  0  0
  -28.0288  -12.3685   18.6203 C   0  0  0  0  0  0
  -27.6606  -13.2059   19.8728 C   0  0  2  0  0  0
  -28.7008  -12.9769   20.9874 C   0  0  0  0  0  0
  -25.2591  -13.8143   20.5670 C   0  0  0  0  0  0
  -24.1837  -13.0426   20.9158 C   0  0  0  0  0  0
  -24.6390  -11.6892   20.8714 C   0  0  0  0  0  0
  -23.9054  -10.4285   21.0396 C   0  0  0  0  0  0
  -24.3609   -9.4206   21.9178 C   0  0  0  0  0  0
  -23.6287   -8.2241   22.0753 C   0  0  0  0  0  0
  -22.4269   -8.0277   21.3544 C   0  0  0  0  0  0
  -21.9900   -9.0248   20.4646 C   0  0  0  0  0  0
  -22.7226  -10.2127   20.3050 C   0  0  0  0  0  0
  -21.6852   -6.0733   22.5280 C   0  0  0  0  0  0
  -21.4013   -6.5638   23.8213 C   0  0  0  0  0  0
  -21.3659   -5.6791   24.9176 C   0  0  0  0  0  0
  -21.6045   -4.3054   24.7227 C   0  0  0  0  0  0
  -21.8819   -3.8145   23.4348 C   0  0  0  0  0  0
  -21.9192   -4.6961   22.3404 C   0  0  0  0  0  0
  -22.7864  -13.5232   21.1840 C   0  0  0  0  0  0
  -22.1661   -4.2147   21.0982 F   0  0  0  0  0  0
  -21.5630   -3.4538   25.7740 F   0  0  0  0  0  0
  -30.0198  -13.3759   20.4579 N   0  0  0  0  0  0
  -26.3017  -12.9304   20.3329 N   0  0  0  0  0  0
  -25.9314  -11.6466   20.5720 N   0  0  0  0  0  0
  -22.0509  -12.8226   22.0403 N   0  0  0  0  0  0
  -25.4333  -15.1862   20.4115 N   0  0  0  0  0  0
  -31.7179  -14.8338   20.0755 O   0  0  0  0  0  0
  -21.6635   -6.8873   21.4241 O   0  0  0  0  0  0
  -22.3549  -14.5544   20.6699 O   0  0  0  0  0  0
  -24.6221  -31.8616   23.2026 C   0  0  0  0  0  0
  -25.9080  -32.4790   23.8354 C   0  0  1  0  0  0
  -27.2358  -27.3555   20.1210 C   0  0  0  0  0  0
  -25.5907  -33.8590   24.2285 N   0  0  0  0  0  0
  -23.4150  -30.4815   21.5448 C   0  0  2  0  0  0
  -24.8639  -28.9295   20.1207 C   0  0  0  0  0  0
  -22.7450  -29.4629   22.4963 C   0  0  0  0  0  0
  -18.0279  -28.1382   22.8491 C   0  0  0  0  0  0
  -24.1488  -36.7301   23.2641 C   0  0  0  0  0  0
  -25.9503  -30.8037   21.3662 C   0  0  0  0  0  0
  -26.0288  -29.4292   20.7176 C   0  0  0  0  0  0
  -27.2208  -28.6537   20.7051 C   0  0  0  0  0  0
  -26.0515  -26.8834   19.5218 C   0  0  0  0  0  0
  -24.8738  -27.6592   19.5168 C   0  0  0  0  0  0
  -23.6294  -29.8068   20.1633 C   0  0  0  0  0  0
  -25.4114  -36.3094   24.0332 C   0  0  1  0  0  0
  -20.5875  -28.3679   23.1301 C   0  0  2  0  0  0
  -20.6770  -26.9409   22.5416 C   0  0  0  0  0  0
  -19.5748  -26.6386   21.5214 C   0  0  0  0  0  0
  -18.1926  -26.7926   22.1625 C   0  0  0  0  0  0
  -19.1530  -28.8848   23.2890 C   0  0  0  0  0  0
  -18.9455  -30.1451   23.8904 C   0  0  0  0  0  0
  -17.6457  -30.6587   24.0565 C   0  0  0  0  0  0
  -25.9044  -34.9460   23.5111 C   0  0  0  0  0  0
  -16.5348  -29.9087   23.6328 C   0  0  0  0  0  0
  -16.7267  -28.6503   23.0351 C   0  0  0  0  0  0
  -26.4483  -31.6590   25.0710 C   0  0  0  0  0  0
  -25.3729  -31.3711   26.1445 C   0  0  0  0  0  0
  -27.0321  -30.3024   24.6130 C   0  0  0  0  0  0
  -27.6048  -32.4320   25.7480 C   0  0  0  0  0  0
  -27.5577  -37.1811   24.8470 C   0  0  0  0  0  0
  -21.4169  -29.3036   22.3701 N   0  0  0  0  0  0
  -26.4297  -37.3781   23.9402 N   0  0  0  0  0  0
  -24.6811  -31.0652   22.0958 N   0  0  0  0  0  0
  -23.4185  -28.8181   23.3044 O   0  0  0  0  0  0
  -28.3817  -26.5680   20.0671 O   0  0  0  0  0  0
  -26.5614  -34.8925   22.4678 O   0  0  0  0  0  0
  -23.5394  -32.1397   23.7377 O   0  0  0  0  0  0
  -28.3060  -19.1286   21.0283 C   0  0  0  0  0  0
  -28.1743  -20.5453   20.9290 C   0  0  0  0  0  0
  -30.6664  -19.2492   20.5038 C   0  0  0  0  0  0
  -29.5443  -18.4424   20.8495 C   0  0  0  0  0  0
  -29.3117  -21.3304   20.6507 C   0  0  0  0  0  0
  -30.5262  -20.6674   20.4331 C   0  0  0  0  0  0
  -29.5807  -16.9742   21.2338 C   0  0  0  0  0  0
  -29.8331  -15.6216   21.3585 C   0  0  0  0  0  0
  -31.6468  -21.6621   20.2708 C   0  0  0  0  0  0
  -30.9568  -23.0526   20.3012 C   0  0  0  0  0  0
  -29.4919  -22.8668   20.7812 C   0  0  1  0  0  0
  -28.4926  -23.9150   20.1255 C   0  0  0  0  0  0
  -28.4172  -25.3293   20.8471 C   0  0  0  0  0  0
  -31.4864  -12.5496   19.1313 H   0  0  0  0  0  0
  -30.4080  -11.3862   19.8399 H   0  0  0  0  0  0
  -29.7732  -11.8040   17.4518 H   0  0  0  0  0  0
  -29.6503  -13.5171   17.7595 H   0  0  0  0  0  0
  -27.8557  -11.3103   18.8202 H   0  0  0  0  0  0
  -27.3770  -12.6307   17.7862 H   0  0  0  0  0  0
  -27.7036  -14.2559   19.5825 H   0  0  0  0  0  0
  -28.7212  -11.9213   21.2625 H   0  0  0  0  0  0
  -28.4044  -13.4805   21.9037 H   0  0  0  0  0  0
  -25.2757   -9.5682   22.4748 H   0  0  0  0  0  0
  -23.9998   -7.4633   22.7472 H   0  0  0  0  0  0
  -21.0831   -8.8763   19.8953 H   0  0  0  0  0  0
  -22.3685  -10.9663   19.6155 H   0  0  0  0  0  0
  -21.2004   -7.6146   23.9715 H   0  0  0  0  0  0
  -21.1483   -6.0523   25.9078 H   0  0  0  0  0  0
  -22.0599   -2.7607   23.2849 H   0  0  0  0  0  0
  -22.4123  -11.9880   22.4782 H   0  0  0  0  0  0
  -21.1132  -13.1255   22.2621 H   0  0  0  0  0  0
  -24.6741  -15.8479   20.5311 H   0  0  0  0  0  0
  -26.3006  -15.6248   20.1274 H   0  0  0  0  0  0
  -26.7150  -32.5479   23.1110 H   0  0  0  0  0  0
  -25.0053  -33.9740   25.0429 H   0  0  0  0  0  0
  -22.7074  -31.3001   21.3986 H   0  0  0  0  0  0
  -23.3746  -35.9640   23.3321 H   0  0  0  0  0  0
  -24.3575  -36.8903   22.2052 H   0  0  0  0  0  0
  -23.7249  -37.6513   23.6650 H   0  0  0  0  0  0
  -26.0707  -31.5645   20.5936 H   0  0  0  0  0  0
  -26.8347  -30.8604   21.9893 H   0  0  0  0  0  0
  -28.1236  -29.0407   21.1567 H   0  0  0  0  0  0
  -26.0429  -25.9096   19.0526 H   0  0  0  0  0  0
  -23.9795  -27.2689   19.0506 H   0  0  0  0  0  0
  -23.7458  -30.5783   19.4012 H   0  0  0  0  0  0
  -22.7510  -29.2313   19.8654 H   0  0  0  0  0  0
  -25.1297  -36.1954   25.0826 H   0  0  0  0  0  0
  -20.9966  -28.3251   24.1422 H   0  0  0  0  0  0
  -20.5675  -26.2288   23.3609 H   0  0  0  0  0  0
  -21.6639  -26.7447   22.1209 H   0  0  0  0  0  0
  -19.6912  -25.6299   21.1238 H   0  0  0  0  0  0
  -19.6686  -27.3202   20.6749 H   0  0  0  0  0  0
  -17.4198  -26.6675   21.4025 H   0  0  0  0  0  0
  -18.0326  -26.0066   22.9019 H   0  0  0  0  0  0
  -19.7932  -30.7263   24.2280 H   0  0  0  0  0  0
  -17.5012  -31.6268   24.5162 H   0  0  0  0  0  0
  -15.5348  -30.2991   23.7648 H   0  0  0  0  0  0
  -15.8667  -28.0824   22.7063 H   0  0  0  0  0  0
  -24.5906  -30.7058   25.7772 H   0  0  0  0  0  0
  -24.8915  -32.2870   26.4884 H   0  0  0  0  0  0
  -25.8066  -30.8881   27.0209 H   0  0  0  0  0  0
  -26.2880  -29.6779   24.1172 H   0  0  0  0  0  0
  -27.4058  -29.7273   25.4612 H   0  0  0  0  0  0
  -27.8730  -30.4327   23.9313 H   0  0  0  0  0  0
  -27.2662  -33.3616   26.2068 H   0  0  0  0  0  0
  -28.3853  -32.6887   25.0305 H   0  0  0  0  0  0
  -28.0722  -31.8437   26.5388 H   0  0  0  0  0  0
  -28.2617  -38.0085   24.7489 H   0  0  0  0  0  0
  -28.1050  -36.2616   24.6335 H   0  0  0  0  0  0
  -27.2289  -37.1510   25.8872 H   0  0  0  0  0  0
  -20.9346  -29.8746   21.6901 H   0  0  0  0  0  0
  -26.0184  -38.2865   24.1381 H   0  0  0  0  0  0
  -27.4332  -18.5568   21.3130 H   0  0  0  0  0  0
  -27.2255  -21.0171   21.1440 H   0  0  0  0  0  0
  -31.6445  -18.7999   20.3974 H   0  0  0  0  0  0
  -30.1326  -16.9003   20.3086 H   0  0  0  0  0  0
  -29.3498  -15.2356   22.2391 H   0  0  0  0  0  0
  -32.1910  -21.4966   19.3400 H   0  0  0  0  0  0
  -32.3472  -21.5552   21.0999 H   0  0  0  0  0  0
  -30.9506  -23.4343   19.2795 H   0  0  0  0  0  0
  -31.5050  -23.7817   20.8987 H   0  0  0  0  0  0
  -29.4648  -23.0330   21.8594 H   0  0  0  0  0  0
  -27.4868  -23.4949   20.1401 H   0  0  0  0  0  0
  -28.7303  -24.0436   19.0697 H   0  0  0  0  0  0
  -27.5950  -25.3167   21.5650 H   0  0  0  0  0  0
  -29.3109  -25.4285   21.4638 H   0  0  0  0  0  0
  1 25  1  0  0  0
  1 30  2  0  0  0
  1 78  1  0  0  0
  2  3  1  0  0  0
  2 25  1  0  0  0
  2 84  1  0  0  0
  2 85  1  0  0  0
  3  4  1  0  0  0
  3 86  1  0  0  0
  3 87  1  0  0  0
  4  5  1  0  0  0
  4 88  1  0  0  0
  4 89  1  0  0  0
  5  6  1  0  0  0
  5 26  1  0  0  0
  5 90  1  0  0  0
  6 25  1  0  0  0
  6 91  1  0  0  0
  6 92  1  0  0  0
  7  8  2  0  0  0
  7 26  1  0  0  0
  7 29  1  0  0  0
  8  9  1  0  0  0
  8 22  1  0  0  0
  9 10  1  0  0  0
  9 27  2  0  0  0
 10 11  2  0  0  0
 10 15  1  0  0  0
 11 12  1  0  0  0
 11 93  1  0  0  0
 12 13  2  0  0  0
 12 94  1  0  0  0
 13 14  1  0  0  0
 13 31  1  0  0  0
 14 15  2  0  0  0
 14 95  1  0  0  0
 15 96  1  0  0  0
 16 17  2  0  0  0
 16 21  1  0  0  0
 16 31  1  0  0  0
 17 18  1  0  0  0
 17 97  1  0  0  0
 18 19  2  0  0  0
 18 98  1  0  0  0
 19 20  1  0  0  0
 19 24  1  0  0  0
 20 21  2  0  0  0
 20 99  1  0  0  0
 21 23  1  0  0  0
 22 28  1  0  0  0
 22 32  2  0  0  0
 26 27  1  0  0  0
 28100  1  0  0  0
 28101  1  0  0  0
 29102  1  0  0  0
 29103  1  0  0  0
 33 34  1  0  0  0
 33 66  1  0  0  0
 33 70  2  0  0  0
 34 36  1  0  0  0
 34 59  1  0  0  0
 34104  1  0  0  0
 35 44  2  0  0  0
 35 45  1  0  0  0
 35 68  1  0  0  0
 36 56  1  0  0  0
 36105  1  0  0  0
 37 39  1  0  0  0
 37 47  1  0  0  0
 37 66  1  0  0  0
 37106  1  0  0  0
 38 43  2  0  0  0
 38 46  1  0  0  0
 38 47  1  0  0  0
 39 64  1  0  0  0
 39 67  2  0  0  0
 40 52  1  0  0  0
 40 53  2  0  0  0
 40 58  1  0  0  0
 41107  1  0  0  0
 41108  1  0  0  0
 41109  1  0  0  0
 41 48  1  0  0  0
 42 43  1  0  0  0
 42 66  1  0  0  0
 42110  1  0  0  0
 42111  1  0  0  0
 43 44  1  0  0  0
 44112  1  0  0  0
 45 46  2  0  0  0
 45113  1  0  0  0
 46114  1  0  0  0
 47115  1  0  0  0
 47116  1  0  0  0
 48 56  1  0  0  0
 48 65  1  0  0  0
 48117  1  0  0  0
 49 50  1  0  0  0
 49 53  1  0  0  0
 49 64  1  0  0  0
 49118  1  0  0  0
 50 51  1  0  0  0
 50119  1  0  0  0
 50120  1  0  0  0
 51 52  1  0  0  0
 51121  1  0  0  0
 51122  1  0  0  0
 52123  1  0  0  0
 52124  1  0  0  0
 53 54  1  0  0  0
 54 55  2  0  0  0
 54125  1  0  0  0
 55 57  1  0  0  0
 55126  1  0  0  0
 56 69  2  0  0  0
 57 58  2  0  0  0
 57127  1  0  0  0
 58128  1  0  0  0
 59 60  1  0  0  0
 59 61  1  0  0  0
 59 62  1  0  0  0
 60129  1  0  0  0
 60130  1  0  0  0
 60131  1  0  0  0
 61132  1  0  0  0
 61133  1  0  0  0
 61134  1  0  0  0
 62135  1  0  0  0
 62136  1  0  0  0
 62137  1  0  0  0
 63 65  1  0  0  0
 63138  1  0  0  0
 63139  1  0  0  0
 63140  1  0  0  0
 64141  1  0  0  0
 65142  1  0  0  0
 68 83  1  0  0  0
 71 72  2  0  0  0
 71 74  1  0  0  0
 71143  1  0  0  0
 72 75  1  0  0  0
 72144  1  0  0  0
 73 74  2  0  0  0
 73 76  1  0  0  0
 73145  1  0  0  0
 74 77  1  0  0  0
 75 76  2  0  0  0
 75 81  1  0  0  0
 76 79  1  0  0  0
 77 78  2  0  0  0
 77146  1  0  0  0
 78147  1  0  0  0
 79 80  1  0  0  0
 79148  1  0  0  0
 79149  1  0  0  0
 80 81  1  0  0  0
 80150  1  0  0  0
 80151  1  0  0  0
 81 82  1  0  0  0
 81152  1  0  0  0
 82 83  1  0  0  0
 82153  1  0  0  0
 82154  1  0  0  0
 83155  1  0  0  0
 83156  1  0  0  0
M  ISO  4   1 100  68 101  78 100  83 101
M  END
> <chiral flag>
0

> <version>
0

> <s_m_source_file>
/data/baiqing/PycharmProjects/Reinvent-master-3.2/result/LINK_invent/BTK/process_docking_weight1_custom_product_contain_oxygen_bond_distance_aromatic_linkinvent_7_9_3/rearranged_h_0127.sdf

> <i_m_source_file_index>
38

> <r_mmod_Potential_Energy-OPLS-2005>
423.423034667969

> <r_mmod_Stretch_Energy-OPLS-2005>
69.7971878051758

> <r_mmod_Bend_Energy-OPLS-2005>
453.938323974609

> <r_mmod_Torsional_Energy-OPLS-2005>
252.91633605957

> <r_mmod_Improper_Torsional_Energy-OPLS-2005>
5.13730764389038

> <r_mmod_Van_der_Waal_Energy-OPLS-2005>
145.01725769043

> <r_mmod_Electrostatic_Energy-OPLS-2005>
-346.600860595703

> <r_mmod_Solvation_Energy-OPLS-2005>
-189.921493530273

> <b_mmod_Minimization_Converged-OPLS-2005>
0

> <r_mmod_RMS_Derivative-OPLS-2005>
0.303754419088364

$$$$
38
                    3D
 Structure written by MMmdl.
157165  0  0  1  0            999 V2000
  -30.7083  -14.4960   20.6610 C   0  0  0  0  0  0
  -30.4385  -12.3640   19.3944 C   0  0  0  0  0  0
  -29.4857  -12.5198   18.1931 C   0  0  0  0  0  0
  -28.0158  -12.3526   18.6205 C   0  0  0  0  0  0
  -27.6657  -13.1951   19.8724 C   0  0  2  0  0  0
  -28.7090  -12.9677   20.9845 C   0  0  0  0  0  0
  -25.2644  -13.8130   20.5662 C   0  0  0  0  0  0
  -24.1875  -13.0432   20.9149 C   0  0  0  0  0  0
  -24.6407  -11.6888   20.8732 C   0  0  0  0  0  0
  -23.9065  -10.4291   21.0432 C   0  0  0  0  0  0
  -24.3608   -9.4209   21.9221 C   0  0  0  0  0  0
  -23.6292   -8.2236   22.0786 C   0  0  0  0  0  0
  -22.4278   -8.0276   21.3567 C   0  0  0  0  0  0
  -21.9914   -9.0251   20.4673 C   0  0  0  0  0  0
  -22.7237  -10.2134   20.3091 C   0  0  0  0  0  0
  -21.6880   -6.0715   22.5280 C   0  0  0  0  0  0
  -21.4021   -6.5621   23.8200 C   0  0  0  0  0  0
  -21.3652   -5.6785   24.9164 C   0  0  0  0  0  0
  -21.6063   -4.3053   24.7238 C   0  0  0  0  0  0
  -21.8827   -3.8131   23.4367 C   0  0  0  0  0  0
  -21.9193   -4.6938   22.3413 C   0  0  0  0  0  0
  -22.7907  -13.5245   21.1815 C   0  0  0  0  0  0
  -22.1662   -4.2120   21.0998 F   0  0  0  0  0  0
  -21.5636   -3.4546   25.7752 F   0  0  0  0  0  0
  -30.0389  -13.3195   20.4450 N   0  0  0  0  0  0
  -26.3063  -12.9274   20.3366 N   0  0  0  0  0  0
  -25.9324  -11.6449   20.5767 N   0  0  0  0  0  0
  -22.0540  -12.8238   22.0365 N   0  0  0  0  0  0
  -25.4444  -15.1840   20.4072 N   0  0  0  0  0  0
  -31.7319  -14.7873   20.0391 O   0  0  0  0  0  0
  -21.6657   -6.8871   21.4248 O   0  0  0  0  0  0
  -22.3600  -14.5556   20.6671 O   0  0  0  0  0  0
  -24.6197  -31.8640   23.2087 C   0  0  0  0  0  0
  -25.9093  -32.4765   23.8389 C   0  0  1  0  0  0
  -27.2448  -27.4013   20.0983 C   0  0  0  0  0  0
  -25.5912  -33.8563   24.2299 N   0  0  0  0  0  0
  -23.4087  -30.4837   21.5483 C   0  0  2  0  0  0
  -24.8603  -28.9433   20.1118 C   0  0  0  0  0  0
  -22.7450  -29.4593   22.4967 C   0  0  0  0  0  0
  -18.0283  -28.1337   22.8451 C   0  0  0  0  0  0
  -24.1494  -36.7312   23.2630 C   0  0  0  0  0  0
  -25.9406  -30.8155   21.3668 C   0  0  0  0  0  0
  -26.0212  -29.4497   20.7077 C   0  0  0  0  0  0
  -27.2173  -28.6889   20.6905 C   0  0  0  0  0  0
  -26.0661  -26.9159   19.4901 C   0  0  0  0  0  0
  -24.8792  -27.6774   19.4984 C   0  0  0  0  0  0
  -23.6231  -29.8138   20.1638 C   0  0  0  0  0  0
  -25.4093  -36.3053   24.0336 C   0  0  1  0  0  0
  -20.5881  -28.3635   23.1284 C   0  0  2  0  0  0
  -20.6780  -26.9355   22.5405 C   0  0  0  0  0  0
  -19.5768  -26.6343   21.5189 C   0  0  0  0  0  0
  -18.1941  -26.7882   22.1578 C   0  0  0  0  0  0
  -19.1531  -28.8803   23.2854 C   0  0  0  0  0  0
  -18.9459  -30.1412   23.8852 C   0  0  0  0  0  0
  -17.6460  -30.6546   24.0531 C   0  0  0  0  0  0
  -25.9023  -34.9419   23.5107 C   0  0  0  0  0  0
  -16.5355  -29.9022   23.6300 C   0  0  0  0  0  0
  -16.7265  -28.6449   23.0295 C   0  0  0  0  0  0
  -26.4509  -31.6537   25.0711 C   0  0  0  0  0  0
  -25.3739  -31.3634   26.1439 C   0  0  0  0  0  0
  -27.0388  -30.2986   24.6121 C   0  0  0  0  0  0
  -27.6103  -32.4243   25.7461 C   0  0  0  0  0  0
  -27.5563  -37.1800   24.8450 C   0  0  0  0  0  0
  -21.4178  -29.3016   22.3709 N   0  0  0  0  0  0
  -26.4275  -37.3747   23.9398 N   0  0  0  0  0  0
  -24.6736  -31.0690   22.1001 N   0  0  0  0  0  0
  -23.4203  -28.8111   23.3009 O   0  0  0  0  0  0
  -28.4075  -26.6355   20.1502 O   0  0  0  0  0  0
  -26.5582  -34.8866   22.4663 O   0  0  0  0  0  0
  -23.5392  -32.1411   23.7493 O   0  0  0  0  0  0
  -30.5755  -18.2049   19.8939 C   0  0  0  0  0  0
  -30.3473  -19.5777   19.4818 C   0  0  0  0  0  0
  -29.9673  -17.8657   21.0760 C   0  0  0  0  0  0
  -29.5006  -20.2810   20.3285 C   0  0  0  0  0  0
  -29.9088  -16.6399   21.8501 C   0  0  0  0  0  0
  -30.1753  -15.3032   21.7648 C   0  0  0  0  0  0
  -28.8824  -21.6059   20.2044 C   0  0  0  0  0  0
  -32.4169  -19.7798   18.0130 C   0  0  0  0  0  0
  -30.9459  -20.1653   18.2248 C   0  0  0  0  0  0
  -29.7704  -22.8656   20.2853 C   0  0  0  0  0  0
  -29.1760  -24.1534   20.9832 C   0  0  0  0  0  0
  -28.3005  -25.1804   20.1595 C   0  0  0  0  0  0
  -27.2304  -21.7056   19.9545 S   0  0  0  0  0  0
  -29.0772  -19.2470   21.6869 S   0  0  0  0  0  0
  -31.4689  -12.5112   19.0651 H   0  0  0  0  0  0
  -30.3934  -11.3442   19.7831 H   0  0  0  0  0  0
  -29.7307  -11.7851   17.4246 H   0  0  0  0  0  0
  -29.6227  -13.5021   17.7396 H   0  0  0  0  0  0
  -27.8466  -11.2923   18.8252 H   0  0  0  0  0  0
  -27.3501  -12.6096   17.7971 H   0  0  0  0  0  0
  -27.7165  -14.2441   19.5781 H   0  0  0  0  0  0
  -28.7030  -11.9204   21.2947 H   0  0  0  0  0  0
  -28.4143  -13.5277   21.8699 H   0  0  0  0  0  0
  -25.2760   -9.5668   22.4790 H   0  0  0  0  0  0
  -24.0005   -7.4632   22.7497 H   0  0  0  0  0  0
  -21.0865   -8.8771   19.8974 H   0  0  0  0  0  0
  -22.3716  -10.9669   19.6193 H   0  0  0  0  0  0
  -21.2009   -7.6125   23.9682 H   0  0  0  0  0  0
  -21.1478   -6.0530   25.9065 H   0  0  0  0  0  0
  -22.0612   -2.7591   23.2886 H   0  0  0  0  0  0
  -22.4148  -11.9860   22.4678 H   0  0  0  0  0  0
  -21.1175  -13.1303   22.2617 H   0  0  0  0  0  0
  -24.6971  -15.8586   20.5298 H   0  0  0  0  0  0
  -26.3177  -15.6076   20.1176 H   0  0  0  0  0  0
  -26.7148  -32.5502   23.1139 H   0  0  0  0  0  0
  -25.0124  -33.9735   25.0482 H   0  0  0  0  0  0
  -22.6954  -31.2990   21.4054 H   0  0  0  0  0  0
  -23.3733  -35.9673   23.3293 H   0  0  0  0  0  0
  -24.3594  -36.8943   22.2045 H   0  0  0  0  0  0
  -23.7306  -37.6527   23.6670 H   0  0  0  0  0  0
  -26.0596  -31.5837   20.6016 H   0  0  0  0  0  0
  -26.8258  -30.8700   21.9901 H   0  0  0  0  0  0
  -28.1136  -29.0741   21.1528 H   0  0  0  0  0  0
  -26.0585  -25.9488   19.0082 H   0  0  0  0  0  0
  -23.9868  -27.2843   19.0270 H   0  0  0  0  0  0
  -23.7354  -30.5916   19.4097 H   0  0  0  0  0  0
  -22.7478  -29.2401   19.8578 H   0  0  0  0  0  0
  -25.1281  -36.1923   25.0842 H   0  0  0  0  0  0
  -20.9938  -28.3230   24.1416 H   0  0  0  0  0  0
  -20.5667  -26.2231   23.3605 H   0  0  0  0  0  0
  -21.6648  -26.7386   22.1188 H   0  0  0  0  0  0
  -19.6927  -25.6257   21.1226 H   0  0  0  0  0  0
  -19.6720  -27.3141   20.6715 H   0  0  0  0  0  0
  -17.4201  -26.6592   21.3998 H   0  0  0  0  0  0
  -18.0347  -26.0009   22.8960 H   0  0  0  0  0  0
  -19.7941  -30.7249   24.2176 H   0  0  0  0  0  0
  -17.5009  -31.6228   24.5159 H   0  0  0  0  0  0
  -15.5344  -30.2901   23.7676 H   0  0  0  0  0  0
  -15.8662  -28.0807   22.6942 H   0  0  0  0  0  0
  -24.5954  -30.6935   25.7751 H   0  0  0  0  0  0
  -24.8866  -32.2768   26.4854 H   0  0  0  0  0  0
  -25.8076  -30.8813   27.0211 H   0  0  0  0  0  0
  -26.2967  -29.6681   24.1221 H   0  0  0  0  0  0
  -27.4210  -29.7279   25.4597 H   0  0  0  0  0  0
  -27.8751  -30.4283   23.9252 H   0  0  0  0  0  0
  -27.2783  -33.3575   26.2026 H   0  0  0  0  0  0
  -28.3932  -32.6769   25.0277 H   0  0  0  0  0  0
  -28.0756  -31.8354   26.5371 H   0  0  0  0  0  0
  -28.2554  -38.0108   24.7489 H   0  0  0  0  0  0
  -28.1085  -36.2657   24.6294 H   0  0  0  0  0  0
  -27.2300  -37.1469   25.8849 H   0  0  0  0  0  0
  -20.9361  -29.8729   21.6920 H   0  0  0  0  0  0
  -26.0170  -38.2820   24.1397 H   0  0  0  0  0  0
  -31.1804  -17.5199   19.3171 H   0  0  0  0  0  0
  -29.5301  -16.8661   22.8384 H   0  0  0  0  0  0
  -29.9808  -14.7461   22.6697 H   0  0  0  0  0  0
  -32.8355  -20.3074   17.1551 H   0  0  0  0  0  0
  -32.5279  -18.7132   17.8202 H   0  0  0  0  0  0
  -33.0270  -20.0348   18.8818 H   0  0  0  0  0  0
  -30.9076  -21.2527   18.2444 H   0  0  0  0  0  0
  -30.3587  -19.8750   17.3526 H   0  0  0  0  0  0
  -30.1136  -23.1181   19.2825 H   0  0  0  0  0  0
  -30.6642  -22.5734   20.8370 H   0  0  0  0  0  0
  -30.0207  -24.6981   21.4116 H   0  0  0  0  0  0
  -28.6199  -23.7987   21.8565 H   0  0  0  0  0  0
  -29.1649  -25.3492   19.5166 H   0  0  0  0  0  0
  -27.9981  -25.5050   21.1578 H   0  0  0  0  0  0
  1 25  1  0  0  0
  1 30  2  0  0  0
  1 76  1  0  0  0
  2  3  1  0  0  0
  2 25  1  0  0  0
  2 85  1  0  0  0
  2 86  1  0  0  0
  3  4  1  0  0  0
  3 87  1  0  0  0
  3 88  1  0  0  0
  4  5  1  0  0  0
  4 89  1  0  0  0
  4 90  1  0  0  0
  5  6  1  0  0  0
  5 26  1  0  0  0
  5 91  1  0  0  0
  6 25  1  0  0  0
  6 92  1  0  0  0
  6 93  1  0  0  0
  7  8  2  0  0  0
  7 26  1  0  0  0
  7 29  1  0  0  0
  8  9  1  0  0  0
  8 22  1  0  0  0
  9 10  1  0  0  0
  9 27  2  0  0  0
 10 11  2  0  0  0
 10 15  1  0  0  0
 11 12  1  0  0  0
 11 94  1  0  0  0
 12 13  2  0  0  0
 12 95  1  0  0  0
 13 14  1  0  0  0
 13 31  1  0  0  0
 14 15  2  0  0  0
 14 96  1  0  0  0
 15 97  1  0  0  0
 16 17  2  0  0  0
 16 21  1  0  0  0
 16 31  1  0  0  0
 17 18  1  0  0  0
 17 98  1  0  0  0
 18 19  2  0  0  0
 18 99  1  0  0  0
 19 20  1  0  0  0
 19 24  1  0  0  0
 20 21  2  0  0  0
 20100  1  0  0  0
 21 23  1  0  0  0
 22 28  1  0  0  0
 22 32  2  0  0  0
 26 27  1  0  0  0
 28101  1  0  0  0
 28102  1  0  0  0
 29103  1  0  0  0
 29104  1  0  0  0
 33 34  1  0  0  0
 33 66  1  0  0  0
 33 70  2  0  0  0
 34 36  1  0  0  0
 34 59  1  0  0  0
 34105  1  0  0  0
 35 44  2  0  0  0
 35 45  1  0  0  0
 35 68  1  0  0  0
 36 56  1  0  0  0
 36106  1  0  0  0
 37 39  1  0  0  0
 37 47  1  0  0  0
 37 66  1  0  0  0
 37107  1  0  0  0
 38 43  2  0  0  0
 38 46  1  0  0  0
 38 47  1  0  0  0
 39 64  1  0  0  0
 39 67  2  0  0  0
 40 52  1  0  0  0
 40 53  2  0  0  0
 40 58  1  0  0  0
 41108  1  0  0  0
 41109  1  0  0  0
 41110  1  0  0  0
 41 48  1  0  0  0
 42 43  1  0  0  0
 42 66  1  0  0  0
 42111  1  0  0  0
 42112  1  0  0  0
 43 44  1  0  0  0
 44113  1  0  0  0
 45 46  2  0  0  0
 45114  1  0  0  0
 46115  1  0  0  0
 47116  1  0  0  0
 47117  1  0  0  0
 48 56  1  0  0  0
 48 65  1  0  0  0
 48118  1  0  0  0
 49 50  1  0  0  0
 49 53  1  0  0  0
 49 64  1  0  0  0
 49119  1  0  0  0
 50 51  1  0  0  0
 50120  1  0  0  0
 50121  1  0  0  0
 51 52  1  0  0  0
 51122  1  0  0  0
 51123  1  0  0  0
 52124  1  0  0  0
 52125  1  0  0  0
 53 54  1  0  0  0
 54 55  2  0  0  0
 54126  1  0  0  0
 55 57  1  0  0  0
 55127  1  0  0  0
 56 69  2  0  0  0
 57 58  2  0  0  0
 57128  1  0  0  0
 58129  1  0  0  0
 59 60  1  0  0  0
 59 61  1  0  0  0
 59 62  1  0  0  0
 60130  1  0  0  0
 60131  1  0  0  0
 60132  1  0  0  0
 61133  1  0  0  0
 61134  1  0  0  0
 61135  1  0  0  0
 62136  1  0  0  0
 62137  1  0  0  0
 62138  1  0  0  0
 63 65  1  0  0  0
 63139  1  0  0  0
 63140  1  0  0  0
 63141  1  0  0  0
 64142  1  0  0  0
 65143  1  0  0  0
 68 82  1  0  0  0
 71 72  1  0  0  0
 71 73  2  0  0  0
 71144  1  0  0  0
 72 74  2  0  0  0
 72 79  1  0  0  0
 73 75  1  0  0  0
 73 84  1  0  0  0
 74 77  1  0  0  0
 74 84  1  0  0  0
 75 76  2  0  0  0
 75145  1  0  0  0
 76146  1  0  0  0
 77 80  1  0  0  0
 77 83  2  0  0  0
 78 79  1  0  0  0
 78147  1  0  0  0
 78148  1  0  0  0
 78149  1  0  0  0
 79150  1  0  0  0
 79151  1  0  0  0
 80 81  1  0  0  0
 80152  1  0  0  0
 80153  1  0  0  0
 81 82  1  0  0  0
 81154  1  0  0  0
 81155  1  0  0  0
 82156  1  0  0  0
 82157  1  0  0  0
M  ISO  4   1 100  68 101  76 100  82 101
M  END
> <chiral flag>
0

> <version>
0

> <s_m_source_file>
/data/baiqing/PycharmProjects/Reinvent-master-3.2/result/LINK_invent/BTK/process_docking_weight1_custom_product_contain_oxygen_bond_distance_aromatic_linkinvent_7_9_3/rearranged_h_0127.sdf

> <i_m_source_file_index>
39

> <r_mmod_Potential_Energy-OPLS-2005>
276.120697021484

> <r_mmod_Stretch_Energy-OPLS-2005>
54.3447303771973

> <r_mmod_Bend_Energy-OPLS-2005>
367.099212646484

> <r_mmod_Torsional_Energy-OPLS-2005>
225.163787841797

> <r_mmod_Improper_Torsional_Energy-OPLS-2005>
2.66753888130188

> <r_mmod_Van_der_Waal_Energy-OPLS-2005>
137.912933349609

> <r_mmod_Electrostatic_Energy-OPLS-2005>
-333.115661621094

> <r_mmod_Solvation_Energy-OPLS-2005>
-196.596252441406

> <b_mmod_Minimization_Converged-OPLS-2005>
0

> <r_mmod_RMS_Derivative-OPLS-2005>
4.04883766174316

$$$$
39
                    3D
 Structure written by MMmdl.
158166  0  0  1  0            999 V2000
  -28.2678  -16.9624   21.0948 C   0  0  0  0  0  0
  -29.7719  -14.4232   19.9292 C   0  0  0  0  0  0
  -29.4574  -13.3246   18.7455 C   0  0  0  0  0  0
  -28.2366  -12.4593   19.0391 C   0  0  0  0  0  0
  -27.3938  -13.3832   19.9033 C   0  0  2  0  0  0
  -28.0351  -14.0267   21.1630 C   0  0  0  0  0  0
  -25.0983  -13.8142   20.5501 C   0  0  0  0  0  0
  -24.0768  -13.0165   20.9281 C   0  0  0  0  0  0
  -24.5745  -11.6756   20.8772 C   0  0  0  0  0  0
  -23.8732  -10.4114   21.0457 C   0  0  0  0  0  0
  -24.3441   -9.4100   21.9209 C   0  0  0  0  0  0
  -23.6194   -8.2103   22.0753 C   0  0  0  0  0  0
  -22.4178   -8.0125   21.3536 C   0  0  0  0  0  0
  -21.9735   -9.0041   20.4630 C   0  0  0  0  0  0
  -22.6974  -10.1939   20.3053 C   0  0  0  0  0  0
  -21.6807   -6.0649   22.5298 C   0  0  0  0  0  0
  -21.3978   -6.5587   23.8219 C   0  0  0  0  0  0
  -21.3650   -5.6760   24.9194 C   0  0  0  0  0  0
  -21.6048   -4.3022   24.7258 C   0  0  0  0  0  0
  -21.8824   -3.8092   23.4386 C   0  0  0  0  0  0
  -21.9178   -4.6890   22.3432 C   0  0  0  0  0  0
  -22.6932  -13.4923   21.2083 C   0  0  0  0  0  0
  -22.1654   -4.2080   21.1009 F   0  0  0  0  0  0
  -21.5638   -3.4519   25.7780 F   0  0  0  0  0  0
  -28.5854  -15.3472   20.7231 N   0  0  0  0  0  0
  -26.1251  -12.9447   20.2870 N   0  0  0  0  0  0
  -25.8586  -11.6518   20.5501 N   0  0  0  0  0  0
  -21.9751  -12.7939   22.0749 N   0  0  0  0  0  0
  -25.2437  -15.1951   20.3934 N   0  0  0  0  0  0
  -29.5735  -17.0147   20.8711 O   0  0  0  0  0  0
  -21.6565   -6.8735   21.4239 O   0  0  0  0  0  0
  -22.2688  -14.5280   20.6970 O   0  0  0  0  0  0
  -24.8087  -31.9170   23.2788 C   0  0  0  0  0  0
  -26.0282  -32.5511   23.9404 C   0  0  1  0  0  0
  -25.9118  -27.4408   20.3013 C   0  0  0  0  0  0
  -25.6514  -33.9137   24.3011 N   0  0  0  0  0  0
  -24.0527  -30.2661   21.7491 C   0  0  2  0  0  0
  -25.3377  -29.7499   19.6035 C   0  0  0  0  0  0
  -24.2695  -28.7438   22.6225 C   0  0  0  0  0  0
  -18.4895  -26.9724   23.0991 C   0  0  0  0  0  0
  -24.1493  -36.7463   23.2529 C   0  0  0  0  0  0
  -26.3733  -30.8689   21.5848 C   0  0  0  0  0  0
  -26.3097  -29.7130   20.5945 C   0  0  0  0  0  0
  -26.7604  -28.4342   20.8847 C   0  0  0  0  0  0
  -26.0150  -27.5006   18.9368 C   0  0  0  0  0  0
  -25.3221  -28.7059   18.6059 C   0  0  0  0  0  0
  -24.2132  -30.5779   20.1333 C   0  0  0  0  0  0
  -25.4073  -36.3379   24.0337 C   0  0  1  0  0  0
  -21.8335  -26.8640   21.9164 C   0  0  2  0  0  0
  -21.4573  -25.4160   20.6375 C   0  0  0  0  0  0
  -19.5372  -24.6119   20.8819 C   0  0  0  0  0  0
  -18.3482  -25.3778   22.2988 C   0  0  0  0  0  0
  -19.9165  -27.6096   23.2255 C   0  0  0  0  0  0
  -19.5462  -28.9918   23.8651 C   0  0  0  0  0  0
  -18.3057  -29.7554   23.9666 C   0  0  0  0  0  0
  -25.9085  -34.9752   23.5312 C   0  0  0  0  0  0
  -17.1140  -29.1642   23.5534 C   0  0  0  0  0  0
  -17.2443  -27.7961   23.1731 C   0  0  0  0  0  0
  -26.5155  -31.7085   25.1731 C   0  0  0  0  0  0
  -25.3980  -31.3875   26.1927 C   0  0  0  0  0  0
  -27.1857  -30.3737   24.7590 C   0  0  0  0  0  0
  -27.6258  -32.5017   25.8868 C   0  0  0  0  0  0
  -27.5581  -37.1948   24.8455 C   0  0  0  0  0  0
  -23.5693  -27.4148   22.4087 N   0  0  0  0  0  0
  -26.4291  -37.4008   23.9410 N   0  0  0  0  0  0
  -25.0722  -31.0849   22.2608 N   0  0  0  0  0  0
  -24.4278  -28.8740   23.8110 O   0  0  0  0  0  0
  -24.4118  -27.4756   20.2654 O   0  0  0  0  0  0
  -26.5375  -34.9009   22.4715 O   0  0  0  0  0  0
  -23.6676  -32.1472   23.7228 O   0  0  0  0  0  0
  -23.6492  -23.7190   23.2419 C   0  0  0  0  0  0
  -21.2857  -23.4063   22.5621 C   0  0  0  0  0  0
  -24.0893  -22.0380   22.5765 C   0  0  0  0  0  0
  -22.3296  -25.0509   23.5435 C   0  0  0  0  0  0
  -22.5001  -22.2696   22.4302 C   0  0  0  0  0  0
  -20.8777  -24.9803   22.8270 C   0  0  0  0  0  0
  -25.7149  -20.1632   22.0501 C   0  0  0  0  0  0
  -26.6694  -18.5088   21.5875 C   0  0  0  0  0  0
  -21.8939  -20.9210   22.0855 C   0  0  0  0  0  0
  -19.7505  -26.8284   21.0661 C   0  0  0  0  0  0
  -22.1358  -27.0437   24.1874 C   0  0  0  0  0  0
  -21.8590  -28.9759   22.6119 C   0  0  0  0  0  0
  -22.7793  -28.5192   20.5221 C   0  0  0  0  0  0
  -30.4311  -15.1528   19.4542 H   0  0  0  0  0  0
  -30.4388  -13.9720   20.6689 H   0  0  0  0  0  0
  -30.3345  -12.7098   18.5456 H   0  0  0  0  0  0
  -29.2682  -13.8777   17.8247 H   0  0  0  0  0  0
  -28.5190  -11.5708   19.6028 H   0  0  0  0  0  0
  -27.7255  -12.1431   18.1300 H   0  0  0  0  0  0
  -27.1722  -14.1831   19.1910 H   0  0  0  0  0  0
  -28.7045  -13.3536   21.7053 H   0  0  0  0  0  0
  -27.2946  -14.2856   21.9223 H   0  0  0  0  0  0
  -25.2570   -9.5662   22.4787 H   0  0  0  0  0  0
  -23.9932   -7.4498   22.7463 H   0  0  0  0  0  0
  -21.0667   -8.8494   19.8946 H   0  0  0  0  0  0
  -22.3386  -10.9471   19.6175 H   0  0  0  0  0  0
  -21.1954   -7.6094   23.9701 H   0  0  0  0  0  0
  -21.1479   -6.0499   25.9095 H   0  0  0  0  0  0
  -22.0618   -2.7553   23.2909 H   0  0  0  0  0  0
  -22.3435  -11.9602   22.5079 H   0  0  0  0  0  0
  -21.0414  -13.0979   22.3118 H   0  0  0  0  0  0
  -24.4307  -15.8002   20.4329 H   0  0  0  0  0  0
  -26.0144  -15.5956   19.8762 H   0  0  0  0  0  0
  -26.8756  -32.6212   23.2592 H   0  0  0  0  0  0
  -25.0908  -34.0363   25.1315 H   0  0  0  0  0  0
  -23.1290  -30.8135   21.8869 H   0  0  0  0  0  0
  -23.3771  -35.9781   23.3230 H   0  0  0  0  0  0
  -24.3642  -36.8970   22.1937 H   0  0  0  0  0  0
  -23.7200  -37.6700   23.6426 H   0  0  0  0  0  0
  -26.6449  -31.7765   21.0416 H   0  0  0  0  0  0
  -27.1980  -30.6755   22.2584 H   0  0  0  0  0  0
  -27.3549  -28.2252   21.7631 H   0  0  0  0  0  0
  -25.7633  -26.6518   18.3151 H   0  0  0  0  0  0
  -24.6231  -28.7175   17.7808 H   0  0  0  0  0  0
  -24.5525  -31.6107   20.0160 H   0  0  0  0  0  0
  -23.3702  -30.7542   19.4726 H   0  0  0  0  0  0
  -25.1171  -36.2362   25.0816 H   0  0  0  0  0  0
  -22.7137  -26.2315   21.8232 H   0  0  0  0  0  0
  -22.2263  -24.6386   20.6525 H   0  0  0  0  0  0
  -21.6035  -25.7413   19.6043 H   0  0  0  0  0  0
  -19.4744  -23.5273   20.8050 H   0  0  0  0  0  0
  -19.0143  -24.7962   19.9382 H   0  0  0  0  0  0
  -17.3379  -25.3363   21.8927 H   0  0  0  0  0  0
  -18.3043  -24.6516   23.1106 H   0  0  0  0  0  0
  -20.3392  -29.5895   24.2796 H   0  0  0  0  0  0
  -18.3165  -30.7610   24.3659 H   0  0  0  0  0  0
  -16.1637  -29.6782   23.5767 H   0  0  0  0  0  0
  -16.3279  -27.2968   22.8873 H   0  0  0  0  0  0
  -24.6559  -30.6966   25.7936 H   0  0  0  0  0  0
  -24.8725  -32.2887   26.5087 H   0  0  0  0  0  0
  -25.8034  -30.9230   27.0923 H   0  0  0  0  0  0
  -26.5727  -29.7283   24.1497 H   0  0  0  0  0  0
  -27.4551  -29.7880   25.6386 H   0  0  0  0  0  0
  -28.1196  -30.5462   24.2228 H   0  0  0  0  0  0
  -27.2502  -33.4228   26.3340 H   0  0  0  0  0  0
  -28.4294  -32.7784   25.2033 H   0  0  0  0  0  0
  -28.0765  -31.9272   26.6976 H   0  0  0  0  0  0
  -28.2604  -38.0248   24.7560 H   0  0  0  0  0  0
  -28.1090  -36.2794   24.6237 H   0  0  0  0  0  0
  -27.2290  -37.1536   25.8852 H   0  0  0  0  0  0
  -23.9846  -26.7055   22.9946 H   0  0  0  0  0  0
  -26.0229  -38.3102   24.1444 H   0  0  0  0  0  0
  -24.5689  -24.1181   23.6437 H   0  0  0  0  0  0
  -20.3689  -22.8584   22.4346 H   0  0  0  0  0  0
  -24.8292  -19.5466   21.9849 H   0  0  0  0  0  0
  -25.8258  -17.8425   21.4727 H   0  0  0  0  0  0
  -20.9845  -21.0108   21.4938 H   0  0  0  0  0  0
  -21.6539  -20.3871   23.0065 H   0  0  0  0  0  0
  -22.5856  -20.3010   21.5172 H   0  0  0  0  0  0
  -18.6877  -26.9728   20.8148 H   0  0  0  0  0  0
  -19.8691  -26.7750   19.9707 H   0  0  0  0  0  0
  -20.0328  -27.8880   20.9917 H   0  0  0  0  0  0
  -23.0144  -27.2089   24.8140 H   0  0  0  0  0  0
  -21.4004  -27.0520   24.9936 H   0  0  0  0  0  0
  -22.0826  -29.8654   23.2033 H   0  0  0  0  0  0
  -20.9610  -29.3661   22.1314 H   0  0  0  0  0  0
  -22.4033  -29.1782   19.7591 H   0  0  0  0  0  0
  -22.1387  -27.8635   19.9333 H   0  0  0  0  0  0
  1 25  1  0  0  0
  1 30  2  0  0  0
  1 78  1  0  0  0
  2  3  1  0  0  0
  2 25  1  0  0  0
  2 84  1  0  0  0
  2 85  1  0  0  0
  3  4  1  0  0  0
  3 86  1  0  0  0
  3 87  1  0  0  0
  4  5  1  0  0  0
  4 88  1  0  0  0
  4 89  1  0  0  0
  5  6  1  0  0  0
  5 26  1  0  0  0
  5 90  1  0  0  0
  6 25  1  0  0  0
  6 91  1  0  0  0
  6 92  1  0  0  0
  7  8  2  0  0  0
  7 26  1  0  0  0
  7 29  1  0  0  0
  8  9  1  0  0  0
  8 22  1  0  0  0
  9 10  1  0  0  0
  9 27  2  0  0  0
 10 11  2  0  0  0
 10 15  1  0  0  0
 11 12  1  0  0  0
 11 93  1  0  0  0
 12 13  2  0  0  0
 12 94  1  0  0  0
 13 14  1  0  0  0
 13 31  1  0  0  0
 14 15  2  0  0  0
 14 95  1  0  0  0
 15 96  1  0  0  0
 16 17  2  0  0  0
 16 21  1  0  0  0
 16 31  1  0  0  0
 17 18  1  0  0  0
 17 97  1  0  0  0
 18 19  2  0  0  0
 18 98  1  0  0  0
 19 20  1  0  0  0
 19 24  1  0  0  0
 20 21  2  0  0  0
 20 99  1  0  0  0
 21 23  1  0  0  0
 22 28  1  0  0  0
 22 32  2  0  0  0
 26 27  1  0  0  0
 28100  1  0  0  0
 28101  1  0  0  0
 29102  1  0  0  0
 29103  1  0  0  0
 33 34  1  0  0  0
 33 66  1  0  0  0
 33 70  2  0  0  0
 34 36  1  0  0  0
 34 59  1  0  0  0
 34104  1  0  0  0
 35 44  2  0  0  0
 35 45  1  0  0  0
 35 68  1  0  0  0
 36 56  1  0  0  0
 36105  1  0  0  0
 37 39  1  0  0  0
 37 47  1  0  0  0
 37 66  1  0  0  0
 37106  1  0  0  0
 38 43  2  0  0  0
 38 46  1  0  0  0
 38 47  1  0  0  0
 39 64  1  0  0  0
 39 67  2  0  0  0
 40 52  1  0  0  0
 40 53  2  0  0  0
 40 58  1  0  0  0
 41107  1  0  0  0
 41108  1  0  0  0
 41109  1  0  0  0
 41 48  1  0  0  0
 42 43  1  0  0  0
 42 66  1  0  0  0
 42110  1  0  0  0
 42111  1  0  0  0
 43 44  1  0  0  0
 44112  1  0  0  0
 45 46  2  0  0  0
 45113  1  0  0  0
 46114  1  0  0  0
 47115  1  0  0  0
 47116  1  0  0  0
 48 56  1  0  0  0
 48 65  1  0  0  0
 48117  1  0  0  0
 49 50  1  0  0  0
 49 53  1  0  0  0
 49 64  1  0  0  0
 49118  1  0  0  0
 50 51  1  0  0  0
 50119  1  0  0  0
 50120  1  0  0  0
 51 52  1  0  0  0
 51121  1  0  0  0
 51122  1  0  0  0
 52123  1  0  0  0
 52124  1  0  0  0
 53 54  1  0  0  0
 54 55  2  0  0  0
 54125  1  0  0  0
 55 57  1  0  0  0
 55126  1  0  0  0
 56 69  2  0  0  0
 57 58  2  0  0  0
 57127  1  0  0  0
 58128  1  0  0  0
 59 60  1  0  0  0
 59 61  1  0  0  0
 59 62  1  0  0  0
 60129  1  0  0  0
 60130  1  0  0  0
 60131  1  0  0  0
 61132  1  0  0  0
 61133  1  0  0  0
 61134  1  0  0  0
 62135  1  0  0  0
 62136  1  0  0  0
 62137  1  0  0  0
 63 65  1  0  0  0
 63138  1  0  0  0
 63139  1  0  0  0
 63140  1  0  0  0
 64141  1  0  0  0
 65142  1  0  0  0
 68 83  1  0  0  0
 71 73  2  0  0  0
 71 74  1  0  0  0
 71143  1  0  0  0
 72 75  2  0  0  0
 72 76  1  0  0  0
 72144  1  0  0  0
 73 75  1  0  0  0
 73 77  1  0  0  0
 74 76  2  0  0  0
 74 81  1  0  0  0
 75 79  1  0  0  0
 76 80  1  0  0  0
 77 78  2  0  0  0
 77145  1  0  0  0
 78146  1  0  0  0
 79147  1  0  0  0
 79148  1  0  0  0
 79149  1  0  0  0
 80150  1  0  0  0
 80151  1  0  0  0
 80152  1  0  0  0
 81 82  1  0  0  0
 81153  1  0  0  0
 81154  1  0  0  0
 82 83  1  0  0  0
 82155  1  0  0  0
 82156  1  0  0  0
 83157  1  0  0  0
 83158  1  0  0  0
M  ISO  4   1 100  68 101  78 100  83 101
M  END
> <chiral flag>
0

> <version>
0

> <s_m_source_file>
/data/baiqing/PycharmProjects/Reinvent-master-3.2/result/LINK_invent/BTK/process_docking_weight1_custom_product_contain_oxygen_bond_distance_aromatic_linkinvent_7_9_3/rearranged_h_0127.sdf

> <i_m_source_file_index>
40

> <r_mmod_Potential_Energy-OPLS-2005>
30295.689453125

> <r_mmod_Stretch_Energy-OPLS-2005>
12921.44921875

> <r_mmod_Bend_Energy-OPLS-2005>
2828.60473632812

> <r_mmod_Torsional_Energy-OPLS-2005>
717.872314453125

> <r_mmod_Improper_Torsional_Energy-OPLS-2005>
126.119422912598

> <r_mmod_Van_der_Waal_Energy-OPLS-2005>
3839.94091796875

> <r_mmod_Electrostatic_Energy-OPLS-2005>
-351.623168945312

> <r_mmod_Solvation_Energy-OPLS-2005>
-174.707580566406

> <b_mmod_Minimization_Converged-OPLS-2005>
0

> <r_mmod_RMS_Derivative-OPLS-2005>
4.68866443634033

$$$$
40
                    3D
 Structure written by MMmdl.
157165  0  0  1  0            999 V2000
  -30.7225  -14.4934   20.5500 C   0  0  0  0  0  0
  -30.4129  -12.3113   19.4487 C   0  0  0  0  0  0
  -29.5001  -12.4983   18.2203 C   0  0  0  0  0  0
  -28.0191  -12.3632   18.6245 C   0  0  0  0  0  0
  -27.6573  -13.2179   19.8702 C   0  0  2  0  0  0
  -28.6947  -13.0413   21.0008 C   0  0  0  0  0  0
  -25.2572  -13.8193   20.5687 C   0  0  0  0  0  0
  -24.1833  -13.0453   20.9180 C   0  0  0  0  0  0
  -24.6397  -11.6920   20.8727 C   0  0  0  0  0  0
  -23.9067  -10.4298   21.0402 C   0  0  0  0  0  0
  -24.3619   -9.4213   21.9180 C   0  0  0  0  0  0
  -23.6297   -8.2250   22.0752 C   0  0  0  0  0  0
  -22.4280   -8.0286   21.3543 C   0  0  0  0  0  0
  -21.9909   -9.0261   20.4649 C   0  0  0  0  0  0
  -22.7237  -10.2141   20.3054 C   0  0  0  0  0  0
  -21.6854   -6.0738   22.5281 C   0  0  0  0  0  0
  -21.4017   -6.5641   23.8216 C   0  0  0  0  0  0
  -21.3659   -5.6793   24.9178 C   0  0  0  0  0  0
  -21.6045   -4.3057   24.7226 C   0  0  0  0  0  0
  -21.8819   -3.8149   23.4347 C   0  0  0  0  0  0
  -21.9194   -4.6967   22.3405 C   0  0  0  0  0  0
  -22.7853  -13.5242   21.1845 C   0  0  0  0  0  0
  -22.1662   -4.2150   21.0987 F   0  0  0  0  0  0
  -21.5628   -3.4542   25.7739 F   0  0  0  0  0  0
  -30.0254  -13.3258   20.4452 N   0  0  0  0  0  0
  -26.3006  -12.9378   20.3347 N   0  0  0  0  0  0
  -25.9326  -11.6527   20.5756 N   0  0  0  0  0  0
  -22.0501  -12.8232   22.0407 N   0  0  0  0  0  0
  -25.4309  -15.1913   20.4132 N   0  0  0  0  0  0
  -31.8578  -14.6241   20.0868 O   0  0  0  0  0  0
  -21.6642   -6.8881   21.4240 O   0  0  0  0  0  0
  -22.3529  -14.5546   20.6703 O   0  0  0  0  0  0
  -24.6173  -31.8651   23.2090 C   0  0  0  0  0  0
  -25.9053  -32.4808   23.8380 C   0  0  1  0  0  0
  -27.2267  -27.4062   20.0990 C   0  0  0  0  0  0
  -25.5901  -33.8607   24.2314 N   0  0  0  0  0  0
  -23.4045  -30.4903   21.5502 C   0  0  2  0  0  0
  -24.8478  -28.9524   20.1136 C   0  0  0  0  0  0
  -22.7413  -29.4647   22.4982 C   0  0  0  0  0  0
  -18.0271  -28.1379   22.8483 C   0  0  0  0  0  0
  -24.1493  -36.7316   23.2639 C   0  0  0  0  0  0
  -25.9345  -30.8251   21.3626 C   0  0  0  0  0  0
  -26.0095  -29.4568   20.7098 C   0  0  0  0  0  0
  -27.2001  -28.6911   20.6972 C   0  0  0  0  0  0
  -26.0433  -26.9228   19.4955 C   0  0  0  0  0  0
  -24.8604  -27.6873   19.5033 C   0  0  0  0  0  0
  -23.6117  -29.8234   20.1640 C   0  0  0  0  0  0
  -25.4110  -36.3103   24.0339 C   0  0  1  0  0  0
  -20.5855  -28.3672   23.1316 C   0  0  2  0  0  0
  -20.6767  -26.9408   22.5424 C   0  0  0  0  0  0
  -19.5753  -26.6386   21.5215 C   0  0  0  0  0  0
  -18.1923  -26.7929   22.1614 C   0  0  0  0  0  0
  -19.1516  -28.8842   23.2894 C   0  0  0  0  0  0
  -18.9449  -30.1442   23.8913 C   0  0  0  0  0  0
  -17.6454  -30.6587   24.0562 C   0  0  0  0  0  0
  -25.9036  -34.9469   23.5125 C   0  0  0  0  0  0
  -16.5343  -29.9090   23.6318 C   0  0  0  0  0  0
  -16.7262  -28.6504   23.0341 C   0  0  0  0  0  0
  -26.4487  -31.6581   25.0703 C   0  0  0  0  0  0
  -25.3752  -31.3672   26.1449 C   0  0  0  0  0  0
  -27.0305  -30.3024   24.6070 C   0  0  0  0  0  0
  -27.6081  -32.4281   25.7450 C   0  0  0  0  0  0
  -27.5582  -37.1806   24.8464 C   0  0  0  0  0  0
  -21.4138  -29.3029   22.3716 N   0  0  0  0  0  0
  -26.4297  -37.3785   23.9409 N   0  0  0  0  0  0
  -24.6712  -31.0744   22.0995 N   0  0  0  0  0  0
  -23.4172  -28.8188   23.3037 O   0  0  0  0  0  0
  -28.4029  -26.6754   20.1380 O   0  0  0  0  0  0
  -26.5599  -34.8924   22.4687 O   0  0  0  0  0  0
  -23.5361  -32.1419   23.7474 O   0  0  0  0  0  0
  -29.8365  -16.8629   21.4106 C   0  0  0  0  0  0
  -30.0884  -15.7095   21.0704 C   0  0  0  0  0  0
  -29.8778  -20.9608   22.7505 C   0  0  0  0  0  0
  -30.6014  -19.9686   23.4259 C   0  0  0  0  0  0
  -29.8013  -18.2747   21.8501 C   0  0  0  0  0  0
  -29.0878  -20.6566   21.6208 C   0  0  0  0  0  0
  -30.5692  -18.6323   22.9906 C   0  0  0  0  0  0
  -29.0693  -19.2976   21.1556 C   0  0  0  0  0  0
  -28.3190  -21.7771   20.9863 C   0  0  0  0  0  0
  -28.5889  -23.1057   21.0852 C   0  0  0  0  0  0
  -31.3901  -17.6111   23.7701 C   0  0  0  0  0  0
  -28.2629  -18.9321   19.9115 C   0  0  0  0  0  0
  -27.7217  -24.2569   20.5537 C   0  0  0  0  0  0
  -28.4541  -25.3096   19.6664 C   0  0  0  0  0  0
  -31.4621  -12.3813   19.1560 H   0  0  0  0  0  0
  -30.2921  -11.3109   19.8672 H   0  0  0  0  0  0
  -29.7462  -11.7646   17.4516 H   0  0  0  0  0  0
  -29.6751  -13.4793   17.7762 H   0  0  0  0  0  0
  -27.8278  -11.3090   18.8290 H   0  0  0  0  0  0
  -27.3745  -12.6311   17.7864 H   0  0  0  0  0  0
  -27.6916  -14.2609   19.5541 H   0  0  0  0  0  0
  -28.6689  -12.0218   21.3875 H   0  0  0  0  0  0
  -28.4574  -13.6867   21.8478 H   0  0  0  0  0  0
  -25.2767   -9.5692   22.4748 H   0  0  0  0  0  0
  -24.0011   -7.4638   22.7463 H   0  0  0  0  0  0
  -21.0841   -8.8779   19.8951 H   0  0  0  0  0  0
  -22.3696  -10.9680   19.6164 H   0  0  0  0  0  0
  -21.2008   -7.6148   23.9719 H   0  0  0  0  0  0
  -21.1481   -6.0526   25.9082 H   0  0  0  0  0  0
  -22.0597   -2.7610   23.2852 H   0  0  0  0  0  0
  -22.4124  -11.9896   22.4797 H   0  0  0  0  0  0
  -21.1121  -13.1252   22.2624 H   0  0  0  0  0  0
  -24.6714  -15.8528   20.5331 H   0  0  0  0  0  0
  -26.2976  -15.6282   20.1250 H   0  0  0  0  0  0
  -26.7111  -32.5529   23.1129 H   0  0  0  0  0  0
  -25.0078  -33.9762   25.0477 H   0  0  0  0  0  0
  -22.6949  -31.3090   21.4114 H   0  0  0  0  0  0
  -23.3755  -35.9649   23.3316 H   0  0  0  0  0  0
  -24.3580  -36.8909   22.2046 H   0  0  0  0  0  0
  -23.7244  -37.6528   23.6643 H   0  0  0  0  0  0
  -26.0443  -31.5905   20.5926 H   0  0  0  0  0  0
  -26.8240  -30.8816   21.9789 H   0  0  0  0  0  0
  -28.0982  -29.0755   21.1608 H   0  0  0  0  0  0
  -26.0074  -25.9536   19.0225 H   0  0  0  0  0  0
  -23.9646  -27.2949   19.0410 H   0  0  0  0  0  0
  -23.7237  -30.5994   19.4057 H   0  0  0  0  0  0
  -22.7337  -29.2474   19.8657 H   0  0  0  0  0  0
  -25.1281  -36.1968   25.0832 H   0  0  0  0  0  0
  -20.9946  -28.3255   24.1434 H   0  0  0  0  0  0
  -20.5665  -26.2286   23.3612 H   0  0  0  0  0  0
  -21.6637  -26.7444   22.1216 H   0  0  0  0  0  0
  -19.6928  -25.6298   21.1236 H   0  0  0  0  0  0
  -19.6708  -27.3207   20.6753 H   0  0  0  0  0  0
  -17.4193  -26.6672   21.4013 H   0  0  0  0  0  0
  -18.0328  -26.0069   22.9009 H   0  0  0  0  0  0
  -19.7924  -30.7240   24.2308 H   0  0  0  0  0  0
  -17.5009  -31.6268   24.5155 H   0  0  0  0  0  0
  -15.5342  -30.2996   23.7637 H   0  0  0  0  0  0
  -15.8660  -28.0826   22.7056 H   0  0  0  0  0  0
  -24.5954  -30.6979   25.7782 H   0  0  0  0  0  0
  -24.8911  -32.2822   26.4886 H   0  0  0  0  0  0
  -25.8118  -30.8856   27.0209 H   0  0  0  0  0  0
  -26.2827  -29.6777   24.1172 H   0  0  0  0  0  0
  -27.4127  -29.7260   25.4503 H   0  0  0  0  0  0
  -27.8647  -30.4341   23.9174 H   0  0  0  0  0  0
  -27.2733  -33.3579   26.2057 H   0  0  0  0  0  0
  -28.3879  -32.6824   25.0259 H   0  0  0  0  0  0
  -28.0771  -31.8376   26.5328 H   0  0  0  0  0  0
  -28.2611  -38.0092   24.7497 H   0  0  0  0  0  0
  -28.1064  -36.2623   24.6309 H   0  0  0  0  0  0
  -27.2300  -37.1470   25.8866 H   0  0  0  0  0  0
  -20.9313  -29.8734   21.6914 H   0  0  0  0  0  0
  -26.0199  -38.2867   24.1416 H   0  0  0  0  0  0
  -29.9196  -21.9661   23.1437 H   0  0  0  0  0  0
  -31.1831  -20.2457   24.2943 H   0  0  0  0  0  0
  -27.4278  -21.4927   20.4456 H   0  0  0  0  0  0
  -29.4748  -23.4312   21.6098 H   0  0  0  0  0  0
  -31.9032  -18.0712   24.6148 H   0  0  0  0  0  0
  -32.1502  -17.1589   23.1319 H   0  0  0  0  0  0
  -30.7523  -16.8190   24.1639 H   0  0  0  0  0  0
  -28.7686  -18.1748   19.3134 H   0  0  0  0  0  0
  -28.1114  -19.7802   19.2460 H   0  0  0  0  0  0
  -27.2876  -18.5410   20.2005 H   0  0  0  0  0  0
  -27.2950  -24.7599   21.4218 H   0  0  0  0  0  0
  -26.8732  -23.8442   20.0062 H   0  0  0  0  0  0
  -28.1037  -25.2523   18.6350 H   0  0  0  0  0  0
  -29.5107  -25.0485   19.6087 H   0  0  0  0  0  0
  1 25  1  0  0  0
  1 30  2  0  0  0
  1 72  1  0  0  0
  2  3  1  0  0  0
  2 25  1  0  0  0
  2 85  1  0  0  0
  2 86  1  0  0  0
  3  4  1  0  0  0
  3 87  1  0  0  0
  3 88  1  0  0  0
  4  5  1  0  0  0
  4 89  1  0  0  0
  4 90  1  0  0  0
  5  6  1  0  0  0
  5 26  1  0  0  0
  5 91  1  0  0  0
  6 25  1  0  0  0
  6 92  1  0  0  0
  6 93  1  0  0  0
  7  8  2  0  0  0
  7 26  1  0  0  0
  7 29  1  0  0  0
  8  9  1  0  0  0
  8 22  1  0  0  0
  9 10  1  0  0  0
  9 27  2  0  0  0
 10 11  2  0  0  0
 10 15  1  0  0  0
 11 12  1  0  0  0
 11 94  1  0  0  0
 12 13  2  0  0  0
 12 95  1  0  0  0
 13 14  1  0  0  0
 13 31  1  0  0  0
 14 15  2  0  0  0
 14 96  1  0  0  0
 15 97  1  0  0  0
 16 17  2  0  0  0
 16 21  1  0  0  0
 16 31  1  0  0  0
 17 18  1  0  0  0
 17 98  1  0  0  0
 18 19  2  0  0  0
 18 99  1  0  0  0
 19 20  1  0  0  0
 19 24  1  0  0  0
 20 21  2  0  0  0
 20100  1  0  0  0
 21 23  1  0  0  0
 22 28  1  0  0  0
 22 32  2  0  0  0
 26 27  1  0  0  0
 28101  1  0  0  0
 28102  1  0  0  0
 29103  1  0  0  0
 29104  1  0  0  0
 33 34  1  0  0  0
 33 66  1  0  0  0
 33 70  2  0  0  0
 34 36  1  0  0  0
 34 59  1  0  0  0
 34105  1  0  0  0
 35 44  2  0  0  0
 35 45  1  0  0  0
 35 68  1  0  0  0
 36 56  1  0  0  0
 36106  1  0  0  0
 37 39  1  0  0  0
 37 47  1  0  0  0
 37 66  1  0  0  0
 37107  1  0  0  0
 38 43  2  0  0  0
 38 46  1  0  0  0
 38 47  1  0  0  0
 39 64  1  0  0  0
 39 67  2  0  0  0
 40 52  1  0  0  0
 40 53  2  0  0  0
 40 58  1  0  0  0
 41108  1  0  0  0
 41109  1  0  0  0
 41110  1  0  0  0
 41 48  1  0  0  0
 42 43  1  0  0  0
 42 66  1  0  0  0
 42111  1  0  0  0
 42112  1  0  0  0
 43 44  1  0  0  0
 44113  1  0  0  0
 45 46  2  0  0  0
 45114  1  0  0  0
 46115  1  0  0  0
 47116  1  0  0  0
 47117  1  0  0  0
 48 56  1  0  0  0
 48 65  1  0  0  0
 48118  1  0  0  0
 49 50  1  0  0  0
 49 53  1  0  0  0
 49 64  1  0  0  0
 49119  1  0  0  0
 50 51  1  0  0  0
 50120  1  0  0  0
 50121  1  0  0  0
 51 52  1  0  0  0
 51122  1  0  0  0
 51123  1  0  0  0
 52124  1  0  0  0
 52125  1  0  0  0
 53 54  1  0  0  0
 54 55  2  0  0  0
 54126  1  0  0  0
 55 57  1  0  0  0
 55127  1  0  0  0
 56 69  2  0  0  0
 57 58  2  0  0  0
 57128  1  0  0  0
 58129  1  0  0  0
 59 60  1  0  0  0
 59 61  1  0  0  0
 59 62  1  0  0  0
 60130  1  0  0  0
 60131  1  0  0  0
 60132  1  0  0  0
 61133  1  0  0  0
 61134  1  0  0  0
 61135  1  0  0  0
 62136  1  0  0  0
 62137  1  0  0  0
 62138  1  0  0  0
 63 65  1  0  0  0
 63139  1  0  0  0
 63140  1  0  0  0
 63141  1  0  0  0
 64142  1  0  0  0
 65143  1  0  0  0
 68 84  1  0  0  0
 71 72  3  0  0  0
 71 75  1  0  0  0
 73 74  2  0  0  0
 73 76  1  0  0  0
 73144  1  0  0  0
 74 77  1  0  0  0
 74145  1  0  0  0
 75 77  2  0  0  0
 75 78  1  0  0  0
 76 78  2  0  0  0
 76 79  1  0  0  0
 77 81  1  0  0  0
 78 82  1  0  0  0
 79 80  2  0  0  0
 79146  1  0  0  0
 80 83  1  0  0  0
 80147  1  0  0  0
 81148  1  0  0  0
 81149  1  0  0  0
 81150  1  0  0  0
 82151  1  0  0  0
 82152  1  0  0  0
 82153  1  0  0  0
 83 84  1  0  0  0
 83154  1  0  0  0
 83155  1  0  0  0
 84156  1  0  0  0
 84157  1  0  0  0
M  ISO  4   1 100  68 101  72 100  84 101
M  END
> <chiral flag>
0

> <version>
0

> <s_m_source_file>
/data/baiqing/PycharmProjects/Reinvent-master-3.2/result/LINK_invent/BTK/process_docking_weight1_custom_product_contain_oxygen_bond_distance_aromatic_linkinvent_7_9_3/rearranged_h_0127.sdf

> <i_m_source_file_index>
41

> <r_mmod_Potential_Energy-OPLS-2005>
18.3038158416748

> <r_mmod_Stretch_Energy-OPLS-2005>
46.9551849365234

> <r_mmod_Bend_Energy-OPLS-2005>
119.260696411133

> <r_mmod_Torsional_Energy-OPLS-2005>
173.470565795898

> <r_mmod_Improper_Torsional_Energy-OPLS-2005>
3.87024283409119

> <r_mmod_Van_der_Waal_Energy-OPLS-2005>
159.555999755859

> <r_mmod_Electrostatic_Energy-OPLS-2005>
-312.504180908203

> <r_mmod_Solvation_Energy-OPLS-2005>
-190.129409790039

> <b_mmod_Minimization_Converged-OPLS-2005>
0

> <r_mmod_RMS_Derivative-OPLS-2005>
1.3561087846756

$$$$
41
                    3D
 Structure written by MMmdl.
158166  0  0  1  0            999 V2000
  -30.5756  -14.9518   20.5423 C   0  0  0  0  0  0
  -30.4275  -12.6010   19.5415 C   0  0  0  0  0  0
  -29.5361  -12.6077   18.2770 C   0  0  0  0  0  0
  -28.0689  -12.3696   18.6669 C   0  0  0  0  0  0
  -27.6472  -13.2598   19.8627 C   0  0  2  0  0  0
  -28.6682  -13.2803   21.0235 C   0  0  0  0  0  0
  -25.2592  -13.8256   20.5683 C   0  0  0  0  0  0
  -24.1878  -13.0442   20.9150 C   0  0  0  0  0  0
  -24.6515  -11.6970   20.8682 C   0  0  0  0  0  0
  -23.9202  -10.4329   21.0337 C   0  0  0  0  0  0
  -24.3751   -9.4253   21.9125 C   0  0  0  0  0  0
  -23.6390   -8.2311   22.0744 C   0  0  0  0  0  0
  -22.4372   -8.0335   21.3535 C   0  0  0  0  0  0
  -22.0027   -9.0316   20.4635 C   0  0  0  0  0  0
  -22.7394  -10.2159   20.2999 C   0  0  0  0  0  0
  -21.6917   -6.0779   22.5275 C   0  0  0  0  0  0
  -21.4049   -6.5672   23.8215 C   0  0  0  0  0  0
  -21.3664   -5.6806   24.9159 C   0  0  0  0  0  0
  -21.6025   -4.3073   24.7202 C   0  0  0  0  0  0
  -21.8842   -3.8182   23.4335 C   0  0  0  0  0  0
  -21.9230   -4.6998   22.3386 C   0  0  0  0  0  0
  -22.7909  -13.5214   21.1744 C   0  0  0  0  0  0
  -22.1687   -4.2188   21.0969 F   0  0  0  0  0  0
  -21.5602   -3.4558   25.7729 F   0  0  0  0  0  0
  -29.9630  -13.6909   20.4686 N   0  0  0  0  0  0
  -26.3023  -12.9498   20.3313 N   0  0  0  0  0  0
  -25.9463  -11.6620   20.5709 N   0  0  0  0  0  0
  -22.0620  -12.8120   22.0291 N   0  0  0  0  0  0
  -25.4362  -15.1953   20.4131 N   0  0  0  0  0  0
  -31.7284  -14.9978   20.1015 O   0  0  0  0  0  0
  -21.6726   -6.8937   21.4253 O   0  0  0  0  0  0
  -22.3552  -14.5508   20.6656 O   0  0  0  0  0  0
  -24.6463  -31.8403   23.1842 C   0  0  0  0  0  0
  -25.9150  -32.4660   23.8268 C   0  0  1  0  0  0
  -27.2551  -27.1166   20.1853 C   0  0  0  0  0  0
  -25.5847  -33.8495   24.2088 N   0  0  0  0  0  0
  -23.4477  -30.4553   21.5333 C   0  0  2  0  0  0
  -24.9080  -28.8603   20.1209 C   0  0  0  0  0  0
  -22.7504  -29.4592   22.4912 C   0  0  0  0  0  0
  -18.0256  -28.1444   22.8453 C   0  0  0  0  0  0
  -24.1524  -36.7364   23.2658 C   0  0  0  0  0  0
  -26.0035  -30.7028   21.3789 C   0  0  0  0  0  0
  -26.0840  -29.3080   20.7381 C   0  0  0  0  0  0
  -27.2489  -28.4556   20.7504 C   0  0  0  0  0  0
  -26.0443  -26.7589   19.5423 C   0  0  0  0  0  0
  -24.9003  -27.5921   19.5167 C   0  0  0  0  0  0
  -23.6751  -29.7576   20.1634 C   0  0  0  0  0  0
  -25.4145  -36.2990   24.0246 C   0  0  1  0  0  0
  -20.5852  -28.3804   23.1241 C   0  0  2  0  0  0
  -20.6737  -26.9502   22.5416 C   0  0  0  0  0  0
  -19.5746  -26.6437   21.5181 C   0  0  0  0  0  0
  -18.1910  -26.7995   22.1585 C   0  0  0  0  0  0
  -19.1495  -28.8933   23.2833 C   0  0  0  0  0  0
  -18.9440  -30.1508   23.8908 C   0  0  0  0  0  0
  -17.6447  -30.6630   24.0595 C   0  0  0  0  0  0
  -25.9118  -34.9370   23.5008 C   0  0  0  0  0  0
  -16.5344  -29.9148   23.6364 C   0  0  0  0  0  0
  -16.7237  -28.6558   23.0385 C   0  0  0  0  0  0
  -26.4392  -31.6569   25.0762 C   0  0  0  0  0  0
  -25.3507  -31.3735   26.1402 C   0  0  0  0  0  0
  -27.0294  -30.2969   24.6408 C   0  0  0  0  0  0
  -27.5933  -32.4399   25.7501 C   0  0  0  0  0  0
  -27.5585  -37.1806   24.8396 C   0  0  0  0  0  0
  -21.4198  -29.3112   22.3602 N   0  0  0  0  0  0
  -26.4299  -37.3683   23.9344 N   0  0  0  0  0  0
  -24.7203  -31.0218   22.0879 N   0  0  0  0  0  0
  -23.4112  -28.8180   23.3094 O   0  0  0  0  0  0
  -28.3412  -26.1600   20.2503 O   0  0  0  0  0  0
  -26.5804  -34.8842   22.4677 O   0  0  0  0  0  0
  -23.5601  -32.1332   23.7045 O   0  0  0  0  0  0
  -30.7089  -19.4793   23.5542 C   0  0  0  0  0  0
  -31.1384  -20.9104   21.6335 C   0  0  0  0  0  0
  -29.5826  -19.0224   21.4535 C   0  0  0  0  0  0
  -31.5673  -20.3786   22.8746 C   0  0  0  0  0  0
  -29.6123  -18.8916   22.8705 C   0  0  0  0  0  0
  -29.9276  -20.4421   21.0551 C   0  0  0  0  0  0
  -30.1195  -17.6167   20.8360 C   0  0  0  0  0  0
  -29.8593  -16.2313   21.0937 C   0  0  0  0  0  0
  -32.8534  -20.8771   23.5383 C   0  0  0  0  0  0
  -28.6165  -18.0126   23.6313 C   0  0  0  0  0  0
  -28.8982  -21.6915   20.6443 C   0  0  0  0  0  0
  -29.2623  -23.3505   20.4481 C   0  0  0  0  0  0
  -28.1227  -24.6118   20.3538 C   0  0  0  0  0  0
  -31.4715  -12.7145   19.2505 H   0  0  0  0  0  0
  -30.3635  -11.6250   20.0287 H   0  0  0  0  0  0
  -29.8619  -11.8469   17.5701 H   0  0  0  0  0  0
  -29.6407  -13.5637   17.7554 H   0  0  0  0  0  0
  -27.9673  -11.3133   18.9199 H   0  0  0  0  0  0
  -27.4174  -12.5543   17.8115 H   0  0  0  0  0  0
  -27.6300  -14.2755   19.4642 H   0  0  0  0  0  0
  -28.7399  -12.3162   21.5283 H   0  0  0  0  0  0
  -28.3343  -13.9864   21.7857 H   0  0  0  0  0  0
  -25.2938   -9.5678   22.4650 H   0  0  0  0  0  0
  -24.0102   -7.4708   22.7494 H   0  0  0  0  0  0
  -21.0954   -8.8842   19.8939 H   0  0  0  0  0  0
  -22.3908  -10.9657   19.6041 H   0  0  0  0  0  0
  -21.2057   -7.6205   23.9697 H   0  0  0  0  0  0
  -21.1425   -6.0566   25.9043 H   0  0  0  0  0  0
  -22.0602   -2.7657   23.2875 H   0  0  0  0  0  0
  -22.4459  -11.9809   22.4606 H   0  0  0  0  0  0
  -21.1176  -13.0902   22.2433 H   0  0  0  0  0  0
  -24.6924  -15.8747   20.5288 H   0  0  0  0  0  0
  -26.3103  -15.6185   20.1218 H   0  0  0  0  0  0
  -26.7238  -32.5219   23.1038 H   0  0  0  0  0  0
  -24.9542  -33.9609   24.9888 H   0  0  0  0  0  0
  -22.7470  -31.2766   21.3648 H   0  0  0  0  0  0
  -23.3697  -35.9761   23.3163 H   0  0  0  0  0  0
  -24.3692  -36.9269   22.2127 H   0  0  0  0  0  0
  -23.7372  -37.6530   23.6924 H   0  0  0  0  0  0
  -26.1364  -31.4263   20.5757 H   0  0  0  0  0  0
  -26.8872  -30.7928   22.0001 H   0  0  0  0  0  0
  -28.1346  -28.8060   21.2647 H   0  0  0  0  0  0
  -25.9519  -25.7856   19.0779 H   0  0  0  0  0  0
  -23.9953  -27.2265   19.0545 H   0  0  0  0  0  0
  -23.7599  -30.5123   19.3802 H   0  0  0  0  0  0
  -22.7981  -29.1686   19.9003 H   0  0  0  0  0  0
  -25.1325  -36.1790   25.0718 H   0  0  0  0  0  0
  -20.9868  -28.3395   24.1395 H   0  0  0  0  0  0
  -20.5630  -26.2406   23.3634 H   0  0  0  0  0  0
  -21.6629  -26.7530   22.1236 H   0  0  0  0  0  0
  -19.6955  -25.6316   21.1327 H   0  0  0  0  0  0
  -19.6746  -27.3123   20.6609 H   0  0  0  0  0  0
  -17.4180  -26.6690   21.3977 H   0  0  0  0  0  0
  -18.0360  -26.0119   22.8989 H   0  0  0  0  0  0
  -19.7902  -30.7293   24.2322 H   0  0  0  0  0  0
  -17.5020  -31.6320   24.5199 H   0  0  0  0  0  0
  -15.5360  -30.3098   23.7725 H   0  0  0  0  0  0
  -15.8591  -28.0916   22.7185 H   0  0  0  0  0  0
  -24.5687  -30.7124   25.7572 H   0  0  0  0  0  0
  -24.8695  -32.2920   26.4833 H   0  0  0  0  0  0
  -25.7695  -30.8829   27.0207 H   0  0  0  0  0  0
  -26.2958  -29.6644   24.1417 H   0  0  0  0  0  0
  -27.3833  -29.7294   25.5024 H   0  0  0  0  0  0
  -27.8826  -30.4133   23.9730 H   0  0  0  0  0  0
  -27.2521  -33.3750   26.1946 H   0  0  0  0  0  0
  -28.3722  -32.6957   25.0290 H   0  0  0  0  0  0
  -28.0596  -31.8677   26.5538 H   0  0  0  0  0  0
  -28.2404  -38.0269   24.7556 H   0  0  0  0  0  0
  -28.1282  -36.2830   24.6041 H   0  0  0  0  0  0
  -27.2401  -37.1178   25.8810 H   0  0  0  0  0  0
  -20.9449  -29.8788   21.6729 H   0  0  0  0  0  0
  -26.0131  -38.2727   24.1378 H   0  0  0  0  0  0
  -30.9011  -19.2261   24.5870 H   0  0  0  0  0  0
  -31.6160  -21.8153   21.2693 H   0  0  0  0  0  0
  -30.9063  -17.7746   20.1111 H   0  0  0  0  0  0
  -29.0730  -16.0347   21.8035 H   0  0  0  0  0  0
  -33.4691  -20.0442   23.8808 H   0  0  0  0  0  0
  -32.6659  -21.5131   24.4053 H   0  0  0  0  0  0
  -33.4670  -21.4517   22.8458 H   0  0  0  0  0  0
  -28.2238  -18.5072   24.5227 H   0  0  0  0  0  0
  -29.0451  -17.0729   23.9788 H   0  0  0  0  0  0
  -27.7517  -17.8071   22.9939 H   0  0  0  0  0  0
  -28.1509  -21.6885   21.4367 H   0  0  0  0  0  0
  -28.3322  -21.3723   19.7693 H   0  0  0  0  0  0
  -29.8603  -23.4303   19.5397 H   0  0  0  0  0  0
  -29.9662  -23.6296   21.2338 H   0  0  0  0  0  0
  -27.4938  -24.4977   21.2385 H   0  0  0  0  0  0
  -27.4833  -24.3499   19.5124 H   0  0  0  0  0  0
  1 25  1  0  0  0
  1 30  2  0  0  0
  1 78  1  0  0  0
  2  3  1  0  0  0
  2 25  1  0  0  0
  2 84  1  0  0  0
  2 85  1  0  0  0
  3  4  1  0  0  0
  3 86  1  0  0  0
  3 87  1  0  0  0
  4  5  1  0  0  0
  4 88  1  0  0  0
  4 89  1  0  0  0
  5  6  1  0  0  0
  5 26  1  0  0  0
  5 90  1  0  0  0
  6 25  1  0  0  0
  6 91  1  0  0  0
  6 92  1  0  0  0
  7  8  2  0  0  0
  7 26  1  0  0  0
  7 29  1  0  0  0
  8  9  1  0  0  0
  8 22  1  0  0  0
  9 10  1  0  0  0
  9 27  2  0  0  0
 10 11  2  0  0  0
 10 15  1  0  0  0
 11 12  1  0  0  0
 11 93  1  0  0  0
 12 13  2  0  0  0
 12 94  1  0  0  0
 13 14  1  0  0  0
 13 31  1  0  0  0
 14 15  2  0  0  0
 14 95  1  0  0  0
 15 96  1  0  0  0
 16 17  2  0  0  0
 16 21  1  0  0  0
 16 31  1  0  0  0
 17 18  1  0  0  0
 17 97  1  0  0  0
 18 19  2  0  0  0
 18 98  1  0  0  0
 19 20  1  0  0  0
 19 24  1  0  0  0
 20 21  2  0  0  0
 20 99  1  0  0  0
 21 23  1  0  0  0
 22 28  1  0  0  0
 22 32  2  0  0  0
 26 27  1  0  0  0
 28100  1  0  0  0
 28101  1  0  0  0
 29102  1  0  0  0
 29103  1  0  0  0
 33 34  1  0  0  0
 33 66  1  0  0  0
 33 70  2  0  0  0
 34 36  1  0  0  0
 34 59  1  0  0  0
 34104  1  0  0  0
 35 44  2  0  0  0
 35 45  1  0  0  0
 35 68  1  0  0  0
 36 56  1  0  0  0
 36105  1  0  0  0
 37 39  1  0  0  0
 37 47  1  0  0  0
 37 66  1  0  0  0
 37106  1  0  0  0
 38 43  2  0  0  0
 38 46  1  0  0  0
 38 47  1  0  0  0
 39 64  1  0  0  0
 39 67  2  0  0  0
 40 52  1  0  0  0
 40 53  2  0  0  0
 40 58  1  0  0  0
 41107  1  0  0  0
 41108  1  0  0  0
 41109  1  0  0  0
 41 48  1  0  0  0
 42 43  1  0  0  0
 42 66  1  0  0  0
 42110  1  0  0  0
 42111  1  0  0  0
 43 44  1  0  0  0
 44112  1  0  0  0
 45 46  2  0  0  0
 45113  1  0  0  0
 46114  1  0  0  0
 47115  1  0  0  0
 47116  1  0  0  0
 48 56  1  0  0  0
 48 65  1  0  0  0
 48117  1  0  0  0
 49 50  1  0  0  0
 49 53  1  0  0  0
 49 64  1  0  0  0
 49118  1  0  0  0
 50 51  1  0  0  0
 50119  1  0  0  0
 50120  1  0  0  0
 51 52  1  0  0  0
 51121  1  0  0  0
 51122  1  0  0  0
 52123  1  0  0  0
 52124  1  0  0  0
 53 54  1  0  0  0
 54 55  2  0  0  0
 54125  1  0  0  0
 55 57  1  0  0  0
 55126  1  0  0  0
 56 69  2  0  0  0
 57 58  2  0  0  0
 57127  1  0  0  0
 58128  1  0  0  0
 59 60  1  0  0  0
 59 61  1  0  0  0
 59 62  1  0  0  0
 60129  1  0  0  0
 60130  1  0  0  0
 60131  1  0  0  0
 61132  1  0  0  0
 61133  1  0  0  0
 61134  1  0  0  0
 62135  1  0  0  0
 62136  1  0  0  0
 62137  1  0  0  0
 63 65  1  0  0  0
 63138  1  0  0  0
 63139  1  0  0  0
 63140  1  0  0  0
 64141  1  0  0  0
 65142  1  0  0  0
 68 83  1  0  0  0
 71 74  2  0  0  0
 71 75  1  0  0  0
 71143  1  0  0  0
 72 74  1  0  0  0
 72 76  2  0  0  0
 72144  1  0  0  0
 73 75  2  0  0  0
 73 76  1  0  0  0
 73 77  1  0  0  0
 74 79  1  0  0  0
 75 80  1  0  0  0
 76 81  1  0  0  0
 77 78  2  0  0  0
 77145  1  0  0  0
 78146  1  0  0  0
 79147  1  0  0  0
 79148  1  0  0  0
 79149  1  0  0  0
 80150  1  0  0  0
 80151  1  0  0  0
 80152  1  0  0  0
 81 82  1  0  0  0
 81153  1  0  0  0
 81154  1  0  0  0
 82 83  1  0  0  0
 82155  1  0  0  0
 82156  1  0  0  0
 83157  1  0  0  0
 83158  1  0  0  0
M  ISO  4   1 100  68 101  78 100  83 101
M  END
> <chiral flag>
0

> <version>
0

> <s_m_source_file>
/data/baiqing/PycharmProjects/Reinvent-master-3.2/result/LINK_invent/BTK/process_docking_weight1_custom_product_contain_oxygen_bond_distance_aromatic_linkinvent_7_9_3/rearranged_h_0127.sdf

> <i_m_source_file_index>
42

> <r_mmod_Potential_Energy-OPLS-2005>
842.83837890625

> <r_mmod_Stretch_Energy-OPLS-2005>
318.332580566406

> <r_mmod_Bend_Energy-OPLS-2005>
286.426177978516

> <r_mmod_Torsional_Energy-OPLS-2005>
430.48291015625

> <r_mmod_Improper_Torsional_Energy-OPLS-2005>
28.435863494873

> <r_mmod_Van_der_Waal_Energy-OPLS-2005>
131.450927734375

> <r_mmod_Electrostatic_Energy-OPLS-2005>
-353.273406982422

> <r_mmod_Solvation_Energy-OPLS-2005>
-192.509368896484

> <b_mmod_Minimization_Converged-OPLS-2005>
0

> <r_mmod_RMS_Derivative-OPLS-2005>
10.240288734436

$$$$
42
                    3D
 Structure written by MMmdl.
157165  0  0  1  0            999 V2000
  -30.6448  -14.7327   20.4086 C   0  0  0  0  0  0
  -30.4319  -12.4386   19.4741 C   0  0  0  0  0  0
  -29.5096  -12.4874   18.2365 C   0  0  0  0  0  0
  -28.0367  -12.3155   18.6528 C   0  0  0  0  0  0
  -27.6415  -13.2308   19.8421 C   0  0  2  0  0  0
  -28.6921  -13.1892   20.9733 C   0  0  0  0  0  0
  -25.2509  -13.8209   20.5714 C   0  0  0  0  0  0
  -24.1801  -13.0447   20.9234 C   0  0  0  0  0  0
  -24.6394  -11.6941   20.8768 C   0  0  0  0  0  0
  -23.9051  -10.4318   21.0411 C   0  0  0  0  0  0
  -24.3615   -9.4222   21.9164 C   0  0  0  0  0  0
  -23.6308   -8.2238   22.0712 C   0  0  0  0  0  0
  -22.4277   -8.0285   21.3522 C   0  0  0  0  0  0
  -21.9918   -9.0250   20.4607 C   0  0  0  0  0  0
  -22.7232  -10.2146   20.3038 C   0  0  0  0  0  0
  -21.6864   -6.0738   22.5279 C   0  0  0  0  0  0
  -21.4012   -6.5634   23.8212 C   0  0  0  0  0  0
  -21.3667   -5.6779   24.9171 C   0  0  0  0  0  0
  -21.6057   -4.3040   24.7230 C   0  0  0  0  0  0
  -21.8817   -3.8143   23.4343 C   0  0  0  0  0  0
  -21.9192   -4.6962   22.3402 C   0  0  0  0  0  0
  -22.7826  -13.5232   21.1913 C   0  0  0  0  0  0
  -22.1656   -4.2144   21.0975 F   0  0  0  0  0  0
  -21.5648   -3.4517   25.7742 F   0  0  0  0  0  0
  -29.9935  -13.5207   20.3813 N   0  0  0  0  0  0
  -26.2941  -12.9417   20.3270 N   0  0  0  0  0  0
  -25.9324  -11.6574   20.5770 N   0  0  0  0  0  0
  -22.0460  -12.8198   22.0453 N   0  0  0  0  0  0
  -25.4181  -15.1933   20.4137 N   0  0  0  0  0  0
  -31.8608  -14.7612   20.2230 O   0  0  0  0  0  0
  -21.6647   -6.8883   21.4236 O   0  0  0  0  0  0
  -22.3523  -14.5543   20.6764 O   0  0  0  0  0  0
  -24.6326  -31.8570   23.1999 C   0  0  0  0  0  0
  -25.9141  -32.4762   23.8356 C   0  0  1  0  0  0
  -27.2193  -27.2742   20.1144 C   0  0  0  0  0  0
  -25.5932  -33.8567   24.2269 N   0  0  0  0  0  0
  -23.4263  -30.4843   21.5430 C   0  0  2  0  0  0
  -24.8721  -28.9368   20.1123 C   0  0  0  0  0  0
  -22.7526  -29.4616   22.4910 C   0  0  0  0  0  0
  -18.0292  -28.1399   22.8497 C   0  0  0  0  0  0
  -24.1481  -36.7290   23.2642 C   0  0  0  0  0  0
  -25.9760  -30.7776   21.3762 C   0  0  0  0  0  0
  -26.0478  -29.4009   20.7173 C   0  0  0  0  0  0
  -27.2253  -28.5827   20.7078 C   0  0  0  0  0  0
  -26.0200  -26.8874   19.4709 C   0  0  0  0  0  0
  -24.8642  -27.6865   19.4794 C   0  0  0  0  0  0
  -23.6432  -29.8224   20.1581 C   0  0  0  0  0  0
  -25.4103  -36.3076   24.0330 C   0  0  1  0  0  0
  -20.5909  -28.3700   23.1279 C   0  0  2  0  0  0
  -20.6764  -26.9427   22.5395 C   0  0  0  0  0  0
  -19.5722  -26.6386   21.5227 C   0  0  0  0  0  0
  -18.1908  -26.7930   22.1655 C   0  0  0  0  0  0
  -19.1554  -28.8864   23.2881 C   0  0  0  0  0  0
  -18.9480  -30.1469   23.8887 C   0  0  0  0  0  0
  -17.6475  -30.6582   24.0581 C   0  0  0  0  0  0
  -25.9058  -34.9442   23.5091 C   0  0  0  0  0  0
  -16.5360  -29.9091   23.6342 C   0  0  0  0  0  0
  -16.7279  -28.6522   23.0341 C   0  0  0  0  0  0
  -26.4494  -31.6579   25.0738 C   0  0  0  0  0  0
  -25.3707  -31.3750   26.1457 C   0  0  0  0  0  0
  -27.0327  -30.2983   24.6206 C   0  0  0  0  0  0
  -27.6049  -32.4330   25.7499 C   0  0  0  0  0  0
  -27.5572  -37.1805   24.8478 C   0  0  0  0  0  0
  -21.4234  -29.3053   22.3674 N   0  0  0  0  0  0
  -26.4280  -37.3774   23.9420 N   0  0  0  0  0  0
  -24.6975  -31.0563   22.0957 N   0  0  0  0  0  0
  -23.4244  -28.8148   23.2983 O   0  0  0  0  0  0
  -28.3105  -26.3722   20.1495 O   0  0  0  0  0  0
  -26.5656  -34.8926   22.4679 O   0  0  0  0  0  0
  -23.5468  -32.1374   23.7291 O   0  0  0  0  0  0
  -29.4777  -18.4469   20.5925 C   0  0  0  0  0  0
  -31.3515  -18.9998   18.6585 C   0  0  0  0  0  0
  -29.6850  -19.8490   20.2394 C   0  0  0  0  0  0
  -30.6912  -20.0835   19.2740 C   0  0  0  0  0  0
  -31.0849  -17.6476   18.9643 C   0  0  0  0  0  0
  -30.1783  -17.3075   20.0173 C   0  0  0  0  0  0
  -28.8551  -20.9655   20.9128 C   0  0  0  0  0  0
  -28.6239  -22.3424   20.9530 C   0  0  0  0  0  0
  -31.1041  -21.4766   18.8488 C   0  0  0  0  0  0
  -31.7748  -16.6395   18.0546 C   0  0  0  0  0  0
  -29.0894  -23.7110   20.2960 C   0  0  0  0  0  0
  -28.0072  -24.9116   20.3523 C   0  0  0  0  0  0
  -29.8869  -15.8994   20.4348 N   0  0  0  0  0  0
  -31.4737  -12.5444   19.1643 H   0  0  0  0  0  0
  -30.3632  -11.4731   19.9791 H   0  0  0  0  0  0
  -29.7928  -11.7064   17.5306 H   0  0  0  0  0  0
  -29.6332  -13.4390   17.7167 H   0  0  0  0  0  0
  -27.9011  -11.2700   18.9333 H   0  0  0  0  0  0
  -27.3778  -12.4895   17.8005 H   0  0  0  0  0  0
  -27.6265  -14.2453   19.4446 H   0  0  0  0  0  0
  -28.7264  -12.2016   21.4355 H   0  0  0  0  0  0
  -28.4406  -13.8948   21.7683 H   0  0  0  0  0  0
  -25.2761   -9.5721   22.4741 H   0  0  0  0  0  0
  -24.0032   -7.4643   22.7426 H   0  0  0  0  0  0
  -21.0853   -8.8774   19.8921 H   0  0  0  0  0  0
  -22.3680  -10.9685   19.6166 H   0  0  0  0  0  0
  -21.1970   -7.6135   23.9723 H   0  0  0  0  0  0
  -21.1505   -6.0497   25.9081 H   0  0  0  0  0  0
  -22.0587   -2.7597   23.2841 H   0  0  0  0  0  0
  -22.4085  -11.9901   22.4909 H   0  0  0  0  0  0
  -21.1056  -13.1195   22.2591 H   0  0  0  0  0  0
  -24.6500  -15.8469   20.5275 H   0  0  0  0  0  0
  -26.2578  -15.6330   20.0607 H   0  0  0  0  0  0
  -26.7225  -32.5410   23.1122 H   0  0  0  0  0  0
  -25.0042  -33.9702   25.0383 H   0  0  0  0  0  0
  -22.7191  -31.3047   21.3990 H   0  0  0  0  0  0
  -23.3731  -35.9641   23.3309 H   0  0  0  0  0  0
  -24.3589  -36.8901   22.2063 H   0  0  0  0  0  0
  -23.7235  -37.6493   23.6662 H   0  0  0  0  0  0
  -26.1145  -31.5372   20.6051 H   0  0  0  0  0  0
  -26.8532  -30.8266   22.0081 H   0  0  0  0  0  0
  -28.1243  -28.9393   21.1939 H   0  0  0  0  0  0
  -25.9360  -25.9516   18.9414 H   0  0  0  0  0  0
  -23.9689  -27.3260   18.9903 H   0  0  0  0  0  0
  -23.7723  -30.5999   19.4025 H   0  0  0  0  0  0
  -22.7628  -29.2571   19.8492 H   0  0  0  0  0  0
  -25.1276  -36.1931   25.0820 H   0  0  0  0  0  0
  -21.0020  -28.3259   24.1399 H   0  0  0  0  0  0
  -20.5671  -26.2332   23.3602 H   0  0  0  0  0  0
  -21.6630  -26.7428   22.1204 H   0  0  0  0  0  0
  -19.6878  -25.6303   21.1239 H   0  0  0  0  0  0
  -19.6634  -27.3214   20.6772 H   0  0  0  0  0  0
  -17.4186  -26.6714   21.4037 H   0  0  0  0  0  0
  -18.0307  -26.0063   22.9049 H   0  0  0  0  0  0
  -19.7947  -30.7304   24.2244 H   0  0  0  0  0  0
  -17.5013  -31.6260   24.5195 H   0  0  0  0  0  0
  -15.5357  -30.2989   23.7626 H   0  0  0  0  0  0
  -15.8698  -28.0825   22.7038 H   0  0  0  0  0  0
  -24.5908  -30.7053   25.7804 H   0  0  0  0  0  0
  -24.8867  -32.2931   26.4807 H   0  0  0  0  0  0
  -25.8024  -30.9002   27.0273 H   0  0  0  0  0  0
  -26.2905  -29.6743   24.1203 H   0  0  0  0  0  0
  -27.3984  -29.7232   25.4725 H   0  0  0  0  0  0
  -27.8798  -30.4251   23.9458 H   0  0  0  0  0  0
  -27.2649  -33.3652   26.2022 H   0  0  0  0  0  0
  -28.3873  -32.6847   25.0327 H   0  0  0  0  0  0
  -28.0689  -31.8485   26.5454 H   0  0  0  0  0  0
  -28.2608  -38.0086   24.7507 H   0  0  0  0  0  0
  -28.1047  -36.2619   24.6306 H   0  0  0  0  0  0
  -27.2320  -37.1465   25.8894 H   0  0  0  0  0  0
  -20.9421  -29.8835   21.6929 H   0  0  0  0  0  0
  -26.0154  -38.2854   24.1381 H   0  0  0  0  0  0
  -28.7374  -18.2385   21.3513 H   0  0  0  0  0  0
  -32.0837  -19.2167   17.8916 H   0  0  0  0  0  0
  -28.2101  -20.4945   21.6406 H   0  0  0  0  0  0
  -27.8863  -22.5827   21.7072 H   0  0  0  0  0  0
  -30.3548  -21.8994   18.1815 H   0  0  0  0  0  0
  -32.0517  -21.4660   18.3097 H   0  0  0  0  0  0
  -31.2419  -22.1165   19.7197 H   0  0  0  0  0  0
  -32.7591  -16.3782   18.4452 H   0  0  0  0  0  0
  -31.9296  -17.0546   17.0565 H   0  0  0  0  0  0
  -31.1827  -15.7384   17.9091 H   0  0  0  0  0  0
  -29.4014  -23.5624   19.2660 H   0  0  0  0  0  0
  -29.9794  -24.0325   20.8386 H   0  0  0  0  0  0
  -27.5287  -24.8594   21.3309 H   0  0  0  0  0  0
  -27.2494  -24.5881   19.6470 H   0  0  0  0  0  0
  -28.9405  -15.7457   20.7424 H   0  0  0  0  0  0
  1 25  1  0  0  0
  1 30  2  0  0  0
  1 83  1  0  0  0
  2  3  1  0  0  0
  2 25  1  0  0  0
  2 84  1  0  0  0
  2 85  1  0  0  0
  3  4  1  0  0  0
  3 86  1  0  0  0
  3 87  1  0  0  0
  4  5  1  0  0  0
  4 88  1  0  0  0
  4 89  1  0  0  0
  5  6  1  0  0  0
  5 26  1  0  0  0
  5 90  1  0  0  0
  6 25  1  0  0  0
  6 91  1  0  0  0
  6 92  1  0  0  0
  7  8  2  0  0  0
  7 26  1  0  0  0
  7 29  1  0  0  0
  8  9  1  0  0  0
  8 22  1  0  0  0
  9 10  1  0  0  0
  9 27  2  0  0  0
 10 11  2  0  0  0
 10 15  1  0  0  0
 11 12  1  0  0  0
 11 93  1  0  0  0
 12 13  2  0  0  0
 12 94  1  0  0  0
 13 14  1  0  0  0
 13 31  1  0  0  0
 14 15  2  0  0  0
 14 95  1  0  0  0
 15 96  1  0  0  0
 16 17  2  0  0  0
 16 21  1  0  0  0
 16 31  1  0  0  0
 17 18  1  0  0  0
 17 97  1  0  0  0
 18 19  2  0  0  0
 18 98  1  0  0  0
 19 20  1  0  0  0
 19 24  1  0  0  0
 20 21  2  0  0  0
 20 99  1  0  0  0
 21 23  1  0  0  0
 22 28  1  0  0  0
 22 32  2  0  0  0
 26 27  1  0  0  0
 28100  1  0  0  0
 28101  1  0  0  0
 29102  1  0  0  0
 29103  1  0  0  0
 33 34  1  0  0  0
 33 66  1  0  0  0
 33 70  2  0  0  0
 34 36  1  0  0  0
 34 59  1  0  0  0
 34104  1  0  0  0
 35 44  2  0  0  0
 35 45  1  0  0  0
 35 68  1  0  0  0
 36 56  1  0  0  0
 36105  1  0  0  0
 37 39  1  0  0  0
 37 47  1  0  0  0
 37 66  1  0  0  0
 37106  1  0  0  0
 38 43  2  0  0  0
 38 46  1  0  0  0
 38 47  1  0  0  0
 39 64  1  0  0  0
 39 67  2  0  0  0
 40 52  1  0  0  0
 40 53  2  0  0  0
 40 58  1  0  0  0
 41107  1  0  0  0
 41108  1  0  0  0
 41109  1  0  0  0
 41 48  1  0  0  0
 42 43  1  0  0  0
 42 66  1  0  0  0
 42110  1  0  0  0
 42111  1  0  0  0
 43 44  1  0  0  0
 44112  1  0  0  0
 45 46  2  0  0  0
 45113  1  0  0  0
 46114  1  0  0  0
 47115  1  0  0  0
 47116  1  0  0  0
 48 56  1  0  0  0
 48 65  1  0  0  0
 48117  1  0  0  0
 49 50  1  0  0  0
 49 53  1  0  0  0
 49 64  1  0  0  0
 49118  1  0  0  0
 50 51  1  0  0  0
 50119  1  0  0  0
 50120  1  0  0  0
 51 52  1  0  0  0
 51121  1  0  0  0
 51122  1  0  0  0
 52123  1  0  0  0
 52124  1  0  0  0
 53 54  1  0  0  0
 54 55  2  0  0  0
 54125  1  0  0  0
 55 57  1  0  0  0
 55126  1  0  0  0
 56 69  2  0  0  0
 57 58  2  0  0  0
 57127  1  0  0  0
 58128  1  0  0  0
 59 60  1  0  0  0
 59 61  1  0  0  0
 59 62  1  0  0  0
 60129  1  0  0  0
 60130  1  0  0  0
 60131  1  0  0  0
 61132  1  0  0  0
 61133  1  0  0  0
 61134  1  0  0  0
 62135  1  0  0  0
 62136  1  0  0  0
 62137  1  0  0  0
 63 65  1  0  0  0
 63138  1  0  0  0
 63139  1  0  0  0
 63140  1  0  0  0
 64141  1  0  0  0
 65142  1  0  0  0
 68 82  1  0  0  0
 71 73  2  0  0  0
 71 76  1  0  0  0
 71143  1  0  0  0
 72 74  2  0  0  0
 72 75  1  0  0  0
 72144  1  0  0  0
 73 74  1  0  0  0
 73 77  1  0  0  0
 74 79  1  0  0  0
 75 76  2  0  0  0
 75 80  1  0  0  0
 76 83  1  0  0  0
 77 78  2  0  0  0
 77145  1  0  0  0
 78 81  1  0  0  0
 78146  1  0  0  0
 79147  1  0  0  0
 79148  1  0  0  0
 79149  1  0  0  0
 80150  1  0  0  0
 80151  1  0  0  0
 80152  1  0  0  0
 81 82  1  0  0  0
 81153  1  0  0  0
 81154  1  0  0  0
 82155  1  0  0  0
 82156  1  0  0  0
 83157  1  0  0  0
M  ISO  4   1 100  68 101  82 101  83 100
M  END
> <chiral flag>
0

> <version>
0

> <s_m_source_file>
/data/baiqing/PycharmProjects/Reinvent-master-3.2/result/LINK_invent/BTK/process_docking_weight1_custom_product_contain_oxygen_bond_distance_aromatic_linkinvent_7_9_3/rearranged_h_0127.sdf

> <i_m_source_file_index>
43

> <r_mmod_Potential_Energy-OPLS-2005>
255.917663574219

> <r_mmod_Stretch_Energy-OPLS-2005>
125.317405700684

> <r_mmod_Bend_Energy-OPLS-2005>
232.518447875977

> <r_mmod_Torsional_Energy-OPLS-2005>
240.958541870117

> <r_mmod_Improper_Torsional_Energy-OPLS-2005>
4.94608783721924

> <r_mmod_Van_der_Waal_Energy-OPLS-2005>
152.861999511719

> <r_mmod_Electrostatic_Energy-OPLS-2005>
-380.752349853516

> <r_mmod_Solvation_Energy-OPLS-2005>
-204.692260742188

> <b_mmod_Minimization_Converged-OPLS-2005>
0

> <r_mmod_RMS_Derivative-OPLS-2005>
3.36972975730896

$$$$
43
                    3D
 Structure written by MMmdl.
155163  0  0  1  0            999 V2000
  -30.7866  -14.5163   20.6274 C   0  0  0  0  0  0
  -30.4044  -12.3372   19.4866 C   0  0  0  0  0  0
  -29.5117  -12.5135   18.2413 C   0  0  0  0  0  0
  -28.0299  -12.3684   18.6315 C   0  0  0  0  0  0
  -27.6599  -13.2335   19.8701 C   0  0  2  0  0  0
  -28.6935  -13.1012   21.0152 C   0  0  0  0  0  0
  -25.2518  -13.8231   20.5636 C   0  0  0  0  0  0
  -24.1779  -13.0500   20.9147 C   0  0  0  0  0  0
  -24.6378  -11.6974   20.8747 C   0  0  0  0  0  0
  -23.9047  -10.4335   21.0402 C   0  0  0  0  0  0
  -24.3603   -9.4272   21.9198 C   0  0  0  0  0  0
  -23.6268   -8.2306   22.0794 C   0  0  0  0  0  0
  -22.4262   -8.0296   21.3549 C   0  0  0  0  0  0
  -21.9891   -9.0274   20.4643 C   0  0  0  0  0  0
  -22.7222  -10.2170   20.3040 C   0  0  0  0  0  0
  -21.6861   -6.0732   22.5268 C   0  0  0  0  0  0
  -21.4046   -6.5664   23.8208 C   0  0  0  0  0  0
  -21.3663   -5.6795   24.9173 C   0  0  0  0  0  0
  -21.6022   -4.3046   24.7221 C   0  0  0  0  0  0
  -21.8810   -3.8148   23.4329 C   0  0  0  0  0  0
  -21.9180   -4.6953   22.3384 C   0  0  0  0  0  0
  -22.7777  -13.5305   21.1736 C   0  0  0  0  0  0
  -22.1620   -4.2145   21.0969 F   0  0  0  0  0  0
  -21.5632   -3.4540   25.7739 F   0  0  0  0  0  0
  -30.0374  -13.3749   20.4791 N   0  0  0  0  0  0
  -26.2980  -12.9460   20.3304 N   0  0  0  0  0  0
  -25.9319  -11.6611   20.5801 N   0  0  0  0  0  0
  -22.0322  -12.8415   22.0298 N   0  0  0  0  0  0
  -25.4272  -15.1931   20.4055 N   0  0  0  0  0  0
  -31.8536  -14.6311   20.0156 O   0  0  0  0  0  0
  -21.6649   -6.8881   21.4234 O   0  0  0  0  0  0
  -22.3503  -14.5591   20.6515 O   0  0  0  0  0  0
  -24.6183  -31.8642   23.2041 C   0  0  0  0  0  0
  -25.9042  -32.4810   23.8413 C   0  0  1  0  0  0
  -27.2614  -27.3967   20.1508 C   0  0  0  0  0  0
  -25.5850  -33.8613   24.2326 N   0  0  0  0  0  0
  -23.4138  -30.4789   21.5436 C   0  0  2  0  0  0
  -24.8734  -28.9282   20.1284 C   0  0  0  0  0  0
  -22.7447  -29.4650   22.5004 C   0  0  0  0  0  0
  -18.0281  -28.1408   22.8492 C   0  0  0  0  0  0
  -24.1466  -36.7348   23.2619 C   0  0  0  0  0  0
  -25.9415  -30.8252   21.3568 C   0  0  0  0  0  0
  -26.0322  -29.4488   20.7203 C   0  0  0  0  0  0
  -27.2301  -28.6907   20.7265 C   0  0  0  0  0  0
  -26.0867  -26.8974   19.5469 C   0  0  0  0  0  0
  -24.8955  -27.6524   19.5370 C   0  0  0  0  0  0
  -23.6302  -29.7906   20.1669 C   0  0  0  0  0  0
  -25.4086  -36.3125   24.0334 C   0  0  1  0  0  0
  -20.5865  -28.3696   23.1325 C   0  0  2  0  0  0
  -20.6787  -26.9434   22.5417 C   0  0  0  0  0  0
  -19.5757  -26.6405   21.5230 C   0  0  0  0  0  0
  -18.1934  -26.7951   22.1627 C   0  0  0  0  0  0
  -19.1520  -28.8880   23.2895 C   0  0  0  0  0  0
  -18.9440  -30.1473   23.8924 C   0  0  0  0  0  0
  -17.6426  -30.6581   24.0575 C   0  0  0  0  0  0
  -25.9026  -34.9476   23.5134 C   0  0  0  0  0  0
  -16.5327  -29.9091   23.6300 C   0  0  0  0  0  0
  -16.7270  -28.6516   23.0322 C   0  0  0  0  0  0
  -26.4399  -31.6572   25.0758 C   0  0  0  0  0  0
  -25.3590  -31.3737   26.1439 C   0  0  0  0  0  0
  -27.0184  -30.3000   24.6160 C   0  0  0  0  0  0
  -27.5995  -32.4231   25.7539 C   0  0  0  0  0  0
  -27.5578  -37.1817   24.8442 C   0  0  0  0  0  0
  -21.4167  -29.3043   22.3723 N   0  0  0  0  0  0
  -26.4295  -37.3796   23.9376 N   0  0  0  0  0  0
  -24.6765  -31.0711   22.0954 N   0  0  0  0  0  0
  -23.4192  -28.8231   23.3110 O   0  0  0  0  0  0
  -28.4143  -26.6286   20.1619 O   0  0  0  0  0  0
  -26.5616  -34.8931   22.4708 O   0  0  0  0  0  0
  -23.5365  -32.1388   23.7416 O   0  0  0  0  0  0
  -30.5964  -18.2029   23.3795 C   0  0  0  0  0  0
  -30.6373  -19.4347   24.0704 C   0  0  0  0  0  0
  -30.2691  -19.4272   21.3135 C   0  0  0  0  0  0
  -30.4821  -18.1809   21.9759 C   0  0  0  0  0  0
  -30.2600  -20.6905   21.9885 C   0  0  0  0  0  0
  -30.5223  -20.6697   23.3908 C   0  0  0  0  0  0
  -30.6619  -16.9052   21.2049 C   0  0  0  0  0  0
  -29.9838  -21.9342   21.1792 C   0  0  0  0  0  0
  -30.3290  -15.6135   21.5092 C   0  0  0  0  0  0
  -29.5591  -23.1702   21.5818 C   0  0  0  0  0  0
  -29.3624  -24.3290   20.6458 C   0  0  0  0  0  0
  -30.7897  -21.9333   24.2019 C   0  0  0  0  0  0
  -28.3922  -25.4823   21.0605 C   0  0  0  0  0  0
  -29.9436  -24.4011   19.5575 O   0  0  0  0  0  0
  -31.4614  -12.3612   19.2109 H   0  0  0  0  0  0
  -30.2501  -11.3477   19.9211 H   0  0  0  0  0  0
  -29.7700  -11.7693   17.4862 H   0  0  0  0  0  0
  -29.6877  -13.4908   17.7887 H   0  0  0  0  0  0
  -27.8313  -11.3175   18.8378 H   0  0  0  0  0  0
  -27.3976  -12.6302   17.7834 H   0  0  0  0  0  0
  -27.6850  -14.2729   19.5424 H   0  0  0  0  0  0
  -28.6612  -12.0967   21.4417 H   0  0  0  0  0  0
  -28.4283  -13.7857   21.8196 H   0  0  0  0  0  0
  -25.2698   -9.5805   22.4830 H   0  0  0  0  0  0
  -23.9960   -7.4734   22.7546 H   0  0  0  0  0  0
  -21.0835   -8.8782   19.8951 H   0  0  0  0  0  0
  -22.3638  -10.9707   19.6169 H   0  0  0  0  0  0
  -21.2069   -7.6167   23.9733 H   0  0  0  0  0  0
  -21.1477   -6.0519   25.9087 H   0  0  0  0  0  0
  -22.0571   -2.7599   23.2841 H   0  0  0  0  0  0
  -22.3840  -12.0166   22.4925 H   0  0  0  0  0  0
  -21.0906  -13.1515   22.2289 H   0  0  0  0  0  0
  -24.6895  -15.8722   20.5511 H   0  0  0  0  0  0
  -26.3069  -15.6163   20.1287 H   0  0  0  0  0  0
  -26.7168  -32.5503   23.1247 H   0  0  0  0  0  0
  -24.9877  -33.9758   25.0397 H   0  0  0  0  0  0
  -22.7048  -31.2934   21.3908 H   0  0  0  0  0  0
  -23.3734  -35.9667   23.3269 H   0  0  0  0  0  0
  -24.3587  -36.8980   22.2034 H   0  0  0  0  0  0
  -23.7221  -37.6561   23.6649 H   0  0  0  0  0  0
  -26.0316  -31.5737   20.5679 H   0  0  0  0  0  0
  -26.8366  -30.9066   21.9636 H   0  0  0  0  0  0
  -28.1237  -29.0870   21.1901 H   0  0  0  0  0  0
  -26.0903  -25.9146   19.1003 H   0  0  0  0  0  0
  -24.0028  -27.2431   19.0842 H   0  0  0  0  0  0
  -23.7350  -30.5472   19.3902 H   0  0  0  0  0  0
  -22.7577  -29.1974   19.8853 H   0  0  0  0  0  0
  -25.1257  -36.2012   25.0839 H   0  0  0  0  0  0
  -20.9961  -28.3271   24.1439 H   0  0  0  0  0  0
  -20.5756  -26.2298   23.3599 H   0  0  0  0  0  0
  -21.6646  -26.7517   22.1140 H   0  0  0  0  0  0
  -19.6906  -25.6322   21.1239 H   0  0  0  0  0  0
  -19.6691  -27.3240   20.6779 H   0  0  0  0  0  0
  -17.4208  -26.6713   21.4029 H   0  0  0  0  0  0
  -18.0317  -26.0102   22.9026 H   0  0  0  0  0  0
  -19.7903  -30.7280   24.2327 H   0  0  0  0  0  0
  -17.4968  -31.6263   24.5150 H   0  0  0  0  0  0
  -15.5330  -30.2990   23.7598 H   0  0  0  0  0  0
  -15.8679  -28.0835   22.7022 H   0  0  0  0  0  0
  -24.5783  -30.7095   25.7745 H   0  0  0  0  0  0
  -24.8748  -32.2897   26.4809 H   0  0  0  0  0  0
  -25.7805  -30.8929   27.0259 H   0  0  0  0  0  0
  -26.2798  -29.6899   24.0970 H   0  0  0  0  0  0
  -27.3647  -29.7104   25.4654 H   0  0  0  0  0  0
  -27.8732  -30.4307   23.9535 H   0  0  0  0  0  0
  -27.2688  -33.3544   26.2139 H   0  0  0  0  0  0
  -28.3810  -32.6728   25.0361 H   0  0  0  0  0  0
  -28.0636  -31.8308   26.5430 H   0  0  0  0  0  0
  -28.2576  -38.0132   24.7485 H   0  0  0  0  0  0
  -28.1085  -36.2656   24.6252 H   0  0  0  0  0  0
  -27.2282  -37.1441   25.8844 H   0  0  0  0  0  0
  -20.9389  -29.8720   21.6848 H   0  0  0  0  0  0
  -26.0194  -38.2879   24.1381 H   0  0  0  0  0  0
  -30.7492  -17.2813   23.9247 H   0  0  0  0  0  0
  -30.8196  -19.4276   25.1383 H   0  0  0  0  0  0
  -30.1306  -19.4219   20.2421 H   0  0  0  0  0  0
  -31.2102  -17.0600   20.2867 H   0  0  0  0  0  0
  -30.1634  -21.8181   20.1180 H   0  0  0  0  0  0
  -29.7833  -15.3944   22.4146 H   0  0  0  0  0  0
  -29.3451  -23.3623   22.6221 H   0  0  0  0  0  0
  -31.4450  -21.7063   25.0465 H   0  0  0  0  0  0
  -29.8723  -22.3602   24.6065 H   0  0  0  0  0  0
  -31.3154  -22.6829   23.6071 H   0  0  0  0  0  0
  -28.6676  -25.8092   22.0640 H   0  0  0  0  0  0
  -27.3854  -25.0670   21.1273 H   0  0  0  0  0  0
  1 25  1  0  0  0
  1 30  2  0  0  0
  1 79  1  0  0  0
  2  3  1  0  0  0
  2 25  1  0  0  0
  2 85  1  0  0  0
  2 86  1  0  0  0
  3  4  1  0  0  0
  3 87  1  0  0  0
  3 88  1  0  0  0
  4  5  1  0  0  0
  4 89  1  0  0  0
  4 90  1  0  0  0
  5  6  1  0  0  0
  5 26  1  0  0  0
  5 91  1  0  0  0
  6 25  1  0  0  0
  6 92  1  0  0  0
  6 93  1  0  0  0
  7  8  2  0  0  0
  7 26  1  0  0  0
  7 29  1  0  0  0
  8  9  1  0  0  0
  8 22  1  0  0  0
  9 10  1  0  0  0
  9 27  2  0  0  0
 10 11  2  0  0  0
 10 15  1  0  0  0
 11 12  1  0  0  0
 11 94  1  0  0  0
 12 13  2  0  0  0
 12 95  1  0  0  0
 13 14  1  0  0  0
 13 31  1  0  0  0
 14 15  2  0  0  0
 14 96  1  0  0  0
 15 97  1  0  0  0
 16 17  2  0  0  0
 16 21  1  0  0  0
 16 31  1  0  0  0
 17 18  1  0  0  0
 17 98  1  0  0  0
 18 19  2  0  0  0
 18 99  1  0  0  0
 19 20  1  0  0  0
 19 24  1  0  0  0
 20 21  2  0  0  0
 20100  1  0  0  0
 21 23  1  0  0  0
 22 28  1  0  0  0
 22 32  2  0  0  0
 26 27  1  0  0  0
 28101  1  0  0  0
 28102  1  0  0  0
 29103  1  0  0  0
 29104  1  0  0  0
 33 34  1  0  0  0
 33 66  1  0  0  0
 33 70  2  0  0  0
 34 36  1  0  0  0
 34 59  1  0  0  0
 34105  1  0  0  0
 35 44  2  0  0  0
 35 45  1  0  0  0
 35 68  1  0  0  0
 36 56  1  0  0  0
 36106  1  0  0  0
 37 39  1  0  0  0
 37 47  1  0  0  0
 37 66  1  0  0  0
 37107  1  0  0  0
 38 43  2  0  0  0
 38 46  1  0  0  0
 38 47  1  0  0  0
 39 64  1  0  0  0
 39 67  2  0  0  0
 40 52  1  0  0  0
 40 53  2  0  0  0
 40 58  1  0  0  0
 41108  1  0  0  0
 41109  1  0  0  0
 41110  1  0  0  0
 41 48  1  0  0  0
 42 43  1  0  0  0
 42 66  1  0  0  0
 42111  1  0  0  0
 42112  1  0  0  0
 43 44  1  0  0  0
 44113  1  0  0  0
 45 46  2  0  0  0
 45114  1  0  0  0
 46115  1  0  0  0
 47116  1  0  0  0
 47117  1  0  0  0
 48 56  1  0  0  0
 48 65  1  0  0  0
 48118  1  0  0  0
 49 50  1  0  0  0
 49 53  1  0  0  0
 49 64  1  0  0  0
 49119  1  0  0  0
 50 51  1  0  0  0
 50120  1  0  0  0
 50121  1  0  0  0
 51 52  1  0  0  0
 51122  1  0  0  0
 51123  1  0  0  0
 52124  1  0  0  0
 52125  1  0  0  0
 53 54  1  0  0  0
 54 55  2  0  0  0
 54126  1  0  0  0
 55 57  1  0  0  0
 55127  1  0  0  0
 56 69  2  0  0  0
 57 58  2  0  0  0
 57128  1  0  0  0
 58129  1  0  0  0
 59 60  1  0  0  0
 59 61  1  0  0  0
 59 62  1  0  0  0
 60130  1  0  0  0
 60131  1  0  0  0
 60132  1  0  0  0
 61133  1  0  0  0
 61134  1  0  0  0
 61135  1  0  0  0
 62136  1  0  0  0
 62137  1  0  0  0
 62138  1  0  0  0
 63 65  1  0  0  0
 63139  1  0  0  0
 63140  1  0  0  0
 63141  1  0  0  0
 64142  1  0  0  0
 65143  1  0  0  0
 68 83  1  0  0  0
 71 72  2  0  0  0
 71 74  1  0  0  0
 71144  1  0  0  0
 72 76  1  0  0  0
 72145  1  0  0  0
 73 74  2  0  0  0
 73 75  1  0  0  0
 73146  1  0  0  0
 74 77  1  0  0  0
 75 76  2  0  0  0
 75 78  1  0  0  0
 76 82  1  0  0  0
 77 79  2  0  0  0
 77147  1  0  0  0
 78 80  2  0  0  0
 78148  1  0  0  0
 79149  1  0  0  0
 80 81  1  0  0  0
 80150  1  0  0  0
 81 83  1  0  0  0
 81 84  2  0  0  0
 82151  1  0  0  0
 82152  1  0  0  0
 82153  1  0  0  0
 83154  1  0  0  0
 83155  1  0  0  0
M  ISO  4   1 100  68 101  79 100  83 101
M  END
> <chiral flag>
0

> <version>
0

> <s_m_source_file>
/data/baiqing/PycharmProjects/Reinvent-master-3.2/result/LINK_invent/BTK/process_docking_weight1_custom_product_contain_oxygen_bond_distance_aromatic_linkinvent_7_9_3/rearranged_h_0127.sdf

> <i_m_source_file_index>
44

> <r_mmod_Potential_Energy-OPLS-2005>
33.7148895263672

> <r_mmod_Stretch_Energy-OPLS-2005>
60.0505867004395

> <r_mmod_Bend_Energy-OPLS-2005>
116.957221984863

> <r_mmod_Torsional_Energy-OPLS-2005>
224.802230834961

> <r_mmod_Improper_Torsional_Energy-OPLS-2005>
3.08727145195007

> <r_mmod_Van_der_Waal_Energy-OPLS-2005>
149.40153503418

> <r_mmod_Electrostatic_Energy-OPLS-2005>
-328.760620117188

> <r_mmod_Solvation_Energy-OPLS-2005>
-215.988052368164

> <b_mmod_Minimization_Converged-OPLS-2005>
0

> <r_mmod_RMS_Derivative-OPLS-2005>
6.092942237854

$$$$
44
                    3D
 Structure written by MMmdl.
150158  0  0  1  0            999 V2000
  -30.6861  -14.5415   20.5361 C   0  0  0  0  0  0
  -30.4212  -12.3366   19.4515 C   0  0  0  0  0  0
  -29.5036  -12.5100   18.2224 C   0  0  0  0  0  0
  -28.0224  -12.3671   18.6250 C   0  0  0  0  0  0
  -27.6581  -13.2167   19.8724 C   0  0  2  0  0  0
  -28.6971  -13.0264   20.9987 C   0  0  0  0  0  0
  -25.2569  -13.8178   20.5691 C   0  0  0  0  0  0
  -24.1825  -13.0442   20.9170 C   0  0  0  0  0  0
  -24.6390  -11.6912   20.8719 C   0  0  0  0  0  0
  -23.9057  -10.4294   21.0392 C   0  0  0  0  0  0
  -24.3609   -9.4213   21.9176 C   0  0  0  0  0  0
  -23.6287   -8.2247   22.0755 C   0  0  0  0  0  0
  -22.4268   -8.0279   21.3546 C   0  0  0  0  0  0
  -21.9896   -9.0252   20.4652 C   0  0  0  0  0  0
  -22.7223  -10.2132   20.3051 C   0  0  0  0  0  0
  -21.6853   -6.0731   22.5277 C   0  0  0  0  0  0
  -21.4017   -6.5636   23.8212 C   0  0  0  0  0  0
  -21.3662   -5.6791   24.9173 C   0  0  0  0  0  0
  -21.6042   -4.3053   24.7226 C   0  0  0  0  0  0
  -21.8819   -3.8145   23.4346 C   0  0  0  0  0  0
  -21.9195   -4.6960   22.3403 C   0  0  0  0  0  0
  -22.7848  -13.5237   21.1838 C   0  0  0  0  0  0
  -22.1662   -4.2146   21.0978 F   0  0  0  0  0  0
  -21.5628   -3.4536   25.7739 F   0  0  0  0  0  0
  -30.0239  -13.3472   20.4515 N   0  0  0  0  0  0
  -26.3007  -12.9364   20.3349 N   0  0  0  0  0  0
  -25.9321  -11.6513   20.5743 N   0  0  0  0  0  0
  -22.0492  -12.8237   22.0404 N   0  0  0  0  0  0
  -25.4295  -15.1898   20.4136 N   0  0  0  0  0  0
  -31.8253  -14.6634   20.0752 O   0  0  0  0  0  0
  -21.6638   -6.8871   21.4239 O   0  0  0  0  0  0
  -22.3531  -14.5546   20.6689 O   0  0  0  0  0  0
  -24.6190  -31.8653   23.2080 C   0  0  0  0  0  0
  -25.9066  -32.4810   23.8387 C   0  0  1  0  0  0
  -27.2254  -27.3865   20.1073 C   0  0  0  0  0  0
  -25.5907  -33.8610   24.2313 N   0  0  0  0  0  0
  -23.4084  -30.4901   21.5492 C   0  0  2  0  0  0
  -24.8535  -28.9547   20.1107 C   0  0  0  0  0  0
  -22.7437  -29.4644   22.4966 C   0  0  0  0  0  0
  -18.0277  -28.1384   22.8485 C   0  0  0  0  0  0
  -24.1485  -36.7312   23.2636 C   0  0  0  0  0  0
  -25.9422  -30.8174   21.3677 C   0  0  0  0  0  0
  -26.0167  -29.4494   20.7126 C   0  0  0  0  0  0
  -27.2050  -28.6743   20.7054 C   0  0  0  0  0  0
  -26.0429  -26.9287   19.4798 C   0  0  0  0  0  0
  -24.8644  -27.6967   19.4879 C   0  0  0  0  0  0
  -23.6187  -29.8270   20.1623 C   0  0  0  0  0  0
  -25.4105  -36.3104   24.0335 C   0  0  1  0  0  0
  -20.5870  -28.3676   23.1306 C   0  0  2  0  0  0
  -20.6771  -26.9408   22.5417 C   0  0  0  0  0  0
  -19.5749  -26.6387   21.5215 C   0  0  0  0  0  0
  -18.1926  -26.7928   22.1624 C   0  0  0  0  0  0
  -19.1528  -28.8847   23.2891 C   0  0  0  0  0  0
  -18.9455  -30.1452   23.8904 C   0  0  0  0  0  0
  -17.6456  -30.6588   24.0565 C   0  0  0  0  0  0
  -25.9038  -34.9471   23.5122 C   0  0  0  0  0  0
  -16.5348  -29.9090   23.6325 C   0  0  0  0  0  0
  -16.7266  -28.6510   23.0340 C   0  0  0  0  0  0
  -26.4480  -31.6600   25.0730 C   0  0  0  0  0  0
  -25.3736  -31.3722   26.1474 C   0  0  0  0  0  0
  -27.0317  -30.3039   24.6129 C   0  0  0  0  0  0
  -27.6054  -32.4321   25.7492 C   0  0  0  0  0  0
  -27.5581  -37.1803   24.8458 C   0  0  0  0  0  0
  -21.4158  -29.3037   22.3709 N   0  0  0  0  0  0
  -26.4285  -37.3795   23.9416 N   0  0  0  0  0  0
  -24.6751  -31.0727   22.0996 N   0  0  0  0  0  0
  -23.4196  -28.8179   23.3013 O   0  0  0  0  0  0
  -28.3736  -26.6037   20.1607 O   0  0  0  0  0  0
  -26.5601  -34.8927   22.4685 O   0  0  0  0  0  0
  -23.5372  -32.1418   23.7454 O   0  0  0  0  0  0
  -29.8675  -19.5456   20.5456 C   0  0  0  0  0  0
  -28.5525  -19.5949   22.3470 C   0  0  0  0  0  0
  -29.1735  -20.4155   21.4475 C   0  0  0  0  0  0
  -29.6872  -18.2561   21.0110 C   0  0  0  0  0  0
  -29.0944  -21.9078   21.4902 C   0  0  0  0  0  0
  -30.2104  -16.9638   20.6134 C   0  0  0  0  0  0
  -29.9525  -15.7056   21.0720 C   0  0  0  0  0  0
  -29.3433  -22.8210   20.5193 C   0  0  0  0  0  0
  -29.3474  -24.3533   20.7269 C   0  0  0  0  0  0
  -28.2320  -25.1635   20.0046 C   0  0  0  0  0  0
  -28.8524  -18.2845   22.0926 O   0  0  0  0  0  0
  -31.4683  -12.4204   19.1567 H   0  0  0  0  0  0
  -30.3152  -11.3336   19.8675 H   0  0  0  0  0  0
  -29.7560  -11.7763   17.4561 H   0  0  0  0  0  0
  -29.6701  -13.4906   17.7740 H   0  0  0  0  0  0
  -27.8361  -11.3121   18.8290 H   0  0  0  0  0  0
  -27.3774  -12.6328   17.7870 H   0  0  0  0  0  0
  -27.6938  -14.2616   19.5635 H   0  0  0  0  0  0
  -28.6862  -11.9933   21.3496 H   0  0  0  0  0  0
  -28.4441  -13.6220   21.8741 H   0  0  0  0  0  0
  -25.2754   -9.5696   22.4748 H   0  0  0  0  0  0
  -24.0005   -7.4639   22.7469 H   0  0  0  0  0  0
  -21.0829   -8.8764   19.8959 H   0  0  0  0  0  0
  -22.3675  -10.9667   19.6161 H   0  0  0  0  0  0
  -21.2008   -7.6146   23.9711 H   0  0  0  0  0  0
  -21.1484   -6.0523   25.9076 H   0  0  0  0  0  0
  -22.0597   -2.7608   23.2845 H   0  0  0  0  0  0
  -22.4106  -11.9904   22.4804 H   0  0  0  0  0  0
  -21.1113  -13.1275   22.2609 H   0  0  0  0  0  0
  -24.6678  -15.8491   20.5298 H   0  0  0  0  0  0
  -26.2947  -15.6309   20.1274 H   0  0  0  0  0  0
  -26.7136  -32.5506   23.1147 H   0  0  0  0  0  0
  -25.0063  -33.9771   25.0463 H   0  0  0  0  0  0
  -22.6983  -31.3079   21.4112 H   0  0  0  0  0  0
  -23.3748  -35.9642   23.3290 H   0  0  0  0  0  0
  -24.3582  -36.8938   22.2052 H   0  0  0  0  0  0
  -23.7236  -37.6513   23.6658 H   0  0  0  0  0  0
  -26.0602  -31.5810   20.5976 H   0  0  0  0  0  0
  -26.8285  -30.8704   21.9883 H   0  0  0  0  0  0
  -28.0989  -29.0484   21.1844 H   0  0  0  0  0  0
  -26.0073  -25.9714   18.9810 H   0  0  0  0  0  0
  -23.9726  -27.3143   19.0108 H   0  0  0  0  0  0
  -23.7328  -30.6048   19.4062 H   0  0  0  0  0  0
  -22.7405  -29.2526   19.8621 H   0  0  0  0  0  0
  -25.1278  -36.1963   25.0827 H   0  0  0  0  0  0
  -20.9960  -28.3249   24.1428 H   0  0  0  0  0  0
  -20.5683  -26.2284   23.3608 H   0  0  0  0  0  0
  -21.6642  -26.7454   22.1205 H   0  0  0  0  0  0
  -19.6913  -25.6300   21.1240 H   0  0  0  0  0  0
  -19.6690  -27.3202   20.6749 H   0  0  0  0  0  0
  -17.4197  -26.6669   21.4024 H   0  0  0  0  0  0
  -18.0327  -26.0074   22.9025 H   0  0  0  0  0  0
  -19.7934  -30.7262   24.2276 H   0  0  0  0  0  0
  -17.5016  -31.6268   24.5168 H   0  0  0  0  0  0
  -15.5349  -30.2997   23.7650 H   0  0  0  0  0  0
  -15.8665  -28.0840   22.7042 H   0  0  0  0  0  0
  -24.5897  -30.7084   25.7810 H   0  0  0  0  0  0
  -24.8943  -32.2886   26.4926 H   0  0  0  0  0  0
  -25.8077  -30.8882   27.0232 H   0  0  0  0  0  0
  -26.2877  -29.6798   24.1167 H   0  0  0  0  0  0
  -27.4065  -29.7280   25.4601 H   0  0  0  0  0  0
  -27.8719  -30.4356   23.9307 H   0  0  0  0  0  0
  -27.2675  -33.3612   26.2096 H   0  0  0  0  0  0
  -28.3850  -32.6895   25.0310 H   0  0  0  0  0  0
  -28.0738  -31.8429   26.5387 H   0  0  0  0  0  0
  -28.2582  -38.0117   24.7534 H   0  0  0  0  0  0
  -28.1092  -36.2651   24.6237 H   0  0  0  0  0  0
  -27.2307  -37.1404   25.8862 H   0  0  0  0  0  0
  -20.9323  -29.8768   21.6934 H   0  0  0  0  0  0
  -26.0169  -38.2867   24.1438 H   0  0  0  0  0  0
  -30.4777  -19.8278   19.6993 H   0  0  0  0  0  0
  -27.9140  -19.7668   23.2029 H   0  0  0  0  0  0
  -28.8353  -22.3007   22.4640 H   0  0  0  0  0  0
  -30.9447  -17.0464   19.8234 H   0  0  0  0  0  0
  -29.2190  -15.5861   21.8529 H   0  0  0  0  0  0
  -29.5873  -22.4785   19.5233 H   0  0  0  0  0  0
  -30.3201  -24.7212   20.3992 H   0  0  0  0  0  0
  -29.2938  -24.5645   21.7957 H   0  0  0  0  0  0
  -27.2813  -24.8210   20.4161 H   0  0  0  0  0  0
  -28.2283  -24.9254   18.9403 H   0  0  0  0  0  0
  1 25  1  0  0  0
  1 30  2  0  0  0
  1 77  1  0  0  0
  2  3  1  0  0  0
  2 25  1  0  0  0
  2 82  1  0  0  0
  2 83  1  0  0  0
  3  4  1  0  0  0
  3 84  1  0  0  0
  3 85  1  0  0  0
  4  5  1  0  0  0
  4 86  1  0  0  0
  4 87  1  0  0  0
  5  6  1  0  0  0
  5 26  1  0  0  0
  5 88  1  0  0  0
  6 25  1  0  0  0
  6 89  1  0  0  0
  6 90  1  0  0  0
  7  8  2  0  0  0
  7 26  1  0  0  0
  7 29  1  0  0  0
  8  9  1  0  0  0
  8 22  1  0  0  0
  9 10  1  0  0  0
  9 27  2  0  0  0
 10 11  2  0  0  0
 10 15  1  0  0  0
 11 12  1  0  0  0
 11 91  1  0  0  0
 12 13  2  0  0  0
 12 92  1  0  0  0
 13 14  1  0  0  0
 13 31  1  0  0  0
 14 15  2  0  0  0
 14 93  1  0  0  0
 15 94  1  0  0  0
 16 17  2  0  0  0
 16 21  1  0  0  0
 16 31  1  0  0  0
 17 18  1  0  0  0
 17 95  1  0  0  0
 18 19  2  0  0  0
 18 96  1  0  0  0
 19 20  1  0  0  0
 19 24  1  0  0  0
 20 21  2  0  0  0
 20 97  1  0  0  0
 21 23  1  0  0  0
 22 28  1  0  0  0
 22 32  2  0  0  0
 26 27  1  0  0  0
 28 98  1  0  0  0
 28 99  1  0  0  0
 29100  1  0  0  0
 29101  1  0  0  0
 33 34  1  0  0  0
 33 66  1  0  0  0
 33 70  2  0  0  0
 34 36  1  0  0  0
 34 59  1  0  0  0
 34102  1  0  0  0
 35 44  2  0  0  0
 35 45  1  0  0  0
 35 68  1  0  0  0
 36 56  1  0  0  0
 36103  1  0  0  0
 37 39  1  0  0  0
 37 47  1  0  0  0
 37 66  1  0  0  0
 37104  1  0  0  0
 38 43  2  0  0  0
 38 46  1  0  0  0
 38 47  1  0  0  0
 39 64  1  0  0  0
 39 67  2  0  0  0
 40 52  1  0  0  0
 40 53  2  0  0  0
 40 58  1  0  0  0
 41105  1  0  0  0
 41106  1  0  0  0
 41107  1  0  0  0
 41 48  1  0  0  0
 42 43  1  0  0  0
 42 66  1  0  0  0
 42108  1  0  0  0
 42109  1  0  0  0
 43 44  1  0  0  0
 44110  1  0  0  0
 45 46  2  0  0  0
 45111  1  0  0  0
 46112  1  0  0  0
 47113  1  0  0  0
 47114  1  0  0  0
 48 56  1  0  0  0
 48 65  1  0  0  0
 48115  1  0  0  0
 49 50  1  0  0  0
 49 53  1  0  0  0
 49 64  1  0  0  0
 49116  1  0  0  0
 50 51  1  0  0  0
 50117  1  0  0  0
 50118  1  0  0  0
 51 52  1  0  0  0
 51119  1  0  0  0
 51120  1  0  0  0
 52121  1  0  0  0
 52122  1  0  0  0
 53 54  1  0  0  0
 54 55  2  0  0  0
 54123  1  0  0  0
 55 57  1  0  0  0
 55124  1  0  0  0
 56 69  2  0  0  0
 57 58  2  0  0  0
 57125  1  0  0  0
 58126  1  0  0  0
 59 60  1  0  0  0
 59 61  1  0  0  0
 59 62  1  0  0  0
 60127  1  0  0  0
 60128  1  0  0  0
 60129  1  0  0  0
 61130  1  0  0  0
 61131  1  0  0  0
 61132  1  0  0  0
 62133  1  0  0  0
 62134  1  0  0  0
 62135  1  0  0  0
 63 65  1  0  0  0
 63136  1  0  0  0
 63137  1  0  0  0
 63138  1  0  0  0
 64139  1  0  0  0
 65140  1  0  0  0
 68 80  1  0  0  0
 71 73  1  0  0  0
 71 74  2  0  0  0
 71141  1  0  0  0
 72 73  2  0  0  0
 72 81  1  0  0  0
 72142  1  0  0  0
 73 75  1  0  0  0
 74 76  1  0  0  0
 74 81  1  0  0  0
 75 78  2  0  0  0
 75143  1  0  0  0
 76 77  2  0  0  0
 76144  1  0  0  0
 77145  1  0  0  0
 78 79  1  0  0  0
 78146  1  0  0  0
 79 80  1  0  0  0
 79147  1  0  0  0
 79148  1  0  0  0
 80149  1  0  0  0
 80150  1  0  0  0
M  ISO  4   1 100  68 101  77 100  80 101
M  END
> <chiral flag>
0

> <version>
0

> <s_m_source_file>
/data/baiqing/PycharmProjects/Reinvent-master-3.2/result/LINK_invent/BTK/process_docking_weight1_custom_product_contain_oxygen_bond_distance_aromatic_linkinvent_7_9_3/rearranged_h_0127.sdf

> <i_m_source_file_index>
45

> <r_mmod_Potential_Energy-OPLS-2005>
-40.8708267211914

> <r_mmod_Stretch_Energy-OPLS-2005>
45.5196304321289

> <r_mmod_Bend_Energy-OPLS-2005>
110.171806335449

> <r_mmod_Torsional_Energy-OPLS-2005>
180.891998291016

> <r_mmod_Improper_Torsional_Energy-OPLS-2005>
3.34083914756775

> <r_mmod_Van_der_Waal_Energy-OPLS-2005>
131.905349731445

> <r_mmod_Electrostatic_Energy-OPLS-2005>
-342.152954101562

> <r_mmod_Solvation_Energy-OPLS-2005>
-194.042678833008

> <b_mmod_Minimization_Converged-OPLS-2005>
0

> <r_mmod_RMS_Derivative-OPLS-2005>
0.637022912502289

$$$$
45
                    3D
 Structure written by MMmdl.
153161  0  0  1  0            999 V2000
  -30.7380  -14.4633   20.6110 C   0  0  0  0  0  0
  -30.4201  -12.3227   19.4130 C   0  0  0  0  0  0
  -29.4882  -12.5088   18.1999 C   0  0  0  0  0  0
  -28.0128  -12.3643   18.6188 C   0  0  0  0  0  0
  -27.6603  -13.2101   19.8714 C   0  0  2  0  0  0
  -28.7045  -13.0044   20.9910 C   0  0  0  0  0  0
  -25.2586  -13.8169   20.5683 C   0  0  0  0  0  0
  -24.1838  -13.0443   20.9178 C   0  0  0  0  0  0
  -24.6393  -11.6908   20.8732 C   0  0  0  0  0  0
  -23.9061  -10.4294   21.0402 C   0  0  0  0  0  0
  -24.3613   -9.4209   21.9182 C   0  0  0  0  0  0
  -23.6289   -8.2244   22.0752 C   0  0  0  0  0  0
  -22.4274   -8.0279   21.3541 C   0  0  0  0  0  0
  -21.9906   -9.0253   20.4646 C   0  0  0  0  0  0
  -22.7232  -10.2133   20.3053 C   0  0  0  0  0  0
  -21.6853   -6.0735   22.5276 C   0  0  0  0  0  0
  -21.4012   -6.5638   23.8210 C   0  0  0  0  0  0
  -21.3658   -5.6790   24.9173 C   0  0  0  0  0  0
  -21.6045   -4.3055   24.7224 C   0  0  0  0  0  0
  -21.8820   -3.8146   23.4347 C   0  0  0  0  0  0
  -21.9195   -4.6962   22.3402 C   0  0  0  0  0  0
  -22.7859  -13.5240   21.1842 C   0  0  0  0  0  0
  -22.1663   -4.2147   21.0977 F   0  0  0  0  0  0
  -21.5631   -3.4536   25.7737 F   0  0  0  0  0  0
  -30.0333  -13.3107   20.4338 N   0  0  0  0  0  0
  -26.3022  -12.9344   20.3365 N   0  0  0  0  0  0
  -25.9324  -11.6500   20.5770 N   0  0  0  0  0  0
  -22.0503  -12.8229   22.0398 N   0  0  0  0  0  0
  -25.4319  -15.1887   20.4099 N   0  0  0  0  0  0
  -31.8409  -14.6536   20.0924 O   0  0  0  0  0  0
  -21.6638   -6.8875   21.4238 O   0  0  0  0  0  0
  -22.3545  -14.5552   20.6702 O   0  0  0  0  0  0
  -24.6178  -31.8668   23.2104 C   0  0  0  0  0  0
  -25.9061  -32.4818   23.8397 C   0  0  1  0  0  0
  -27.2296  -27.4094   20.0850 C   0  0  0  0  0  0
  -25.5909  -33.8619   24.2326 N   0  0  0  0  0  0
  -23.4059  -30.4929   21.5524 C   0  0  2  0  0  0
  -24.8495  -28.9618   20.1131 C   0  0  0  0  0  0
  -22.7424  -29.4658   22.4989 C   0  0  0  0  0  0
  -18.0272  -28.1382   22.8493 C   0  0  0  0  0  0
  -24.1484  -36.7303   23.2640 C   0  0  0  0  0  0
  -25.9399  -30.8237   21.3686 C   0  0  0  0  0  0
  -26.0149  -29.4585   20.7105 C   0  0  0  0  0  0
  -27.2069  -28.6911   20.6923 C   0  0  0  0  0  0
  -26.0383  -26.9428   19.4758 C   0  0  0  0  0  0
  -24.8579  -27.7044   19.4934 C   0  0  0  0  0  0
  -23.6137  -29.8309   20.1658 C   0  0  0  0  0  0
  -25.4106  -36.3105   24.0337 C   0  0  1  0  0  0
  -20.5867  -28.3667   23.1312 C   0  0  2  0  0  0
  -20.6763  -26.9400   22.5419 C   0  0  0  0  0  0
  -19.5742  -26.6386   21.5219 C   0  0  0  0  0  0
  -18.1918  -26.7929   22.1625 C   0  0  0  0  0  0
  -19.1524  -28.8842   23.2900 C   0  0  0  0  0  0
  -18.9451  -30.1449   23.8910 C   0  0  0  0  0  0
  -17.6451  -30.6587   24.0568 C   0  0  0  0  0  0
  -25.9034  -34.9472   23.5123 C   0  0  0  0  0  0
  -16.5342  -29.9089   23.6333 C   0  0  0  0  0  0
  -16.7261  -28.6506   23.0352 C   0  0  0  0  0  0
  -26.4479  -31.6600   25.0731 C   0  0  0  0  0  0
  -25.3739  -31.3718   26.1480 C   0  0  0  0  0  0
  -27.0307  -30.3038   24.6119 C   0  0  0  0  0  0
  -27.6055  -32.4323   25.7488 C   0  0  0  0  0  0
  -27.5576  -37.1803   24.8466 C   0  0  0  0  0  0
  -21.4148  -29.3037   22.3721 N   0  0  0  0  0  0
  -26.4289  -37.3792   23.9408 N   0  0  0  0  0  0
  -24.6730  -31.0750   22.1017 N   0  0  0  0  0  0
  -23.4187  -28.8195   23.3032 O   0  0  0  0  0  0
  -28.3866  -26.6412   20.1059 O   0  0  0  0  0  0
  -26.5601  -34.8925   22.4687 O   0  0  0  0  0  0
  -23.5361  -32.1432   23.7481 O   0  0  0  0  0  0
  -29.4085  -18.7003   21.6625 C   0  0  0  0  0  0
  -31.5355  -18.5777   20.5053 C   0  0  0  0  0  0
  -29.2608  -20.0496   21.2539 C   0  0  0  0  0  0
  -31.3894  -19.9240   20.1018 C   0  0  0  0  0  0
  -30.5631  -17.9600   21.3202 C   0  0  0  0  0  0
  -30.2707  -20.6932   20.4915 C   0  0  0  0  0  0
  -29.4203  -24.3530   20.2089 C   0  0  0  0  0  0
  -30.8398  -16.5816   21.9384 C   0  0  0  0  0  0
  -29.1329  -22.8522   20.4628 C   0  0  0  0  0  0
  -28.2132  -25.2309   19.8217 C   0  0  0  0  0  0
  -30.1539  -15.4151   21.3615 N   0  0  0  0  0  0
  -30.5599  -24.8242   20.3109 O   0  0  0  0  0  0
  -30.2605  -22.0308   20.1194 O   0  0  0  0  0  0
  -31.4625  -12.4223   19.1051 H   0  0  0  0  0  0
  -30.3267  -11.3134   19.8168 H   0  0  0  0  0  0
  -29.7285  -11.7789   17.4255 H   0  0  0  0  0  0
  -29.6509  -13.4920   17.7559 H   0  0  0  0  0  0
  -27.8294  -11.3085   18.8218 H   0  0  0  0  0  0
  -27.3577  -12.6306   17.7887 H   0  0  0  0  0  0
  -27.7016  -14.2568   19.5688 H   0  0  0  0  0  0
  -28.6862  -11.9713   21.3413 H   0  0  0  0  0  0
  -28.4586  -13.6096   21.8639 H   0  0  0  0  0  0
  -25.2760   -9.5686   22.4752 H   0  0  0  0  0  0
  -24.0002   -7.4635   22.7467 H   0  0  0  0  0  0
  -21.0840   -8.8770   19.8948 H   0  0  0  0  0  0
  -22.3694  -10.9670   19.6158 H   0  0  0  0  0  0
  -21.1996   -7.6146   23.9714 H   0  0  0  0  0  0
  -21.1478   -6.0519   25.9076 H   0  0  0  0  0  0
  -22.0601   -2.7607   23.2845 H   0  0  0  0  0  0
  -22.4120  -11.9887   22.4778 H   0  0  0  0  0  0
  -21.1120  -13.1250   22.2607 H   0  0  0  0  0  0
  -24.6696  -15.8485   20.5206 H   0  0  0  0  0  0
  -26.2919  -15.6255   20.1016 H   0  0  0  0  0  0
  -26.7128  -32.5519   23.1152 H   0  0  0  0  0  0
  -25.0071  -33.9782   25.0477 H   0  0  0  0  0  0
  -22.6959  -31.3109   21.4154 H   0  0  0  0  0  0
  -23.3746  -35.9637   23.3325 H   0  0  0  0  0  0
  -24.3574  -36.8895   22.2050 H   0  0  0  0  0  0
  -23.7240  -37.6514   23.6643 H   0  0  0  0  0  0
  -26.0588  -31.5915   20.6025 H   0  0  0  0  0  0
  -26.8257  -30.8721   21.9899 H   0  0  0  0  0  0
  -28.1055  -29.0711   21.1585 H   0  0  0  0  0  0
  -25.9868  -25.9885   18.9735 H   0  0  0  0  0  0
  -23.9637  -27.3168   19.0245 H   0  0  0  0  0  0
  -23.7223  -30.6087   19.4091 H   0  0  0  0  0  0
  -22.7360  -29.2537   19.8680 H   0  0  0  0  0  0
  -25.1282  -36.1966   25.0830 H   0  0  0  0  0  0
  -20.9954  -28.3230   24.1434 H   0  0  0  0  0  0
  -20.5670  -26.2275   23.3610 H   0  0  0  0  0  0
  -21.6630  -26.7445   22.1204 H   0  0  0  0  0  0
  -19.6905  -25.6303   21.1231 H   0  0  0  0  0  0
  -19.6685  -27.3209   20.6761 H   0  0  0  0  0  0
  -17.4192  -26.6690   21.4022 H   0  0  0  0  0  0
  -18.0310  -26.0064   22.9013 H   0  0  0  0  0  0
  -19.7927  -30.7263   24.2280 H   0  0  0  0  0  0
  -17.5009  -31.6268   24.5172 H   0  0  0  0  0  0
  -15.5346  -30.2998   23.7657 H   0  0  0  0  0  0
  -15.8657  -28.0835   22.7062 H   0  0  0  0  0  0
  -24.5913  -30.7061   25.7821 H   0  0  0  0  0  0
  -24.8932  -32.2881   26.4916 H   0  0  0  0  0  0
  -25.8092  -30.8896   27.0243 H   0  0  0  0  0  0
  -26.2850  -29.6803   24.1171 H   0  0  0  0  0  0
  -27.4070  -29.7273   25.4579 H   0  0  0  0  0  0
  -27.8694  -30.4349   23.9276 H   0  0  0  0  0  0
  -27.2672  -33.3617   26.2079 H   0  0  0  0  0  0
  -28.3854  -32.6891   25.0308 H   0  0  0  0  0  0
  -28.0736  -31.8441   26.5390 H   0  0  0  0  0  0
  -28.2603  -38.0089   24.7500 H   0  0  0  0  0  0
  -28.1061  -36.2623   24.6307 H   0  0  0  0  0  0
  -27.2298  -37.1461   25.8870 H   0  0  0  0  0  0
  -20.9311  -29.8765   21.6946 H   0  0  0  0  0  0
  -26.0181  -38.2867   24.1417 H   0  0  0  0  0  0
  -28.6509  -18.2514   22.2898 H   0  0  0  0  0  0
  -32.4294  -18.0364   20.2275 H   0  0  0  0  0  0
  -28.3764  -20.5819   21.5722 H   0  0  0  0  0  0
  -32.1690  -20.3832   19.5103 H   0  0  0  0  0  0
  -30.5568  -16.6301   22.9907 H   0  0  0  0  0  0
  -31.9193  -16.4158   21.9552 H   0  0  0  0  0  0
  -28.2642  -22.5446   19.8794 H   0  0  0  0  0  0
  -28.8867  -22.7359   21.5184 H   0  0  0  0  0  0
  -27.3451  -24.8433   20.3556 H   0  0  0  0  0  0
  -28.0339  -25.0988   18.7542 H   0  0  0  0  0  0
  -29.2290  -15.2117   21.7088 H   0  0  0  0  0  0
  1 25  1  0  0  0
  1 30  2  0  0  0
  1 81  1  0  0  0
  2  3  1  0  0  0
  2 25  1  0  0  0
  2 84  1  0  0  0
  2 85  1  0  0  0
  3  4  1  0  0  0
  3 86  1  0  0  0
  3 87  1  0  0  0
  4  5  1  0  0  0
  4 88  1  0  0  0
  4 89  1  0  0  0
  5  6  1  0  0  0
  5 26  1  0  0  0
  5 90  1  0  0  0
  6 25  1  0  0  0
  6 91  1  0  0  0
  6 92  1  0  0  0
  7  8  2  0  0  0
  7 26  1  0  0  0
  7 29  1  0  0  0
  8  9  1  0  0  0
  8 22  1  0  0  0
  9 10  1  0  0  0
  9 27  2  0  0  0
 10 11  2  0  0  0
 10 15  1  0  0  0
 11 12  1  0  0  0
 11 93  1  0  0  0
 12 13  2  0  0  0
 12 94  1  0  0  0
 13 14  1  0  0  0
 13 31  1  0  0  0
 14 15  2  0  0  0
 14 95  1  0  0  0
 15 96  1  0  0  0
 16 17  2  0  0  0
 16 21  1  0  0  0
 16 31  1  0  0  0
 17 18  1  0  0  0
 17 97  1  0  0  0
 18 19  2  0  0  0
 18 98  1  0  0  0
 19 20  1  0  0  0
 19 24  1  0  0  0
 20 21  2  0  0  0
 20 99  1  0  0  0
 21 23  1  0  0  0
 22 28  1  0  0  0
 22 32  2  0  0  0
 26 27  1  0  0  0
 28100  1  0  0  0
 28101  1  0  0  0
 29102  1  0  0  0
 29103  1  0  0  0
 33 34  1  0  0  0
 33 66  1  0  0  0
 33 70  2  0  0  0
 34 36  1  0  0  0
 34 59  1  0  0  0
 34104  1  0  0  0
 35 44  2  0  0  0
 35 45  1  0  0  0
 35 68  1  0  0  0
 36 56  1  0  0  0
 36105  1  0  0  0
 37 39  1  0  0  0
 37 47  1  0  0  0
 37 66  1  0  0  0
 37106  1  0  0  0
 38 43  2  0  0  0
 38 46  1  0  0  0
 38 47  1  0  0  0
 39 64  1  0  0  0
 39 67  2  0  0  0
 40 52  1  0  0  0
 40 53  2  0  0  0
 40 58  1  0  0  0
 41107  1  0  0  0
 41108  1  0  0  0
 41109  1  0  0  0
 41 48  1  0  0  0
 42 43  1  0  0  0
 42 66  1  0  0  0
 42110  1  0  0  0
 42111  1  0  0  0
 43 44  1  0  0  0
 44112  1  0  0  0
 45 46  2  0  0  0
 45113  1  0  0  0
 46114  1  0  0  0
 47115  1  0  0  0
 47116  1  0  0  0
 48 56  1  0  0  0
 48 65  1  0  0  0
 48117  1  0  0  0
 49 50  1  0  0  0
 49 53  1  0  0  0
 49 64  1  0  0  0
 49118  1  0  0  0
 50 51  1  0  0  0
 50119  1  0  0  0
 50120  1  0  0  0
 51 52  1  0  0  0
 51121  1  0  0  0
 51122  1  0  0  0
 52123  1  0  0  0
 52124  1  0  0  0
 53 54  1  0  0  0
 54 55  2  0  0  0
 54125  1  0  0  0
 55 57  1  0  0  0
 55126  1  0  0  0
 56 69  2  0  0  0
 57 58  2  0  0  0
 57127  1  0  0  0
 58128  1  0  0  0
 59 60  1  0  0  0
 59 61  1  0  0  0
 59 62  1  0  0  0
 60129  1  0  0  0
 60130  1  0  0  0
 60131  1  0  0  0
 61132  1  0  0  0
 61133  1  0  0  0
 61134  1  0  0  0
 62135  1  0  0  0
 62136  1  0  0  0
 62137  1  0  0  0
 63 65  1  0  0  0
 63138  1  0  0  0
 63139  1  0  0  0
 63140  1  0  0  0
 64141  1  0  0  0
 65142  1  0  0  0
 68 80  1  0  0  0
 71 73  2  0  0  0
 71 75  1  0  0  0
 71143  1  0  0  0
 72 74  1  0  0  0
 72 75  2  0  0  0
 72144  1  0  0  0
 73 76  1  0  0  0
 73145  1  0  0  0
 74 76  2  0  0  0
 74146  1  0  0  0
 75 78  1  0  0  0
 76 83  1  0  0  0
 77 79  1  0  0  0
 77 80  1  0  0  0
 77 82  2  0  0  0
 78 81  1  0  0  0
 78147  1  0  0  0
 78148  1  0  0  0
 79 83  1  0  0  0
 79149  1  0  0  0
 79150  1  0  0  0
 80151  1  0  0  0
 80152  1  0  0  0
 81153  1  0  0  0
M  ISO  4   1 100  68 101  80 101  81 100
M  END
> <chiral flag>
0

> <version>
0

> <s_m_source_file>
/data/baiqing/PycharmProjects/Reinvent-master-3.2/result/LINK_invent/BTK/process_docking_weight1_custom_product_contain_oxygen_bond_distance_aromatic_linkinvent_7_9_3/rearranged_h_0127.sdf

> <i_m_source_file_index>
46

> <r_mmod_Potential_Energy-OPLS-2005>
-93.1042327880859

> <r_mmod_Stretch_Energy-OPLS-2005>
41.567066192627

> <r_mmod_Bend_Energy-OPLS-2005>
103.410202026367

> <r_mmod_Torsional_Energy-OPLS-2005>
199.150909423828

> <r_mmod_Improper_Torsional_Energy-OPLS-2005>
2.6697895526886

> <r_mmod_Van_der_Waal_Energy-OPLS-2005>
156.549621582031

> <r_mmod_Electrostatic_Energy-OPLS-2005>
-362.124328613281

> <r_mmod_Solvation_Energy-OPLS-2005>
-248.891189575195

> <b_mmod_Minimization_Converged-OPLS-2005>
0

> <r_mmod_RMS_Derivative-OPLS-2005>
0.766263067722321

$$$$
46
                    3D
 Structure written by MMmdl.
159167  0  0  1  0            999 V2000
  -30.6335  -14.6257   20.5852 C   0  0  0  0  0  0
  -30.4467  -12.4081   19.4389 C   0  0  0  0  0  0
  -29.5060  -12.5239   18.2168 C   0  0  0  0  0  0
  -28.0325  -12.3444   18.6337 C   0  0  0  0  0  0
  -27.6596  -13.2050   19.8681 C   0  0  2  0  0  0
  -28.7016  -13.0091   20.9881 C   0  0  0  0  0  0
  -25.2608  -13.8142   20.5698 C   0  0  0  0  0  0
  -24.1851  -13.0430   20.9186 C   0  0  0  0  0  0
  -24.6394  -11.6896   20.8731 C   0  0  0  0  0  0
  -23.9059  -10.4282   21.0411 C   0  0  0  0  0  0
  -24.3629   -9.4195   21.9181 C   0  0  0  0  0  0
  -23.6323   -8.2220   22.0749 C   0  0  0  0  0  0
  -22.4298   -8.0279   21.3544 C   0  0  0  0  0  0
  -21.9925   -9.0238   20.4647 C   0  0  0  0  0  0
  -22.7237  -10.2122   20.3059 C   0  0  0  0  0  0
  -21.6853   -6.0758   22.5289 C   0  0  0  0  0  0
  -21.3994   -6.5663   23.8211 C   0  0  0  0  0  0
  -21.3660   -5.6808   24.9170 C   0  0  0  0  0  0
  -21.6052   -4.3083   24.7226 C   0  0  0  0  0  0
  -21.8813   -3.8181   23.4344 C   0  0  0  0  0  0
  -21.9191   -4.6988   22.3401 C   0  0  0  0  0  0
  -22.7868  -13.5231   21.1878 C   0  0  0  0  0  0
  -22.1673   -4.2190   21.0977 F   0  0  0  0  0  0
  -21.5630   -3.4552   25.7725 F   0  0  0  0  0  0
  -30.0216  -13.3988   20.4516 N   0  0  0  0  0  0
  -26.3027  -12.9297   20.3335 N   0  0  0  0  0  0
  -25.9328  -11.6463   20.5740 N   0  0  0  0  0  0
  -22.0535  -12.8191   22.0439 N   0  0  0  0  0  0
  -25.4371  -15.1857   20.4133 N   0  0  0  0  0  0
  -31.7276  -14.8442   20.0542 O   0  0  0  0  0  0
  -21.6654   -6.8897   21.4250 O   0  0  0  0  0  0
  -22.3536  -14.5537   20.6752 O   0  0  0  0  0  0
  -24.6274  -31.8602   23.2020 C   0  0  0  0  0  0
  -25.9133  -32.4776   23.8322 C   0  0  1  0  0  0
  -27.2333  -27.3348   20.1221 C   0  0  0  0  0  0
  -25.5954  -33.8572   24.2249 N   0  0  0  0  0  0
  -23.4185  -30.4850   21.5460 C   0  0  2  0  0  0
  -24.8676  -28.9371   20.1145 C   0  0  0  0  0  0
  -22.7449  -29.4659   22.4956 C   0  0  0  0  0  0
  -18.0294  -28.1394   22.8499 C   0  0  0  0  0  0
  -24.1510  -36.7296   23.2644 C   0  0  0  0  0  0
  -25.9586  -30.7938   21.3737 C   0  0  0  0  0  0
  -26.0354  -29.4225   20.7176 C   0  0  0  0  0  0
  -27.2224  -28.6338   20.7117 C   0  0  0  0  0  0
  -26.0483  -26.8984   19.4923 C   0  0  0  0  0  0
  -24.8740  -27.6757   19.4970 C   0  0  0  0  0  0
  -23.6333  -29.8150   20.1636 C   0  0  0  0  0  0
  -25.4131  -36.3067   24.0323 C   0  0  1  0  0  0
  -20.5895  -28.3694   23.1300 C   0  0  2  0  0  0
  -20.6809  -26.9416   22.5438 C   0  0  0  0  0  0
  -19.5774  -26.6392   21.5250 C   0  0  0  0  0  0
  -18.1943  -26.7937   22.1643 C   0  0  0  0  0  0
  -19.1547  -28.8858   23.2900 C   0  0  0  0  0  0
  -18.9465  -30.1475   23.8895 C   0  0  0  0  0  0
  -17.6464  -30.6590   24.0575 C   0  0  0  0  0  0
  -25.9063  -34.9445   23.5072 C   0  0  0  0  0  0
  -16.5358  -29.9085   23.6353 C   0  0  0  0  0  0
  -16.7282  -28.6518   23.0340 C   0  0  0  0  0  0
  -26.4527  -31.6581   25.0681 C   0  0  0  0  0  0
  -25.3793  -31.3739   26.1436 C   0  0  0  0  0  0
  -27.0354  -30.2981   24.6172 C   0  0  0  0  0  0
  -27.6068  -32.4339   25.7449 C   0  0  0  0  0  0
  -27.5580  -37.1797   24.8454 C   0  0  0  0  0  0
  -21.4171  -29.3035   22.3656 N   0  0  0  0  0  0
  -26.4299  -37.3765   23.9387 N   0  0  0  0  0  0
  -24.6864  -31.0628   22.0970 N   0  0  0  0  0  0
  -23.4159  -28.8228   23.3066 O   0  0  0  0  0  0
  -28.3476  -26.4857   20.1367 O   0  0  0  0  0  0
  -26.5618  -34.8920   22.4628 O   0  0  0  0  0  0
  -23.5449  -32.1396   23.7369 O   0  0  0  0  0  0
  -30.2080  -19.3724   20.2313 C   0  0  0  0  0  0
  -29.9046  -20.7807   20.1772 C   0  0  0  0  0  0
  -28.3807  -19.0555   21.7501 C   0  0  0  0  0  0
  -29.4478  -18.4658   21.0367 C   0  0  0  0  0  0
  -28.0822  -20.4382   21.7165 C   0  0  0  0  0  0
  -28.8355  -21.3501   20.9319 C   0  0  0  0  0  0
  -29.6211  -16.9797   21.3415 C   0  0  0  0  0  0
  -29.9115  -15.6297   21.4208 C   0  0  0  0  0  0
  -24.6124  -22.0039   22.5367 C   0  0  0  0  0  0
  -26.9279  -20.9431   22.5712 C   0  0  0  0  0  0
  -25.6494  -21.1848   21.7582 C   0  0  0  0  0  0
  -28.1500  -25.1529   20.7457 C   0  0  0  0  0  0
  -28.9277  -23.8425   20.2622 C   0  0  0  0  0  0
  -28.4418  -22.7012   21.0278 O   0  0  0  0  0  0
  -31.4852  -12.5512   19.1334 H   0  0  0  0  0  0
  -30.4023  -11.4010   19.8546 H   0  0  0  0  0  0
  -29.7671  -11.7787   17.4631 H   0  0  0  0  0  0
  -29.6360  -13.4982   17.7435 H   0  0  0  0  0  0
  -27.8843  -11.2893   18.8685 H   0  0  0  0  0  0
  -27.3667  -12.5687   17.7991 H   0  0  0  0  0  0
  -27.6959  -14.2478   19.5549 H   0  0  0  0  0  0
  -28.7261  -11.9628   21.2935 H   0  0  0  0  0  0
  -28.4034  -13.5509   21.8843 H   0  0  0  0  0  0
  -25.2766   -9.5676   22.4758 H   0  0  0  0  0  0
  -24.0060   -7.4595   22.7448 H   0  0  0  0  0  0
  -21.0857   -8.8737   19.8941 H   0  0  0  0  0  0
  -22.3693  -10.9666   19.6183 H   0  0  0  0  0  0
  -21.1970   -7.6170   23.9732 H   0  0  0  0  0  0
  -21.1498   -6.0540   25.9079 H   0  0  0  0  0  0
  -22.0596   -2.7649   23.2818 H   0  0  0  0  0  0
  -22.4212  -11.9869   22.4806 H   0  0  0  0  0  0
  -21.1147  -13.1158   22.2685 H   0  0  0  0  0  0
  -24.6777  -15.8490   20.5323 H   0  0  0  0  0  0
  -26.3074  -15.6210   20.1323 H   0  0  0  0  0  0
  -26.7189  -32.5451   23.1058 H   0  0  0  0  0  0
  -25.0109  -33.9695   25.0396 H   0  0  0  0  0  0
  -22.7146  -31.3077   21.4023 H   0  0  0  0  0  0
  -23.3744  -35.9662   23.3330 H   0  0  0  0  0  0
  -24.3601  -36.8888   22.2049 H   0  0  0  0  0  0
  -23.7310  -37.6525   23.6657 H   0  0  0  0  0  0
  -26.0945  -31.5583   20.6075 H   0  0  0  0  0  0
  -26.8371  -30.8380   22.0059 H   0  0  0  0  0  0
  -28.1175  -29.0018   21.1928 H   0  0  0  0  0  0
  -26.0245  -25.9363   19.0011 H   0  0  0  0  0  0
  -23.9795  -27.2928   19.0258 H   0  0  0  0  0  0
  -23.7468  -30.5897   19.4050 H   0  0  0  0  0  0
  -22.7522  -29.2442   19.8662 H   0  0  0  0  0  0
  -25.1335  -36.1907   25.0814 H   0  0  0  0  0  0
  -21.0010  -28.3305   24.1416 H   0  0  0  0  0  0
  -20.5785  -26.2286   23.3635 H   0  0  0  0  0  0
  -21.6667  -26.7492   22.1188 H   0  0  0  0  0  0
  -19.6936  -25.6311   21.1259 H   0  0  0  0  0  0
  -19.6721  -27.3230   20.6805 H   0  0  0  0  0  0
  -17.4231  -26.6717   21.4024 H   0  0  0  0  0  0
  -18.0298  -26.0086   22.9037 H   0  0  0  0  0  0
  -19.7938  -30.7314   24.2231 H   0  0  0  0  0  0
  -17.5010  -31.6268   24.5177 H   0  0  0  0  0  0
  -15.5358  -30.2966   23.7698 H   0  0  0  0  0  0
  -15.8687  -28.0857   22.7004 H   0  0  0  0  0  0
  -24.5914  -30.7149   25.7767 H   0  0  0  0  0  0
  -24.9080  -32.2934   26.4917 H   0  0  0  0  0  0
  -25.8159  -30.8854   27.0159 H   0  0  0  0  0  0
  -26.2903  -29.6702   24.1275 H   0  0  0  0  0  0
  -27.4076  -29.7287   25.4698 H   0  0  0  0  0  0
  -27.8777  -30.4188   23.9356 H   0  0  0  0  0  0
  -27.2621  -33.3589   26.2087 H   0  0  0  0  0  0
  -28.3846  -32.7006   25.0275 H   0  0  0  0  0  0
  -28.0795  -31.8456   26.5327 H   0  0  0  0  0  0
  -28.2622  -38.0067   24.7477 H   0  0  0  0  0  0
  -28.1054  -36.2604   24.6328 H   0  0  0  0  0  0
  -27.2285  -37.1490   25.8852 H   0  0  0  0  0  0
  -20.9341  -29.8650   21.6783 H   0  0  0  0  0  0
  -26.0178  -38.2842   24.1389 H   0  0  0  0  0  0
  -31.0533  -19.0009   19.6690 H   0  0  0  0  0  0
  -30.5242  -21.4228   19.5646 H   0  0  0  0  0  0
  -27.7684  -18.4170   22.3727 H   0  0  0  0  0  0
  -30.1182  -16.9512   20.3838 H   0  0  0  0  0  0
  -29.5233  -15.2228   22.3401 H   0  0  0  0  0  0
  -23.7491  -22.2426   21.9124 H   0  0  0  0  0  0
  -25.0381  -22.9474   22.8820 H   0  0  0  0  0  0
  -24.2570  -21.4553   23.4099 H   0  0  0  0  0  0
  -27.2385  -21.8618   23.0700 H   0  0  0  0  0  0
  -26.7283  -20.2307   23.3736 H   0  0  0  0  0  0
  -25.8948  -21.7230   20.8408 H   0  0  0  0  0  0
  -25.2251  -20.2282   21.4458 H   0  0  0  0  0  0
  -28.3753  -25.2884   21.8042 H   0  0  0  0  0  0
  -27.0919  -24.8951   20.7323 H   0  0  0  0  0  0
  -30.0042  -23.9509   20.4009 H   0  0  0  0  0  0
  -28.7439  -23.6635   19.2033 H   0  0  0  0  0  0
  1 25  1  0  0  0
  1 30  2  0  0  0
  1 78  1  0  0  0
  2  3  1  0  0  0
  2 25  1  0  0  0
  2 85  1  0  0  0
  2 86  1  0  0  0
  3  4  1  0  0  0
  3 87  1  0  0  0
  3 88  1  0  0  0
  4  5  1  0  0  0
  4 89  1  0  0  0
  4 90  1  0  0  0
  5  6  1  0  0  0
  5 26  1  0  0  0
  5 91  1  0  0  0
  6 25  1  0  0  0
  6 92  1  0  0  0
  6 93  1  0  0  0
  7  8  2  0  0  0
  7 26  1  0  0  0
  7 29  1  0  0  0
  8  9  1  0  0  0
  8 22  1  0  0  0
  9 10  1  0  0  0
  9 27  2  0  0  0
 10 11  2  0  0  0
 10 15  1  0  0  0
 11 12  1  0  0  0
 11 94  1  0  0  0
 12 13  2  0  0  0
 12 95  1  0  0  0
 13 14  1  0  0  0
 13 31  1  0  0  0
 14 15  2  0  0  0
 14 96  1  0  0  0
 15 97  1  0  0  0
 16 17  2  0  0  0
 16 21  1  0  0  0
 16 31  1  0  0  0
 17 18  1  0  0  0
 17 98  1  0  0  0
 18 19  2  0  0  0
 18 99  1  0  0  0
 19 20  1  0  0  0
 19 24  1  0  0  0
 20 21  2  0  0  0
 20100  1  0  0  0
 21 23  1  0  0  0
 22 28  1  0  0  0
 22 32  2  0  0  0
 26 27  1  0  0  0
 28101  1  0  0  0
 28102  1  0  0  0
 29103  1  0  0  0
 29104  1  0  0  0
 33 34  1  0  0  0
 33 66  1  0  0  0
 33 70  2  0  0  0
 34 36  1  0  0  0
 34 59  1  0  0  0
 34105  1  0  0  0
 35 44  2  0  0  0
 35 45  1  0  0  0
 35 68  1  0  0  0
 36 56  1  0  0  0
 36106  1  0  0  0
 37 39  1  0  0  0
 37 47  1  0  0  0
 37 66  1  0  0  0
 37107  1  0  0  0
 38 43  2  0  0  0
 38 46  1  0  0  0
 38 47  1  0  0  0
 39 64  1  0  0  0
 39 67  2  0  0  0
 40 52  1  0  0  0
 40 53  2  0  0  0
 40 58  1  0  0  0
 41108  1  0  0  0
 41109  1  0  0  0
 41110  1  0  0  0
 41 48  1  0  0  0
 42 43  1  0  0  0
 42 66  1  0  0  0
 42111  1  0  0  0
 42112  1  0  0  0
 43 44  1  0  0  0
 44113  1  0  0  0
 45 46  2  0  0  0
 45114  1  0  0  0
 46115  1  0  0  0
 47116  1  0  0  0
 47117  1  0  0  0
 48 56  1  0  0  0
 48 65  1  0  0  0
 48118  1  0  0  0
 49 50  1  0  0  0
 49 53  1  0  0  0
 49 64  1  0  0  0
 49119  1  0  0  0
 50 51  1  0  0  0
 50120  1  0  0  0
 50121  1  0  0  0
 51 52  1  0  0  0
 51122  1  0  0  0
 51123  1  0  0  0
 52124  1  0  0  0
 52125  1  0  0  0
 53 54  1  0  0  0
 54 55  2  0  0  0
 54126  1  0  0  0
 55 57  1  0  0  0
 55127  1  0  0  0
 56 69  2  0  0  0
 57 58  2  0  0  0
 57128  1  0  0  0
 58129  1  0  0  0
 59 60  1  0  0  0
 59 61  1  0  0  0
 59 62  1  0  0  0
 60130  1  0  0  0
 60131  1  0  0  0
 60132  1  0  0  0
 61133  1  0  0  0
 61134  1  0  0  0
 61135  1  0  0  0
 62136  1  0  0  0
 62137  1  0  0  0
 62138  1  0  0  0
 63 65  1  0  0  0
 63139  1  0  0  0
 63140  1  0  0  0
 63141  1  0  0  0
 64142  1  0  0  0
 65143  1  0  0  0
 68 82  1  0  0  0
 71 72  2  0  0  0
 71 74  1  0  0  0
 71144  1  0  0  0
 72 76  1  0  0  0
 72145  1  0  0  0
 73 74  2  0  0  0
 73 75  1  0  0  0
 73146  1  0  0  0
 74 77  1  0  0  0
 75 76  2  0  0  0
 75 80  1  0  0  0
 76 84  1  0  0  0
 77 78  2  0  0  0
 77147  1  0  0  0
 78148  1  0  0  0
 79 81  1  0  0  0
 79149  1  0  0  0
 79150  1  0  0  0
 79151  1  0  0  0
 80 81  1  0  0  0
 80152  1  0  0  0
 80153  1  0  0  0
 81154  1  0  0  0
 81155  1  0  0  0
 82 83  1  0  0  0
 82156  1  0  0  0
 82157  1  0  0  0
 83 84  1  0  0  0
 83158  1  0  0  0
 83159  1  0  0  0
M  ISO  4   1 100  68 101  78 100  82 101
M  END
> <chiral flag>
0

> <version>
0

> <s_m_source_file>
/data/baiqing/PycharmProjects/Reinvent-master-3.2/result/LINK_invent/BTK/process_docking_weight1_custom_product_contain_oxygen_bond_distance_aromatic_linkinvent_7_9_3/rearranged_h_0127.sdf

> <i_m_source_file_index>
47

> <r_mmod_Potential_Energy-OPLS-2005>
414.659576416016

> <r_mmod_Stretch_Energy-OPLS-2005>
79.0625

> <r_mmod_Bend_Energy-OPLS-2005>
469.682922363281

> <r_mmod_Torsional_Energy-OPLS-2005>
202.931732177734

> <r_mmod_Improper_Torsional_Energy-OPLS-2005>
2.17972779273987

> <r_mmod_Van_der_Waal_Energy-OPLS-2005>
148.748748779297

> <r_mmod_Electrostatic_Energy-OPLS-2005>
-339.8779296875

> <r_mmod_Solvation_Energy-OPLS-2005>
-190.197113037109

> <b_mmod_Minimization_Converged-OPLS-2005>
0

> <r_mmod_RMS_Derivative-OPLS-2005>
3.9041588306427

$$$$
47
                    3D
 Structure written by MMmdl.
158166  0  0  1  0            999 V2000
  -30.7134  -14.6077   20.5708 C   0  0  0  0  0  0
  -30.4306  -12.3945   19.4616 C   0  0  0  0  0  0
  -29.5131  -12.5252   18.2279 C   0  0  0  0  0  0
  -28.0337  -12.3658   18.6313 C   0  0  0  0  0  0
  -27.6584  -13.2232   19.8686 C   0  0  2  0  0  0
  -28.7011  -13.0690   20.9996 C   0  0  0  0  0  0
  -25.2576  -13.8176   20.5687 C   0  0  0  0  0  0
  -24.1841  -13.0435   20.9142 C   0  0  0  0  0  0
  -24.6395  -11.6906   20.8686 C   0  0  0  0  0  0
  -23.9049  -10.4289   21.0358 C   0  0  0  0  0  0
  -24.3610   -9.4212   21.9144 C   0  0  0  0  0  0
  -23.6267   -8.2262   22.0749 C   0  0  0  0  0  0
  -22.4249   -8.0292   21.3543 C   0  0  0  0  0  0
  -21.9879   -9.0253   20.4643 C   0  0  0  0  0  0
  -22.7213  -10.2129   20.3016 C   0  0  0  0  0  0
  -21.6865   -6.0719   22.5261 C   0  0  0  0  0  0
  -21.4028   -6.5620   23.8198 C   0  0  0  0  0  0
  -21.3657   -5.6776   24.9161 C   0  0  0  0  0  0
  -21.6057   -4.3037   24.7225 C   0  0  0  0  0  0
  -21.8815   -3.8131   23.4341 C   0  0  0  0  0  0
  -21.9196   -4.6942   22.3400 C   0  0  0  0  0  0
  -22.7858  -13.5227   21.1803 C   0  0  0  0  0  0
  -22.1656   -4.2123   21.0970 F   0  0  0  0  0  0
  -21.5635   -3.4522   25.7737 F   0  0  0  0  0  0
  -30.0291  -13.4151   20.4575 N   0  0  0  0  0  0
  -26.3012  -12.9371   20.3316 N   0  0  0  0  0  0
  -25.9331  -11.6513   20.5697 N   0  0  0  0  0  0
  -22.0495  -12.8257   22.0384 N   0  0  0  0  0  0
  -25.4284  -15.1910   20.4178 N   0  0  0  0  0  0
  -31.7799  -14.7849   19.9730 O   0  0  0  0  0  0
  -21.6627   -6.8873   21.4235 O   0  0  0  0  0  0
  -22.3532  -14.5511   20.6611 O   0  0  0  0  0  0
  -24.6267  -31.8630   23.2045 C   0  0  0  0  0  0
  -25.9133  -32.4791   23.8373 C   0  0  1  0  0  0
  -27.2016  -27.3115   20.1200 C   0  0  0  0  0  0
  -25.5931  -33.8596   24.2259 N   0  0  0  0  0  0
  -23.4176  -30.4864   21.5518 C   0  0  2  0  0  0
  -24.8569  -28.9443   20.1109 C   0  0  0  0  0  0
  -22.7474  -29.4605   22.4964 C   0  0  0  0  0  0
  -18.0285  -28.1375   22.8477 C   0  0  0  0  0  0
  -24.1486  -36.7286   23.2636 C   0  0  0  0  0  0
  -25.9618  -30.7878   21.3793 C   0  0  0  0  0  0
  -26.0288  -29.4172   20.7143 C   0  0  0  0  0  0
  -27.2090  -28.6155   20.7019 C   0  0  0  0  0  0
  -26.0096  -26.8937   19.4863 C   0  0  0  0  0  0
  -24.8488  -27.6886   19.4846 C   0  0  0  0  0  0
  -23.6294  -29.8301   20.1631 C   0  0  0  0  0  0
  -25.4119  -36.3086   24.0323 C   0  0  1  0  0  0
  -20.5886  -28.3629   23.1283 C   0  0  2  0  0  0
  -20.6742  -26.9355   22.5415 C   0  0  0  0  0  0
  -19.5733  -26.6400   21.5197 C   0  0  0  0  0  0
  -18.1930  -26.7911   22.1651 C   0  0  0  0  0  0
  -19.1541  -28.8825   23.2878 C   0  0  0  0  0  0
  -18.9471  -30.1433   23.8922 C   0  0  0  0  0  0
  -17.6474  -30.6575   24.0588 C   0  0  0  0  0  0
  -25.9048  -34.9462   23.5075 C   0  0  0  0  0  0
  -16.5370  -29.9078   23.6304 C   0  0  0  0  0  0
  -16.7281  -28.6500   23.0354 C   0  0  0  0  0  0
  -26.4508  -31.6639   25.0760 C   0  0  0  0  0  0
  -25.3705  -31.3807   26.1446 C   0  0  0  0  0  0
  -27.0367  -30.3066   24.6267 C   0  0  0  0  0  0
  -27.6062  -32.4400   25.7519 C   0  0  0  0  0  0
  -27.5592  -37.1800   24.8452 C   0  0  0  0  0  0
  -21.4188  -29.2985   22.3681 N   0  0  0  0  0  0
  -26.4295  -37.3795   23.9406 N   0  0  0  0  0  0
  -24.6882  -31.0613   22.1019 N   0  0  0  0  0  0
  -23.4220  -28.8170   23.3040 O   0  0  0  0  0  0
  -28.3095  -26.4517   20.1401 O   0  0  0  0  0  0
  -26.5608  -34.8929   22.4643 O   0  0  0  0  0  0
  -23.5425  -32.1421   23.7378 O   0  0  0  0  0  0
  -30.5231  -17.7226   19.9041 C   0  0  0  0  0  0
  -30.4084  -19.0890   19.5088 C   0  0  0  0  0  0
  -29.2007  -19.5715   21.5050 C   0  0  0  0  0  0
  -29.9968  -17.2075   21.1265 C   0  0  0  0  0  0
  -29.3059  -18.2028   21.9274 C   0  0  0  0  0  0
  -29.7496  -20.0587   20.3002 C   0  0  0  0  0  0
  -30.2123  -15.7139   21.5635 C   0  0  0  0  0  0
  -27.8138  -18.9206   23.9761 C   0  0  0  0  0  0
  -28.6665  -17.8434   23.2803 C   0  0  0  0  0  0
  -29.0682  -23.9185   19.9928 C   0  0  0  0  0  0
  -28.0914  -25.0428   20.5569 C   0  0  0  0  0  0
  -29.0171  -22.4571   20.6373 C   0  0  0  0  0  0
  -30.0790  -15.3583   22.7731 N   0  0  0  0  0  0
  -29.6867  -21.4021   19.8676 O   0  0  0  0  0  0
  -31.4747  -12.4937   19.1632 H   0  0  0  0  0  0
  -30.3440  -11.3967   19.8937 H   0  0  0  0  0  0
  -29.7804  -11.7802   17.4761 H   0  0  0  0  0  0
  -29.6663  -13.4999   17.7615 H   0  0  0  0  0  0
  -27.8630  -11.3107   18.8417 H   0  0  0  0  0  0
  -27.3831  -12.6139   17.7906 H   0  0  0  0  0  0
  -27.6831  -14.2609   19.5379 H   0  0  0  0  0  0
  -28.7090  -12.0448   21.3749 H   0  0  0  0  0  0
  -28.4089  -13.6831   21.8478 H   0  0  0  0  0  0
  -25.2769   -9.5693   22.4703 H   0  0  0  0  0  0
  -23.9977   -7.4657   22.7476 H   0  0  0  0  0  0
  -21.0808   -8.8764   19.8955 H   0  0  0  0  0  0
  -22.3661  -10.9654   19.6115 H   0  0  0  0  0  0
  -21.2023   -7.6123   23.9697 H   0  0  0  0  0  0
  -21.1483   -6.0501   25.9064 H   0  0  0  0  0  0
  -22.0596   -2.7584   23.2844 H   0  0  0  0  0  0
  -22.4133  -11.9951   22.4819 H   0  0  0  0  0  0
  -21.1100  -13.1295   22.2545 H   0  0  0  0  0  0
  -24.6692  -15.8496   20.5459 H   0  0  0  0  0  0
  -26.2918  -15.6341   20.1299 H   0  0  0  0  0  0
  -26.7200  -32.5457   23.1115 H   0  0  0  0  0  0
  -25.0139  -33.9744   25.0444 H   0  0  0  0  0  0
  -22.7083  -31.3063   21.4172 H   0  0  0  0  0  0
  -23.3786  -35.9591   23.3283 H   0  0  0  0  0  0
  -24.3543  -36.8908   22.2049 H   0  0  0  0  0  0
  -23.7195  -37.6465   23.6661 H   0  0  0  0  0  0
  -26.0995  -31.5625   20.6223 H   0  0  0  0  0  0
  -26.8378  -30.8239   22.0144 H   0  0  0  0  0  0
  -28.1138  -28.9780   21.1663 H   0  0  0  0  0  0
  -25.9559  -25.9393   18.9840 H   0  0  0  0  0  0
  -23.9488  -27.3278   19.0059 H   0  0  0  0  0  0
  -23.7556  -30.6145   19.4158 H   0  0  0  0  0  0
  -22.7446  -29.2695   19.8533 H   0  0  0  0  0  0
  -25.1314  -36.1942   25.0822 H   0  0  0  0  0  0
  -20.9973  -28.3224   24.1405 H   0  0  0  0  0  0
  -20.5559  -26.2232   23.3603 H   0  0  0  0  0  0
  -21.6631  -26.7340   22.1257 H   0  0  0  0  0  0
  -19.6652  -27.3275   20.6769 H   0  0  0  0  0  0
  -19.6883  -25.6345   21.1151 H   0  0  0  0  0  0
  -17.4185  -26.6577   21.4074 H   0  0  0  0  0  0
  -18.0357  -26.0076   22.9089 H   0  0  0  0  0  0
  -19.7953  -30.7210   24.2370 H   0  0  0  0  0  0
  -17.5022  -31.6248   24.5215 H   0  0  0  0  0  0
  -15.5377  -30.3003   23.7601 H   0  0  0  0  0  0
  -15.8670  -28.0826   22.7079 H   0  0  0  0  0  0
  -24.5854  -30.7197   25.7737 H   0  0  0  0  0  0
  -24.8930  -32.2985   26.4883 H   0  0  0  0  0  0
  -25.7965  -30.8937   27.0211 H   0  0  0  0  0  0
  -26.2964  -29.6804   24.1264 H   0  0  0  0  0  0
  -27.3998  -29.7352   25.4811 H   0  0  0  0  0  0
  -27.8857  -30.4343   23.9550 H   0  0  0  0  0  0
  -27.2675  -33.3710   26.2092 H   0  0  0  0  0  0
  -28.3876  -32.6954   25.0347 H   0  0  0  0  0  0
  -28.0736  -31.8533   26.5427 H   0  0  0  0  0  0
  -28.2614  -38.0109   24.7564 H   0  0  0  0  0  0
  -28.1091  -36.2642   24.6229 H   0  0  0  0  0  0
  -27.2282  -37.1377   25.8845 H   0  0  0  0  0  0
  -20.9360  -29.8676   21.6879 H   0  0  0  0  0  0
  -26.0174  -38.2856   24.1477 H   0  0  0  0  0  0
  -31.0614  -17.0698   19.2318 H   0  0  0  0  0  0
  -30.8568  -19.3947   18.5735 H   0  0  0  0  0  0
  -28.6873  -20.2917   22.1184 H   0  0  0  0  0  0
  -27.4005  -18.5366   24.9095 H   0  0  0  0  0  0
  -26.9791  -19.2371   23.3499 H   0  0  0  0  0  0
  -28.4078  -19.7989   24.2341 H   0  0  0  0  0  0
  -29.4631  -17.5808   23.9768 H   0  0  0  0  0  0
  -28.0363  -16.9628   23.1447 H   0  0  0  0  0  0
  -30.0910  -24.2852   20.0710 H   0  0  0  0  0  0
  -28.8682  -23.8270   18.9259 H   0  0  0  0  0  0
  -27.0785  -24.7043   20.3337 H   0  0  0  0  0  0
  -28.1379  -25.0294   21.6471 H   0  0  0  0  0  0
  -27.9781  -22.1653   20.7953 H   0  0  0  0  0  0
  -29.4725  -22.4999   21.6270 H   0  0  0  0  0  0
  -29.8211  -16.1517   23.3435 H   0  0  0  0  0  0
  1 25  1  0  0  0
  1 30  2  0  0  0
  1 77  1  0  0  0
  2  3  1  0  0  0
  2 25  1  0  0  0
  2 85  1  0  0  0
  2 86  1  0  0  0
  3  4  1  0  0  0
  3 87  1  0  0  0
  3 88  1  0  0  0
  4  5  1  0  0  0
  4 89  1  0  0  0
  4 90  1  0  0  0
  5  6  1  0  0  0
  5 26  1  0  0  0
  5 91  1  0  0  0
  6 25  1  0  0  0
  6 92  1  0  0  0
  6 93  1  0  0  0
  7  8  2  0  0  0
  7 26  1  0  0  0
  7 29  1  0  0  0
  8  9  1  0  0  0
  8 22  1  0  0  0
  9 10  1  0  0  0
  9 27  2  0  0  0
 10 11  2  0  0  0
 10 15  1  0  0  0
 11 12  1  0  0  0
 11 94  1  0  0  0
 12 13  2  0  0  0
 12 95  1  0  0  0
 13 14  1  0  0  0
 13 31  1  0  0  0
 14 15  2  0  0  0
 14 96  1  0  0  0
 15 97  1  0  0  0
 16 17  2  0  0  0
 16 21  1  0  0  0
 16 31  1  0  0  0
 17 18  1  0  0  0
 17 98  1  0  0  0
 18 19  2  0  0  0
 18 99  1  0  0  0
 19 20  1  0  0  0
 19 24  1  0  0  0
 20 21  2  0  0  0
 20100  1  0  0  0
 21 23  1  0  0  0
 22 28  1  0  0  0
 22 32  2  0  0  0
 26 27  1  0  0  0
 28101  1  0  0  0
 28102  1  0  0  0
 29103  1  0  0  0
 29104  1  0  0  0
 33 34  1  0  0  0
 33 66  1  0  0  0
 33 70  2  0  0  0
 34 36  1  0  0  0
 34 59  1  0  0  0
 34105  1  0  0  0
 35 44  2  0  0  0
 35 45  1  0  0  0
 35 68  1  0  0  0
 36 56  1  0  0  0
 36106  1  0  0  0
 37 39  1  0  0  0
 37 47  1  0  0  0
 37 66  1  0  0  0
 37107  1  0  0  0
 38 43  2  0  0  0
 38 46  1  0  0  0
 38 47  1  0  0  0
 39 64  1  0  0  0
 39 67  2  0  0  0
 40 52  1  0  0  0
 40 53  2  0  0  0
 40 58  1  0  0  0
 41108  1  0  0  0
 41109  1  0  0  0
 41110  1  0  0  0
 41 48  1  0  0  0
 42 43  1  0  0  0
 42 66  1  0  0  0
 42111  1  0  0  0
 42112  1  0  0  0
 43 44  1  0  0  0
 44113  1  0  0  0
 45 46  2  0  0  0
 45114  1  0  0  0
 46115  1  0  0  0
 47116  1  0  0  0
 47117  1  0  0  0
 48 56  1  0  0  0
 48 65  1  0  0  0
 48118  1  0  0  0
 49 50  1  0  0  0
 49 53  1  0  0  0
 49 64  1  0  0  0
 49119  1  0  0  0
 50 51  1  0  0  0
 50120  1  0  0  0
 50121  1  0  0  0
 51 52  1  0  0  0
 51122  1  0  0  0
 51123  1  0  0  0
 52124  1  0  0  0
 52125  1  0  0  0
 53 54  1  0  0  0
 54 55  2  0  0  0
 54126  1  0  0  0
 55 57  1  0  0  0
 55127  1  0  0  0
 56 69  2  0  0  0
 57 58  2  0  0  0
 57128  1  0  0  0
 58129  1  0  0  0
 59 60  1  0  0  0
 59 61  1  0  0  0
 59 62  1  0  0  0
 60130  1  0  0  0
 60131  1  0  0  0
 60132  1  0  0  0
 61133  1  0  0  0
 61134  1  0  0  0
 61135  1  0  0  0
 62136  1  0  0  0
 62137  1  0  0  0
 62138  1  0  0  0
 63 65  1  0  0  0
 63139  1  0  0  0
 63140  1  0  0  0
 63141  1  0  0  0
 64142  1  0  0  0
 65143  1  0  0  0
 68 81  1  0  0  0
 71 72  2  0  0  0
 71 74  1  0  0  0
 71144  1  0  0  0
 72 76  1  0  0  0
 72145  1  0  0  0
 73 75  1  0  0  0
 73 76  2  0  0  0
 73146  1  0  0  0
 74 75  2  0  0  0
 74 77  1  0  0  0
 75 79  1  0  0  0
 76 84  1  0  0  0
 77 83  2  0  0  0
 78 79  1  0  0  0
 78147  1  0  0  0
 78148  1  0  0  0
 78149  1  0  0  0
 79150  1  0  0  0
 79151  1  0  0  0
 80 81  1  0  0  0
 80 82  1  0  0  0
 80152  1  0  0  0
 80153  1  0  0  0
 81154  1  0  0  0
 81155  1  0  0  0
 82 84  1  0  0  0
 82156  1  0  0  0
 82157  1  0  0  0
 83158  1  0  0  0
M  ISO  4   1 100  68 101  77 100  81 101
M  END
> <chiral flag>
0

> <version>
0

> <s_m_source_file>
/data/baiqing/PycharmProjects/Reinvent-master-3.2/result/LINK_invent/BTK/process_docking_weight1_custom_product_contain_oxygen_bond_distance_aromatic_linkinvent_7_9_3/rearranged_h_0127.sdf

> <i_m_source_file_index>
48

> <r_mmod_Potential_Energy-OPLS-2005>
260.099304199219

> <r_mmod_Stretch_Energy-OPLS-2005>
100.369361877441

> <r_mmod_Bend_Energy-OPLS-2005>
155.285247802734

> <r_mmod_Torsional_Energy-OPLS-2005>
210.513366699219

> <r_mmod_Improper_Torsional_Energy-OPLS-2005>
3.17126369476318

> <r_mmod_Van_der_Waal_Energy-OPLS-2005>
163.563827514648

> <r_mmod_Electrostatic_Energy-OPLS-2005>
-222.549789428711

> <r_mmod_Solvation_Energy-OPLS-2005>
-195.521011352539

> <b_mmod_Minimization_Converged-OPLS-2005>
0

> <r_mmod_RMS_Derivative-OPLS-2005>
3.92130279541016

$$$$
48
                    3D
 Structure written by MMmdl.
159167  0  0  1  0            999 V2000
  -30.6228  -14.7027   20.4131 C   0  0  0  0  0  0
  -30.4289  -12.4084   19.4829 C   0  0  0  0  0  0
  -29.5220  -12.4837   18.2350 C   0  0  0  0  0  0
  -28.0375  -12.3471   18.6332 C   0  0  0  0  0  0
  -27.6416  -13.2370   19.8441 C   0  0  2  0  0  0
  -28.6840  -13.1621   20.9818 C   0  0  0  0  0  0
  -25.2481  -13.8194   20.5715 C   0  0  0  0  0  0
  -24.1800  -13.0411   20.9241 C   0  0  0  0  0  0
  -24.6414  -11.6911   20.8783 C   0  0  0  0  0  0
  -23.9091  -10.4275   21.0448 C   0  0  0  0  0  0
  -24.3641   -9.4180   21.9234 C   0  0  0  0  0  0
  -23.6280   -8.2216   22.0800 C   0  0  0  0  0  0
  -22.4243   -8.0307   21.3606 C   0  0  0  0  0  0
  -21.9885   -9.0280   20.4687 C   0  0  0  0  0  0
  -22.7259  -10.2143   20.3093 C   0  0  0  0  0  0
  -21.6812   -6.0773   22.5334 C   0  0  0  0  0  0
  -21.4009   -6.5673   23.8286 C   0  0  0  0  0  0
  -21.3668   -5.6802   24.9231 C   0  0  0  0  0  0
  -21.6020   -4.3073   24.7252 C   0  0  0  0  0  0
  -21.8789   -3.8177   23.4365 C   0  0  0  0  0  0
  -21.9162   -4.7012   22.3437 C   0  0  0  0  0  0
  -22.7818  -13.5213   21.1881 C   0  0  0  0  0  0
  -22.1630   -4.2214   21.1004 F   0  0  0  0  0  0
  -21.5601   -3.4539   25.7756 F   0  0  0  0  0  0
  -29.9925  -13.4809   20.4018 N   0  0  0  0  0  0
  -26.2919  -12.9435   20.3199 N   0  0  0  0  0  0
  -25.9322  -11.6572   20.5716 N   0  0  0  0  0  0
  -22.0354  -12.8311   22.0430 N   0  0  0  0  0  0
  -25.4053  -15.1932   20.4216 N   0  0  0  0  0  0
  -31.8316  -14.7709   20.1882 O   0  0  0  0  0  0
  -21.6585   -6.8916   21.4294 O   0  0  0  0  0  0
  -22.3563  -14.5518   20.6677 O   0  0  0  0  0  0
  -24.6279  -31.8611   23.2004 C   0  0  0  0  0  0
  -25.9103  -32.4797   23.8350 C   0  0  1  0  0  0
  -27.2304  -27.2901   20.1236 C   0  0  0  0  0  0
  -25.5916  -33.8589   24.2322 N   0  0  0  0  0  0
  -23.4246  -30.4808   21.5434 C   0  0  2  0  0  0
  -24.8749  -28.9360   20.1045 C   0  0  0  0  0  0
  -22.7513  -29.4604   22.4912 C   0  0  0  0  0  0
  -18.0305  -28.1404   22.8481 C   0  0  0  0  0  0
  -24.1476  -36.7284   23.2636 C   0  0  0  0  0  0
  -25.9655  -30.7800   21.3741 C   0  0  0  0  0  0
  -26.0394  -29.4008   20.7258 C   0  0  0  0  0  0
  -27.2125  -28.5857   20.7361 C   0  0  0  0  0  0
  -26.0551  -26.9095   19.4314 C   0  0  0  0  0  0
  -24.8875  -27.6994   19.4439 C   0  0  0  0  0  0
  -23.6407  -29.8152   20.1584 C   0  0  0  0  0  0
  -25.4093  -36.3103   24.0353 C   0  0  1  0  0  0
  -20.5906  -28.3715   23.1258 C   0  0  2  0  0  0
  -20.6784  -26.9429   22.5410 C   0  0  0  0  0  0
  -19.5760  -26.6383   21.5215 C   0  0  0  0  0  0
  -18.1936  -26.7938   22.1627 C   0  0  0  0  0  0
  -19.1552  -28.8872   23.2864 C   0  0  0  0  0  0
  -18.9481  -30.1456   23.8912 C   0  0  0  0  0  0
  -17.6481  -30.6599   24.0558 C   0  0  0  0  0  0
  -25.9038  -34.9466   23.5137 C   0  0  0  0  0  0
  -16.5375  -29.9110   23.6301 C   0  0  0  0  0  0
  -16.7285  -28.6517   23.0339 C   0  0  0  0  0  0
  -26.4493  -31.6581   25.0697 C   0  0  0  0  0  0
  -25.3722  -31.3670   26.1417 C   0  0  0  0  0  0
  -27.0333  -30.3039   24.6057 C   0  0  0  0  0  0
  -27.6094  -32.4272   25.7449 C   0  0  0  0  0  0
  -27.5574  -37.1792   24.8470 C   0  0  0  0  0  0
  -21.4221  -29.3055   22.3645 N   0  0  0  0  0  0
  -26.4281  -37.3795   23.9422 N   0  0  0  0  0  0
  -24.6918  -31.0576   22.0975 N   0  0  0  0  0  0
  -23.4210  -28.8150   23.2996 O   0  0  0  0  0  0
  -28.3443  -26.4275   20.2260 O   0  0  0  0  0  0
  -26.5615  -34.8942   22.4714 O   0  0  0  0  0  0
  -23.5434  -32.1423   23.7301 O   0  0  0  0  0  0
  -31.0226  -18.7051   18.2363 C   0  0  0  0  0  0
  -29.6426  -18.4144   20.6241 C   0  0  0  0  0  0
  -30.6985  -19.8609   18.9731 C   0  0  0  0  0  0
  -30.6914  -17.4061   18.6702 C   0  0  0  0  0  0
  -29.9159  -19.7654   20.1534 C   0  0  0  0  0  0
  -30.0801  -17.2073   19.9425 C   0  0  0  0  0  0
  -31.2570  -21.1825   18.4618 C   0  0  0  0  0  0
  -30.9864  -16.2767   17.6885 C   0  0  0  0  0  0
  -29.5288  -21.0893   20.9474 C   0  0  0  0  0  0
  -28.8164  -22.3397   20.2169 C   0  0  0  0  0  0
  -29.0674  -23.8567   20.6888 C   0  0  0  0  0  0
  -28.2447  -24.9795   19.8768 C   0  0  0  0  0  0
  -29.8328  -15.8396   20.4711 N   0  0  0  0  0  0
  -31.4811  -12.5063   19.2044 H   0  0  0  0  0  0
  -30.3323  -11.4359   19.9669 H   0  0  0  0  0  0
  -29.7945  -11.7018   17.5234 H   0  0  0  0  0  0
  -29.6835  -13.4225   17.7078 H   0  0  0  0  0  0
  -27.8640  -11.2991   18.8781 H   0  0  0  0  0  0
  -27.3973  -12.5717   17.7799 H   0  0  0  0  0  0
  -27.6337  -14.2612   19.4733 H   0  0  0  0  0  0
  -28.6885  -12.1707   21.4372 H   0  0  0  0  0  0
  -28.4354  -13.8642   21.7808 H   0  0  0  0  0  0
  -25.2776   -9.5612   22.4832 H   0  0  0  0  0  0
  -23.9991   -7.4567   22.7484 H   0  0  0  0  0  0
  -21.0836   -8.8832   19.8969 H   0  0  0  0  0  0
  -22.3775  -10.9709   19.6216 H   0  0  0  0  0  0
  -21.2041   -7.6189   23.9822 H   0  0  0  0  0  0
  -21.1507   -6.0538   25.9151 H   0  0  0  0  0  0
  -22.0551   -2.7639   23.2839 H   0  0  0  0  0  0
  -22.3847  -12.0030   22.5022 H   0  0  0  0  0  0
  -21.0993  -13.1517   22.2485 H   0  0  0  0  0  0
  -24.6158  -15.8199   20.5213 H   0  0  0  0  0  0
  -26.2431  -15.6612   20.0938 H   0  0  0  0  0  0
  -26.7154  -32.5495   23.1084 H   0  0  0  0  0  0
  -25.0033  -33.9731   25.0445 H   0  0  0  0  0  0
  -22.7190  -31.3011   21.3983 H   0  0  0  0  0  0
  -23.3774  -35.9578   23.3284 H   0  0  0  0  0  0
  -24.3571  -36.8911   22.2055 H   0  0  0  0  0  0
  -23.7194  -37.6469   23.6653 H   0  0  0  0  0  0
  -26.0798  -31.5280   20.5879 H   0  0  0  0  0  0
  -26.8542  -30.8533   21.9877 H   0  0  0  0  0  0
  -28.0969  -28.9327   21.2498 H   0  0  0  0  0  0
  -26.0067  -25.9922   18.8653 H   0  0  0  0  0  0
  -24.0013  -27.3552   18.9275 H   0  0  0  0  0  0
  -23.7622  -30.5921   19.4027 H   0  0  0  0  0  0
  -22.7622  -29.2413   19.8549 H   0  0  0  0  0  0
  -25.1251  -36.1969   25.0846 H   0  0  0  0  0  0
  -20.9990  -28.3324   24.1380 H   0  0  0  0  0  0
  -20.5685  -26.2342   23.3635 H   0  0  0  0  0  0
  -21.6655  -26.7442   22.1215 H   0  0  0  0  0  0
  -19.6918  -25.6285   21.1265 H   0  0  0  0  0  0
  -19.6684  -27.3173   20.6731 H   0  0  0  0  0  0
  -17.4201  -26.6681   21.4037 H   0  0  0  0  0  0
  -18.0332  -26.0093   22.9042 H   0  0  0  0  0  0
  -19.7944  -30.7251   24.2326 H   0  0  0  0  0  0
  -17.5033  -31.6269   24.5167 H   0  0  0  0  0  0
  -15.5380  -30.3023   23.7587 H   0  0  0  0  0  0
  -15.8687  -28.0822   22.7070 H   0  0  0  0  0  0
  -24.5934  -30.6988   25.7713 H   0  0  0  0  0  0
  -24.8853  -32.2812   26.4828 H   0  0  0  0  0  0
  -25.8039  -30.8854   27.0199 H   0  0  0  0  0  0
  -26.2874  -29.6786   24.1141 H   0  0  0  0  0  0
  -27.4188  -29.7264   25.4461 H   0  0  0  0  0  0
  -27.8658  -30.4393   23.9153 H   0  0  0  0  0  0
  -27.2784  -33.3611   26.1990 H   0  0  0  0  0  0
  -28.3911  -32.6755   25.0256 H   0  0  0  0  0  0
  -28.0743  -31.8401   26.5378 H   0  0  0  0  0  0
  -28.2598  -38.0089   24.7540 H   0  0  0  0  0  0
  -28.1078  -36.2633   24.6259 H   0  0  0  0  0  0
  -27.2301  -37.1383   25.8878 H   0  0  0  0  0  0
  -20.9446  -29.8770   21.6821 H   0  0  0  0  0  0
  -26.0180  -38.2868   24.1464 H   0  0  0  0  0  0
  -31.5595  -18.8158   17.3026 H   0  0  0  0  0  0
  -29.1073  -18.3059   21.5564 H   0  0  0  0  0  0
  -32.2181  -21.0320   17.9649 H   0  0  0  0  0  0
  -31.4376  -21.8910   19.2691 H   0  0  0  0  0  0
  -30.5755  -21.6355   17.7408 H   0  0  0  0  0  0
  -31.0524  -16.6510   16.6662 H   0  0  0  0  0  0
  -30.1828  -15.5437   17.6902 H   0  0  0  0  0  0
  -31.9333  -15.7837   17.9089 H   0  0  0  0  0  0
  -30.4575  -21.4491   21.3910 H   0  0  0  0  0  0
  -28.9158  -20.8056   21.8063 H   0  0  0  0  0  0
  -27.7403  -22.1622   20.2388 H   0  0  0  0  0  0
  -29.0529  -22.3196   19.1573 H   0  0  0  0  0  0
  -30.1411  -24.0748   20.6474 H   0  0  0  0  0  0
  -28.8279  -23.9343   21.7539 H   0  0  0  0  0  0
  -27.2077  -24.6343   19.9230 H   0  0  0  0  0  0
  -28.5370  -24.9165   18.8214 H   0  0  0  0  0  0
  -28.8954  -15.6749   20.8060 H   0  0  0  0  0  0
  1 25  1  0  0  0
  1 30  2  0  0  0
  1 83  1  0  0  0
  2  3  1  0  0  0
  2 25  1  0  0  0
  2 84  1  0  0  0
  2 85  1  0  0  0
  3  4  1  0  0  0
  3 86  1  0  0  0
  3 87  1  0  0  0
  4  5  1  0  0  0
  4 88  1  0  0  0
  4 89  1  0  0  0
  5  6  1  0  0  0
  5 26  1  0  0  0
  5 90  1  0  0  0
  6 25  1  0  0  0
  6 91  1  0  0  0
  6 92  1  0  0  0
  7  8  2  0  0  0
  7 26  1  0  0  0
  7 29  1  0  0  0
  8  9  1  0  0  0
  8 22  1  0  0  0
  9 10  1  0  0  0
  9 27  2  0  0  0
 10 11  2  0  0  0
 10 15  1  0  0  0
 11 12  1  0  0  0
 11 93  1  0  0  0
 12 13  2  0  0  0
 12 94  1  0  0  0
 13 14  1  0  0  0
 13 31  1  0  0  0
 14 15  2  0  0  0
 14 95  1  0  0  0
 15 96  1  0  0  0
 16 17  2  0  0  0
 16 21  1  0  0  0
 16 31  1  0  0  0
 17 18  1  0  0  0
 17 97  1  0  0  0
 18 19  2  0  0  0
 18 98  1  0  0  0
 19 20  1  0  0  0
 19 24  1  0  0  0
 20 21  2  0  0  0
 20 99  1  0  0  0
 21 23  1  0  0  0
 22 28  1  0  0  0
 22 32  2  0  0  0
 26 27  1  0  0  0
 28100  1  0  0  0
 28101  1  0  0  0
 29102  1  0  0  0
 29103  1  0  0  0
 33 34  1  0  0  0
 33 66  1  0  0  0
 33 70  2  0  0  0
 34 36  1  0  0  0
 34 59  1  0  0  0
 34104  1  0  0  0
 35 44  2  0  0  0
 35 45  1  0  0  0
 35 68  1  0  0  0
 36 56  1  0  0  0
 36105  1  0  0  0
 37 39  1  0  0  0
 37 47  1  0  0  0
 37 66  1  0  0  0
 37106  1  0  0  0
 38 43  2  0  0  0
 38 46  1  0  0  0
 38 47  1  0  0  0
 39 64  1  0  0  0
 39 67  2  0  0  0
 40 52  1  0  0  0
 40 53  2  0  0  0
 40 58  1  0  0  0
 41107  1  0  0  0
 41108  1  0  0  0
 41109  1  0  0  0
 41 48  1  0  0  0
 42 43  1  0  0  0
 42 66  1  0  0  0
 42110  1  0  0  0
 42111  1  0  0  0
 43 44  1  0  0  0
 44112  1  0  0  0
 45 46  2  0  0  0
 45113  1  0  0  0
 46114  1  0  0  0
 47115  1  0  0  0
 47116  1  0  0  0
 48 56  1  0  0  0
 48 65  1  0  0  0
 48117  1  0  0  0
 49 50  1  0  0  0
 49 53  1  0  0  0
 49 64  1  0  0  0
 49118  1  0  0  0
 50 51  1  0  0  0
 50119  1  0  0  0
 50120  1  0  0  0
 51 52  1  0  0  0
 51121  1  0  0  0
 51122  1  0  0  0
 52123  1  0  0  0
 52124  1  0  0  0
 53 54  1  0  0  0
 54 55  2  0  0  0
 54125  1  0  0  0
 55 57  1  0  0  0
 55126  1  0  0  0
 56 69  2  0  0  0
 57 58  2  0  0  0
 57127  1  0  0  0
 58128  1  0  0  0
 59 60  1  0  0  0
 59 61  1  0  0  0
 59 62  1  0  0  0
 60129  1  0  0  0
 60130  1  0  0  0
 60131  1  0  0  0
 61132  1  0  0  0
 61133  1  0  0  0
 61134  1  0  0  0
 62135  1  0  0  0
 62136  1  0  0  0
 62137  1  0  0  0
 63 65  1  0  0  0
 63138  1  0  0  0
 63139  1  0  0  0
 63140  1  0  0  0
 64141  1  0  0  0
 65142  1  0  0  0
 68 82  1  0  0  0
 71 73  2  0  0  0
 71 74  1  0  0  0
 71143  1  0  0  0
 72 75  2  0  0  0
 72 76  1  0  0  0
 72144  1  0  0  0
 73 75  1  0  0  0
 73 77  1  0  0  0
 74 76  2  0  0  0
 74 78  1  0  0  0
 75 79  1  0  0  0
 76 83  1  0  0  0
 77145  1  0  0  0
 77146  1  0  0  0
 77147  1  0  0  0
 78148  1  0  0  0
 78149  1  0  0  0
 78150  1  0  0  0
 79 80  1  0  0  0
 79151  1  0  0  0
 79152  1  0  0  0
 80 81  1  0  0  0
 80153  1  0  0  0
 80154  1  0  0  0
 81 82  1  0  0  0
 81155  1  0  0  0
 81156  1  0  0  0
 82157  1  0  0  0
 82158  1  0  0  0
 83159  1  0  0  0
M  ISO  4   1 100  68 101  82 101  83 100
M  END
> <chiral flag>
0

> <version>
0

> <s_m_source_file>
/data/baiqing/PycharmProjects/Reinvent-master-3.2/result/LINK_invent/BTK/process_docking_weight1_custom_product_contain_oxygen_bond_distance_aromatic_linkinvent_7_9_3/rearranged_h_0127.sdf

> <i_m_source_file_index>
49

> <r_mmod_Potential_Energy-OPLS-2005>
145.336090087891

> <r_mmod_Stretch_Energy-OPLS-2005>
112.26505279541

> <r_mmod_Bend_Energy-OPLS-2005>
152.157257080078

> <r_mmod_Torsional_Energy-OPLS-2005>
245.671997070312

> <r_mmod_Improper_Torsional_Energy-OPLS-2005>
5.69048309326172

> <r_mmod_Van_der_Waal_Energy-OPLS-2005>
149.465911865234

> <r_mmod_Electrostatic_Energy-OPLS-2005>
-389.652893066406

> <r_mmod_Solvation_Energy-OPLS-2005>
-203.901718139648

> <b_mmod_Minimization_Converged-OPLS-2005>
0

> <r_mmod_RMS_Derivative-OPLS-2005>
5.99050998687744

$$$$
49
                    3D
 Structure written by MMmdl.
156164  0  0  1  0            999 V2000
  -30.5434  -14.8626   20.4756 C   0  0  0  0  0  0
  -30.4520  -12.5373   19.4941 C   0  0  0  0  0  0
  -29.5219  -12.5383   18.2566 C   0  0  0  0  0  0
  -28.0508  -12.3337   18.6662 C   0  0  0  0  0  0
  -27.6428  -13.2377   19.8595 C   0  0  2  0  0  0
  -28.6854  -13.1902   20.9989 C   0  0  0  0  0  0
  -25.2519  -13.8221   20.5712 C   0  0  0  0  0  0
  -24.1820  -13.0452   20.9221 C   0  0  0  0  0  0
  -24.6421  -11.6928   20.8776 C   0  0  0  0  0  0
  -23.9109  -10.4308   21.0440 C   0  0  0  0  0  0
  -24.3657   -9.4209   21.9204 C   0  0  0  0  0  0
  -23.6312   -8.2252   22.0767 C   0  0  0  0  0  0
  -22.4285   -8.0312   21.3565 C   0  0  0  0  0  0
  -21.9946   -9.0302   20.4665 C   0  0  0  0  0  0
  -22.7295  -10.2161   20.3074 C   0  0  0  0  0  0
  -21.6858   -6.0757   22.5288 C   0  0  0  0  0  0
  -21.4025   -6.5661   23.8227 C   0  0  0  0  0  0
  -21.3643   -5.6809   24.9189 C   0  0  0  0  0  0
  -21.6042   -4.3073   24.7236 C   0  0  0  0  0  0
  -21.8814   -3.8165   23.4354 C   0  0  0  0  0  0
  -21.9196   -4.6983   22.3413 C   0  0  0  0  0  0
  -22.7839  -13.5234   21.1853 C   0  0  0  0  0  0
  -22.1660   -4.2181   21.0982 F   0  0  0  0  0  0
  -21.5617   -3.4545   25.7735 F   0  0  0  0  0  0
  -29.9793  -13.5943   20.4252 N   0  0  0  0  0  0
  -26.2948  -12.9436   20.3330 N   0  0  0  0  0  0
  -25.9359  -11.6568   20.5797 N   0  0  0  0  0  0
  -22.0498  -12.8227   22.0412 N   0  0  0  0  0  0
  -25.4232  -15.1941   20.4116 N   0  0  0  0  0  0
  -31.7114  -15.0087   20.1029 O   0  0  0  0  0  0
  -21.6649   -6.8903   21.4246 O   0  0  0  0  0  0
  -22.3518  -14.5532   20.6675 O   0  0  0  0  0  0
  -24.6386  -31.8454   23.1909 C   0  0  0  0  0  0
  -25.9180  -32.4717   23.8278 C   0  0  1  0  0  0
  -27.2350  -27.1847   20.1668 C   0  0  0  0  0  0
  -25.5931  -33.8514   24.2197 N   0  0  0  0  0  0
  -23.4421  -30.4612   21.5370 C   0  0  2  0  0  0
  -24.8927  -28.8814   20.1264 C   0  0  0  0  0  0
  -22.7544  -29.4542   22.4912 C   0  0  0  0  0  0
  -18.0291  -28.1384   22.8492 C   0  0  0  0  0  0
  -24.1483  -36.7252   23.2645 C   0  0  0  0  0  0
  -25.9914  -30.7352   21.3802 C   0  0  0  0  0  0
  -26.0675  -29.3453   20.7332 C   0  0  0  0  0  0
  -27.2422  -28.5146   20.7340 C   0  0  0  0  0  0
  -26.0378  -26.7984   19.5326 C   0  0  0  0  0  0
  -24.8868  -27.6176   19.5132 C   0  0  0  0  0  0
  -23.6682  -29.7796   20.1596 C   0  0  0  0  0  0
  -25.4120  -36.3047   24.0324 C   0  0  1  0  0  0
  -20.5898  -28.3694   23.1259 C   0  0  2  0  0  0
  -20.6774  -26.9406   22.5409 C   0  0  0  0  0  0
  -19.5743  -26.6373   21.5218 C   0  0  0  0  0  0
  -18.1925  -26.7927   22.1634 C   0  0  0  0  0  0
  -19.1550  -28.8862   23.2866 C   0  0  0  0  0  0
  -18.9471  -30.1459   23.8885 C   0  0  0  0  0  0
  -17.6467  -30.6586   24.0556 C   0  0  0  0  0  0
  -25.9062  -34.9424   23.5075 C   0  0  0  0  0  0
  -16.5356  -29.9077   23.6332 C   0  0  0  0  0  0
  -16.7282  -28.6487   23.0374 C   0  0  0  0  0  0
  -26.4514  -31.6582   25.0706 C   0  0  0  0  0  0
  -25.3726  -31.3740   26.1427 C   0  0  0  0  0  0
  -27.0363  -30.2998   24.6224 C   0  0  0  0  0  0
  -27.6037  -32.4348   25.7493 C   0  0  0  0  0  0
  -27.5571  -37.1792   24.8472 C   0  0  0  0  0  0
  -21.4240  -29.3029   22.3659 N   0  0  0  0  0  0
  -26.4280  -37.3761   23.9419 N   0  0  0  0  0  0
  -24.7104  -31.0351   22.0917 N   0  0  0  0  0  0
  -23.4217  -28.8107   23.3057 O   0  0  0  0  0  0
  -28.3319  -26.2670   20.1477 O   0  0  0  0  0  0
  -26.5640  -34.8919   22.4646 O   0  0  0  0  0  0
  -23.5515  -32.1294   23.7177 O   0  0  0  0  0  0
  -30.1354  -19.8210   19.9644 C   0  0  0  0  0  0
  -30.3285  -18.3732   19.9409 C   0  0  0  0  0  0
  -28.5917  -19.5636   21.7284 C   0  0  0  0  0  0
  -29.2329  -20.4987   20.8580 C   0  0  0  0  0  0
  -28.7971  -18.1317   21.7456 C   0  0  0  0  0  0
  -29.6701  -17.4533   20.8276 C   0  0  0  0  0  0
  -27.6499  -18.0313   24.0778 C   0  0  0  0  0  0
  -29.0473  -22.1090   21.1382 C   0  0  0  0  0  0
  -28.0707  -17.2875   22.8004 C   0  0  0  0  0  0
  -28.7645  -23.4029   20.1354 C   0  0  0  0  0  0
  -28.2397  -24.8627   20.7592 C   0  0  0  0  0  0
  -29.7037  -15.9320   20.8337 N   0  0  0  0  0  0
  -31.4873  -12.6965   19.1879 H   0  0  0  0  0  0
  -30.4391  -11.5662   19.9937 H   0  0  0  0  0  0
  -29.8285  -11.7674   17.5472 H   0  0  0  0  0  0
  -29.6182  -13.4951   17.7397 H   0  0  0  0  0  0
  -27.9202  -11.2838   18.9332 H   0  0  0  0  0  0
  -27.3928  -12.5166   17.8151 H   0  0  0  0  0  0
  -27.6327  -14.2568   19.4705 H   0  0  0  0  0  0
  -28.7509  -12.1896   21.4293 H   0  0  0  0  0  0
  -28.3890  -13.8460   21.8198 H   0  0  0  0  0  0
  -25.2812   -9.5661   22.4776 H   0  0  0  0  0  0
  -24.0026   -7.4636   22.7472 H   0  0  0  0  0  0
  -21.0896   -8.8853   19.8963 H   0  0  0  0  0  0
  -22.3810  -10.9713   19.6180 H   0  0  0  0  0  0
  -21.2027   -7.6169   23.9745 H   0  0  0  0  0  0
  -21.1461   -6.0532   25.9090 H   0  0  0  0  0  0
  -22.0601   -2.7624   23.2851 H   0  0  0  0  0  0
  -22.4119  -11.9884   22.4788 H   0  0  0  0  0  0
  -21.1119  -13.1251   22.2646 H   0  0  0  0  0  0
  -24.6490  -15.8418   20.5077 H   0  0  0  0  0  0
  -26.2607  -15.6327   20.0512 H   0  0  0  0  0  0
  -26.7231  -32.5338   23.0995 H   0  0  0  0  0  0
  -25.0090  -33.9618   25.0357 H   0  0  0  0  0  0
  -22.7445  -31.2856   21.3788 H   0  0  0  0  0  0
  -23.3756  -35.9570   23.3308 H   0  0  0  0  0  0
  -24.3551  -36.8880   22.2055 H   0  0  0  0  0  0
  -23.7227  -37.6450   23.6668 H   0  0  0  0  0  0
  -26.1362  -31.4861   20.6024 H   0  0  0  0  0  0
  -26.8666  -30.7914   22.0171 H   0  0  0  0  0  0
  -28.1434  -28.8737   21.2118 H   0  0  0  0  0  0
  -25.9868  -25.8295   19.0552 H   0  0  0  0  0  0
  -23.9898  -27.2552   19.0318 H   0  0  0  0  0  0
  -23.8098  -30.5467   19.3972 H   0  0  0  0  0  0
  -22.7855  -29.2161   19.8509 H   0  0  0  0  0  0
  -25.1312  -36.1872   25.0813 H   0  0  0  0  0  0
  -20.9977  -28.3264   24.1394 H   0  0  0  0  0  0
  -20.5657  -26.2306   23.3627 H   0  0  0  0  0  0
  -21.6641  -26.7410   22.1222 H   0  0  0  0  0  0
  -19.6902  -25.6282   21.1256 H   0  0  0  0  0  0
  -19.6681  -27.3177   20.6746 H   0  0  0  0  0  0
  -17.4205  -26.6677   21.4032 H   0  0  0  0  0  0
  -18.0323  -26.0058   22.9013 H   0  0  0  0  0  0
  -19.7946  -30.7270   24.2265 H   0  0  0  0  0  0
  -17.5025  -31.6283   24.5143 H   0  0  0  0  0  0
  -15.5360  -30.2984   23.7667 H   0  0  0  0  0  0
  -15.8678  -28.0799   22.7121 H   0  0  0  0  0  0
  -24.5899  -30.7088   25.7768 H   0  0  0  0  0  0
  -24.8922  -32.2909   26.4850 H   0  0  0  0  0  0
  -25.8048  -30.8928   27.0211 H   0  0  0  0  0  0
  -26.2954  -29.6757   24.1215 H   0  0  0  0  0  0
  -27.4003  -29.7257   25.4753 H   0  0  0  0  0  0
  -27.8850  -30.4277   23.9501 H   0  0  0  0  0  0
  -27.2614  -33.3653   26.2033 H   0  0  0  0  0  0
  -28.3869  -32.6911   25.0345 H   0  0  0  0  0  0
  -28.0677  -31.8504   26.5451 H   0  0  0  0  0  0
  -28.2610  -38.0071   24.7519 H   0  0  0  0  0  0
  -28.1048  -36.2609   24.6305 H   0  0  0  0  0  0
  -27.2280  -37.1457   25.8871 H   0  0  0  0  0  0
  -20.9470  -29.8744   21.6824 H   0  0  0  0  0  0
  -26.0152  -38.2828   24.1430 H   0  0  0  0  0  0
  -30.7282  -20.4194   19.2863 H   0  0  0  0  0  0
  -31.0155  -17.9631   19.2120 H   0  0  0  0  0  0
  -27.9230  -19.9901   22.4584 H   0  0  0  0  0  0
  -27.2495  -17.3279   24.8101 H   0  0  0  0  0  0
  -26.8708  -18.7674   23.8825 H   0  0  0  0  0  0
  -28.4992  -18.5389   24.5424 H   0  0  0  0  0  0
  -29.9158  -22.3796   21.7411 H   0  0  0  0  0  0
  -28.2222  -22.1534   21.8508 H   0  0  0  0  0  0
  -28.7258  -16.4755   23.1162 H   0  0  0  0  0  0
  -27.2011  -16.8179   22.3413 H   0  0  0  0  0  0
  -28.0286  -23.0927   19.3942 H   0  0  0  0  0  0
  -29.6764  -23.5857   19.5695 H   0  0  0  0  0  0
  -28.8091  -24.9884   21.6807 H   0  0  0  0  0  0
  -27.2187  -24.7143   21.1103 H   0  0  0  0  0  0
  -28.8544  -15.5528   21.2227 H   0  0  0  0  0  0
  1 25  1  0  0  0
  1 30  2  0  0  0
  1 82  1  0  0  0
  2  3  1  0  0  0
  2 25  1  0  0  0
  2 83  1  0  0  0
  2 84  1  0  0  0
  3  4  1  0  0  0
  3 85  1  0  0  0
  3 86  1  0  0  0
  4  5  1  0  0  0
  4 87  1  0  0  0
  4 88  1  0  0  0
  5  6  1  0  0  0
  5 26  1  0  0  0
  5 89  1  0  0  0
  6 25  1  0  0  0
  6 90  1  0  0  0
  6 91  1  0  0  0
  7  8  2  0  0  0
  7 26  1  0  0  0
  7 29  1  0  0  0
  8  9  1  0  0  0
  8 22  1  0  0  0
  9 10  1  0  0  0
  9 27  2  0  0  0
 10 11  2  0  0  0
 10 15  1  0  0  0
 11 12  1  0  0  0
 11 92  1  0  0  0
 12 13  2  0  0  0
 12 93  1  0  0  0
 13 14  1  0  0  0
 13 31  1  0  0  0
 14 15  2  0  0  0
 14 94  1  0  0  0
 15 95  1  0  0  0
 16 17  2  0  0  0
 16 21  1  0  0  0
 16 31  1  0  0  0
 17 18  1  0  0  0
 17 96  1  0  0  0
 18 19  2  0  0  0
 18 97  1  0  0  0
 19 20  1  0  0  0
 19 24  1  0  0  0
 20 21  2  0  0  0
 20 98  1  0  0  0
 21 23  1  0  0  0
 22 28  1  0  0  0
 22 32  2  0  0  0
 26 27  1  0  0  0
 28 99  1  0  0  0
 28100  1  0  0  0
 29101  1  0  0  0
 29102  1  0  0  0
 33 34  1  0  0  0
 33 66  1  0  0  0
 33 70  2  0  0  0
 34 36  1  0  0  0
 34 59  1  0  0  0
 34103  1  0  0  0
 35 44  2  0  0  0
 35 45  1  0  0  0
 35 68  1  0  0  0
 36 56  1  0  0  0
 36104  1  0  0  0
 37 39  1  0  0  0
 37 47  1  0  0  0
 37 66  1  0  0  0
 37105  1  0  0  0
 38 43  2  0  0  0
 38 46  1  0  0  0
 38 47  1  0  0  0
 39 64  1  0  0  0
 39 67  2  0  0  0
 40 52  1  0  0  0
 40 53  2  0  0  0
 40 58  1  0  0  0
 41106  1  0  0  0
 41107  1  0  0  0
 41108  1  0  0  0
 41 48  1  0  0  0
 42 43  1  0  0  0
 42 66  1  0  0  0
 42109  1  0  0  0
 42110  1  0  0  0
 43 44  1  0  0  0
 44111  1  0  0  0
 45 46  2  0  0  0
 45112  1  0  0  0
 46113  1  0  0  0
 47114  1  0  0  0
 47115  1  0  0  0
 48 56  1  0  0  0
 48 65  1  0  0  0
 48116  1  0  0  0
 49 50  1  0  0  0
 49 53  1  0  0  0
 49 64  1  0  0  0
 49117  1  0  0  0
 50 51  1  0  0  0
 50118  1  0  0  0
 50119  1  0  0  0
 51 52  1  0  0  0
 51120  1  0  0  0
 51121  1  0  0  0
 52122  1  0  0  0
 52123  1  0  0  0
 53 54  1  0  0  0
 54 55  2  0  0  0
 54124  1  0  0  0
 55 57  1  0  0  0
 55125  1  0  0  0
 56 69  2  0  0  0
 57 58  2  0  0  0
 57126  1  0  0  0
 58127  1  0  0  0
 59 60  1  0  0  0
 59 61  1  0  0  0
 59 62  1  0  0  0
 60128  1  0  0  0
 60129  1  0  0  0
 60130  1  0  0  0
 61131  1  0  0  0
 61132  1  0  0  0
 61133  1  0  0  0
 62134  1  0  0  0
 62135  1  0  0  0
 62136  1  0  0  0
 63 65  1  0  0  0
 63137  1  0  0  0
 63138  1  0  0  0
 63139  1  0  0  0
 64140  1  0  0  0
 65141  1  0  0  0
 68 81  1  0  0  0
 71 72  2  0  0  0
 71 74  1  0  0  0
 71142  1  0  0  0
 72 76  1  0  0  0
 72143  1  0  0  0
 73 74  2  0  0  0
 73 75  1  0  0  0
 73144  1  0  0  0
 74 78  1  0  0  0
 75 76  2  0  0  0
 75 79  1  0  0  0
 76 82  1  0  0  0
 77 79  1  0  0  0
 77145  1  0  0  0
 77146  1  0  0  0
 77147  1  0  0  0
 78 80  1  0  0  0
 78148  1  0  0  0
 78149  1  0  0  0
 79150  1  0  0  0
 79151  1  0  0  0
 80 81  1  0  0  0
 80152  1  0  0  0
 80153  1  0  0  0
 81154  1  0  0  0
 81155  1  0  0  0
 82156  1  0  0  0
M  ISO  4   1 100  68 101  81 101  82 100
M  END
> <chiral flag>
0

> <version>
0

> <s_m_source_file>
/data/baiqing/PycharmProjects/Reinvent-master-3.2/result/LINK_invent/BTK/process_docking_weight1_custom_product_contain_oxygen_bond_distance_aromatic_linkinvent_7_9_3/rearranged_h_0127.sdf

> <i_m_source_file_index>
50

> <r_mmod_Potential_Energy-OPLS-2005>
389.405029296875

> <r_mmod_Stretch_Energy-OPLS-2005>
194.350082397461

> <r_mmod_Bend_Energy-OPLS-2005>
263.327880859375

> <r_mmod_Torsional_Energy-OPLS-2005>
240.235900878906

> <r_mmod_Improper_Torsional_Energy-OPLS-2005>
4.58511304855347

> <r_mmod_Van_der_Waal_Energy-OPLS-2005>
132.702880859375

> <r_mmod_Electrostatic_Energy-OPLS-2005>
-382.819976806641

> <r_mmod_Solvation_Energy-OPLS-2005>
-200.987274169922

> <b_mmod_Minimization_Converged-OPLS-2005>
0

> <r_mmod_RMS_Derivative-OPLS-2005>
3.4212064743042

$$$$
50
                    3D
 Structure written by MMmdl.
157165  0  0  1  0            999 V2000
  -30.6149  -14.5061   20.4112 C   0  0  0  0  0  0
  -30.4492  -12.2874   19.3987 C   0  0  0  0  0  0
  -29.4911  -12.4365   18.1929 C   0  0  0  0  0  0
  -28.0149  -12.2986   18.6279 C   0  0  0  0  0  0
  -27.6506  -13.1696   19.8572 C   0  0  2  0  0  0
  -28.7159  -13.0150   20.9749 C   0  0  0  0  0  0
  -25.2666  -13.8041   20.5724 C   0  0  0  0  0  0
  -24.1885  -13.0394   20.9215 C   0  0  0  0  0  0
  -24.6387  -11.6836   20.8792 C   0  0  0  0  0  0
  -23.9033  -10.4255   21.0437 C   0  0  0  0  0  0
  -24.3573   -9.4172   21.9221 C   0  0  0  0  0  0
  -23.6257   -8.2203   22.0758 C   0  0  0  0  0  0
  -22.4248   -8.0262   21.3522 C   0  0  0  0  0  0
  -21.9884   -9.0242   20.4645 C   0  0  0  0  0  0
  -22.7211  -10.2126   20.3078 C   0  0  0  0  0  0
  -21.6853   -6.0722   22.5259 C   0  0  0  0  0  0
  -21.4019   -6.5632   23.8204 C   0  0  0  0  0  0
  -21.3658   -5.6796   24.9174 C   0  0  0  0  0  0
  -21.6046   -4.3051   24.7238 C   0  0  0  0  0  0
  -21.8830   -3.8132   23.4362 C   0  0  0  0  0  0
  -21.9195   -4.6944   22.3416 C   0  0  0  0  0  0
  -22.7918  -13.5224   21.1837 C   0  0  0  0  0  0
  -22.1663   -4.2136   21.0992 F   0  0  0  0  0  0
  -21.5637   -3.4534   25.7751 F   0  0  0  0  0  0
  -30.0502  -13.2785   20.4037 N   0  0  0  0  0  0
  -26.3020  -12.9127   20.3380 N   0  0  0  0  0  0
  -25.9303  -11.6346   20.5851 N   0  0  0  0  0  0
  -22.0534  -12.8241   22.0402 N   0  0  0  0  0  0
  -25.4436  -15.1765   20.4085 N   0  0  0  0  0  0
  -31.8226  -14.7313   20.3004 O   0  0  0  0  0  0
  -21.6623   -6.8851   21.4212 O   0  0  0  0  0  0
  -22.3617  -14.5531   20.6677 O   0  0  0  0  0  0
  -24.6154  -31.8648   23.2062 C   0  0  0  0  0  0
  -25.9028  -32.4820   23.8371 C   0  0  1  0  0  0
  -27.2330  -27.4307   20.0700 C   0  0  0  0  0  0
  -25.5860  -33.8608   24.2322 N   0  0  0  0  0  0
  -23.4073  -30.4847   21.5518 C   0  0  2  0  0  0
  -24.8460  -28.9559   20.1159 C   0  0  0  0  0  0
  -22.7471  -29.4587   22.5022 C   0  0  0  0  0  0
  -18.0314  -28.1371   22.8422 C   0  0  0  0  0  0
  -24.1483  -36.7291   23.2643 C   0  0  0  0  0  0
  -25.9392  -30.8300   21.3654 C   0  0  0  0  0  0
  -26.0103  -29.4662   20.7046 C   0  0  0  0  0  0
  -27.2052  -28.7128   20.6714 C   0  0  0  0  0  0
  -26.0347  -26.9283   19.5017 C   0  0  0  0  0  0
  -24.8520  -27.6907   19.5120 C   0  0  0  0  0  0
  -23.6130  -29.8228   20.1649 C   0  0  0  0  0  0
  -25.4120  -36.3124   24.0340 C   0  0  1  0  0  0
  -20.5913  -28.3561   23.1296 C   0  0  2  0  0  0
  -20.6730  -26.9244   22.5579 C   0  0  0  0  0  0
  -19.5826  -26.6298   21.5185 C   0  0  0  0  0  0
  -18.1895  -26.7969   22.1420 C   0  0  0  0  0  0
  -19.1608  -28.8816   23.2764 C   0  0  0  0  0  0
  -18.9641  -30.1434   23.8740 C   0  0  0  0  0  0
  -17.6666  -30.6606   24.0533 C   0  0  0  0  0  0
  -25.9034  -34.9474   23.5154 C   0  0  0  0  0  0
  -16.5532  -29.9113   23.6432 C   0  0  0  0  0  0
  -16.7354  -28.6541   23.0387 C   0  0  0  0  0  0
  -26.4464  -31.6603   25.0703 C   0  0  0  0  0  0
  -25.3751  -31.3650   26.1462 C   0  0  0  0  0  0
  -27.0341  -30.3061   24.6114 C   0  0  0  0  0  0
  -27.6056  -32.4306   25.7463 C   0  0  0  0  0  0
  -27.5593  -37.1789   24.8477 C   0  0  0  0  0  0
  -21.4231  -29.2790   22.3588 N   0  0  0  0  0  0
  -26.4319  -37.3795   23.9398 N   0  0  0  0  0  0
  -24.6726  -31.0760   22.0966 N   0  0  0  0  0  0
  -23.4187  -28.8259   23.3215 O   0  0  0  0  0  0
  -28.4326  -26.7379   20.0454 O   0  0  0  0  0  0
  -26.5602  -34.8913   22.4725 O   0  0  0  0  0  0
  -23.5330  -32.1405   23.7438 O   0  0  0  0  0  0
  -28.0530  -18.5902   19.2613 C   0  0  0  0  0  0
  -28.5730  -17.2985   19.0984 C   0  0  0  0  0  0
  -29.7488  -17.4913   21.2172 C   0  0  0  0  0  0
  -28.3476  -19.3607   20.4026 C   0  0  0  0  0  0
  -29.1914  -18.7888   21.4014 C   0  0  0  0  0  0
  -29.4188  -16.7388   20.0717 C   0  0  0  0  0  0
  -27.7052  -20.7027   20.4254 C   0  0  0  0  0  0
  -28.1689  -21.8946   20.8600 C   0  0  0  0  0  0
  -29.4327  -19.4877   22.7256 C   0  0  0  0  0  0
  -27.3113  -23.1610   20.8138 C   0  0  0  0  0  0
  -28.0176  -24.5249   21.0371 C   0  0  0  0  0  0
  -28.4336  -25.3235   19.7754 C   0  0  0  0  0  0
  -29.7232  -15.3706   19.8955 N   0  0  0  0  0  0
  -31.4816  -12.4330   19.0668 H   0  0  0  0  0  0
  -30.3939  -11.2764   19.8124 H   0  0  0  0  0  0
  -29.7130  -11.6727   17.4444 H   0  0  0  0  0  0
  -29.6502  -13.3953   17.6958 H   0  0  0  0  0  0
  -27.8475  -11.2490   18.8704 H   0  0  0  0  0  0
  -27.3449  -12.5263   17.7942 H   0  0  0  0  0  0
  -27.6293  -14.1920   19.4947 H   0  0  0  0  0  0
  -28.6894  -12.0159   21.4156 H   0  0  0  0  0  0
  -28.5146  -13.7157   21.7855 H   0  0  0  0  0  0
  -25.2721   -9.5679   22.4789 H   0  0  0  0  0  0
  -23.9993   -7.4598   22.7467 H   0  0  0  0  0  0
  -21.0826   -8.8768   19.8925 H   0  0  0  0  0  0
  -22.3680  -10.9677   19.6192 H   0  0  0  0  0  0
  -21.2003   -7.6142   23.9705 H   0  0  0  0  0  0
  -21.1466   -6.0526   25.9087 H   0  0  0  0  0  0
  -22.0601   -2.7585   23.2876 H   0  0  0  0  0  0
  -22.4112  -11.9903   22.4802 H   0  0  0  0  0  0
  -21.1138  -13.1268   22.2538 H   0  0  0  0  0  0
  -24.6783  -15.8312   20.5215 H   0  0  0  0  0  0
  -26.3109  -15.6230   20.1388 H   0  0  0  0  0  0
  -26.7134  -32.5490   23.1148 H   0  0  0  0  0  0
  -25.0059  -33.9801   25.0491 H   0  0  0  0  0  0
  -22.6947  -31.2998   21.4125 H   0  0  0  0  0  0
  -23.3756  -35.9610   23.3343 H   0  0  0  0  0  0
  -24.3571  -36.8864   22.2056 H   0  0  0  0  0  0
  -23.7210  -37.6488   23.6632 H   0  0  0  0  0  0
  -26.0739  -31.6045   20.6092 H   0  0  0  0  0  0
  -26.8186  -30.8591   21.9971 H   0  0  0  0  0  0
  -28.1159  -29.1220   21.0889 H   0  0  0  0  0  0
  -25.9856  -25.9595   19.0253 H   0  0  0  0  0  0
  -23.9489  -27.3039   19.0551 H   0  0  0  0  0  0
  -23.7181  -30.5964   19.4055 H   0  0  0  0  0  0
  -22.7359  -29.2447   19.8718 H   0  0  0  0  0  0
  -25.1294  -36.2028   25.0830 H   0  0  0  0  0  0
  -20.9961  -28.3227   24.1452 H   0  0  0  0  0  0
  -20.5258  -26.2340   23.3863 H   0  0  0  0  0  0
  -21.6704  -26.6988   22.1697 H   0  0  0  0  0  0
  -19.7053  -25.6208   21.1278 H   0  0  0  0  0  0
  -19.6980  -27.3068   20.6731 H   0  0  0  0  0  0
  -17.4283  -26.7147   21.3625 H   0  0  0  0  0  0
  -17.9948  -25.9961   22.8575 H   0  0  0  0  0  0
  -19.8190  -30.7207   24.2056 H   0  0  0  0  0  0
  -17.5312  -31.6315   24.5118 H   0  0  0  0  0  0
  -15.5557  -30.2985   23.7960 H   0  0  0  0  0  0
  -15.8660  -28.0892   22.7272 H   0  0  0  0  0  0
  -24.5912  -30.7056   25.7741 H   0  0  0  0  0  0
  -24.8960  -32.2788   26.4981 H   0  0  0  0  0  0
  -25.8083  -30.8721   27.0190 H   0  0  0  0  0  0
  -26.2928  -29.6766   24.1228 H   0  0  0  0  0  0
  -27.4199  -29.7321   25.4552 H   0  0  0  0  0  0
  -27.8691  -30.4381   23.9242 H   0  0  0  0  0  0
  -27.2711  -33.3570   26.2140 H   0  0  0  0  0  0
  -28.3800  -32.6953   25.0249 H   0  0  0  0  0  0
  -28.0857  -31.8406   26.5296 H   0  0  0  0  0  0
  -28.2638  -38.0069   24.7511 H   0  0  0  0  0  0
  -28.1064  -36.2586   24.6337 H   0  0  0  0  0  0
  -27.2286  -37.1483   25.8879 H   0  0  0  0  0  0
  -20.9430  -29.8076   21.6422 H   0  0  0  0  0  0
  -26.0219  -38.2872   24.1396 H   0  0  0  0  0  0
  -27.3885  -18.9722   18.4975 H   0  0  0  0  0  0
  -28.2836  -16.7285   18.2245 H   0  0  0  0  0  0
  -30.3684  -17.0368   21.9771 H   0  0  0  0  0  0
  -26.6947  -20.7031   20.0425 H   0  0  0  0  0  0
  -29.1648  -21.9844   21.2622 H   0  0  0  0  0  0
  -29.7707  -18.7933   23.4927 H   0  0  0  0  0  0
  -28.5043  -19.9355   23.0855 H   0  0  0  0  0  0
  -30.1774  -20.2724   22.6225 H   0  0  0  0  0  0
  -26.5777  -23.0429   21.6140 H   0  0  0  0  0  0
  -26.7371  -23.1827   19.8869 H   0  0  0  0  0  0
  -28.8608  -24.4291   21.7238 H   0  0  0  0  0  0
  -27.2960  -25.1436   21.5709 H   0  0  0  0  0  0
  -27.8487  -25.0772   18.8901 H   0  0  0  0  0  0
  -29.4495  -25.0398   19.5052 H   0  0  0  0  0  0
  -28.9827  -14.8694   19.4381 H   0  0  0  0  0  0
  1 25  1  0  0  0
  1 30  2  0  0  0
  1 83  1  0  0  0
  2  3  1  0  0  0
  2 25  1  0  0  0
  2 84  1  0  0  0
  2 85  1  0  0  0
  3  4  1  0  0  0
  3 86  1  0  0  0
  3 87  1  0  0  0
  4  5  1  0  0  0
  4 88  1  0  0  0
  4 89  1  0  0  0
  5  6  1  0  0  0
  5 26  1  0  0  0
  5 90  1  0  0  0
  6 25  1  0  0  0
  6 91  1  0  0  0
  6 92  1  0  0  0
  7  8  2  0  0  0
  7 26  1  0  0  0
  7 29  1  0  0  0
  8  9  1  0  0  0
  8 22  1  0  0  0
  9 10  1  0  0  0
  9 27  2  0  0  0
 10 11  2  0  0  0
 10 15  1  0  0  0
 11 12  1  0  0  0
 11 93  1  0  0  0
 12 13  2  0  0  0
 12 94  1  0  0  0
 13 14  1  0  0  0
 13 31  1  0  0  0
 14 15  2  0  0  0
 14 95  1  0  0  0
 15 96  1  0  0  0
 16 17  2  0  0  0
 16 21  1  0  0  0
 16 31  1  0  0  0
 17 18  1  0  0  0
 17 97  1  0  0  0
 18 19  2  0  0  0
 18 98  1  0  0  0
 19 20  1  0  0  0
 19 24  1  0  0  0
 20 21  2  0  0  0
 20 99  1  0  0  0
 21 23  1  0  0  0
 22 28  1  0  0  0
 22 32  2  0  0  0
 26 27  1  0  0  0
 28100  1  0  0  0
 28101  1  0  0  0
 29102  1  0  0  0
 29103  1  0  0  0
 33 34  1  0  0  0
 33 66  1  0  0  0
 33 70  2  0  0  0
 34 36  1  0  0  0
 34 59  1  0  0  0
 34104  1  0  0  0
 35 44  2  0  0  0
 35 45  1  0  0  0
 35 68  1  0  0  0
 36 56  1  0  0  0
 36105  1  0  0  0
 37 39  1  0  0  0
 37 47  1  0  0  0
 37 66  1  0  0  0
 37106  1  0  0  0
 38 43  2  0  0  0
 38 46  1  0  0  0
 38 47  1  0  0  0
 39 64  1  0  0  0
 39 67  2  0  0  0
 40 52  1  0  0  0
 40 53  2  0  0  0
 40 58  1  0  0  0
 41107  1  0  0  0
 41108  1  0  0  0
 41109  1  0  0  0
 41 48  1  0  0  0
 42 43  1  0  0  0
 42 66  1  0  0  0
 42110  1  0  0  0
 42111  1  0  0  0
 43 44  1  0  0  0
 44112  1  0  0  0
 45 46  2  0  0  0
 45113  1  0  0  0
 46114  1  0  0  0
 47115  1  0  0  0
 47116  1  0  0  0
 48 56  1  0  0  0
 48 65  1  0  0  0
 48117  1  0  0  0
 49 50  1  0  0  0
 49 53  1  0  0  0
 49 64  1  0  0  0
 49118  1  0  0  0
 50 51  1  0  0  0
 50119  1  0  0  0
 50120  1  0  0  0
 51 52  1  0  0  0
 51121  1  0  0  0
 51122  1  0  0  0
 52123  1  0  0  0
 52124  1  0  0  0
 53 54  1  0  0  0
 54 55  2  0  0  0
 54125  1  0  0  0
 55 57  1  0  0  0
 55126  1  0  0  0
 56 69  2  0  0  0
 57 58  2  0  0  0
 57127  1  0  0  0
 58128  1  0  0  0
 59 60  1  0  0  0
 59 61  1  0  0  0
 59 62  1  0  0  0
 60129  1  0  0  0
 60130  1  0  0  0
 60131  1  0  0  0
 61132  1  0  0  0
 61133  1  0  0  0
 61134  1  0  0  0
 62135  1  0  0  0
 62136  1  0  0  0
 62137  1  0  0  0
 63 65  1  0  0  0
 63138  1  0  0  0
 63139  1  0  0  0
 63140  1  0  0  0
 64141  1  0  0  0
 65142  1  0  0  0
 68 82  1  0  0  0
 71 72  2  0  0  0
 71 74  1  0  0  0
 71143  1  0  0  0
 72 76  1  0  0  0
 72144  1  0  0  0
 73 75  1  0  0  0
 73 76  2  0  0  0
 73145  1  0  0  0
 74 75  2  0  0  0
 74 77  1  0  0  0
 75 79  1  0  0  0
 76 83  1  0  0  0
 77 78  2  0  0  0
 77146  1  0  0  0
 78 80  1  0  0  0
 78147  1  0  0  0
 79148  1  0  0  0
 79149  1  0  0  0
 79150  1  0  0  0
 80 81  1  0  0  0
 80151  1  0  0  0
 80152  1  0  0  0
 81 82  1  0  0  0
 81153  1  0  0  0
 81154  1  0  0  0
 82155  1  0  0  0
 82156  1  0  0  0
 83157  1  0  0  0
M  ISO  4   1 100  68 101  82 101  83 100
M  END
> <chiral flag>
0

> <version>
0

> <s_m_source_file>
/data/baiqing/PycharmProjects/Reinvent-master-3.2/result/LINK_invent/BTK/process_docking_weight1_custom_product_contain_oxygen_bond_distance_aromatic_linkinvent_7_9_3/rearranged_h_0127.sdf

> <i_m_source_file_index>
51

> <r_mmod_Potential_Energy-OPLS-2005>
81.3950805664062

> <r_mmod_Stretch_Energy-OPLS-2005>
37.1498908996582

> <r_mmod_Bend_Energy-OPLS-2005>
136.398223876953

> <r_mmod_Torsional_Energy-OPLS-2005>
273.620971679688

> <r_mmod_Improper_Torsional_Energy-OPLS-2005>
24.4547576904297

> <r_mmod_Van_der_Waal_Energy-OPLS-2005>
151.184188842773

> <r_mmod_Electrostatic_Energy-OPLS-2005>
-370.749938964844

> <r_mmod_Solvation_Energy-OPLS-2005>
-201.010528564453

> <b_mmod_Minimization_Converged-OPLS-2005>
0

> <r_mmod_RMS_Derivative-OPLS-2005>
7.73432207107544

$$$$
51
                    3D
 Structure written by MMmdl.
159167  0  0  1  0            999 V2000
  -30.7156  -14.3991   20.6370 C   0  0  0  0  0  0
  -30.4032  -12.2855   19.4011 C   0  0  0  0  0  0
  -29.4777  -12.5243   18.1908 C   0  0  0  0  0  0
  -28.0011  -12.3680   18.6022 C   0  0  0  0  0  0
  -27.6554  -13.1993   19.8666 C   0  0  2  0  0  0
  -28.6885  -12.9437   20.9855 C   0  0  0  0  0  0
  -25.2556  -13.8155   20.5596 C   0  0  0  0  0  0
  -24.1819  -13.0418   20.9126 C   0  0  0  0  0  0
  -24.6371  -11.6897   20.8688 C   0  0  0  0  0  0
  -23.9043  -10.4287   21.0368 C   0  0  0  0  0  0
  -24.3592   -9.4225   21.9156 C   0  0  0  0  0  0
  -23.6280   -8.2259   22.0734 C   0  0  0  0  0  0
  -22.4266   -8.0275   21.3530 C   0  0  0  0  0  0
  -21.9897   -9.0245   20.4638 C   0  0  0  0  0  0
  -22.7212  -10.2128   20.3038 C   0  0  0  0  0  0
  -21.6864   -6.0733   22.5285 C   0  0  0  0  0  0
  -21.4031   -6.5637   23.8218 C   0  0  0  0  0  0
  -21.3662   -5.6782   24.9171 C   0  0  0  0  0  0
  -21.6044   -4.3048   24.7216 C   0  0  0  0  0  0
  -21.8835   -3.8151   23.4340 C   0  0  0  0  0  0
  -21.9207   -4.6969   22.3398 C   0  0  0  0  0  0
  -22.7856  -13.5231   21.1825 C   0  0  0  0  0  0
  -22.1667   -4.2162   21.0970 F   0  0  0  0  0  0
  -21.5619   -3.4523   25.7722 F   0  0  0  0  0  0
  -30.0268  -13.2449   20.4464 N   0  0  0  0  0  0
  -26.2978  -12.9311   20.3295 N   0  0  0  0  0  0
  -25.9282  -11.6482   20.5690 N   0  0  0  0  0  0
  -22.0529  -12.8206   22.0411 N   0  0  0  0  0  0
  -25.4268  -15.1850   20.3957 N   0  0  0  0  0  0
  -31.8062  -14.6359   20.1089 O   0  0  0  0  0  0
  -21.6641   -6.8865   21.4239 O   0  0  0  0  0  0
  -22.3539  -14.5549   20.6717 O   0  0  0  0  0  0
  -24.6099  -31.8726   23.2119 C   0  0  0  0  0  0
  -25.9006  -32.4843   23.8413 C   0  0  1  0  0  0
  -27.2267  -27.4598   20.0994 C   0  0  0  0  0  0
  -25.5878  -33.8640   24.2344 N   0  0  0  0  0  0
  -23.3962  -30.4985   21.5513 C   0  0  2  0  0  0
  -24.8400  -28.9655   20.1181 C   0  0  0  0  0  0
  -22.7384  -29.4700   22.4989 C   0  0  0  0  0  0
  -18.0256  -28.1311   22.8554 C   0  0  0  0  0  0
  -24.1486  -36.7323   23.2636 C   0  0  0  0  0  0
  -25.9214  -30.8481   21.3586 C   0  0  0  0  0  0
  -25.9994  -29.4829   20.7094 C   0  0  0  0  0  0
  -27.1980  -28.7381   20.6949 C   0  0  0  0  0  0
  -26.0545  -26.9583   19.4905 C   0  0  0  0  0  0
  -24.8615  -27.7011   19.5050 C   0  0  0  0  0  0
  -23.6014  -29.8293   20.1655 C   0  0  0  0  0  0
  -25.4105  -36.3117   24.0340 C   0  0  1  0  0  0
  -20.5851  -28.3641   23.1246 C   0  0  2  0  0  0
  -20.6760  -26.9400   22.5279 C   0  0  0  0  0  0
  -19.5603  -26.6257   21.5260 C   0  0  0  0  0  0
  -18.1891  -26.7771   22.1886 C   0  0  0  0  0  0
  -19.1514  -28.8817   23.2864 C   0  0  0  0  0  0
  -18.9437  -30.1460   23.8801 C   0  0  0  0  0  0
  -17.6429  -30.6567   24.0460 C   0  0  0  0  0  0
  -25.9022  -34.9485   23.5144 C   0  0  0  0  0  0
  -16.5313  -29.9039   23.6269 C   0  0  0  0  0  0
  -16.7248  -28.6419   23.0371 C   0  0  0  0  0  0
  -26.4439  -31.6602   25.0725 C   0  0  0  0  0  0
  -25.3700  -31.3684   26.1461 C   0  0  0  0  0  0
  -27.0260  -30.3062   24.6054 C   0  0  0  0  0  0
  -27.6032  -32.4297   25.7481 C   0  0  0  0  0  0
  -27.5582  -37.1829   24.8476 C   0  0  0  0  0  0
  -21.4112  -29.3056   22.3717 N   0  0  0  0  0  0
  -26.4295  -37.3801   23.9414 N   0  0  0  0  0  0
  -24.6613  -31.0875   22.0996 N   0  0  0  0  0  0
  -23.4182  -28.8211   23.2992 O   0  0  0  0  0  0
  -28.3933  -26.7366   20.0991 O   0  0  0  0  0  0
  -26.5597  -34.8920   22.4703 O   0  0  0  0  0  0
  -23.5303  -32.1445   23.7556 O   0  0  0  0  0  0
  -27.9876  -19.8921   20.5442 C   0  0  0  0  0  0
  -30.1669  -18.8051   20.5246 C   0  0  0  0  0  0
  -28.3157  -17.7767   21.7218 C   0  0  0  0  0  0
  -29.3353  -19.8679   20.1202 C   0  0  0  0  0  0
  -27.4732  -18.8400   21.3354 C   0  0  0  0  0  0
  -29.6675  -17.7569   21.3243 C   0  0  0  0  0  0
  -29.9017  -20.8612   19.1993 C   0  0  0  0  0  0
  -29.9189  -22.2028   19.3009 C   0  0  0  0  0  0
  -29.4509  -24.5424   20.1149 C   0  0  0  0  0  0
  -26.0106  -18.8310   21.7406 C   0  0  0  0  0  0
  -30.5931  -16.6270   21.7527 C   0  0  0  0  0  0
  -29.3957  -23.0486   20.4534 C   0  0  0  0  0  0
  -28.2555  -25.3852   20.5552 C   0  0  0  0  0  0
  -30.0895  -15.3008   21.4010 N   0  0  0  0  0  0
  -30.4139  -25.0420   19.5205 O   0  0  0  0  0  0
  -31.4531  -12.3727   19.1138 H   0  0  0  0  0  0
  -30.2716  -11.2700   19.7800 H   0  0  0  0  0  0
  -29.7164  -11.8300   17.3827 H   0  0  0  0  0  0
  -29.6381  -13.5281   17.7945 H   0  0  0  0  0  0
  -27.8122  -11.3077   18.7862 H   0  0  0  0  0  0
  -27.3478  -12.6536   17.7769 H   0  0  0  0  0  0
  -27.7090  -14.2501   19.5772 H   0  0  0  0  0  0
  -28.6561  -11.8976   21.2935 H   0  0  0  0  0  0
  -28.4384  -13.5071   21.8850 H   0  0  0  0  0  0
  -25.2723   -9.5720   22.4736 H   0  0  0  0  0  0
  -24.0016   -7.4648   22.7425 H   0  0  0  0  0  0
  -21.0858   -8.8764   19.8901 H   0  0  0  0  0  0
  -22.3671  -10.9667   19.6164 H   0  0  0  0  0  0
  -21.2034   -7.6145   23.9718 H   0  0  0  0  0  0
  -21.1450   -6.0505   25.9066 H   0  0  0  0  0  0
  -22.0604   -2.7616   23.2836 H   0  0  0  0  0  0
  -22.4186  -11.9884   22.4768 H   0  0  0  0  0  0
  -21.1140  -13.1217   22.2603 H   0  0  0  0  0  0
  -24.6448  -15.8266   20.4556 H   0  0  0  0  0  0
  -26.2843  -15.6246   20.0843 H   0  0  0  0  0  0
  -26.7081  -32.5590   23.1188 H   0  0  0  0  0  0
  -25.0030  -33.9807   25.0492 H   0  0  0  0  0  0
  -22.6826  -31.3139   21.4134 H   0  0  0  0  0  0
  -23.3733  -35.9668   23.3304 H   0  0  0  0  0  0
  -24.3583  -36.8930   22.2046 H   0  0  0  0  0  0
  -23.7241  -37.6536   23.6632 H   0  0  0  0  0  0
  -26.0225  -31.6142   20.5890 H   0  0  0  0  0  0
  -26.8126  -30.9095   21.9710 H   0  0  0  0  0  0
  -28.0939  -29.1361   21.1497 H   0  0  0  0  0  0
  -26.0572  -26.0031   18.9890 H   0  0  0  0  0  0
  -23.9713  -27.3004   19.0360 H   0  0  0  0  0  0
  -23.7070  -30.6005   19.4013 H   0  0  0  0  0  0
  -22.7273  -29.2432   19.8738 H   0  0  0  0  0  0
  -25.1279  -36.1987   25.0834 H   0  0  0  0  0  0
  -20.9965  -28.3142   24.1349 H   0  0  0  0  0  0
  -20.5912  -26.2230   23.3467 H   0  0  0  0  0  0
  -21.6564  -26.7529   22.0872 H   0  0  0  0  0  0
  -19.6660  -25.6095   21.1449 H   0  0  0  0  0  0
  -19.6341  -27.2971   20.6680 H   0  0  0  0  0  0
  -17.4000  -26.6271   21.4505 H   0  0  0  0  0  0
  -18.0530  -26.0051   22.9474 H   0  0  0  0  0  0
  -19.7899  -30.7321   24.2129 H   0  0  0  0  0  0
  -17.4960  -31.6291   24.4971 H   0  0  0  0  0  0
  -15.5305  -30.2929   23.7547 H   0  0  0  0  0  0
  -15.8668  -28.0676   22.7127 H   0  0  0  0  0  0
  -24.5880  -30.7036   25.7768 H   0  0  0  0  0  0
  -24.8869  -32.2830   26.4912 H   0  0  0  0  0  0
  -25.8044  -30.8840   27.0217 H   0  0  0  0  0  0
  -26.2804  -29.6860   24.1076 H   0  0  0  0  0  0
  -27.4013  -29.7250   25.4484 H   0  0  0  0  0  0
  -27.8624  -30.4389   23.9190 H   0  0  0  0  0  0
  -27.2668  -33.3587   26.2080 H   0  0  0  0  0  0
  -28.3816  -32.6877   25.0291 H   0  0  0  0  0  0
  -28.0702  -31.8402   26.5376 H   0  0  0  0  0  0
  -28.2627  -38.0104   24.7520 H   0  0  0  0  0  0
  -28.1065  -36.2653   24.6312 H   0  0  0  0  0  0
  -27.2325  -37.1487   25.8888 H   0  0  0  0  0  0
  -20.9266  -29.8798   21.6952 H   0  0  0  0  0  0
  -26.0190  -38.2887   24.1400 H   0  0  0  0  0  0
  -27.3332  -20.6912   20.2219 H   0  0  0  0  0  0
  -31.1989  -18.7935   20.2029 H   0  0  0  0  0  0
  -27.9252  -16.9665   22.3188 H   0  0  0  0  0  0
  -30.3464  -20.4378   18.3105 H   0  0  0  0  0  0
  -30.3768  -22.7438   18.4841 H   0  0  0  0  0  0
  -25.7984  -19.6412   22.4370 H   0  0  0  0  0  0
  -25.7411  -17.8916   22.2269 H   0  0  0  0  0  0
  -25.3665  -18.9478   20.8670 H   0  0  0  0  0  0
  -30.7055  -16.6637   22.8355 H   0  0  0  0  0  0
  -31.5907  -16.7983   21.3482 H   0  0  0  0  0  0
  -30.0132  -22.8826   21.3360 H   0  0  0  0  0  0
  -28.3766  -22.7618   20.7030 H   0  0  0  0  0  0
  -27.3583  -24.8998   20.1764 H   0  0  0  0  0  0
  -28.1979  -25.3677   21.6429 H   0  0  0  0  0  0
  -29.1802  -15.0384   21.7503 H   0  0  0  0  0  0
  1 25  1  0  0  0
  1 30  2  0  0  0
  1 84  1  0  0  0
  2  3  1  0  0  0
  2 25  1  0  0  0
  2 86  1  0  0  0
  2 87  1  0  0  0
  3  4  1  0  0  0
  3 88  1  0  0  0
  3 89  1  0  0  0
  4  5  1  0  0  0
  4 90  1  0  0  0
  4 91  1  0  0  0
  5  6  1  0  0  0
  5 26  1  0  0  0
  5 92  1  0  0  0
  6 25  1  0  0  0
  6 93  1  0  0  0
  6 94  1  0  0  0
  7  8  2  0  0  0
  7 26  1  0  0  0
  7 29  1  0  0  0
  8  9  1  0  0  0
  8 22  1  0  0  0
  9 10  1  0  0  0
  9 27  2  0  0  0
 10 11  2  0  0  0
 10 15  1  0  0  0
 11 12  1  0  0  0
 11 95  1  0  0  0
 12 13  2  0  0  0
 12 96  1  0  0  0
 13 14  1  0  0  0
 13 31  1  0  0  0
 14 15  2  0  0  0
 14 97  1  0  0  0
 15 98  1  0  0  0
 16 17  2  0  0  0
 16 21  1  0  0  0
 16 31  1  0  0  0
 17 18  1  0  0  0
 17 99  1  0  0  0
 18 19  2  0  0  0
 18100  1  0  0  0
 19 20  1  0  0  0
 19 24  1  0  0  0
 20 21  2  0  0  0
 20101  1  0  0  0
 21 23  1  0  0  0
 22 28  1  0  0  0
 22 32  2  0  0  0
 26 27  1  0  0  0
 28102  1  0  0  0
 28103  1  0  0  0
 29104  1  0  0  0
 29105  1  0  0  0
 33 34  1  0  0  0
 33 66  1  0  0  0
 33 70  2  0  0  0
 34 36  1  0  0  0
 34 59  1  0  0  0
 34106  1  0  0  0
 35 44  2  0  0  0
 35 45  1  0  0  0
 35 68  1  0  0  0
 36 56  1  0  0  0
 36107  1  0  0  0
 37 39  1  0  0  0
 37 47  1  0  0  0
 37 66  1  0  0  0
 37108  1  0  0  0
 38 43  2  0  0  0
 38 46  1  0  0  0
 38 47  1  0  0  0
 39 64  1  0  0  0
 39 67  2  0  0  0
 40 52  1  0  0  0
 40 53  2  0  0  0
 40 58  1  0  0  0
 41109  1  0  0  0
 41110  1  0  0  0
 41111  1  0  0  0
 41 48  1  0  0  0
 42 43  1  0  0  0
 42 66  1  0  0  0
 42112  1  0  0  0
 42113  1  0  0  0
 43 44  1  0  0  0
 44114  1  0  0  0
 45 46  2  0  0  0
 45115  1  0  0  0
 46116  1  0  0  0
 47117  1  0  0  0
 47118  1  0  0  0
 48 56  1  0  0  0
 48 65  1  0  0  0
 48119  1  0  0  0
 49 50  1  0  0  0
 49 53  1  0  0  0
 49 64  1  0  0  0
 49120  1  0  0  0
 50 51  1  0  0  0
 50121  1  0  0  0
 50122  1  0  0  0
 51 52  1  0  0  0
 51123  1  0  0  0
 51124  1  0  0  0
 52125  1  0  0  0
 52126  1  0  0  0
 53 54  1  0  0  0
 54 55  2  0  0  0
 54127  1  0  0  0
 55 57  1  0  0  0
 55128  1  0  0  0
 56 69  2  0  0  0
 57 58  2  0  0  0
 57129  1  0  0  0
 58130  1  0  0  0
 59 60  1  0  0  0
 59 61  1  0  0  0
 59 62  1  0  0  0
 60131  1  0  0  0
 60132  1  0  0  0
 60133  1  0  0  0
 61134  1  0  0  0
 61135  1  0  0  0
 61136  1  0  0  0
 62137  1  0  0  0
 62138  1  0  0  0
 62139  1  0  0  0
 63 65  1  0  0  0
 63140  1  0  0  0
 63141  1  0  0  0
 63142  1  0  0  0
 64143  1  0  0  0
 65144  1  0  0  0
 68 83  1  0  0  0
 71 74  2  0  0  0
 71 75  1  0  0  0
 71145  1  0  0  0
 72 74  1  0  0  0
 72 76  2  0  0  0
 72146  1  0  0  0
 73 75  2  0  0  0
 73 76  1  0  0  0
 73147  1  0  0  0
 74 77  1  0  0  0
 75 80  1  0  0  0
 76 81  1  0  0  0
 77 78  2  0  0  0
 77148  1  0  0  0
 78 82  1  0  0  0
 78149  1  0  0  0
 79 82  1  0  0  0
 79 83  1  0  0  0
 79 85  2  0  0  0
 80150  1  0  0  0
 80151  1  0  0  0
 80152  1  0  0  0
 81 84  1  0  0  0
 81153  1  0  0  0
 81154  1  0  0  0
 82155  1  0  0  0
 82156  1  0  0  0
 83157  1  0  0  0
 83158  1  0  0  0
 84159  1  0  0  0
M  ISO  4   1 100  68 101  83 101  84 100
M  END
> <chiral flag>
0

> <version>
0

> <s_m_source_file>
/data/baiqing/PycharmProjects/Reinvent-master-3.2/result/LINK_invent/BTK/process_docking_weight1_custom_product_contain_oxygen_bond_distance_aromatic_linkinvent_7_9_3/rearranged_h_0127.sdf

> <i_m_source_file_index>
52

> <r_mmod_Potential_Energy-OPLS-2005>
-94.2053375244141

> <r_mmod_Stretch_Energy-OPLS-2005>
31.0196094512939

> <r_mmod_Bend_Energy-OPLS-2005>
88.4084854125977

> <r_mmod_Torsional_Energy-OPLS-2005>
235.144515991211

> <r_mmod_Improper_Torsional_Energy-OPLS-2005>
2.49042367935181

> <r_mmod_Van_der_Waal_Energy-OPLS-2005>
153.14485168457

> <r_mmod_Electrostatic_Energy-OPLS-2005>
-391.22119140625

> <r_mmod_Solvation_Energy-OPLS-2005>
-221.556930541992

> <b_mmod_Minimization_Converged-OPLS-2005>
0

> <r_mmod_RMS_Derivative-OPLS-2005>
3.68090343475342

$$$$
52
                    3D
 Structure written by MMmdl.
157165  0  0  1  0            999 V2000
  -30.6225  -14.6258   20.5060 C   0  0  0  0  0  0
  -30.4389  -12.3845   19.4496 C   0  0  0  0  0  0
  -29.5064  -12.5084   18.2233 C   0  0  0  0  0  0
  -28.0286  -12.3495   18.6345 C   0  0  0  0  0  0
  -27.6552  -13.2143   19.8677 C   0  0  2  0  0  0
  -28.6997  -13.0541   20.9957 C   0  0  0  0  0  0
  -25.2553  -13.8139   20.5651 C   0  0  0  0  0  0
  -24.1825  -13.0419   20.9191 C   0  0  0  0  0  0
  -24.6395  -11.6893   20.8753 C   0  0  0  0  0  0
  -23.9062  -10.4281   21.0419 C   0  0  0  0  0  0
  -24.3613   -9.4196   21.9194 C   0  0  0  0  0  0
  -23.6285   -8.2234   22.0760 C   0  0  0  0  0  0
  -22.4268   -8.0276   21.3547 C   0  0  0  0  0  0
  -21.9907   -9.0250   20.4651 C   0  0  0  0  0  0
  -22.7238  -10.2128   20.3063 C   0  0  0  0  0  0
  -21.6848   -6.0730   22.5279 C   0  0  0  0  0  0
  -21.4013   -6.5638   23.8211 C   0  0  0  0  0  0
  -21.3661   -5.6793   24.9174 C   0  0  0  0  0  0
  -21.6044   -4.3054   24.7228 C   0  0  0  0  0  0
  -21.8818   -3.8145   23.4349 C   0  0  0  0  0  0
  -21.9190   -4.6959   22.3403 C   0  0  0  0  0  0
  -22.7850  -13.5222   21.1852 C   0  0  0  0  0  0
  -22.1659   -4.2146   21.0980 F   0  0  0  0  0  0
  -21.5631   -3.4540   25.7741 F   0  0  0  0  0  0
  -30.0178  -13.3982   20.4369 N   0  0  0  0  0  0
  -26.2995  -12.9330   20.3337 N   0  0  0  0  0  0
  -25.9328  -11.6489   20.5783 N   0  0  0  0  0  0
  -22.0493  -12.8219   22.0413 N   0  0  0  0  0  0
  -25.4237  -15.1836   20.3974 N   0  0  0  0  0  0
  -31.7771  -14.7947   20.1022 O   0  0  0  0  0  0
  -21.6631   -6.8875   21.4241 O   0  0  0  0  0  0
  -22.3534  -14.5530   20.6703 O   0  0  0  0  0  0
  -24.6254  -31.8607   23.2042 C   0  0  0  0  0  0
  -25.9110  -32.4783   23.8363 C   0  0  1  0  0  0
  -27.2265  -27.3312   20.1113 C   0  0  0  0  0  0
  -25.5930  -33.8583   24.2292 N   0  0  0  0  0  0
  -23.4183  -30.4845   21.5466 C   0  0  2  0  0  0
  -24.8643  -28.9421   20.1115 C   0  0  0  0  0  0
  -22.7474  -29.4623   22.4943 C   0  0  0  0  0  0
  -18.0284  -28.1375   22.8480 C   0  0  0  0  0  0
  -24.1490  -36.7291   23.2639 C   0  0  0  0  0  0
  -25.9588  -30.7947   21.3739 C   0  0  0  0  0  0
  -26.0333  -29.4236   20.7144 C   0  0  0  0  0  0
  -27.2175  -28.6303   20.7040 C   0  0  0  0  0  0
  -26.0319  -26.8987   19.4883 C   0  0  0  0  0  0
  -24.8649  -27.6840   19.4907 C   0  0  0  0  0  0
  -23.6324  -29.8216   20.1607 C   0  0  0  0  0  0
  -25.4113  -36.3086   24.0329 C   0  0  1  0  0  0
  -20.5884  -28.3681   23.1279 C   0  0  2  0  0  0
  -20.6779  -26.9404   22.5406 C   0  0  0  0  0  0
  -19.5757  -26.6377   21.5204 C   0  0  0  0  0  0
  -18.1934  -26.7919   22.1614 C   0  0  0  0  0  0
  -19.1536  -28.8842   23.2876 C   0  0  0  0  0  0
  -18.9465  -30.1446   23.8892 C   0  0  0  0  0  0
  -17.6467  -30.6583   24.0552 C   0  0  0  0  0  0
  -25.9048  -34.9454   23.5110 C   0  0  0  0  0  0
  -16.5355  -29.9081   23.6326 C   0  0  0  0  0  0
  -16.7273  -28.6496   23.0347 C   0  0  0  0  0  0
  -26.4500  -31.6586   25.0725 C   0  0  0  0  0  0
  -25.3741  -31.3713   26.1456 C   0  0  0  0  0  0
  -27.0341  -30.3015   24.6163 C   0  0  0  0  0  0
  -27.6063  -32.4320   25.7494 C   0  0  0  0  0  0
  -27.5580  -37.1804   24.8466 C   0  0  0  0  0  0
  -21.4188  -29.3036   22.3679 N   0  0  0  0  0  0
  -26.4294  -37.3776   23.9406 N   0  0  0  0  0  0
  -24.6862  -31.0629   22.0987 N   0  0  0  0  0  0
  -23.4200  -28.8165   23.3022 O   0  0  0  0  0  0
  -28.3527  -26.4963   20.1551 O   0  0  0  0  0  0
  -26.5613  -34.8919   22.4674 O   0  0  0  0  0  0
  -23.5420  -32.1399   23.7376 O   0  0  0  0  0  0
  -30.8000  -19.1900   19.7537 C   0  0  0  0  0  0
  -30.8171  -17.7768   19.9286 C   0  0  0  0  0  0
  -28.8841  -19.3657   21.1795 C   0  0  0  0  0  0
  -29.8415  -20.0315   20.3764 C   0  0  0  0  0  0
  -28.8755  -17.9440   21.3599 C   0  0  0  0  0  0
  -29.8616  -17.1089   20.7387 C   0  0  0  0  0  0
  -29.9110  -21.5389   20.1832 C   0  0  0  0  0  0
  -29.0858  -22.5520   20.5951 C   0  0  0  0  0  0
  -26.4026  -17.9499   22.1034 C   0  0  0  0  0  0
  -27.8029  -17.3371   22.2690 C   0  0  0  0  0  0
  -29.3497  -24.0889   20.4268 C   0  0  0  0  0  0
  -28.1402  -25.0374   20.0541 C   0  0  0  0  0  0
  -29.8218  -15.6550   20.9232 N   0  0  0  0  0  0
  -31.4798  -12.5104   19.1462 H   0  0  0  0  0  0
  -30.3739  -11.3855   19.8839 H   0  0  0  0  0  0
  -29.7675  -11.7596   17.4743 H   0  0  0  0  0  0
  -29.6507  -13.4796   17.7475 H   0  0  0  0  0  0
  -27.8596  -11.2957   18.8590 H   0  0  0  0  0  0
  -27.3750  -12.5885   17.7947 H   0  0  0  0  0  0
  -27.6781  -14.2524   19.5361 H   0  0  0  0  0  0
  -28.7083  -12.0272   21.3646 H   0  0  0  0  0  0
  -28.4449  -13.6725   21.8575 H   0  0  0  0  0  0
  -25.2758   -9.5668   22.4770 H   0  0  0  0  0  0
  -23.9992   -7.4625   22.7479 H   0  0  0  0  0  0
  -21.0839   -8.8768   19.8957 H   0  0  0  0  0  0
  -22.3698  -10.9668   19.6173 H   0  0  0  0  0  0
  -21.2007   -7.6147   23.9712 H   0  0  0  0  0  0
  -21.1486   -6.0527   25.9077 H   0  0  0  0  0  0
  -22.0598   -2.7607   23.2851 H   0  0  0  0  0  0
  -22.4095  -11.9865   22.4784 H   0  0  0  0  0  0
  -21.1120  -13.1260   22.2631 H   0  0  0  0  0  0
  -24.6559  -15.8353   20.5100 H   0  0  0  0  0  0
  -26.2676  -15.6225   20.0545 H   0  0  0  0  0  0
  -26.7178  -32.5456   23.1110 H   0  0  0  0  0  0
  -25.0093  -33.9723   25.0449 H   0  0  0  0  0  0
  -22.7113  -31.3046   21.4051 H   0  0  0  0  0  0
  -23.3753  -35.9625   23.3307 H   0  0  0  0  0  0
  -24.3582  -36.8902   22.2053 H   0  0  0  0  0  0
  -23.7241  -37.6494   23.6656 H   0  0  0  0  0  0
  -26.0899  -31.5606   20.6080 H   0  0  0  0  0  0
  -26.8393  -30.8409   22.0033 H   0  0  0  0  0  0
  -28.1153  -28.9957   21.1829 H   0  0  0  0  0  0
  -25.9708  -25.9386   18.9983 H   0  0  0  0  0  0
  -23.9685  -27.3082   19.0159 H   0  0  0  0  0  0
  -23.7534  -30.5994   19.4057 H   0  0  0  0  0  0
  -22.7525  -29.2512   19.8583 H   0  0  0  0  0  0
  -25.1295  -36.1939   25.0821 H   0  0  0  0  0  0
  -20.9968  -28.3256   24.1402 H   0  0  0  0  0  0
  -20.5681  -26.2288   23.3603 H   0  0  0  0  0  0
  -21.6651  -26.7442   22.1197 H   0  0  0  0  0  0
  -19.6921  -25.6289   21.1233 H   0  0  0  0  0  0
  -19.6696  -27.3189   20.6734 H   0  0  0  0  0  0
  -17.4203  -26.6653   21.4016 H   0  0  0  0  0  0
  -18.0341  -26.0063   22.9013 H   0  0  0  0  0  0
  -19.7945  -30.7253   24.2265 H   0  0  0  0  0  0
  -17.5026  -31.6265   24.5156 H   0  0  0  0  0  0
  -15.5355  -30.2983   23.7658 H   0  0  0  0  0  0
  -15.8669  -28.0818   22.7066 H   0  0  0  0  0  0
  -24.5923  -30.7051   25.7790 H   0  0  0  0  0  0
  -24.8922  -32.2876   26.4884 H   0  0  0  0  0  0
  -25.8075  -30.8898   27.0228 H   0  0  0  0  0  0
  -26.2906  -29.6762   24.1210 H   0  0  0  0  0  0
  -27.4073  -29.7272   25.4649 H   0  0  0  0  0  0
  -27.8763  -30.4307   23.9359 H   0  0  0  0  0  0
  -27.2682  -33.3627   26.2060 H   0  0  0  0  0  0
  -28.3885  -32.6863   25.0330 H   0  0  0  0  0  0
  -28.0720  -31.8449   26.5419 H   0  0  0  0  0  0
  -28.2602  -38.0099   24.7517 H   0  0  0  0  0  0
  -28.1073  -36.2630   24.6295 H   0  0  0  0  0  0
  -27.2296  -37.1455   25.8869 H   0  0  0  0  0  0
  -20.9365  -29.8763   21.6892 H   0  0  0  0  0  0
  -26.0176  -38.2849   24.1412 H   0  0  0  0  0  0
  -31.5585  -19.6338   19.1238 H   0  0  0  0  0  0
  -31.5842  -17.2147   19.4168 H   0  0  0  0  0  0
  -28.1477  -19.9720   21.6834 H   0  0  0  0  0  0
  -30.7950  -21.8572   19.6479 H   0  0  0  0  0  0
  -28.1822  -22.2977   21.1305 H   0  0  0  0  0  0
  -25.6718  -17.3941   22.6911 H   0  0  0  0  0  0
  -26.0787  -17.9203   21.0633 H   0  0  0  0  0  0
  -26.3584  -18.9841   22.4418 H   0  0  0  0  0  0
  -28.1299  -17.4503   23.3031 H   0  0  0  0  0  0
  -27.7059  -16.2653   22.1034 H   0  0  0  0  0  0
  -30.1545  -24.2326   19.7049 H   0  0  0  0  0  0
  -29.7476  -24.4303   21.3831 H   0  0  0  0  0  0
  -27.3017  -24.7703   20.6997 H   0  0  0  0  0  0
  -27.8395  -24.7966   19.0343 H   0  0  0  0  0  0
  -28.9641  -15.3184   21.3304 H   0  0  0  0  0  0
  1 25  1  0  0  0
  1 30  2  0  0  0
  1 83  1  0  0  0
  2  3  1  0  0  0
  2 25  1  0  0  0
  2 84  1  0  0  0
  2 85  1  0  0  0
  3  4  1  0  0  0
  3 86  1  0  0  0
  3 87  1  0  0  0
  4  5  1  0  0  0
  4 88  1  0  0  0
  4 89  1  0  0  0
  5  6  1  0  0  0
  5 26  1  0  0  0
  5 90  1  0  0  0
  6 25  1  0  0  0
  6 91  1  0  0  0
  6 92  1  0  0  0
  7  8  2  0  0  0
  7 26  1  0  0  0
  7 29  1  0  0  0
  8  9  1  0  0  0
  8 22  1  0  0  0
  9 10  1  0  0  0
  9 27  2  0  0  0
 10 11  2  0  0  0
 10 15  1  0  0  0
 11 12  1  0  0  0
 11 93  1  0  0  0
 12 13  2  0  0  0
 12 94  1  0  0  0
 13 14  1  0  0  0
 13 31  1  0  0  0
 14 15  2  0  0  0
 14 95  1  0  0  0
 15 96  1  0  0  0
 16 17  2  0  0  0
 16 21  1  0  0  0
 16 31  1  0  0  0
 17 18  1  0  0  0
 17 97  1  0  0  0
 18 19  2  0  0  0
 18 98  1  0  0  0
 19 20  1  0  0  0
 19 24  1  0  0  0
 20 21  2  0  0  0
 20 99  1  0  0  0
 21 23  1  0  0  0
 22 28  1  0  0  0
 22 32  2  0  0  0
 26 27  1  0  0  0
 28100  1  0  0  0
 28101  1  0  0  0
 29102  1  0  0  0
 29103  1  0  0  0
 33 34  1  0  0  0
 33 66  1  0  0  0
 33 70  2  0  0  0
 34 36  1  0  0  0
 34 59  1  0  0  0
 34104  1  0  0  0
 35 44  2  0  0  0
 35 45  1  0  0  0
 35 68  1  0  0  0
 36 56  1  0  0  0
 36105  1  0  0  0
 37 39  1  0  0  0
 37 47  1  0  0  0
 37 66  1  0  0  0
 37106  1  0  0  0
 38 43  2  0  0  0
 38 46  1  0  0  0
 38 47  1  0  0  0
 39 64  1  0  0  0
 39 67  2  0  0  0
 40 52  1  0  0  0
 40 53  2  0  0  0
 40 58  1  0  0  0
 41107  1  0  0  0
 41108  1  0  0  0
 41109  1  0  0  0
 41 48  1  0  0  0
 42 43  1  0  0  0
 42 66  1  0  0  0
 42110  1  0  0  0
 42111  1  0  0  0
 43 44  1  0  0  0
 44112  1  0  0  0
 45 46  2  0  0  0
 45113  1  0  0  0
 46114  1  0  0  0
 47115  1  0  0  0
 47116  1  0  0  0
 48 56  1  0  0  0
 48 65  1  0  0  0
 48117  1  0  0  0
 49 50  1  0  0  0
 49 53  1  0  0  0
 49 64  1  0  0  0
 49118  1  0  0  0
 50 51  1  0  0  0
 50119  1  0  0  0
 50120  1  0  0  0
 51 52  1  0  0  0
 51121  1  0  0  0
 51122  1  0  0  0
 52123  1  0  0  0
 52124  1  0  0  0
 53 54  1  0  0  0
 54 55  2  0  0  0
 54125  1  0  0  0
 55 57  1  0  0  0
 55126  1  0  0  0
 56 69  2  0  0  0
 57 58  2  0  0  0
 57127  1  0  0  0
 58128  1  0  0  0
 59 60  1  0  0  0
 59 61  1  0  0  0
 59 62  1  0  0  0
 60129  1  0  0  0
 60130  1  0  0  0
 60131  1  0  0  0
 61132  1  0  0  0
 61133  1  0  0  0
 61134  1  0  0  0
 62135  1  0  0  0
 62136  1  0  0  0
 62137  1  0  0  0
 63 65  1  0  0  0
 63138  1  0  0  0
 63139  1  0  0  0
 63140  1  0  0  0
 64141  1  0  0  0
 65142  1  0  0  0
 68 82  1  0  0  0
 71 72  2  0  0  0
 71 74  1  0  0  0
 71143  1  0  0  0
 72 76  1  0  0  0
 72144  1  0  0  0
 73 74  2  0  0  0
 73 75  1  0  0  0
 73145  1  0  0  0
 74 77  1  0  0  0
 75 76  2  0  0  0
 75 80  1  0  0  0
 76 83  1  0  0  0
 77 78  2  0  0  0
 77146  1  0  0  0
 78 81  1  0  0  0
 78147  1  0  0  0
 79 80  1  0  0  0
 79148  1  0  0  0
 79149  1  0  0  0
 79150  1  0  0  0
 80151  1  0  0  0
 80152  1  0  0  0
 81 82  1  0  0  0
 81153  1  0  0  0
 81154  1  0  0  0
 82155  1  0  0  0
 82156  1  0  0  0
 83157  1  0  0  0
M  ISO  4   1 100  68 101  82 101  83 100
M  END
> <chiral flag>
0

> <version>
0

> <s_m_source_file>
/data/baiqing/PycharmProjects/Reinvent-master-3.2/result/LINK_invent/BTK/process_docking_weight1_custom_product_contain_oxygen_bond_distance_aromatic_linkinvent_7_9_3/rearranged_h_0127.sdf

> <i_m_source_file_index>
53

> <r_mmod_Potential_Energy-OPLS-2005>
30.2192878723145

> <r_mmod_Stretch_Energy-OPLS-2005>
74.0124740600586

> <r_mmod_Bend_Energy-OPLS-2005>
129.244430541992

> <r_mmod_Torsional_Energy-OPLS-2005>
210.864852905273

> <r_mmod_Improper_Torsional_Energy-OPLS-2005>
3.91222167015076

> <r_mmod_Van_der_Waal_Energy-OPLS-2005>
146.496002197266

> <r_mmod_Electrostatic_Energy-OPLS-2005>
-378.587463378906

> <r_mmod_Solvation_Energy-OPLS-2005>
-198.742797851562

> <b_mmod_Minimization_Converged-OPLS-2005>
0

> <r_mmod_RMS_Derivative-OPLS-2005>
0.732030928134918

$$$$
53
                    3D
 Structure written by MMmdl.
153161  0  0  1  0            999 V2000
  -30.5600  -14.7499   20.5342 C   0  0  0  0  0  0
  -30.4637  -12.4746   19.4594 C   0  0  0  0  0  0
  -29.5245  -12.5424   18.2313 C   0  0  0  0  0  0
  -28.0436  -12.3602   18.6322 C   0  0  0  0  0  0
  -27.6565  -13.2174   19.8663 C   0  0  2  0  0  0
  -28.7017  -13.0363   20.9844 C   0  0  0  0  0  0
  -25.2578  -13.8164   20.5672 C   0  0  0  0  0  0
  -24.1832  -13.0427   20.9159 C   0  0  0  0  0  0
  -24.6399  -11.6900   20.8704 C   0  0  0  0  0  0
  -23.9066  -10.4285   21.0389 C   0  0  0  0  0  0
  -24.3618   -9.4205   21.9177 C   0  0  0  0  0  0
  -23.6291   -8.2242   22.0754 C   0  0  0  0  0  0
  -22.4268   -8.0275   21.3546 C   0  0  0  0  0  0
  -21.9898   -9.0249   20.4651 C   0  0  0  0  0  0
  -22.7228  -10.2124   20.3048 C   0  0  0  0  0  0
  -21.6852   -6.0725   22.5281 C   0  0  0  0  0  0
  -21.4014   -6.5636   23.8210 C   0  0  0  0  0  0
  -21.3662   -5.6784   24.9175 C   0  0  0  0  0  0
  -21.6040   -4.3048   24.7220 C   0  0  0  0  0  0
  -21.8818   -3.8139   23.4346 C   0  0  0  0  0  0
  -21.9193   -4.6956   22.3402 C   0  0  0  0  0  0
  -22.7854  -13.5233   21.1823 C   0  0  0  0  0  0
  -22.1658   -4.2137   21.0978 F   0  0  0  0  0  0
  -21.5633   -3.4531   25.7743 F   0  0  0  0  0  0
  -30.0034  -13.4818   20.4465 N   0  0  0  0  0  0
  -26.2999  -12.9336   20.3299 N   0  0  0  0  0  0
  -25.9330  -11.6493   20.5712 N   0  0  0  0  0  0
  -22.0496  -12.8246   22.0395 N   0  0  0  0  0  0
  -25.4317  -15.1887   20.4129 N   0  0  0  0  0  0
  -31.6922  -14.9412   20.0760 O   0  0  0  0  0  0
  -21.6629   -6.8869   21.4240 O   0  0  0  0  0  0
  -22.3534  -14.5535   20.6664 O   0  0  0  0  0  0
  -24.6332  -31.8548   23.2010 C   0  0  0  0  0  0
  -25.9159  -32.4747   23.8350 C   0  0  1  0  0  0
  -27.2192  -27.2523   20.1113 C   0  0  0  0  0  0
  -25.5952  -33.8554   24.2252 N   0  0  0  0  0  0
  -23.4288  -30.4807   21.5446 C   0  0  2  0  0  0
  -24.8761  -28.9340   20.1099 C   0  0  0  0  0  0
  -22.7514  -29.4592   22.4901 C   0  0  0  0  0  0
  -18.0296  -28.1407   22.8469 C   0  0  0  0  0  0
  -24.1496  -36.7286   23.2633 C   0  0  0  0  0  0
  -25.9788  -30.7606   21.3891 C   0  0  0  0  0  0
  -26.0500  -29.3857   20.7260 C   0  0  0  0  0  0
  -27.2229  -28.5572   20.7198 C   0  0  0  0  0  0
  -26.0196  -26.8902   19.4507 C   0  0  0  0  0  0
  -24.8676  -27.6939   19.4618 C   0  0  0  0  0  0
  -23.6485  -29.8230   20.1587 C   0  0  0  0  0  0
  -25.4118  -36.3052   24.0313 C   0  0  1  0  0  0
  -20.5901  -28.3711   23.1264 C   0  0  2  0  0  0
  -20.6783  -26.9425   22.5404 C   0  0  0  0  0  0
  -19.5760  -26.6390   21.5205 C   0  0  0  0  0  0
  -18.1942  -26.7947   22.1616 C   0  0  0  0  0  0
  -19.1551  -28.8874   23.2865 C   0  0  0  0  0  0
  -18.9468  -30.1477   23.8874 C   0  0  0  0  0  0
  -17.6465  -30.6598   24.0559 C   0  0  0  0  0  0
  -25.9065  -34.9431   23.5081 C   0  0  0  0  0  0
  -16.5356  -29.9089   23.6339 C   0  0  0  0  0  0
  -16.7282  -28.6520   23.0338 C   0  0  0  0  0  0
  -26.4520  -31.6583   25.0754 C   0  0  0  0  0  0
  -25.3723  -31.3757   26.1460 C   0  0  0  0  0  0
  -27.0353  -30.2976   24.6288 C   0  0  0  0  0  0
  -27.6073  -32.4322   25.7524 C   0  0  0  0  0  0
  -27.5580  -37.1789   24.8451 C   0  0  0  0  0  0
  -21.4217  -29.3054   22.3651 N   0  0  0  0  0  0
  -26.4288  -37.3753   23.9398 N   0  0  0  0  0  0
  -24.6987  -31.0508   22.0997 N   0  0  0  0  0  0
  -23.4212  -28.8121   23.2998 O   0  0  0  0  0  0
  -28.3049  -26.3328   20.1441 O   0  0  0  0  0  0
  -26.5631  -34.8898   22.4648 O   0  0  0  0  0  0
  -23.5486  -32.1390   23.7284 O   0  0  0  0  0  0
  -29.2647  -19.7621   20.7212 C   0  0  0  0  0  0
  -31.0300  -18.5862   19.5472 C   0  0  0  0  0  0
  -30.7227  -21.0336   19.2840 C   0  0  0  0  0  0
  -29.9517  -18.5079   20.4485 C   0  0  0  0  0  0
  -29.6113  -21.0510   20.1545 C   0  0  0  0  0  0
  -31.4093  -19.8294   18.9769 C   0  0  0  0  0  0
  -29.5116  -17.1985   21.1194 C   0  0  0  0  0  0
  -28.8223  -22.3580   20.4157 C   0  0  0  0  0  0
  -29.7063  -15.8164   21.1789 C   0  0  0  0  0  0
  -29.0058  -23.6845   20.0373 C   0  0  0  0  0  0
  -32.5713  -19.8740   18.0049 C   0  0  0  0  0  0
  -27.9639  -24.8650   20.2669 C   0  0  0  0  0  0
  -31.4953  -12.6472   19.1516 H   0  0  0  0  0  0
  -30.4542  -11.4751   19.8977 H   0  0  0  0  0  0
  -29.8078  -11.7869   17.4977 H   0  0  0  0  0  0
  -29.6484  -13.5073   17.7381 H   0  0  0  0  0  0
  -27.8864  -11.3049   18.8552 H   0  0  0  0  0  0
  -27.3908  -12.5927   17.7894 H   0  0  0  0  0  0
  -27.6808  -14.2595   19.5480 H   0  0  0  0  0  0
  -28.7544  -11.9837   21.2686 H   0  0  0  0  0  0
  -28.3990  -13.5344   21.9013 H   0  0  0  0  0  0
  -25.2766   -9.5673   22.4741 H   0  0  0  0  0  0
  -23.9995   -7.4630   22.7478 H   0  0  0  0  0  0
  -21.0828   -8.8771   19.8975 H   0  0  0  0  0  0
  -22.3692  -10.9658   19.6146 H   0  0  0  0  0  0
  -21.2004   -7.6138   23.9709 H   0  0  0  0  0  0
  -21.1488   -6.0515   25.9073 H   0  0  0  0  0  0
  -22.0599   -2.7599   23.2847 H   0  0  0  0  0  0
  -22.4099  -11.9915   22.4819 H   0  0  0  0  0  0
  -21.1114  -13.1299   22.2596 H   0  0  0  0  0  0
  -24.6737  -15.8517   20.5331 H   0  0  0  0  0  0
  -26.2973  -15.6268   20.1231 H   0  0  0  0  0  0
  -26.7217  -32.5369   23.1081 H   0  0  0  0  0  0
  -25.0072  -33.9697   25.0377 H   0  0  0  0  0  0
  -22.7261  -31.3041   21.4033 H   0  0  0  0  0  0
  -23.3745  -35.9631   23.3282 H   0  0  0  0  0  0
  -24.3576  -36.8932   22.2049 H   0  0  0  0  0  0
  -23.7275  -37.6489   23.6682 H   0  0  0  0  0  0
  -26.1284  -31.5241   20.6244 H   0  0  0  0  0  0
  -26.8516  -30.7989   22.0286 H   0  0  0  0  0  0
  -28.1180  -28.8976   21.2212 H   0  0  0  0  0  0
  -25.9223  -25.9751   18.8912 H   0  0  0  0  0  0
  -23.9769  -27.3526   18.9517 H   0  0  0  0  0  0
  -23.7737  -30.6040   19.4084 H   0  0  0  0  0  0
  -22.7657  -29.2627   19.8471 H   0  0  0  0  0  0
  -25.1303  -36.1878   25.0805 H   0  0  0  0  0  0
  -20.9991  -28.3286   24.1386 H   0  0  0  0  0  0
  -20.5682  -26.2315   23.3609 H   0  0  0  0  0  0
  -21.6652  -26.7448   22.1200 H   0  0  0  0  0  0
  -19.6919  -25.6294   21.1253 H   0  0  0  0  0  0
  -19.6711  -27.3183   20.6724 H   0  0  0  0  0  0
  -17.4210  -26.6682   21.4024 H   0  0  0  0  0  0
  -18.0352  -26.0106   22.9033 H   0  0  0  0  0  0
  -19.7940  -30.7311   24.2229 H   0  0  0  0  0  0
  -17.5013  -31.6270   24.5175 H   0  0  0  0  0  0
  -15.5358  -30.2977   23.7684 H   0  0  0  0  0  0
  -15.8685  -28.0839   22.7044 H   0  0  0  0  0  0
  -24.5914  -30.7088   25.7790 H   0  0  0  0  0  0
  -24.8905  -32.2937   26.4840 H   0  0  0  0  0  0
  -25.8030  -30.8971   27.0264 H   0  0  0  0  0  0
  -26.2944  -29.6726   24.1288 H   0  0  0  0  0  0
  -27.3954  -29.7252   25.4850 H   0  0  0  0  0  0
  -27.8877  -30.4206   23.9596 H   0  0  0  0  0  0
  -27.2687  -33.3623   26.2103 H   0  0  0  0  0  0
  -28.3898  -32.6875   25.0364 H   0  0  0  0  0  0
  -28.0736  -31.8444   26.5443 H   0  0  0  0  0  0
  -28.2575  -38.0108   24.7498 H   0  0  0  0  0  0
  -28.1101  -36.2630   24.6268 H   0  0  0  0  0  0
  -27.2301  -37.1427   25.8858 H   0  0  0  0  0  0
  -20.9402  -29.8786   21.6860 H   0  0  0  0  0  0
  -26.0155  -38.2820   24.1411 H   0  0  0  0  0  0
  -28.4185  -19.7351   21.3939 H   0  0  0  0  0  0
  -31.5781  -17.6875   19.2986 H   0  0  0  0  0  0
  -31.0432  -21.9574   18.8222 H   0  0  0  0  0  0
  -28.7453  -17.4592   21.8363 H   0  0  0  0  0  0
  -27.9144  -22.1794   20.9763 H   0  0  0  0  0  0
  -29.0540  -15.4246   21.9362 H   0  0  0  0  0  0
  -29.8913  -23.9529   19.4792 H   0  0  0  0  0  0
  -32.8034  -18.8816   17.6169 H   0  0  0  0  0  0
  -33.4627  -20.2664   18.4949 H   0  0  0  0  0  0
  -32.3385  -20.5154   17.1539 H   0  0  0  0  0  0
  -27.4729  -24.7065   21.2289 H   0  0  0  0  0  0
  -27.2236  -24.6026   19.5194 H   0  0  0  0  0  0
  1 25  1  0  0  0
  1 30  2  0  0  0
  1 79  1  0  0  0
  2  3  1  0  0  0
  2 25  1  0  0  0
  2 83  1  0  0  0
  2 84  1  0  0  0
  3  4  1  0  0  0
  3 85  1  0  0  0
  3 86  1  0  0  0
  4  5  1  0  0  0
  4 87  1  0  0  0
  4 88  1  0  0  0
  5  6  1  0  0  0
  5 26  1  0  0  0
  5 89  1  0  0  0
  6 25  1  0  0  0
  6 90  1  0  0  0
  6 91  1  0  0  0
  7  8  2  0  0  0
  7 26  1  0  0  0
  7 29  1  0  0  0
  8  9  1  0  0  0
  8 22  1  0  0  0
  9 10  1  0  0  0
  9 27  2  0  0  0
 10 11  2  0  0  0
 10 15  1  0  0  0
 11 12  1  0  0  0
 11 92  1  0  0  0
 12 13  2  0  0  0
 12 93  1  0  0  0
 13 14  1  0  0  0
 13 31  1  0  0  0
 14 15  2  0  0  0
 14 94  1  0  0  0
 15 95  1  0  0  0
 16 17  2  0  0  0
 16 21  1  0  0  0
 16 31  1  0  0  0
 17 18  1  0  0  0
 17 96  1  0  0  0
 18 19  2  0  0  0
 18 97  1  0  0  0
 19 20  1  0  0  0
 19 24  1  0  0  0
 20 21  2  0  0  0
 20 98  1  0  0  0
 21 23  1  0  0  0
 22 28  1  0  0  0
 22 32  2  0  0  0
 26 27  1  0  0  0
 28 99  1  0  0  0
 28100  1  0  0  0
 29101  1  0  0  0
 29102  1  0  0  0
 33 34  1  0  0  0
 33 66  1  0  0  0
 33 70  2  0  0  0
 34 36  1  0  0  0
 34 59  1  0  0  0
 34103  1  0  0  0
 35 44  2  0  0  0
 35 45  1  0  0  0
 35 68  1  0  0  0
 36 56  1  0  0  0
 36104  1  0  0  0
 37 39  1  0  0  0
 37 47  1  0  0  0
 37 66  1  0  0  0
 37105  1  0  0  0
 38 43  2  0  0  0
 38 46  1  0  0  0
 38 47  1  0  0  0
 39 64  1  0  0  0
 39 67  2  0  0  0
 40 52  1  0  0  0
 40 53  2  0  0  0
 40 58  1  0  0  0
 41106  1  0  0  0
 41107  1  0  0  0
 41108  1  0  0  0
 41 48  1  0  0  0
 42 43  1  0  0  0
 42 66  1  0  0  0
 42109  1  0  0  0
 42110  1  0  0  0
 43 44  1  0  0  0
 44111  1  0  0  0
 45 46  2  0  0  0
 45112  1  0  0  0
 46113  1  0  0  0
 47114  1  0  0  0
 47115  1  0  0  0
 48 56  1  0  0  0
 48 65  1  0  0  0
 48116  1  0  0  0
 49 50  1  0  0  0
 49 53  1  0  0  0
 49 64  1  0  0  0
 49117  1  0  0  0
 50 51  1  0  0  0
 50118  1  0  0  0
 50119  1  0  0  0
 51 52  1  0  0  0
 51120  1  0  0  0
 51121  1  0  0  0
 52122  1  0  0  0
 52123  1  0  0  0
 53 54  1  0  0  0
 54 55  2  0  0  0
 54124  1  0  0  0
 55 57  1  0  0  0
 55125  1  0  0  0
 56 69  2  0  0  0
 57 58  2  0  0  0
 57126  1  0  0  0
 58127  1  0  0  0
 59 60  1  0  0  0
 59 61  1  0  0  0
 59 62  1  0  0  0
 60128  1  0  0  0
 60129  1  0  0  0
 60130  1  0  0  0
 61131  1  0  0  0
 61132  1  0  0  0
 61133  1  0  0  0
 62134  1  0  0  0
 62135  1  0  0  0
 62136  1  0  0  0
 63 65  1  0  0  0
 63137  1  0  0  0
 63138  1  0  0  0
 63139  1  0  0  0
 64140  1  0  0  0
 65141  1  0  0  0
 68 82  1  0  0  0
 71 74  2  0  0  0
 71 75  1  0  0  0
 71142  1  0  0  0
 72 74  1  0  0  0
 72 76  2  0  0  0
 72143  1  0  0  0
 73 75  2  0  0  0
 73 76  1  0  0  0
 73144  1  0  0  0
 74 77  1  0  0  0
 75 78  1  0  0  0
 76 81  1  0  0  0
 77 79  2  0  0  0
 77145  1  0  0  0
 78 80  2  0  0  0
 78146  1  0  0  0
 79147  1  0  0  0
 80 82  1  0  0  0
 80148  1  0  0  0
 81149  1  0  0  0
 81150  1  0  0  0
 81151  1  0  0  0
 82152  1  0  0  0
 82153  1  0  0  0
M  ISO  4   1 100  68 101  79 100  82 101
M  END
> <chiral flag>
0

> <version>
0

> <s_m_source_file>
/data/baiqing/PycharmProjects/Reinvent-master-3.2/result/LINK_invent/BTK/process_docking_weight1_custom_product_contain_oxygen_bond_distance_aromatic_linkinvent_7_9_3/rearranged_h_0127.sdf

> <i_m_source_file_index>
54

> <r_mmod_Potential_Energy-OPLS-2005>
265.260925292969

> <r_mmod_Stretch_Energy-OPLS-2005>
123.661682128906

> <r_mmod_Bend_Energy-OPLS-2005>
235.446502685547

> <r_mmod_Torsional_Energy-OPLS-2005>
188.68229675293

> <r_mmod_Improper_Torsional_Energy-OPLS-2005>
2.91993618011475

> <r_mmod_Van_der_Waal_Energy-OPLS-2005>
148.09001159668

> <r_mmod_Electrostatic_Energy-OPLS-2005>
-324.823181152344

> <r_mmod_Solvation_Energy-OPLS-2005>
-195.74821472168

> <b_mmod_Minimization_Converged-OPLS-2005>
0

> <r_mmod_RMS_Derivative-OPLS-2005>
1.9961324930191

$$$$
54
                    3D
 Structure written by MMmdl.
158166  0  0  1  0            999 V2000
  -29.5862  -15.8719   20.9550 C   0  0  0  0  0  0
  -30.2914  -13.3902   19.7960 C   0  0  0  0  0  0
  -29.5599  -12.8362   18.5056 C   0  0  0  0  0  0
  -28.1497  -12.3257   18.8346 C   0  0  0  0  0  0
  -27.5298  -13.2817   19.8702 C   0  0  2  0  0  0
  -28.3925  -13.5219   21.1163 C   0  0  0  0  0  0
  -25.1889  -13.8185   20.5626 C   0  0  0  0  0  0
  -24.1345  -13.0361   20.9212 C   0  0  0  0  0  0
  -24.6041  -11.6863   20.8704 C   0  0  0  0  0  0
  -23.8856  -10.4239   21.0408 C   0  0  0  0  0  0
  -24.3503   -9.4202   21.9177 C   0  0  0  0  0  0
  -23.6239   -8.2210   22.0748 C   0  0  0  0  0  0
  -22.4224   -8.0215   21.3542 C   0  0  0  0  0  0
  -21.9803   -9.0148   20.4639 C   0  0  0  0  0  0
  -22.7061  -10.2051   20.3046 C   0  0  0  0  0  0
  -21.6832   -6.0697   22.5296 C   0  0  0  0  0  0
  -21.4002   -6.5622   23.8224 C   0  0  0  0  0  0
  -21.3666   -5.6785   24.9193 C   0  0  0  0  0  0
  -21.6041   -4.3045   24.7246 C   0  0  0  0  0  0
  -21.8824   -3.8123   23.4374 C   0  0  0  0  0  0
  -21.9192   -4.6931   22.3425 C   0  0  0  0  0  0
  -22.7441  -13.5149   21.1960 C   0  0  0  0  0  0
  -22.1660   -4.2124   21.0998 F   0  0  0  0  0  0
  -21.5630   -3.4536   25.7761 F   0  0  0  0  0  0
  -29.4542  -14.4030   20.6747 N   0  0  0  0  0  0
  -26.2110  -12.9363   20.2937 N   0  0  0  0  0  0
  -25.8899  -11.6492   20.5524 N   0  0  0  0  0  0
  -22.0157  -12.8132   22.0555 N   0  0  0  0  0  0
  -25.3677  -15.1935   20.4202 N   0  0  0  0  0  0
  -30.7826  -16.0139   20.5471 O   0  0  0  0  0  0
  -21.6618   -6.8807   21.4243 O   0  0  0  0  0  0
  -22.3179  -14.5495   20.6841 O   0  0  0  0  0  0
  -24.8566  -31.8615   23.2715 C   0  0  0  0  0  0
  -26.0602  -32.5382   23.9118 C   0  0  1  0  0  0
  -25.3408  -27.4836   20.4052 C   0  0  0  0  0  0
  -25.6706  -33.9011   24.2744 N   0  0  0  0  0  0
  -24.1745  -29.9229   21.9730 C   0  0  2  0  0  0
  -25.2558  -29.7540   19.5659 C   0  0  0  0  0  0
  -24.1853  -28.2349   22.6641 C   0  0  0  0  0  0
  -18.2936  -27.7966   22.7761 C   0  0  0  0  0  0
  -24.1525  -36.7386   23.2531 C   0  0  0  0  0  0
  -26.3699  -30.7720   21.5707 C   0  0  0  0  0  0
  -26.2588  -29.6590   20.5288 C   0  0  0  0  0  0
  -26.4590  -28.3191   20.8759 C   0  0  0  0  0  0
  -25.6126  -27.3508   19.0750 C   0  0  0  0  0  0
  -25.1466  -28.6203   18.6499 C   0  0  0  0  0  0
  -24.0543  -30.3273   20.3231 C   0  0  0  0  0  0
  -25.4134  -36.3279   24.0275 C   0  0  1  0  0  0
  -21.0607  -26.9937   22.6445 C   0  0  2  0  0  0
  -20.5858  -26.0529   21.6743 C   0  0  0  0  0  0
  -19.2536  -26.3768   21.0653 C   0  0  0  0  0  0
  -18.1456  -26.4897   22.0945 C   0  0  0  0  0  0
  -19.6642  -28.2187   23.0041 C   0  0  0  0  0  0
  -19.5198  -29.6103   23.5347 C   0  0  0  0  0  0
  -18.2865  -30.3300   23.8353 C   0  0  0  0  0  0
  -25.9174  -34.9686   23.5127 C   0  0  0  0  0  0
  -17.0252  -29.7651   23.5934 C   0  0  0  0  0  0
  -17.0571  -28.4847   23.0431 C   0  0  0  0  0  0
  -26.5343  -31.7096   25.1602 C   0  0  0  0  0  0
  -25.4099  -31.3897   26.1757 C   0  0  0  0  0  0
  -27.2022  -30.3728   24.7592 C   0  0  0  0  0  0
  -27.6333  -32.5085   25.8795 C   0  0  0  0  0  0
  -27.5584  -37.1928   24.8450 C   0  0  0  0  0  0
  -23.0173  -27.0141   22.4026 N   0  0  0  0  0  0
  -26.4306  -37.3957   23.9390 N   0  0  0  0  0  0
  -25.1467  -30.8679   22.3908 N   0  0  0  0  0  0
  -24.8518  -28.2231   23.6463 O   0  0  0  0  0  0
  -23.7705  -27.9008   20.3924 O   0  0  0  0  0  0
  -26.5426  -34.9038   22.4510 O   0  0  0  0  0  0
  -23.7162  -32.1594   23.6836 O   0  0  0  0  0  0
  -22.9149  -23.8353   23.4007 C   0  0  0  0  0  0
  -23.0490  -22.5079   22.8523 C   0  0  0  0  0  0
  -25.2503  -23.6106   23.6554 C   0  0  0  0  0  0
  -23.9386  -24.6916   23.8942 C   0  0  0  0  0  0
  -24.2136  -21.6725   22.6661 C   0  0  0  0  0  0
  -25.5449  -22.0385   23.0221 C   0  0  0  0  0  0
  -23.9684  -20.2858   22.0977 C   0  0  0  0  0  0
  -23.1915  -26.4596   24.6798 C   0  0  0  0  0  0
  -28.5009  -17.3768   21.8518 C   0  0  0  0  0  0
  -22.2297  -28.4451   24.0095 C   0  0  0  0  0  0
  -27.3372  -19.1942   21.8879 C   0  0  0  0  0  0
  -22.1280  -28.8417   21.4949 C   0  0  0  0  0  0
  -26.7627  -20.8213   22.7758 O   0  0  0  0  0  0
  -31.2223  -13.8597   19.4824 H   0  0  0  0  0  0
  -30.6256  -12.5540   20.4088 H   0  0  0  0  0  0
  -30.1473  -12.0524   18.0229 H   0  0  0  0  0  0
  -29.4799  -13.6497   17.7825 H   0  0  0  0  0  0
  -28.2217  -11.3206   19.2557 H   0  0  0  0  0  0
  -27.5368  -12.2515   17.9353 H   0  0  0  0  0  0
  -27.4319  -14.2288   19.3368 H   0  0  0  0  0  0
  -28.7368  -12.5920   21.5728 H   0  0  0  0  0  0
  -27.8241  -14.0406   21.8898 H   0  0  0  0  0  0
  -25.2643   -9.5756   22.4736 H   0  0  0  0  0  0
  -23.9992   -7.4620   22.7459 H   0  0  0  0  0  0
  -21.0749   -8.8606   19.8940 H   0  0  0  0  0  0
  -22.3478  -10.9571   19.6158 H   0  0  0  0  0  0
  -21.1982   -7.6130   23.9716 H   0  0  0  0  0  0
  -21.1483   -6.0521   25.9095 H   0  0  0  0  0  0
  -22.0591   -2.7582   23.2883 H   0  0  0  0  0  0
  -22.3810  -11.9789   22.4906 H   0  0  0  0  0  0
  -21.0790  -13.1150   22.2839 H   0  0  0  0  0  0
  -24.5986  -15.8461   20.5260 H   0  0  0  0  0  0
  -26.2070  -15.6210   20.0499 H   0  0  0  0  0  0
  -26.8988  -32.5970   23.2183 H   0  0  0  0  0  0
  -25.1296  -34.0167   25.1185 H   0  0  0  0  0  0
  -23.3334  -30.3598   22.4891 H   0  0  0  0  0  0
  -23.3837  -35.9667   23.3181 H   0  0  0  0  0  0
  -24.3665  -36.8960   22.1945 H   0  0  0  0  0  0
  -23.7212  -37.6583   23.6502 H   0  0  0  0  0  0
  -26.5452  -31.7229   21.0617 H   0  0  0  0  0  0
  -27.2554  -30.5699   22.1645 H   0  0  0  0  0  0
  -27.0133  -28.0587   21.7679 H   0  0  0  0  0  0
  -25.1989  -26.5345   18.4974 H   0  0  0  0  0  0
  -24.4660  -28.6556   17.8109 H   0  0  0  0  0  0
  -24.0968  -31.4144   20.2064 H   0  0  0  0  0  0
  -23.1691  -30.0848   19.7384 H   0  0  0  0  0  0
  -25.1259  -36.2161   25.0754 H   0  0  0  0  0  0
  -20.9430  -26.4003   23.5539 H   0  0  0  0  0  0
  -20.5332  -25.0458   22.0878 H   0  0  0  0  0  0
  -21.3111  -25.9927   20.8621 H   0  0  0  0  0  0
  -18.9978  -25.5621   20.3877 H   0  0  0  0  0  0
  -19.2964  -27.2752   20.4463 H   0  0  0  0  0  0
  -17.1802  -26.4244   21.5886 H   0  0  0  0  0  0
  -18.1764  -25.6706   22.8152 H   0  0  0  0  0  0
  -20.4172  -30.1864   23.7051 H   0  0  0  0  0  0
  -18.3455  -31.3349   24.2298 H   0  0  0  0  0  0
  -16.0991  -30.2831   23.7950 H   0  0  0  0  0  0
  -16.1127  -28.0125   22.8103 H   0  0  0  0  0  0
  -24.6781  -30.6835   25.7812 H   0  0  0  0  0  0
  -24.8771  -32.2902   26.4810 H   0  0  0  0  0  0
  -25.8174  -30.9389   27.0818 H   0  0  0  0  0  0
  -26.5591  -29.7075   24.2074 H   0  0  0  0  0  0
  -27.5113  -29.8158   25.6454 H   0  0  0  0  0  0
  -28.1068  -30.5339   24.1729 H   0  0  0  0  0  0
  -27.2487  -33.4333   26.3128 H   0  0  0  0  0  0
  -28.4466  -32.7786   25.2036 H   0  0  0  0  0  0
  -28.0693  -31.9408   26.7016 H   0  0  0  0  0  0
  -28.2589  -38.0250   24.7596 H   0  0  0  0  0  0
  -28.1124  -36.2797   24.6221 H   0  0  0  0  0  0
  -27.2280  -37.1474   25.8842 H   0  0  0  0  0  0
  -23.3894  -26.1183   22.6880 H   0  0  0  0  0  0
  -26.0187  -38.3023   24.1449 H   0  0  0  0  0  0
  -21.9040  -24.1965   23.4822 H   0  0  0  0  0  0
  -22.1109  -22.0643   22.5532 H   0  0  0  0  0  0
  -26.1728  -24.0281   24.0348 H   0  0  0  0  0  0
  -22.9102  -20.0257   22.1267 H   0  0  0  0  0  0
  -24.4934  -19.5349   22.6868 H   0  0  0  0  0  0
  -24.3036  -20.2275   21.0616 H   0  0  0  0  0  0
  -23.9848  -26.7616   25.3648 H   0  0  0  0  0  0
  -22.4523  -26.0809   25.3885 H   0  0  0  0  0  0
  -27.9153  -16.7547   22.5294 H   0  0  0  0  0  0
  -29.3288  -17.7234   22.4713 H   0  0  0  0  0  0
  -22.7681  -29.2776   24.4790 H   0  0  0  0  0  0
  -21.3583  -28.5422   24.6479 H   0  0  0  0  0  0
  -26.3554  -18.7892   21.6495 H   0  0  0  0  0  0
  -27.6342  -19.6252   20.9327 H   0  0  0  0  0  0
  -21.8275  -29.8701   21.2869 H   0  0  0  0  0  0
  -21.2693  -28.4756   20.9305 H   0  0  0  0  0  0
  1 25  1  0  0  0
  1 30  2  0  0  0
  1 79  1  0  0  0
  2  3  1  0  0  0
  2 25  1  0  0  0
  2 84  1  0  0  0
  2 85  1  0  0  0
  3  4  1  0  0  0
  3 86  1  0  0  0
  3 87  1  0  0  0
  4  5  1  0  0  0
  4 88  1  0  0  0
  4 89  1  0  0  0
  5  6  1  0  0  0
  5 26  1  0  0  0
  5 90  1  0  0  0
  6 25  1  0  0  0
  6 91  1  0  0  0
  6 92  1  0  0  0
  7  8  2  0  0  0
  7 26  1  0  0  0
  7 29  1  0  0  0
  8  9  1  0  0  0
  8 22  1  0  0  0
  9 10  1  0  0  0
  9 27  2  0  0  0
 10 11  2  0  0  0
 10 15  1  0  0  0
 11 12  1  0  0  0
 11 93  1  0  0  0
 12 13  2  0  0  0
 12 94  1  0  0  0
 13 14  1  0  0  0
 13 31  1  0  0  0
 14 15  2  0  0  0
 14 95  1  0  0  0
 15 96  1  0  0  0
 16 17  2  0  0  0
 16 21  1  0  0  0
 16 31  1  0  0  0
 17 18  1  0  0  0
 17 97  1  0  0  0
 18 19  2  0  0  0
 18 98  1  0  0  0
 19 20  1  0  0  0
 19 24  1  0  0  0
 20 21  2  0  0  0
 20 99  1  0  0  0
 21 23  1  0  0  0
 22 28  1  0  0  0
 22 32  2  0  0  0
 26 27  1  0  0  0
 28100  1  0  0  0
 28101  1  0  0  0
 29102  1  0  0  0
 29103  1  0  0  0
 33 34  1  0  0  0
 33 66  1  0  0  0
 33 70  2  0  0  0
 34 36  1  0  0  0
 34 59  1  0  0  0
 34104  1  0  0  0
 35 44  2  0  0  0
 35 45  1  0  0  0
 35 68  1  0  0  0
 36 56  1  0  0  0
 36105  1  0  0  0
 37 39  1  0  0  0
 37 47  1  0  0  0
 37 66  1  0  0  0
 37106  1  0  0  0
 38 43  2  0  0  0
 38 46  1  0  0  0
 38 47  1  0  0  0
 39 64  1  0  0  0
 39 67  2  0  0  0
 40 52  1  0  0  0
 40 53  2  0  0  0
 40 58  1  0  0  0
 41107  1  0  0  0
 41108  1  0  0  0
 41109  1  0  0  0
 41 48  1  0  0  0
 42 43  1  0  0  0
 42 66  1  0  0  0
 42110  1  0  0  0
 42111  1  0  0  0
 43 44  1  0  0  0
 44112  1  0  0  0
 45 46  2  0  0  0
 45113  1  0  0  0
 46114  1  0  0  0
 47115  1  0  0  0
 47116  1  0  0  0
 48 56  1  0  0  0
 48 65  1  0  0  0
 48117  1  0  0  0
 49 50  1  0  0  0
 49 53  1  0  0  0
 49 64  1  0  0  0
 49118  1  0  0  0
 50 51  1  0  0  0
 50119  1  0  0  0
 50120  1  0  0  0
 51 52  1  0  0  0
 51121  1  0  0  0
 51122  1  0  0  0
 52123  1  0  0  0
 52124  1  0  0  0
 53 54  1  0  0  0
 54 55  2  0  0  0
 54125  1  0  0  0
 55 57  1  0  0  0
 55126  1  0  0  0
 56 69  2  0  0  0
 57 58  2  0  0  0
 57127  1  0  0  0
 58128  1  0  0  0
 59 60  1  0  0  0
 59 61  1  0  0  0
 59 62  1  0  0  0
 60129  1  0  0  0
 60130  1  0  0  0
 60131  1  0  0  0
 61132  1  0  0  0
 61133  1  0  0  0
 61134  1  0  0  0
 62135  1  0  0  0
 62136  1  0  0  0
 62137  1  0  0  0
 63 65  1  0  0  0
 63138  1  0  0  0
 63139  1  0  0  0
 63140  1  0  0  0
 64141  1  0  0  0
 65142  1  0  0  0
 68 82  1  0  0  0
 71 72  2  0  0  0
 71 74  1  0  0  0
 71143  1  0  0  0
 72 75  1  0  0  0
 72144  1  0  0  0
 73 74  2  0  0  0
 73 76  1  0  0  0
 73145  1  0  0  0
 74 78  1  0  0  0
 75 76  2  0  0  0
 75 77  1  0  0  0
 76 83  1  0  0  0
 77146  1  0  0  0
 77147  1  0  0  0
 77148  1  0  0  0
 78 80  1  0  0  0
 78149  1  0  0  0
 78150  1  0  0  0
 79 81  1  0  0  0
 79151  1  0  0  0
 79152  1  0  0  0
 80 82  1  0  0  0
 80153  1  0  0  0
 80154  1  0  0  0
 81 83  1  0  0  0
 81155  1  0  0  0
 81156  1  0  0  0
 82157  1  0  0  0
 82158  1  0  0  0
M  ISO  4   1 100  68 101  79 100  82 101
M  END
> <chiral flag>
0

> <version>
0

> <s_m_source_file>
/data/baiqing/PycharmProjects/Reinvent-master-3.2/result/LINK_invent/BTK/process_docking_weight1_custom_product_contain_oxygen_bond_distance_aromatic_linkinvent_7_9_3/rearranged_h_0127.sdf

> <i_m_source_file_index>
55

> <r_mmod_Potential_Energy-OPLS-2005>
16600.265625

> <r_mmod_Stretch_Energy-OPLS-2005>
6281.2685546875

> <r_mmod_Bend_Energy-OPLS-2005>
1589.12463378906

> <r_mmod_Torsional_Energy-OPLS-2005>
599.75537109375

> <r_mmod_Improper_Torsional_Energy-OPLS-2005>
92.7472076416016

> <r_mmod_Van_der_Waal_Energy-OPLS-2005>
2013.99169921875

> <r_mmod_Electrostatic_Energy-OPLS-2005>
-339.197418212891

> <r_mmod_Solvation_Energy-OPLS-2005>
-182.430648803711

> <b_mmod_Minimization_Converged-OPLS-2005>
0

> <r_mmod_RMS_Derivative-OPLS-2005>
5.80317544937134

$$$$
55
                    3D
 Structure written by MMmdl.
158166  0  0  1  0            999 V2000
  -30.6362  -14.7589   20.4635 C   0  0  0  0  0  0
  -30.4164  -12.4544   19.5179 C   0  0  0  0  0  0
  -29.5194  -12.5183   18.2626 C   0  0  0  0  0  0
  -28.0401  -12.3548   18.6551 C   0  0  0  0  0  0
  -27.6411  -13.2484   19.8607 C   0  0  2  0  0  0
  -28.6756  -13.2011   21.0075 C   0  0  0  0  0  0
  -25.2480  -13.8245   20.5716 C   0  0  0  0  0  0
  -24.1781  -13.0470   20.9194 C   0  0  0  0  0  0
  -24.6386  -11.6950   20.8739 C   0  0  0  0  0  0
  -23.9068  -10.4315   21.0398 C   0  0  0  0  0  0
  -24.3620   -9.4231   21.9174 C   0  0  0  0  0  0
  -23.6299   -8.2265   22.0751 C   0  0  0  0  0  0
  -22.4277   -8.0293   21.3553 C   0  0  0  0  0  0
  -21.9910   -9.0263   20.4653 C   0  0  0  0  0  0
  -22.7233  -10.2145   20.3056 C   0  0  0  0  0  0
  -21.6863   -6.0738   22.5276 C   0  0  0  0  0  0
  -21.4025   -6.5642   23.8207 C   0  0  0  0  0  0
  -21.3661   -5.6792   24.9165 C   0  0  0  0  0  0
  -21.6041   -4.3053   24.7217 C   0  0  0  0  0  0
  -21.8817   -3.8148   23.4337 C   0  0  0  0  0  0
  -21.9196   -4.6965   22.3395 C   0  0  0  0  0  0
  -22.7792  -13.5234   21.1837 C   0  0  0  0  0  0
  -22.1663   -4.2151   21.0972 F   0  0  0  0  0  0
  -21.5625   -3.4536   25.7730 F   0  0  0  0  0  0
  -29.9859  -13.5381   20.4418 N   0  0  0  0  0  0
  -26.2924  -12.9485   20.3314 N   0  0  0  0  0  0
  -25.9328  -11.6609   20.5755 N   0  0  0  0  0  0
  -22.0435  -12.8252   22.0407 N   0  0  0  0  0  0
  -25.4173  -15.1975   20.4173 N   0  0  0  0  0  0
  -31.7774  -14.8072   19.9958 O   0  0  0  0  0  0
  -21.6653   -6.8881   21.4241 O   0  0  0  0  0  0
  -22.3468  -14.5524   20.6652 O   0  0  0  0  0  0
  -24.6309  -31.8512   23.1944 C   0  0  0  0  0  0
  -25.9145  -32.4713   23.8297 C   0  0  1  0  0  0
  -27.2210  -27.2474   20.1299 C   0  0  0  0  0  0
  -25.5950  -33.8517   24.2234 N   0  0  0  0  0  0
  -23.4285  -30.4707   21.5353 C   0  0  2  0  0  0
  -24.8773  -28.9118   20.0967 C   0  0  0  0  0  0
  -22.7492  -29.4584   22.4883 C   0  0  0  0  0  0
  -18.0300  -28.1376   22.8486 C   0  0  0  0  0  0
  -24.1498  -36.7248   23.2642 C   0  0  0  0  0  0
  -25.9734  -30.7544   21.3818 C   0  0  0  0  0  0
  -26.0416  -29.3785   20.7164 C   0  0  0  0  0  0
  -27.2093  -28.5543   20.7273 C   0  0  0  0  0  0
  -26.0435  -26.8468   19.4681 C   0  0  0  0  0  0
  -24.8849  -27.6566   19.4599 C   0  0  0  0  0  0
  -23.6456  -29.7978   20.1510 C   0  0  0  0  0  0
  -25.4130  -36.3037   24.0328 C   0  0  1  0  0  0
  -20.5901  -28.3690   23.1253 C   0  0  2  0  0  0
  -20.6783  -26.9407   22.5393 C   0  0  0  0  0  0
  -19.5762  -26.6377   21.5196 C   0  0  0  0  0  0
  -18.1945  -26.7922   22.1611 C   0  0  0  0  0  0
  -19.1550  -28.8854   23.2863 C   0  0  0  0  0  0
  -18.9471  -30.1461   23.8873 C   0  0  0  0  0  0
  -17.6467  -30.6579   24.0559 C   0  0  0  0  0  0
  -25.9073  -34.9409   23.5084 C   0  0  0  0  0  0
  -16.5361  -29.9069   23.6339 C   0  0  0  0  0  0
  -16.7283  -28.6486   23.0360 C   0  0  0  0  0  0
  -26.4507  -31.6544   25.0699 C   0  0  0  0  0  0
  -25.3718  -31.3705   26.1411 C   0  0  0  0  0  0
  -27.0387  -30.2952   24.6241 C   0  0  0  0  0  0
  -27.6057  -32.4285   25.7467 C   0  0  0  0  0  0
  -27.5584  -37.1785   24.8468 C   0  0  0  0  0  0
  -21.4200  -29.3029   22.3626 N   0  0  0  0  0  0
  -26.4297  -37.3740   23.9406 N   0  0  0  0  0  0
  -24.6955  -31.0463   22.0916 N   0  0  0  0  0  0
  -23.4184  -28.8154   23.3012 O   0  0  0  0  0  0
  -28.3145  -26.3693   20.2905 O   0  0  0  0  0  0
  -26.5629  -34.8897   22.4647 O   0  0  0  0  0  0
  -23.5466  -32.1355   23.7241 O   0  0  0  0  0  0
  -30.9467  -19.0880   21.6566 C   0  0  0  0  0  0
  -28.9922  -19.8224   20.4311 C   0  0  0  0  0  0
  -29.8739  -18.7206   20.8233 C   0  0  0  0  0  0
  -31.2000  -20.4220   22.0374 C   0  0  0  0  0  0
  -29.1835  -21.2165   20.8554 C   0  0  0  0  0  0
  -30.3408  -21.4792   21.6374 C   0  0  0  0  0  0
  -29.9802  -17.2463   20.3322 C   0  0  0  0  0  0
  -30.0164  -16.0289   21.0142 C   0  0  0  0  0  0
  -32.4255  -20.6925   22.8979 C   0  0  0  0  0  0
  -30.6294  -22.8992   22.1203 C   0  0  0  0  0  0
  -28.0949  -22.3969   20.7601 C   0  0  0  0  0  0
  -27.9495  -23.5840   19.6545 C   0  0  0  0  0  0
  -28.5832  -25.0879   19.5551 C   0  0  0  0  0  0
  -31.4674  -12.5317   19.2349 H   0  0  0  0  0  0
  -30.3221  -11.4838   20.0080 H   0  0  0  0  0  0
  -29.8075  -11.7430   17.5515 H   0  0  0  0  0  0
  -29.6660  -13.4739   17.7565 H   0  0  0  0  0  0
  -27.8804  -11.3047   18.9014 H   0  0  0  0  0  0
  -27.3977  -12.5687   17.8003 H   0  0  0  0  0  0
  -27.6342  -14.2713   19.4834 H   0  0  0  0  0  0
  -28.7010  -12.2129   21.4689 H   0  0  0  0  0  0
  -28.4015  -13.9013   21.7975 H   0  0  0  0  0  0
  -25.2761   -9.5723   22.4744 H   0  0  0  0  0  0
  -24.0015   -7.4666   22.7473 H   0  0  0  0  0  0
  -21.0838   -8.8774   19.8967 H   0  0  0  0  0  0
  -22.3672  -10.9681   19.6169 H   0  0  0  0  0  0
  -21.2030   -7.6150   23.9714 H   0  0  0  0  0  0
  -21.1482   -6.0520   25.9068 H   0  0  0  0  0  0
  -22.0595   -2.7611   23.2832 H   0  0  0  0  0  0
  -22.4049  -11.9952   22.4868 H   0  0  0  0  0  0
  -21.1043  -13.1283   22.2566 H   0  0  0  0  0  0
  -24.6564  -15.8566   20.5440 H   0  0  0  0  0  0
  -26.2817  -15.6407   20.1320 H   0  0  0  0  0  0
  -26.7198  -32.5338   23.1016 H   0  0  0  0  0  0
  -25.0122  -33.9646   25.0395 H   0  0  0  0  0  0
  -22.7252  -31.2932   21.3864 H   0  0  0  0  0  0
  -23.3772  -35.9567   23.3296 H   0  0  0  0  0  0
  -24.3589  -36.8876   22.2059 H   0  0  0  0  0  0
  -23.7247  -37.6444   23.6670 H   0  0  0  0  0  0
  -26.1333  -31.5219   20.6236 H   0  0  0  0  0  0
  -26.8413  -30.7861   22.0290 H   0  0  0  0  0  0
  -28.0950  -28.8988   21.2416 H   0  0  0  0  0  0
  -25.9932  -25.8775   18.9952 H   0  0  0  0  0  0
  -23.9930  -27.2946   18.9678 H   0  0  0  0  0  0
  -23.7602  -30.5715   19.3909 H   0  0  0  0  0  0
  -22.7651  -29.2250   19.8543 H   0  0  0  0  0  0
  -25.1321  -36.1871   25.0820 H   0  0  0  0  0  0
  -20.9998  -28.3277   24.1371 H   0  0  0  0  0  0
  -20.5672  -26.2306   23.3602 H   0  0  0  0  0  0
  -21.6654  -26.7426   22.1195 H   0  0  0  0  0  0
  -19.6922  -25.6282   21.1243 H   0  0  0  0  0  0
  -19.6704  -27.3168   20.6714 H   0  0  0  0  0  0
  -17.4214  -26.6674   21.4014 H   0  0  0  0  0  0
  -18.0353  -26.0053   22.8996 H   0  0  0  0  0  0
  -19.7947  -30.7290   24.2216 H   0  0  0  0  0  0
  -17.5021  -31.6263   24.5151 H   0  0  0  0  0  0
  -15.5360  -30.2960   23.7679 H   0  0  0  0  0  0
  -15.8687  -28.0797   22.7086 H   0  0  0  0  0  0
  -24.5879  -30.7084   25.7713 H   0  0  0  0  0  0
  -24.8935  -32.2883   26.4840 H   0  0  0  0  0  0
  -25.8017  -30.8851   27.0182 H   0  0  0  0  0  0
  -26.3007  -29.6661   24.1257 H   0  0  0  0  0  0
  -27.4036  -29.7257   25.4803 H   0  0  0  0  0  0
  -27.8890  -30.4214   23.9537 H   0  0  0  0  0  0
  -27.2668  -33.3589   26.2036 H   0  0  0  0  0  0
  -28.3869  -32.6839   25.0290 H   0  0  0  0  0  0
  -28.0724  -31.8417   26.5390 H   0  0  0  0  0  0
  -28.2593  -38.0090   24.7517 H   0  0  0  0  0  0
  -28.1098  -36.2622   24.6299 H   0  0  0  0  0  0
  -27.2301  -37.1426   25.8871 H   0  0  0  0  0  0
  -20.9388  -29.8704   21.6788 H   0  0  0  0  0  0
  -26.0175  -38.2814   24.1387 H   0  0  0  0  0  0
  -31.6438  -18.3207   21.9668 H   0  0  0  0  0  0
  -28.1367  -19.5886   19.8128 H   0  0  0  0  0  0
  -30.2359  -17.1872   19.2829 H   0  0  0  0  0  0
  -29.7111  -16.0128   22.0501 H   0  0  0  0  0  0
  -32.8784  -19.7694   23.2602 H   0  0  0  0  0  0
  -32.1670  -21.2921   23.7710 H   0  0  0  0  0  0
  -33.1823  -21.2260   22.3213 H   0  0  0  0  0  0
  -31.6924  -23.0926   22.2534 H   0  0  0  0  0  0
  -30.1293  -23.0809   23.0719 H   0  0  0  0  0  0
  -30.2864  -23.6456   21.4082 H   0  0  0  0  0  0
  -28.0064  -22.8585   21.7441 H   0  0  0  0  0  0
  -27.1615  -21.8386   20.6793 H   0  0  0  0  0  0
  -26.8756  -23.7591   19.5917 H   0  0  0  0  0  0
  -28.1847  -23.1004   18.7063 H   0  0  0  0  0  0
  -28.4320  -25.3751   18.5135 H   0  0  0  0  0  0
  -29.6634  -24.9626   19.6198 H   0  0  0  0  0  0
  1 25  1  0  0  0
  1 30  2  0  0  0
  1 78  1  0  0  0
  2  3  1  0  0  0
  2 25  1  0  0  0
  2 84  1  0  0  0
  2 85  1  0  0  0
  3  4  1  0  0  0
  3 86  1  0  0  0
  3 87  1  0  0  0
  4  5  1  0  0  0
  4 88  1  0  0  0
  4 89  1  0  0  0
  5  6  1  0  0  0
  5 26  1  0  0  0
  5 90  1  0  0  0
  6 25  1  0  0  0
  6 91  1  0  0  0
  6 92  1  0  0  0
  7  8  2  0  0  0
  7 26  1  0  0  0
  7 29  1  0  0  0
  8  9  1  0  0  0
  8 22  1  0  0  0
  9 10  1  0  0  0
  9 27  2  0  0  0
 10 11  2  0  0  0
 10 15  1  0  0  0
 11 12  1  0  0  0
 11 93  1  0  0  0
 12 13  2  0  0  0
 12 94  1  0  0  0
 13 14  1  0  0  0
 13 31  1  0  0  0
 14 15  2  0  0  0
 14 95  1  0  0  0
 15 96  1  0  0  0
 16 17  2  0  0  0
 16 21  1  0  0  0
 16 31  1  0  0  0
 17 18  1  0  0  0
 17 97  1  0  0  0
 18 19  2  0  0  0
 18 98  1  0  0  0
 19 20  1  0  0  0
 19 24  1  0  0  0
 20 21  2  0  0  0
 20 99  1  0  0  0
 21 23  1  0  0  0
 22 28  1  0  0  0
 22 32  2  0  0  0
 26 27  1  0  0  0
 28100  1  0  0  0
 28101  1  0  0  0
 29102  1  0  0  0
 29103  1  0  0  0
 33 34  1  0  0  0
 33 66  1  0  0  0
 33 70  2  0  0  0
 34 36  1  0  0  0
 34 59  1  0  0  0
 34104  1  0  0  0
 35 44  2  0  0  0
 35 45  1  0  0  0
 35 68  1  0  0  0
 36 56  1  0  0  0
 36105  1  0  0  0
 37 39  1  0  0  0
 37 47  1  0  0  0
 37 66  1  0  0  0
 37106  1  0  0  0
 38 43  2  0  0  0
 38 46  1  0  0  0
 38 47  1  0  0  0
 39 64  1  0  0  0
 39 67  2  0  0  0
 40 52  1  0  0  0
 40 53  2  0  0  0
 40 58  1  0  0  0
 41107  1  0  0  0
 41108  1  0  0  0
 41109  1  0  0  0
 41 48  1  0  0  0
 42 43  1  0  0  0
 42 66  1  0  0  0
 42110  1  0  0  0
 42111  1  0  0  0
 43 44  1  0  0  0
 44112  1  0  0  0
 45 46  2  0  0  0
 45113  1  0  0  0
 46114  1  0  0  0
 47115  1  0  0  0
 47116  1  0  0  0
 48 56  1  0  0  0
 48 65  1  0  0  0
 48117  1  0  0  0
 49 50  1  0  0  0
 49 53  1  0  0  0
 49 64  1  0  0  0
 49118  1  0  0  0
 50 51  1  0  0  0
 50119  1  0  0  0
 50120  1  0  0  0
 51 52  1  0  0  0
 51121  1  0  0  0
 51122  1  0  0  0
 52123  1  0  0  0
 52124  1  0  0  0
 53 54  1  0  0  0
 54 55  2  0  0  0
 54125  1  0  0  0
 55 57  1  0  0  0
 55126  1  0  0  0
 56 69  2  0  0  0
 57 58  2  0  0  0
 57127  1  0  0  0
 58128  1  0  0  0
 59 60  1  0  0  0
 59 61  1  0  0  0
 59 62  1  0  0  0
 60129  1  0  0  0
 60130  1  0  0  0
 60131  1  0  0  0
 61132  1  0  0  0
 61133  1  0  0  0
 61134  1  0  0  0
 62135  1  0  0  0
 62136  1  0  0  0
 62137  1  0  0  0
 63 65  1  0  0  0
 63138  1  0  0  0
 63139  1  0  0  0
 63140  1  0  0  0
 64141  1  0  0  0
 65142  1  0  0  0
 68 83  1  0  0  0
 71 73  2  0  0  0
 71 74  1  0  0  0
 71143  1  0  0  0
 72 73  1  0  0  0
 72 75  2  0  0  0
 72144  1  0  0  0
 73 77  1  0  0  0
 74 76  2  0  0  0
 74 79  1  0  0  0
 75 76  1  0  0  0
 75 81  1  0  0  0
 76 80  1  0  0  0
 77 78  2  0  0  0
 77145  1  0  0  0
 78146  1  0  0  0
 79147  1  0  0  0
 79148  1  0  0  0
 79149  1  0  0  0
 80150  1  0  0  0
 80151  1  0  0  0
 80152  1  0  0  0
 81 82  1  0  0  0
 81153  1  0  0  0
 81154  1  0  0  0
 82 83  1  0  0  0
 82155  1  0  0  0
 82156  1  0  0  0
 83157  1  0  0  0
 83158  1  0  0  0
M  ISO  4   1 100  68 101  78 100  83 101
M  END
> <chiral flag>
0

> <version>
0

> <s_m_source_file>
/data/baiqing/PycharmProjects/Reinvent-master-3.2/result/LINK_invent/BTK/process_docking_weight1_custom_product_contain_oxygen_bond_distance_aromatic_linkinvent_7_9_3/rearranged_h_0127.sdf

> <i_m_source_file_index>
56

> <r_mmod_Potential_Energy-OPLS-2005>
357.473052978516

> <r_mmod_Stretch_Energy-OPLS-2005>
141.29833984375

> <r_mmod_Bend_Energy-OPLS-2005>
283.242370605469

> <r_mmod_Torsional_Energy-OPLS-2005>
237.040451049805

> <r_mmod_Improper_Torsional_Energy-OPLS-2005>
10.7211847305298

> <r_mmod_Van_der_Waal_Energy-OPLS-2005>
139.847930908203

> <r_mmod_Electrostatic_Energy-OPLS-2005>
-357.847137451172

> <r_mmod_Solvation_Energy-OPLS-2005>
-192.501129150391

> <b_mmod_Minimization_Converged-OPLS-2005>
0

> <r_mmod_RMS_Derivative-OPLS-2005>
1.39842057228088

$$$$
56
                    3D
 Structure written by MMmdl.
161169  0  0  1  0            999 V2000
  -30.7167  -14.4960   20.5674 C   0  0  0  0  0  0
  -30.4150  -12.3230   19.4297 C   0  0  0  0  0  0
  -29.4921  -12.5095   18.2089 C   0  0  0  0  0  0
  -28.0153  -12.3641   18.6229 C   0  0  0  0  0  0
  -27.6571  -13.2156   19.8706 C   0  0  2  0  0  0
  -28.7002  -13.0282   20.9960 C   0  0  0  0  0  0
  -25.2563  -13.8177   20.5675 C   0  0  0  0  0  0
  -24.1831  -13.0444   20.9193 C   0  0  0  0  0  0
  -24.6396  -11.6915   20.8745 C   0  0  0  0  0  0
  -23.9067  -10.4296   21.0407 C   0  0  0  0  0  0
  -24.3619   -9.4210   21.9185 C   0  0  0  0  0  0
  -23.6294   -8.2243   22.0752 C   0  0  0  0  0  0
  -22.4276   -8.0280   21.3541 C   0  0  0  0  0  0
  -21.9910   -9.0255   20.4645 C   0  0  0  0  0  0
  -22.7240  -10.2134   20.3055 C   0  0  0  0  0  0
  -21.6852   -6.0735   22.5279 C   0  0  0  0  0  0
  -21.4014   -6.5640   23.8213 C   0  0  0  0  0  0
  -21.3660   -5.6791   24.9175 C   0  0  0  0  0  0
  -21.6044   -4.3053   24.7225 C   0  0  0  0  0  0
  -21.8819   -3.8146   23.4345 C   0  0  0  0  0  0
  -21.9194   -4.6963   22.3403 C   0  0  0  0  0  0
  -22.7853  -13.5237   21.1849 C   0  0  0  0  0  0
  -22.1661   -4.2148   21.0981 F   0  0  0  0  0  0
  -21.5629   -3.4536   25.7735 F   0  0  0  0  0  0
  -30.0273  -13.3275   20.4356 N   0  0  0  0  0  0
  -26.3003  -12.9366   20.3350 N   0  0  0  0  0  0
  -25.9327  -11.6518   20.5775 N   0  0  0  0  0  0
  -22.0492  -12.8223   22.0399 N   0  0  0  0  0  0
  -25.4266  -15.1888   20.4036 N   0  0  0  0  0  0
  -31.8448  -14.6370   20.0870 O   0  0  0  0  0  0
  -21.6637   -6.8877   21.4239 O   0  0  0  0  0  0
  -22.3542  -14.5546   20.6700 O   0  0  0  0  0  0
  -24.6172  -31.8660   23.2088 C   0  0  0  0  0  0
  -25.9058  -32.4812   23.8386 C   0  0  1  0  0  0
  -27.2281  -27.4153   20.1026 C   0  0  0  0  0  0
  -25.5913  -33.8610   24.2326 N   0  0  0  0  0  0
  -23.4065  -30.4904   21.5490 C   0  0  2  0  0  0
  -24.8546  -28.9572   20.1102 C   0  0  0  0  0  0
  -22.7426  -29.4649   22.4969 C   0  0  0  0  0  0
  -18.0275  -28.1381   22.8484 C   0  0  0  0  0  0
  -24.1488  -36.7307   23.2635 C   0  0  0  0  0  0
  -25.9377  -30.8279   21.3638 C   0  0  0  0  0  0
  -26.0171  -29.4621   20.7086 C   0  0  0  0  0  0
  -27.2116  -28.6995   20.7000 C   0  0  0  0  0  0
  -26.0537  -26.9358   19.4863 C   0  0  0  0  0  0
  -24.8688  -27.6947   19.4933 C   0  0  0  0  0  0
  -23.6163  -29.8242   20.1629 C   0  0  0  0  0  0
  -25.4108  -36.3104   24.0340 C   0  0  1  0  0  0
  -20.5868  -28.3667   23.1312 C   0  0  2  0  0  0
  -20.6762  -26.9398   22.5425 C   0  0  0  0  0  0
  -19.5751  -26.6387   21.5211 C   0  0  0  0  0  0
  -18.1923  -26.7932   22.1607 C   0  0  0  0  0  0
  -19.1524  -28.8840   23.2897 C   0  0  0  0  0  0
  -18.9451  -30.1444   23.8909 C   0  0  0  0  0  0
  -17.6453  -30.6583   24.0567 C   0  0  0  0  0  0
  -25.9037  -34.9471   23.5128 C   0  0  0  0  0  0
  -16.5344  -29.9082   23.6331 C   0  0  0  0  0  0
  -16.7263  -28.6505   23.0340 C   0  0  0  0  0  0
  -26.4483  -31.6586   25.0714 C   0  0  0  0  0  0
  -25.3750  -31.3700   26.1464 C   0  0  0  0  0  0
  -27.0293  -30.3019   24.6085 C   0  0  0  0  0  0
  -27.6068  -32.4294   25.7469 C   0  0  0  0  0  0
  -27.5589  -37.1800   24.8457 C   0  0  0  0  0  0
  -21.4150  -29.3028   22.3712 N   0  0  0  0  0  0
  -26.4287  -37.3794   23.9418 N   0  0  0  0  0  0
  -24.6721  -31.0752   22.0992 N   0  0  0  0  0  0
  -23.4191  -28.8188   23.3016 O   0  0  0  0  0  0
  -28.3433  -26.6014   20.1351 O   0  0  0  0  0  0
  -26.5592  -34.8927   22.4684 O   0  0  0  0  0  0
  -23.5360  -32.1412   23.7479 O   0  0  0  0  0  0
  -32.3563  -18.3649   21.9883 C   0  0  0  0  0  0
  -31.8595  -17.0808   21.7407 C   0  0  0  0  0  0
  -30.1713  -19.3627   21.4625 C   0  0  0  0  0  0
  -31.5340  -19.4984   21.8629 C   0  0  0  0  0  0
  -29.6721  -18.0346   21.2061 C   0  0  0  0  0  0
  -30.5231  -16.8859   21.3325 C   0  0  0  0  0  0
  -29.2907  -20.5803   21.3723 C   0  0  0  0  0  0
  -29.6007  -21.8181   20.9037 C   0  0  0  0  0  0
  -28.7216  -22.9836   21.0308 C   0  0  0  0  0  0
  -29.0767  -24.2661   20.7649 C   0  0  0  0  0  0
  -32.1633  -20.8315   22.2460 C   0  0  0  0  0  0
  -28.0566  -17.8873   19.2486 C   0  0  0  0  0  0
  -28.2202  -17.8261   20.7720 C   0  0  0  0  0  0
  -28.1780  -25.4809   21.0331 C   0  0  0  0  0  0
  -30.0432  -15.5412   21.1091 N   0  0  0  0  0  0
  -31.4612  -12.4063   19.1299 H   0  0  0  0  0  0
  -30.3062  -11.3189   19.8423 H   0  0  0  0  0  0
  -29.7369  -11.7809   17.4346 H   0  0  0  0  0  0
  -29.6555  -13.4940   17.7671 H   0  0  0  0  0  0
  -27.8334  -11.3090   18.8304 H   0  0  0  0  0  0
  -27.3619  -12.6240   17.7895 H   0  0  0  0  0  0
  -27.6913  -14.2596   19.5574 H   0  0  0  0  0  0
  -28.6810  -12.0014   21.3645 H   0  0  0  0  0  0
  -28.4618  -13.6539   21.8574 H   0  0  0  0  0  0
  -25.2766   -9.5686   22.4757 H   0  0  0  0  0  0
  -24.0005   -7.4634   22.7471 H   0  0  0  0  0  0
  -21.0841   -8.8774   19.8953 H   0  0  0  0  0  0
  -22.3702  -10.9670   19.6160 H   0  0  0  0  0  0
  -21.2001   -7.6149   23.9717 H   0  0  0  0  0  0
  -21.1483   -6.0521   25.9079 H   0  0  0  0  0  0
  -22.0597   -2.7607   23.2843 H   0  0  0  0  0  0
  -22.4104  -11.9882   22.4781 H   0  0  0  0  0  0
  -21.1111  -13.1251   22.2603 H   0  0  0  0  0  0
  -24.6522  -15.8376   20.4903 H   0  0  0  0  0  0
  -26.2628  -15.6171   20.0299 H   0  0  0  0  0  0
  -26.7128  -32.5522   23.1148 H   0  0  0  0  0  0
  -25.0085  -33.9768   25.0485 H   0  0  0  0  0  0
  -22.6965  -31.3082   21.4097 H   0  0  0  0  0  0
  -23.3758  -35.9629   23.3278 H   0  0  0  0  0  0
  -24.3593  -36.8935   22.2054 H   0  0  0  0  0  0
  -23.7226  -37.6502   23.6657 H   0  0  0  0  0  0
  -26.0513  -31.5942   20.5958 H   0  0  0  0  0  0
  -26.8255  -30.8814   21.9822 H   0  0  0  0  0  0
  -28.1067  -29.0792   21.1729 H   0  0  0  0  0  0
  -26.0523  -25.9625   19.0156 H   0  0  0  0  0  0
  -23.9765  -27.3012   19.0259 H   0  0  0  0  0  0
  -23.7245  -30.6002   19.4043 H   0  0  0  0  0  0
  -22.7403  -29.2445   19.8659 H   0  0  0  0  0  0
  -25.1281  -36.1960   25.0831 H   0  0  0  0  0  0
  -20.9964  -28.3234   24.1430 H   0  0  0  0  0  0
  -20.5647  -26.2274   23.3613 H   0  0  0  0  0  0
  -21.6635  -26.7430   22.1228 H   0  0  0  0  0  0
  -19.6911  -25.6302   21.1225 H   0  0  0  0  0  0
  -19.6707  -27.3209   20.6753 H   0  0  0  0  0  0
  -17.4206  -26.6698   21.3993 H   0  0  0  0  0  0
  -18.0306  -26.0063   22.8988 H   0  0  0  0  0  0
  -19.7929  -30.7252   24.2285 H   0  0  0  0  0  0
  -17.5010  -31.6265   24.5164 H   0  0  0  0  0  0
  -15.5343  -30.2984   23.7660 H   0  0  0  0  0  0
  -15.8662  -28.0834   22.7037 H   0  0  0  0  0  0
  -24.5963  -30.6985   25.7826 H   0  0  0  0  0  0
  -24.8886  -32.2847   26.4863 H   0  0  0  0  0  0
  -25.8118  -30.8938   27.0250 H   0  0  0  0  0  0
  -26.2821  -29.6792   24.1150 H   0  0  0  0  0  0
  -27.4062  -29.7248   25.4539 H   0  0  0  0  0  0
  -27.8665  -30.4323   23.9223 H   0  0  0  0  0  0
  -27.2706  -33.3597   26.2060 H   0  0  0  0  0  0
  -28.3875  -32.6841   25.0288 H   0  0  0  0  0  0
  -28.0738  -31.8397   26.5369 H   0  0  0  0  0  0
  -28.2592  -38.0113   24.7530 H   0  0  0  0  0  0
  -28.1098  -36.2647   24.6238 H   0  0  0  0  0  0
  -27.2321  -37.1394   25.8862 H   0  0  0  0  0  0
  -20.9308  -29.8753   21.6938 H   0  0  0  0  0  0
  -26.0176  -38.2865   24.1440 H   0  0  0  0  0  0
  -33.3845  -18.4704   22.3061 H   0  0  0  0  0  0
  -32.5285  -16.2442   21.8845 H   0  0  0  0  0  0
  -28.3112  -20.4678   21.8133 H   0  0  0  0  0  0
  -30.5612  -21.9676   20.4343 H   0  0  0  0  0  0
  -27.7189  -22.8139   21.3995 H   0  0  0  0  0  0
  -30.0674  -24.4842   20.3914 H   0  0  0  0  0  0
  -33.0465  -20.6854   22.8688 H   0  0  0  0  0  0
  -31.4765  -21.4510   22.8226 H   0  0  0  0  0  0
  -32.4827  -21.3772   21.3584 H   0  0  0  0  0  0
  -27.0175  -17.7265   18.9619 H   0  0  0  0  0  0
  -28.6607  -17.1255   18.7547 H   0  0  0  0  0  0
  -28.3609  -18.8592   18.8595 H   0  0  0  0  0  0
  -27.5606  -18.5529   21.2422 H   0  0  0  0  0  0
  -27.8526  -16.8685   21.1393 H   0  0  0  0  0  0
  -28.4157  -25.8403   22.0350 H   0  0  0  0  0  0
  -27.1444  -25.1333   21.0787 H   0  0  0  0  0  0
  -29.0748  -15.3646   21.3241 H   0  0  0  0  0  0
  1 25  1  0  0  0
  1 30  2  0  0  0
  1 85  1  0  0  0
  2  3  1  0  0  0
  2 25  1  0  0  0
  2 86  1  0  0  0
  2 87  1  0  0  0
  3  4  1  0  0  0
  3 88  1  0  0  0
  3 89  1  0  0  0
  4  5  1  0  0  0
  4 90  1  0  0  0
  4 91  1  0  0  0
  5  6  1  0  0  0
  5 26  1  0  0  0
  5 92  1  0  0  0
  6 25  1  0  0  0
  6 93  1  0  0  0
  6 94  1  0  0  0
  7  8  2  0  0  0
  7 26  1  0  0  0
  7 29  1  0  0  0
  8  9  1  0  0  0
  8 22  1  0  0  0
  9 10  1  0  0  0
  9 27  2  0  0  0
 10 11  2  0  0  0
 10 15  1  0  0  0
 11 12  1  0  0  0
 11 95  1  0  0  0
 12 13  2  0  0  0
 12 96  1  0  0  0
 13 14  1  0  0  0
 13 31  1  0  0  0
 14 15  2  0  0  0
 14 97  1  0  0  0
 15 98  1  0  0  0
 16 17  2  0  0  0
 16 21  1  0  0  0
 16 31  1  0  0  0
 17 18  1  0  0  0
 17 99  1  0  0  0
 18 19  2  0  0  0
 18100  1  0  0  0
 19 20  1  0  0  0
 19 24  1  0  0  0
 20 21  2  0  0  0
 20101  1  0  0  0
 21 23  1  0  0  0
 22 28  1  0  0  0
 22 32  2  0  0  0
 26 27  1  0  0  0
 28102  1  0  0  0
 28103  1  0  0  0
 29104  1  0  0  0
 29105  1  0  0  0
 33 34  1  0  0  0
 33 66  1  0  0  0
 33 70  2  0  0  0
 34 36  1  0  0  0
 34 59  1  0  0  0
 34106  1  0  0  0
 35 44  2  0  0  0
 35 45  1  0  0  0
 35 68  1  0  0  0
 36 56  1  0  0  0
 36107  1  0  0  0
 37 39  1  0  0  0
 37 47  1  0  0  0
 37 66  1  0  0  0
 37108  1  0  0  0
 38 43  2  0  0  0
 38 46  1  0  0  0
 38 47  1  0  0  0
 39 64  1  0  0  0
 39 67  2  0  0  0
 40 52  1  0  0  0
 40 53  2  0  0  0
 40 58  1  0  0  0
 41109  1  0  0  0
 41110  1  0  0  0
 41111  1  0  0  0
 41 48  1  0  0  0
 42 43  1  0  0  0
 42 66  1  0  0  0
 42112  1  0  0  0
 42113  1  0  0  0
 43 44  1  0  0  0
 44114  1  0  0  0
 45 46  2  0  0  0
 45115  1  0  0  0
 46116  1  0  0  0
 47117  1  0  0  0
 47118  1  0  0  0
 48 56  1  0  0  0
 48 65  1  0  0  0
 48119  1  0  0  0
 49 50  1  0  0  0
 49 53  1  0  0  0
 49 64  1  0  0  0
 49120  1  0  0  0
 50 51  1  0  0  0
 50121  1  0  0  0
 50122  1  0  0  0
 51 52  1  0  0  0
 51123  1  0  0  0
 51124  1  0  0  0
 52125  1  0  0  0
 52126  1  0  0  0
 53 54  1  0  0  0
 54 55  2  0  0  0
 54127  1  0  0  0
 55 57  1  0  0  0
 55128  1  0  0  0
 56 69  2  0  0  0
 57 58  2  0  0  0
 57129  1  0  0  0
 58130  1  0  0  0
 59 60  1  0  0  0
 59 61  1  0  0  0
 59 62  1  0  0  0
 60131  1  0  0  0
 60132  1  0  0  0
 60133  1  0  0  0
 61134  1  0  0  0
 61135  1  0  0  0
 61136  1  0  0  0
 62137  1  0  0  0
 62138  1  0  0  0
 62139  1  0  0  0
 63 65  1  0  0  0
 63140  1  0  0  0
 63141  1  0  0  0
 63142  1  0  0  0
 64143  1  0  0  0
 65144  1  0  0  0
 68 84  1  0  0  0
 71 72  2  0  0  0
 71 74  1  0  0  0
 71145  1  0  0  0
 72 76  1  0  0  0
 72146  1  0  0  0
 73 74  2  0  0  0
 73 75  1  0  0  0
 73 77  1  0  0  0
 74 81  1  0  0  0
 75 76  2  0  0  0
 75 83  1  0  0  0
 76 85  1  0  0  0
 77 78  2  0  0  0
 77147  1  0  0  0
 78 79  1  0  0  0
 78148  1  0  0  0
 79 80  2  0  0  0
 79149  1  0  0  0
 80 84  1  0  0  0
 80150  1  0  0  0
 81151  1  0  0  0
 81152  1  0  0  0
 81153  1  0  0  0
 82 83  1  0  0  0
 82154  1  0  0  0
 82155  1  0  0  0
 82156  1  0  0  0
 83157  1  0  0  0
 83158  1  0  0  0
 84159  1  0  0  0
 84160  1  0  0  0
 85161  1  0  0  0
M  ISO  4   1 100  68 101  84 101  85 100
M  END
> <chiral flag>
0

> <version>
0

> <s_m_source_file>
/data/baiqing/PycharmProjects/Reinvent-master-3.2/result/LINK_invent/BTK/process_docking_weight1_custom_product_contain_oxygen_bond_distance_aromatic_linkinvent_7_9_3/rearranged_h_0127.sdf

> <i_m_source_file_index>
57

> <r_mmod_Potential_Energy-OPLS-2005>
10.2834300994873

> <r_mmod_Stretch_Energy-OPLS-2005>
49.8283996582031

> <r_mmod_Bend_Energy-OPLS-2005>
96.9481735229492

> <r_mmod_Torsional_Energy-OPLS-2005>
250.329376220703

> <r_mmod_Improper_Torsional_Energy-OPLS-2005>
5.40676498413086

> <r_mmod_Van_der_Waal_Energy-OPLS-2005>
158.237991333008

> <r_mmod_Electrostatic_Energy-OPLS-2005>
-372.642028808594

> <r_mmod_Solvation_Energy-OPLS-2005>
-195.998657226562

> <b_mmod_Minimization_Converged-OPLS-2005>
0

> <r_mmod_RMS_Derivative-OPLS-2005>
0.734805166721344

$$$$
57
                    3D
 Structure written by MMmdl.
151159  0  0  1  0            999 V2000
  -30.6275  -14.7057   20.4483 C   0  0  0  0  0  0
  -30.4252  -12.4234   19.4826 C   0  0  0  0  0  0
  -29.5109  -12.5052   18.2404 C   0  0  0  0  0  0
  -28.0347  -12.3378   18.6484 C   0  0  0  0  0  0
  -27.6442  -13.2326   19.8554 C   0  0  2  0  0  0
  -28.6849  -13.1545   20.9947 C   0  0  0  0  0  0
  -25.2511  -13.8204   20.5694 C   0  0  0  0  0  0
  -24.1801  -13.0447   20.9201 C   0  0  0  0  0  0
  -24.6392  -11.6924   20.8745 C   0  0  0  0  0  0
  -23.9074  -10.4298   21.0408 C   0  0  0  0  0  0
  -24.3622   -9.4212   21.9186 C   0  0  0  0  0  0
  -23.6299   -8.2246   22.0755 C   0  0  0  0  0  0
  -22.4284   -8.0282   21.3542 C   0  0  0  0  0  0
  -21.9915   -9.0259   20.4650 C   0  0  0  0  0  0
  -22.7244  -10.2140   20.3060 C   0  0  0  0  0  0
  -21.6855   -6.0741   22.5281 C   0  0  0  0  0  0
  -21.4018   -6.5644   23.8215 C   0  0  0  0  0  0
  -21.3658   -5.6795   24.9175 C   0  0  0  0  0  0
  -21.6044   -4.3057   24.7226 C   0  0  0  0  0  0
  -21.8816   -3.8151   23.4345 C   0  0  0  0  0  0
  -21.9191   -4.6968   22.3402 C   0  0  0  0  0  0
  -22.7820  -13.5228   21.1855 C   0  0  0  0  0  0
  -22.1659   -4.2154   21.0982 F   0  0  0  0  0  0
  -21.5626   -3.4542   25.7736 F   0  0  0  0  0  0
  -29.9951  -13.4848   20.4220 N   0  0  0  0  0  0
  -26.2944  -12.9416   20.3293 N   0  0  0  0  0  0
  -25.9324  -11.6556   20.5755 N   0  0  0  0  0  0
  -22.0464  -12.8230   22.0420 N   0  0  0  0  0  0
  -25.4201  -15.1929   20.4115 N   0  0  0  0  0  0
  -31.8142  -14.7850   20.1167 O   0  0  0  0  0  0
  -21.6642   -6.8887   21.4243 O   0  0  0  0  0  0
  -22.3502  -14.5528   20.6692 O   0  0  0  0  0  0
  -24.6300  -31.8571   23.2009 C   0  0  0  0  0  0
  -25.9136  -32.4760   23.8350 C   0  0  1  0  0  0
  -27.2159  -27.2749   20.1274 C   0  0  0  0  0  0
  -25.5941  -33.8562   24.2276 N   0  0  0  0  0  0
  -23.4255  -30.4815   21.5432 C   0  0  2  0  0  0
  -24.8723  -28.9340   20.1068 C   0  0  0  0  0  0
  -22.7497  -29.4613   22.4911 C   0  0  0  0  0  0
  -18.0294  -28.1388   22.8483 C   0  0  0  0  0  0
  -24.1493  -36.7285   23.2640 C   0  0  0  0  0  0
  -25.9708  -30.7728   21.3807 C   0  0  0  0  0  0
  -26.0418  -29.3974   20.7219 C   0  0  0  0  0  0
  -27.2147  -28.5786   20.7257 C   0  0  0  0  0  0
  -26.0278  -26.8860   19.4658 C   0  0  0  0  0  0
  -24.8702  -27.6862   19.4675 C   0  0  0  0  0  0
  -23.6429  -29.8198   20.1572 C   0  0  0  0  0  0
  -25.4117  -36.3071   24.0331 C   0  0  1  0  0  0
  -20.5898  -28.3701   23.1268 C   0  0  2  0  0  0
  -20.6784  -26.9420   22.5407 C   0  0  0  0  0  0
  -19.5760  -26.6385   21.5211 C   0  0  0  0  0  0
  -18.1939  -26.7930   22.1622 C   0  0  0  0  0  0
  -19.1547  -28.8861   23.2870 C   0  0  0  0  0  0
  -18.9467  -30.1461   23.8890 C   0  0  0  0  0  0
  -17.6464  -30.6586   24.0562 C   0  0  0  0  0  0
  -25.9056  -34.9441   23.5103 C   0  0  0  0  0  0
  -16.5357  -29.9086   23.6326 C   0  0  0  0  0  0
  -16.7280  -28.6503   23.0350 C   0  0  0  0  0  0
  -26.4508  -31.6578   25.0730 C   0  0  0  0  0  0
  -25.3736  -31.3719   26.1454 C   0  0  0  0  0  0
  -27.0362  -30.2999   24.6210 C   0  0  0  0  0  0
  -27.6063  -32.4322   25.7498 C   0  0  0  0  0  0
  -27.5579  -37.1799   24.8465 C   0  0  0  0  0  0
  -21.4206  -29.3049   22.3654 N   0  0  0  0  0  0
  -26.4290  -37.3768   23.9408 N   0  0  0  0  0  0
  -24.6942  -31.0553   22.0975 N   0  0  0  0  0  0
  -23.4207  -28.8149   23.2999 O   0  0  0  0  0  0
  -28.3096  -26.3839   20.2137 O   0  0  0  0  0  0
  -26.5621  -34.8911   22.4668 O   0  0  0  0  0  0
  -23.5456  -32.1391   23.7314 O   0  0  0  0  0  0
  -30.5811  -17.2295   18.7379 C   0  0  0  0  0  0
  -30.7478  -18.4427   18.0551 C   0  0  0  0  0  0
  -29.6229  -18.4699   20.5953 C   0  0  0  0  0  0
  -29.7968  -19.7543   19.9196 C   0  0  0  0  0  0
  -30.0383  -17.1872   20.0389 C   0  0  0  0  0  0
  -30.3900  -19.6779   18.6240 C   0  0  0  0  0  0
  -29.4510  -21.1336   20.5436 C   0  0  0  0  0  0
  -29.1507  -22.3578   19.9600 C   0  0  0  0  0  0
  -29.0525  -23.8038   20.6037 C   0  0  0  0  0  0
  -28.1089  -24.9227   19.9357 C   0  0  0  0  0  0
  -29.8798  -15.8535   20.6703 N   0  0  0  0  0  0
  -30.8100  -21.0668   17.6810 Cl  0  0  0  0  0  0
  -31.4707  -12.5256   19.1872 H   0  0  0  0  0  0
  -30.3461  -11.4433   19.9557 H   0  0  0  0  0  0
  -29.7887  -11.7396   17.5148 H   0  0  0  0  0  0
  -29.6488  -13.4656   17.7411 H   0  0  0  0  0  0
  -27.8831  -11.2885   18.9040 H   0  0  0  0  0  0
  -27.3805  -12.5407   17.7998 H   0  0  0  0  0  0
  -27.6449  -14.2572   19.4823 H   0  0  0  0  0  0
  -28.7027  -12.1576   21.4374 H   0  0  0  0  0  0
  -28.4259  -13.8426   21.8009 H   0  0  0  0  0  0
  -25.2769   -9.5693   22.4761 H   0  0  0  0  0  0
  -24.0011   -7.4638   22.7475 H   0  0  0  0  0  0
  -21.0842   -8.8781   19.8960 H   0  0  0  0  0  0
  -22.3700  -10.9678   19.6169 H   0  0  0  0  0  0
  -21.2019   -7.6153   23.9725 H   0  0  0  0  0  0
  -21.1481   -6.0523   25.9080 H   0  0  0  0  0  0
  -22.0595   -2.7612   23.2844 H   0  0  0  0  0  0
  -22.4081  -11.9903   22.4831 H   0  0  0  0  0  0
  -21.1079  -13.1257   22.2615 H   0  0  0  0  0  0
  -24.6514  -15.8460   20.5208 H   0  0  0  0  0  0
  -26.2702  -15.6341   20.0835 H   0  0  0  0  0  0
  -26.7198  -32.5416   23.1088 H   0  0  0  0  0  0
  -25.0091  -33.9702   25.0424 H   0  0  0  0  0  0
  -22.7208  -31.3034   21.4002 H   0  0  0  0  0  0
  -23.3752  -35.9620   23.3303 H   0  0  0  0  0  0
  -24.3580  -36.8904   22.2053 H   0  0  0  0  0  0
  -23.7252  -37.6490   23.6662 H   0  0  0  0  0  0
  -26.1118  -31.5344   20.6125 H   0  0  0  0  0  0
  -26.8480  -30.8188   22.0141 H   0  0  0  0  0  0
  -28.1061  -28.9243   21.2308 H   0  0  0  0  0  0
  -25.9601  -25.9411   18.9487 H   0  0  0  0  0  0
  -23.9783  -27.3300   18.9705 H   0  0  0  0  0  0
  -23.7679  -30.5991   19.4045 H   0  0  0  0  0  0
  -22.7611  -29.2550   19.8498 H   0  0  0  0  0  0
  -25.1297  -36.1918   25.0823 H   0  0  0  0  0  0
  -20.9994  -28.3285   24.1387 H   0  0  0  0  0  0
  -20.5687  -26.2314   23.3613 H   0  0  0  0  0  0
  -21.6651  -26.7447   22.1198 H   0  0  0  0  0  0
  -19.6921  -25.6296   21.1244 H   0  0  0  0  0  0
  -19.6693  -27.3192   20.6739 H   0  0  0  0  0  0
  -17.4209  -26.6679   21.4023 H   0  0  0  0  0  0
  -18.0336  -26.0073   22.9019 H   0  0  0  0  0  0
  -19.7944  -30.7278   24.2260 H   0  0  0  0  0  0
  -17.5020  -31.6263   24.5173 H   0  0  0  0  0  0
  -15.5358  -30.2986   23.7651 H   0  0  0  0  0  0
  -15.8681  -28.0820   22.7067 H   0  0  0  0  0  0
  -24.5911  -30.7066   25.7783 H   0  0  0  0  0  0
  -24.8926  -32.2884   26.4882 H   0  0  0  0  0  0
  -25.8059  -30.8894   27.0230 H   0  0  0  0  0  0
  -26.2945  -29.6734   24.1239 H   0  0  0  0  0  0
  -27.4057  -29.7268   25.4725 H   0  0  0  0  0  0
  -27.8819  -30.4280   23.9448 H   0  0  0  0  0  0
  -27.2672  -33.3625   26.2069 H   0  0  0  0  0  0
  -28.3873  -32.6881   25.0323 H   0  0  0  0  0  0
  -28.0737  -31.8454   26.5418 H   0  0  0  0  0  0
  -28.2598  -38.0093   24.7502 H   0  0  0  0  0  0
  -28.1072  -36.2622   24.6304 H   0  0  0  0  0  0
  -27.2292  -37.1462   25.8867 H   0  0  0  0  0  0
  -20.9392  -29.8775   21.6860 H   0  0  0  0  0  0
  -26.0170  -38.2843   24.1400 H   0  0  0  0  0  0
  -30.8832  -16.3246   18.2302 H   0  0  0  0  0  0
  -31.1902  -18.4267   17.0696 H   0  0  0  0  0  0
  -29.1824  -18.4786   21.5821 H   0  0  0  0  0  0
  -29.5435  -21.1431   21.6204 H   0  0  0  0  0  0
  -29.0130  -22.3871   18.8909 H   0  0  0  0  0  0
  -30.0693  -24.1954   20.5691 H   0  0  0  0  0  0
  -28.8155  -23.7060   21.6637 H   0  0  0  0  0  0
  -27.0979  -24.6332   20.2222 H   0  0  0  0  0  0
  -28.1597  -24.8076   18.8524 H   0  0  0  0  0  0
  -29.0071  -15.7060   21.1560 H   0  0  0  0  0  0
  1 25  1  0  0  0
  1 30  2  0  0  0
  1 81  1  0  0  0
  2  3  1  0  0  0
  2 25  1  0  0  0
  2 83  1  0  0  0
  2 84  1  0  0  0
  3  4  1  0  0  0
  3 85  1  0  0  0
  3 86  1  0  0  0
  4  5  1  0  0  0
  4 87  1  0  0  0
  4 88  1  0  0  0
  5  6  1  0  0  0
  5 26  1  0  0  0
  5 89  1  0  0  0
  6 25  1  0  0  0
  6 90  1  0  0  0
  6 91  1  0  0  0
  7  8  2  0  0  0
  7 26  1  0  0  0
  7 29  1  0  0  0
  8  9  1  0  0  0
  8 22  1  0  0  0
  9 10  1  0  0  0
  9 27  2  0  0  0
 10 11  2  0  0  0
 10 15  1  0  0  0
 11 12  1  0  0  0
 11 92  1  0  0  0
 12 13  2  0  0  0
 12 93  1  0  0  0
 13 14  1  0  0  0
 13 31  1  0  0  0
 14 15  2  0  0  0
 14 94  1  0  0  0
 15 95  1  0  0  0
 16 17  2  0  0  0
 16 21  1  0  0  0
 16 31  1  0  0  0
 17 18  1  0  0  0
 17 96  1  0  0  0
 18 19  2  0  0  0
 18 97  1  0  0  0
 19 20  1  0  0  0
 19 24  1  0  0  0
 20 21  2  0  0  0
 20 98  1  0  0  0
 21 23  1  0  0  0
 22 28  1  0  0  0
 22 32  2  0  0  0
 26 27  1  0  0  0
 28 99  1  0  0  0
 28100  1  0  0  0
 29101  1  0  0  0
 29102  1  0  0  0
 33 34  1  0  0  0
 33 66  1  0  0  0
 33 70  2  0  0  0
 34 36  1  0  0  0
 34 59  1  0  0  0
 34103  1  0  0  0
 35 44  2  0  0  0
 35 45  1  0  0  0
 35 68  1  0  0  0
 36 56  1  0  0  0
 36104  1  0  0  0
 37 39  1  0  0  0
 37 47  1  0  0  0
 37 66  1  0  0  0
 37105  1  0  0  0
 38 43  2  0  0  0
 38 46  1  0  0  0
 38 47  1  0  0  0
 39 64  1  0  0  0
 39 67  2  0  0  0
 40 52  1  0  0  0
 40 53  2  0  0  0
 40 58  1  0  0  0
 41106  1  0  0  0
 41107  1  0  0  0
 41108  1  0  0  0
 41 48  1  0  0  0
 42 43  1  0  0  0
 42 66  1  0  0  0
 42109  1  0  0  0
 42110  1  0  0  0
 43 44  1  0  0  0
 44111  1  0  0  0
 45 46  2  0  0  0
 45112  1  0  0  0
 46113  1  0  0  0
 47114  1  0  0  0
 47115  1  0  0  0
 48 56  1  0  0  0
 48 65  1  0  0  0
 48116  1  0  0  0
 49 50  1  0  0  0
 49 53  1  0  0  0
 49 64  1  0  0  0
 49117  1  0  0  0
 50 51  1  0  0  0
 50118  1  0  0  0
 50119  1  0  0  0
 51 52  1  0  0  0
 51120  1  0  0  0
 51121  1  0  0  0
 52122  1  0  0  0
 52123  1  0  0  0
 53 54  1  0  0  0
 54 55  2  0  0  0
 54124  1  0  0  0
 55 57  1  0  0  0
 55125  1  0  0  0
 56 69  2  0  0  0
 57 58  2  0  0  0
 57126  1  0  0  0
 58127  1  0  0  0
 59 60  1  0  0  0
 59 61  1  0  0  0
 59 62  1  0  0  0
 60128  1  0  0  0
 60129  1  0  0  0
 60130  1  0  0  0
 61131  1  0  0  0
 61132  1  0  0  0
 61133  1  0  0  0
 62134  1  0  0  0
 62135  1  0  0  0
 62136  1  0  0  0
 63 65  1  0  0  0
 63137  1  0  0  0
 63138  1  0  0  0
 63139  1  0  0  0
 64140  1  0  0  0
 65141  1  0  0  0
 68 80  1  0  0  0
 71 72  2  0  0  0
 71 75  1  0  0  0
 71142  1  0  0  0
 72 76  1  0  0  0
 72143  1  0  0  0
 73 74  1  0  0  0
 73 75  2  0  0  0
 73144  1  0  0  0
 74 76  2  0  0  0
 74 77  1  0  0  0
 75 81  1  0  0  0
 76 82  1  0  0  0
 77 78  2  0  0  0
 77145  1  0  0  0
 78 79  1  0  0  0
 78146  1  0  0  0
 79 80  1  0  0  0
 79147  1  0  0  0
 79148  1  0  0  0
 80149  1  0  0  0
 80150  1  0  0  0
 81151  1  0  0  0
M  ISO  4   1 100  68 101  80 101  81 100
M  END
> <chiral flag>
0

> <version>
0

> <s_m_source_file>
/data/baiqing/PycharmProjects/Reinvent-master-3.2/result/LINK_invent/BTK/process_docking_weight1_custom_product_contain_oxygen_bond_distance_aromatic_linkinvent_7_9_3/rearranged_h_0127.sdf

> <i_m_source_file_index>
58

> <r_mmod_Potential_Energy-OPLS-2005>
183.036117553711

> <r_mmod_Stretch_Energy-OPLS-2005>
115.563407897949

> <r_mmod_Bend_Energy-OPLS-2005>
148.137390136719

> <r_mmod_Torsional_Energy-OPLS-2005>
242.443023681641

> <r_mmod_Improper_Torsional_Energy-OPLS-2005>
6.24150514602661

> <r_mmod_Van_der_Waal_Energy-OPLS-2005>
152.18830871582

> <r_mmod_Electrostatic_Energy-OPLS-2005>
-348.717407226562

> <r_mmod_Solvation_Energy-OPLS-2005>
-207.922409057617

> <b_mmod_Minimization_Converged-OPLS-2005>
0

> <r_mmod_RMS_Derivative-OPLS-2005>
0.759468257427216

$$$$
58
                    3D
 Structure written by MMmdl.
159167  0  0  1  0            999 V2000
  -30.7056  -14.6377   20.4835 C   0  0  0  0  0  0
  -30.4062  -12.3846   19.4908 C   0  0  0  0  0  0
  -29.5098  -12.4968   18.2417 C   0  0  0  0  0  0
  -28.0370  -12.3204   18.6495 C   0  0  0  0  0  0
  -27.6408  -13.2264   19.8456 C   0  0  2  0  0  0
  -28.6798  -13.1867   20.9871 C   0  0  0  0  0  0
  -25.2512  -13.8042   20.5620 C   0  0  0  0  0  0
  -24.1796  -13.0368   20.9136 C   0  0  0  0  0  0
  -24.6393  -11.6855   20.8729 C   0  0  0  0  0  0
  -23.9063  -10.4268   21.0392 C   0  0  0  0  0  0
  -24.3600   -9.4202   21.9190 C   0  0  0  0  0  0
  -23.6288   -8.2236   22.0760 C   0  0  0  0  0  0
  -22.4280   -8.0267   21.3538 C   0  0  0  0  0  0
  -21.9910   -9.0235   20.4638 C   0  0  0  0  0  0
  -22.7229  -10.2117   20.3045 C   0  0  0  0  0  0
  -21.6871   -6.0728   22.5272 C   0  0  0  0  0  0
  -21.4032   -6.5630   23.8204 C   0  0  0  0  0  0
  -21.3667   -5.6782   24.9162 C   0  0  0  0  0  0
  -21.6038   -4.3042   24.7210 C   0  0  0  0  0  0
  -21.8826   -3.8135   23.4330 C   0  0  0  0  0  0
  -21.9191   -4.6953   22.3388 C   0  0  0  0  0  0
  -22.7832  -13.5212   21.1784 C   0  0  0  0  0  0
  -22.1668   -4.2138   21.0968 F   0  0  0  0  0  0
  -21.5619   -3.4529   25.7722 F   0  0  0  0  0  0
  -29.9989  -13.4652   20.4137 N   0  0  0  0  0  0
  -26.2959  -12.9296   20.3269 N   0  0  0  0  0  0
  -25.9329  -11.6453   20.5756 N   0  0  0  0  0  0
  -22.0475  -12.8254   22.0360 N   0  0  0  0  0  0
  -25.4238  -15.1693   20.3954 N   0  0  0  0  0  0
  -31.8891  -14.6660   20.1446 O   0  0  0  0  0  0
  -21.6647   -6.8868   21.4240 O   0  0  0  0  0  0
  -22.3552  -14.5544   20.6637 O   0  0  0  0  0  0
  -24.6173  -31.8623   23.1987 C   0  0  0  0  0  0
  -25.9045  -32.4792   23.8303 C   0  0  1  0  0  0
  -27.2345  -27.3627   20.0909 C   0  0  0  0  0  0
  -25.5886  -33.8591   24.2233 N   0  0  0  0  0  0
  -23.4083  -30.4820   21.5403 C   0  0  2  0  0  0
  -24.8535  -28.9339   20.1101 C   0  0  0  0  0  0
  -22.7417  -29.4642   22.4945 C   0  0  0  0  0  0
  -18.0266  -28.1386   22.8471 C   0  0  0  0  0  0
  -24.1483  -36.7302   23.2642 C   0  0  0  0  0  0
  -25.9431  -30.8040   21.3593 C   0  0  0  0  0  0
  -26.0178  -29.4311   20.7076 C   0  0  0  0  0  0
  -27.2067  -28.6531   20.6937 C   0  0  0  0  0  0
  -26.0447  -26.8976   19.4861 C   0  0  0  0  0  0
  -24.8661  -27.6697   19.4970 C   0  0  0  0  0  0
  -23.6166  -29.8063   20.1592 C   0  0  0  0  0  0
  -25.4114  -36.3086   24.0324 C   0  0  1  0  0  0
  -20.5858  -28.3656   23.1297 C   0  0  2  0  0  0
  -20.6747  -26.9386   22.5411 C   0  0  0  0  0  0
  -19.5732  -26.6371   21.5204 C   0  0  0  0  0  0
  -18.1908  -26.7933   22.1610 C   0  0  0  0  0  0
  -19.1523  -28.8838   23.2871 C   0  0  0  0  0  0
  -18.9464  -30.1455   23.8865 C   0  0  0  0  0  0
  -17.6475  -30.6588   24.0562 C   0  0  0  0  0  0
  -25.9047  -34.9465   23.5083 C   0  0  0  0  0  0
  -16.5352  -29.9079   23.6364 C   0  0  0  0  0  0
  -16.7261  -28.6509   23.0353 C   0  0  0  0  0  0
  -26.4431  -31.6598   25.0667 C   0  0  0  0  0  0
  -25.3681  -31.3756   26.1415 C   0  0  0  0  0  0
  -27.0274  -30.3033   24.6092 C   0  0  0  0  0  0
  -27.5970  -32.4342   25.7463 C   0  0  0  0  0  0
  -27.5571  -37.1809   24.8463 C   0  0  0  0  0  0
  -21.4139  -29.3033   22.3707 N   0  0  0  0  0  0
  -26.4279  -37.3786   23.9413 N   0  0  0  0  0  0
  -24.6749  -31.0663   22.0906 N   0  0  0  0  0  0
  -23.4174  -28.8190   23.3009 O   0  0  0  0  0  0
  -28.3940  -26.5883   20.1388 O   0  0  0  0  0  0
  -26.5629  -34.8928   22.4661 O   0  0  0  0  0  0
  -23.5353  -32.1416   23.7354 O   0  0  0  0  0  0
  -30.5618  -16.8591   21.7760 C   0  0  0  0  0  0
  -30.2573  -18.2482   21.8310 C   0  0  0  0  0  0
  -29.2509  -16.6720   19.7811 C   0  0  0  0  0  0
  -30.0815  -16.0254   20.7367 C   0  0  0  0  0  0
  -29.4592  -18.9127   20.8615 C   0  0  0  0  0  0
  -28.9167  -18.0664   19.8408 C   0  0  0  0  0  0
  -29.3792  -20.4333   20.9812 C   0  0  0  0  0  0
  -29.1269  -21.4356   20.0867 C   0  0  0  0  0  0
  -26.1982  -18.6221   20.5233 C   0  0  0  0  0  0
  -29.2426  -22.9695   20.3769 C   0  0  0  0  0  0
  -28.1120  -23.9587   19.8801 C   0  0  0  0  0  0
  -26.8431  -19.1488   19.2318 C   0  0  0  0  0  0
  -28.5534  -25.3808   19.3331 C   0  0  0  0  0  0
  -28.0760  -18.5237   18.8515 O   0  0  0  0  0  0
  -31.4594  -12.4365   19.2114 H   0  0  0  0  0  0
  -30.2698  -11.4145   19.9711 H   0  0  0  0  0  0
  -29.7928  -11.7429   17.5073 H   0  0  0  0  0  0
  -29.6533  -13.4669   17.7647 H   0  0  0  0  0  0
  -27.8988  -11.2726   18.9190 H   0  0  0  0  0  0
  -27.3798  -12.5031   17.7982 H   0  0  0  0  0  0
  -27.6305  -14.2428   19.4555 H   0  0  0  0  0  0
  -28.6797  -12.2139   21.4796 H   0  0  0  0  0  0
  -28.4272  -13.9217   21.7547 H   0  0  0  0  0  0
  -25.2737   -9.5694   22.4774 H   0  0  0  0  0  0
  -23.9980   -7.4648   22.7502 H   0  0  0  0  0  0
  -21.0841   -8.8748   19.8963 H   0  0  0  0  0  0
  -22.3682  -10.9645   19.6145 H   0  0  0  0  0  0
  -21.2060   -7.6144   23.9708 H   0  0  0  0  0  0
  -21.1485   -6.0508   25.9063 H   0  0  0  0  0  0
  -22.0607   -2.7599   23.2826 H   0  0  0  0  0  0
  -22.4088  -11.9907   22.4732 H   0  0  0  0  0  0
  -21.1108  -13.1319   22.2589 H   0  0  0  0  0  0
  -24.6615  -15.8313   20.4782 H   0  0  0  0  0  0
  -26.3013  -15.6015   20.1386 H   0  0  0  0  0  0
  -26.7100  -32.5471   23.1047 H   0  0  0  0  0  0
  -25.0029  -33.9741   25.0371 H   0  0  0  0  0  0
  -22.6981  -31.2998   21.3966 H   0  0  0  0  0  0
  -23.3735  -35.9642   23.3306 H   0  0  0  0  0  0
  -24.3565  -36.8921   22.2050 H   0  0  0  0  0  0
  -23.7236  -37.6512   23.6660 H   0  0  0  0  0  0
  -26.0647  -31.5663   20.5885 H   0  0  0  0  0  0
  -26.8262  -30.8578   21.9824 H   0  0  0  0  0  0
  -28.1056  -29.0371   21.1545 H   0  0  0  0  0  0
  -25.9988  -25.9246   19.0200 H   0  0  0  0  0  0
  -23.9698  -27.2781   19.0350 H   0  0  0  0  0  0
  -23.7207  -30.5747   19.3930 H   0  0  0  0  0  0
  -22.7359  -29.2261   19.8732 H   0  0  0  0  0  0
  -25.1295  -36.1937   25.0811 H   0  0  0  0  0  0
  -20.9952  -28.3228   24.1411 H   0  0  0  0  0  0
  -20.5628  -26.2266   23.3604 H   0  0  0  0  0  0
  -21.6621  -26.7418   22.1216 H   0  0  0  0  0  0
  -19.6880  -25.6274   21.1242 H   0  0  0  0  0  0
  -19.6681  -27.3164   20.6720 H   0  0  0  0  0  0
  -17.4180  -26.6675   21.4004 H   0  0  0  0  0  0
  -18.0296  -26.0085   22.9009 H   0  0  0  0  0  0
  -19.7948  -30.7280   24.2184 H   0  0  0  0  0  0
  -17.5038  -31.6260   24.5176 H   0  0  0  0  0  0
  -15.5352  -30.2965   23.7732 H   0  0  0  0  0  0
  -15.8654  -28.0828   22.7074 H   0  0  0  0  0  0
  -24.5805  -30.7165   25.7746 H   0  0  0  0  0  0
  -24.8950  -32.2957   26.4866 H   0  0  0  0  0  0
  -25.8016  -30.8898   27.0171 H   0  0  0  0  0  0
  -26.2822  -29.6764   24.1189 H   0  0  0  0  0  0
  -27.4068  -29.7299   25.4556 H   0  0  0  0  0  0
  -27.8627  -30.4320   23.9212 H   0  0  0  0  0  0
  -27.2528  -33.3602   26.2086 H   0  0  0  0  0  0
  -28.3773  -32.6984   25.0314 H   0  0  0  0  0  0
  -28.0650  -31.8464   26.5372 H   0  0  0  0  0  0
  -28.2595  -38.0095   24.7524 H   0  0  0  0  0  0
  -28.1058  -36.2642   24.6280 H   0  0  0  0  0  0
  -27.2306  -37.1463   25.8866 H   0  0  0  0  0  0
  -20.9279  -29.8776   21.6950 H   0  0  0  0  0  0
  -26.0156  -38.2855   24.1427 H   0  0  0  0  0  0
  -31.2412  -16.4474   22.5097 H   0  0  0  0  0  0
  -30.7034  -18.8318   22.6249 H   0  0  0  0  0  0
  -28.9103  -16.0982   18.9327 H   0  0  0  0  0  0
  -29.5935  -20.7875   21.9790 H   0  0  0  0  0  0
  -28.8925  -21.1766   19.0636 H   0  0  0  0  0  0
  -25.1929  -19.0248   20.6460 H   0  0  0  0  0  0
  -26.7698  -18.8882   21.4123 H   0  0  0  0  0  0
  -26.1146  -17.5438   20.5038 H   0  0  0  0  0  0
  -30.1800  -23.2666   19.9047 H   0  0  0  0  0  0
  -29.4015  -23.1290   21.4438 H   0  0  0  0  0  0
  -27.3507  -24.0846   20.6487 H   0  0  0  0  0  0
  -27.5943  -23.4672   19.0559 H   0  0  0  0  0  0
  -26.9428  -20.2302   19.2783 H   0  0  0  0  0  0
  -26.1436  -18.9680   18.4126 H   0  0  0  0  0  0
  -28.0893  -25.5482   18.3589 H   0  0  0  0  0  0
  -29.6149  -25.3292   19.0893 H   0  0  0  0  0  0
  1 25  1  0  0  0
  1 30  2  0  0  0
  1 74  1  0  0  0
  2  3  1  0  0  0
  2 25  1  0  0  0
  2 85  1  0  0  0
  2 86  1  0  0  0
  3  4  1  0  0  0
  3 87  1  0  0  0
  3 88  1  0  0  0
  4  5  1  0  0  0
  4 89  1  0  0  0
  4 90  1  0  0  0
  5  6  1  0  0  0
  5 26  1  0  0  0
  5 91  1  0  0  0
  6 25  1  0  0  0
  6 92  1  0  0  0
  6 93  1  0  0  0
  7  8  2  0  0  0
  7 26  1  0  0  0
  7 29  1  0  0  0
  8  9  1  0  0  0
  8 22  1  0  0  0
  9 10  1  0  0  0
  9 27  2  0  0  0
 10 11  2  0  0  0
 10 15  1  0  0  0
 11 12  1  0  0  0
 11 94  1  0  0  0
 12 13  2  0  0  0
 12 95  1  0  0  0
 13 14  1  0  0  0
 13 31  1  0  0  0
 14 15  2  0  0  0
 14 96  1  0  0  0
 15 97  1  0  0  0
 16 17  2  0  0  0
 16 21  1  0  0  0
 16 31  1  0  0  0
 17 18  1  0  0  0
 17 98  1  0  0  0
 18 19  2  0  0  0
 18 99  1  0  0  0
 19 20  1  0  0  0
 19 24  1  0  0  0
 20 21  2  0  0  0
 20100  1  0  0  0
 21 23  1  0  0  0
 22 28  1  0  0  0
 22 32  2  0  0  0
 26 27  1  0  0  0
 28101  1  0  0  0
 28102  1  0  0  0
 29103  1  0  0  0
 29104  1  0  0  0
 33 34  1  0  0  0
 33 66  1  0  0  0
 33 70  2  0  0  0
 34 36  1  0  0  0
 34 59  1  0  0  0
 34105  1  0  0  0
 35 44  2  0  0  0
 35 45  1  0  0  0
 35 68  1  0  0  0
 36 56  1  0  0  0
 36106  1  0  0  0
 37 39  1  0  0  0
 37 47  1  0  0  0
 37 66  1  0  0  0
 37107  1  0  0  0
 38 43  2  0  0  0
 38 46  1  0  0  0
 38 47  1  0  0  0
 39 64  1  0  0  0
 39 67  2  0  0  0
 40 52  1  0  0  0
 40 53  2  0  0  0
 40 58  1  0  0  0
 41108  1  0  0  0
 41109  1  0  0  0
 41110  1  0  0  0
 41 48  1  0  0  0
 42 43  1  0  0  0
 42 66  1  0  0  0
 42111  1  0  0  0
 42112  1  0  0  0
 43 44  1  0  0  0
 44113  1  0  0  0
 45 46  2  0  0  0
 45114  1  0  0  0
 46115  1  0  0  0
 47116  1  0  0  0
 47117  1  0  0  0
 48 56  1  0  0  0
 48 65  1  0  0  0
 48118  1  0  0  0
 49 50  1  0  0  0
 49 53  1  0  0  0
 49 64  1  0  0  0
 49119  1  0  0  0
 50 51  1  0  0  0
 50120  1  0  0  0
 50121  1  0  0  0
 51 52  1  0  0  0
 51122  1  0  0  0
 51123  1  0  0  0
 52124  1  0  0  0
 52125  1  0  0  0
 53 54  1  0  0  0
 54 55  2  0  0  0
 54126  1  0  0  0
 55 57  1  0  0  0
 55127  1  0  0  0
 56 69  2  0  0  0
 57 58  2  0  0  0
 57128  1  0  0  0
 58129  1  0  0  0
 59 60  1  0  0  0
 59 61  1  0  0  0
 59 62  1  0  0  0
 60130  1  0  0  0
 60131  1  0  0  0
 60132  1  0  0  0
 61133  1  0  0  0
 61134  1  0  0  0
 61135  1  0  0  0
 62136  1  0  0  0
 62137  1  0  0  0
 62138  1  0  0  0
 63 65  1  0  0  0
 63139  1  0  0  0
 63140  1  0  0  0
 63141  1  0  0  0
 64142  1  0  0  0
 65143  1  0  0  0
 68 83  1  0  0  0
 71 72  2  0  0  0
 71 74  1  0  0  0
 71144  1  0  0  0
 72 75  1  0  0  0
 72145  1  0  0  0
 73 74  2  0  0  0
 73 76  1  0  0  0
 73146  1  0  0  0
 75 76  2  0  0  0
 75 77  1  0  0  0
 76 84  1  0  0  0
 77 78  2  0  0  0
 77147  1  0  0  0
 78 80  1  0  0  0
 78148  1  0  0  0
 79 82  1  0  0  0
 79149  1  0  0  0
 79150  1  0  0  0
 79151  1  0  0  0
 80 81  1  0  0  0
 80152  1  0  0  0
 80153  1  0  0  0
 81 83  1  0  0  0
 81154  1  0  0  0
 81155  1  0  0  0
 82 84  1  0  0  0
 82156  1  0  0  0
 82157  1  0  0  0
 83158  1  0  0  0
 83159  1  0  0  0
M  ISO  4   1 100  68 101  74 100  83 101
M  END
> <chiral flag>
0

> <version>
0

> <s_m_source_file>
/data/baiqing/PycharmProjects/Reinvent-master-3.2/result/LINK_invent/BTK/process_docking_weight1_custom_product_contain_oxygen_bond_distance_aromatic_linkinvent_7_9_3/rearranged_h_0127.sdf

> <i_m_source_file_index>
59

> <r_mmod_Potential_Energy-OPLS-2005>
184.161056518555

> <r_mmod_Stretch_Energy-OPLS-2005>
69.7714080810547

> <r_mmod_Bend_Energy-OPLS-2005>
165.482345581055

> <r_mmod_Torsional_Energy-OPLS-2005>
245.904968261719

> <r_mmod_Improper_Torsional_Energy-OPLS-2005>
7.77029228210449

> <r_mmod_Van_der_Waal_Energy-OPLS-2005>
142.402862548828

> <r_mmod_Electrostatic_Energy-OPLS-2005>
-306.65869140625

> <r_mmod_Solvation_Energy-OPLS-2005>
-186.467041015625

> <b_mmod_Minimization_Converged-OPLS-2005>
0

> <r_mmod_RMS_Derivative-OPLS-2005>
3.41314792633057

$$$$
59
                    3D
 Structure written by MMmdl.
145153  0  0  1  0            999 V2000
  -30.6081  -15.0689   20.3910 C   0  0  0  0  0  0
  -30.4384  -12.6674   19.5660 C   0  0  0  0  0  0
  -29.5536  -12.5840   18.3069 C   0  0  0  0  0  0
  -28.0930  -12.3389   18.7163 C   0  0  0  0  0  0
  -27.6361  -13.2974   19.8492 C   0  0  2  0  0  0
  -28.6677  -13.4402   20.9937 C   0  0  0  0  0  0
  -25.2491  -13.8335   20.5829 C   0  0  0  0  0  0
  -24.1845  -13.0444   20.9292 C   0  0  0  0  0  0
  -24.6542  -11.6999   20.8780 C   0  0  0  0  0  0
  -23.9248  -10.4338   21.0478 C   0  0  0  0  0  0
  -24.3752   -9.4236   21.9240 C   0  0  0  0  0  0
  -23.6380   -8.2285   22.0780 C   0  0  0  0  0  0
  -22.4344   -8.0360   21.3582 C   0  0  0  0  0  0
  -22.0049   -9.0371   20.4687 C   0  0  0  0  0  0
  -22.7446  -10.2212   20.3114 C   0  0  0  0  0  0
  -21.6881   -6.0830   22.5298 C   0  0  0  0  0  0
  -21.4063   -6.5720   23.8262 C   0  0  0  0  0  0
  -21.3676   -5.6832   24.9199 C   0  0  0  0  0  0
  -21.6031   -4.3103   24.7203 C   0  0  0  0  0  0
  -21.8799   -3.8227   23.4321 C   0  0  0  0  0  0
  -21.9172   -4.7051   22.3393 C   0  0  0  0  0  0
  -22.7845  -13.5210   21.1853 C   0  0  0  0  0  0
  -22.1638   -4.2272   21.0979 F   0  0  0  0  0  0
  -21.5581   -3.4542   25.7696 F   0  0  0  0  0  0
  -29.9518  -13.8220   20.3890 N   0  0  0  0  0  0
  -26.2991  -12.9683   20.3364 N   0  0  0  0  0  0
  -25.9505  -11.6758   20.5798 N   0  0  0  0  0  0
  -22.0482  -12.8245   22.0470 N   0  0  0  0  0  0
  -25.3989  -15.2070   20.4305 N   0  0  0  0  0  0
  -31.7940  -14.9932   20.0483 O   0  0  0  0  0  0
  -21.6664   -6.8998   21.4285 O   0  0  0  0  0  0
  -22.3561  -14.5525   20.6742 O   0  0  0  0  0  0
  -24.6544  -31.8359   23.1891 C   0  0  0  0  0  0
  -25.9282  -32.4660   23.8288 C   0  0  1  0  0  0
  -27.2017  -27.0628   20.1438 C   0  0  0  0  0  0
  -25.6026  -33.8478   24.2216 N   0  0  0  0  0  0
  -23.4610  -30.4627   21.5284 C   0  0  2  0  0  0
  -24.9061  -28.8822   20.1079 C   0  0  0  0  0  0
  -22.7614  -29.4469   22.4714 C   0  0  0  0  0  0
  -18.0327  -28.1421   22.8459 C   0  0  0  0  0  0
  -24.1478  -36.7311   23.2638 C   0  0  0  0  0  0
  -26.0191  -30.6878   21.3923 C   0  0  0  0  0  0
  -26.0880  -29.2900   20.7402 C   0  0  0  0  0  0
  -27.2342  -28.3978   20.7459 C   0  0  0  0  0  0
  -25.9905  -26.7739   19.4783 C   0  0  0  0  0  0
  -24.8717  -27.6360   19.4686 C   0  0  0  0  0  0
  -23.7033  -29.8164   20.1389 C   0  0  0  0  0  0
  -25.4089  -36.3022   24.0319 C   0  0  1  0  0  0
  -20.5916  -28.3736   23.1234 C   0  0  2  0  0  0
  -20.6767  -26.9414   22.5421 C   0  0  0  0  0  0
  -19.5752  -26.6375   21.5223 C   0  0  0  0  0  0
  -18.1937  -26.7951   22.1621 C   0  0  0  0  0  0
  -19.1576  -28.8898   23.2837 C   0  0  0  0  0  0
  -18.9477  -30.1469   23.8904 C   0  0  0  0  0  0
  -17.6474  -30.6581   24.0604 C   0  0  0  0  0  0
  -25.9041  -34.9398   23.5051 C   0  0  0  0  0  0
  -16.5374  -29.9107   23.6301 C   0  0  0  0  0  0
  -16.7310  -28.6530   23.0312 C   0  0  0  0  0  0
  -26.4577  -31.6564   25.0756 C   0  0  0  0  0  0
  -25.3838  -31.3828   26.1537 C   0  0  0  0  0  0
  -27.0444  -30.2971   24.6317 C   0  0  0  0  0  0
  -27.6017  -32.4374   25.7627 C   0  0  0  0  0  0
  -27.5555  -37.1826   24.8440 C   0  0  0  0  0  0
  -21.4263  -29.3110   22.3615 N   0  0  0  0  0  0
  -26.4232  -37.3747   23.9426 N   0  0  0  0  0  0
  -24.7320  -31.0158   22.0952 N   0  0  0  0  0  0
  -23.4219  -28.7871   23.2776 O   0  0  0  0  0  0
  -28.2165  -26.0155   20.1984 O   0  0  0  0  0  0
  -26.5543  -34.8904   22.4581 O   0  0  0  0  0  0
  -23.5667  -32.1242   23.7103 O   0  0  0  0  0  0
  -30.2192  -18.7908   21.6282 C   0  0  0  0  0  0
  -30.5302  -17.3783   21.8010 C   0  0  0  0  0  0
  -29.5565  -19.0083   20.4430 C   0  0  0  0  0  0
  -30.1089  -16.6012   20.7395 C   0  0  0  0  0  0
  -28.9375  -20.2511   19.7237 C   0  0  0  0  0  0
  -28.6448  -21.6666   19.5970 C   0  0  0  0  0  0
  -28.8692  -23.1474   20.2224 C   0  0  0  0  0  0
  -27.8885  -24.4902   19.8823 C   0  0  0  0  0  0
  -29.8479  -23.3565   20.9449 O   0  0  0  0  0  0
  -29.5269  -17.6423   19.8810 O   0  0  0  0  0  0
  -31.4847  -12.7697   19.2734 H   0  0  0  0  0  0
  -30.3926  -11.7430   20.1427 H   0  0  0  0  0  0
  -29.9132  -11.7953   17.6483 H   0  0  0  0  0  0
  -29.6289  -13.5207   17.7565 H   0  0  0  0  0  0
  -28.0318  -11.3073   19.0639 H   0  0  0  0  0  0
  -27.4312  -12.4132   17.8519 H   0  0  0  0  0  0
  -27.5779  -14.2845   19.3830 H   0  0  0  0  0  0
  -28.7538  -12.5352   21.5966 H   0  0  0  0  0  0
  -28.3624  -14.2293   21.6851 H   0  0  0  0  0  0
  -25.2887   -9.5674   22.4837 H   0  0  0  0  0  0
  -24.0060   -7.4692   22.7522 H   0  0  0  0  0  0
  -21.0975   -8.9060   19.8975 H   0  0  0  0  0  0
  -22.4046  -10.9818   19.6237 H   0  0  0  0  0  0
  -21.2174   -7.6224   23.9856 H   0  0  0  0  0  0
  -21.1479   -6.0524   25.9131 H   0  0  0  0  0  0
  -22.0549   -2.7679   23.2776 H   0  0  0  0  0  0
  -22.4037  -11.9896   22.4861 H   0  0  0  0  0  0
  -21.1129  -13.1389   22.2674 H   0  0  0  0  0  0
  -24.6213  -15.8401   20.5915 H   0  0  0  0  0  0
  -26.2365  -15.6802   20.1145 H   0  0  0  0  0  0
  -26.7335  -32.5254   23.1010 H   0  0  0  0  0  0
  -25.0442  -33.9563   25.0554 H   0  0  0  0  0  0
  -22.7713  -31.2948   21.3778 H   0  0  0  0  0  0
  -23.3675  -35.9705   23.3276 H   0  0  0  0  0  0
  -24.3570  -36.8965   22.2053 H   0  0  0  0  0  0
  -23.7311  -37.6547   23.6681 H   0  0  0  0  0  0
  -26.1641  -31.4241   20.5994 H   0  0  0  0  0  0
  -26.8978  -30.7604   22.0188 H   0  0  0  0  0  0
  -28.1315  -28.6967   21.2742 H   0  0  0  0  0  0
  -25.8751  -25.8280   18.9730 H   0  0  0  0  0  0
  -23.9710  -27.3113   18.9690 H   0  0  0  0  0  0
  -23.9170  -30.6150   19.4240 H   0  0  0  0  0  0
  -22.8056  -29.3193   19.7656 H   0  0  0  0  0  0
  -25.1265  -36.1835   25.0801 H   0  0  0  0  0  0
  -21.0071  -28.3339   24.1332 H   0  0  0  0  0  0
  -20.5598  -26.2350   23.3645 H   0  0  0  0  0  0
  -21.6630  -26.7332   22.1270 H   0  0  0  0  0  0
  -19.6859  -25.6271   21.1287 H   0  0  0  0  0  0
  -19.6713  -27.3149   20.6730 H   0  0  0  0  0  0
  -17.4192  -26.6726   21.4035 H   0  0  0  0  0  0
  -18.0295  -26.0104   22.9025 H   0  0  0  0  0  0
  -19.7959  -30.7282   24.2282 H   0  0  0  0  0  0
  -17.5038  -31.6247   24.5231 H   0  0  0  0  0  0
  -15.5376  -30.3035   23.7604 H   0  0  0  0  0  0
  -15.8708  -28.0895   22.6986 H   0  0  0  0  0  0
  -24.5954  -30.7156   25.8044 H   0  0  0  0  0  0
  -24.9139  -32.3076   26.4929 H   0  0  0  0  0  0
  -25.8265  -30.9140   27.0353 H   0  0  0  0  0  0
  -26.3070  -29.6700   24.1291 H   0  0  0  0  0  0
  -27.4063  -29.7234   25.4857 H   0  0  0  0  0  0
  -27.8974  -30.4212   23.9630 H   0  0  0  0  0  0
  -27.2461  -33.3644   26.2161 H   0  0  0  0  0  0
  -28.3951  -32.7006   25.0615 H   0  0  0  0  0  0
  -28.0563  -31.8571   26.5676 H   0  0  0  0  0  0
  -28.2515  -38.0163   24.7444 H   0  0  0  0  0  0
  -28.1089  -36.2681   24.6270 H   0  0  0  0  0  0
  -27.2298  -37.1518   25.8847 H   0  0  0  0  0  0
  -20.9402  -29.9144   21.7133 H   0  0  0  0  0  0
  -26.0076  -38.2792   24.1487 H   0  0  0  0  0  0
  -30.4844  -19.5796   22.3195 H   0  0  0  0  0  0
  -31.0858  -16.9711   22.6381 H   0  0  0  0  0  0
  -28.4660  -19.7998   18.8571 H   0  0  0  0  0  0
  -28.0414  -21.8088   18.7083 H   0  0  0  0  0  0
  -26.9291  -24.2755   20.3627 H   0  0  0  0  0  0
  -27.6674  -24.4403   18.8124 H   0  0  0  0  0  0
  1 25  1  0  0  0
  1 30  2  0  0  0
  1 74  1  0  0  0
  2  3  1  0  0  0
  2 25  1  0  0  0
  2 81  1  0  0  0
  2 82  1  0  0  0
  3  4  1  0  0  0
  3 83  1  0  0  0
  3 84  1  0  0  0
  4  5  1  0  0  0
  4 85  1  0  0  0
  4 86  1  0  0  0
  5  6  1  0  0  0
  5 26  1  0  0  0
  5 87  1  0  0  0
  6 25  1  0  0  0
  6 88  1  0  0  0
  6 89  1  0  0  0
  7  8  2  0  0  0
  7 26  1  0  0  0
  7 29  1  0  0  0
  8  9  1  0  0  0
  8 22  1  0  0  0
  9 10  1  0  0  0
  9 27  2  0  0  0
 10 11  2  0  0  0
 10 15  1  0  0  0
 11 12  1  0  0  0
 11 90  1  0  0  0
 12 13  2  0  0  0
 12 91  1  0  0  0
 13 14  1  0  0  0
 13 31  1  0  0  0
 14 15  2  0  0  0
 14 92  1  0  0  0
 15 93  1  0  0  0
 16 17  2  0  0  0
 16 21  1  0  0  0
 16 31  1  0  0  0
 17 18  1  0  0  0
 17 94  1  0  0  0
 18 19  2  0  0  0
 18 95  1  0  0  0
 19 20  1  0  0  0
 19 24  1  0  0  0
 20 21  2  0  0  0
 20 96  1  0  0  0
 21 23  1  0  0  0
 22 28  1  0  0  0
 22 32  2  0  0  0
 26 27  1  0  0  0
 28 97  1  0  0  0
 28 98  1  0  0  0
 29 99  1  0  0  0
 29100  1  0  0  0
 33 34  1  0  0  0
 33 66  1  0  0  0
 33 70  2  0  0  0
 34 36  1  0  0  0
 34 59  1  0  0  0
 34101  1  0  0  0
 35 44  2  0  0  0
 35 45  1  0  0  0
 35 68  1  0  0  0
 36 56  1  0  0  0
 36102  1  0  0  0
 37 39  1  0  0  0
 37 47  1  0  0  0
 37 66  1  0  0  0
 37103  1  0  0  0
 38 43  2  0  0  0
 38 46  1  0  0  0
 38 47  1  0  0  0
 39 64  1  0  0  0
 39 67  2  0  0  0
 40 52  1  0  0  0
 40 53  2  0  0  0
 40 58  1  0  0  0
 41104  1  0  0  0
 41105  1  0  0  0
 41106  1  0  0  0
 41 48  1  0  0  0
 42 43  1  0  0  0
 42 66  1  0  0  0
 42107  1  0  0  0
 42108  1  0  0  0
 43 44  1  0  0  0
 44109  1  0  0  0
 45 46  2  0  0  0
 45110  1  0  0  0
 46111  1  0  0  0
 47112  1  0  0  0
 47113  1  0  0  0
 48 56  1  0  0  0
 48 65  1  0  0  0
 48114  1  0  0  0
 49 50  1  0  0  0
 49 53  1  0  0  0
 49 64  1  0  0  0
 49115  1  0  0  0
 50 51  1  0  0  0
 50116  1  0  0  0
 50117  1  0  0  0
 51 52  1  0  0  0
 51118  1  0  0  0
 51119  1  0  0  0
 52120  1  0  0  0
 52121  1  0  0  0
 53 54  1  0  0  0
 54 55  2  0  0  0
 54122  1  0  0  0
 55 57  1  0  0  0
 55123  1  0  0  0
 56 69  2  0  0  0
 57 58  2  0  0  0
 57124  1  0  0  0
 58125  1  0  0  0
 59 60  1  0  0  0
 59 61  1  0  0  0
 59 62  1  0  0  0
 60126  1  0  0  0
 60127  1  0  0  0
 60128  1  0  0  0
 61129  1  0  0  0
 61130  1  0  0  0
 61131  1  0  0  0
 62132  1  0  0  0
 62133  1  0  0  0
 62134  1  0  0  0
 63 65  1  0  0  0
 63135  1  0  0  0
 63136  1  0  0  0
 63137  1  0  0  0
 64138  1  0  0  0
 65139  1  0  0  0
 68 78  1  0  0  0
 71 72  1  0  0  0
 71 73  2  0  0  0
 71140  1  0  0  0
 72 74  2  0  0  0
 72141  1  0  0  0
 73 75  1  0  0  0
 73 80  1  0  0  0
 74 80  1  0  0  0
 75 76  2  0  0  0
 75142  1  0  0  0
 76 77  1  0  0  0
 76143  1  0  0  0
 77 78  1  0  0  0
 77 79  2  0  0  0
 78144  1  0  0  0
 78145  1  0  0  0
M  ISO  4   1 100  68 101  74 100  78 101
M  END
> <chiral flag>
0

> <version>
0

> <s_m_source_file>
/data/baiqing/PycharmProjects/Reinvent-master-3.2/result/LINK_invent/BTK/process_docking_weight1_custom_product_contain_oxygen_bond_distance_aromatic_linkinvent_7_9_3/rearranged_h_0127.sdf

> <i_m_source_file_index>
60

> <r_mmod_Potential_Energy-OPLS-2005>
864.945373535156

> <r_mmod_Stretch_Energy-OPLS-2005>
341.775787353516

> <r_mmod_Bend_Energy-OPLS-2005>
398.776153564453

> <r_mmod_Torsional_Energy-OPLS-2005>
214.796463012695

> <r_mmod_Improper_Torsional_Energy-OPLS-2005>
5.49022531509399

> <r_mmod_Van_der_Waal_Energy-OPLS-2005>
113.925987243652

> <r_mmod_Electrostatic_Energy-OPLS-2005>
-265.615051269531

> <r_mmod_Solvation_Energy-OPLS-2005>
-224.421798706055

> <b_mmod_Minimization_Converged-OPLS-2005>
0

> <r_mmod_RMS_Derivative-OPLS-2005>
8.10059833526611

$$$$
60
                    3D
 Structure written by MMmdl.
154162  0  0  1  0            999 V2000
  -30.5314  -14.8969   20.4630 C   0  0  0  0  0  0
  -30.4497  -12.5556   19.4800 C   0  0  0  0  0  0
  -29.5243  -12.5392   18.2398 C   0  0  0  0  0  0
  -28.0501  -12.3287   18.6517 C   0  0  0  0  0  0
  -27.6393  -13.2352   19.8432 C   0  0  2  0  0  0
  -28.6922  -13.1991   20.9740 C   0  0  0  0  0  0
  -25.2549  -13.8145   20.5706 C   0  0  0  0  0  0
  -24.1852  -13.0429   20.9200 C   0  0  0  0  0  0
  -24.6401  -11.6868   20.8674 C   0  0  0  0  0  0
  -23.9072  -10.4271   21.0346 C   0  0  0  0  0  0
  -24.3643   -9.4193   21.9120 C   0  0  0  0  0  0
  -23.6322   -8.2234   22.0727 C   0  0  0  0  0  0
  -22.4287   -8.0271   21.3549 C   0  0  0  0  0  0
  -21.9933   -9.0217   20.4626 C   0  0  0  0  0  0
  -22.7252  -10.2094   20.2998 C   0  0  0  0  0  0
  -21.6853   -6.0739   22.5266 C   0  0  0  0  0  0
  -21.3992   -6.5638   23.8196 C   0  0  0  0  0  0
  -21.3655   -5.6784   24.9157 C   0  0  0  0  0  0
  -21.6059   -4.3049   24.7198 C   0  0  0  0  0  0
  -21.8829   -3.8159   23.4314 C   0  0  0  0  0  0
  -21.9204   -4.6979   22.3383 C   0  0  0  0  0  0
  -22.7856  -13.5168   21.1902 C   0  0  0  0  0  0
  -22.1674   -4.2163   21.0958 F   0  0  0  0  0  0
  -21.5658   -3.4535   25.7717 F   0  0  0  0  0  0
  -29.9661  -13.6296   20.3884 N   0  0  0  0  0  0
  -26.2947  -12.9357   20.3228 N   0  0  0  0  0  0
  -25.9326  -11.6475   20.5631 N   0  0  0  0  0  0
  -22.0557  -12.8107   22.0409 N   0  0  0  0  0  0
  -25.4294  -15.1888   20.4222 N   0  0  0  0  0  0
  -31.7302  -15.0217   20.1943 O   0  0  0  0  0  0
  -21.6654   -6.8877   21.4226 O   0  0  0  0  0  0
  -22.3516  -14.5483   20.6779 O   0  0  0  0  0  0
  -24.6335  -31.8482   23.1991 C   0  0  0  0  0  0
  -25.9136  -32.4692   23.8362 C   0  0  1  0  0  0
  -27.2140  -27.1898   20.1735 C   0  0  0  0  0  0
  -25.6005  -33.8484   24.2296 N   0  0  0  0  0  0
  -23.4366  -30.4681   21.5419 C   0  0  2  0  0  0
  -24.8860  -28.8907   20.1279 C   0  0  0  0  0  0
  -22.7505  -29.4586   22.4923 C   0  0  0  0  0  0
  -18.0302  -28.1402   22.8419 C   0  0  0  0  0  0
  -24.1528  -36.7165   23.2676 C   0  0  0  0  0  0
  -25.9854  -30.7364   21.3931 C   0  0  0  0  0  0
  -26.0618  -29.3570   20.7265 C   0  0  0  0  0  0
  -27.2324  -28.5205   20.7258 C   0  0  0  0  0  0
  -26.0026  -26.7817   19.5759 C   0  0  0  0  0  0
  -24.8590  -27.6116   19.5477 C   0  0  0  0  0  0
  -23.6658  -29.7958   20.1625 C   0  0  0  0  0  0
  -25.4159  -36.2970   24.0374 C   0  0  1  0  0  0
  -20.5930  -28.3633   23.1235 C   0  0  2  0  0  0
  -20.6778  -26.9345   22.5380 C   0  0  0  0  0  0
  -19.5781  -26.6359   21.5167 C   0  0  0  0  0  0
  -18.1971  -26.7959   22.1578 C   0  0  0  0  0  0
  -19.1567  -28.8840   23.2843 C   0  0  0  0  0  0
  -18.9524  -30.1413   23.8881 C   0  0  0  0  0  0
  -17.6552  -30.6612   24.0492 C   0  0  0  0  0  0
  -25.9062  -34.9367   23.5096 C   0  0  0  0  0  0
  -16.5410  -29.9111   23.6313 C   0  0  0  0  0  0
  -16.7308  -28.6531   23.0356 C   0  0  0  0  0  0
  -26.4549  -31.6583   25.0773 C   0  0  0  0  0  0
  -25.3743  -31.3765   26.1455 C   0  0  0  0  0  0
  -27.0470  -30.3045   24.6310 C   0  0  0  0  0  0
  -27.6110  -32.4355   25.7514 C   0  0  0  0  0  0
  -27.5597  -37.1764   24.8478 C   0  0  0  0  0  0
  -21.4209  -29.3001   22.3576 N   0  0  0  0  0  0
  -26.4316  -37.3692   23.9390 N   0  0  0  0  0  0
  -24.7032  -31.0384   22.0990 N   0  0  0  0  0  0
  -23.4110  -28.8172   23.3135 O   0  0  0  0  0  0
  -28.3084  -26.2761   20.1539 O   0  0  0  0  0  0
  -26.5496  -34.8832   22.4561 O   0  0  0  0  0  0
  -23.5468  -32.1435   23.7215 O   0  0  0  0  0  0
  -30.0768  -19.7709   21.7316 C   0  0  0  0  0  0
  -30.2573  -18.3336   21.6545 C   0  0  0  0  0  0
  -29.0347  -18.3383   19.6357 C   0  0  0  0  0  0
  -28.8431  -19.7807   19.7043 C   0  0  0  0  0  0
  -29.3590  -20.5788   20.7801 C   0  0  0  0  0  0
  -29.7386  -17.5242   20.5936 C   0  0  0  0  0  0
  -26.8379  -20.7374   18.5930 C   0  0  0  0  0  0
  -28.1463  -20.4239   18.5841 C   0  0  0  0  0  0
  -29.1834  -22.1908   21.0591 C   0  0  0  0  0  0
  -28.5774  -23.4093   20.0944 C   0  0  0  0  0  0
  -28.2029  -24.8793   20.7669 C   0  0  0  0  0  0
  -29.6622  -16.0016   20.6067 N   0  0  0  0  0  0
  -31.4833  -12.7173   19.1767 H   0  0  0  0  0  0
  -30.4343  -11.5852   19.9780 H   0  0  0  0  0  0
  -29.8310  -11.7517   17.5498 H   0  0  0  0  0  0
  -29.6265  -13.4812   17.6971 H   0  0  0  0  0  0
  -27.9366  -11.2810   18.9372 H   0  0  0  0  0  0
  -27.3889  -12.4815   17.7979 H   0  0  0  0  0  0
  -27.6128  -14.2472   19.4400 H   0  0  0  0  0  0
  -28.7837  -12.1903   21.3803 H   0  0  0  0  0  0
  -28.4121  -13.8412   21.8073 H   0  0  0  0  0  0
  -25.2789   -9.5681   22.4706 H   0  0  0  0  0  0
  -24.0065   -7.4604   22.7413 H   0  0  0  0  0  0
  -21.0888   -8.8673   19.8911 H   0  0  0  0  0  0
  -22.3667  -10.9625   19.6117 H   0  0  0  0  0  0
  -21.1934   -7.6131   23.9688 H   0  0  0  0  0  0
  -21.1492   -6.0513   25.9053 H   0  0  0  0  0  0
  -22.0625   -2.7625   23.2789 H   0  0  0  0  0  0
  -22.4235  -11.9740   22.4723 H   0  0  0  0  0  0
  -21.1136  -13.1011   22.2578 H   0  0  0  0  0  0
  -24.6694  -15.8458   20.5614 H   0  0  0  0  0  0
  -26.2713  -15.6315   20.0849 H   0  0  0  0  0  0
  -26.7135  -32.5343   23.1040 H   0  0  0  0  0  0
  -25.0226  -33.9679   25.0489 H   0  0  0  0  0  0
  -22.7382  -31.2943   21.3904 H   0  0  0  0  0  0
  -23.3815  -35.9465   23.3305 H   0  0  0  0  0  0
  -24.3634  -36.8746   22.2093 H   0  0  0  0  0  0
  -23.7275  -37.6382   23.6621 H   0  0  0  0  0  0
  -26.1554  -31.5112   20.6460 H   0  0  0  0  0  0
  -26.8466  -30.7623   22.0523 H   0  0  0  0  0  0
  -28.1381  -28.8743   21.1993 H   0  0  0  0  0  0
  -25.9275  -25.7870   19.1651 H   0  0  0  0  0  0
  -23.9421  -27.2363   19.1123 H   0  0  0  0  0  0
  -23.8118  -30.5691   19.4090 H   0  0  0  0  0  0
  -22.7829  -29.2381   19.8483 H   0  0  0  0  0  0
  -25.1376  -36.1812   25.0887 H   0  0  0  0  0  0
  -20.9968  -28.3256   24.1383 H   0  0  0  0  0  0
  -20.5617  -26.2273   23.3594 H   0  0  0  0  0  0
  -21.6669  -26.7351   22.1217 H   0  0  0  0  0  0
  -19.6877  -25.6251   21.1238 H   0  0  0  0  0  0
  -19.6797  -27.3117   20.6650 H   0  0  0  0  0  0
  -17.4202  -26.6596   21.4021 H   0  0  0  0  0  0
  -18.0359  -26.0234   22.9114 H   0  0  0  0  0  0
  -19.8029  -30.7143   24.2362 H   0  0  0  0  0  0
  -17.5150  -31.6330   24.5018 H   0  0  0  0  0  0
  -15.5417  -30.2989   23.7721 H   0  0  0  0  0  0
  -15.8716  -28.0781   22.7169 H   0  0  0  0  0  0
  -24.5894  -30.7191   25.7724 H   0  0  0  0  0  0
  -24.8996  -32.2961   26.4895 H   0  0  0  0  0  0
  -25.8049  -30.8885   27.0216 H   0  0  0  0  0  0
  -26.3176  -29.6778   24.1209 H   0  0  0  0  0  0
  -27.4053  -29.7396   25.4946 H   0  0  0  0  0  0
  -27.9028  -30.4388   23.9679 H   0  0  0  0  0  0
  -27.2708  -33.3638   26.2142 H   0  0  0  0  0  0
  -28.3849  -32.6984   25.0279 H   0  0  0  0  0  0
  -28.0831  -31.8432   26.5376 H   0  0  0  0  0  0
  -28.2632  -38.0061   24.7457 H   0  0  0  0  0  0
  -28.1087  -36.2574   24.6370 H   0  0  0  0  0  0
  -27.2235  -37.1473   25.8869 H   0  0  0  0  0  0
  -20.9362  -29.8747   21.6824 H   0  0  0  0  0  0
  -26.0169  -38.2750   24.1421 H   0  0  0  0  0  0
  -30.4900  -20.2667   22.5977 H   0  0  0  0  0  0
  -30.7820  -17.8571   22.4698 H   0  0  0  0  0  0
  -28.5729  -17.8246   18.8082 H   0  0  0  0  0  0
  -26.3664  -21.1983   17.7376 H   0  0  0  0  0  0
  -26.2085  -20.5428   19.4521 H   0  0  0  0  0  0
  -28.7551  -20.6434   17.7146 H   0  0  0  0  0  0
  -30.1978  -22.5163   21.3252 H   0  0  0  0  0  0
  -28.6548  -22.2502   22.0170 H   0  0  0  0  0  0
  -29.2736  -23.5629   19.2615 H   0  0  0  0  0  0
  -27.6524  -23.0775   19.6104 H   0  0  0  0  0  0
  -28.8724  -24.9429   21.6257 H   0  0  0  0  0  0
  -27.2110  -24.7884   21.2190 H   0  0  0  0  0  0
  -28.7088  -15.6776   20.6163 H   0  0  0  0  0  0
  1 25  1  0  0  0
  1 30  2  0  0  0
  1 82  1  0  0  0
  2  3  1  0  0  0
  2 25  1  0  0  0
  2 83  1  0  0  0
  2 84  1  0  0  0
  3  4  1  0  0  0
  3 85  1  0  0  0
  3 86  1  0  0  0
  4  5  1  0  0  0
  4 87  1  0  0  0
  4 88  1  0  0  0
  5  6  1  0  0  0
  5 26  1  0  0  0
  5 89  1  0  0  0
  6 25  1  0  0  0
  6 90  1  0  0  0
  6 91  1  0  0  0
  7  8  2  0  0  0
  7 26  1  0  0  0
  7 29  1  0  0  0
  8  9  1  0  0  0
  8 22  1  0  0  0
  9 10  1  0  0  0
  9 27  2  0  0  0
 10 11  2  0  0  0
 10 15  1  0  0  0
 11 12  1  0  0  0
 11 92  1  0  0  0
 12 13  2  0  0  0
 12 93  1  0  0  0
 13 14  1  0  0  0
 13 31  1  0  0  0
 14 15  2  0  0  0
 14 94  1  0  0  0
 15 95  1  0  0  0
 16 17  2  0  0  0
 16 21  1  0  0  0
 16 31  1  0  0  0
 17 18  1  0  0  0
 17 96  1  0  0  0
 18 19  2  0  0  0
 18 97  1  0  0  0
 19 20  1  0  0  0
 19 24  1  0  0  0
 20 21  2  0  0  0
 20 98  1  0  0  0
 21 23  1  0  0  0
 22 28  1  0  0  0
 22 32  2  0  0  0
 26 27  1  0  0  0
 28 99  1  0  0  0
 28100  1  0  0  0
 29101  1  0  0  0
 29102  1  0  0  0
 33 34  1  0  0  0
 33 66  1  0  0  0
 33 70  2  0  0  0
 34 36  1  0  0  0
 34 59  1  0  0  0
 34103  1  0  0  0
 35 44  2  0  0  0
 35 45  1  0  0  0
 35 68  1  0  0  0
 36 56  1  0  0  0
 36104  1  0  0  0
 37 39  1  0  0  0
 37 47  1  0  0  0
 37 66  1  0  0  0
 37105  1  0  0  0
 38 43  2  0  0  0
 38 46  1  0  0  0
 38 47  1  0  0  0
 39 64  1  0  0  0
 39 67  2  0  0  0
 40 52  1  0  0  0
 40 53  2  0  0  0
 40 58  1  0  0  0
 41106  1  0  0  0
 41107  1  0  0  0
 41108  1  0  0  0
 41 48  1  0  0  0
 42 43  1  0  0  0
 42 66  1  0  0  0
 42109  1  0  0  0
 42110  1  0  0  0
 43 44  1  0  0  0
 44111  1  0  0  0
 45 46  2  0  0  0
 45112  1  0  0  0
 46113  1  0  0  0
 47114  1  0  0  0
 47115  1  0  0  0
 48 56  1  0  0  0
 48 65  1  0  0  0
 48116  1  0  0  0
 49 50  1  0  0  0
 49 53  1  0  0  0
 49 64  1  0  0  0
 49117  1  0  0  0
 50 51  1  0  0  0
 50118  1  0  0  0
 50119  1  0  0  0
 51 52  1  0  0  0
 51120  1  0  0  0
 51121  1  0  0  0
 52122  1  0  0  0
 52123  1  0  0  0
 53 54  1  0  0  0
 54 55  2  0  0  0
 54124  1  0  0  0
 55 57  1  0  0  0
 55125  1  0  0  0
 56 69  2  0  0  0
 57 58  2  0  0  0
 57126  1  0  0  0
 58127  1  0  0  0
 59 60  1  0  0  0
 59 61  1  0  0  0
 59 62  1  0  0  0
 60128  1  0  0  0
 60129  1  0  0  0
 60130  1  0  0  0
 61131  1  0  0  0
 61132  1  0  0  0
 61133  1  0  0  0
 62134  1  0  0  0
 62135  1  0  0  0
 62136  1  0  0  0
 63 65  1  0  0  0
 63137  1  0  0  0
 63138  1  0  0  0
 63139  1  0  0  0
 64140  1  0  0  0
 65141  1  0  0  0
 68 81  1  0  0  0
 71 72  2  0  0  0
 71 75  1  0  0  0
 71142  1  0  0  0
 72 76  1  0  0  0
 72143  1  0  0  0
 73 74  1  0  0  0
 73 76  2  0  0  0
 73144  1  0  0  0
 74 75  2  0  0  0
 74 78  1  0  0  0
 75 79  1  0  0  0
 76 82  1  0  0  0
 77 78  2  0  0  0
 77145  1  0  0  0
 77146  1  0  0  0
 78147  1  0  0  0
 79 80  1  0  0  0
 79148  1  0  0  0
 79149  1  0  0  0
 80 81  1  0  0  0
 80150  1  0  0  0
 80151  1  0  0  0
 81152  1  0  0  0
 81153  1  0  0  0
 82154  1  0  0  0
M  ISO  4   1 100  68 101  81 101  82 100
M  END
> <chiral flag>
0

> <version>
0

> <s_m_source_file>
/data/baiqing/PycharmProjects/Reinvent-master-3.2/result/LINK_invent/BTK/process_docking_weight1_custom_product_contain_oxygen_bond_distance_aromatic_linkinvent_7_9_3/rearranged_h_0127.sdf

> <i_m_source_file_index>
61

> <r_mmod_Potential_Energy-OPLS-2005>
443.1513671875

> <r_mmod_Stretch_Energy-OPLS-2005>
191.791168212891

> <r_mmod_Bend_Energy-OPLS-2005>
243.587142944336

> <r_mmod_Torsional_Energy-OPLS-2005>
296.165405273438

> <r_mmod_Improper_Torsional_Energy-OPLS-2005>
7.61379289627075

> <r_mmod_Van_der_Waal_Energy-OPLS-2005>
126.49146270752

> <r_mmod_Electrostatic_Energy-OPLS-2005>
-366.753631591797

> <r_mmod_Solvation_Energy-OPLS-2005>
-205.944839477539

> <b_mmod_Minimization_Converged-OPLS-2005>
0

> <r_mmod_RMS_Derivative-OPLS-2005>
8.77253150939941

$$$$
61
                    3D
 Structure written by MMmdl.
155163  0  0  1  0            999 V2000
  -30.5387  -14.9404   20.3951 C   0  0  0  0  0  0
  -30.4289  -12.5761   19.4881 C   0  0  0  0  0  0
  -29.5131  -12.5466   18.2427 C   0  0  0  0  0  0
  -28.0434  -12.3286   18.6549 C   0  0  0  0  0  0
  -27.6178  -13.2556   19.8210 C   0  0  2  0  0  0
  -28.6588  -13.2882   20.9562 C   0  0  0  0  0  0
  -25.2369  -13.8216   20.5695 C   0  0  0  0  0  0
  -24.1720  -13.0426   20.9196 C   0  0  0  0  0  0
  -24.6367  -11.6915   20.8730 C   0  0  0  0  0  0
  -23.9062  -10.4280   21.0391 C   0  0  0  0  0  0
  -24.3614   -9.4189   21.9167 C   0  0  0  0  0  0
  -23.6286   -8.2216   22.0723 C   0  0  0  0  0  0
  -22.4264   -8.0244   21.3525 C   0  0  0  0  0  0
  -21.9903   -9.0209   20.4613 C   0  0  0  0  0  0
  -22.7234  -10.2088   20.3035 C   0  0  0  0  0  0
  -21.6848   -6.0697   22.5270 C   0  0  0  0  0  0
  -21.4037   -6.5612   23.8209 C   0  0  0  0  0  0
  -21.3666   -5.6772   24.9177 C   0  0  0  0  0  0
  -21.6049   -4.3034   24.7235 C   0  0  0  0  0  0
  -21.8817   -3.8109   23.4361 C   0  0  0  0  0  0
  -21.9178   -4.6920   22.3408 C   0  0  0  0  0  0
  -22.7722  -13.5134   21.1893 C   0  0  0  0  0  0
  -22.1640   -4.2107   21.0987 F   0  0  0  0  0  0
  -21.5639   -3.4513   25.7748 F   0  0  0  0  0  0
  -29.9482  -13.6776   20.3707 N   0  0  0  0  0  0
  -26.2810  -12.9466   20.3157 N   0  0  0  0  0  0
  -25.9306  -11.6583   20.5685 N   0  0  0  0  0  0
  -22.0431  -12.8097   22.0465 N   0  0  0  0  0  0
  -25.4006  -15.1956   20.4169 N   0  0  0  0  0  0
  -31.7613  -14.9693   20.2173 O   0  0  0  0  0  0
  -21.6640   -6.8833   21.4217 O   0  0  0  0  0  0
  -22.3347  -14.5444   20.6746 O   0  0  0  0  0  0
  -24.6446  -31.8472   23.1875 C   0  0  0  0  0  0
  -25.9218  -32.4719   23.8262 C   0  0  1  0  0  0
  -27.2279  -27.1317   20.1536 C   0  0  0  0  0  0
  -25.5937  -33.8524   24.2185 N   0  0  0  0  0  0
  -23.4512  -30.4650   21.5325 C   0  0  2  0  0  0
  -24.9050  -28.8875   20.1104 C   0  0  0  0  0  0
  -22.7582  -29.4568   22.4855 C   0  0  0  0  0  0
  -18.0311  -28.1415   22.8456 C   0  0  0  0  0  0
  -24.1517  -36.7302   23.2641 C   0  0  0  0  0  0
  -26.0062  -30.7184   21.3857 C   0  0  0  0  0  0
  -26.0813  -29.3263   20.7305 C   0  0  0  0  0  0
  -27.2429  -28.4648   20.7359 C   0  0  0  0  0  0
  -26.0248  -26.7970   19.4945 C   0  0  0  0  0  0
  -24.8906  -27.6371   19.4780 C   0  0  0  0  0  0
  -23.6820  -29.7927   20.1510 C   0  0  0  0  0  0
  -25.4142  -36.3065   24.0310 C   0  0  1  0  0  0
  -20.5920  -28.3761   23.1225 C   0  0  2  0  0  0
  -20.6802  -26.9462   22.5418 C   0  0  0  0  0  0
  -19.5778  -26.6398   21.5226 C   0  0  0  0  0  0
  -18.1952  -26.7955   22.1610 C   0  0  0  0  0  0
  -19.1568  -28.8913   23.2831 C   0  0  0  0  0  0
  -18.9480  -30.1493   23.8896 C   0  0  0  0  0  0
  -17.6480  -30.6611   24.0577 C   0  0  0  0  0  0
  -25.9087  -34.9431   23.5068 C   0  0  0  0  0  0
  -16.5372  -29.9110   23.6310 C   0  0  0  0  0  0
  -16.7306  -28.6522   23.0340 C   0  0  0  0  0  0
  -26.4499  -31.6569   25.0705 C   0  0  0  0  0  0
  -25.3643  -31.3734   26.1359 C   0  0  0  0  0  0
  -27.0349  -30.2974   24.6246 C   0  0  0  0  0  0
  -27.6064  -32.4313   25.7479 C   0  0  0  0  0  0
  -27.5613  -37.1785   24.8442 C   0  0  0  0  0  0
  -21.4281  -29.3082   22.3604 N   0  0  0  0  0  0
  -26.4313  -37.3768   23.9398 N   0  0  0  0  0  0
  -24.7209  -31.0318   22.0908 N   0  0  0  0  0  0
  -23.4241  -28.8097   23.2995 O   0  0  0  0  0  0
  -28.2891  -26.1539   20.2117 O   0  0  0  0  0  0
  -26.5697  -34.8918   22.4668 O   0  0  0  0  0  0
  -23.5561  -32.1367   23.7067 O   0  0  0  0  0  0
  -30.0917  -20.0405   17.6471 C   0  0  0  0  0  0
  -30.3552  -20.7141   18.8604 C   0  0  0  0  0  0
  -28.5172  -18.5794   18.8146 C   0  0  0  0  0  0
  -29.1723  -18.9321   20.0145 C   0  0  0  0  0  0
  -29.0854  -19.0473   17.6053 C   0  0  0  0  0  0
  -29.5921  -20.3785   19.9992 C   0  0  0  0  0  0
  -29.9873  -17.6069   20.4218 C   0  0  0  0  0  0
  -29.6698  -16.2240   20.2889 C   0  0  0  0  0  0
  -28.7133  -18.3940   16.2840 C   0  0  0  0  0  0
  -28.7085  -21.6915   20.4800 C   0  0  0  0  0  0
  -29.0945  -23.3276   20.2460 C   0  0  0  0  0  0
  -28.0046  -24.6172   20.2662 C   0  0  0  0  0  0
  -31.4727  -12.7031   19.1980 H   0  0  0  0  0  0
  -30.3752  -11.6210   20.0091 H   0  0  0  0  0  0
  -29.8255  -11.7665   17.5498 H   0  0  0  0  0  0
  -29.6120  -13.4904   17.7020 H   0  0  0  0  0  0
  -27.9304  -11.2846   18.9458 H   0  0  0  0  0  0
  -27.3889  -12.4800   17.7955 H   0  0  0  0  0  0
  -27.5660  -14.2529   19.3864 H   0  0  0  0  0  0
  -28.7275  -12.3206   21.4525 H   0  0  0  0  0  0
  -28.3647  -14.0011   21.7274 H   0  0  0  0  0  0
  -25.2782   -9.5618   22.4729 H   0  0  0  0  0  0
  -23.9957   -7.4599   22.7454 H   0  0  0  0  0  0
  -21.0832   -8.8725   19.8932 H   0  0  0  0  0  0
  -22.3703  -10.9594   19.6113 H   0  0  0  0  0  0
  -21.2057   -7.6127   23.9684 H   0  0  0  0  0  0
  -21.1506   -6.0530   25.9077 H   0  0  0  0  0  0
  -22.0592   -2.7553   23.2899 H   0  0  0  0  0  0
  -22.4090  -11.9796   22.4903 H   0  0  0  0  0  0
  -21.1008  -13.1011   22.2711 H   0  0  0  0  0  0
  -24.6306  -15.8464   20.5307 H   0  0  0  0  0  0
  -26.2588  -15.6428   20.1251 H   0  0  0  0  0  0
  -26.7287  -32.5347   23.0984 H   0  0  0  0  0  0
  -24.9970  -33.9602   25.0259 H   0  0  0  0  0  0
  -22.7568  -31.2934   21.3719 H   0  0  0  0  0  0
  -23.3784  -35.9625   23.3257 H   0  0  0  0  0  0
  -24.3609  -36.9011   22.2066 H   0  0  0  0  0  0
  -23.7243  -37.6469   23.6724 H   0  0  0  0  0  0
  -26.1604  -31.4694   20.6110 H   0  0  0  0  0  0
  -26.8784  -30.7752   22.0257 H   0  0  0  0  0  0
  -28.1389  -28.7858   21.2490 H   0  0  0  0  0  0
  -25.9205  -25.8488   18.9885 H   0  0  0  0  0  0
  -23.9935  -27.2976   18.9759 H   0  0  0  0  0  0
  -23.8332  -30.5729   19.4040 H   0  0  0  0  0  0
  -22.7922  -29.2501   19.8264 H   0  0  0  0  0  0
  -25.1312  -36.1905   25.0796 H   0  0  0  0  0  0
  -21.0003  -28.3394   24.1347 H   0  0  0  0  0  0
  -20.5749  -26.2379   23.3650 H   0  0  0  0  0  0
  -21.6657  -26.7507   22.1196 H   0  0  0  0  0  0
  -19.6980  -25.6311   21.1273 H   0  0  0  0  0  0
  -19.6733  -27.3185   20.6743 H   0  0  0  0  0  0
  -17.4230  -26.6717   21.3999 H   0  0  0  0  0  0
  -18.0338  -26.0123   22.9026 H   0  0  0  0  0  0
  -19.7975  -30.7265   24.2320 H   0  0  0  0  0  0
  -17.5042  -31.6287   24.5179 H   0  0  0  0  0  0
  -15.5374  -30.3003   23.7650 H   0  0  0  0  0  0
  -15.8699  -28.0836   22.7069 H   0  0  0  0  0  0
  -24.5895  -30.7014   25.7637 H   0  0  0  0  0  0
  -24.8713  -32.2873   26.4690 H   0  0  0  0  0  0
  -25.7872  -30.8978   27.0206 H   0  0  0  0  0  0
  -26.2935  -29.6675   24.1297 H   0  0  0  0  0  0
  -27.4014  -29.7282   25.4793 H   0  0  0  0  0  0
  -27.8835  -30.4221   23.9513 H   0  0  0  0  0  0
  -27.2733  -33.3671   26.1953 H   0  0  0  0  0  0
  -28.3891  -32.6750   25.0295 H   0  0  0  0  0  0
  -28.0676  -31.8479   26.5430 H   0  0  0  0  0  0
  -28.2543  -38.0168   24.7576 H   0  0  0  0  0  0
  -28.1182  -36.2686   24.6156 H   0  0  0  0  0  0
  -27.2329  -37.1312   25.8839 H   0  0  0  0  0  0
  -20.9536  -29.8836   21.6774 H   0  0  0  0  0  0
  -26.0202  -38.2851   24.1392 H   0  0  0  0  0  0
  -30.5769  -20.3666   16.7354 H   0  0  0  0  0  0
  -30.9112  -21.6401   18.8088 H   0  0  0  0  0  0
  -27.9177  -17.6823   18.7539 H   0  0  0  0  0  0
  -30.9811  -17.8212   20.7886 H   0  0  0  0  0  0
  -28.6575  -16.0343   19.9805 H   0  0  0  0  0  0
  -28.7948  -19.1049   15.4608 H   0  0  0  0  0  0
  -27.6918  -18.0064   16.2964 H   0  0  0  0  0  0
  -29.3829  -17.5587   16.0736 H   0  0  0  0  0  0
  -28.4944  -21.5473   21.5394 H   0  0  0  0  0  0
  -27.7439  -21.5605   19.9941 H   0  0  0  0  0  0
  -29.5849  -23.4072   19.2772 H   0  0  0  0  0  0
  -29.8750  -23.5598   20.9703 H   0  0  0  0  0  0
  -27.3933  -24.4755   21.1568 H   0  0  0  0  0  0
  -27.3429  -24.3876   19.4342 H   0  0  0  0  0  0
  1 25  1  0  0  0
  1 30  2  0  0  0
  1 78  1  0  0  0
  2  3  1  0  0  0
  2 25  1  0  0  0
  2 83  1  0  0  0
  2 84  1  0  0  0
  3  4  1  0  0  0
  3 85  1  0  0  0
  3 86  1  0  0  0
  4  5  1  0  0  0
  4 87  1  0  0  0
  4 88  1  0  0  0
  5  6  1  0  0  0
  5 26  1  0  0  0
  5 89  1  0  0  0
  6 25  1  0  0  0
  6 90  1  0  0  0
  6 91  1  0  0  0
  7  8  2  0  0  0
  7 26  1  0  0  0
  7 29  1  0  0  0
  8  9  1  0  0  0
  8 22  1  0  0  0
  9 10  1  0  0  0
  9 27  2  0  0  0
 10 11  2  0  0  0
 10 15  1  0  0  0
 11 12  1  0  0  0
 11 92  1  0  0  0
 12 13  2  0  0  0
 12 93  1  0  0  0
 13 14  1  0  0  0
 13 31  1  0  0  0
 14 15  2  0  0  0
 14 94  1  0  0  0
 15 95  1  0  0  0
 16 17  2  0  0  0
 16 21  1  0  0  0
 16 31  1  0  0  0
 17 18  1  0  0  0
 17 96  1  0  0  0
 18 19  2  0  0  0
 18 97  1  0  0  0
 19 20  1  0  0  0
 19 24  1  0  0  0
 20 21  2  0  0  0
 20 98  1  0  0  0
 21 23  1  0  0  0
 22 28  1  0  0  0
 22 32  2  0  0  0
 26 27  1  0  0  0
 28 99  1  0  0  0
 28100  1  0  0  0
 29101  1  0  0  0
 29102  1  0  0  0
 33 34  1  0  0  0
 33 66  1  0  0  0
 33 70  2  0  0  0
 34 36  1  0  0  0
 34 59  1  0  0  0
 34103  1  0  0  0
 35 44  2  0  0  0
 35 45  1  0  0  0
 35 68  1  0  0  0
 36 56  1  0  0  0
 36104  1  0  0  0
 37 39  1  0  0  0
 37 47  1  0  0  0
 37 66  1  0  0  0
 37105  1  0  0  0
 38 43  2  0  0  0
 38 46  1  0  0  0
 38 47  1  0  0  0
 39 64  1  0  0  0
 39 67  2  0  0  0
 40 52  1  0  0  0
 40 53  2  0  0  0
 40 58  1  0  0  0
 41106  1  0  0  0
 41107  1  0  0  0
 41108  1  0  0  0
 41 48  1  0  0  0
 42 43  1  0  0  0
 42 66  1  0  0  0
 42109  1  0  0  0
 42110  1  0  0  0
 43 44  1  0  0  0
 44111  1  0  0  0
 45 46  2  0  0  0
 45112  1  0  0  0
 46113  1  0  0  0
 47114  1  0  0  0
 47115  1  0  0  0
 48 56  1  0  0  0
 48 65  1  0  0  0
 48116  1  0  0  0
 49 50  1  0  0  0
 49 53  1  0  0  0
 49 64  1  0  0  0
 49117  1  0  0  0
 50 51  1  0  0  0
 50118  1  0  0  0
 50119  1  0  0  0
 51 52  1  0  0  0
 51120  1  0  0  0
 51121  1  0  0  0
 52122  1  0  0  0
 52123  1  0  0  0
 53 54  1  0  0  0
 54 55  2  0  0  0
 54124  1  0  0  0
 55 57  1  0  0  0
 55125  1  0  0  0
 56 69  2  0  0  0
 57 58  2  0  0  0
 57126  1  0  0  0
 58127  1  0  0  0
 59 60  1  0  0  0
 59 61  1  0  0  0
 59 62  1  0  0  0
 60128  1  0  0  0
 60129  1  0  0  0
 60130  1  0  0  0
 61131  1  0  0  0
 61132  1  0  0  0
 61133  1  0  0  0
 62134  1  0  0  0
 62135  1  0  0  0
 62136  1  0  0  0
 63 65  1  0  0  0
 63137  1  0  0  0
 63138  1  0  0  0
 63139  1  0  0  0
 64140  1  0  0  0
 65141  1  0  0  0
 68 82  1  0  0  0
 71 72  2  0  0  0
 71 75  1  0  0  0
 71142  1  0  0  0
 72 76  1  0  0  0
 72143  1  0  0  0
 73 74  1  0  0  0
 73 75  2  0  0  0
 73144  1  0  0  0
 74 76  2  0  0  0
 74 77  1  0  0  0
 75 79  1  0  0  0
 76 80  1  0  0  0
 77 78  2  0  0  0
 77145  1  0  0  0
 78146  1  0  0  0
 79147  1  0  0  0
 79148  1  0  0  0
 79149  1  0  0  0
 80 81  1  0  0  0
 80150  1  0  0  0
 80151  1  0  0  0
 81 82  1  0  0  0
 81152  1  0  0  0
 81153  1  0  0  0
 82154  1  0  0  0
 82155  1  0  0  0
M  ISO  4   1 100  68 101  78 100  82 101
M  END
> <chiral flag>
0

> <version>
0

> <s_m_source_file>
/data/baiqing/PycharmProjects/Reinvent-master-3.2/result/LINK_invent/BTK/process_docking_weight1_custom_product_contain_oxygen_bond_distance_aromatic_linkinvent_7_9_3/rearranged_h_0127.sdf

> <i_m_source_file_index>
62

> <r_mmod_Potential_Energy-OPLS-2005>
819.226806640625

> <r_mmod_Stretch_Energy-OPLS-2005>
273.233459472656

> <r_mmod_Bend_Energy-OPLS-2005>
271.487426757812

> <r_mmod_Torsional_Energy-OPLS-2005>
434.059112548828

> <r_mmod_Improper_Torsional_Energy-OPLS-2005>
42.0041923522949

> <r_mmod_Van_der_Waal_Energy-OPLS-2005>
137.62419128418

> <r_mmod_Electrostatic_Energy-OPLS-2005>
-335.806243896484

> <r_mmod_Solvation_Energy-OPLS-2005>
-194.46418762207

> <b_mmod_Minimization_Converged-OPLS-2005>
0

> <r_mmod_RMS_Derivative-OPLS-2005>
4.41452503204346

$$$$
62
                    3D
 Structure written by MMmdl.
154162  0  0  1  0            999 V2000
  -30.6594  -14.6171   20.5821 C   0  0  0  0  0  0
  -30.4346  -12.4021   19.4562 C   0  0  0  0  0  0
  -29.5077  -12.5331   18.2272 C   0  0  0  0  0  0
  -28.0293  -12.3659   18.6282 C   0  0  0  0  0  0
  -27.6560  -13.2165   19.8693 C   0  0  2  0  0  0
  -28.6919  -13.0301   20.9976 C   0  0  0  0  0  0
  -25.2561  -13.8173   20.5660 C   0  0  0  0  0  0
  -24.1826  -13.0436   20.9178 C   0  0  0  0  0  0
  -24.6405  -11.6908   20.8728 C   0  0  0  0  0  0
  -23.9072  -10.4294   21.0406 C   0  0  0  0  0  0
  -24.3625   -9.4208   21.9184 C   0  0  0  0  0  0
  -23.6297   -8.2246   22.0761 C   0  0  0  0  0  0
  -22.4278   -8.0284   21.3552 C   0  0  0  0  0  0
  -21.9913   -9.0256   20.4650 C   0  0  0  0  0  0
  -22.7245  -10.2135   20.3055 C   0  0  0  0  0  0
  -21.6852   -6.0735   22.5281 C   0  0  0  0  0  0
  -21.4013   -6.5636   23.8213 C   0  0  0  0  0  0
  -21.3662   -5.6790   24.9176 C   0  0  0  0  0  0
  -21.6046   -4.3052   24.7224 C   0  0  0  0  0  0
  -21.8820   -3.8142   23.4344 C   0  0  0  0  0  0
  -21.9192   -4.6961   22.3401 C   0  0  0  0  0  0
  -22.7848  -13.5229   21.1843 C   0  0  0  0  0  0
  -22.1655   -4.2145   21.0975 F   0  0  0  0  0  0
  -21.5639   -3.4536   25.7736 F   0  0  0  0  0  0
  -30.0156  -13.4030   20.4647 N   0  0  0  0  0  0
  -26.2993  -12.9357   20.3308 N   0  0  0  0  0  0
  -25.9329  -11.6509   20.5724 N   0  0  0  0  0  0
  -22.0491  -12.8219   22.0402 N   0  0  0  0  0  0
  -25.4270  -15.1887   20.4048 N   0  0  0  0  0  0
  -31.7336  -14.8213   20.0060 O   0  0  0  0  0  0
  -21.6640   -6.8882   21.4247 O   0  0  0  0  0  0
  -22.3523  -14.5528   20.6684 O   0  0  0  0  0  0
  -24.6247  -31.8596   23.2025 C   0  0  0  0  0  0
  -25.9106  -32.4773   23.8346 C   0  0  1  0  0  0
  -27.2278  -27.3274   20.1123 C   0  0  0  0  0  0
  -25.5937  -33.8572   24.2277 N   0  0  0  0  0  0
  -23.4173  -30.4825   21.5451 C   0  0  2  0  0  0
  -24.8627  -28.9328   20.1114 C   0  0  0  0  0  0
  -22.7460  -29.4629   22.4951 C   0  0  0  0  0  0
  -18.0285  -28.1387   22.8503 C   0  0  0  0  0  0
  -24.1487  -36.7278   23.2644 C   0  0  0  0  0  0
  -25.9557  -30.7917   21.3716 C   0  0  0  0  0  0
  -26.0288  -29.4192   20.7136 C   0  0  0  0  0  0
  -27.2104  -28.6260   20.7059 C   0  0  0  0  0  0
  -26.0358  -26.8803   19.4996 C   0  0  0  0  0  0
  -24.8669  -27.6684   19.4991 C   0  0  0  0  0  0
  -23.6308  -29.8128   20.1612 C   0  0  0  0  0  0
  -25.4115  -36.3074   24.0333 C   0  0  1  0  0  0
  -20.5886  -28.3685   23.1294 C   0  0  2  0  0  0
  -20.6776  -26.9412   22.5408 C   0  0  0  0  0  0
  -19.5746  -26.6387   21.5217 C   0  0  0  0  0  0
  -18.1924  -26.7938   22.1623 C   0  0  0  0  0  0
  -19.1540  -28.8854   23.2894 C   0  0  0  0  0  0
  -18.9458  -30.1464   23.8901 C   0  0  0  0  0  0
  -17.6457  -30.6596   24.0564 C   0  0  0  0  0  0
  -25.9046  -34.9445   23.5097 C   0  0  0  0  0  0
  -16.5347  -29.9085   23.6346 C   0  0  0  0  0  0
  -16.7271  -28.6499   23.0371 C   0  0  0  0  0  0
  -26.4504  -31.6592   25.0718 C   0  0  0  0  0  0
  -25.3749  -31.3706   26.1455 C   0  0  0  0  0  0
  -27.0371  -30.3023   24.6173 C   0  0  0  0  0  0
  -27.6052  -32.4345   25.7485 C   0  0  0  0  0  0
  -27.5585  -37.1791   24.8468 C   0  0  0  0  0  0
  -21.4179  -29.3034   22.3682 N   0  0  0  0  0  0
  -26.4294  -37.3768   23.9420 N   0  0  0  0  0  0
  -24.6846  -31.0616   22.0963 N   0  0  0  0  0  0
  -23.4186  -28.8188   23.3042 O   0  0  0  0  0  0
  -28.3764  -26.5304   20.1787 O   0  0  0  0  0  0
  -26.5600  -34.8911   22.4656 O   0  0  0  0  0  0
  -23.5414  -32.1394   23.7358 O   0  0  0  0  0  0
  -27.9509  -18.9310   21.0673 C   0  0  0  0  0  0
  -28.3615  -17.5770   21.2009 C   0  0  0  0  0  0
  -30.1915  -19.5616   20.5172 C   0  0  0  0  0  0
  -28.8556  -19.9789   20.7643 C   0  0  0  0  0  0
  -29.7090  -17.1547   21.0517 C   0  0  0  0  0  0
  -30.6222  -18.1991   20.6815 C   0  0  0  0  0  0
  -28.3426  -21.4156   20.7721 C   0  0  0  0  0  0
  -28.8342  -22.5931   20.2641 C   0  0  0  0  0  0
  -30.0551  -15.7228   21.5234 C   0  0  0  0  0  0
  -28.1638  -23.9487   20.4862 C   0  0  0  0  0  0
  -32.1066  -17.9152   20.5283 C   0  0  0  0  0  0
  -28.4779  -25.1885   19.5625 C   0  0  0  0  0  0
  -29.8401  -15.4580   22.7459 N   0  0  0  0  0  0
  -27.3413  -24.1070   21.3953 O   0  0  0  0  0  0
  -31.4756  -12.5261   19.1535 H   0  0  0  0  0  0
  -30.3723  -11.3966   19.8751 H   0  0  0  0  0  0
  -29.7758  -11.7944   17.4712 H   0  0  0  0  0  0
  -29.6536  -13.5103   17.7649 H   0  0  0  0  0  0
  -27.8578  -11.3093   18.8385 H   0  0  0  0  0  0
  -27.3796  -12.6170   17.7890 H   0  0  0  0  0  0
  -27.6885  -14.2610   19.5581 H   0  0  0  0  0  0
  -28.7063  -11.9909   21.3295 H   0  0  0  0  0  0
  -28.3914  -13.5981   21.8743 H   0  0  0  0  0  0
  -25.2777   -9.5675   22.4751 H   0  0  0  0  0  0
  -24.0005   -7.4635   22.7479 H   0  0  0  0  0  0
  -21.0850   -8.8770   19.8946 H   0  0  0  0  0  0
  -22.3707  -10.9673   19.6158 H   0  0  0  0  0  0
  -21.2001   -7.6145   23.9714 H   0  0  0  0  0  0
  -21.1490   -6.0520   25.9080 H   0  0  0  0  0  0
  -22.0599   -2.7602   23.2843 H   0  0  0  0  0  0
  -22.4110  -11.9881   22.4788 H   0  0  0  0  0  0
  -21.1109  -13.1243   22.2612 H   0  0  0  0  0  0
  -24.6606  -15.8445   20.5123 H   0  0  0  0  0  0
  -26.2694  -15.6196   20.0465 H   0  0  0  0  0  0
  -26.7163  -32.5440   23.1087 H   0  0  0  0  0  0
  -25.0147  -33.9710   25.0465 H   0  0  0  0  0  0
  -22.7106  -31.3029   21.4012 H   0  0  0  0  0  0
  -23.3760  -35.9598   23.3297 H   0  0  0  0  0  0
  -24.3576  -36.8912   22.2056 H   0  0  0  0  0  0
  -23.7218  -37.6467   23.6672 H   0  0  0  0  0  0
  -26.0875  -31.5574   20.6062 H   0  0  0  0  0  0
  -26.8344  -30.8374   22.0032 H   0  0  0  0  0  0
  -28.1085  -28.9961   21.1813 H   0  0  0  0  0  0
  -25.9736  -25.9052   19.0407 H   0  0  0  0  0  0
  -23.9670  -27.2869   19.0361 H   0  0  0  0  0  0
  -23.7473  -30.5874   19.4022 H   0  0  0  0  0  0
  -22.7501  -29.2416   19.8623 H   0  0  0  0  0  0
  -25.1288  -36.1924   25.0820 H   0  0  0  0  0  0
  -20.9975  -28.3264   24.1419 H   0  0  0  0  0  0
  -20.5704  -26.2285   23.3601 H   0  0  0  0  0  0
  -21.6642  -26.7463   22.1188 H   0  0  0  0  0  0
  -19.6899  -25.6296   21.1255 H   0  0  0  0  0  0
  -19.6692  -27.3196   20.6747 H   0  0  0  0  0  0
  -17.4201  -26.6725   21.4012 H   0  0  0  0  0  0
  -18.0301  -26.0066   22.8998 H   0  0  0  0  0  0
  -19.7928  -30.7290   24.2270 H   0  0  0  0  0  0
  -17.5002  -31.6278   24.5159 H   0  0  0  0  0  0
  -15.5345  -30.2974   23.7672 H   0  0  0  0  0  0
  -15.8674  -28.0806   22.7094 H   0  0  0  0  0  0
  -24.5931  -30.7044   25.7781 H   0  0  0  0  0  0
  -24.8933  -32.2860   26.4888 H   0  0  0  0  0  0
  -25.8092  -30.8881   27.0216 H   0  0  0  0  0  0
  -26.2942  -29.6738   24.1243 H   0  0  0  0  0  0
  -27.4133  -29.7310   25.4665 H   0  0  0  0  0  0
  -27.8774  -30.4322   23.9354 H   0  0  0  0  0  0
  -27.2661  -33.3661   26.2025 H   0  0  0  0  0  0
  -28.3874  -32.6886   25.0321 H   0  0  0  0  0  0
  -28.0709  -31.8505   26.5434 H   0  0  0  0  0  0
  -28.2578  -38.0110   24.7555 H   0  0  0  0  0  0
  -28.1111  -36.2646   24.6259 H   0  0  0  0  0  0
  -27.2312  -37.1394   25.8871 H   0  0  0  0  0  0
  -20.9358  -29.8717   21.6862 H   0  0  0  0  0  0
  -26.0179  -38.2841   24.1438 H   0  0  0  0  0  0
  -26.9115  -19.1668   21.2524 H   0  0  0  0  0  0
  -27.6187  -16.8505   21.5013 H   0  0  0  0  0  0
  -30.9228  -20.3190   20.2707 H   0  0  0  0  0  0
  -27.4157  -21.5144   21.3222 H   0  0  0  0  0  0
  -29.7465  -22.5861   19.6863 H   0  0  0  0  0  0
  -32.6944  -18.8289   20.6288 H   0  0  0  0  0  0
  -32.3117  -17.4927   19.5446 H   0  0  0  0  0  0
  -32.4618  -17.2199   21.2890 H   0  0  0  0  0  0
  -27.8772  -25.1267   18.6564 H   0  0  0  0  0  0
  -29.5092  -25.0754   19.2291 H   0  0  0  0  0  0
  -29.4638  -16.2678   23.2252 H   0  0  0  0  0  0
  1 25  1  0  0  0
  1 30  2  0  0  0
  1 79  1  0  0  0
  2  3  1  0  0  0
  2 25  1  0  0  0
  2 85  1  0  0  0
  2 86  1  0  0  0
  3  4  1  0  0  0
  3 87  1  0  0  0
  3 88  1  0  0  0
  4  5  1  0  0  0
  4 89  1  0  0  0
  4 90  1  0  0  0
  5  6  1  0  0  0
  5 26  1  0  0  0
  5 91  1  0  0  0
  6 25  1  0  0  0
  6 92  1  0  0  0
  6 93  1  0  0  0
  7  8  2  0  0  0
  7 26  1  0  0  0
  7 29  1  0  0  0
  8  9  1  0  0  0
  8 22  1  0  0  0
  9 10  1  0  0  0
  9 27  2  0  0  0
 10 11  2  0  0  0
 10 15  1  0  0  0
 11 12  1  0  0  0
 11 94  1  0  0  0
 12 13  2  0  0  0
 12 95  1  0  0  0
 13 14  1  0  0  0
 13 31  1  0  0  0
 14 15  2  0  0  0
 14 96  1  0  0  0
 15 97  1  0  0  0
 16 17  2  0  0  0
 16 21  1  0  0  0
 16 31  1  0  0  0
 17 18  1  0  0  0
 17 98  1  0  0  0
 18 19  2  0  0  0
 18 99  1  0  0  0
 19 20  1  0  0  0
 19 24  1  0  0  0
 20 21  2  0  0  0
 20100  1  0  0  0
 21 23  1  0  0  0
 22 28  1  0  0  0
 22 32  2  0  0  0
 26 27  1  0  0  0
 28101  1  0  0  0
 28102  1  0  0  0
 29103  1  0  0  0
 29104  1  0  0  0
 33 34  1  0  0  0
 33 66  1  0  0  0
 33 70  2  0  0  0
 34 36  1  0  0  0
 34 59  1  0  0  0
 34105  1  0  0  0
 35 44  2  0  0  0
 35 45  1  0  0  0
 35 68  1  0  0  0
 36 56  1  0  0  0
 36106  1  0  0  0
 37 39  1  0  0  0
 37 47  1  0  0  0
 37 66  1  0  0  0
 37107  1  0  0  0
 38 43  2  0  0  0
 38 46  1  0  0  0
 38 47  1  0  0  0
 39 64  1  0  0  0
 39 67  2  0  0  0
 40 52  1  0  0  0
 40 53  2  0  0  0
 40 58  1  0  0  0
 41108  1  0  0  0
 41109  1  0  0  0
 41110  1  0  0  0
 41 48  1  0  0  0
 42 43  1  0  0  0
 42 66  1  0  0  0
 42111  1  0  0  0
 42112  1  0  0  0
 43 44  1  0  0  0
 44113  1  0  0  0
 45 46  2  0  0  0
 45114  1  0  0  0
 46115  1  0  0  0
 47116  1  0  0  0
 47117  1  0  0  0
 48 56  1  0  0  0
 48 65  1  0  0  0
 48118  1  0  0  0
 49 50  1  0  0  0
 49 53  1  0  0  0
 49 64  1  0  0  0
 49119  1  0  0  0
 50 51  1  0  0  0
 50120  1  0  0  0
 50121  1  0  0  0
 51 52  1  0  0  0
 51122  1  0  0  0
 51123  1  0  0  0
 52124  1  0  0  0
 52125  1  0  0  0
 53 54  1  0  0  0
 54 55  2  0  0  0
 54126  1  0  0  0
 55 57  1  0  0  0
 55127  1  0  0  0
 56 69  2  0  0  0
 57 58  2  0  0  0
 57128  1  0  0  0
 58129  1  0  0  0
 59 60  1  0  0  0
 59 61  1  0  0  0
 59 62  1  0  0  0
 60130  1  0  0  0
 60131  1  0  0  0
 60132  1  0  0  0
 61133  1  0  0  0
 61134  1  0  0  0
 61135  1  0  0  0
 62136  1  0  0  0
 62137  1  0  0  0
 62138  1  0  0  0
 63 65  1  0  0  0
 63139  1  0  0  0
 63140  1  0  0  0
 63141  1  0  0  0
 64142  1  0  0  0
 65143  1  0  0  0
 68 82  1  0  0  0
 71 72  2  0  0  0
 71 74  1  0  0  0
 71144  1  0  0  0
 72 75  1  0  0  0
 72145  1  0  0  0
 73 74  2  0  0  0
 73 76  1  0  0  0
 73146  1  0  0  0
 74 77  1  0  0  0
 75 76  2  0  0  0
 75 79  1  0  0  0
 76 81  1  0  0  0
 77 78  2  0  0  0
 77147  1  0  0  0
 78 80  1  0  0  0
 78148  1  0  0  0
 79 83  2  0  0  0
 80 82  1  0  0  0
 80 84  2  0  0  0
 81149  1  0  0  0
 81150  1  0  0  0
 81151  1  0  0  0
 82152  1  0  0  0
 82153  1  0  0  0
 83154  1  0  0  0
M  ISO  4   1 100  68 101  79 100  82 101
M  END
> <chiral flag>
0

> <version>
0

> <s_m_source_file>
/data/baiqing/PycharmProjects/Reinvent-master-3.2/result/LINK_invent/BTK/process_docking_weight1_custom_product_contain_oxygen_bond_distance_aromatic_linkinvent_7_9_3/rearranged_h_0127.sdf

> <i_m_source_file_index>
63

> <r_mmod_Potential_Energy-OPLS-2005>
243.675201416016

> <r_mmod_Stretch_Energy-OPLS-2005>
88.7925415039062

> <r_mmod_Bend_Energy-OPLS-2005>
157.844680786133

> <r_mmod_Torsional_Energy-OPLS-2005>
220.357421875

> <r_mmod_Improper_Torsional_Energy-OPLS-2005>
4.07490634918213

> <r_mmod_Van_der_Waal_Energy-OPLS-2005>
141.343353271484

> <r_mmod_Electrostatic_Energy-OPLS-2005>
-194.583938598633

> <r_mmod_Solvation_Energy-OPLS-2005>
-214.733551025391

> <b_mmod_Minimization_Converged-OPLS-2005>
0

> <r_mmod_RMS_Derivative-OPLS-2005>
1.43714356422424

$$$$
63
                    3D
 Structure written by MMmdl.
155163  0  0  1  0            999 V2000
  -30.6443  -14.6860   20.4575 C   0  0  0  0  0  0
  -30.4191  -12.4107   19.4605 C   0  0  0  0  0  0
  -29.5084  -12.5480   18.2207 C   0  0  0  0  0  0
  -28.0262  -12.4130   18.6162 C   0  0  0  0  0  0
  -27.6564  -13.2509   19.8722 C   0  0  2  0  0  0
  -28.7047  -13.1172   20.9986 C   0  0  0  0  0  0
  -25.2540  -13.8244   20.5690 C   0  0  0  0  0  0
  -24.1844  -13.0450   20.9177 C   0  0  0  0  0  0
  -24.6469  -11.6936   20.8746 C   0  0  0  0  0  0
  -23.9146  -10.4308   21.0386 C   0  0  0  0  0  0
  -24.3677   -9.4219   21.9179 C   0  0  0  0  0  0
  -23.6324   -8.2270   22.0774 C   0  0  0  0  0  0
  -22.4298   -8.0319   21.3577 C   0  0  0  0  0  0
  -21.9943   -9.0286   20.4666 C   0  0  0  0  0  0
  -22.7295  -10.2144   20.3053 C   0  0  0  0  0  0
  -21.6850   -6.0743   22.5281 C   0  0  0  0  0  0
  -21.4020   -6.5640   23.8209 C   0  0  0  0  0  0
  -21.3655   -5.6804   24.9175 C   0  0  0  0  0  0
  -21.6055   -4.3063   24.7228 C   0  0  0  0  0  0
  -21.8806   -3.8151   23.4346 C   0  0  0  0  0  0
  -21.9198   -4.6975   22.3411 C   0  0  0  0  0  0
  -22.7850  -13.5227   21.1823 C   0  0  0  0  0  0
  -22.1661   -4.2154   21.0973 F   0  0  0  0  0  0
  -21.5624   -3.4535   25.7736 F   0  0  0  0  0  0
  -30.0140  -13.4589   20.4273 N   0  0  0  0  0  0
  -26.3038  -12.9524   20.3377 N   0  0  0  0  0  0
  -25.9436  -11.6635   20.5778 N   0  0  0  0  0  0
  -22.0514  -12.8223   22.0378 N   0  0  0  0  0  0
  -25.4139  -15.1967   20.4139 N   0  0  0  0  0  0
  -31.7920  -14.7714   20.0108 O   0  0  0  0  0  0
  -21.6652   -6.8907   21.4256 O   0  0  0  0  0  0
  -22.3530  -14.5534   20.6650 O   0  0  0  0  0  0
  -24.6294  -31.8614   23.2008 C   0  0  0  0  0  0
  -25.9124  -32.4759   23.8385 C   0  0  1  0  0  0
  -27.2190  -27.2746   20.1310 C   0  0  0  0  0  0
  -25.5916  -33.8576   24.2290 N   0  0  0  0  0  0
  -23.4229  -30.4823   21.5419 C   0  0  2  0  0  0
  -24.8662  -28.9103   20.1253 C   0  0  0  0  0  0
  -22.7477  -29.4673   22.4943 C   0  0  0  0  0  0
  -18.0267  -28.1435   22.8567 C   0  0  0  0  0  0
  -24.1471  -36.7281   23.2659 C   0  0  0  0  0  0
  -25.9671  -30.7718   21.3794 C   0  0  0  0  0  0
  -26.0362  -29.3897   20.7285 C   0  0  0  0  0  0
  -27.2197  -28.5855   20.7111 C   0  0  0  0  0  0
  -26.0270  -26.8387   19.5250 C   0  0  0  0  0  0
  -24.8667  -27.6454   19.5137 C   0  0  0  0  0  0
  -23.6376  -29.8010   20.1650 C   0  0  0  0  0  0
  -25.4102  -36.3074   24.0356 C   0  0  1  0  0  0
  -20.5875  -28.3760   23.1318 C   0  0  2  0  0  0
  -20.6741  -26.9437   22.5629 C   0  0  0  0  0  0
  -19.5721  -26.6232   21.5449 C   0  0  0  0  0  0
  -18.1929  -26.7881   22.1877 C   0  0  0  0  0  0
  -19.1524  -28.8947   23.2847 C   0  0  0  0  0  0
  -18.9458  -30.1591   23.8804 C   0  0  0  0  0  0
  -17.6446  -30.6717   24.0421 C   0  0  0  0  0  0
  -25.9049  -34.9448   23.5127 C   0  0  0  0  0  0
  -16.5327  -29.9171   23.6337 C   0  0  0  0  0  0
  -16.7267  -28.6518   23.0530 C   0  0  0  0  0  0
  -26.4506  -31.6600   25.0782 C   0  0  0  0  0  0
  -25.3720  -31.3717   26.1483 C   0  0  0  0  0  0
  -27.0382  -30.3016   24.6277 C   0  0  0  0  0  0
  -27.6030  -32.4361   25.7563 C   0  0  0  0  0  0
  -27.5568  -37.1790   24.8488 C   0  0  0  0  0  0
  -21.4181  -29.3129   22.3735 N   0  0  0  0  0  0
  -26.4260  -37.3774   23.9422 N   0  0  0  0  0  0
  -24.6915  -31.0585   22.0955 N   0  0  0  0  0  0
  -23.4190  -28.8198   23.3002 O   0  0  0  0  0  0
  -28.3572  -26.4543   20.0553 O   0  0  0  0  0  0
  -26.5650  -34.8912   22.4703 O   0  0  0  0  0  0
  -23.5426  -32.1456   23.7318 O   0  0  0  0  0  0
  -29.1323  -18.6867   22.1570 C   0  0  0  0  0  0
  -28.7986  -19.9363   22.7192 C   0  0  0  0  0  0
  -29.5342  -18.5584   20.8091 C   0  0  0  0  0  0
  -29.5021  -19.7907   20.0160 C   0  0  0  0  0  0
  -29.1631  -21.0992   20.5909 C   0  0  0  0  0  0
  -28.8278  -21.1164   21.9596 C   0  0  0  0  0  0
  -30.0264  -17.1617   20.3502 C   0  0  0  0  0  0
  -29.9215  -15.9128   20.9451 C   0  0  0  0  0  0
  -29.8615  -19.6966   18.5383 C   0  0  0  0  0  0
  -29.2985  -22.5272   19.8912 C   0  0  0  0  0  0
  -28.1541  -23.6772   19.9890 C   0  0  0  0  0  0
  -28.4333  -25.1088   20.6989 C   0  0  0  0  0  0
  -28.5621  -22.2950   22.5728 F   0  0  0  0  0  0
  -31.4687  -12.4823   19.1724 H   0  0  0  0  0  0
  -30.3083  -11.4141   19.8972 H   0  0  0  0  0  0
  -29.7606  -11.7963   17.4712 H   0  0  0  0  0  0
  -29.6841  -13.5183   17.7530 H   0  0  0  0  0  0
  -27.8189  -11.3585   18.7979 H   0  0  0  0  0  0
  -27.3907  -12.7145   17.7818 H   0  0  0  0  0  0
  -27.6679  -14.2955   19.5595 H   0  0  0  0  0  0
  -28.7272  -12.1000   21.3915 H   0  0  0  0  0  0
  -28.4627  -13.7561   21.8466 H   0  0  0  0  0  0
  -25.2823   -9.5661   22.4765 H   0  0  0  0  0  0
  -24.0004   -7.4653   22.7512 H   0  0  0  0  0  0
  -21.0851   -8.8838   19.8982 H   0  0  0  0  0  0
  -22.3777  -10.9705   19.6172 H   0  0  0  0  0  0
  -21.2015   -7.6149   23.9719 H   0  0  0  0  0  0
  -21.1489   -6.0522   25.9073 H   0  0  0  0  0  0
  -22.0597   -2.7610   23.2843 H   0  0  0  0  0  0
  -22.4119  -11.9889   22.4780 H   0  0  0  0  0  0
  -21.1163  -13.1278   22.2651 H   0  0  0  0  0  0
  -24.6379  -15.8427   20.5242 H   0  0  0  0  0  0
  -26.2641  -15.6524   20.1060 H   0  0  0  0  0  0
  -26.7204  -32.5411   23.1150 H   0  0  0  0  0  0
  -25.0017  -33.9747   25.0394 H   0  0  0  0  0  0
  -22.7198  -31.3051   21.3947 H   0  0  0  0  0  0
  -23.3712  -35.9626   23.3360 H   0  0  0  0  0  0
  -24.3536  -36.8871   22.2064 H   0  0  0  0  0  0
  -23.7248  -37.6496   23.6673 H   0  0  0  0  0  0
  -26.1214  -31.5266   20.6072 H   0  0  0  0  0  0
  -26.8381  -30.8207   22.0216 H   0  0  0  0  0  0
  -28.1313  -28.9529   21.1636 H   0  0  0  0  0  0
  -25.9878  -25.8624   19.0550 H   0  0  0  0  0  0
  -23.9699  -27.2643   19.0429 H   0  0  0  0  0  0
  -23.7567  -30.5692   19.4010 H   0  0  0  0  0  0
  -22.7468  -29.2407   19.8658 H   0  0  0  0  0  0
  -25.1276  -36.1937   25.0849 H   0  0  0  0  0  0
  -20.9998  -28.3317   24.1423 H   0  0  0  0  0  0
  -20.5563  -26.2558   23.4023 H   0  0  0  0  0  0
  -21.6686  -26.7373   22.1602 H   0  0  0  0  0  0
  -19.6897  -25.6051   21.1711 H   0  0  0  0  0  0
  -19.6527  -27.2827   20.6782 H   0  0  0  0  0  0
  -17.4164  -26.6412   21.4356 H   0  0  0  0  0  0
  -18.0256  -26.0221   22.9478 H   0  0  0  0  0  0
  -19.7939  -30.7448   24.2082 H   0  0  0  0  0  0
  -17.5009  -31.6495   24.4834 H   0  0  0  0  0  0
  -15.5331  -30.3119   23.7623 H   0  0  0  0  0  0
  -15.8629  -28.0761   22.7514 H   0  0  0  0  0  0
  -24.5850  -30.7142   25.7786 H   0  0  0  0  0  0
  -24.8946  -32.2872   26.4987 H   0  0  0  0  0  0
  -25.8011  -30.8806   27.0228 H   0  0  0  0  0  0
  -26.3025  -29.6756   24.1197 H   0  0  0  0  0  0
  -27.3991  -29.7269   25.4831 H   0  0  0  0  0  0
  -27.8928  -30.4310   23.9611 H   0  0  0  0  0  0
  -27.2610  -33.3648   26.2138 H   0  0  0  0  0  0
  -28.3830  -32.6955   25.0397 H   0  0  0  0  0  0
  -28.0714  -31.8496   26.5485 H   0  0  0  0  0  0
  -28.2606  -38.0059   24.7466 H   0  0  0  0  0  0
  -28.1032  -36.2593   24.6361 H   0  0  0  0  0  0
  -27.2297  -37.1494   25.8892 H   0  0  0  0  0  0
  -20.9341  -29.8943   21.7040 H   0  0  0  0  0  0
  -26.0164  -38.2858   24.1332 H   0  0  0  0  0  0
  -29.1332  -17.8300   22.8159 H   0  0  0  0  0  0
  -28.5506  -20.0013   23.7664 H   0  0  0  0  0  0
  -30.5962  -17.1741   19.4308 H   0  0  0  0  0  0
  -29.3359  -15.8128   21.8453 H   0  0  0  0  0  0
  -30.9198  -19.8981   18.3743 H   0  0  0  0  0  0
  -29.2810  -20.3960   17.9384 H   0  0  0  0  0  0
  -29.6323  -18.7119   18.1260 H   0  0  0  0  0  0
  -29.5544  -22.3916   18.8406 H   0  0  0  0  0  0
  -30.2027  -22.9599   20.3208 H   0  0  0  0  0  0
  -27.3109  -23.2253   20.5101 H   0  0  0  0  0  0
  -27.7581  -23.8566   18.9908 H   0  0  0  0  0  0
  -27.8336  -25.1475   21.6141 H   0  0  0  0  0  0
  -29.4573  -25.0763   21.0689 H   0  0  0  0  0  0
  1 25  1  0  0  0
  1 30  2  0  0  0
  1 78  1  0  0  0
  2  3  1  0  0  0
  2 25  1  0  0  0
  2 84  1  0  0  0
  2 85  1  0  0  0
  3  4  1  0  0  0
  3 86  1  0  0  0
  3 87  1  0  0  0
  4  5  1  0  0  0
  4 88  1  0  0  0
  4 89  1  0  0  0
  5  6  1  0  0  0
  5 26  1  0  0  0
  5 90  1  0  0  0
  6 25  1  0  0  0
  6 91  1  0  0  0
  6 92  1  0  0  0
  7  8  2  0  0  0
  7 26  1  0  0  0
  7 29  1  0  0  0
  8  9  1  0  0  0
  8 22  1  0  0  0
  9 10  1  0  0  0
  9 27  2  0  0  0
 10 11  2  0  0  0
 10 15  1  0  0  0
 11 12  1  0  0  0
 11 93  1  0  0  0
 12 13  2  0  0  0
 12 94  1  0  0  0
 13 14  1  0  0  0
 13 31  1  0  0  0
 14 15  2  0  0  0
 14 95  1  0  0  0
 15 96  1  0  0  0
 16 17  2  0  0  0
 16 21  1  0  0  0
 16 31  1  0  0  0
 17 18  1  0  0  0
 17 97  1  0  0  0
 18 19  2  0  0  0
 18 98  1  0  0  0
 19 20  1  0  0  0
 19 24  1  0  0  0
 20 21  2  0  0  0
 20 99  1  0  0  0
 21 23  1  0  0  0
 22 28  1  0  0  0
 22 32  2  0  0  0
 26 27  1  0  0  0
 28100  1  0  0  0
 28101  1  0  0  0
 29102  1  0  0  0
 29103  1  0  0  0
 33 34  1  0  0  0
 33 66  1  0  0  0
 33 70  2  0  0  0
 34 36  1  0  0  0
 34 59  1  0  0  0
 34104  1  0  0  0
 35 44  2  0  0  0
 35 45  1  0  0  0
 35 68  1  0  0  0
 36 56  1  0  0  0
 36105  1  0  0  0
 37 39  1  0  0  0
 37 47  1  0  0  0
 37 66  1  0  0  0
 37106  1  0  0  0
 38 43  2  0  0  0
 38 46  1  0  0  0
 38 47  1  0  0  0
 39 64  1  0  0  0
 39 67  2  0  0  0
 40 52  1  0  0  0
 40 53  2  0  0  0
 40 58  1  0  0  0
 41107  1  0  0  0
 41108  1  0  0  0
 41109  1  0  0  0
 41 48  1  0  0  0
 42 43  1  0  0  0
 42 66  1  0  0  0
 42110  1  0  0  0
 42111  1  0  0  0
 43 44  1  0  0  0
 44112  1  0  0  0
 45 46  2  0  0  0
 45113  1  0  0  0
 46114  1  0  0  0
 47115  1  0  0  0
 47116  1  0  0  0
 48 56  1  0  0  0
 48 65  1  0  0  0
 48117  1  0  0  0
 49 50  1  0  0  0
 49 53  1  0  0  0
 49 64  1  0  0  0
 49118  1  0  0  0
 50 51  1  0  0  0
 50119  1  0  0  0
 50120  1  0  0  0
 51 52  1  0  0  0
 51121  1  0  0  0
 51122  1  0  0  0
 52123  1  0  0  0
 52124  1  0  0  0
 53 54  1  0  0  0
 54 55  2  0  0  0
 54125  1  0  0  0
 55 57  1  0  0  0
 55126  1  0  0  0
 56 69  2  0  0  0
 57 58  2  0  0  0
 57127  1  0  0  0
 58128  1  0  0  0
 59 60  1  0  0  0
 59 61  1  0  0  0
 59 62  1  0  0  0
 60129  1  0  0  0
 60130  1  0  0  0
 60131  1  0  0  0
 61132  1  0  0  0
 61133  1  0  0  0
 61134  1  0  0  0
 62135  1  0  0  0
 62136  1  0  0  0
 62137  1  0  0  0
 63 65  1  0  0  0
 63138  1  0  0  0
 63139  1  0  0  0
 63140  1  0  0  0
 64141  1  0  0  0
 65142  1  0  0  0
 68 82  1  0  0  0
 71 72  2  0  0  0
 71 73  1  0  0  0
 71143  1  0  0  0
 72 76  1  0  0  0
 72144  1  0  0  0
 73 74  2  0  0  0
 73 77  1  0  0  0
 74 75  1  0  0  0
 74 79  1  0  0  0
 75 76  2  0  0  0
 75 80  1  0  0  0
 76 83  1  0  0  0
 77 78  2  0  0  0
 77145  1  0  0  0
 78146  1  0  0  0
 79147  1  0  0  0
 79148  1  0  0  0
 79149  1  0  0  0
 80 81  1  0  0  0
 80150  1  0  0  0
 80151  1  0  0  0
 81 82  1  0  0  0
 81152  1  0  0  0
 81153  1  0  0  0
 82154  1  0  0  0
 82155  1  0  0  0
M  ISO  4   1 100  68 101  78 100  82 101
M  END
> <chiral flag>
0

> <version>
0

> <s_m_source_file>
/data/baiqing/PycharmProjects/Reinvent-master-3.2/result/LINK_invent/BTK/process_docking_weight1_custom_product_contain_oxygen_bond_distance_aromatic_linkinvent_7_9_3/rearranged_h_0127.sdf

> <i_m_source_file_index>
64

> <r_mmod_Potential_Energy-OPLS-2005>
205.706024169922

> <r_mmod_Stretch_Energy-OPLS-2005>
122.358825683594

> <r_mmod_Bend_Energy-OPLS-2005>
180.332641601562

> <r_mmod_Torsional_Energy-OPLS-2005>
234.222579956055

> <r_mmod_Improper_Torsional_Energy-OPLS-2005>
4.25213813781738

> <r_mmod_Van_der_Waal_Energy-OPLS-2005>
137.141006469727

> <r_mmod_Electrostatic_Energy-OPLS-2005>
-345.479553222656

> <r_mmod_Solvation_Energy-OPLS-2005>
-186.988998413086

> <b_mmod_Minimization_Converged-OPLS-2005>
0

> <r_mmod_RMS_Derivative-OPLS-2005>
7.03152990341187

$$$$
64
                    3D
 Structure written by MMmdl.
152160  0  0  1  0            999 V2000
  -30.6219  -14.6937   20.4713 C   0  0  0  0  0  0
  -30.4340  -12.4192   19.4715 C   0  0  0  0  0  0
  -29.5121  -12.5061   18.2340 C   0  0  0  0  0  0
  -28.0340  -12.3376   18.6397 C   0  0  0  0  0  0
  -27.6458  -13.2230   19.8536 C   0  0  2  0  0  0
  -28.6886  -13.1134   20.9866 C   0  0  0  0  0  0
  -25.2534  -13.8183   20.5684 C   0  0  0  0  0  0
  -24.1813  -13.0438   20.9193 C   0  0  0  0  0  0
  -24.6391  -11.6911   20.8735 C   0  0  0  0  0  0
  -23.9066  -10.4291   21.0401 C   0  0  0  0  0  0
  -24.3618   -9.4208   21.9180 C   0  0  0  0  0  0
  -23.6295   -8.2244   22.0754 C   0  0  0  0  0  0
  -22.4276   -8.0282   21.3545 C   0  0  0  0  0  0
  -21.9909   -9.0254   20.4648 C   0  0  0  0  0  0
  -22.7236  -10.2133   20.3054 C   0  0  0  0  0  0
  -21.6856   -6.0734   22.5277 C   0  0  0  0  0  0
  -21.4014   -6.5637   23.8210 C   0  0  0  0  0  0
  -21.3659   -5.6791   24.9172 C   0  0  0  0  0  0
  -21.6046   -4.3054   24.7222 C   0  0  0  0  0  0
  -21.8821   -3.8146   23.4344 C   0  0  0  0  0  0
  -21.9193   -4.6961   22.3398 C   0  0  0  0  0  0
  -22.7836  -13.5224   21.1856 C   0  0  0  0  0  0
  -22.1664   -4.2149   21.0977 F   0  0  0  0  0  0
  -21.5628   -3.4537   25.7734 F   0  0  0  0  0  0
  -29.9987  -13.4663   20.4230 N   0  0  0  0  0  0
  -26.2952  -12.9371   20.3277 N   0  0  0  0  0  0
  -25.9318  -11.6520   20.5736 N   0  0  0  0  0  0
  -22.0481  -12.8220   22.0416 N   0  0  0  0  0  0
  -25.4240  -15.1908   20.4105 N   0  0  0  0  0  0
  -31.8070  -14.7784   20.1342 O   0  0  0  0  0  0
  -21.6643   -6.8877   21.4241 O   0  0  0  0  0  0
  -22.3515  -14.5527   20.6700 O   0  0  0  0  0  0
  -24.6269  -31.8583   23.2012 C   0  0  0  0  0  0
  -25.9110  -32.4772   23.8347 C   0  0  1  0  0  0
  -27.2195  -27.3032   20.1298 C   0  0  0  0  0  0
  -25.5918  -33.8574   24.2265 N   0  0  0  0  0  0
  -23.4218  -30.4812   21.5436 C   0  0  2  0  0  0
  -24.8695  -28.9324   20.1121 C   0  0  0  0  0  0
  -22.7480  -29.4613   22.4928 C   0  0  0  0  0  0
  -18.0282  -28.1387   22.8479 C   0  0  0  0  0  0
  -24.1489  -36.7297   23.2638 C   0  0  0  0  0  0
  -25.9639  -30.7850   21.3746 C   0  0  0  0  0  0
  -26.0390  -29.4103   20.7186 C   0  0  0  0  0  0
  -27.2204  -28.6082   20.7149 C   0  0  0  0  0  0
  -26.0331  -26.8835   19.4917 C   0  0  0  0  0  0
  -24.8691  -27.6751   19.4879 C   0  0  0  0  0  0
  -23.6385  -29.8148   20.1594 C   0  0  0  0  0  0
  -25.4114  -36.3082   24.0325 C   0  0  1  0  0  0
  -20.5883  -28.3689   23.1276 C   0  0  2  0  0  0
  -20.6772  -26.9411   22.5409 C   0  0  0  0  0  0
  -19.5751  -26.6382   21.5209 C   0  0  0  0  0  0
  -18.1929  -26.7927   22.1620 C   0  0  0  0  0  0
  -19.1537  -28.8855   23.2871 C   0  0  0  0  0  0
  -18.9462  -30.1457   23.8886 C   0  0  0  0  0  0
  -17.6463  -30.6587   24.0561 C   0  0  0  0  0  0
  -25.9051  -34.9452   23.5098 C   0  0  0  0  0  0
  -16.5352  -29.9088   23.6332 C   0  0  0  0  0  0
  -16.7270  -28.6509   23.0342 C   0  0  0  0  0  0
  -26.4490  -31.6589   25.0726 C   0  0  0  0  0  0
  -25.3724  -31.3736   26.1456 C   0  0  0  0  0  0
  -27.0336  -30.3009   24.6198 C   0  0  0  0  0  0
  -27.6041  -32.4331   25.7504 C   0  0  0  0  0  0
  -27.5580  -37.1804   24.8462 C   0  0  0  0  0  0
  -21.4192  -29.3042   22.3675 N   0  0  0  0  0  0
  -26.4290  -37.3779   23.9408 N   0  0  0  0  0  0
  -24.6896  -31.0586   22.0965 N   0  0  0  0  0  0
  -23.4198  -28.8149   23.3008 O   0  0  0  0  0  0
  -28.3204  -26.4323   20.1504 O   0  0  0  0  0  0
  -26.5627  -34.8924   22.4669 O   0  0  0  0  0  0
  -23.5429  -32.1383   23.7333 O   0  0  0  0  0  0
  -31.7846  -19.1284   20.9417 C   0  0  0  0  0  0
  -32.1427  -20.4699   21.1428 C   0  0  0  0  0  0
  -29.4734  -19.8137   20.6737 C   0  0  0  0  0  0
  -30.4467  -18.7327   20.7573 C   0  0  0  0  0  0
  -29.8228  -21.2196   20.8430 C   0  0  0  0  0  0
  -31.1839  -21.4959   21.1446 C   0  0  0  0  0  0
  -30.3250  -17.1980   20.7066 C   0  0  0  0  0  0
  -29.7889  -15.9178   20.7398 C   0  0  0  0  0  0
  -28.7565  -22.3945   20.8986 C   0  0  0  0  0  0
  -28.9255  -23.7979   20.1151 C   0  0  0  0  0  0
  -28.0950  -25.0529   20.6676 C   0  0  0  0  0  0
  -31.8011  -23.2158   21.6912 Br  0  0  0  0  0  0
  -31.4767  -12.5339   19.1709 H   0  0  0  0  0  0
  -30.3675  -11.4337   19.9348 H   0  0  0  0  0  0
  -29.7891  -11.7447   17.5039 H   0  0  0  0  0  0
  -29.6511  -13.4690   17.7396 H   0  0  0  0  0  0
  -27.8790  -11.2866   18.8863 H   0  0  0  0  0  0
  -27.3808  -12.5499   17.7922 H   0  0  0  0  0  0
  -27.6518  -14.2505   19.4908 H   0  0  0  0  0  0
  -28.7125  -12.0987   21.3865 H   0  0  0  0  0  0
  -28.4281  -13.7541   21.8296 H   0  0  0  0  0  0
  -25.2762   -9.5687   22.4751 H   0  0  0  0  0  0
  -24.0007   -7.4634   22.7470 H   0  0  0  0  0  0
  -21.0840   -8.8770   19.8953 H   0  0  0  0  0  0
  -22.3692  -10.9671   19.6164 H   0  0  0  0  0  0
  -21.2011   -7.6147   23.9714 H   0  0  0  0  0  0
  -21.1480   -6.0520   25.9075 H   0  0  0  0  0  0
  -22.0601   -2.7609   23.2843 H   0  0  0  0  0  0
  -22.4102  -11.9893   22.4820 H   0  0  0  0  0  0
  -21.1097  -13.1245   22.2610 H   0  0  0  0  0  0
  -24.6583  -15.8462   20.5226 H   0  0  0  0  0  0
  -26.2740  -15.6303   20.0814 H   0  0  0  0  0  0
  -26.7179  -32.5440   23.1096 H   0  0  0  0  0  0
  -25.0056  -33.9713   25.0404 H   0  0  0  0  0  0
  -22.7162  -31.3019   21.3985 H   0  0  0  0  0  0
  -23.3751  -35.9629   23.3299 H   0  0  0  0  0  0
  -24.3578  -36.8924   22.2053 H   0  0  0  0  0  0
  -23.7246  -37.6498   23.6666 H   0  0  0  0  0  0
  -26.0965  -31.5473   20.6056 H   0  0  0  0  0  0
  -26.8435  -30.8348   22.0049 H   0  0  0  0  0  0
  -28.1187  -28.9686   21.1966 H   0  0  0  0  0  0
  -25.9971  -25.9218   18.9994 H   0  0  0  0  0  0
  -23.9751  -27.3051   19.0048 H   0  0  0  0  0  0
  -23.7600  -30.5904   19.4025 H   0  0  0  0  0  0
  -22.7582  -29.2455   19.8553 H   0  0  0  0  0  0
  -25.1297  -36.1933   25.0819 H   0  0  0  0  0  0
  -20.9966  -28.3266   24.1399 H   0  0  0  0  0  0
  -20.5665  -26.2300   23.3611 H   0  0  0  0  0  0
  -21.6643  -26.7437   22.1208 H   0  0  0  0  0  0
  -19.6914  -25.6293   21.1241 H   0  0  0  0  0  0
  -19.6688  -27.3191   20.6738 H   0  0  0  0  0  0
  -17.4196  -26.6660   21.4026 H   0  0  0  0  0  0
  -18.0335  -26.0073   22.9023 H   0  0  0  0  0  0
  -19.7941  -30.7275   24.2246 H   0  0  0  0  0  0
  -17.5021  -31.6265   24.5171 H   0  0  0  0  0  0
  -15.5354  -30.2988   23.7667 H   0  0  0  0  0  0
  -15.8667  -28.0836   22.7049 H   0  0  0  0  0  0
  -24.5888  -30.7093   25.7794 H   0  0  0  0  0  0
  -24.8928  -32.2906   26.4889 H   0  0  0  0  0  0
  -25.8049  -30.8910   27.0229 H   0  0  0  0  0  0
  -26.2918  -29.6761   24.1208 H   0  0  0  0  0  0
  -27.4004  -29.7267   25.4717 H   0  0  0  0  0  0
  -27.8799  -30.4284   23.9445 H   0  0  0  0  0  0
  -27.2635  -33.3620   26.2089 H   0  0  0  0  0  0
  -28.3852  -32.6910   25.0340 H   0  0  0  0  0  0
  -28.0711  -31.8456   26.5419 H   0  0  0  0  0  0
  -28.2595  -38.0104   24.7513 H   0  0  0  0  0  0
  -28.1077  -36.2636   24.6281 H   0  0  0  0  0  0
  -27.2297  -37.1447   25.8864 H   0  0  0  0  0  0
  -20.9374  -29.8775   21.6894 H   0  0  0  0  0  0
  -26.0171  -38.2853   24.1413 H   0  0  0  0  0  0
  -32.5625  -18.3785   20.9910 H   0  0  0  0  0  0
  -33.1740  -20.7128   21.3531 H   0  0  0  0  0  0
  -28.4334  -19.5620   20.5181 H   0  0  0  0  0  0
  -29.3209  -17.4648   20.9935 H   0  0  0  0  0  0
  -28.7392  -15.7440   20.9541 H   0  0  0  0  0  0
  -28.6651  -22.6332   21.9589 H   0  0  0  0  0  0
  -27.7873  -21.9753   20.6279 H   0  0  0  0  0  0
  -28.6766  -23.6393   19.0659 H   0  0  0  0  0  0
  -29.9638  -24.1078   20.0941 H   0  0  0  0  0  0
  -28.2984  -25.1216   21.7368 H   0  0  0  0  0  0
  -27.0410  -24.7820   20.6155 H   0  0  0  0  0  0
  1 25  1  0  0  0
  1 30  2  0  0  0
  1 78  1  0  0  0
  2  3  1  0  0  0
  2 25  1  0  0  0
  2 83  1  0  0  0
  2 84  1  0  0  0
  3  4  1  0  0  0
  3 85  1  0  0  0
  3 86  1  0  0  0
  4  5  1  0  0  0
  4 87  1  0  0  0
  4 88  1  0  0  0
  5  6  1  0  0  0
  5 26  1  0  0  0
  5 89  1  0  0  0
  6 25  1  0  0  0
  6 90  1  0  0  0
  6 91  1  0  0  0
  7  8  2  0  0  0
  7 26  1  0  0  0
  7 29  1  0  0  0
  8  9  1  0  0  0
  8 22  1  0  0  0
  9 10  1  0  0  0
  9 27  2  0  0  0
 10 11  2  0  0  0
 10 15  1  0  0  0
 11 12  1  0  0  0
 11 92  1  0  0  0
 12 13  2  0  0  0
 12 93  1  0  0  0
 13 14  1  0  0  0
 13 31  1  0  0  0
 14 15  2  0  0  0
 14 94  1  0  0  0
 15 95  1  0  0  0
 16 17  2  0  0  0
 16 21  1  0  0  0
 16 31  1  0  0  0
 17 18  1  0  0  0
 17 96  1  0  0  0
 18 19  2  0  0  0
 18 97  1  0  0  0
 19 20  1  0  0  0
 19 24  1  0  0  0
 20 21  2  0  0  0
 20 98  1  0  0  0
 21 23  1  0  0  0
 22 28  1  0  0  0
 22 32  2  0  0  0
 26 27  1  0  0  0
 28 99  1  0  0  0
 28100  1  0  0  0
 29101  1  0  0  0
 29102  1  0  0  0
 33 34  1  0  0  0
 33 66  1  0  0  0
 33 70  2  0  0  0
 34 36  1  0  0  0
 34 59  1  0  0  0
 34103  1  0  0  0
 35 44  2  0  0  0
 35 45  1  0  0  0
 35 68  1  0  0  0
 36 56  1  0  0  0
 36104  1  0  0  0
 37 39  1  0  0  0
 37 47  1  0  0  0
 37 66  1  0  0  0
 37105  1  0  0  0
 38 43  2  0  0  0
 38 46  1  0  0  0
 38 47  1  0  0  0
 39 64  1  0  0  0
 39 67  2  0  0  0
 40 52  1  0  0  0
 40 53  2  0  0  0
 40 58  1  0  0  0
 41106  1  0  0  0
 41107  1  0  0  0
 41108  1  0  0  0
 41 48  1  0  0  0
 42 43  1  0  0  0
 42 66  1  0  0  0
 42109  1  0  0  0
 42110  1  0  0  0
 43 44  1  0  0  0
 44111  1  0  0  0
 45 46  2  0  0  0
 45112  1  0  0  0
 46113  1  0  0  0
 47114  1  0  0  0
 47115  1  0  0  0
 48 56  1  0  0  0
 48 65  1  0  0  0
 48116  1  0  0  0
 49 50  1  0  0  0
 49 53  1  0  0  0
 49 64  1  0  0  0
 49117  1  0  0  0
 50 51  1  0  0  0
 50118  1  0  0  0
 50119  1  0  0  0
 51 52  1  0  0  0
 51120  1  0  0  0
 51121  1  0  0  0
 52122  1  0  0  0
 52123  1  0  0  0
 53 54  1  0  0  0
 54 55  2  0  0  0
 54124  1  0  0  0
 55 57  1  0  0  0
 55125  1  0  0  0
 56 69  2  0  0  0
 57 58  2  0  0  0
 57126  1  0  0  0
 58127  1  0  0  0
 59 60  1  0  0  0
 59 61  1  0  0  0
 59 62  1  0  0  0
 60128  1  0  0  0
 60129  1  0  0  0
 60130  1  0  0  0
 61131  1  0  0  0
 61132  1  0  0  0
 61133  1  0  0  0
 62134  1  0  0  0
 62135  1  0  0  0
 62136  1  0  0  0
 63 65  1  0  0  0
 63137  1  0  0  0
 63138  1  0  0  0
 63139  1  0  0  0
 64140  1  0  0  0
 65141  1  0  0  0
 68 81  1  0  0  0
 71 72  2  0  0  0
 71 74  1  0  0  0
 71142  1  0  0  0
 72 76  1  0  0  0
 72143  1  0  0  0
 73 74  2  0  0  0
 73 75  1  0  0  0
 73144  1  0  0  0
 74 77  1  0  0  0
 75 76  2  0  0  0
 75 79  1  0  0  0
 76 82  1  0  0  0
 77 78  2  0  0  0
 77145  1  0  0  0
 78146  1  0  0  0
 79 80  1  0  0  0
 79147  1  0  0  0
 79148  1  0  0  0
 80 81  1  0  0  0
 80149  1  0  0  0
 80150  1  0  0  0
 81151  1  0  0  0
 81152  1  0  0  0
M  ISO  4   1 100  68 101  78 100  81 101
M  END
> <chiral flag>
0

> <version>
0

> <s_m_source_file>
/data/baiqing/PycharmProjects/Reinvent-master-3.2/result/LINK_invent/BTK/process_docking_weight1_custom_product_contain_oxygen_bond_distance_aromatic_linkinvent_7_9_3/rearranged_h_0127.sdf

> <i_m_source_file_index>
65

> <r_mmod_Potential_Energy-OPLS-2005>
406.880157470703

> <r_mmod_Stretch_Energy-OPLS-2005>
104.770141601562

> <r_mmod_Bend_Energy-OPLS-2005>
400.457641601562

> <r_mmod_Torsional_Energy-OPLS-2005>
203.716781616211

> <r_mmod_Improper_Torsional_Energy-OPLS-2005>
5.1924295425415

> <r_mmod_Van_der_Waal_Energy-OPLS-2005>
153.787414550781

> <r_mmod_Electrostatic_Energy-OPLS-2005>
-324.535461425781

> <r_mmod_Solvation_Energy-OPLS-2005>
-198.120422363281

> <b_mmod_Minimization_Converged-OPLS-2005>
0

> <r_mmod_RMS_Derivative-OPLS-2005>
0.525216102600098

$$$$
65
                    3D
 Structure written by MMmdl.
155163  0  0  1  0            999 V2000
  -30.7046  -14.5610   20.4541 C   0  0  0  0  0  0
  -30.4164  -12.3244   19.4635 C   0  0  0  0  0  0
  -29.5093  -12.4770   18.2243 C   0  0  0  0  0  0
  -28.0284  -12.3379   18.6280 C   0  0  0  0  0  0
  -27.6511  -13.2191   19.8517 C   0  0  2  0  0  0
  -28.6953  -13.0933   20.9847 C   0  0  0  0  0  0
  -25.2521  -13.8140   20.5663 C   0  0  0  0  0  0
  -24.1806  -13.0406   20.9195 C   0  0  0  0  0  0
  -24.6393  -11.6883   20.8725 C   0  0  0  0  0  0
  -23.9058  -10.4276   21.0406 C   0  0  0  0  0  0
  -24.3610   -9.4191   21.9181 C   0  0  0  0  0  0
  -23.6290   -8.2233   22.0749 C   0  0  0  0  0  0
  -22.4269   -8.0278   21.3549 C   0  0  0  0  0  0
  -21.9896   -9.0253   20.4660 C   0  0  0  0  0  0
  -22.7228  -10.2128   20.3066 C   0  0  0  0  0  0
  -21.6855   -6.0734   22.5278 C   0  0  0  0  0  0
  -21.4028   -6.5635   23.8215 C   0  0  0  0  0  0
  -21.3655   -5.6777   24.9168 C   0  0  0  0  0  0
  -21.6038   -4.3035   24.7236 C   0  0  0  0  0  0
  -21.8812   -3.8146   23.4345 C   0  0  0  0  0  0
  -21.9189   -4.6961   22.3398 C   0  0  0  0  0  0
  -22.7836  -13.5211   21.1845 C   0  0  0  0  0  0
  -22.1651   -4.2141   21.0982 F   0  0  0  0  0  0
  -21.5616   -3.4523   25.7746 F   0  0  0  0  0  0
  -30.0228  -13.3742   20.4210 N   0  0  0  0  0  0
  -26.2969  -12.9357   20.3250 N   0  0  0  0  0  0
  -25.9325  -11.6506   20.5738 N   0  0  0  0  0  0
  -22.0460  -12.8255   22.0433 N   0  0  0  0  0  0
  -25.4112  -15.1856   20.4095 N   0  0  0  0  0  0
  -31.8999  -14.5994   20.1568 O   0  0  0  0  0  0
  -21.6628   -6.8880   21.4245 O   0  0  0  0  0  0
  -22.3515  -14.5490   20.6633 O   0  0  0  0  0  0
  -24.6219  -31.8635   23.2087 C   0  0  0  0  0  0
  -25.9089  -32.4787   23.8392 C   0  0  1  0  0  0
  -27.2178  -27.3491   20.0997 C   0  0  0  0  0  0
  -25.5918  -33.8584   24.2290 N   0  0  0  0  0  0
  -23.4145  -30.4913   21.5480 C   0  0  2  0  0  0
  -24.8609  -28.9615   20.1077 C   0  0  0  0  0  0
  -22.7450  -29.4643   22.4922 C   0  0  0  0  0  0
  -18.0286  -28.1385   22.8490 C   0  0  0  0  0  0
  -24.1489  -36.7299   23.2632 C   0  0  0  0  0  0
  -25.9568  -30.7958   21.3873 C   0  0  0  0  0  0
  -26.0275  -29.4297   20.7242 C   0  0  0  0  0  0
  -27.2072  -28.6319   20.7225 C   0  0  0  0  0  0
  -26.0274  -26.9439   19.4429 C   0  0  0  0  0  0
  -24.8619  -27.7213   19.4599 C   0  0  0  0  0  0
  -23.6289  -29.8355   20.1605 C   0  0  0  0  0  0
  -25.4107  -36.3079   24.0323 C   0  0  1  0  0  0
  -20.5881  -28.3681   23.1280 C   0  0  2  0  0  0
  -20.6772  -26.9405   22.5413 C   0  0  0  0  0  0
  -19.5756  -26.6384   21.5203 C   0  0  0  0  0  0
  -18.1934  -26.7933   22.1618 C   0  0  0  0  0  0
  -19.1540  -28.8849   23.2882 C   0  0  0  0  0  0
  -18.9459  -30.1445   23.8904 C   0  0  0  0  0  0
  -17.6464  -30.6594   24.0558 C   0  0  0  0  0  0
  -25.9045  -34.9444   23.5100 C   0  0  0  0  0  0
  -16.5349  -29.9093   23.6329 C   0  0  0  0  0  0
  -16.7274  -28.6503   23.0361 C   0  0  0  0  0  0
  -26.4486  -31.6600   25.0764 C   0  0  0  0  0  0
  -25.3718  -31.3761   26.1494 C   0  0  0  0  0  0
  -27.0329  -30.3010   24.6254 C   0  0  0  0  0  0
  -27.6044  -32.4349   25.7519 C   0  0  0  0  0  0
  -27.5582  -37.1795   24.8446 C   0  0  0  0  0  0
  -21.4170  -29.3044   22.3679 N   0  0  0  0  0  0
  -26.4279  -37.3780   23.9420 N   0  0  0  0  0  0
  -24.6816  -31.0673   22.1029 N   0  0  0  0  0  0
  -23.4189  -28.8163   23.2973 O   0  0  0  0  0  0
  -28.3322  -26.5009   20.1546 O   0  0  0  0  0  0
  -26.5622  -34.8905   22.4669 O   0  0  0  0  0  0
  -23.5387  -32.1421   23.7416 O   0  0  0  0  0  0
  -30.7839  -19.5160   20.5318 C   0  0  0  0  0  0
  -30.3867  -20.8698   20.3509 C   0  0  0  0  0  0
  -28.2372  -20.0902   19.5917 C   0  0  0  0  0  0
  -29.9358  -18.4167   20.2210 C   0  0  0  0  0  0
  -29.0970  -21.1804   19.8648 C   0  0  0  0  0  0
  -28.6358  -18.7372   19.7431 C   0  0  0  0  0  0
  -30.4964  -17.0232   20.3408 C   0  0  0  0  0  0
  -29.9127  -15.8065   20.5741 C   0  0  0  0  0  0
  -27.6661  -17.6648   19.2838 C   0  0  0  0  0  0
  -28.5958  -22.5994   19.4821 C   0  0  0  0  0  0
  -29.0799  -23.9262   20.1758 C   0  0  0  0  0  0
  -28.0791  -25.0911   19.8363 C   0  0  0  0  0  0
  -31.4678  -12.3797   19.1763 H   0  0  0  0  0  0
  -30.2885  -11.3370   19.9108 H   0  0  0  0  0  0
  -29.7676  -11.7264   17.4751 H   0  0  0  0  0  0
  -29.6741  -13.4485   17.7552 H   0  0  0  0  0  0
  -27.8501  -11.2889   18.8643 H   0  0  0  0  0  0
  -27.3825  -12.5702   17.7801 H   0  0  0  0  0  0
  -27.6646  -14.2503   19.5003 H   0  0  0  0  0  0
  -28.6802  -12.0897   21.4102 H   0  0  0  0  0  0
  -28.4655  -13.7662   21.8123 H   0  0  0  0  0  0
  -25.2775   -9.5664   22.4733 H   0  0  0  0  0  0
  -23.9999   -7.4621   22.7471 H   0  0  0  0  0  0
  -21.0807   -8.8788   19.8983 H   0  0  0  0  0  0
  -22.3691  -10.9667   19.6166 H   0  0  0  0  0  0
  -21.2037   -7.6145   23.9722 H   0  0  0  0  0  0
  -21.1472   -6.0505   25.9064 H   0  0  0  0  0  0
  -22.0601   -2.7614   23.2842 H   0  0  0  0  0  0
  -22.4071  -11.9955   22.4908 H   0  0  0  0  0  0
  -21.1093  -13.1317   22.2623 H   0  0  0  0  0  0
  -24.6334  -15.8289   20.5153 H   0  0  0  0  0  0
  -26.2535  -15.6275   20.0708 H   0  0  0  0  0  0
  -26.7153  -32.5459   23.1137 H   0  0  0  0  0  0
  -25.0038  -33.9739   25.0416 H   0  0  0  0  0  0
  -22.7070  -31.3110   21.4090 H   0  0  0  0  0  0
  -23.3751  -35.9631   23.3273 H   0  0  0  0  0  0
  -24.3584  -36.8950   22.2053 H   0  0  0  0  0  0
  -23.7244  -37.6493   23.6670 H   0  0  0  0  0  0
  -26.1005  -31.5635   20.6257 H   0  0  0  0  0  0
  -26.8316  -30.8308   22.0234 H   0  0  0  0  0  0
  -28.0956  -28.9766   21.2313 H   0  0  0  0  0  0
  -25.9510  -26.0122   18.9036 H   0  0  0  0  0  0
  -23.9732  -27.3639   18.9587 H   0  0  0  0  0  0
  -23.7450  -30.6133   19.4048 H   0  0  0  0  0  0
  -22.7527  -29.2601   19.8580 H   0  0  0  0  0  0
  -25.1285  -36.1922   25.0815 H   0  0  0  0  0  0
  -20.9974  -28.3254   24.1394 H   0  0  0  0  0  0
  -20.5662  -26.2279   23.3606 H   0  0  0  0  0  0
  -21.6641  -26.7436   22.1211 H   0  0  0  0  0  0
  -19.6911  -25.6287   21.1251 H   0  0  0  0  0  0
  -19.6708  -27.3177   20.6718 H   0  0  0  0  0  0
  -17.4204  -26.6674   21.4024 H   0  0  0  0  0  0
  -18.0340  -26.0071   22.9008 H   0  0  0  0  0  0
  -19.7929  -30.7252   24.2284 H   0  0  0  0  0  0
  -17.5021  -31.6278   24.5158 H   0  0  0  0  0  0
  -15.5350  -30.3001   23.7650 H   0  0  0  0  0  0
  -15.8669  -28.0821   22.7084 H   0  0  0  0  0  0
  -24.5848  -30.7171   25.7825 H   0  0  0  0  0  0
  -24.8962  -32.2939   26.4954 H   0  0  0  0  0  0
  -25.8024  -30.8899   27.0252 H   0  0  0  0  0  0
  -26.2918  -29.6778   24.1238 H   0  0  0  0  0  0
  -27.3949  -29.7267   25.4793 H   0  0  0  0  0  0
  -27.8826  -30.4282   23.9542 H   0  0  0  0  0  0
  -27.2634  -33.3608   26.2157 H   0  0  0  0  0  0
  -28.3804  -32.6992   25.0326 H   0  0  0  0  0  0
  -28.0776  -31.8461   26.5386 H   0  0  0  0  0  0
  -28.2567  -38.0124   24.7530 H   0  0  0  0  0  0
  -28.1111  -36.2657   24.6208 H   0  0  0  0  0  0
  -27.2314  -37.1368   25.8851 H   0  0  0  0  0  0
  -20.9330  -29.8754   21.6896 H   0  0  0  0  0  0
  -26.0154  -38.2844   24.1464 H   0  0  0  0  0  0
  -31.7894  -19.3190   20.8797 H   0  0  0  0  0  0
  -31.0929  -21.6626   20.5567 H   0  0  0  0  0  0
  -27.2561  -20.2992   19.1883 H   0  0  0  0  0  0
  -31.5588  -17.0101   20.1457 H   0  0  0  0  0  0
  -28.8649  -15.7513   20.8104 H   0  0  0  0  0  0
  -26.7920  -18.0996   18.7991 H   0  0  0  0  0  0
  -27.3096  -17.0937   20.1371 H   0  0  0  0  0  0
  -28.1359  -16.9918   18.5663 H   0  0  0  0  0  0
  -27.5102  -22.5626   19.5866 H   0  0  0  0  0  0
  -28.7675  -22.7062   18.4091 H   0  0  0  0  0  0
  -30.0880  -24.1724   19.8416 H   0  0  0  0  0  0
  -29.1251  -23.7955   21.2570 H   0  0  0  0  0  0
  -27.1516  -24.7980   20.3349 H   0  0  0  0  0  0
  -27.8897  -25.0403   18.7629 H   0  0  0  0  0  0
  1 25  1  0  0  0
  1 30  2  0  0  0
  1 78  1  0  0  0
  2  3  1  0  0  0
  2 25  1  0  0  0
  2 83  1  0  0  0
  2 84  1  0  0  0
  3  4  1  0  0  0
  3 85  1  0  0  0
  3 86  1  0  0  0
  4  5  1  0  0  0
  4 87  1  0  0  0
  4 88  1  0  0  0
  5  6  1  0  0  0
  5 26  1  0  0  0
  5 89  1  0  0  0
  6 25  1  0  0  0
  6 90  1  0  0  0
  6 91  1  0  0  0
  7  8  2  0  0  0
  7 26  1  0  0  0
  7 29  1  0  0  0
  8  9  1  0  0  0
  8 22  1  0  0  0
  9 10  1  0  0  0
  9 27  2  0  0  0
 10 11  2  0  0  0
 10 15  1  0  0  0
 11 12  1  0  0  0
 11 92  1  0  0  0
 12 13  2  0  0  0
 12 93  1  0  0  0
 13 14  1  0  0  0
 13 31  1  0  0  0
 14 15  2  0  0  0
 14 94  1  0  0  0
 15 95  1  0  0  0
 16 17  2  0  0  0
 16 21  1  0  0  0
 16 31  1  0  0  0
 17 18  1  0  0  0
 17 96  1  0  0  0
 18 19  2  0  0  0
 18 97  1  0  0  0
 19 20  1  0  0  0
 19 24  1  0  0  0
 20 21  2  0  0  0
 20 98  1  0  0  0
 21 23  1  0  0  0
 22 28  1  0  0  0
 22 32  2  0  0  0
 26 27  1  0  0  0
 28 99  1  0  0  0
 28100  1  0  0  0
 29101  1  0  0  0
 29102  1  0  0  0
 33 34  1  0  0  0
 33 66  1  0  0  0
 33 70  2  0  0  0
 34 36  1  0  0  0
 34 59  1  0  0  0
 34103  1  0  0  0
 35 44  2  0  0  0
 35 45  1  0  0  0
 35 68  1  0  0  0
 36 56  1  0  0  0
 36104  1  0  0  0
 37 39  1  0  0  0
 37 47  1  0  0  0
 37 66  1  0  0  0
 37105  1  0  0  0
 38 43  2  0  0  0
 38 46  1  0  0  0
 38 47  1  0  0  0
 39 64  1  0  0  0
 39 67  2  0  0  0
 40 52  1  0  0  0
 40 53  2  0  0  0
 40 58  1  0  0  0
 41106  1  0  0  0
 41107  1  0  0  0
 41108  1  0  0  0
 41 48  1  0  0  0
 42 43  1  0  0  0
 42 66  1  0  0  0
 42109  1  0  0  0
 42110  1  0  0  0
 43 44  1  0  0  0
 44111  1  0  0  0
 45 46  2  0  0  0
 45112  1  0  0  0
 46113  1  0  0  0
 47114  1  0  0  0
 47115  1  0  0  0
 48 56  1  0  0  0
 48 65  1  0  0  0
 48116  1  0  0  0
 49 50  1  0  0  0
 49 53  1  0  0  0
 49 64  1  0  0  0
 49117  1  0  0  0
 50 51  1  0  0  0
 50118  1  0  0  0
 50119  1  0  0  0
 51 52  1  0  0  0
 51120  1  0  0  0
 51121  1  0  0  0
 52122  1  0  0  0
 52123  1  0  0  0
 53 54  1  0  0  0
 54 55  2  0  0  0
 54124  1  0  0  0
 55 57  1  0  0  0
 55125  1  0  0  0
 56 69  2  0  0  0
 57 58  2  0  0  0
 57126  1  0  0  0
 58127  1  0  0  0
 59 60  1  0  0  0
 59 61  1  0  0  0
 59 62  1  0  0  0
 60128  1  0  0  0
 60129  1  0  0  0
 60130  1  0  0  0
 61131  1  0  0  0
 61132  1  0  0  0
 61133  1  0  0  0
 62134  1  0  0  0
 62135  1  0  0  0
 62136  1  0  0  0
 63 65  1  0  0  0
 63137  1  0  0  0
 63138  1  0  0  0
 63139  1  0  0  0
 64140  1  0  0  0
 65141  1  0  0  0
 68 82  1  0  0  0
 71 72  2  0  0  0
 71 74  1  0  0  0
 71142  1  0  0  0
 72 75  1  0  0  0
 72143  1  0  0  0
 73 75  2  0  0  0
 73 76  1  0  0  0
 73144  1  0  0  0
 74 76  2  0  0  0
 74 77  1  0  0  0
 75 80  1  0  0  0
 76 79  1  0  0  0
 77 78  2  0  0  0
 77145  1  0  0  0
 78146  1  0  0  0
 79147  1  0  0  0
 79148  1  0  0  0
 79149  1  0  0  0
 80 81  1  0  0  0
 80150  1  0  0  0
 80151  1  0  0  0
 81 82  1  0  0  0
 81152  1  0  0  0
 81153  1  0  0  0
 82154  1  0  0  0
 82155  1  0  0  0
M  ISO  4   1 100  68 101  78 100  82 101
M  END
> <chiral flag>
0

> <version>
0

> <s_m_source_file>
/data/baiqing/PycharmProjects/Reinvent-master-3.2/result/LINK_invent/BTK/process_docking_weight1_custom_product_contain_oxygen_bond_distance_aromatic_linkinvent_7_9_3/rearranged_h_0127.sdf

> <i_m_source_file_index>
66

> <r_mmod_Potential_Energy-OPLS-2005>
65.8363342285156

> <r_mmod_Stretch_Energy-OPLS-2005>
58.2092132568359

> <r_mmod_Bend_Energy-OPLS-2005>
139.730911254883

> <r_mmod_Torsional_Energy-OPLS-2005>
194.04182434082

> <r_mmod_Improper_Torsional_Energy-OPLS-2005>
7.61992740631104

> <r_mmod_Van_der_Waal_Energy-OPLS-2005>
161.931900024414

> <r_mmod_Electrostatic_Energy-OPLS-2005>
-343.298522949219

> <r_mmod_Solvation_Energy-OPLS-2005>
-193.110900878906

> <b_mmod_Minimization_Converged-OPLS-2005>
0

> <r_mmod_RMS_Derivative-OPLS-2005>
2.919677734375

$$$$
66
                    3D
 Structure written by MMmdl.
159167  0  0  1  0            999 V2000
  -30.7196  -14.4574   20.7139 C   0  0  0  0  0  0
  -30.4354  -12.3643   19.3893 C   0  0  0  0  0  0
  -29.4870  -12.5578   18.1886 C   0  0  0  0  0  0
  -28.0134  -12.3794   18.6063 C   0  0  0  0  0  0
  -27.6630  -13.1975   19.8728 C   0  0  2  0  0  0
  -28.7026  -12.9443   20.9823 C   0  0  0  0  0  0
  -25.2608  -13.8139   20.5660 C   0  0  0  0  0  0
  -24.1846  -13.0429   20.9159 C   0  0  0  0  0  0
  -24.6391  -11.6894   20.8720 C   0  0  0  0  0  0
  -23.9057  -10.4282   21.0411 C   0  0  0  0  0  0
  -24.3608   -9.4197   21.9196 C   0  0  0  0  0  0
  -23.6290   -8.2226   22.0768 C   0  0  0  0  0  0
  -22.4269   -8.0268   21.3556 C   0  0  0  0  0  0
  -21.9893   -9.0240   20.4660 C   0  0  0  0  0  0
  -22.7221  -10.2122   20.3068 C   0  0  0  0  0  0
  -21.6838   -6.0723   22.5290 C   0  0  0  0  0  0
  -21.3997   -6.5635   23.8223 C   0  0  0  0  0  0
  -21.3670   -5.6795   24.9189 C   0  0  0  0  0  0
  -21.6052   -4.3058   24.7234 C   0  0  0  0  0  0
  -21.8818   -3.8137   23.4355 C   0  0  0  0  0  0
  -21.9185   -4.6951   22.3410 C   0  0  0  0  0  0
  -22.7871  -13.5236   21.1844 C   0  0  0  0  0  0
  -22.1657   -4.2139   21.0984 F   0  0  0  0  0  0
  -21.5647   -3.4548   25.7751 F   0  0  0  0  0  0
  -30.0385  -13.2990   20.4563 N   0  0  0  0  0  0
  -26.3026  -12.9283   20.3327 N   0  0  0  0  0  0
  -25.9309  -11.6450   20.5719 N   0  0  0  0  0  0
  -22.0494  -12.8249   22.0403 N   0  0  0  0  0  0
  -25.4358  -15.1853   20.4101 N   0  0  0  0  0  0
  -31.7188  -14.7892   20.0671 O   0  0  0  0  0  0
  -21.6633   -6.8863   21.4249 O   0  0  0  0  0  0
  -22.3562  -14.5552   20.6705 O   0  0  0  0  0  0
  -24.6186  -31.8656   23.2106 C   0  0  0  0  0  0
  -25.9063  -32.4815   23.8406 C   0  0  1  0  0  0
  -27.2330  -27.3887   20.0847 C   0  0  0  0  0  0
  -25.5903  -33.8615   24.2311 N   0  0  0  0  0  0
  -23.4092  -30.4928   21.5518 C   0  0  2  0  0  0
  -24.8553  -28.9606   20.1164 C   0  0  0  0  0  0
  -22.7429  -29.4658   22.4967 C   0  0  0  0  0  0
  -18.0269  -28.1391   22.8487 C   0  0  0  0  0  0
  -24.1481  -36.7298   23.2641 C   0  0  0  0  0  0
  -25.9481  -30.8137   21.3784 C   0  0  0  0  0  0
  -26.0229  -29.4500   20.7134 C   0  0  0  0  0  0
  -27.2133  -28.6735   20.6935 C   0  0  0  0  0  0
  -26.0329  -26.9358   19.4781 C   0  0  0  0  0  0
  -24.8573  -27.7035   19.4974 C   0  0  0  0  0  0
  -23.6213  -29.8332   20.1660 C   0  0  0  0  0  0
  -25.4113  -36.3102   24.0332 C   0  0  1  0  0  0
  -20.5866  -28.3676   23.1306 C   0  0  2  0  0  0
  -20.6768  -26.9410   22.5416 C   0  0  0  0  0  0
  -19.5749  -26.6389   21.5212 C   0  0  0  0  0  0
  -18.1922  -26.7939   22.1614 C   0  0  0  0  0  0
  -19.1522  -28.8850   23.2895 C   0  0  0  0  0  0
  -18.9455  -30.1457   23.8903 C   0  0  0  0  0  0
  -17.6459  -30.6595   24.0564 C   0  0  0  0  0  0
  -25.9047  -34.9472   23.5118 C   0  0  0  0  0  0
  -16.5346  -29.9096   23.6337 C   0  0  0  0  0  0
  -16.7256  -28.6515   23.0350 C   0  0  0  0  0  0
  -26.4473  -31.6619   25.0755 C   0  0  0  0  0  0
  -25.3726  -31.3757   26.1498 C   0  0  0  0  0  0
  -27.0306  -30.3037   24.6212 C   0  0  0  0  0  0
  -27.6033  -32.4364   25.7514 C   0  0  0  0  0  0
  -27.5582  -37.1802   24.8458 C   0  0  0  0  0  0
  -21.4151  -29.3030   22.3699 N   0  0  0  0  0  0
  -26.4293  -37.3795   23.9410 N   0  0  0  0  0  0
  -24.6765  -31.0728   22.1032 N   0  0  0  0  0  0
  -23.4179  -28.8191   23.3022 O   0  0  0  0  0  0
  -28.3876  -26.6029   20.1020 O   0  0  0  0  0  0
  -26.5614  -34.8921   22.4682 O   0  0  0  0  0  0
  -23.5368  -32.1428   23.7467 O   0  0  0  0  0  0
  -30.7374  -18.8288   22.3399 C   0  0  0  0  0  0
  -30.8245  -20.1752   21.9315 C   0  0  0  0  0  0
  -29.8910  -19.5602   19.7887 C   0  0  0  0  0  0
  -30.2042  -17.8163   21.5070 C   0  0  0  0  0  0
  -30.4065  -20.5663   20.6454 C   0  0  0  0  0  0
  -29.7594  -18.1996   20.2077 C   0  0  0  0  0  0
  -30.0802  -16.4867   22.1815 C   0  0  0  0  0  0
  -30.2447  -15.1621   21.9063 C   0  0  0  0  0  0
  -29.4122  -22.9751   20.1296 C   0  0  0  0  0  0
  -29.4667  -24.3045   19.8450 C   0  0  0  0  0  0
  -27.7927  -17.7218   18.6293 C   0  0  0  0  0  0
  -30.6195  -22.0254   20.1843 C   0  0  0  0  0  0
  -29.0843  -17.1975   19.2744 C   0  0  0  0  0  0
  -28.2441  -25.2196   19.6780 C   0  0  0  0  0  0
  -31.4718  -12.5118   19.0807 H   0  0  0  0  0  0
  -30.3827  -11.3384   19.7568 H   0  0  0  0  0  0
  -29.7397  -11.8577   17.3914 H   0  0  0  0  0  0
  -29.6250  -13.5578   17.7728 H   0  0  0  0  0  0
  -27.8388  -11.3186   18.7903 H   0  0  0  0  0  0
  -27.3498  -12.6606   17.7870 H   0  0  0  0  0  0
  -27.7148  -14.2498   19.5975 H   0  0  0  0  0  0
  -28.6989  -11.8921   21.2723 H   0  0  0  0  0  0
  -28.3976  -13.4831   21.8769 H   0  0  0  0  0  0
  -25.2753   -9.5682   22.4775 H   0  0  0  0  0  0
  -24.0012   -7.4611   22.7479 H   0  0  0  0  0  0
  -21.0829   -8.8748   19.8960 H   0  0  0  0  0  0
  -22.3678  -10.9662   19.6180 H   0  0  0  0  0  0
  -21.1975   -7.6143   23.9729 H   0  0  0  0  0  0
  -21.1509   -6.0522   25.9103 H   0  0  0  0  0  0
  -22.0589   -2.7598   23.2856 H   0  0  0  0  0  0
  -22.4062  -11.9901   22.4802 H   0  0  0  0  0  0
  -21.1133  -13.1336   22.2632 H   0  0  0  0  0  0
  -24.6780  -15.8471   20.5386 H   0  0  0  0  0  0
  -26.3052  -15.6251   20.1363 H   0  0  0  0  0  0
  -26.7124  -32.5495   23.1157 H   0  0  0  0  0  0
  -25.0035  -33.9784   25.0442 H   0  0  0  0  0  0
  -22.7000  -31.3115   21.4140 H   0  0  0  0  0  0
  -23.3752  -35.9620   23.3315 H   0  0  0  0  0  0
  -24.3564  -36.8908   22.2053 H   0  0  0  0  0  0
  -23.7223  -37.6498   23.6656 H   0  0  0  0  0  0
  -26.0859  -31.5880   20.6224 H   0  0  0  0  0  0
  -26.8250  -30.8478   22.0134 H   0  0  0  0  0  0
  -28.1126  -29.0514   21.1594 H   0  0  0  0  0  0
  -25.9631  -25.9817   18.9785 H   0  0  0  0  0  0
  -23.9591  -27.3216   19.0313 H   0  0  0  0  0  0
  -23.7365  -30.6111   19.4103 H   0  0  0  0  0  0
  -22.7431  -29.2600   19.8644 H   0  0  0  0  0  0
  -25.1297  -36.1962   25.0826 H   0  0  0  0  0  0
  -20.9956  -28.3247   24.1429 H   0  0  0  0  0  0
  -20.5681  -26.2279   23.3601 H   0  0  0  0  0  0
  -21.6637  -26.7461   22.1203 H   0  0  0  0  0  0
  -19.6916  -25.6300   21.1242 H   0  0  0  0  0  0
  -19.6711  -27.3196   20.6743 H   0  0  0  0  0  0
  -17.4199  -26.6684   21.4006 H   0  0  0  0  0  0
  -18.0324  -26.0081   22.9009 H   0  0  0  0  0  0
  -19.7937  -30.7266   24.2273 H   0  0  0  0  0  0
  -17.5021  -31.6280   24.5162 H   0  0  0  0  0  0
  -15.5349  -30.3000   23.7682 H   0  0  0  0  0  0
  -15.8647  -28.0845   22.7063 H   0  0  0  0  0  0
  -24.5866  -30.7147   25.7832 H   0  0  0  0  0  0
  -24.8962  -32.2930   26.4971 H   0  0  0  0  0  0
  -25.8063  -30.8893   27.0245 H   0  0  0  0  0  0
  -26.2878  -29.6812   24.1209 H   0  0  0  0  0  0
  -27.3951  -29.7281   25.4731 H   0  0  0  0  0  0
  -27.8778  -30.4304   23.9467 H   0  0  0  0  0  0
  -27.2616  -33.3626   26.2151 H   0  0  0  0  0  0
  -28.3804  -32.7006   25.0327 H   0  0  0  0  0  0
  -28.0755  -31.8474   26.5387 H   0  0  0  0  0  0
  -28.2600  -38.0099   24.7515 H   0  0  0  0  0  0
  -28.1074  -36.2633   24.6268 H   0  0  0  0  0  0
  -27.2300  -37.1433   25.8859 H   0  0  0  0  0  0
  -20.9312  -29.8731   21.6902 H   0  0  0  0  0  0
  -26.0177  -38.2866   24.1427 H   0  0  0  0  0  0
  -31.0717  -18.5752   23.3369 H   0  0  0  0  0  0
  -31.2334  -20.9053   22.6168 H   0  0  0  0  0  0
  -29.5832  -19.8477   18.7930 H   0  0  0  0  0  0
  -29.7174  -16.6203   23.1918 H   0  0  0  0  0  0
  -30.0171  -14.5198   22.7441 H   0  0  0  0  0  0
  -28.4495  -22.5138   20.3002 H   0  0  0  0  0  0
  -30.4263  -24.7698   19.6676 H   0  0  0  0  0  0
  -27.2942  -16.9297   18.0691 H   0  0  0  0  0  0
  -27.9884  -18.5351   17.9311 H   0  0  0  0  0  0
  -27.0920  -18.0840   19.3827 H   0  0  0  0  0  0
  -31.0570  -21.9899   19.1848 H   0  0  0  0  0  0
  -31.3825  -22.4885   20.8121 H   0  0  0  0  0  0
  -28.8197  -16.2997   19.8266 H   0  0  0  0  0  0
  -29.7922  -16.8897   18.5032 H   0  0  0  0  0  0
  -27.4081  -24.7481   20.1978 H   0  0  0  0  0  0
  -28.0170  -25.2151   18.6108 H   0  0  0  0  0  0
  1 25  1  0  0  0
  1 30  2  0  0  0
  1 78  1  0  0  0
  2  3  1  0  0  0
  2 25  1  0  0  0
  2 85  1  0  0  0
  2 86  1  0  0  0
  3  4  1  0  0  0
  3 87  1  0  0  0
  3 88  1  0  0  0
  4  5  1  0  0  0
  4 89  1  0  0  0
  4 90  1  0  0  0
  5  6  1  0  0  0
  5 26  1  0  0  0
  5 91  1  0  0  0
  6 25  1  0  0  0
  6 92  1  0  0  0
  6 93  1  0  0  0
  7  8  2  0  0  0
  7 26  1  0  0  0
  7 29  1  0  0  0
  8  9  1  0  0  0
  8 22  1  0  0  0
  9 10  1  0  0  0
  9 27  2  0  0  0
 10 11  2  0  0  0
 10 15  1  0  0  0
 11 12  1  0  0  0
 11 94  1  0  0  0
 12 13  2  0  0  0
 12 95  1  0  0  0
 13 14  1  0  0  0
 13 31  1  0  0  0
 14 15  2  0  0  0
 14 96  1  0  0  0
 15 97  1  0  0  0
 16 17  2  0  0  0
 16 21  1  0  0  0
 16 31  1  0  0  0
 17 18  1  0  0  0
 17 98  1  0  0  0
 18 19  2  0  0  0
 18 99  1  0  0  0
 19 20  1  0  0  0
 19 24  1  0  0  0
 20 21  2  0  0  0
 20100  1  0  0  0
 21 23  1  0  0  0
 22 28  1  0  0  0
 22 32  2  0  0  0
 26 27  1  0  0  0
 28101  1  0  0  0
 28102  1  0  0  0
 29103  1  0  0  0
 29104  1  0  0  0
 33 34  1  0  0  0
 33 66  1  0  0  0
 33 70  2  0  0  0
 34 36  1  0  0  0
 34 59  1  0  0  0
 34105  1  0  0  0
 35 44  2  0  0  0
 35 45  1  0  0  0
 35 68  1  0  0  0
 36 56  1  0  0  0
 36106  1  0  0  0
 37 39  1  0  0  0
 37 47  1  0  0  0
 37 66  1  0  0  0
 37107  1  0  0  0
 38 43  2  0  0  0
 38 46  1  0  0  0
 38 47  1  0  0  0
 39 64  1  0  0  0
 39 67  2  0  0  0
 40 52  1  0  0  0
 40 53  2  0  0  0
 40 58  1  0  0  0
 41108  1  0  0  0
 41109  1  0  0  0
 41110  1  0  0  0
 41 48  1  0  0  0
 42 43  1  0  0  0
 42 66  1  0  0  0
 42111  1  0  0  0
 42112  1  0  0  0
 43 44  1  0  0  0
 44113  1  0  0  0
 45 46  2  0  0  0
 45114  1  0  0  0
 46115  1  0  0  0
 47116  1  0  0  0
 47117  1  0  0  0
 48 56  1  0  0  0
 48 65  1  0  0  0
 48118  1  0  0  0
 49 50  1  0  0  0
 49 53  1  0  0  0
 49 64  1  0  0  0
 49119  1  0  0  0
 50 51  1  0  0  0
 50120  1  0  0  0
 50121  1  0  0  0
 51 52  1  0  0  0
 51122  1  0  0  0
 51123  1  0  0  0
 52124  1  0  0  0
 52125  1  0  0  0
 53 54  1  0  0  0
 54 55  2  0  0  0
 54126  1  0  0  0
 55 57  1  0  0  0
 55127  1  0  0  0
 56 69  2  0  0  0
 57 58  2  0  0  0
 57128  1  0  0  0
 58129  1  0  0  0
 59 60  1  0  0  0
 59 61  1  0  0  0
 59 62  1  0  0  0
 60130  1  0  0  0
 60131  1  0  0  0
 60132  1  0  0  0
 61133  1  0  0  0
 61134  1  0  0  0
 61135  1  0  0  0
 62136  1  0  0  0
 62137  1  0  0  0
 62138  1  0  0  0
 63 65  1  0  0  0
 63139  1  0  0  0
 63140  1  0  0  0
 63141  1  0  0  0
 64142  1  0  0  0
 65143  1  0  0  0
 68 84  1  0  0  0
 71 72  2  0  0  0
 71 74  1  0  0  0
 71144  1  0  0  0
 72 75  1  0  0  0
 72145  1  0  0  0
 73 75  2  0  0  0
 73 76  1  0  0  0
 73146  1  0  0  0
 74 76  2  0  0  0
 74 77  1  0  0  0
 75 82  1  0  0  0
 76 83  1  0  0  0
 77 78  2  0  0  0
 77147  1  0  0  0
 78148  1  0  0  0
 79 80  2  0  0  0
 79 82  1  0  0  0
 79149  1  0  0  0
 80 84  1  0  0  0
 80150  1  0  0  0
 81 83  1  0  0  0
 81151  1  0  0  0
 81152  1  0  0  0
 81153  1  0  0  0
 82154  1  0  0  0
 82155  1  0  0  0
 83156  1  0  0  0
 83157  1  0  0  0
 84158  1  0  0  0
 84159  1  0  0  0
M  ISO  4   1 100  68 101  78 100  84 101
M  END
> <chiral flag>
0

> <version>
0

> <s_m_source_file>
/data/baiqing/PycharmProjects/Reinvent-master-3.2/result/LINK_invent/BTK/process_docking_weight1_custom_product_contain_oxygen_bond_distance_aromatic_linkinvent_7_9_3/rearranged_h_0127.sdf

> <i_m_source_file_index>
67

> <r_mmod_Potential_Energy-OPLS-2005>
51.2747688293457

> <r_mmod_Stretch_Energy-OPLS-2005>
49.6856956481934

> <r_mmod_Bend_Energy-OPLS-2005>
150.913070678711

> <r_mmod_Torsional_Energy-OPLS-2005>
196.961318969727

> <r_mmod_Improper_Torsional_Energy-OPLS-2005>
4.2271556854248

> <r_mmod_Van_der_Waal_Energy-OPLS-2005>
150.98860168457

> <r_mmod_Electrostatic_Energy-OPLS-2005>
-329.948913574219

> <r_mmod_Solvation_Energy-OPLS-2005>
-189.942764282227

> <b_mmod_Minimization_Converged-OPLS-2005>
0

> <r_mmod_RMS_Derivative-OPLS-2005>
1.74267637729645

$$$$
67
                    3D
 Structure written by MMmdl.
155164  0  0  1  0            999 V2000
  -30.5762  -14.6799   20.4827 C   0  0  0  0  0  0
  -30.4490  -12.4133   19.4496 C   0  0  0  0  0  0
  -29.5108  -12.5065   18.2235 C   0  0  0  0  0  0
  -28.0332  -12.3346   18.6342 C   0  0  0  0  0  0
  -27.6500  -13.2088   19.8571 C   0  0  2  0  0  0
  -28.6962  -13.0646   20.9860 C   0  0  0  0  0  0
  -25.2528  -13.8122   20.5631 C   0  0  0  0  0  0
  -24.1808  -13.0415   20.9216 C   0  0  0  0  0  0
  -24.6370  -11.6886   20.8763 C   0  0  0  0  0  0
  -23.9030  -10.4281   21.0422 C   0  0  0  0  0  0
  -24.3588   -9.4199   21.9200 C   0  0  0  0  0  0
  -23.6279   -8.2227   22.0756 C   0  0  0  0  0  0
  -22.4267   -8.0267   21.3539 C   0  0  0  0  0  0
  -21.9887   -9.0238   20.4645 C   0  0  0  0  0  0
  -22.7203  -10.2128   20.3066 C   0  0  0  0  0  0
  -21.6844   -6.0726   22.5280 C   0  0  0  0  0  0
  -21.4003   -6.5628   23.8212 C   0  0  0  0  0  0
  -21.3660   -5.6785   24.9177 C   0  0  0  0  0  0
  -21.6047   -4.3048   24.7222 C   0  0  0  0  0  0
  -21.8819   -3.8136   23.4344 C   0  0  0  0  0  0
  -21.9186   -4.6951   22.3401 C   0  0  0  0  0  0
  -22.7833  -13.5227   21.1862 C   0  0  0  0  0  0
  -22.1663   -4.2139   21.0978 F   0  0  0  0  0  0
  -21.5634   -3.4533   25.7736 F   0  0  0  0  0  0
  -30.0086  -13.4306   20.4249 N   0  0  0  0  0  0
  -26.2954  -12.9298   20.3263 N   0  0  0  0  0  0
  -25.9291  -11.6465   20.5740 N   0  0  0  0  0  0
  -22.0449  -12.8253   22.0424 N   0  0  0  0  0  0
  -25.4186  -15.1821   20.3904 N   0  0  0  0  0  0
  -31.7460  -14.8748   20.1371 O   0  0  0  0  0  0
  -21.6631   -6.8864   21.4239 O   0  0  0  0  0  0
  -22.3536  -14.5531   20.6693 O   0  0  0  0  0  0
  -24.6264  -31.8579   23.1992 C   0  0  0  0  0  0
  -25.9104  -32.4775   23.8326 C   0  0  1  0  0  0
  -27.2420  -27.3149   20.1293 C   0  0  0  0  0  0
  -25.5913  -33.8577   24.2260 N   0  0  0  0  0  0
  -23.4223  -30.4751   21.5431 C   0  0  2  0  0  0
  -24.8719  -28.9150   20.1235 C   0  0  0  0  0  0
  -22.7477  -29.4601   22.4959 C   0  0  0  0  0  0
  -18.0283  -28.1375   22.8488 C   0  0  0  0  0  0
  -24.1483  -36.7283   23.2631 C   0  0  0  0  0  0
  -25.9611  -30.7874   21.3688 C   0  0  0  0  0  0
  -26.0392  -29.4099   20.7190 C   0  0  0  0  0  0
  -27.2297  -28.6248   20.7011 C   0  0  0  0  0  0
  -26.0507  -26.8565   19.5321 C   0  0  0  0  0  0
  -24.8791  -27.6439   19.5212 C   0  0  0  0  0  0
  -23.6392  -29.7973   20.1636 C   0  0  0  0  0  0
  -25.4108  -36.3085   24.0332 C   0  0  1  0  0  0
  -20.5883  -28.3680   23.1296 C   0  0  2  0  0  0
  -20.6777  -26.9406   22.5417 C   0  0  0  0  0  0
  -19.5754  -26.6380   21.5217 C   0  0  0  0  0  0
  -18.1932  -26.7920   22.1623 C   0  0  0  0  0  0
  -19.1533  -28.8845   23.2882 C   0  0  0  0  0  0
  -18.9454  -30.1451   23.8895 C   0  0  0  0  0  0
  -17.6453  -30.6584   24.0555 C   0  0  0  0  0  0
  -25.9057  -34.9455   23.5104 C   0  0  0  0  0  0
  -16.5347  -29.9079   23.6328 C   0  0  0  0  0  0
  -16.7268  -28.6493   23.0357 C   0  0  0  0  0  0
  -26.4491  -31.6588   25.0697 C   0  0  0  0  0  0
  -25.3715  -31.3729   26.1418 C   0  0  0  0  0  0
  -27.0330  -30.3010   24.6152 C   0  0  0  0  0  0
  -27.6063  -32.4313   25.7459 C   0  0  0  0  0  0
  -27.5605  -37.1757   24.8437 C   0  0  0  0  0  0
  -21.4193  -29.3025   22.3691 N   0  0  0  0  0  0
  -26.4270  -37.3803   23.9455 N   0  0  0  0  0  0
  -24.6887  -31.0576   22.0946 N   0  0  0  0  0  0
  -23.4191  -28.8161   23.3059 O   0  0  0  0  0  0
  -28.3986  -26.5287   20.0595 O   0  0  0  0  0  0
  -26.5639  -34.8935   22.4678 O   0  0  0  0  0  0
  -23.5427  -32.1373   23.7320 O   0  0  0  0  0  0
  -28.0267  -19.1031   20.3604 C   0  0  0  0  0  0
  -28.3231  -17.7054   20.3891 C   0  0  0  0  0  0
  -30.7183  -18.0710   20.7780 C   0  0  0  0  0  0
  -30.4523  -19.4794   20.7988 C   0  0  0  0  0  0
  -29.0953  -19.9859   20.5679 C   0  0  0  0  0  0
  -29.6302  -17.1495   20.6040 C   0  0  0  0  0  0
  -30.8145  -20.9407   20.9864 C   0  0  0  0  0  0
  -31.9224  -21.6601   21.2251 C   0  0  0  0  0  0
  -29.3422  -21.4887   20.8493 C   0  0  1  0  0  0
  -29.1537  -22.6099   19.7329 C   0  0  0  0  0  0
  -28.1271  -23.8432   19.9007 C   0  0  0  0  0  0
  -28.4792  -25.1880   20.6883 C   0  0  0  0  0  0
  -29.6854  -15.6883   20.7642 N   0  0  0  0  0  0
  -31.4852  -12.5660   19.1439 H   0  0  0  0  0  0
  -30.4093  -11.4169   19.8939 H   0  0  0  0  0  0
  -29.7831  -11.7528   17.4830 H   0  0  0  0  0  0
  -29.6418  -13.4735   17.7351 H   0  0  0  0  0  0
  -27.8767  -11.2820   18.8734 H   0  0  0  0  0  0
  -27.3764  -12.5538   17.7915 H   0  0  0  0  0  0
  -27.6640  -14.2407   19.5086 H   0  0  0  0  0  0
  -28.7173  -12.0391   21.3574 H   0  0  0  0  0  0
  -28.4326  -13.6828   21.8458 H   0  0  0  0  0  0
  -25.2729   -9.5682   22.4777 H   0  0  0  0  0  0
  -23.9992   -7.4606   22.7468 H   0  0  0  0  0  0
  -21.0817   -8.8742   19.8949 H   0  0  0  0  0  0
  -22.3651  -10.9665   19.6176 H   0  0  0  0  0  0
  -21.1995   -7.6138   23.9712 H   0  0  0  0  0  0
  -21.1489   -6.0515   25.9080 H   0  0  0  0  0  0
  -22.0600   -2.7597   23.2841 H   0  0  0  0  0  0
  -22.4043  -11.9927   22.4853 H   0  0  0  0  0  0
  -21.1064  -13.1301   22.2591 H   0  0  0  0  0  0
  -24.6220  -15.8084   20.4359 H   0  0  0  0  0  0
  -26.2024  -15.5787   19.8908 H   0  0  0  0  0  0
  -26.7169  -32.5453   23.1074 H   0  0  0  0  0  0
  -25.0033  -33.9714   25.0388 H   0  0  0  0  0  0
  -22.7167  -31.2953   21.3948 H   0  0  0  0  0  0
  -23.3794  -35.9558   23.3203 H   0  0  0  0  0  0
  -24.3604  -36.8997   22.2066 H   0  0  0  0  0  0
  -23.7154  -37.6424   23.6707 H   0  0  0  0  0  0
  -26.0905  -31.5478   20.5976 H   0  0  0  0  0  0
  -26.8424  -30.8409   21.9968 H   0  0  0  0  0  0
  -28.1378  -29.0154   21.1389 H   0  0  0  0  0  0
  -26.0310  -25.8844   19.0607 H   0  0  0  0  0  0
  -23.9840  -27.2590   19.0522 H   0  0  0  0  0  0
  -23.7609  -30.5678   19.4013 H   0  0  0  0  0  0
  -22.7597  -29.2243   19.8639 H   0  0  0  0  0  0
  -25.1271  -36.1919   25.0818 H   0  0  0  0  0  0
  -20.9969  -28.3245   24.1421 H   0  0  0  0  0  0
  -20.5696  -26.2281   23.3610 H   0  0  0  0  0  0
  -21.6644  -26.7453   22.1200 H   0  0  0  0  0  0
  -19.6924  -25.6294   21.1239 H   0  0  0  0  0  0
  -19.6695  -27.3197   20.6754 H   0  0  0  0  0  0
  -17.4210  -26.6670   21.4017 H   0  0  0  0  0  0
  -18.0329  -26.0058   22.9014 H   0  0  0  0  0  0
  -19.7930  -30.7263   24.2267 H   0  0  0  0  0  0
  -17.5010  -31.6270   24.5145 H   0  0  0  0  0  0
  -15.5347  -30.2980   23.7657 H   0  0  0  0  0  0
  -15.8667  -28.0812   22.7080 H   0  0  0  0  0  0
  -24.5887  -30.7094   25.7727 H   0  0  0  0  0  0
  -24.8907  -32.2895   26.4843 H   0  0  0  0  0  0
  -25.8017  -30.8888   27.0192 H   0  0  0  0  0  0
  -26.2895  -29.6757   24.1197 H   0  0  0  0  0  0
  -27.4050  -29.7277   25.4654 H   0  0  0  0  0  0
  -27.8756  -30.4303   23.9357 H   0  0  0  0  0  0
  -27.2701  -33.3631   26.2023 H   0  0  0  0  0  0
  -28.3871  -32.6843   25.0271 H   0  0  0  0  0  0
  -28.0730  -31.8435   26.5375 H   0  0  0  0  0  0
  -28.2506  -38.0174   24.7702 H   0  0  0  0  0  0
  -28.1221  -36.2729   24.5981 H   0  0  0  0  0  0
  -27.2364  -37.1055   25.8836 H   0  0  0  0  0  0
  -20.9388  -29.8707   21.6861 H   0  0  0  0  0  0
  -26.0146  -38.2847   24.1586 H   0  0  0  0  0  0
  -27.0132  -19.4614   20.2434 H   0  0  0  0  0  0
  -27.4884  -17.0303   20.2784 H   0  0  0  0  0  0
  -31.7164  -17.7081   20.9802 H   0  0  0  0  0  0
  -32.8889  -21.1851   21.3149 H   0  0  0  0  0  0
  -31.8806  -22.7349   21.3304 H   0  0  0  0  0  0
  -28.8524  -21.7406   21.7911 H   0  0  0  0  0  0
  -28.8580  -22.0942   18.8191 H   0  0  0  0  0  0
  -30.1253  -23.0346   19.4799 H   0  0  0  0  0  0
  -27.1899  -23.4515   20.2968 H   0  0  0  0  0  0
  -27.8727  -24.1619   18.8891 H   0  0  0  0  0  0
  -29.5140  -25.0974   21.0199 H   0  0  0  0  0  0
  -27.9012  -25.2145   21.6132 H   0  0  0  0  0  0
  -28.7869  -15.2874   20.9819 H   0  0  0  0  0  0
  1 25  1  0  0  0
  1 30  2  0  0  0
  1 83  1  0  0  0
  2  3  1  0  0  0
  2 25  1  0  0  0
  2 84  1  0  0  0
  2 85  1  0  0  0
  3  4  1  0  0  0
  3 86  1  0  0  0
  3 87  1  0  0  0
  4  5  1  0  0  0
  4 88  1  0  0  0
  4 89  1  0  0  0
  5  6  1  0  0  0
  5 26  1  0  0  0
  5 90  1  0  0  0
  6 25  1  0  0  0
  6 91  1  0  0  0
  6 92  1  0  0  0
  7  8  2  0  0  0
  7 26  1  0  0  0
  7 29  1  0  0  0
  8  9  1  0  0  0
  8 22  1  0  0  0
  9 10  1  0  0  0
  9 27  2  0  0  0
 10 11  2  0  0  0
 10 15  1  0  0  0
 11 12  1  0  0  0
 11 93  1  0  0  0
 12 13  2  0  0  0
 12 94  1  0  0  0
 13 14  1  0  0  0
 13 31  1  0  0  0
 14 15  2  0  0  0
 14 95  1  0  0  0
 15 96  1  0  0  0
 16 17  2  0  0  0
 16 21  1  0  0  0
 16 31  1  0  0  0
 17 18  1  0  0  0
 17 97  1  0  0  0
 18 19  2  0  0  0
 18 98  1  0  0  0
 19 20  1  0  0  0
 19 24  1  0  0  0
 20 21  2  0  0  0
 20 99  1  0  0  0
 21 23  1  0  0  0
 22 28  1  0  0  0
 22 32  2  0  0  0
 26 27  1  0  0  0
 28100  1  0  0  0
 28101  1  0  0  0
 29102  1  0  0  0
 29103  1  0  0  0
 33 34  1  0  0  0
 33 66  1  0  0  0
 33 70  2  0  0  0
 34 36  1  0  0  0
 34 59  1  0  0  0
 34104  1  0  0  0
 35 44  2  0  0  0
 35 45  1  0  0  0
 35 68  1  0  0  0
 36 56  1  0  0  0
 36105  1  0  0  0
 37 39  1  0  0  0
 37 47  1  0  0  0
 37 66  1  0  0  0
 37106  1  0  0  0
 38 43  2  0  0  0
 38 46  1  0  0  0
 38 47  1  0  0  0
 39 64  1  0  0  0
 39 67  2  0  0  0
 40 52  1  0  0  0
 40 53  2  0  0  0
 40 58  1  0  0  0
 41107  1  0  0  0
 41108  1  0  0  0
 41109  1  0  0  0
 41 48  1  0  0  0
 42 43  1  0  0  0
 42 66  1  0  0  0
 42110  1  0  0  0
 42111  1  0  0  0
 43 44  1  0  0  0
 44112  1  0  0  0
 45 46  2  0  0  0
 45113  1  0  0  0
 46114  1  0  0  0
 47115  1  0  0  0
 47116  1  0  0  0
 48 56  1  0  0  0
 48 65  1  0  0  0
 48117  1  0  0  0
 49 50  1  0  0  0
 49 53  1  0  0  0
 49 64  1  0  0  0
 49118  1  0  0  0
 50 51  1  0  0  0
 50119  1  0  0  0
 50120  1  0  0  0
 51 52  1  0  0  0
 51121  1  0  0  0
 51122  1  0  0  0
 52123  1  0  0  0
 52124  1  0  0  0
 53 54  1  0  0  0
 54 55  2  0  0  0
 54125  1  0  0  0
 55 57  1  0  0  0
 55126  1  0  0  0
 56 69  2  0  0  0
 57 58  2  0  0  0
 57127  1  0  0  0
 58128  1  0  0  0
 59 60  1  0  0  0
 59 61  1  0  0  0
 59 62  1  0  0  0
 60129  1  0  0  0
 60130  1  0  0  0
 60131  1  0  0  0
 61132  1  0  0  0
 61133  1  0  0  0
 61134  1  0  0  0
 62135  1  0  0  0
 62136  1  0  0  0
 62137  1  0  0  0
 63 65  1  0  0  0
 63138  1  0  0  0
 63139  1  0  0  0
 63140  1  0  0  0
 64141  1  0  0  0
 65142  1  0  0  0
 68 82  1  0  0  0
 71 72  2  0  0  0
 71 75  1  0  0  0
 71143  1  0  0  0
 72 76  1  0  0  0
 72144  1  0  0  0
 73 74  1  0  0  0
 73 76  2  0  0  0
 73145  1  0  0  0
 74 75  2  0  0  0
 74 77  1  0  0  0
 75 79  1  0  0  0
 76 83  1  0  0  0
 77 78  2  0  0  0
 77 79  1  0  0  0
 78146  1  0  0  0
 78147  1  0  0  0
 79 80  1  0  0  0
 79148  1  0  0  0
 80 81  1  0  0  0
 80149  1  0  0  0
 80150  1  0  0  0
 81 82  1  0  0  0
 81151  1  0  0  0
 81152  1  0  0  0
 82153  1  0  0  0
 82154  1  0  0  0
 83155  1  0  0  0
M  ISO  4   1 100  68 101  82 101  83 100
M  END
> <chiral flag>
0

> <version>
0

> <s_m_source_file>
/data/baiqing/PycharmProjects/Reinvent-master-3.2/result/LINK_invent/BTK/process_docking_weight1_custom_product_contain_oxygen_bond_distance_aromatic_linkinvent_7_9_3/rearranged_h_0127.sdf

> <i_m_source_file_index>
68

> <r_mmod_Potential_Energy-OPLS-2005>
500.788696289062

> <r_mmod_Stretch_Energy-OPLS-2005>
91.5498123168945

> <r_mmod_Bend_Energy-OPLS-2005>
538.695678710938

> <r_mmod_Torsional_Energy-OPLS-2005>
260.655670166016

> <r_mmod_Improper_Torsional_Energy-OPLS-2005>
8.06844329833984

> <r_mmod_Van_der_Waal_Energy-OPLS-2005>
123.951705932617

> <r_mmod_Electrostatic_Energy-OPLS-2005>
-370.577270507812

> <r_mmod_Solvation_Energy-OPLS-2005>
-205.150787353516

> <b_mmod_Minimization_Converged-OPLS-2005>
0

> <r_mmod_RMS_Derivative-OPLS-2005>
1.30619692802429

$$$$
68
                    3D
 Structure written by MMmdl.
150158  0  0  1  0            999 V2000
  -30.5241  -14.8610   20.4425 C   0  0  0  0  0  0
  -30.4537  -12.5282   19.4801 C   0  0  0  0  0  0
  -29.5219  -12.5225   18.2443 C   0  0  0  0  0  0
  -28.0501  -12.3211   18.6589 C   0  0  0  0  0  0
  -27.6403  -13.2292   19.8472 C   0  0  2  0  0  0
  -28.6860  -13.1830   20.9829 C   0  0  0  0  0  0
  -25.2507  -13.8169   20.5674 C   0  0  0  0  0  0
  -24.1807  -13.0425   20.9223 C   0  0  0  0  0  0
  -24.6396  -11.6902   20.8758 C   0  0  0  0  0  0
  -23.9069  -10.4284   21.0416 C   0  0  0  0  0  0
  -24.3620   -9.4197   21.9191 C   0  0  0  0  0  0
  -23.6292   -8.2235   22.0757 C   0  0  0  0  0  0
  -22.4275   -8.0277   21.3544 C   0  0  0  0  0  0
  -21.9911   -9.0254   20.4648 C   0  0  0  0  0  0
  -22.7242  -10.2132   20.3061 C   0  0  0  0  0  0
  -21.6852   -6.0733   22.5278 C   0  0  0  0  0  0
  -21.4013   -6.5639   23.8210 C   0  0  0  0  0  0
  -21.3657   -5.6793   24.9173 C   0  0  0  0  0  0
  -21.6044   -4.3055   24.7225 C   0  0  0  0  0  0
  -21.8820   -3.8145   23.4347 C   0  0  0  0  0  0
  -21.9192   -4.6961   22.3402 C   0  0  0  0  0  0
  -22.7828  -13.5214   21.1876 C   0  0  0  0  0  0
  -22.1661   -4.2146   21.0980 F   0  0  0  0  0  0
  -21.5627   -3.4540   25.7738 F   0  0  0  0  0  0
  -29.9752  -13.5882   20.4026 N   0  0  0  0  0  0
  -26.2928  -12.9369   20.3250 N   0  0  0  0  0  0
  -25.9324  -11.6519   20.5747 N   0  0  0  0  0  0
  -22.0471  -12.8210   22.0433 N   0  0  0  0  0  0
  -25.4175  -15.1887   20.4021 N   0  0  0  0  0  0
  -31.7146  -15.0101   20.1446 O   0  0  0  0  0  0
  -21.6637   -6.8876   21.4240 O   0  0  0  0  0  0
  -22.3516  -14.5517   20.6714 O   0  0  0  0  0  0
  -24.6378  -31.8485   23.1915 C   0  0  0  0  0  0
  -25.9171  -32.4720   23.8290 C   0  0  1  0  0  0
  -27.2248  -27.1922   20.1520 C   0  0  0  0  0  0
  -25.5937  -33.8524   24.2211 N   0  0  0  0  0  0
  -23.4393  -30.4671   21.5363 C   0  0  2  0  0  0
  -24.8897  -28.8975   20.1155 C   0  0  0  0  0  0
  -22.7539  -29.4566   22.4888 C   0  0  0  0  0  0
  -18.0299  -28.1391   22.8481 C   0  0  0  0  0  0
  -24.1490  -36.7269   23.2642 C   0  0  0  0  0  0
  -25.9902  -30.7405   21.3811 C   0  0  0  0  0  0
  -26.0646  -29.3547   20.7271 C   0  0  0  0  0  0
  -27.2367  -28.5186   20.7256 C   0  0  0  0  0  0
  -26.0265  -26.8175   19.5092 C   0  0  0  0  0  0
  -24.8796  -27.6395   19.4922 C   0  0  0  0  0  0
  -23.6634  -29.7938   20.1563 C   0  0  0  0  0  0
  -25.4120  -36.3048   24.0320 C   0  0  1  0  0  0
  -20.5908  -28.3710   23.1253 C   0  0  2  0  0  0
  -20.6784  -26.9419   22.5408 C   0  0  0  0  0  0
  -19.5759  -26.6381   21.5214 C   0  0  0  0  0  0
  -18.1940  -26.7930   22.1626 C   0  0  0  0  0  0
  -19.1555  -28.8868   23.2860 C   0  0  0  0  0  0
  -18.9473  -30.1467   23.8882 C   0  0  0  0  0  0
  -17.6470  -30.6589   24.0560 C   0  0  0  0  0  0
  -25.9065  -34.9421   23.5073 C   0  0  0  0  0  0
  -16.5361  -29.9084   23.6334 C   0  0  0  0  0  0
  -16.7285  -28.6502   23.0355 C   0  0  0  0  0  0
  -26.4513  -31.6573   25.0712 C   0  0  0  0  0  0
  -25.3711  -31.3747   26.1417 C   0  0  0  0  0  0
  -27.0374  -30.2979   24.6253 C   0  0  0  0  0  0
  -27.6046  -32.4334   25.7496 C   0  0  0  0  0  0
  -27.5577  -37.1790   24.8465 C   0  0  0  0  0  0
  -21.4238  -29.3043   22.3632 N   0  0  0  0  0  0
  -26.4288  -37.3756   23.9409 N   0  0  0  0  0  0
  -24.7085  -31.0387   22.0922 N   0  0  0  0  0  0
  -23.4203  -28.8119   23.3026 O   0  0  0  0  0  0
  -28.3050  -26.2569   20.1589 O   0  0  0  0  0  0
  -26.5650  -34.8911   22.4651 O   0  0  0  0  0  0
  -23.5510  -32.1337   23.7167 O   0  0  0  0  0  0
  -28.0834  -19.5044   20.4295 C   0  0  0  0  0  0
  -30.4111  -19.8482   20.6615 C   0  0  0  0  0  0
  -28.3028  -18.0796   20.4110 C   0  0  0  0  0  0
  -30.6363  -18.4072   20.6255 C   0  0  0  0  0  0
  -29.1173  -20.4762   20.5849 C   0  0  0  0  0  0
  -29.5786  -17.4415   20.5295 C   0  0  0  0  0  0
  -28.7696  -22.0299   20.9688 C   0  0  0  0  0  0
  -28.8053  -23.4165   20.0623 C   0  0  0  0  0  0
  -28.0939  -24.8114   20.6316 C   0  0  0  0  0  0
  -29.6284  -15.9281   20.6255 N   0  0  0  0  0  0
  -31.4858  -12.6996   19.1698 H   0  0  0  0  0  0
  -30.4466  -11.5569   19.9772 H   0  0  0  0  0  0
  -29.8241  -11.7400   17.5468 H   0  0  0  0  0  0
  -29.6229  -13.4667   17.7067 H   0  0  0  0  0  0
  -27.9275  -11.2742   18.9384 H   0  0  0  0  0  0
  -27.3894  -12.4879   17.8072 H   0  0  0  0  0  0
  -27.6240  -14.2443   19.4511 H   0  0  0  0  0  0
  -28.7521  -12.1814   21.4105 H   0  0  0  0  0  0
  -28.3995  -13.8438   21.8026 H   0  0  0  0  0  0
  -25.2767   -9.5670   22.4765 H   0  0  0  0  0  0
  -23.9997   -7.4626   22.7478 H   0  0  0  0  0  0
  -21.0839   -8.8778   19.8957 H   0  0  0  0  0  0
  -22.3703  -10.9675   19.6171 H   0  0  0  0  0  0
  -21.2007   -7.6148   23.9712 H   0  0  0  0  0  0
  -21.1478   -6.0524   25.9076 H   0  0  0  0  0  0
  -22.0601   -2.7607   23.2849 H   0  0  0  0  0  0
  -22.4089  -11.9875   22.4828 H   0  0  0  0  0  0
  -21.1089  -13.1237   22.2638 H   0  0  0  0  0  0
  -24.6356  -15.8296   20.4840 H   0  0  0  0  0  0
  -26.2279  -15.6097   19.9694 H   0  0  0  0  0  0
  -26.7239  -32.5350   23.1027 H   0  0  0  0  0  0
  -25.0059  -33.9647   25.0339 H   0  0  0  0  0  0
  -22.7391  -31.2908   21.3829 H   0  0  0  0  0  0
  -23.3753  -35.9599   23.3298 H   0  0  0  0  0  0
  -24.3574  -36.8903   22.2058 H   0  0  0  0  0  0
  -23.7242  -37.6464   23.6678 H   0  0  0  0  0  0
  -26.1367  -31.4961   20.6081 H   0  0  0  0  0  0
  -26.8641  -30.7929   22.0190 H   0  0  0  0  0  0
  -28.1379  -28.8680   21.2097 H   0  0  0  0  0  0
  -25.9665  -25.8543   19.0226 H   0  0  0  0  0  0
  -23.9828  -27.2847   19.0028 H   0  0  0  0  0  0
  -23.7954  -30.5668   19.3984 H   0  0  0  0  0  0
  -22.7802  -29.2311   19.8487 H   0  0  0  0  0  0
  -25.1307  -36.1883   25.0813 H   0  0  0  0  0  0
  -20.9999  -28.3295   24.1375 H   0  0  0  0  0  0
  -20.5681  -26.2322   23.3621 H   0  0  0  0  0  0
  -21.6651  -26.7432   22.1205 H   0  0  0  0  0  0
  -19.6920  -25.6288   21.1253 H   0  0  0  0  0  0
  -19.6696  -27.3184   20.6738 H   0  0  0  0  0  0
  -17.4209  -26.6674   21.4031 H   0  0  0  0  0  0
  -18.0342  -26.0076   22.9028 H   0  0  0  0  0  0
  -19.7948  -30.7286   24.2245 H   0  0  0  0  0  0
  -17.5023  -31.6268   24.5164 H   0  0  0  0  0  0
  -15.5361  -30.2981   23.7665 H   0  0  0  0  0  0
  -15.8686  -28.0815   22.7079 H   0  0  0  0  0  0
  -24.5893  -30.7091   25.7740 H   0  0  0  0  0  0
  -24.8897  -32.2925   26.4803 H   0  0  0  0  0  0
  -25.8007  -30.8948   27.0219 H   0  0  0  0  0  0
  -26.2981  -29.6709   24.1257 H   0  0  0  0  0  0
  -27.4008  -29.7266   25.4805 H   0  0  0  0  0  0
  -27.8876  -30.4235   23.9545 H   0  0  0  0  0  0
  -27.2636  -33.3643   26.2039 H   0  0  0  0  0  0
  -28.3875  -32.6884   25.0341 H   0  0  0  0  0  0
  -28.0696  -31.8486   26.5443 H   0  0  0  0  0  0
  -28.2589  -38.0091   24.7512 H   0  0  0  0  0  0
  -28.1077  -36.2621   24.6291 H   0  0  0  0  0  0
  -27.2294  -37.1435   25.8868 H   0  0  0  0  0  0
  -20.9440  -29.8754   21.6815 H   0  0  0  0  0  0
  -26.0159  -38.2826   24.1411 H   0  0  0  0  0  0
  -27.0593  -19.8503   20.3967 H   0  0  0  0  0  0
  -31.2716  -20.4835   20.8201 H   0  0  0  0  0  0
  -27.4240  -17.4551   20.3399 H   0  0  0  0  0  0
  -31.6504  -18.0476   20.7323 H   0  0  0  0  0  0
  -29.3775  -22.2376   21.8499 H   0  0  0  0  0  0
  -27.7553  -21.9834   21.3665 H   0  0  0  0  0  0
  -28.3490  -23.1968   19.0972 H   0  0  0  0  0  0
  -29.8501  -23.6344   19.8413 H   0  0  0  0  0  0
  -28.3683  -24.8583   21.6856 H   0  0  0  0  0  0
  -27.0224  -24.6144   20.6591 H   0  0  0  0  0  0
  -28.7147  -15.5401   20.8004 H   0  0  0  0  0  0
  1 25  1  0  0  0
  1 30  2  0  0  0
  1 80  1  0  0  0
  2  3  1  0  0  0
  2 25  1  0  0  0
  2 81  1  0  0  0
  2 82  1  0  0  0
  3  4  1  0  0  0
  3 83  1  0  0  0
  3 84  1  0  0  0
  4  5  1  0  0  0
  4 85  1  0  0  0
  4 86  1  0  0  0
  5  6  1  0  0  0
  5 26  1  0  0  0
  5 87  1  0  0  0
  6 25  1  0  0  0
  6 88  1  0  0  0
  6 89  1  0  0  0
  7  8  2  0  0  0
  7 26  1  0  0  0
  7 29  1  0  0  0
  8  9  1  0  0  0
  8 22  1  0  0  0
  9 10  1  0  0  0
  9 27  2  0  0  0
 10 11  2  0  0  0
 10 15  1  0  0  0
 11 12  1  0  0  0
 11 90  1  0  0  0
 12 13  2  0  0  0
 12 91  1  0  0  0
 13 14  1  0  0  0
 13 31  1  0  0  0
 14 15  2  0  0  0
 14 92  1  0  0  0
 15 93  1  0  0  0
 16 17  2  0  0  0
 16 21  1  0  0  0
 16 31  1  0  0  0
 17 18  1  0  0  0
 17 94  1  0  0  0
 18 19  2  0  0  0
 18 95  1  0  0  0
 19 20  1  0  0  0
 19 24  1  0  0  0
 20 21  2  0  0  0
 20 96  1  0  0  0
 21 23  1  0  0  0
 22 28  1  0  0  0
 22 32  2  0  0  0
 26 27  1  0  0  0
 28 97  1  0  0  0
 28 98  1  0  0  0
 29 99  1  0  0  0
 29100  1  0  0  0
 33 34  1  0  0  0
 33 66  1  0  0  0
 33 70  2  0  0  0
 34 36  1  0  0  0
 34 59  1  0  0  0
 34101  1  0  0  0
 35 44  2  0  0  0
 35 45  1  0  0  0
 35 68  1  0  0  0
 36 56  1  0  0  0
 36102  1  0  0  0
 37 39  1  0  0  0
 37 47  1  0  0  0
 37 66  1  0  0  0
 37103  1  0  0  0
 38 43  2  0  0  0
 38 46  1  0  0  0
 38 47  1  0  0  0
 39 64  1  0  0  0
 39 67  2  0  0  0
 40 52  1  0  0  0
 40 53  2  0  0  0
 40 58  1  0  0  0
 41104  1  0  0  0
 41105  1  0  0  0
 41106  1  0  0  0
 41 48  1  0  0  0
 42 43  1  0  0  0
 42 66  1  0  0  0
 42107  1  0  0  0
 42108  1  0  0  0
 43 44  1  0  0  0
 44109  1  0  0  0
 45 46  2  0  0  0
 45110  1  0  0  0
 46111  1  0  0  0
 47112  1  0  0  0
 47113  1  0  0  0
 48 56  1  0  0  0
 48 65  1  0  0  0
 48114  1  0  0  0
 49 50  1  0  0  0
 49 53  1  0  0  0
 49 64  1  0  0  0
 49115  1  0  0  0
 50 51  1  0  0  0
 50116  1  0  0  0
 50117  1  0  0  0
 51 52  1  0  0  0
 51118  1  0  0  0
 51119  1  0  0  0
 52120  1  0  0  0
 52121  1  0  0  0
 53 54  1  0  0  0
 54 55  2  0  0  0
 54122  1  0  0  0
 55 57  1  0  0  0
 55123  1  0  0  0
 56 69  2  0  0  0
 57 58  2  0  0  0
 57124  1  0  0  0
 58125  1  0  0  0
 59 60  1  0  0  0
 59 61  1  0  0  0
 59 62  1  0  0  0
 60126  1  0  0  0
 60127  1  0  0  0
 60128  1  0  0  0
 61129  1  0  0  0
 61130  1  0  0  0
 61131  1  0  0  0
 62132  1  0  0  0
 62133  1  0  0  0
 62134  1  0  0  0
 63 65  1  0  0  0
 63135  1  0  0  0
 63136  1  0  0  0
 63137  1  0  0  0
 64138  1  0  0  0
 65139  1  0  0  0
 68 79  1  0  0  0
 71 73  2  0  0  0
 71 75  1  0  0  0
 71140  1  0  0  0
 72 74  1  0  0  0
 72 75  2  0  0  0
 72141  1  0  0  0
 73 76  1  0  0  0
 73142  1  0  0  0
 74 76  2  0  0  0
 74143  1  0  0  0
 75 77  1  0  0  0
 76 80  1  0  0  0
 77 78  1  0  0  0
 77144  1  0  0  0
 77145  1  0  0  0
 78 79  1  0  0  0
 78146  1  0  0  0
 78147  1  0  0  0
 79148  1  0  0  0
 79149  1  0  0  0
 80150  1  0  0  0
M  ISO  4   1 100  68 101  79 101  80 100
M  END
> <chiral flag>
0

> <version>
0

> <s_m_source_file>
/data/baiqing/PycharmProjects/Reinvent-master-3.2/result/LINK_invent/BTK/process_docking_weight1_custom_product_contain_oxygen_bond_distance_aromatic_linkinvent_7_9_3/rearranged_h_0127.sdf

> <i_m_source_file_index>
69

> <r_mmod_Potential_Energy-OPLS-2005>
368.496154785156

> <r_mmod_Stretch_Energy-OPLS-2005>
182.733261108398

> <r_mmod_Bend_Energy-OPLS-2005>
243.465042114258

> <r_mmod_Torsional_Energy-OPLS-2005>
239.104476928711

> <r_mmod_Improper_Torsional_Energy-OPLS-2005>
7.75103044509888

> <r_mmod_Van_der_Waal_Energy-OPLS-2005>
128.386764526367

> <r_mmod_Electrostatic_Energy-OPLS-2005>
-365.693939208984

> <r_mmod_Solvation_Energy-OPLS-2005>
-206.073104858398

> <b_mmod_Minimization_Converged-OPLS-2005>
0

> <r_mmod_RMS_Derivative-OPLS-2005>
0.283948481082916

$$$$
69
                    3D
 Structure written by MMmdl.
164173  0  0  1  0            999 V2000
  -30.7593  -14.4579   20.5014 C   0  0  0  0  0  0
  -30.3950  -12.2787   19.4472 C   0  0  0  0  0  0
  -29.4911  -12.4743   18.2157 C   0  0  0  0  0  0
  -28.0114  -12.3472   18.6228 C   0  0  0  0  0  0
  -27.6472  -13.2220   19.8523 C   0  0  2  0  0  0
  -28.6902  -13.0948   20.9829 C   0  0  0  0  0  0
  -25.2530  -13.8187   20.5703 C   0  0  0  0  0  0
  -24.1802  -13.0431   20.9181 C   0  0  0  0  0  0
  -24.6381  -11.6910   20.8726 C   0  0  0  0  0  0
  -23.9058  -10.4284   21.0396 C   0  0  0  0  0  0
  -24.3607   -9.4198   21.9179 C   0  0  0  0  0  0
  -23.6282   -8.2236   22.0745 C   0  0  0  0  0  0
  -22.4264   -8.0272   21.3543 C   0  0  0  0  0  0
  -21.9896   -9.0243   20.4646 C   0  0  0  0  0  0
  -22.7227  -10.2122   20.3047 C   0  0  0  0  0  0
  -21.6851   -6.0725   22.5277 C   0  0  0  0  0  0
  -21.4018   -6.5634   23.8212 C   0  0  0  0  0  0
  -21.3664   -5.6786   24.9175 C   0  0  0  0  0  0
  -21.6045   -4.3049   24.7229 C   0  0  0  0  0  0
  -21.8817   -3.8142   23.4346 C   0  0  0  0  0  0
  -21.9194   -4.6953   22.3396 C   0  0  0  0  0  0
  -22.7825  -13.5211   21.1851 C   0  0  0  0  0  0
  -22.1665   -4.2140   21.0974 F   0  0  0  0  0  0
  -21.5622   -3.4534   25.7740 F   0  0  0  0  0  0
  -30.0245  -13.3202   20.4159 N   0  0  0  0  0  0
  -26.2958  -12.9388   20.3300 N   0  0  0  0  0  0
  -25.9311  -11.6531   20.5742 N   0  0  0  0  0  0
  -22.0488  -12.8198   22.0423 N   0  0  0  0  0  0
  -25.4229  -15.1913   20.4156 N   0  0  0  0  0  0
  -31.9558  -14.4809   20.2118 O   0  0  0  0  0  0
  -21.6631   -6.8869   21.4241 O   0  0  0  0  0  0
  -22.3504  -14.5532   20.6728 O   0  0  0  0  0  0
  -24.6166  -31.8699   23.2123 C   0  0  0  0  0  0
  -25.9065  -32.4823   23.8401 C   0  0  1  0  0  0
  -27.2217  -27.4287   20.0667 C   0  0  0  0  0  0
  -25.5921  -33.8619   24.2332 N   0  0  0  0  0  0
  -23.4009  -30.4985   21.5562 C   0  0  2  0  0  0
  -24.8394  -28.9699   20.1182 C   0  0  0  0  0  0
  -22.7409  -29.4680   22.5012 C   0  0  0  0  0  0
  -18.0266  -28.1372   22.8484 C   0  0  0  0  0  0
  -24.1485  -36.7302   23.2635 C   0  0  0  0  0  0
  -25.9349  -30.8292   21.3697 C   0  0  0  0  0  0
  -26.0056  -29.4658   20.7122 C   0  0  0  0  0  0
  -27.1958  -28.7000   20.6923 C   0  0  0  0  0  0
  -26.0168  -26.9448   19.4974 C   0  0  0  0  0  0
  -24.8391  -27.7061   19.5167 C   0  0  0  0  0  0
  -23.6057  -29.8399   20.1689 C   0  0  0  0  0  0
  -25.4103  -36.3110   24.0342 C   0  0  1  0  0  0
  -20.5857  -28.3654   23.1324 C   0  0  2  0  0  0
  -20.6761  -26.9391   22.5418 C   0  0  0  0  0  0
  -19.5743  -26.6382   21.5209 C   0  0  0  0  0  0
  -18.1920  -26.7921   22.1613 C   0  0  0  0  0  0
  -19.1517  -28.8828   23.2898 C   0  0  0  0  0  0
  -18.9448  -30.1436   23.8906 C   0  0  0  0  0  0
  -17.6451  -30.6574   24.0570 C   0  0  0  0  0  0
  -25.9040  -34.9474   23.5130 C   0  0  0  0  0  0
  -16.5339  -29.9078   23.6331 C   0  0  0  0  0  0
  -16.7256  -28.6503   23.0339 C   0  0  0  0  0  0
  -26.4484  -31.6595   25.0725 C   0  0  0  0  0  0
  -25.3751  -31.3705   26.1475 C   0  0  0  0  0  0
  -27.0302  -30.3030   24.6110 C   0  0  0  0  0  0
  -27.6065  -32.4309   25.7479 C   0  0  0  0  0  0
  -27.5584  -37.1797   24.8459 C   0  0  0  0  0  0
  -21.4138  -29.3023   22.3739 N   0  0  0  0  0  0
  -26.4287  -37.3795   23.9423 N   0  0  0  0  0  0
  -24.6690  -31.0804   22.1030 N   0  0  0  0  0  0
  -23.4188  -28.8217   23.3045 O   0  0  0  0  0  0
  -28.4003  -26.6996   20.0618 O   0  0  0  0  0  0
  -26.5600  -34.8936   22.4690 O   0  0  0  0  0  0
  -23.5358  -32.1461   23.7512 O   0  0  0  0  0  0
  -29.6682  -20.5216   21.3858 C   0  0  0  0  0  0
  -30.6205  -19.9157   19.2305 C   0  0  0  0  0  0
  -29.6766  -19.1565   21.7696 C   0  0  0  0  0  0
  -30.5958  -18.5599   19.6005 C   0  0  0  0  0  0
  -30.1878  -20.9123   20.1298 C   0  0  0  0  0  0
  -30.1739  -18.1671   20.8897 C   0  0  0  0  0  0
  -31.6591  -22.6852   19.4235 C   0  0  0  0  0  0
  -30.4017  -22.3374   19.7655 C   0  0  0  0  0  0
  -29.3193  -23.3290   19.6405 C   0  0  0  0  0  0
  -29.6200  -24.6370   19.3868 C   0  0  0  0  0  0
  -30.0486  -15.7305   20.5346 C   0  0  0  0  0  0
  -30.4708  -16.7749   21.2914 C   0  0  0  0  0  0
  -32.0783  -24.0645   18.9704 C   0  0  0  0  0  0
  -31.0540  -25.1468   19.3408 C   0  0  0  0  0  0
  -27.8663  -22.8678   19.6842 C   0  0  0  0  0  0
  -31.4372  -16.6550   22.4656 C   0  0  0  0  0  0
  -28.5846  -25.7092   19.0367 C   0  0  0  0  0  0
  -31.4462  -12.3140   19.1571 H   0  0  0  0  0  0
  -30.2385  -11.2913   19.8838 H   0  0  0  0  0  0
  -29.7305  -11.7353   17.4499 H   0  0  0  0  0  0
  -29.6756  -13.4524   17.7690 H   0  0  0  0  0  0
  -27.8225  -11.2972   18.8461 H   0  0  0  0  0  0
  -27.3654  -12.5970   17.7813 H   0  0  0  0  0  0
  -27.6619  -14.2538   19.5042 H   0  0  0  0  0  0
  -28.6488  -12.1056   21.4406 H   0  0  0  0  0  0
  -28.4783  -13.8107   21.7784 H   0  0  0  0  0  0
  -25.2746   -9.5675   22.4758 H   0  0  0  0  0  0
  -23.9985   -7.4618   22.7457 H   0  0  0  0  0  0
  -21.0830   -8.8769   19.8950 H   0  0  0  0  0  0
  -22.3688  -10.9657   19.6160 H   0  0  0  0  0  0
  -21.2021   -7.6141   23.9713 H   0  0  0  0  0  0
  -21.1491   -6.0518   25.9080 H   0  0  0  0  0  0
  -22.0595   -2.7604   23.2851 H   0  0  0  0  0  0
  -22.4112  -11.9852   22.4793 H   0  0  0  0  0  0
  -21.1123  -13.1240   22.2669 H   0  0  0  0  0  0
  -24.6588  -15.8480   20.5339 H   0  0  0  0  0  0
  -26.2868  -15.6377   20.1356 H   0  0  0  0  0  0
  -26.7128  -32.5523   23.1152 H   0  0  0  0  0  0
  -25.0097  -33.9779   25.0496 H   0  0  0  0  0  0
  -22.6894  -31.3157   21.4228 H   0  0  0  0  0  0
  -23.3758  -35.9621   23.3292 H   0  0  0  0  0  0
  -24.3584  -36.8917   22.2050 H   0  0  0  0  0  0
  -23.7224  -37.6502   23.6647 H   0  0  0  0  0  0
  -26.0578  -31.5961   20.6039 H   0  0  0  0  0  0
  -26.8196  -30.8727   21.9925 H   0  0  0  0  0  0
  -28.0966  -29.0833   21.1501 H   0  0  0  0  0  0
  -25.9153  -25.9728   19.0465 H   0  0  0  0  0  0
  -23.9369  -27.3073   19.0739 H   0  0  0  0  0  0
  -23.7176  -30.6176   19.4123 H   0  0  0  0  0  0
  -22.7274  -29.2636   19.8719 H   0  0  0  0  0  0
  -25.1273  -36.1970   25.0834 H   0  0  0  0  0  0
  -20.9942  -28.3213   24.1447 H   0  0  0  0  0  0
  -20.5669  -26.2252   23.3599 H   0  0  0  0  0  0
  -21.6636  -26.7446   22.1213 H   0  0  0  0  0  0
  -19.6913  -25.6302   21.1218 H   0  0  0  0  0  0
  -19.6696  -27.3210   20.6755 H   0  0  0  0  0  0
  -17.4199  -26.6671   21.4005 H   0  0  0  0  0  0
  -18.0315  -26.0056   22.9004 H   0  0  0  0  0  0
  -19.7929  -30.7241   24.2284 H   0  0  0  0  0  0
  -17.5013  -31.6257   24.5168 H   0  0  0  0  0  0
  -15.5340  -30.2978   23.7662 H   0  0  0  0  0  0
  -15.8657  -28.0827   22.7039 H   0  0  0  0  0  0
  -24.5929  -30.7045   25.7818 H   0  0  0  0  0  0
  -24.8939  -32.2858   26.4924 H   0  0  0  0  0  0
  -25.8109  -30.8878   27.0229 H   0  0  0  0  0  0
  -26.2837  -29.6791   24.1183 H   0  0  0  0  0  0
  -27.4078  -29.7268   25.4564 H   0  0  0  0  0  0
  -27.8678  -30.4324   23.9255 H   0  0  0  0  0  0
  -27.2687  -33.3584   26.2107 H   0  0  0  0  0  0
  -28.3841  -32.6905   25.0285 H   0  0  0  0  0  0
  -28.0781  -31.8409   26.5344 H   0  0  0  0  0  0
  -28.2595  -38.0102   24.7534 H   0  0  0  0  0  0
  -28.1085  -36.2637   24.6238 H   0  0  0  0  0  0
  -27.2317  -37.1409   25.8867 H   0  0  0  0  0  0
  -20.9298  -29.8736   21.6956 H   0  0  0  0  0  0
  -26.0175  -38.2871   24.1441 H   0  0  0  0  0  0
  -29.3370  -21.2741   22.0877 H   0  0  0  0  0  0
  -31.0109  -20.1902   18.2601 H   0  0  0  0  0  0
  -29.3604  -18.8818   22.7653 H   0  0  0  0  0  0
  -30.9940  -17.8249   18.9150 H   0  0  0  0  0  0
  -32.4499  -21.9470   19.4521 H   0  0  0  0  0  0
  -29.2723  -15.8885   19.8009 H   0  0  0  0  0  0
  -32.2129  -24.0285   17.8883 H   0  0  0  0  0  0
  -33.0510  -24.3059   19.4011 H   0  0  0  0  0  0
  -31.2812  -25.5589   20.3249 H   0  0  0  0  0  0
  -31.1443  -25.9738   18.6352 H   0  0  0  0  0  0
  -27.7516  -21.8409   20.0253 H   0  0  0  0  0  0
  -27.4179  -22.9223   18.6922 H   0  0  0  0  0  0
  -27.2865  -23.4949   20.3630 H   0  0  0  0  0  0
  -31.0466  -17.1880   23.3332 H   0  0  0  0  0  0
  -32.4021  -17.0918   22.2070 H   0  0  0  0  0  0
  -31.6081  -15.6259   22.7787 H   0  0  0  0  0  0
  -27.6867  -25.1903   18.7350 H   0  0  0  0  0  0
  -28.9070  -26.2247   18.1311 H   0  0  0  0  0  0
  1 25  1  0  0  0
  1 30  2  0  0  0
  1 81  1  0  0  0
  2  3  1  0  0  0
  2 25  1  0  0  0
  2 88  1  0  0  0
  2 89  1  0  0  0
  3  4  1  0  0  0
  3 90  1  0  0  0
  3 91  1  0  0  0
  4  5  1  0  0  0
  4 92  1  0  0  0
  4 93  1  0  0  0
  5  6  1  0  0  0
  5 26  1  0  0  0
  5 94  1  0  0  0
  6 25  1  0  0  0
  6 95  1  0  0  0
  6 96  1  0  0  0
  7  8  2  0  0  0
  7 26  1  0  0  0
  7 29  1  0  0  0
  8  9  1  0  0  0
  8 22  1  0  0  0
  9 10  1  0  0  0
  9 27  2  0  0  0
 10 11  2  0  0  0
 10 15  1  0  0  0
 11 12  1  0  0  0
 11 97  1  0  0  0
 12 13  2  0  0  0
 12 98  1  0  0  0
 13 14  1  0  0  0
 13 31  1  0  0  0
 14 15  2  0  0  0
 14 99  1  0  0  0
 15100  1  0  0  0
 16 17  2  0  0  0
 16 21  1  0  0  0
 16 31  1  0  0  0
 17 18  1  0  0  0
 17101  1  0  0  0
 18 19  2  0  0  0
 18102  1  0  0  0
 19 20  1  0  0  0
 19 24  1  0  0  0
 20 21  2  0  0  0
 20103  1  0  0  0
 21 23  1  0  0  0
 22 28  1  0  0  0
 22 32  2  0  0  0
 26 27  1  0  0  0
 28104  1  0  0  0
 28105  1  0  0  0
 29106  1  0  0  0
 29107  1  0  0  0
 33 34  1  0  0  0
 33 66  1  0  0  0
 33 70  2  0  0  0
 34 36  1  0  0  0
 34 59  1  0  0  0
 34108  1  0  0  0
 35 44  2  0  0  0
 35 45  1  0  0  0
 35 68  1  0  0  0
 36 56  1  0  0  0
 36109  1  0  0  0
 37 39  1  0  0  0
 37 47  1  0  0  0
 37 66  1  0  0  0
 37110  1  0  0  0
 38 43  2  0  0  0
 38 46  1  0  0  0
 38 47  1  0  0  0
 39 64  1  0  0  0
 39 67  2  0  0  0
 40 52  1  0  0  0
 40 53  2  0  0  0
 40 58  1  0  0  0
 41111  1  0  0  0
 41112  1  0  0  0
 41113  1  0  0  0
 41 48  1  0  0  0
 42 43  1  0  0  0
 42 66  1  0  0  0
 42114  1  0  0  0
 42115  1  0  0  0
 43 44  1  0  0  0
 44116  1  0  0  0
 45 46  2  0  0  0
 45117  1  0  0  0
 46118  1  0  0  0
 47119  1  0  0  0
 47120  1  0  0  0
 48 56  1  0  0  0
 48 65  1  0  0  0
 48121  1  0  0  0
 49 50  1  0  0  0
 49 53  1  0  0  0
 49 64  1  0  0  0
 49122  1  0  0  0
 50 51  1  0  0  0
 50123  1  0  0  0
 50124  1  0  0  0
 51 52  1  0  0  0
 51125  1  0  0  0
 51126  1  0  0  0
 52127  1  0  0  0
 52128  1  0  0  0
 53 54  1  0  0  0
 54 55  2  0  0  0
 54129  1  0  0  0
 55 57  1  0  0  0
 55130  1  0  0  0
 56 69  2  0  0  0
 57 58  2  0  0  0
 57131  1  0  0  0
 58132  1  0  0  0
 59 60  1  0  0  0
 59 61  1  0  0  0
 59 62  1  0  0  0
 60133  1  0  0  0
 60134  1  0  0  0
 60135  1  0  0  0
 61136  1  0  0  0
 61137  1  0  0  0
 61138  1  0  0  0
 62139  1  0  0  0
 62140  1  0  0  0
 62141  1  0  0  0
 63 65  1  0  0  0
 63142  1  0  0  0
 63143  1  0  0  0
 63144  1  0  0  0
 64145  1  0  0  0
 65146  1  0  0  0
 68 87  1  0  0  0
 71 73  2  0  0  0
 71 75  1  0  0  0
 71147  1  0  0  0
 72 74  1  0  0  0
 72 75  2  0  0  0
 72148  1  0  0  0
 73 76  1  0  0  0
 73149  1  0  0  0
 74 76  2  0  0  0
 74150  1  0  0  0
 75 78  1  0  0  0
 76 82  1  0  0  0
 77 78  2  0  0  0
 77 83  1  0  0  0
 77151  1  0  0  0
 78 79  1  0  0  0
 79 80  2  0  0  0
 79 85  1  0  0  0
 80 84  1  0  0  0
 80 87  1  0  0  0
 81 82  2  0  0  0
 81152  1  0  0  0
 82 86  1  0  0  0
 83 84  1  0  0  0
 83153  1  0  0  0
 83154  1  0  0  0
 84155  1  0  0  0
 84156  1  0  0  0
 85157  1  0  0  0
 85158  1  0  0  0
 85159  1  0  0  0
 86160  1  0  0  0
 86161  1  0  0  0
 86162  1  0  0  0
 87163  1  0  0  0
 87164  1  0  0  0
M  ISO  4   1 100  68 101  81 100  87 101
M  END
> <chiral flag>
0

> <version>
0

> <s_m_source_file>
/data/baiqing/PycharmProjects/Reinvent-master-3.2/result/LINK_invent/BTK/process_docking_weight1_custom_product_contain_oxygen_bond_distance_aromatic_linkinvent_7_9_3/rearranged_h_0127.sdf

> <i_m_source_file_index>
70

> <r_mmod_Potential_Energy-OPLS-2005>
184.394409179688

> <r_mmod_Stretch_Energy-OPLS-2005>
39.3278503417969

> <r_mmod_Bend_Energy-OPLS-2005>
117.369087219238

> <r_mmod_Torsional_Energy-OPLS-2005>
295.736328125

> <r_mmod_Improper_Torsional_Energy-OPLS-2005>
19.1310691833496

> <r_mmod_Van_der_Waal_Energy-OPLS-2005>
179.417190551758

> <r_mmod_Electrostatic_Energy-OPLS-2005>
-311.625030517578

> <r_mmod_Solvation_Energy-OPLS-2005>
-181.363388061523

> <b_mmod_Minimization_Converged-OPLS-2005>
0

> <r_mmod_RMS_Derivative-OPLS-2005>
1.68972849845886

$$$$
70
                    3D
 Structure written by MMmdl.
155163  0  0  1  0            999 V2000
  -30.6344  -14.7391   20.4227 C   0  0  0  0  0  0
  -30.4454  -12.4382   19.4910 C   0  0  0  0  0  0
  -29.5244  -12.5030   18.2525 C   0  0  0  0  0  0
  -28.0481  -12.3310   18.6611 C   0  0  0  0  0  0
  -27.6477  -13.2327   19.8596 C   0  0  2  0  0  0
  -28.6973  -13.1681   20.9919 C   0  0  0  0  0  0
  -25.2410  -13.8062   20.5776 C   0  0  0  0  0  0
  -24.1748  -13.0303   20.9251 C   0  0  0  0  0  0
  -24.6408  -11.6816   20.8772 C   0  0  0  0  0  0
  -23.9094  -10.4210   21.0427 C   0  0  0  0  0  0
  -24.3640   -9.4129   21.9202 C   0  0  0  0  0  0
  -23.6293   -8.2189   22.0770 C   0  0  0  0  0  0
  -22.4278   -8.0248   21.3553 C   0  0  0  0  0  0
  -21.9920   -9.0214   20.4655 C   0  0  0  0  0  0
  -22.7275  -10.2068   20.3056 C   0  0  0  0  0  0
  -21.6835   -6.0725   22.5272 C   0  0  0  0  0  0
  -21.4010   -6.5635   23.8210 C   0  0  0  0  0  0
  -21.3657   -5.6794   24.9173 C   0  0  0  0  0  0
  -21.6047   -4.3059   24.7233 C   0  0  0  0  0  0
  -21.8821   -3.8147   23.4356 C   0  0  0  0  0  0
  -21.9191   -4.6954   22.3410 C   0  0  0  0  0  0
  -22.7756  -13.5064   21.1923 C   0  0  0  0  0  0
  -22.1662   -4.2145   21.0990 F   0  0  0  0  0  0
  -21.5638   -3.4548   25.7748 F   0  0  0  0  0  0
  -30.0097  -13.5081   20.4188 N   0  0  0  0  0  0
  -26.2954  -12.9383   20.3346 N   0  0  0  0  0  0
  -25.9358  -11.6501   20.5779 N   0  0  0  0  0  0
  -22.0427  -12.8050   22.0491 N   0  0  0  0  0  0
  -25.3815  -15.1777   20.4334 N   0  0  0  0  0  0
  -31.8347  -14.7950   20.1456 O   0  0  0  0  0  0
  -21.6619   -6.8862   21.4241 O   0  0  0  0  0  0
  -22.3418  -14.5366   20.6757 O   0  0  0  0  0  0
  -24.6266  -31.8578   23.2006 C   0  0  0  0  0  0
  -25.9113  -32.4758   23.8341 C   0  0  1  0  0  0
  -27.2287  -27.2855   20.1277 C   0  0  0  0  0  0
  -25.5914  -33.8557   24.2250 N   0  0  0  0  0  0
  -23.4249  -30.4828   21.5381 C   0  0  2  0  0  0
  -24.8725  -28.9299   20.1102 C   0  0  0  0  0  0
  -22.7479  -29.4654   22.4882 C   0  0  0  0  0  0
  -18.0297  -28.1403   22.8486 C   0  0  0  0  0  0
  -24.1481  -36.7307   23.2646 C   0  0  0  0  0  0
  -25.9677  -30.7765   21.3784 C   0  0  0  0  0  0
  -26.0392  -29.4008   20.7229 C   0  0  0  0  0  0
  -27.2158  -28.5894   20.7222 C   0  0  0  0  0  0
  -26.0405  -26.8838   19.4715 C   0  0  0  0  0  0
  -24.8769  -27.6781   19.4762 C   0  0  0  0  0  0
  -23.6417  -29.8155   20.1534 C   0  0  0  0  0  0
  -25.4105  -36.3068   24.0311 C   0  0  1  0  0  0
  -20.5882  -28.3771   23.1250 C   0  0  2  0  0  0
  -20.6784  -26.9488   22.5407 C   0  0  0  0  0  0
  -19.5807  -26.6453   21.5172 C   0  0  0  0  0  0
  -18.1981  -26.7958   22.1613 C   0  0  0  0  0  0
  -19.1541  -28.8890   23.2864 C   0  0  0  0  0  0
  -18.9464  -30.1498   23.8871 C   0  0  0  0  0  0
  -17.6478  -30.6646   24.0511 C   0  0  0  0  0  0
  -25.9044  -34.9439   23.5082 C   0  0  0  0  0  0
  -16.5378  -29.9120   23.6301 C   0  0  0  0  0  0
  -16.7285  -28.6515   23.0384 C   0  0  0  0  0  0
  -26.4499  -31.6592   25.0730 C   0  0  0  0  0  0
  -25.3740  -31.3734   26.1463 C   0  0  0  0  0  0
  -27.0343  -30.3015   24.6199 C   0  0  0  0  0  0
  -27.6046  -32.4341   25.7513 C   0  0  0  0  0  0
  -27.5561  -37.1807   24.8457 C   0  0  0  0  0  0
  -21.4173  -29.3147   22.3657 N   0  0  0  0  0  0
  -26.4283  -37.3758   23.9392 N   0  0  0  0  0  0
  -24.6912  -31.0590   22.0946 N   0  0  0  0  0  0
  -23.4195  -28.8176   23.2959 O   0  0  0  0  0  0
  -28.3545  -26.4360   20.2176 O   0  0  0  0  0  0
  -26.5628  -34.8908   22.4657 O   0  0  0  0  0  0
  -23.5423  -32.1389   23.7322 O   0  0  0  0  0  0
  -27.8289  -21.0605   19.8980 C   0  0  0  0  0  0
  -27.2847  -19.8083   19.5742 C   0  0  0  0  0  0
  -29.9288  -19.9303   20.4007 C   0  0  0  0  0  0
  -29.3914  -18.6113   20.1107 C   0  0  0  0  0  0
  -29.1788  -21.1698   20.2552 C   0  0  0  0  0  0
  -28.0556  -18.6241   19.6129 C   0  0  0  0  0  0
  -30.1901  -17.2818   20.2217 C   0  0  0  0  0  0
  -29.7852  -15.9844   20.5254 C   0  0  0  0  0  0
  -27.4339  -17.3979   18.9822 C   0  0  0  0  0  0
  -29.7973  -22.6191   20.3369 C   0  0  0  0  0  0
  -28.9849  -23.9100   20.8641 C   0  0  0  0  0  0
  -28.3105  -24.9774   19.8763 C   0  0  0  0  0  0
  -31.4873  -12.5534   19.1853 H   0  0  0  0  0  0
  -30.3849  -11.4621   19.9747 H   0  0  0  0  0  0
  -29.8074  -11.7334   17.5323 H   0  0  0  0  0  0
  -29.6631  -13.4632   17.7536 H   0  0  0  0  0  0
  -27.9013  -11.2855   18.9315 H   0  0  0  0  0  0
  -27.3942  -12.5159   17.8087 H   0  0  0  0  0  0
  -27.6416  -14.2535   19.4801 H   0  0  0  0  0  0
  -28.7226  -12.1724   21.4382 H   0  0  0  0  0  0
  -28.4381  -13.8470   21.8060 H   0  0  0  0  0  0
  -25.2790   -9.5580   22.4793 H   0  0  0  0  0  0
  -23.9987   -7.4552   22.7472 H   0  0  0  0  0  0
  -21.0856   -8.8730   19.8959 H   0  0  0  0  0  0
  -22.3753  -10.9606   19.6171 H   0  0  0  0  0  0
  -21.2008   -7.6153   23.9697 H   0  0  0  0  0  0
  -21.1484   -6.0548   25.9068 H   0  0  0  0  0  0
  -22.0619   -2.7614   23.2858 H   0  0  0  0  0  0
  -22.4048  -11.9713   22.4890 H   0  0  0  0  0  0
  -21.1043  -13.1038   22.2705 H   0  0  0  0  0  0
  -24.6017  -15.8123   20.5676 H   0  0  0  0  0  0
  -26.2304  -15.6429   20.1505 H   0  0  0  0  0  0
  -26.7160  -32.5417   23.1073 H   0  0  0  0  0  0
  -25.0002  -33.9680   25.0353 H   0  0  0  0  0  0
  -22.7236  -31.3063   21.3910 H   0  0  0  0  0  0
  -23.3703  -35.9680   23.3308 H   0  0  0  0  0  0
  -24.3581  -36.8953   22.2068 H   0  0  0  0  0  0
  -23.7280  -37.6527   23.6676 H   0  0  0  0  0  0
  -26.1069  -31.5349   20.6076 H   0  0  0  0  0  0
  -26.8456  -30.8243   22.0106 H   0  0  0  0  0  0
  -28.1103  -28.9433   21.2146 H   0  0  0  0  0  0
  -25.9717  -25.9442   18.9460 H   0  0  0  0  0  0
  -23.9865  -27.3178   18.9793 H   0  0  0  0  0  0
  -23.7626  -30.5914   19.3956 H   0  0  0  0  0  0
  -22.7619  -29.2436   19.8482 H   0  0  0  0  0  0
  -25.1283  -36.1920   25.0796 H   0  0  0  0  0  0
  -20.9987  -28.3420   24.1365 H   0  0  0  0  0  0
  -20.5627  -26.2414   23.3628 H   0  0  0  0  0  0
  -21.6664  -26.7485   22.1243 H   0  0  0  0  0  0
  -19.6996  -25.6374   21.1212 H   0  0  0  0  0  0
  -19.6816  -27.3271   20.6722 H   0  0  0  0  0  0
  -17.4219  -26.6607   21.4065 H   0  0  0  0  0  0
  -18.0521  -26.0130   22.9060 H   0  0  0  0  0  0
  -19.7949  -30.7307   24.2214 H   0  0  0  0  0  0
  -17.5055  -31.6365   24.5043 H   0  0  0  0  0  0
  -15.5376  -30.3011   23.7618 H   0  0  0  0  0  0
  -15.8649  -28.0824   22.7208 H   0  0  0  0  0  0
  -24.5906  -30.7090   25.7801 H   0  0  0  0  0  0
  -24.8932  -32.2892   26.4903 H   0  0  0  0  0  0
  -25.8078  -30.8919   27.0234 H   0  0  0  0  0  0
  -26.2902  -29.6784   24.1225 H   0  0  0  0  0  0
  -27.4047  -29.7268   25.4700 H   0  0  0  0  0  0
  -27.8770  -30.4303   23.9405 H   0  0  0  0  0  0
  -27.2627  -33.3629   26.2089 H   0  0  0  0  0  0
  -28.3855  -32.6930   25.0351 H   0  0  0  0  0  0
  -28.0693  -31.8471   26.5449 H   0  0  0  0  0  0
  -28.2575  -38.0105   24.7452 H   0  0  0  0  0  0
  -28.1046  -36.2625   24.6304 H   0  0  0  0  0  0
  -27.2277  -37.1490   25.8865 H   0  0  0  0  0  0
  -20.9340  -29.8971   21.6959 H   0  0  0  0  0  0
  -26.0154  -38.2828   24.1391 H   0  0  0  0  0  0
  -27.2182  -21.9476   19.7938 H   0  0  0  0  0  0
  -26.2612  -19.7788   19.2264 H   0  0  0  0  0  0
  -30.9650  -19.9980   20.6991 H   0  0  0  0  0  0
  -31.2308  -17.3913   19.9478 H   0  0  0  0  0  0
  -28.7669  -15.8497   20.8395 H   0  0  0  0  0  0
  -27.2407  -16.6593   19.7420 H   0  0  0  0  0  0
  -28.0926  -16.9742   18.2223 H   0  0  0  0  0  0
  -26.4844  -17.6229   18.4963 H   0  0  0  0  0  0
  -30.1869  -22.8515   19.3458 H   0  0  0  0  0  0
  -30.6862  -22.5313   20.9645 H   0  0  0  0  0  0
  -29.7284  -24.4911   21.4108 H   0  0  0  0  0  0
  -28.2715  -23.6104   21.6330 H   0  0  0  0  0  0
  -27.2938  -24.6181   19.7516 H   0  0  0  0  0  0
  -28.7676  -24.8713   18.8929 H   0  0  0  0  0  0
  1 25  1  0  0  0
  1 30  2  0  0  0
  1 78  1  0  0  0
  2  3  1  0  0  0
  2 25  1  0  0  0
  2 83  1  0  0  0
  2 84  1  0  0  0
  3  4  1  0  0  0
  3 85  1  0  0  0
  3 86  1  0  0  0
  4  5  1  0  0  0
  4 87  1  0  0  0
  4 88  1  0  0  0
  5  6  1  0  0  0
  5 26  1  0  0  0
  5 89  1  0  0  0
  6 25  1  0  0  0
  6 90  1  0  0  0
  6 91  1  0  0  0
  7  8  2  0  0  0
  7 26  1  0  0  0
  7 29  1  0  0  0
  8  9  1  0  0  0
  8 22  1  0  0  0
  9 10  1  0  0  0
  9 27  2  0  0  0
 10 11  2  0  0  0
 10 15  1  0  0  0
 11 12  1  0  0  0
 11 92  1  0  0  0
 12 13  2  0  0  0
 12 93  1  0  0  0
 13 14  1  0  0  0
 13 31  1  0  0  0
 14 15  2  0  0  0
 14 94  1  0  0  0
 15 95  1  0  0  0
 16 17  2  0  0  0
 16 21  1  0  0  0
 16 31  1  0  0  0
 17 18  1  0  0  0
 17 96  1  0  0  0
 18 19  2  0  0  0
 18 97  1  0  0  0
 19 20  1  0  0  0
 19 24  1  0  0  0
 20 21  2  0  0  0
 20 98  1  0  0  0
 21 23  1  0  0  0
 22 28  1  0  0  0
 22 32  2  0  0  0
 26 27  1  0  0  0
 28 99  1  0  0  0
 28100  1  0  0  0
 29101  1  0  0  0
 29102  1  0  0  0
 33 34  1  0  0  0
 33 66  1  0  0  0
 33 70  2  0  0  0
 34 36  1  0  0  0
 34 59  1  0  0  0
 34103  1  0  0  0
 35 44  2  0  0  0
 35 45  1  0  0  0
 35 68  1  0  0  0
 36 56  1  0  0  0
 36104  1  0  0  0
 37 39  1  0  0  0
 37 47  1  0  0  0
 37 66  1  0  0  0
 37105  1  0  0  0
 38 43  2  0  0  0
 38 46  1  0  0  0
 38 47  1  0  0  0
 39 64  1  0  0  0
 39 67  2  0  0  0
 40 52  1  0  0  0
 40 53  2  0  0  0
 40 58  1  0  0  0
 41106  1  0  0  0
 41107  1  0  0  0
 41108  1  0  0  0
 41 48  1  0  0  0
 42 43  1  0  0  0
 42 66  1  0  0  0
 42109  1  0  0  0
 42110  1  0  0  0
 43 44  1  0  0  0
 44111  1  0  0  0
 45 46  2  0  0  0
 45112  1  0  0  0
 46113  1  0  0  0
 47114  1  0  0  0
 47115  1  0  0  0
 48 56  1  0  0  0
 48 65  1  0  0  0
 48116  1  0  0  0
 49 50  1  0  0  0
 49 53  1  0  0  0
 49 64  1  0  0  0
 49117  1  0  0  0
 50 51  1  0  0  0
 50118  1  0  0  0
 50119  1  0  0  0
 51 52  1  0  0  0
 51120  1  0  0  0
 51121  1  0  0  0
 52122  1  0  0  0
 52123  1  0  0  0
 53 54  1  0  0  0
 54 55  2  0  0  0
 54124  1  0  0  0
 55 57  1  0  0  0
 55125  1  0  0  0
 56 69  2  0  0  0
 57 58  2  0  0  0
 57126  1  0  0  0
 58127  1  0  0  0
 59 60  1  0  0  0
 59 61  1  0  0  0
 59 62  1  0  0  0
 60128  1  0  0  0
 60129  1  0  0  0
 60130  1  0  0  0
 61131  1  0  0  0
 61132  1  0  0  0
 61133  1  0  0  0
 62134  1  0  0  0
 62135  1  0  0  0
 62136  1  0  0  0
 63 65  1  0  0  0
 63137  1  0  0  0
 63138  1  0  0  0
 63139  1  0  0  0
 64140  1  0  0  0
 65141  1  0  0  0
 68 82  1  0  0  0
 71 72  2  0  0  0
 71 75  1  0  0  0
 71142  1  0  0  0
 72 76  1  0  0  0
 72143  1  0  0  0
 73 74  1  0  0  0
 73 75  2  0  0  0
 73144  1  0  0  0
 74 76  2  0  0  0
 74 77  1  0  0  0
 75 80  1  0  0  0
 76 79  1  0  0  0
 77 78  2  0  0  0
 77145  1  0  0  0
 78146  1  0  0  0
 79147  1  0  0  0
 79148  1  0  0  0
 79149  1  0  0  0
 80 81  1  0  0  0
 80150  1  0  0  0
 80151  1  0  0  0
 81 82  1  0  0  0
 81152  1  0  0  0
 81153  1  0  0  0
 82154  1  0  0  0
 82155  1  0  0  0
M  ISO  4   1 100  68 101  78 100  82 101
M  END
> <chiral flag>
0

> <version>
0

> <s_m_source_file>
/data/baiqing/PycharmProjects/Reinvent-master-3.2/result/LINK_invent/BTK/process_docking_weight1_custom_product_contain_oxygen_bond_distance_aromatic_linkinvent_7_9_3/rearranged_h_0127.sdf

> <i_m_source_file_index>
71

> <r_mmod_Potential_Energy-OPLS-2005>
196.558563232422

> <r_mmod_Stretch_Energy-OPLS-2005>
112.886421203613

> <r_mmod_Bend_Energy-OPLS-2005>
164.657485961914

> <r_mmod_Torsional_Energy-OPLS-2005>
217.851638793945

> <r_mmod_Improper_Torsional_Energy-OPLS-2005>
6.60345268249512

> <r_mmod_Van_der_Waal_Energy-OPLS-2005>
148.554458618164

> <r_mmod_Electrostatic_Energy-OPLS-2005>
-339.541442871094

> <r_mmod_Solvation_Energy-OPLS-2005>
-192.020141601562

> <b_mmod_Minimization_Converged-OPLS-2005>
0

> <r_mmod_RMS_Derivative-OPLS-2005>
3.29797124862671

$$$$
71
                    3D
 Structure written by MMmdl.
155163  0  0  1  0            999 V2000
  -30.6344  -14.7391   20.4227 C   0  0  0  0  0  0
  -30.4454  -12.4382   19.4910 C   0  0  0  0  0  0
  -29.5244  -12.5030   18.2525 C   0  0  0  0  0  0
  -28.0481  -12.3310   18.6611 C   0  0  0  0  0  0
  -27.6477  -13.2327   19.8596 C   0  0  2  0  0  0
  -28.6973  -13.1681   20.9919 C   0  0  0  0  0  0
  -25.2410  -13.8062   20.5776 C   0  0  0  0  0  0
  -24.1748  -13.0303   20.9251 C   0  0  0  0  0  0
  -24.6408  -11.6816   20.8772 C   0  0  0  0  0  0
  -23.9094  -10.4210   21.0427 C   0  0  0  0  0  0
  -24.3640   -9.4129   21.9202 C   0  0  0  0  0  0
  -23.6293   -8.2189   22.0770 C   0  0  0  0  0  0
  -22.4278   -8.0248   21.3553 C   0  0  0  0  0  0
  -21.9920   -9.0214   20.4655 C   0  0  0  0  0  0
  -22.7275  -10.2068   20.3056 C   0  0  0  0  0  0
  -21.6835   -6.0725   22.5272 C   0  0  0  0  0  0
  -21.4010   -6.5635   23.8210 C   0  0  0  0  0  0
  -21.3657   -5.6794   24.9173 C   0  0  0  0  0  0
  -21.6047   -4.3059   24.7233 C   0  0  0  0  0  0
  -21.8821   -3.8147   23.4356 C   0  0  0  0  0  0
  -21.9191   -4.6954   22.3410 C   0  0  0  0  0  0
  -22.7756  -13.5064   21.1923 C   0  0  0  0  0  0
  -22.1662   -4.2145   21.0990 F   0  0  0  0  0  0
  -21.5638   -3.4548   25.7748 F   0  0  0  0  0  0
  -30.0097  -13.5081   20.4188 N   0  0  0  0  0  0
  -26.2954  -12.9383   20.3346 N   0  0  0  0  0  0
  -25.9358  -11.6501   20.5779 N   0  0  0  0  0  0
  -22.0427  -12.8050   22.0491 N   0  0  0  0  0  0
  -25.3815  -15.1777   20.4334 N   0  0  0  0  0  0
  -31.8347  -14.7950   20.1456 O   0  0  0  0  0  0
  -21.6619   -6.8862   21.4241 O   0  0  0  0  0  0
  -22.3418  -14.5366   20.6757 O   0  0  0  0  0  0
  -24.6266  -31.8578   23.2006 C   0  0  0  0  0  0
  -25.9113  -32.4758   23.8341 C   0  0  1  0  0  0
  -27.2287  -27.2855   20.1277 C   0  0  0  0  0  0
  -25.5914  -33.8557   24.2250 N   0  0  0  0  0  0
  -23.4249  -30.4828   21.5381 C   0  0  2  0  0  0
  -24.8725  -28.9299   20.1102 C   0  0  0  0  0  0
  -22.7479  -29.4654   22.4882 C   0  0  0  0  0  0
  -18.0297  -28.1403   22.8486 C   0  0  0  0  0  0
  -24.1481  -36.7307   23.2646 C   0  0  0  0  0  0
  -25.9677  -30.7765   21.3784 C   0  0  0  0  0  0
  -26.0392  -29.4008   20.7229 C   0  0  0  0  0  0
  -27.2158  -28.5894   20.7222 C   0  0  0  0  0  0
  -26.0405  -26.8838   19.4715 C   0  0  0  0  0  0
  -24.8769  -27.6781   19.4762 C   0  0  0  0  0  0
  -23.6417  -29.8155   20.1534 C   0  0  0  0  0  0
  -25.4105  -36.3068   24.0311 C   0  0  1  0  0  0
  -20.5882  -28.3771   23.1250 C   0  0  2  0  0  0
  -20.6784  -26.9488   22.5407 C   0  0  0  0  0  0
  -19.5807  -26.6453   21.5172 C   0  0  0  0  0  0
  -18.1981  -26.7958   22.1613 C   0  0  0  0  0  0
  -19.1541  -28.8890   23.2864 C   0  0  0  0  0  0
  -18.9464  -30.1498   23.8871 C   0  0  0  0  0  0
  -17.6478  -30.6646   24.0511 C   0  0  0  0  0  0
  -25.9044  -34.9439   23.5082 C   0  0  0  0  0  0
  -16.5378  -29.9120   23.6301 C   0  0  0  0  0  0
  -16.7285  -28.6515   23.0384 C   0  0  0  0  0  0
  -26.4499  -31.6592   25.0730 C   0  0  0  0  0  0
  -25.3740  -31.3734   26.1463 C   0  0  0  0  0  0
  -27.0343  -30.3015   24.6199 C   0  0  0  0  0  0
  -27.6046  -32.4341   25.7513 C   0  0  0  0  0  0
  -27.5561  -37.1807   24.8457 C   0  0  0  0  0  0
  -21.4173  -29.3147   22.3657 N   0  0  0  0  0  0
  -26.4283  -37.3758   23.9392 N   0  0  0  0  0  0
  -24.6912  -31.0590   22.0946 N   0  0  0  0  0  0
  -23.4195  -28.8176   23.2959 O   0  0  0  0  0  0
  -28.3545  -26.4360   20.2176 O   0  0  0  0  0  0
  -26.5628  -34.8908   22.4657 O   0  0  0  0  0  0
  -23.5423  -32.1389   23.7322 O   0  0  0  0  0  0
  -27.8289  -21.0605   19.8980 C   0  0  0  0  0  0
  -27.2847  -19.8083   19.5742 C   0  0  0  0  0  0
  -29.9288  -19.9303   20.4007 C   0  0  0  0  0  0
  -29.3914  -18.6113   20.1107 C   0  0  0  0  0  0
  -29.1788  -21.1698   20.2552 C   0  0  0  0  0  0
  -28.0556  -18.6241   19.6129 C   0  0  0  0  0  0
  -30.1901  -17.2818   20.2217 C   0  0  0  0  0  0
  -29.7852  -15.9844   20.5254 C   0  0  0  0  0  0
  -27.4339  -17.3979   18.9822 C   0  0  0  0  0  0
  -29.7973  -22.6191   20.3369 C   0  0  0  0  0  0
  -28.9849  -23.9100   20.8641 C   0  0  0  0  0  0
  -28.3105  -24.9774   19.8763 C   0  0  0  0  0  0
  -31.4873  -12.5534   19.1853 H   0  0  0  0  0  0
  -30.3849  -11.4621   19.9747 H   0  0  0  0  0  0
  -29.8074  -11.7334   17.5323 H   0  0  0  0  0  0
  -29.6631  -13.4632   17.7536 H   0  0  0  0  0  0
  -27.9013  -11.2855   18.9315 H   0  0  0  0  0  0
  -27.3942  -12.5159   17.8087 H   0  0  0  0  0  0
  -27.6416  -14.2535   19.4801 H   0  0  0  0  0  0
  -28.7226  -12.1724   21.4382 H   0  0  0  0  0  0
  -28.4381  -13.8470   21.8060 H   0  0  0  0  0  0
  -25.2790   -9.5580   22.4793 H   0  0  0  0  0  0
  -23.9987   -7.4552   22.7472 H   0  0  0  0  0  0
  -21.0856   -8.8730   19.8959 H   0  0  0  0  0  0
  -22.3753  -10.9606   19.6171 H   0  0  0  0  0  0
  -21.2008   -7.6153   23.9697 H   0  0  0  0  0  0
  -21.1484   -6.0548   25.9068 H   0  0  0  0  0  0
  -22.0619   -2.7614   23.2858 H   0  0  0  0  0  0
  -22.4048  -11.9713   22.4890 H   0  0  0  0  0  0
  -21.1043  -13.1038   22.2705 H   0  0  0  0  0  0
  -24.6017  -15.8123   20.5676 H   0  0  0  0  0  0
  -26.2304  -15.6429   20.1505 H   0  0  0  0  0  0
  -26.7160  -32.5417   23.1073 H   0  0  0  0  0  0
  -25.0002  -33.9680   25.0353 H   0  0  0  0  0  0
  -22.7236  -31.3063   21.3910 H   0  0  0  0  0  0
  -23.3703  -35.9680   23.3308 H   0  0  0  0  0  0
  -24.3581  -36.8953   22.2068 H   0  0  0  0  0  0
  -23.7280  -37.6527   23.6676 H   0  0  0  0  0  0
  -26.1069  -31.5349   20.6076 H   0  0  0  0  0  0
  -26.8456  -30.8243   22.0106 H   0  0  0  0  0  0
  -28.1103  -28.9433   21.2146 H   0  0  0  0  0  0
  -25.9717  -25.9442   18.9460 H   0  0  0  0  0  0
  -23.9865  -27.3178   18.9793 H   0  0  0  0  0  0
  -23.7626  -30.5914   19.3956 H   0  0  0  0  0  0
  -22.7619  -29.2436   19.8482 H   0  0  0  0  0  0
  -25.1283  -36.1920   25.0796 H   0  0  0  0  0  0
  -20.9987  -28.3420   24.1365 H   0  0  0  0  0  0
  -20.5627  -26.2414   23.3628 H   0  0  0  0  0  0
  -21.6664  -26.7485   22.1243 H   0  0  0  0  0  0
  -19.6996  -25.6374   21.1212 H   0  0  0  0  0  0
  -19.6816  -27.3271   20.6722 H   0  0  0  0  0  0
  -17.4219  -26.6607   21.4065 H   0  0  0  0  0  0
  -18.0521  -26.0130   22.9060 H   0  0  0  0  0  0
  -19.7949  -30.7307   24.2214 H   0  0  0  0  0  0
  -17.5055  -31.6365   24.5043 H   0  0  0  0  0  0
  -15.5376  -30.3011   23.7618 H   0  0  0  0  0  0
  -15.8649  -28.0824   22.7208 H   0  0  0  0  0  0
  -24.5906  -30.7090   25.7801 H   0  0  0  0  0  0
  -24.8932  -32.2892   26.4903 H   0  0  0  0  0  0
  -25.8078  -30.8919   27.0234 H   0  0  0  0  0  0
  -26.2902  -29.6784   24.1225 H   0  0  0  0  0  0
  -27.4047  -29.7268   25.4700 H   0  0  0  0  0  0
  -27.8770  -30.4303   23.9405 H   0  0  0  0  0  0
  -27.2627  -33.3629   26.2089 H   0  0  0  0  0  0
  -28.3855  -32.6930   25.0351 H   0  0  0  0  0  0
  -28.0693  -31.8471   26.5449 H   0  0  0  0  0  0
  -28.2575  -38.0105   24.7452 H   0  0  0  0  0  0
  -28.1046  -36.2625   24.6304 H   0  0  0  0  0  0
  -27.2277  -37.1490   25.8865 H   0  0  0  0  0  0
  -20.9340  -29.8971   21.6959 H   0  0  0  0  0  0
  -26.0154  -38.2828   24.1391 H   0  0  0  0  0  0
  -27.2182  -21.9476   19.7938 H   0  0  0  0  0  0
  -26.2612  -19.7788   19.2264 H   0  0  0  0  0  0
  -30.9650  -19.9980   20.6991 H   0  0  0  0  0  0
  -31.2308  -17.3913   19.9478 H   0  0  0  0  0  0
  -28.7669  -15.8497   20.8395 H   0  0  0  0  0  0
  -27.2407  -16.6593   19.7420 H   0  0  0  0  0  0
  -28.0926  -16.9742   18.2223 H   0  0  0  0  0  0
  -26.4844  -17.6229   18.4963 H   0  0  0  0  0  0
  -30.1869  -22.8515   19.3458 H   0  0  0  0  0  0
  -30.6862  -22.5313   20.9645 H   0  0  0  0  0  0
  -29.7284  -24.4911   21.4108 H   0  0  0  0  0  0
  -28.2715  -23.6104   21.6330 H   0  0  0  0  0  0
  -27.2938  -24.6181   19.7516 H   0  0  0  0  0  0
  -28.7676  -24.8713   18.8929 H   0  0  0  0  0  0
  1 25  1  0  0  0
  1 30  2  0  0  0
  1 78  1  0  0  0
  2  3  1  0  0  0
  2 25  1  0  0  0
  2 83  1  0  0  0
  2 84  1  0  0  0
  3  4  1  0  0  0
  3 85  1  0  0  0
  3 86  1  0  0  0
  4  5  1  0  0  0
  4 87  1  0  0  0
  4 88  1  0  0  0
  5  6  1  0  0  0
  5 26  1  0  0  0
  5 89  1  0  0  0
  6 25  1  0  0  0
  6 90  1  0  0  0
  6 91  1  0  0  0
  7  8  2  0  0  0
  7 26  1  0  0  0
  7 29  1  0  0  0
  8  9  1  0  0  0
  8 22  1  0  0  0
  9 10  1  0  0  0
  9 27  2  0  0  0
 10 11  2  0  0  0
 10 15  1  0  0  0
 11 12  1  0  0  0
 11 92  1  0  0  0
 12 13  2  0  0  0
 12 93  1  0  0  0
 13 14  1  0  0  0
 13 31  1  0  0  0
 14 15  2  0  0  0
 14 94  1  0  0  0
 15 95  1  0  0  0
 16 17  2  0  0  0
 16 21  1  0  0  0
 16 31  1  0  0  0
 17 18  1  0  0  0
 17 96  1  0  0  0
 18 19  2  0  0  0
 18 97  1  0  0  0
 19 20  1  0  0  0
 19 24  1  0  0  0
 20 21  2  0  0  0
 20 98  1  0  0  0
 21 23  1  0  0  0
 22 28  1  0  0  0
 22 32  2  0  0  0
 26 27  1  0  0  0
 28 99  1  0  0  0
 28100  1  0  0  0
 29101  1  0  0  0
 29102  1  0  0  0
 33 34  1  0  0  0
 33 66  1  0  0  0
 33 70  2  0  0  0
 34 36  1  0  0  0
 34 59  1  0  0  0
 34103  1  0  0  0
 35 44  2  0  0  0
 35 45  1  0  0  0
 35 68  1  0  0  0
 36 56  1  0  0  0
 36104  1  0  0  0
 37 39  1  0  0  0
 37 47  1  0  0  0
 37 66  1  0  0  0
 37105  1  0  0  0
 38 43  2  0  0  0
 38 46  1  0  0  0
 38 47  1  0  0  0
 39 64  1  0  0  0
 39 67  2  0  0  0
 40 52  1  0  0  0
 40 53  2  0  0  0
 40 58  1  0  0  0
 41106  1  0  0  0
 41107  1  0  0  0
 41108  1  0  0  0
 41 48  1  0  0  0
 42 43  1  0  0  0
 42 66  1  0  0  0
 42109  1  0  0  0
 42110  1  0  0  0
 43 44  1  0  0  0
 44111  1  0  0  0
 45 46  2  0  0  0
 45112  1  0  0  0
 46113  1  0  0  0
 47114  1  0  0  0
 47115  1  0  0  0
 48 56  1  0  0  0
 48 65  1  0  0  0
 48116  1  0  0  0
 49 50  1  0  0  0
 49 53  1  0  0  0
 49 64  1  0  0  0
 49117  1  0  0  0
 50 51  1  0  0  0
 50118  1  0  0  0
 50119  1  0  0  0
 51 52  1  0  0  0
 51120  1  0  0  0
 51121  1  0  0  0
 52122  1  0  0  0
 52123  1  0  0  0
 53 54  1  0  0  0
 54 55  2  0  0  0
 54124  1  0  0  0
 55 57  1  0  0  0
 55125  1  0  0  0
 56 69  2  0  0  0
 57 58  2  0  0  0
 57126  1  0  0  0
 58127  1  0  0  0
 59 60  1  0  0  0
 59 61  1  0  0  0
 59 62  1  0  0  0
 60128  1  0  0  0
 60129  1  0  0  0
 60130  1  0  0  0
 61131  1  0  0  0
 61132  1  0  0  0
 61133  1  0  0  0
 62134  1  0  0  0
 62135  1  0  0  0
 62136  1  0  0  0
 63 65  1  0  0  0
 63137  1  0  0  0
 63138  1  0  0  0
 63139  1  0  0  0
 64140  1  0  0  0
 65141  1  0  0  0
 68 82  1  0  0  0
 71 72  2  0  0  0
 71 75  1  0  0  0
 71142  1  0  0  0
 72 76  1  0  0  0
 72143  1  0  0  0
 73 74  1  0  0  0
 73 75  2  0  0  0
 73144  1  0  0  0
 74 76  2  0  0  0
 74 77  1  0  0  0
 75 80  1  0  0  0
 76 79  1  0  0  0
 77 78  2  0  0  0
 77145  1  0  0  0
 78146  1  0  0  0
 79147  1  0  0  0
 79148  1  0  0  0
 79149  1  0  0  0
 80 81  1  0  0  0
 80150  1  0  0  0
 80151  1  0  0  0
 81 82  1  0  0  0
 81152  1  0  0  0
 81153  1  0  0  0
 82154  1  0  0  0
 82155  1  0  0  0
M  ISO  4   1 100  68 101  78 100  82 101
M  END
> <chiral flag>
0

> <version>
0

> <s_m_source_file>
/data/baiqing/PycharmProjects/Reinvent-master-3.2/result/LINK_invent/BTK/process_docking_weight1_custom_product_contain_oxygen_bond_distance_aromatic_linkinvent_7_9_3/rearranged_h_0127.sdf

> <i_m_source_file_index>
72

> <r_mmod_Potential_Energy-OPLS-2005>
196.558563232422

> <r_mmod_Stretch_Energy-OPLS-2005>
112.886421203613

> <r_mmod_Bend_Energy-OPLS-2005>
164.657485961914

> <r_mmod_Torsional_Energy-OPLS-2005>
217.851638793945

> <r_mmod_Improper_Torsional_Energy-OPLS-2005>
6.60345268249512

> <r_mmod_Van_der_Waal_Energy-OPLS-2005>
148.554458618164

> <r_mmod_Electrostatic_Energy-OPLS-2005>
-339.541442871094

> <r_mmod_Solvation_Energy-OPLS-2005>
-192.020141601562

> <b_mmod_Minimization_Converged-OPLS-2005>
0

> <r_mmod_RMS_Derivative-OPLS-2005>
3.29797124862671

$$$$
72
                    3D
 Structure written by MMmdl.
157165  0  0  1  0            999 V2000
  -30.6060  -14.7200   20.4602 C   0  0  0  0  0  0
  -30.4306  -12.4361   19.4776 C   0  0  0  0  0  0
  -29.5117  -12.5226   18.2377 C   0  0  0  0  0  0
  -28.0321  -12.3633   18.6393 C   0  0  0  0  0  0
  -27.6471  -13.2364   19.8630 C   0  0  2  0  0  0
  -28.6898  -13.1314   20.9990 C   0  0  0  0  0  0
  -25.2525  -13.8210   20.5718 C   0  0  0  0  0  0
  -24.1813  -13.0449   20.9201 C   0  0  0  0  0  0
  -24.6401  -11.6926   20.8718 C   0  0  0  0  0  0
  -23.9075  -10.4298   21.0384 C   0  0  0  0  0  0
  -24.3624   -9.4218   21.9166 C   0  0  0  0  0  0
  -23.6306   -8.2248   22.0736 C   0  0  0  0  0  0
  -22.4288   -8.0277   21.3531 C   0  0  0  0  0  0
  -21.9921   -9.0245   20.4626 C   0  0  0  0  0  0
  -22.7244  -10.2130   20.3039 C   0  0  0  0  0  0
  -21.6861   -6.0726   22.5268 C   0  0  0  0  0  0
  -21.4007   -6.5629   23.8201 C   0  0  0  0  0  0
  -21.3673   -5.6787   24.9173 C   0  0  0  0  0  0
  -21.6061   -4.3050   24.7219 C   0  0  0  0  0  0
  -21.8823   -3.8138   23.4339 C   0  0  0  0  0  0
  -21.9193   -4.6953   22.3395 C   0  0  0  0  0  0
  -22.7835  -13.5217   21.1872 C   0  0  0  0  0  0
  -22.1674   -4.2142   21.0972 F   0  0  0  0  0  0
  -21.5642   -3.4529   25.7735 F   0  0  0  0  0  0
  -29.9994  -13.4841   20.4336 N   0  0  0  0  0  0
  -26.2961  -12.9421   20.3325 N   0  0  0  0  0  0
  -25.9336  -11.6552   20.5733 N   0  0  0  0  0  0
  -22.0509  -12.8175   22.0428 N   0  0  0  0  0  0
  -25.4247  -15.1932   20.4148 N   0  0  0  0  0  0
  -31.7638  -14.8476   20.0508 O   0  0  0  0  0  0
  -21.6657   -6.8869   21.4229 O   0  0  0  0  0  0
  -22.3494  -14.5524   20.6737 O   0  0  0  0  0  0
  -24.6311  -31.8553   23.1994 C   0  0  0  0  0  0
  -25.9148  -32.4741   23.8319 C   0  0  1  0  0  0
  -27.2128  -27.2622   20.1246 C   0  0  0  0  0  0
  -25.5962  -33.8545   24.2260 N   0  0  0  0  0  0
  -23.4256  -30.4810   21.5410 C   0  0  2  0  0  0
  -24.8721  -28.9345   20.1039 C   0  0  0  0  0  0
  -22.7492  -29.4605   22.4885 C   0  0  0  0  0  0
  -18.0300  -28.1362   22.8479 C   0  0  0  0  0  0
  -24.1500  -36.7285   23.2636 C   0  0  0  0  0  0
  -25.9720  -30.7676   21.3808 C   0  0  0  0  0  0
  -26.0417  -29.3919   20.7218 C   0  0  0  0  0  0
  -27.2125  -28.5659   20.7267 C   0  0  0  0  0  0
  -26.0252  -26.8877   19.4520 C   0  0  0  0  0  0
  -24.8700  -27.6906   19.4572 C   0  0  0  0  0  0
  -23.6428  -29.8208   20.1544 C   0  0  0  0  0  0
  -25.4118  -36.3053   24.0323 C   0  0  1  0  0  0
  -20.5898  -28.3686   23.1258 C   0  0  2  0  0  0
  -20.6783  -26.9404   22.5399 C   0  0  0  0  0  0
  -19.5760  -26.6363   21.5204 C   0  0  0  0  0  0
  -18.1941  -26.7901   22.1618 C   0  0  0  0  0  0
  -19.1550  -28.8839   23.2865 C   0  0  0  0  0  0
  -18.9473  -30.1438   23.8886 C   0  0  0  0  0  0
  -17.6471  -30.6565   24.0553 C   0  0  0  0  0  0
  -25.9060  -34.9428   23.5088 C   0  0  0  0  0  0
  -16.5363  -29.9061   23.6320 C   0  0  0  0  0  0
  -16.7285  -28.6477   23.0344 C   0  0  0  0  0  0
  -26.4527  -31.6547   25.0700 C   0  0  0  0  0  0
  -25.3746  -31.3699   26.1415 C   0  0  0  0  0  0
  -27.0383  -30.2957   24.6186 C   0  0  0  0  0  0
  -27.6077  -32.4281   25.7491 C   0  0  0  0  0  0
  -27.5577  -37.1797   24.8461 C   0  0  0  0  0  0
  -21.4198  -29.3042   22.3638 N   0  0  0  0  0  0
  -26.4286  -37.3755   23.9407 N   0  0  0  0  0  0
  -24.6947  -31.0525   22.0967 N   0  0  0  0  0  0
  -23.4201  -28.8137   23.2974 O   0  0  0  0  0  0
  -28.3008  -26.3575   20.2155 O   0  0  0  0  0  0
  -26.5619  -34.8911   22.4649 O   0  0  0  0  0  0
  -23.5468  -32.1383   23.7296 O   0  0  0  0  0  0
  -29.4600  -17.1149   18.7628 C   0  0  0  0  0  0
  -29.1005  -19.5426   18.6811 C   0  0  0  0  0  0
  -29.6681  -18.4564   20.7889 C   0  0  0  0  0  0
  -29.7172  -17.1409   20.1513 C   0  0  0  0  0  0
  -29.3603  -19.6902   20.0636 C   0  0  0  0  0  0
  -29.1566  -18.2885   18.0457 C   0  0  0  0  0  0
  -31.4706  -18.7396   22.5412 C   0  0  0  0  0  0
  -29.9701  -18.5587   22.2748 C   0  0  0  0  0  0
  -28.9443  -23.6910   20.5615 C   0  0  0  0  0  0
  -28.1048  -24.8997   19.8856 C   0  0  0  0  0  0
  -28.7947  -22.1963   19.9525 C   0  0  0  0  0  0
  -29.8610  -15.8276   20.8332 N   0  0  0  0  0  0
  -29.3271  -20.9898   20.6647 O   0  0  0  0  0  0
  -28.8930  -18.2067   16.7197 F   0  0  0  0  0  0
  -31.4731  -12.5527   19.1787 H   0  0  0  0  0  0
  -30.3656  -11.4493   19.9379 H   0  0  0  0  0  0
  -29.7847  -11.7555   17.5111 H   0  0  0  0  0  0
  -29.6571  -13.4827   17.7396 H   0  0  0  0  0  0
  -27.8627  -11.3096   18.8633 H   0  0  0  0  0  0
  -27.3874  -12.6027   17.7928 H   0  0  0  0  0  0
  -27.6531  -14.2682   19.5113 H   0  0  0  0  0  0
  -28.7139  -12.1198   21.4068 H   0  0  0  0  0  0
  -28.4265  -13.7849   21.8323 H   0  0  0  0  0  0
  -25.2779   -9.5697   22.4724 H   0  0  0  0  0  0
  -24.0035   -7.4634   22.7435 H   0  0  0  0  0  0
  -21.0859   -8.8740   19.8919 H   0  0  0  0  0  0
  -22.3689  -10.9660   19.6137 H   0  0  0  0  0  0
  -21.1990   -7.6131   23.9700 H   0  0  0  0  0  0
  -21.1508   -6.0519   25.9077 H   0  0  0  0  0  0
  -22.0592   -2.7593   23.2843 H   0  0  0  0  0  0
  -22.4166  -11.9849   22.4808 H   0  0  0  0  0  0
  -21.1100  -13.1120   22.2627 H   0  0  0  0  0  0
  -24.6633  -15.8539   20.5277 H   0  0  0  0  0  0
  -26.2804  -15.6273   20.0921 H   0  0  0  0  0  0
  -26.7210  -32.5396   23.1055 H   0  0  0  0  0  0
  -25.0138  -33.9682   25.0422 H   0  0  0  0  0  0
  -22.7224  -31.3039   21.3971 H   0  0  0  0  0  0
  -23.3751  -35.9628   23.3275 H   0  0  0  0  0  0
  -24.3605  -36.8927   22.2056 H   0  0  0  0  0  0
  -23.7269  -37.6487   23.6675 H   0  0  0  0  0  0
  -26.1099  -31.5299   20.6123 H   0  0  0  0  0  0
  -26.8500  -30.8150   22.0127 H   0  0  0  0  0  0
  -28.1033  -28.9067   21.2355 H   0  0  0  0  0  0
  -25.9492  -25.9524   18.9191 H   0  0  0  0  0  0
  -23.9785  -27.3421   18.9540 H   0  0  0  0  0  0
  -23.7689  -30.6009   19.4024 H   0  0  0  0  0  0
  -22.7606  -29.2560   19.8464 H   0  0  0  0  0  0
  -25.1300  -36.1888   25.0812 H   0  0  0  0  0  0
  -21.0007  -28.3269   24.1370 H   0  0  0  0  0  0
  -20.5666  -26.2311   23.3606 H   0  0  0  0  0  0
  -21.6653  -26.7407   22.1205 H   0  0  0  0  0  0
  -19.6929  -25.6269   21.1243 H   0  0  0  0  0  0
  -19.6692  -27.3167   20.6722 H   0  0  0  0  0  0
  -17.4210  -26.6654   21.4016 H   0  0  0  0  0  0
  -18.0342  -26.0027   22.8999 H   0  0  0  0  0  0
  -19.7949  -30.7253   24.2251 H   0  0  0  0  0  0
  -17.5024  -31.6250   24.5146 H   0  0  0  0  0  0
  -15.5363  -30.2963   23.7628 H   0  0  0  0  0  0
  -15.8688  -28.0788   22.7062 H   0  0  0  0  0  0
  -24.5951  -30.7015   25.7745 H   0  0  0  0  0  0
  -24.8914  -32.2873   26.4781 H   0  0  0  0  0  0
  -25.8064  -30.8923   27.0217 H   0  0  0  0  0  0
  -26.2971  -29.6679   24.1232 H   0  0  0  0  0  0
  -27.4090  -29.7236   25.4699 H   0  0  0  0  0  0
  -27.8834  -30.4214   23.9415 H   0  0  0  0  0  0
  -27.2682  -33.3590   26.2038 H   0  0  0  0  0  0
  -28.3923  -32.6806   25.0347 H   0  0  0  0  0  0
  -28.0704  -31.8411   26.5437 H   0  0  0  0  0  0
  -28.2568  -38.0116   24.7508 H   0  0  0  0  0  0
  -28.1097  -36.2642   24.6273 H   0  0  0  0  0  0
  -27.2304  -37.1426   25.8866 H   0  0  0  0  0  0
  -20.9368  -29.8781   21.6864 H   0  0  0  0  0  0
  -26.0154  -38.2825   24.1399 H   0  0  0  0  0  0
  -29.4514  -16.1785   18.2249 H   0  0  0  0  0  0
  -28.8582  -20.3879   18.0569 H   0  0  0  0  0  0
  -31.6687  -18.8284   23.6098 H   0  0  0  0  0  0
  -31.8492  -19.6406   22.0581 H   0  0  0  0  0  0
  -32.0471  -17.8936   22.1636 H   0  0  0  0  0  0
  -29.6067  -17.6705   22.7913 H   0  0  0  0  0  0
  -29.4153  -19.3939   22.7034 H   0  0  0  0  0  0
  -28.6684  -23.6505   21.6146 H   0  0  0  0  0  0
  -30.0024  -23.9501   20.5481 H   0  0  0  0  0  0
  -27.0724  -24.6266   20.0992 H   0  0  0  0  0  0
  -28.2184  -24.8206   18.8030 H   0  0  0  0  0  0
  -29.2545  -22.2438   18.9668 H   0  0  0  0  0  0
  -27.7333  -22.0100   19.7834 H   0  0  0  0  0  0
  -29.0716  -15.5870   21.4143 H   0  0  0  0  0  0
  1 25  1  0  0  0
  1 30  2  0  0  0
  1 82  1  0  0  0
  2  3  1  0  0  0
  2 25  1  0  0  0
  2 85  1  0  0  0
  2 86  1  0  0  0
  3  4  1  0  0  0
  3 87  1  0  0  0
  3 88  1  0  0  0
  4  5  1  0  0  0
  4 89  1  0  0  0
  4 90  1  0  0  0
  5  6  1  0  0  0
  5 26  1  0  0  0
  5 91  1  0  0  0
  6 25  1  0  0  0
  6 92  1  0  0  0
  6 93  1  0  0  0
  7  8  2  0  0  0
  7 26  1  0  0  0
  7 29  1  0  0  0
  8  9  1  0  0  0
  8 22  1  0  0  0
  9 10  1  0  0  0
  9 27  2  0  0  0
 10 11  2  0  0  0
 10 15  1  0  0  0
 11 12  1  0  0  0
 11 94  1  0  0  0
 12 13  2  0  0  0
 12 95  1  0  0  0
 13 14  1  0  0  0
 13 31  1  0  0  0
 14 15  2  0  0  0
 14 96  1  0  0  0
 15 97  1  0  0  0
 16 17  2  0  0  0
 16 21  1  0  0  0
 16 31  1  0  0  0
 17 18  1  0  0  0
 17 98  1  0  0  0
 18 19  2  0  0  0
 18 99  1  0  0  0
 19 20  1  0  0  0
 19 24  1  0  0  0
 20 21  2  0  0  0
 20100  1  0  0  0
 21 23  1  0  0  0
 22 28  1  0  0  0
 22 32  2  0  0  0
 26 27  1  0  0  0
 28101  1  0  0  0
 28102  1  0  0  0
 29103  1  0  0  0
 29104  1  0  0  0
 33 34  1  0  0  0
 33 66  1  0  0  0
 33 70  2  0  0  0
 34 36  1  0  0  0
 34 59  1  0  0  0
 34105  1  0  0  0
 35 44  2  0  0  0
 35 45  1  0  0  0
 35 68  1  0  0  0
 36 56  1  0  0  0
 36106  1  0  0  0
 37 39  1  0  0  0
 37 47  1  0  0  0
 37 66  1  0  0  0
 37107  1  0  0  0
 38 43  2  0  0  0
 38 46  1  0  0  0
 38 47  1  0  0  0
 39 64  1  0  0  0
 39 67  2  0  0  0
 40 52  1  0  0  0
 40 53  2  0  0  0
 40 58  1  0  0  0
 41108  1  0  0  0
 41109  1  0  0  0
 41110  1  0  0  0
 41 48  1  0  0  0
 42 43  1  0  0  0
 42 66  1  0  0  0
 42111  1  0  0  0
 42112  1  0  0  0
 43 44  1  0  0  0
 44113  1  0  0  0
 45 46  2  0  0  0
 45114  1  0  0  0
 46115  1  0  0  0
 47116  1  0  0  0
 47117  1  0  0  0
 48 56  1  0  0  0
 48 65  1  0  0  0
 48118  1  0  0  0
 49 50  1  0  0  0
 49 53  1  0  0  0
 49 64  1  0  0  0
 49119  1  0  0  0
 50 51  1  0  0  0
 50120  1  0  0  0
 50121  1  0  0  0
 51 52  1  0  0  0
 51122  1  0  0  0
 51123  1  0  0  0
 52124  1  0  0  0
 52125  1  0  0  0
 53 54  1  0  0  0
 54 55  2  0  0  0
 54126  1  0  0  0
 55 57  1  0  0  0
 55127  1  0  0  0
 56 69  2  0  0  0
 57 58  2  0  0  0
 57128  1  0  0  0
 58129  1  0  0  0
 59 60  1  0  0  0
 59 61  1  0  0  0
 59 62  1  0  0  0
 60130  1  0  0  0
 60131  1  0  0  0
 60132  1  0  0  0
 61133  1  0  0  0
 61134  1  0  0  0
 61135  1  0  0  0
 62136  1  0  0  0
 62137  1  0  0  0
 62138  1  0  0  0
 63 65  1  0  0  0
 63139  1  0  0  0
 63140  1  0  0  0
 63141  1  0  0  0
 64142  1  0  0  0
 65143  1  0  0  0
 68 80  1  0  0  0
 71 74  2  0  0  0
 71 76  1  0  0  0
 71144  1  0  0  0
 72 75  1  0  0  0
 72 76  2  0  0  0
 72145  1  0  0  0
 73 74  1  0  0  0
 73 75  2  0  0  0
 73 78  1  0  0  0
 74 82  1  0  0  0
 75 83  1  0  0  0
 76 84  1  0  0  0
 77 78  1  0  0  0
 77146  1  0  0  0
 77147  1  0  0  0
 77148  1  0  0  0
 78149  1  0  0  0
 78150  1  0  0  0
 79 80  1  0  0  0
 79 81  1  0  0  0
 79151  1  0  0  0
 79152  1  0  0  0
 80153  1  0  0  0
 80154  1  0  0  0
 81 83  1  0  0  0
 81155  1  0  0  0
 81156  1  0  0  0
 82157  1  0  0  0
M  ISO  4   1 100  68 101  80 101  82 100
M  END
> <chiral flag>
0

> <version>
0

> <s_m_source_file>
/data/baiqing/PycharmProjects/Reinvent-master-3.2/result/LINK_invent/BTK/process_docking_weight1_custom_product_contain_oxygen_bond_distance_aromatic_linkinvent_7_9_3/rearranged_h_0127.sdf

> <i_m_source_file_index>
73

> <r_mmod_Potential_Energy-OPLS-2005>
199.103775024414

> <r_mmod_Stretch_Energy-OPLS-2005>
126.774291992188

> <r_mmod_Bend_Energy-OPLS-2005>
165.097915649414

> <r_mmod_Torsional_Energy-OPLS-2005>
244.270767211914

> <r_mmod_Improper_Torsional_Energy-OPLS-2005>
5.13892984390259

> <r_mmod_Van_der_Waal_Energy-OPLS-2005>
140.026016235352

> <r_mmod_Electrostatic_Energy-OPLS-2005>
-352.699615478516

> <r_mmod_Solvation_Energy-OPLS-2005>
-209.906753540039

> <b_mmod_Minimization_Converged-OPLS-2005>
0

> <r_mmod_RMS_Derivative-OPLS-2005>
1.85939574241638

$$$$
73
                    3D
 Structure written by MMmdl.
156164  0  0  1  0            999 V2000
  -30.5566  -14.7809   20.5622 C   0  0  0  0  0  0
  -30.4630  -12.4996   19.5248 C   0  0  0  0  0  0
  -29.5450  -12.5302   18.2808 C   0  0  0  0  0  0
  -28.0662  -12.3429   18.6681 C   0  0  0  0  0  0
  -27.6521  -13.2315   19.8739 C   0  0  2  0  0  0
  -28.6755  -13.1289   21.0293 C   0  0  0  0  0  0
  -25.2521  -13.8212   20.5651 C   0  0  0  0  0  0
  -24.1800  -13.0434   20.9139 C   0  0  0  0  0  0
  -24.6402  -11.6927   20.8688 C   0  0  0  0  0  0
  -23.9090  -10.4293   21.0423 C   0  0  0  0  0  0
  -24.3646   -9.4200   21.9193 C   0  0  0  0  0  0
  -23.6300   -8.2231   22.0761 C   0  0  0  0  0  0
  -22.4272   -8.0300   21.3566 C   0  0  0  0  0  0
  -21.9940   -9.0267   20.4642 C   0  0  0  0  0  0
  -22.7272  -10.2127   20.3052 C   0  0  0  0  0  0
  -21.6855   -6.0741   22.5277 C   0  0  0  0  0  0
  -21.4016   -6.5650   23.8218 C   0  0  0  0  0  0
  -21.3651   -5.6794   24.9178 C   0  0  0  0  0  0
  -21.6048   -4.3056   24.7219 C   0  0  0  0  0  0
  -21.8819   -3.8148   23.4347 C   0  0  0  0  0  0
  -21.9192   -4.6964   22.3402 C   0  0  0  0  0  0
  -22.7822  -13.5230   21.1831 C   0  0  0  0  0  0
  -22.1646   -4.2164   21.0970 F   0  0  0  0  0  0
  -21.5631   -3.4521   25.7735 F   0  0  0  0  0  0
  -29.9845  -13.5249   20.4938 N   0  0  0  0  0  0
  -26.2961  -12.9395   20.3276 N   0  0  0  0  0  0
  -25.9337  -11.6535   20.5713 N   0  0  0  0  0  0
  -22.0477  -12.8185   22.0386 N   0  0  0  0  0  0
  -25.4210  -15.1908   20.4047 N   0  0  0  0  0  0
  -31.6941  -14.9390   20.1071 O   0  0  0  0  0  0
  -21.6632   -6.8905   21.4257 O   0  0  0  0  0  0
  -22.3494  -14.5572   20.6728 O   0  0  0  0  0  0
  -24.6299  -31.8550   23.1870 C   0  0  0  0  0  0
  -25.9129  -32.4737   23.8209 C   0  0  1  0  0  0
  -27.2186  -27.2742   20.1352 C   0  0  0  0  0  0
  -25.5955  -33.8525   24.2169 N   0  0  0  0  0  0
  -23.4273  -30.4844   21.5249 C   0  0  2  0  0  0
  -24.8690  -28.9192   20.1054 C   0  0  0  0  0  0
  -22.7495  -29.4630   22.4715 C   0  0  0  0  0  0
  -18.0349  -28.1432   22.8403 C   0  0  0  0  0  0
  -24.1572  -36.7286   23.2659 C   0  0  0  0  0  0
  -25.9742  -30.7751   21.3607 C   0  0  0  0  0  0
  -26.0407  -29.3975   20.7091 C   0  0  0  0  0  0
  -27.2193  -28.5914   20.7018 C   0  0  0  0  0  0
  -26.0236  -26.8512   19.5178 C   0  0  0  0  0  0
  -24.8702  -27.6541   19.4916 C   0  0  0  0  0  0
  -23.6446  -29.8084   20.1416 C   0  0  0  0  0  0
  -25.4134  -36.2998   24.0329 C   0  0  1  0  0  0
  -20.5951  -28.3762   23.1211 C   0  0  2  0  0  0
  -20.6921  -26.9463   22.5366 C   0  0  0  0  0  0
  -19.5921  -26.6368   21.5211 C   0  0  0  0  0  0
  -18.2042  -26.7981   22.1564 C   0  0  0  0  0  0
  -19.1597  -28.8887   23.2862 C   0  0  0  0  0  0
  -18.9522  -30.1488   23.8895 C   0  0  0  0  0  0
  -17.6545  -30.6602   24.0577 C   0  0  0  0  0  0
  -25.9081  -34.9416   23.5020 C   0  0  0  0  0  0
  -16.5412  -29.9123   23.6352 C   0  0  0  0  0  0
  -16.7348  -28.6574   23.0277 C   0  0  0  0  0  0
  -26.4481  -31.6589   25.0626 C   0  0  0  0  0  0
  -25.3661  -31.3793   26.1331 C   0  0  0  0  0  0
  -27.0328  -30.2985   24.6076 C   0  0  0  0  0  0
  -27.6027  -32.4319   25.7396 C   0  0  0  0  0  0
  -27.5589  -37.1760   24.8429 C   0  0  0  0  0  0
  -21.4196  -29.3112   22.3544 N   0  0  0  0  0  0
  -26.4299  -37.3696   23.9402 N   0  0  0  0  0  0
  -24.6961  -31.0544   22.0826 N   0  0  0  0  0  0
  -23.4220  -28.8149   23.2781 O   0  0  0  0  0  0
  -28.3351  -26.4242   20.1248 O   0  0  0  0  0  0
  -26.5575  -34.8900   22.4563 O   0  0  0  0  0  0
  -23.5442  -32.1340   23.7173 O   0  0  0  0  0  0
  -29.3626  -19.0827   18.9204 C   0  0  0  0  0  0
  -29.0142  -19.5132   20.1800 C   0  0  0  0  0  0
  -29.2276  -18.4025   21.1539 C   0  0  0  0  0  0
  -29.6381  -17.1583   20.5782 C   0  0  0  0  0  0
  -27.6146  -18.7548   23.2173 C   0  0  0  0  0  0
  -28.3430  -20.9497   20.3548 C   0  0  0  0  0  0
  -29.0614  -18.6639   22.6542 C   0  0  0  0  0  0
  -29.1374  -22.3644   20.3122 C   0  0  0  0  0  0
  -28.3747  -23.7165   19.7998 C   0  0  0  0  0  0
  -28.2499  -25.0462   20.7004 C   0  0  0  0  0  0
  -29.8214  -15.8522   21.0865 N   0  0  0  0  0  0
  -29.8513  -17.4105   18.8567 S   0  0  0  0  0  0
  -31.4943  -12.6808   19.2179 H   0  0  0  0  0  0
  -30.4623  -11.5126   19.9889 H   0  0  0  0  0  0
  -29.8462  -11.7465   17.5826 H   0  0  0  0  0  0
  -29.6763  -13.4789   17.7543 H   0  0  0  0  0  0
  -27.9277  -11.2869   18.9199 H   0  0  0  0  0  0
  -27.4266  -12.5357   17.8107 H   0  0  0  0  0  0
  -27.6632  -14.2608   19.5193 H   0  0  0  0  0  0
  -28.7119  -12.1103   21.4163 H   0  0  0  0  0  0
  -28.3745  -13.7594   21.8661 H   0  0  0  0  0  0
  -25.2810   -9.5640   22.4750 H   0  0  0  0  0  0
  -23.9989   -7.4633   22.7475 H   0  0  0  0  0  0
  -21.0874   -8.8788   19.8950 H   0  0  0  0  0  0
  -22.3771  -10.9661   19.6125 H   0  0  0  0  0  0
  -21.2006   -7.6153   23.9737 H   0  0  0  0  0  0
  -21.1475   -6.0508   25.9079 H   0  0  0  0  0  0
  -22.0613   -2.7613   23.2828 H   0  0  0  0  0  0
  -22.4065  -11.9838   22.4774 H   0  0  0  0  0  0
  -21.1100  -13.1223   22.2624 H   0  0  0  0  0  0
  -24.6631  -15.8539   20.5335 H   0  0  0  0  0  0
  -26.2744  -15.6298   20.0841 H   0  0  0  0  0  0
  -26.7178  -32.5329   23.0935 H   0  0  0  0  0  0
  -25.0283  -33.9737   25.0406 H   0  0  0  0  0  0
  -22.7311  -31.3111   21.3619 H   0  0  0  0  0  0
  -23.3813  -35.9639   23.3206 H   0  0  0  0  0  0
  -24.3711  -36.8945   22.2081 H   0  0  0  0  0  0
  -23.7366  -37.6493   23.6715 H   0  0  0  0  0  0
  -26.1136  -31.5346   20.5902 H   0  0  0  0  0  0
  -26.8580  -30.8175   21.9874 H   0  0  0  0  0  0
  -28.1285  -28.9534   21.1585 H   0  0  0  0  0  0
  -25.9900  -25.8757   19.0463 H   0  0  0  0  0  0
  -23.9721  -27.2815   19.0196 H   0  0  0  0  0  0
  -23.7744  -30.5865   19.3882 H   0  0  0  0  0  0
  -22.7659  -29.2379   19.8341 H   0  0  0  0  0  0
  -25.1329  -36.1840   25.0838 H   0  0  0  0  0  0
  -21.0145  -28.3420   24.1313 H   0  0  0  0  0  0
  -20.5971  -26.2365   23.3572 H   0  0  0  0  0  0
  -21.6755  -26.7588   22.1053 H   0  0  0  0  0  0
  -19.7145  -25.6278   21.1303 H   0  0  0  0  0  0
  -19.6924  -27.3142   20.6705 H   0  0  0  0  0  0
  -17.4338  -26.6732   21.3943 H   0  0  0  0  0  0
  -18.0432  -26.0163   22.8979 H   0  0  0  0  0  0
  -19.8032  -30.7305   24.2247 H   0  0  0  0  0  0
  -17.5117  -31.6309   24.5147 H   0  0  0  0  0  0
  -15.5454  -30.3016   23.7721 H   0  0  0  0  0  0
  -15.8764  -28.0964   22.6889 H   0  0  0  0  0  0
  -24.5897  -30.7110   25.7577 H   0  0  0  0  0  0
  -24.8860  -32.3046   26.4551 H   0  0  0  0  0  0
  -25.7955  -30.9084   27.0187 H   0  0  0  0  0  0
  -26.2916  -29.6710   24.1140 H   0  0  0  0  0  0
  -27.4113  -29.7235   25.4546 H   0  0  0  0  0  0
  -27.8720  -30.4250   23.9221 H   0  0  0  0  0  0
  -27.2654  -33.3636   26.1880 H   0  0  0  0  0  0
  -28.3880  -32.6794   25.0262 H   0  0  0  0  0  0
  -28.0646  -31.8520   26.5369 H   0  0  0  0  0  0
  -28.2439  -38.0201   24.7470 H   0  0  0  0  0  0
  -28.1264  -36.2712   24.6240 H   0  0  0  0  0  0
  -27.2356  -37.1297   25.8847 H   0  0  0  0  0  0
  -20.9348  -29.8729   21.6657 H   0  0  0  0  0  0
  -26.0189  -38.2742   24.1422 H   0  0  0  0  0  0
  -29.3154  -19.6330   17.9842 H   0  0  0  0  0  0
  -27.6236  -19.2327   24.2037 H   0  0  0  0  0  0
  -27.1382  -17.7833   23.3513 H   0  0  0  0  0  0
  -26.9595  -19.3587   22.5911 H   0  0  0  0  0  0
  -27.7139  -20.9401   21.2435 H   0  0  0  0  0  0
  -27.6168  -21.0441   19.5470 H   0  0  0  0  0  0
  -29.5376  -19.6234   22.8742 H   0  0  0  0  0  0
  -29.6404  -17.9569   23.2558 H   0  0  0  0  0  0
  -29.9775  -22.2277   19.6249 H   0  0  0  0  0  0
  -29.6141  -22.5531   21.2811 H   0  0  0  0  0  0
  -27.3782  -23.4480   19.4449 H   0  0  0  0  0  0
  -28.8832  -24.0470   18.8922 H   0  0  0  0  0  0
  -29.0746  -25.0092   21.4159 H   0  0  0  0  0  0
  -27.3524  -24.9765   21.3228 H   0  0  0  0  0  0
  -29.1514  -15.5796   21.7910 H   0  0  0  0  0  0
  1 25  1  0  0  0
  1 30  2  0  0  0
  1 81  1  0  0  0
  2  3  1  0  0  0
  2 25  1  0  0  0
  2 83  1  0  0  0
  2 84  1  0  0  0
  3  4  1  0  0  0
  3 85  1  0  0  0
  3 86  1  0  0  0
  4  5  1  0  0  0
  4 87  1  0  0  0
  4 88  1  0  0  0
  5  6  1  0  0  0
  5 26  1  0  0  0
  5 89  1  0  0  0
  6 25  1  0  0  0
  6 90  1  0  0  0
  6 91  1  0  0  0
  7  8  2  0  0  0
  7 26  1  0  0  0
  7 29  1  0  0  0
  8  9  1  0  0  0
  8 22  1  0  0  0
  9 10  1  0  0  0
  9 27  2  0  0  0
 10 11  2  0  0  0
 10 15  1  0  0  0
 11 12  1  0  0  0
 11 92  1  0  0  0
 12 13  2  0  0  0
 12 93  1  0  0  0
 13 14  1  0  0  0
 13 31  1  0  0  0
 14 15  2  0  0  0
 14 94  1  0  0  0
 15 95  1  0  0  0
 16 17  2  0  0  0
 16 21  1  0  0  0
 16 31  1  0  0  0
 17 18  1  0  0  0
 17 96  1  0  0  0
 18 19  2  0  0  0
 18 97  1  0  0  0
 19 20  1  0  0  0
 19 24  1  0  0  0
 20 21  2  0  0  0
 20 98  1  0  0  0
 21 23  1  0  0  0
 22 28  1  0  0  0
 22 32  2  0  0  0
 26 27  1  0  0  0
 28 99  1  0  0  0
 28100  1  0  0  0
 29101  1  0  0  0
 29102  1  0  0  0
 33 34  1  0  0  0
 33 66  1  0  0  0
 33 70  2  0  0  0
 34 36  1  0  0  0
 34 59  1  0  0  0
 34103  1  0  0  0
 35 44  2  0  0  0
 35 45  1  0  0  0
 35 68  1  0  0  0
 36 56  1  0  0  0
 36104  1  0  0  0
 37 39  1  0  0  0
 37 47  1  0  0  0
 37 66  1  0  0  0
 37105  1  0  0  0
 38 43  2  0  0  0
 38 46  1  0  0  0
 38 47  1  0  0  0
 39 64  1  0  0  0
 39 67  2  0  0  0
 40 52  1  0  0  0
 40 53  2  0  0  0
 40 58  1  0  0  0
 41106  1  0  0  0
 41107  1  0  0  0
 41108  1  0  0  0
 41 48  1  0  0  0
 42 43  1  0  0  0
 42 66  1  0  0  0
 42109  1  0  0  0
 42110  1  0  0  0
 43 44  1  0  0  0
 44111  1  0  0  0
 45 46  2  0  0  0
 45112  1  0  0  0
 46113  1  0  0  0
 47114  1  0  0  0
 47115  1  0  0  0
 48 56  1  0  0  0
 48 65  1  0  0  0
 48116  1  0  0  0
 49 50  1  0  0  0
 49 53  1  0  0  0
 49 64  1  0  0  0
 49117  1  0  0  0
 50 51  1  0  0  0
 50118  1  0  0  0
 50119  1  0  0  0
 51 52  1  0  0  0
 51120  1  0  0  0
 51121  1  0  0  0
 52122  1  0  0  0
 52123  1  0  0  0
 53 54  1  0  0  0
 54 55  2  0  0  0
 54124  1  0  0  0
 55 57  1  0  0  0
 55125  1  0  0  0
 56 69  2  0  0  0
 57 58  2  0  0  0
 57126  1  0  0  0
 58127  1  0  0  0
 59 60  1  0  0  0
 59 61  1  0  0  0
 59 62  1  0  0  0
 60128  1  0  0  0
 60129  1  0  0  0
 60130  1  0  0  0
 61131  1  0  0  0
 61132  1  0  0  0
 61133  1  0  0  0
 62134  1  0  0  0
 62135  1  0  0  0
 62136  1  0  0  0
 63 65  1  0  0  0
 63137  1  0  0  0
 63138  1  0  0  0
 63139  1  0  0  0
 64140  1  0  0  0
 65141  1  0  0  0
 68 80  1  0  0  0
 71 72  2  0  0  0
 71 82  1  0  0  0
 71142  1  0  0  0
 72 73  1  0  0  0
 72 76  1  0  0  0
 73 74  2  0  0  0
 73 77  1  0  0  0
 74 81  1  0  0  0
 74 82  1  0  0  0
 75 77  1  0  0  0
 75143  1  0  0  0
 75144  1  0  0  0
 75145  1  0  0  0
 76 78  1  0  0  0
 76146  1  0  0  0
 76147  1  0  0  0
 77148  1  0  0  0
 77149  1  0  0  0
 78 79  1  0  0  0
 78150  1  0  0  0
 78151  1  0  0  0
 79 80  1  0  0  0
 79152  1  0  0  0
 79153  1  0  0  0
 80154  1  0  0  0
 80155  1  0  0  0
 81156  1  0  0  0
M  ISO  4   1 100  68 101  80 101  81 100
M  END
> <chiral flag>
0

> <version>
0

> <s_m_source_file>
/data/baiqing/PycharmProjects/Reinvent-master-3.2/result/LINK_invent/BTK/process_docking_weight1_custom_product_contain_oxygen_bond_distance_aromatic_linkinvent_7_9_3/rearranged_h_0127.sdf

> <i_m_source_file_index>
74

> <r_mmod_Potential_Energy-OPLS-2005>
191.873168945312

> <r_mmod_Stretch_Energy-OPLS-2005>
131.627578735352

> <r_mmod_Bend_Energy-OPLS-2005>
185.543029785156

> <r_mmod_Torsional_Energy-OPLS-2005>
270.196380615234

> <r_mmod_Improper_Torsional_Energy-OPLS-2005>
3.69860219955444

> <r_mmod_Van_der_Waal_Energy-OPLS-2005>
107.136123657227

> <r_mmod_Electrostatic_Energy-OPLS-2005>
-389.244537353516

> <r_mmod_Solvation_Energy-OPLS-2005>
-205.743301391602

> <b_mmod_Minimization_Converged-OPLS-2005>
0

> <r_mmod_RMS_Derivative-OPLS-2005>
10.4121084213257

$$$$
74
                    3D
 Structure written by MMmdl.
149157  0  0  1  0            999 V2000
  -30.6513  -14.5672   20.6058 C   0  0  0  0  0  0
  -30.4256  -12.3886   19.4193 C   0  0  0  0  0  0
  -29.5094  -12.6055   18.1959 C   0  0  0  0  0  0
  -28.0202  -12.4494   18.5737 C   0  0  0  0  0  0
  -27.6452  -13.2324   19.8619 C   0  0  2  0  0  0
  -28.6891  -13.0077   20.9815 C   0  0  0  0  0  0
  -25.2411  -13.8162   20.5568 C   0  0  0  0  0  0
  -24.1756  -13.0356   20.9186 C   0  0  0  0  0  0
  -24.6377  -11.6872   20.8653 C   0  0  0  0  0  0
  -23.9064  -10.4243   21.0309 C   0  0  0  0  0  0
  -24.3607   -9.4189   21.9133 C   0  0  0  0  0  0
  -23.6288   -8.2240   22.0759 C   0  0  0  0  0  0
  -22.4272   -8.0232   21.3545 C   0  0  0  0  0  0
  -21.9870   -9.0187   20.4660 C   0  0  0  0  0  0
  -22.7211  -10.2068   20.3001 C   0  0  0  0  0  0
  -21.6844   -6.0689   22.5271 C   0  0  0  0  0  0
  -21.4024   -6.5633   23.8197 C   0  0  0  0  0  0
  -21.3670   -5.6795   24.9184 C   0  0  0  0  0  0
  -21.6047   -4.3053   24.7227 C   0  0  0  0  0  0
  -21.8794   -3.8112   23.4381 C   0  0  0  0  0  0
  -21.9180   -4.6923   22.3412 C   0  0  0  0  0  0
  -22.7765  -13.5094   21.1884 C   0  0  0  0  0  0
  -22.1623   -4.2096   21.0985 F   0  0  0  0  0  0
  -21.5656   -3.4547   25.7766 F   0  0  0  0  0  0
  -30.0141  -13.3623   20.4518 N   0  0  0  0  0  0
  -26.2904  -12.9401   20.3183 N   0  0  0  0  0  0
  -25.9290  -11.6530   20.5563 N   0  0  0  0  0  0
  -22.0388  -12.8114   22.0502 N   0  0  0  0  0  0
  -25.3966  -15.1885   20.3799 N   0  0  0  0  0  0
  -31.8081  -14.7224   20.1943 O   0  0  0  0  0  0
  -21.6629   -6.8839   21.4236 O   0  0  0  0  0  0
  -22.3343  -14.5335   20.6674 O   0  0  0  0  0  0
  -24.6214  -31.8580   23.2098 C   0  0  0  0  0  0
  -25.9100  -32.4766   23.8344 C   0  0  1  0  0  0
  -27.2315  -27.3539   20.0754 C   0  0  0  0  0  0
  -25.5930  -33.8580   24.2231 N   0  0  0  0  0  0
  -23.4078  -30.4812   21.5598 C   0  0  2  0  0  0
  -24.8499  -28.9409   20.1071 C   0  0  0  0  0  0
  -22.7395  -29.4582   22.5050 C   0  0  0  0  0  0
  -18.0260  -28.1372   22.8523 C   0  0  0  0  0  0
  -24.1472  -36.7233   23.2640 C   0  0  0  0  0  0
  -25.9494  -30.7873   21.3861 C   0  0  0  0  0  0
  -26.0183  -29.4241   20.7124 C   0  0  0  0  0  0
  -27.2056  -28.6388   20.6918 C   0  0  0  0  0  0
  -26.0363  -26.9140   19.4533 C   0  0  0  0  0  0
  -24.8610  -27.6899   19.4707 C   0  0  0  0  0  0
  -23.6124  -29.8168   20.1693 C   0  0  0  0  0  0
  -25.4119  -36.3067   24.0297 C   0  0  1  0  0  0
  -20.5867  -28.3653   23.1361 C   0  0  2  0  0  0
  -20.6766  -26.9404   22.5454 C   0  0  0  0  0  0
  -19.5735  -26.6382   21.5259 C   0  0  0  0  0  0
  -18.1917  -26.7938   22.1649 C   0  0  0  0  0  0
  -19.1515  -28.8842   23.2940 C   0  0  0  0  0  0
  -18.9437  -30.1473   23.8909 C   0  0  0  0  0  0
  -17.6438  -30.6586   24.0579 C   0  0  0  0  0  0
  -25.9066  -34.9441   23.5077 C   0  0  0  0  0  0
  -16.5330  -29.9093   23.6377 C   0  0  0  0  0  0
  -16.7248  -28.6514   23.0377 C   0  0  0  0  0  0
  -26.4499  -31.6622   25.0725 C   0  0  0  0  0  0
  -25.3690  -31.3827   26.1414 C   0  0  0  0  0  0
  -27.0313  -30.3016   24.6246 C   0  0  0  0  0  0
  -27.6054  -32.4370   25.7491 C   0  0  0  0  0  0
  -27.5560  -37.1773   24.8460 C   0  0  0  0  0  0
  -21.4128  -29.2969   22.3745 N   0  0  0  0  0  0
  -26.4282  -37.3764   23.9420 N   0  0  0  0  0  0
  -24.6785  -31.0545   22.1084 N   0  0  0  0  0  0
  -23.4122  -28.8168   23.3148 O   0  0  0  0  0  0
  -28.3888  -26.5627   20.1061 O   0  0  0  0  0  0
  -26.5654  -34.8943   22.4636 O   0  0  0  0  0  0
  -23.5377  -32.1449   23.7423 O   0  0  0  0  0  0
  -28.1765  -19.9015   21.9977 C   0  0  0  0  0  0
  -28.3683  -18.4895   22.1118 C   0  0  0  0  0  0
  -29.2898  -20.4149   21.3825 C   0  0  0  0  0  0
  -29.6123  -18.1932   21.6149 C   0  0  0  0  0  0
  -29.6345  -21.7417   20.8905 C   0  0  0  0  0  0
  -30.3189  -16.9538   21.3242 C   0  0  0  0  0  0
  -28.8589  -22.8596   20.7766 C   0  0  0  0  0  0
  -29.8174  -15.7136   21.0450 C   0  0  0  0  0  0
  -29.3434  -24.1919   20.2731 C   0  0  0  0  0  0
  -28.3204  -25.1766   19.6283 C   0  0  0  0  0  0
  -30.5391  -24.5052   20.3008 O   0  0  0  0  0  0
  -30.1767  -19.3776   21.1710 O   0  0  0  0  0  0
  -31.4709  -12.5008   19.1278 H   0  0  0  0  0  0
  -30.3242  -11.3666   19.7815 H   0  0  0  0  0  0
  -29.7812  -11.9299   17.3841 H   0  0  0  0  0  0
  -29.6739  -13.6134   17.8042 H   0  0  0  0  0  0
  -27.8036  -11.3887   18.6862 H   0  0  0  0  0  0
  -27.3965  -12.7956   17.7446 H   0  0  0  0  0  0
  -27.6721  -14.2861   19.5847 H   0  0  0  0  0  0
  -28.6831  -11.9633   21.3005 H   0  0  0  0  0  0
  -28.4403  -13.5843   21.8730 H   0  0  0  0  0  0
  -25.2762   -9.5667   22.4690 H   0  0  0  0  0  0
  -23.9981   -7.4617   22.7503 H   0  0  0  0  0  0
  -21.0784   -8.8672   19.9008 H   0  0  0  0  0  0
  -22.3646  -10.9540   19.6070 H   0  0  0  0  0  0
  -21.2040   -7.6140   23.9693 H   0  0  0  0  0  0
  -21.1527   -6.0539   25.9075 H   0  0  0  0  0  0
  -22.0584   -2.7574   23.2869 H   0  0  0  0  0  0
  -22.3897  -11.9781   22.5025 H   0  0  0  0  0  0
  -21.0973  -13.1132   22.2628 H   0  0  0  0  0  0
  -24.6085  -15.8281   20.4115 H   0  0  0  0  0  0
  -26.2341  -15.6266   20.0093 H   0  0  0  0  0  0
  -26.7139  -32.5395   23.1038 H   0  0  0  0  0  0
  -25.0015  -33.9749   25.0342 H   0  0  0  0  0  0
  -22.7016  -31.3044   21.4305 H   0  0  0  0  0  0
  -23.3743  -35.9563   23.3388 H   0  0  0  0  0  0
  -24.3527  -36.8766   22.2037 H   0  0  0  0  0  0
  -23.7241  -37.6456   23.6622 H   0  0  0  0  0  0
  -26.0856  -31.5631   20.6330 H   0  0  0  0  0  0
  -26.8272  -30.8111   22.0214 H   0  0  0  0  0  0
  -28.1069  -29.0063   21.1625 H   0  0  0  0  0  0
  -25.9670  -25.9707   18.9327 H   0  0  0  0  0  0
  -23.9717  -27.3112   18.9831 H   0  0  0  0  0  0
  -23.7179  -30.6056   19.4233 H   0  0  0  0  0  0
  -22.7313  -29.2456   19.8713 H   0  0  0  0  0  0
  -25.1334  -36.1870   25.0786 H   0  0  0  0  0  0
  -20.9947  -28.3224   24.1493 H   0  0  0  0  0  0
  -20.5767  -26.2240   23.3631 H   0  0  0  0  0  0
  -21.6617  -26.7516   22.1182 H   0  0  0  0  0  0
  -19.6910  -25.6315   21.1254 H   0  0  0  0  0  0
  -19.6685  -27.3235   20.6838 H   0  0  0  0  0  0
  -17.4212  -26.6726   21.4026 H   0  0  0  0  0  0
  -18.0282  -26.0081   22.9030 H   0  0  0  0  0  0
  -19.7935  -30.7313   24.2205 H   0  0  0  0  0  0
  -17.5011  -31.6286   24.5164 H   0  0  0  0  0  0
  -15.5349  -30.2961   23.7750 H   0  0  0  0  0  0
  -15.8646  -28.0843   22.7049 H   0  0  0  0  0  0
  -24.5844  -30.7219   25.7707 H   0  0  0  0  0  0
  -24.8901  -32.3028   26.4763 H   0  0  0  0  0  0
  -25.7912  -30.9006   27.0225 H   0  0  0  0  0  0
  -26.2882  -29.6789   24.1241 H   0  0  0  0  0  0
  -27.3920  -29.7271   25.4782 H   0  0  0  0  0  0
  -27.8813  -30.4248   23.9533 H   0  0  0  0  0  0
  -27.2665  -33.3687   26.2018 H   0  0  0  0  0  0
  -28.3880  -32.6882   25.0330 H   0  0  0  0  0  0
  -28.0701  -31.8530   26.5436 H   0  0  0  0  0  0
  -28.2607  -38.0043   24.7519 H   0  0  0  0  0  0
  -28.1033  -36.2591   24.6281 H   0  0  0  0  0  0
  -27.2293  -37.1387   25.8862 H   0  0  0  0  0  0
  -20.9297  -29.8577   21.6861 H   0  0  0  0  0  0
  -26.0140  -38.2823   24.1449 H   0  0  0  0  0  0
  -27.3047  -20.4708   22.2997 H   0  0  0  0  0  0
  -27.6595  -17.7757   22.5048 H   0  0  0  0  0  0
  -30.6663  -21.8243   20.5806 H   0  0  0  0  0  0
  -31.3955  -17.0602   21.3326 H   0  0  0  0  0  0
  -27.8158  -22.8173   21.0605 H   0  0  0  0  0  0
  -28.7444  -15.6086   21.0814 H   0  0  0  0  0  0
  -27.3384  -24.7332   19.7671 H   0  0  0  0  0  0
  -28.5323  -25.1585   18.5585 H   0  0  0  0  0  0
  1 25  1  0  0  0
  1 30  2  0  0  0
  1 78  1  0  0  0
  2  3  1  0  0  0
  2 25  1  0  0  0
  2 83  1  0  0  0
  2 84  1  0  0  0
  3  4  1  0  0  0
  3 85  1  0  0  0
  3 86  1  0  0  0
  4  5  1  0  0  0
  4 87  1  0  0  0
  4 88  1  0  0  0
  5  6  1  0  0  0
  5 26  1  0  0  0
  5 89  1  0  0  0
  6 25  1  0  0  0
  6 90  1  0  0  0
  6 91  1  0  0  0
  7  8  2  0  0  0
  7 26  1  0  0  0
  7 29  1  0  0  0
  8  9  1  0  0  0
  8 22  1  0  0  0
  9 10  1  0  0  0
  9 27  2  0  0  0
 10 11  2  0  0  0
 10 15  1  0  0  0
 11 12  1  0  0  0
 11 92  1  0  0  0
 12 13  2  0  0  0
 12 93  1  0  0  0
 13 14  1  0  0  0
 13 31  1  0  0  0
 14 15  2  0  0  0
 14 94  1  0  0  0
 15 95  1  0  0  0
 16 17  2  0  0  0
 16 21  1  0  0  0
 16 31  1  0  0  0
 17 18  1  0  0  0
 17 96  1  0  0  0
 18 19  2  0  0  0
 18 97  1  0  0  0
 19 20  1  0  0  0
 19 24  1  0  0  0
 20 21  2  0  0  0
 20 98  1  0  0  0
 21 23  1  0  0  0
 22 28  1  0  0  0
 22 32  2  0  0  0
 26 27  1  0  0  0
 28 99  1  0  0  0
 28100  1  0  0  0
 29101  1  0  0  0
 29102  1  0  0  0
 33 34  1  0  0  0
 33 66  1  0  0  0
 33 70  2  0  0  0
 34 36  1  0  0  0
 34 59  1  0  0  0
 34103  1  0  0  0
 35 44  2  0  0  0
 35 45  1  0  0  0
 35 68  1  0  0  0
 36 56  1  0  0  0
 36104  1  0  0  0
 37 39  1  0  0  0
 37 47  1  0  0  0
 37 66  1  0  0  0
 37105  1  0  0  0
 38 43  2  0  0  0
 38 46  1  0  0  0
 38 47  1  0  0  0
 39 64  1  0  0  0
 39 67  2  0  0  0
 40 52  1  0  0  0
 40 53  2  0  0  0
 40 58  1  0  0  0
 41106  1  0  0  0
 41107  1  0  0  0
 41108  1  0  0  0
 41 48  1  0  0  0
 42 43  1  0  0  0
 42 66  1  0  0  0
 42109  1  0  0  0
 42110  1  0  0  0
 43 44  1  0  0  0
 44111  1  0  0  0
 45 46  2  0  0  0
 45112  1  0  0  0
 46113  1  0  0  0
 47114  1  0  0  0
 47115  1  0  0  0
 48 56  1  0  0  0
 48 65  1  0  0  0
 48116  1  0  0  0
 49 50  1  0  0  0
 49 53  1  0  0  0
 49 64  1  0  0  0
 49117  1  0  0  0
 50 51  1  0  0  0
 50118  1  0  0  0
 50119  1  0  0  0
 51 52  1  0  0  0
 51120  1  0  0  0
 51121  1  0  0  0
 52122  1  0  0  0
 52123  1  0  0  0
 53 54  1  0  0  0
 54 55  2  0  0  0
 54124  1  0  0  0
 55 57  1  0  0  0
 55125  1  0  0  0
 56 69  2  0  0  0
 57 58  2  0  0  0
 57126  1  0  0  0
 58127  1  0  0  0
 59 60  1  0  0  0
 59 61  1  0  0  0
 59 62  1  0  0  0
 60128  1  0  0  0
 60129  1  0  0  0
 60130  1  0  0  0
 61131  1  0  0  0
 61132  1  0  0  0
 61133  1  0  0  0
 62134  1  0  0  0
 62135  1  0  0  0
 62136  1  0  0  0
 63 65  1  0  0  0
 63137  1  0  0  0
 63138  1  0  0  0
 63139  1  0  0  0
 64140  1  0  0  0
 65141  1  0  0  0
 68 80  1  0  0  0
 71 72  1  0  0  0
 71 73  2  0  0  0
 71142  1  0  0  0
 72 74  2  0  0  0
 72143  1  0  0  0
 73 75  1  0  0  0
 73 82  1  0  0  0
 74 76  1  0  0  0
 74 82  1  0  0  0
 75 77  2  0  0  0
 75144  1  0  0  0
 76 78  2  0  0  0
 76145  1  0  0  0
 77 79  1  0  0  0
 77146  1  0  0  0
 78147  1  0  0  0
 79 80  1  0  0  0
 79 81  2  0  0  0
 80148  1  0  0  0
 80149  1  0  0  0
M  ISO  4   1 100  68 101  78 100  80 101
M  END
> <chiral flag>
0

> <version>
0

> <s_m_source_file>
/data/baiqing/PycharmProjects/Reinvent-master-3.2/result/LINK_invent/BTK/process_docking_weight1_custom_product_contain_oxygen_bond_distance_aromatic_linkinvent_7_9_3/rearranged_h_0127.sdf

> <i_m_source_file_index>
75

> <r_mmod_Potential_Energy-OPLS-2005>
-42.1023254394531

> <r_mmod_Stretch_Energy-OPLS-2005>
56.2393531799316

> <r_mmod_Bend_Energy-OPLS-2005>
107.954376220703

> <r_mmod_Torsional_Energy-OPLS-2005>
190.330078125

> <r_mmod_Improper_Torsional_Energy-OPLS-2005>
7.43215894699097

> <r_mmod_Van_der_Waal_Energy-OPLS-2005>
129.531478881836

> <r_mmod_Electrostatic_Energy-OPLS-2005>
-341.743347167969

> <r_mmod_Solvation_Energy-OPLS-2005>
-224.265518188477

> <b_mmod_Minimization_Converged-OPLS-2005>
0

> <r_mmod_RMS_Derivative-OPLS-2005>
8.64534282684326

$$$$
75
                    3D
 Structure written by MMmdl.
161170  0  0  1  0            999 V2000
  -30.5681  -14.7197   20.5041 C   0  0  0  0  0  0
  -30.4503  -12.4457   19.4606 C   0  0  0  0  0  0
  -29.5142  -12.5248   18.2315 C   0  0  0  0  0  0
  -28.0387  -12.3433   18.6431 C   0  0  0  0  0  0
  -27.6519  -13.2172   19.8650 C   0  0  2  0  0  0
  -28.6968  -13.0813   20.9953 C   0  0  0  0  0  0
  -25.2526  -13.8136   20.5610 C   0  0  0  0  0  0
  -24.1814  -13.0414   20.9184 C   0  0  0  0  0  0
  -24.6394  -11.6892   20.8751 C   0  0  0  0  0  0
  -23.9061  -10.4281   21.0413 C   0  0  0  0  0  0
  -24.3609   -9.4197   21.9191 C   0  0  0  0  0  0
  -23.6283   -8.2233   22.0758 C   0  0  0  0  0  0
  -22.4269   -8.0274   21.3543 C   0  0  0  0  0  0
  -21.9904   -9.0249   20.4648 C   0  0  0  0  0  0
  -22.7232  -10.2128   20.3062 C   0  0  0  0  0  0
  -21.6849   -6.0729   22.5278 C   0  0  0  0  0  0
  -21.4012   -6.5635   23.8210 C   0  0  0  0  0  0
  -21.3661   -5.6788   24.9174 C   0  0  0  0  0  0
  -21.6044   -4.3050   24.7223 C   0  0  0  0  0  0
  -21.8818   -3.8143   23.4344 C   0  0  0  0  0  0
  -21.9190   -4.6958   22.3401 C   0  0  0  0  0  0
  -22.7842  -13.5219   21.1852 C   0  0  0  0  0  0
  -22.1661   -4.2144   21.0978 F   0  0  0  0  0  0
  -21.5629   -3.4536   25.7737 F   0  0  0  0  0  0
  -30.0047  -13.4646   20.4363 N   0  0  0  0  0  0
  -26.2978  -12.9332   20.3315 N   0  0  0  0  0  0
  -25.9328  -11.6489   20.5780 N   0  0  0  0  0  0
  -22.0483  -12.8221   22.0418 N   0  0  0  0  0  0
  -25.4164  -15.1831   20.3856 N   0  0  0  0  0  0
  -31.7207  -14.9168   20.1036 O   0  0  0  0  0  0
  -21.6631   -6.8872   21.4240 O   0  0  0  0  0  0
  -22.3531  -14.5524   20.6698 O   0  0  0  0  0  0
  -24.6294  -31.8562   23.1980 C   0  0  0  0  0  0
  -25.9128  -32.4760   23.8328 C   0  0  1  0  0  0
  -27.2317  -27.2895   20.1329 C   0  0  0  0  0  0
  -25.5929  -33.8563   24.2256 N   0  0  0  0  0  0
  -23.4263  -30.4755   21.5410 C   0  0  2  0  0  0
  -24.8767  -28.9183   20.1172 C   0  0  0  0  0  0
  -22.7495  -29.4596   22.4927 C   0  0  0  0  0  0
  -18.0290  -28.1378   22.8477 C   0  0  0  0  0  0
  -24.1490  -36.7288   23.2642 C   0  0  0  0  0  0
  -25.9684  -30.7776   21.3732 C   0  0  0  0  0  0
  -26.0462  -29.3989   20.7222 C   0  0  0  0  0  0
  -27.2304  -28.5972   20.7178 C   0  0  0  0  0  0
  -26.0420  -26.8601   19.5131 C   0  0  0  0  0  0
  -24.8769  -27.6539   19.5036 C   0  0  0  0  0  0
  -23.6454  -29.8031   20.1597 C   0  0  0  0  0  0
  -25.4115  -36.3073   24.0325 C   0  0  1  0  0  0
  -20.5890  -28.3686   23.1272 C   0  0  2  0  0  0
  -20.6781  -26.9404   22.5406 C   0  0  0  0  0  0
  -19.5758  -26.6373   21.5206 C   0  0  0  0  0  0
  -18.1936  -26.7918   22.1616 C   0  0  0  0  0  0
  -19.1540  -28.8849   23.2871 C   0  0  0  0  0  0
  -18.9467  -30.1453   23.8886 C   0  0  0  0  0  0
  -17.6467  -30.6583   24.0552 C   0  0  0  0  0  0
  -25.9052  -34.9444   23.5095 C   0  0  0  0  0  0
  -16.5357  -29.9075   23.6329 C   0  0  0  0  0  0
  -16.7277  -28.6493   23.0345 C   0  0  0  0  0  0
  -26.4497  -31.6583   25.0714 C   0  0  0  0  0  0
  -25.3721  -31.3729   26.1437 C   0  0  0  0  0  0
  -27.0351  -30.3007   24.6185 C   0  0  0  0  0  0
  -27.6049  -32.4325   25.7490 C   0  0  0  0  0  0
  -27.5578  -37.1800   24.8465 C   0  0  0  0  0  0
  -21.4207  -29.3034   22.3670 N   0  0  0  0  0  0
  -26.4292  -37.3767   23.9405 N   0  0  0  0  0  0
  -24.6935  -31.0544   22.0942 N   0  0  0  0  0  0
  -23.4199  -28.8150   23.3035 O   0  0  0  0  0  0
  -28.3316  -26.4144   20.1033 O   0  0  0  0  0  0
  -26.5627  -34.8920   22.4666 O   0  0  0  0  0  0
  -23.5451  -32.1371   23.7288 O   0  0  0  0  0  0
  -30.2724  -19.5393   20.1598 C   0  0  0  0  0  0
  -30.4734  -18.1073   20.1496 C   0  0  0  0  0  0
  -28.4078  -19.2551   21.6204 C   0  0  0  0  0  0
  -29.2225  -20.1642   20.9006 C   0  0  0  0  0  0
  -28.6063  -17.8417   21.6352 C   0  0  0  0  0  0
  -29.6472  -17.2051   20.8910 C   0  0  0  0  0  0
  -28.5216  -23.7382   20.5293 C   0  0  0  0  0  0
  -29.6067  -22.9338   20.3872 C   0  0  0  0  0  0
  -27.6444  -22.5254   20.9199 C   0  0  0  0  0  0
  -28.9778  -21.7239   21.1448 C   0  0  1  0  0  0
  -27.6559  -17.0354   22.5090 C   0  0  0  0  0  0
  -31.6801  -23.3377   21.8020 C   0  0  0  0  0  0
  -31.0786  -23.2931   20.3920 C   0  0  0  0  0  0
  -28.3054  -25.2395   21.0131 C   0  0  0  0  0  0
  -29.7174  -15.7235   20.9223 N   0  0  0  0  0  0
  -31.4869  -12.5997   19.1568 H   0  0  0  0  0  0
  -30.4144  -11.4515   19.9087 H   0  0  0  0  0  0
  -29.7926  -11.7701   17.4947 H   0  0  0  0  0  0
  -29.6377  -13.4906   17.7395 H   0  0  0  0  0  0
  -27.8889  -11.2898   18.8821 H   0  0  0  0  0  0
  -27.3810  -12.5594   17.8003 H   0  0  0  0  0  0
  -27.6651  -14.2511   19.5197 H   0  0  0  0  0  0
  -28.7300  -12.0547   21.3631 H   0  0  0  0  0  0
  -28.4244  -13.6909   21.8581 H   0  0  0  0  0  0
  -25.2753   -9.5673   22.4766 H   0  0  0  0  0  0
  -23.9988   -7.4623   22.7478 H   0  0  0  0  0  0
  -21.0835   -8.8764   19.8953 H   0  0  0  0  0  0
  -22.3687  -10.9666   19.6171 H   0  0  0  0  0  0
  -21.2005   -7.6143   23.9710 H   0  0  0  0  0  0
  -21.1487   -6.0521   25.9074 H   0  0  0  0  0  0
  -22.0598   -2.7605   23.2846 H   0  0  0  0  0  0
  -22.4095  -11.9879   22.4803 H   0  0  0  0  0  0
  -21.1109  -13.1261   22.2631 H   0  0  0  0  0  0
  -24.6349  -15.8250   20.4603 H   0  0  0  0  0  0
  -26.2472  -15.6154   20.0030 H   0  0  0  0  0  0
  -26.7201  -32.5421   23.1080 H   0  0  0  0  0  0
  -25.0069  -33.9692   25.0398 H   0  0  0  0  0  0
  -22.7217  -31.2965   21.3924 H   0  0  0  0  0  0
  -23.3750  -35.9625   23.3303 H   0  0  0  0  0  0
  -24.3583  -36.8911   22.2059 H   0  0  0  0  0  0
  -23.7248  -37.6489   23.6669 H   0  0  0  0  0  0
  -26.1010  -31.5371   20.6015 H   0  0  0  0  0  0
  -26.8478  -30.8311   22.0034 H   0  0  0  0  0  0
  -28.1323  -28.9642   21.1878 H   0  0  0  0  0  0
  -26.0128  -25.8873   19.0422 H   0  0  0  0  0  0
  -23.9808  -27.2773   19.0294 H   0  0  0  0  0  0
  -23.7674  -30.5761   19.3997 H   0  0  0  0  0  0
  -22.7653  -29.2329   19.8571 H   0  0  0  0  0  0
  -25.1296  -36.1921   25.0817 H   0  0  0  0  0  0
  -20.9979  -28.3265   24.1395 H   0  0  0  0  0  0
  -20.5680  -26.2296   23.3611 H   0  0  0  0  0  0
  -21.6650  -26.7433   22.1203 H   0  0  0  0  0  0
  -19.6924  -25.6282   21.1238 H   0  0  0  0  0  0
  -19.6698  -27.3186   20.6737 H   0  0  0  0  0  0
  -17.4208  -26.6660   21.4018 H   0  0  0  0  0  0
  -18.0338  -26.0060   22.9013 H   0  0  0  0  0  0
  -19.7946  -30.7262   24.2253 H   0  0  0  0  0  0
  -17.5023  -31.6260   24.5158 H   0  0  0  0  0  0
  -15.5355  -30.2971   23.7662 H   0  0  0  0  0  0
  -15.8677  -28.0813   22.7057 H   0  0  0  0  0  0
  -24.5894  -30.7078   25.7764 H   0  0  0  0  0  0
  -24.8914  -32.2902   26.4853 H   0  0  0  0  0  0
  -25.8038  -30.8912   27.0222 H   0  0  0  0  0  0
  -26.2937  -29.6746   24.1209 H   0  0  0  0  0  0
  -27.4048  -29.7271   25.4695 H   0  0  0  0  0  0
  -27.8801  -30.4286   23.9415 H   0  0  0  0  0  0
  -27.2651  -33.3633   26.2046 H   0  0  0  0  0  0
  -28.3871  -32.6878   25.0326 H   0  0  0  0  0  0
  -28.0705  -31.8465   26.5423 H   0  0  0  0  0  0
  -28.2594  -38.0100   24.7507 H   0  0  0  0  0  0
  -28.1073  -36.2627   24.6293 H   0  0  0  0  0  0
  -27.2296  -37.1453   25.8869 H   0  0  0  0  0  0
  -20.9401  -29.8754   21.6867 H   0  0  0  0  0  0
  -26.0170  -38.2841   24.1401 H   0  0  0  0  0  0
  -30.9571  -20.1631   19.6030 H   0  0  0  0  0  0
  -31.2850  -17.7066   19.5582 H   0  0  0  0  0  0
  -27.6103  -19.6651   22.2257 H   0  0  0  0  0  0
  -27.0345  -22.1026   20.1202 H   0  0  0  0  0  0
  -27.0550  -22.5887   21.8355 H   0  0  0  0  0  0
  -29.1970  -21.8045   22.2116 H   0  0  0  0  0  0
  -27.4601  -17.5674   23.4405 H   0  0  0  0  0  0
  -28.0405  -16.0558   22.7876 H   0  0  0  0  0  0
  -26.7021  -16.9030   22.0022 H   0  0  0  0  0  0
  -32.7314  -23.6244   21.7647 H   0  0  0  0  0  0
  -31.6241  -22.3641   22.2899 H   0  0  0  0  0  0
  -31.1611  -24.0607   22.4327 H   0  0  0  0  0  0
  -31.2072  -24.2542   19.8926 H   0  0  0  0  0  0
  -31.6119  -22.5549   19.7922 H   0  0  0  0  0  0
  -29.0470  -25.4268   21.7897 H   0  0  0  0  0  0
  -27.3516  -25.2410   21.5428 H   0  0  0  0  0  0
  -28.8763  -15.3148   21.2971 H   0  0  0  0  0  0
  1 25  1  0  0  0
  1 30  2  0  0  0
  1 85  1  0  0  0
  2  3  1  0  0  0
  2 25  1  0  0  0
  2 86  1  0  0  0
  2 87  1  0  0  0
  3  4  1  0  0  0
  3 88  1  0  0  0
  3 89  1  0  0  0
  4  5  1  0  0  0
  4 90  1  0  0  0
  4 91  1  0  0  0
  5  6  1  0  0  0
  5 26  1  0  0  0
  5 92  1  0  0  0
  6 25  1  0  0  0
  6 93  1  0  0  0
  6 94  1  0  0  0
  7  8  2  0  0  0
  7 26  1  0  0  0
  7 29  1  0  0  0
  8  9  1  0  0  0
  8 22  1  0  0  0
  9 10  1  0  0  0
  9 27  2  0  0  0
 10 11  2  0  0  0
 10 15  1  0  0  0
 11 12  1  0  0  0
 11 95  1  0  0  0
 12 13  2  0  0  0
 12 96  1  0  0  0
 13 14  1  0  0  0
 13 31  1  0  0  0
 14 15  2  0  0  0
 14 97  1  0  0  0
 15 98  1  0  0  0
 16 17  2  0  0  0
 16 21  1  0  0  0
 16 31  1  0  0  0
 17 18  1  0  0  0
 17 99  1  0  0  0
 18 19  2  0  0  0
 18100  1  0  0  0
 19 20  1  0  0  0
 19 24  1  0  0  0
 20 21  2  0  0  0
 20101  1  0  0  0
 21 23  1  0  0  0
 22 28  1  0  0  0
 22 32  2  0  0  0
 26 27  1  0  0  0
 28102  1  0  0  0
 28103  1  0  0  0
 29104  1  0  0  0
 29105  1  0  0  0
 33 34  1  0  0  0
 33 66  1  0  0  0
 33 70  2  0  0  0
 34 36  1  0  0  0
 34 59  1  0  0  0
 34106  1  0  0  0
 35 44  2  0  0  0
 35 45  1  0  0  0
 35 68  1  0  0  0
 36 56  1  0  0  0
 36107  1  0  0  0
 37 39  1  0  0  0
 37 47  1  0  0  0
 37 66  1  0  0  0
 37108  1  0  0  0
 38 43  2  0  0  0
 38 46  1  0  0  0
 38 47  1  0  0  0
 39 64  1  0  0  0
 39 67  2  0  0  0
 40 52  1  0  0  0
 40 53  2  0  0  0
 40 58  1  0  0  0
 41109  1  0  0  0
 41110  1  0  0  0
 41111  1  0  0  0
 41 48  1  0  0  0
 42 43  1  0  0  0
 42 66  1  0  0  0
 42112  1  0  0  0
 42113  1  0  0  0
 43 44  1  0  0  0
 44114  1  0  0  0
 45 46  2  0  0  0
 45115  1  0  0  0
 46116  1  0  0  0
 47117  1  0  0  0
 47118  1  0  0  0
 48 56  1  0  0  0
 48 65  1  0  0  0
 48119  1  0  0  0
 49 50  1  0  0  0
 49 53  1  0  0  0
 49 64  1  0  0  0
 49120  1  0  0  0
 50 51  1  0  0  0
 50121  1  0  0  0
 50122  1  0  0  0
 51 52  1  0  0  0
 51123  1  0  0  0
 51124  1  0  0  0
 52125  1  0  0  0
 52126  1  0  0  0
 53 54  1  0  0  0
 54 55  2  0  0  0
 54127  1  0  0  0
 55 57  1  0  0  0
 55128  1  0  0  0
 56 69  2  0  0  0
 57 58  2  0  0  0
 57129  1  0  0  0
 58130  1  0  0  0
 59 60  1  0  0  0
 59 61  1  0  0  0
 59 62  1  0  0  0
 60131  1  0  0  0
 60132  1  0  0  0
 60133  1  0  0  0
 61134  1  0  0  0
 61135  1  0  0  0
 61136  1  0  0  0
 62137  1  0  0  0
 62138  1  0  0  0
 62139  1  0  0  0
 63 65  1  0  0  0
 63140  1  0  0  0
 63141  1  0  0  0
 63142  1  0  0  0
 64143  1  0  0  0
 65144  1  0  0  0
 68 84  1  0  0  0
 71 72  2  0  0  0
 71 74  1  0  0  0
 71145  1  0  0  0
 72 76  1  0  0  0
 72146  1  0  0  0
 73 74  2  0  0  0
 73 75  1  0  0  0
 73147  1  0  0  0
 74 80  1  0  0  0
 75 76  2  0  0  0
 75 81  1  0  0  0
 76 85  1  0  0  0
 77 78  2  0  0  0
 77 79  1  0  0  0
 77 84  1  0  0  0
 78 80  1  0  0  0
 78 83  1  0  0  0
 79 80  1  0  0  0
 79148  1  0  0  0
 79149  1  0  0  0
 80150  1  0  0  0
 81151  1  0  0  0
 81152  1  0  0  0
 81153  1  0  0  0
 82 83  1  0  0  0
 82154  1  0  0  0
 82155  1  0  0  0
 82156  1  0  0  0
 83157  1  0  0  0
 83158  1  0  0  0
 84159  1  0  0  0
 84160  1  0  0  0
 85161  1  0  0  0
M  ISO  4   1 100  68 101  84 101  85 100
M  END
> <chiral flag>
0

> <version>
0

> <s_m_source_file>
/data/baiqing/PycharmProjects/Reinvent-master-3.2/result/LINK_invent/BTK/process_docking_weight1_custom_product_contain_oxygen_bond_distance_aromatic_linkinvent_7_9_3/rearranged_h_0127.sdf

> <i_m_source_file_index>
76

> <r_mmod_Potential_Energy-OPLS-2005>
241.176818847656

> <r_mmod_Stretch_Energy-OPLS-2005>
98.4724502563477

> <r_mmod_Bend_Energy-OPLS-2005>
218.52702331543

> <r_mmod_Torsional_Energy-OPLS-2005>
291.818969726562

> <r_mmod_Improper_Torsional_Energy-OPLS-2005>
12.9981775283813

> <r_mmod_Van_der_Waal_Energy-OPLS-2005>
125.595359802246

> <r_mmod_Electrostatic_Energy-OPLS-2005>
-380.376586914062

> <r_mmod_Solvation_Energy-OPLS-2005>
-196.286773681641

> <b_mmod_Minimization_Converged-OPLS-2005>
0

> <r_mmod_RMS_Derivative-OPLS-2005>
0.740542054176331

$$$$
76
                    3D
 Structure written by MMmdl.
156164  0  0  1  0            999 V2000
  -30.6386  -14.5899   20.3767 C   0  0  0  0  0  0
  -30.4297  -12.3278   19.4429 C   0  0  0  0  0  0
  -29.4921  -12.4413   18.2184 C   0  0  0  0  0  0
  -28.0159  -12.3025   18.6420 C   0  0  0  0  0  0
  -27.6392  -13.1914   19.8562 C   0  0  2  0  0  0
  -28.7041  -13.0921   20.9752 C   0  0  0  0  0  0
  -25.2545  -13.8082   20.5804 C   0  0  0  0  0  0
  -24.1784  -13.0401   20.9248 C   0  0  0  0  0  0
  -24.6326  -11.6855   20.8822 C   0  0  0  0  0  0
  -23.9010  -10.4257   21.0443 C   0  0  0  0  0  0
  -24.3570   -9.4181   21.9211 C   0  0  0  0  0  0
  -23.6262   -8.2218   22.0772 C   0  0  0  0  0  0
  -22.4257   -8.0254   21.3538 C   0  0  0  0  0  0
  -21.9887   -9.0222   20.4633 C   0  0  0  0  0  0
  -22.7209  -10.2102   20.3058 C   0  0  0  0  0  0
  -21.6834   -6.0722   22.5279 C   0  0  0  0  0  0
  -21.3997   -6.5635   23.8210 C   0  0  0  0  0  0
  -21.3646   -5.6796   24.9175 C   0  0  0  0  0  0
  -21.6057   -4.3063   24.7235 C   0  0  0  0  0  0
  -21.8816   -3.8139   23.4362 C   0  0  0  0  0  0
  -21.9179   -4.6950   22.3408 C   0  0  0  0  0  0
  -22.7783  -13.5194   21.1844 C   0  0  0  0  0  0
  -22.1656   -4.2122   21.0995 F   0  0  0  0  0  0
  -21.5635   -3.4563   25.7755 F   0  0  0  0  0  0
  -30.0365  -13.3638   20.4097 N   0  0  0  0  0  0
  -26.2930  -12.9190   20.3412 N   0  0  0  0  0  0
  -25.9247  -11.6381   20.5865 N   0  0  0  0  0  0
  -22.0407  -12.8217   22.0399 N   0  0  0  0  0  0
  -25.4300  -15.1814   20.4243 N   0  0  0  0  0  0
  -31.8618  -14.7216   20.3384 O   0  0  0  0  0  0
  -21.6610   -6.8862   21.4245 O   0  0  0  0  0  0
  -22.3472  -14.5488   20.6643 O   0  0  0  0  0  0
  -24.6176  -31.8639   23.2142 C   0  0  0  0  0  0
  -25.9069  -32.4798   23.8426 C   0  0  1  0  0  0
  -27.2337  -27.4066   20.1003 C   0  0  0  0  0  0
  -25.5936  -33.8606   24.2367 N   0  0  0  0  0  0
  -23.4085  -30.4940   21.5479 C   0  0  2  0  0  0
  -24.8555  -28.9572   20.1161 C   0  0  0  0  0  0
  -22.7419  -29.4651   22.4909 C   0  0  0  0  0  0
  -18.0288  -28.1359   22.8459 C   0  0  0  0  0  0
  -24.1501  -36.7317   23.2634 C   0  0  0  0  0  0
  -25.9422  -30.8189   21.3783 C   0  0  0  0  0  0
  -26.0155  -29.4529   20.7229 C   0  0  0  0  0  0
  -27.2065  -28.6850   20.7129 C   0  0  0  0  0  0
  -26.0536  -26.9400   19.4753 C   0  0  0  0  0  0
  -24.8692  -27.7001   19.4907 C   0  0  0  0  0  0
  -23.6261  -29.8357   20.1598 C   0  0  0  0  0  0
  -25.4110  -36.3109   24.0355 C   0  0  1  0  0  0
  -20.5877  -28.3662   23.1255 C   0  0  2  0  0  0
  -20.6767  -26.9391   22.5362 C   0  0  0  0  0  0
  -19.5759  -26.6389   21.5146 C   0  0  0  0  0  0
  -18.1940  -26.7909   22.1568 C   0  0  0  0  0  0
  -19.1533  -28.8818   23.2881 C   0  0  0  0  0  0
  -18.9463  -30.1415   23.8907 C   0  0  0  0  0  0
  -17.6464  -30.6552   24.0567 C   0  0  0  0  0  0
  -25.9034  -34.9466   23.5162 C   0  0  0  0  0  0
  -16.5358  -29.9061   23.6316 C   0  0  0  0  0  0
  -16.7274  -28.6484   23.0326 C   0  0  0  0  0  0
  -26.4511  -31.6559   25.0743 C   0  0  0  0  0  0
  -25.3805  -31.3588   26.1494 C   0  0  0  0  0  0
  -27.0376  -30.3019   24.6122 C   0  0  0  0  0  0
  -27.6100  -32.4242   25.7513 C   0  0  0  0  0  0
  -27.5604  -37.1809   24.8451 C   0  0  0  0  0  0
  -21.4134  -29.3056   22.3666 N   0  0  0  0  0  0
  -26.4294  -37.3795   23.9429 N   0  0  0  0  0  0
  -24.6738  -31.0738   22.1042 N   0  0  0  0  0  0
  -23.4176  -28.8152   23.2927 O   0  0  0  0  0  0
  -28.3992  -26.6553   20.0916 O   0  0  0  0  0  0
  -26.5555  -34.8906   22.4697 O   0  0  0  0  0  0
  -23.5365  -32.1395   23.7518 O   0  0  0  0  0  0
  -29.7599  -19.3678   20.1227 C   0  0  0  0  0  0
  -30.4921  -17.9776   21.9808 C   0  0  0  0  0  0
  -30.5268  -20.4319   22.1479 C   0  0  0  0  0  0
  -29.9679  -18.0708   20.6741 C   0  0  0  0  0  0
  -30.0323  -20.5632   20.8328 C   0  0  0  0  0  0
  -30.7577  -19.1588   22.7178 C   0  0  0  0  0  0
  -29.5731  -16.9202   19.8156 C   0  0  0  0  0  0
  -29.7978  -21.8983   20.2017 C   0  0  0  0  0  0
  -29.7832  -15.5797   19.7038 C   0  0  0  0  0  0
  -29.7243  -23.1018   20.8238 C   0  0  0  0  0  0
  -31.2898  -19.0840   24.1358 C   0  0  0  0  0  0
  -29.6132  -24.4795   20.1451 C   0  0  0  0  0  0
  -28.2811  -25.2416   20.3803 C   0  0  0  0  0  0
  -31.4728  -12.4311   19.1362 H   0  0  0  0  0  0
  -30.3392  -11.3431   19.9019 H   0  0  0  0  0  0
  -29.7396  -11.6700   17.4882 H   0  0  0  0  0  0
  -29.6446  -13.3869   17.7002 H   0  0  0  0  0  0
  -27.8573  -11.2560   18.9001 H   0  0  0  0  0  0
  -27.3538  -12.5089   17.8019 H   0  0  0  0  0  0
  -27.5935  -14.2088   19.4903 H   0  0  0  0  0  0
  -28.6930  -12.0959   21.4196 H   0  0  0  0  0  0
  -28.4825  -13.7937   21.7825 H   0  0  0  0  0  0
  -25.2714   -9.5658   22.4780 H   0  0  0  0  0  0
  -23.9958   -7.4608   22.7521 H   0  0  0  0  0  0
  -21.0826   -8.8739   19.8924 H   0  0  0  0  0  0
  -22.3686  -10.9645   19.6166 H   0  0  0  0  0  0
  -21.1977   -7.6134   23.9703 H   0  0  0  0  0  0
  -21.1481   -6.0534   25.9073 H   0  0  0  0  0  0
  -22.0594   -2.7598   23.2872 H   0  0  0  0  0  0
  -22.4015  -11.9878   22.4792 H   0  0  0  0  0  0
  -21.1012  -13.1201   22.2590 H   0  0  0  0  0  0
  -24.6728  -15.8434   20.5503 H   0  0  0  0  0  0
  -26.2999  -15.6198   20.1436 H   0  0  0  0  0  0
  -26.7123  -32.5500   23.1165 H   0  0  0  0  0  0
  -25.0183  -33.9764   25.0582 H   0  0  0  0  0  0
  -22.7005  -31.3150   21.4075 H   0  0  0  0  0  0
  -23.3781  -35.9626   23.3226 H   0  0  0  0  0  0
  -24.3625  -36.8994   22.2063 H   0  0  0  0  0  0
  -23.7218  -37.6499   23.6667 H   0  0  0  0  0  0
  -26.0711  -31.5865   20.6147 H   0  0  0  0  0  0
  -26.8248  -30.8595   22.0058 H   0  0  0  0  0  0
  -28.0981  -29.0617   21.1951 H   0  0  0  0  0  0
  -26.0317  -25.9999   18.9449 H   0  0  0  0  0  0
  -23.9807  -27.3223   19.0028 H   0  0  0  0  0  0
  -23.7596  -30.6174   19.4106 H   0  0  0  0  0  0
  -22.7460  -29.2733   19.8436 H   0  0  0  0  0  0
  -25.1275  -36.1986   25.0847 H   0  0  0  0  0  0
  -20.9984  -28.3220   24.1366 H   0  0  0  0  0  0
  -20.5613  -26.2266   23.3543 H   0  0  0  0  0  0
  -21.6644  -26.7386   22.1183 H   0  0  0  0  0  0
  -19.6920  -25.6309   21.1156 H   0  0  0  0  0  0
  -19.6710  -27.3209   20.6680 H   0  0  0  0  0  0
  -17.4199  -26.6646   21.3982 H   0  0  0  0  0  0
  -18.0373  -26.0031   22.8948 H   0  0  0  0  0  0
  -19.7941  -30.7214   24.2292 H   0  0  0  0  0  0
  -17.5027  -31.6229   24.5172 H   0  0  0  0  0  0
  -15.5359  -30.2968   23.7637 H   0  0  0  0  0  0
  -15.8675  -28.0822   22.7006 H   0  0  0  0  0  0
  -24.5998  -30.6918   25.7810 H   0  0  0  0  0  0
  -24.8976  -32.2695   26.5034 H   0  0  0  0  0  0
  -25.8211  -30.8689   27.0190 H   0  0  0  0  0  0
  -26.2913  -29.6704   24.1282 H   0  0  0  0  0  0
  -27.4277  -29.7321   25.4570 H   0  0  0  0  0  0
  -27.8692  -30.4365   23.9203 H   0  0  0  0  0  0
  -27.2758  -33.3514   26.2174 H   0  0  0  0  0  0
  -28.3894  -32.6819   25.0329 H   0  0  0  0  0  0
  -28.0783  -31.8288   26.5365 H   0  0  0  0  0  0
  -28.2545  -38.0180   24.7598 H   0  0  0  0  0  0
  -28.1181  -36.2721   24.6146 H   0  0  0  0  0  0
  -27.2332  -37.1292   25.8848 H   0  0  0  0  0  0
  -20.9260  -29.8881   21.6999 H   0  0  0  0  0  0
  -26.0189  -38.2870   24.1453 H   0  0  0  0  0  0
  -29.3701  -19.4530   19.1176 H   0  0  0  0  0  0
  -30.6523  -17.0115   22.4359 H   0  0  0  0  0  0
  -30.7606  -21.3159   22.7232 H   0  0  0  0  0  0
  -28.8837  -17.2486   19.0497 H   0  0  0  0  0  0
  -29.7151  -21.8888   19.1232 H   0  0  0  0  0  0
  -29.2489  -15.1810   18.8608 H   0  0  0  0  0  0
  -29.7735  -23.1389   21.9037 H   0  0  0  0  0  0
  -31.0020  -18.1477   24.6152 H   0  0  0  0  0  0
  -30.8940  -19.9015   24.7409 H   0  0  0  0  0  0
  -32.3784  -19.1632   24.1405 H   0  0  0  0  0  0
  -29.7934  -24.3809   19.0747 H   0  0  0  0  0  0
  -30.4359  -25.0825   20.5320 H   0  0  0  0  0  0
  -27.9672  -25.1287   21.4190 H   0  0  0  0  0  0
  -27.5198  -24.7590   19.7697 H   0  0  0  0  0  0
  1 25  1  0  0  0
  1 30  2  0  0  0
  1 79  1  0  0  0
  2  3  1  0  0  0
  2 25  1  0  0  0
  2 84  1  0  0  0
  2 85  1  0  0  0
  3  4  1  0  0  0
  3 86  1  0  0  0
  3 87  1  0  0  0
  4  5  1  0  0  0
  4 88  1  0  0  0
  4 89  1  0  0  0
  5  6  1  0  0  0
  5 26  1  0  0  0
  5 90  1  0  0  0
  6 25  1  0  0  0
  6 91  1  0  0  0
  6 92  1  0  0  0
  7  8  2  0  0  0
  7 26  1  0  0  0
  7 29  1  0  0  0
  8  9  1  0  0  0
  8 22  1  0  0  0
  9 10  1  0  0  0
  9 27  2  0  0  0
 10 11  2  0  0  0
 10 15  1  0  0  0
 11 12  1  0  0  0
 11 93  1  0  0  0
 12 13  2  0  0  0
 12 94  1  0  0  0
 13 14  1  0  0  0
 13 31  1  0  0  0
 14 15  2  0  0  0
 14 95  1  0  0  0
 15 96  1  0  0  0
 16 17  2  0  0  0
 16 21  1  0  0  0
 16 31  1  0  0  0
 17 18  1  0  0  0
 17 97  1  0  0  0
 18 19  2  0  0  0
 18 98  1  0  0  0
 19 20  1  0  0  0
 19 24  1  0  0  0
 20 21  2  0  0  0
 20 99  1  0  0  0
 21 23  1  0  0  0
 22 28  1  0  0  0
 22 32  2  0  0  0
 26 27  1  0  0  0
 28100  1  0  0  0
 28101  1  0  0  0
 29102  1  0  0  0
 29103  1  0  0  0
 33 34  1  0  0  0
 33 66  1  0  0  0
 33 70  2  0  0  0
 34 36  1  0  0  0
 34 59  1  0  0  0
 34104  1  0  0  0
 35 44  2  0  0  0
 35 45  1  0  0  0
 35 68  1  0  0  0
 36 56  1  0  0  0
 36105  1  0  0  0
 37 39  1  0  0  0
 37 47  1  0  0  0
 37 66  1  0  0  0
 37106  1  0  0  0
 38 43  2  0  0  0
 38 46  1  0  0  0
 38 47  1  0  0  0
 39 64  1  0  0  0
 39 67  2  0  0  0
 40 52  1  0  0  0
 40 53  2  0  0  0
 40 58  1  0  0  0
 41107  1  0  0  0
 41108  1  0  0  0
 41109  1  0  0  0
 41 48  1  0  0  0
 42 43  1  0  0  0
 42 66  1  0  0  0
 42110  1  0  0  0
 42111  1  0  0  0
 43 44  1  0  0  0
 44112  1  0  0  0
 45 46  2  0  0  0
 45113  1  0  0  0
 46114  1  0  0  0
 47115  1  0  0  0
 47116  1  0  0  0
 48 56  1  0  0  0
 48 65  1  0  0  0
 48117  1  0  0  0
 49 50  1  0  0  0
 49 53  1  0  0  0
 49 64  1  0  0  0
 49118  1  0  0  0
 50 51  1  0  0  0
 50119  1  0  0  0
 50120  1  0  0  0
 51 52  1  0  0  0
 51121  1  0  0  0
 51122  1  0  0  0
 52123  1  0  0  0
 52124  1  0  0  0
 53 54  1  0  0  0
 54 55  2  0  0  0
 54125  1  0  0  0
 55 57  1  0  0  0
 55126  1  0  0  0
 56 69  2  0  0  0
 57 58  2  0  0  0
 57127  1  0  0  0
 58128  1  0  0  0
 59 60  1  0  0  0
 59 61  1  0  0  0
 59 62  1  0  0  0
 60129  1  0  0  0
 60130  1  0  0  0
 60131  1  0  0  0
 61132  1  0  0  0
 61133  1  0  0  0
 61134  1  0  0  0
 62135  1  0  0  0
 62136  1  0  0  0
 62137  1  0  0  0
 63 65  1  0  0  0
 63138  1  0  0  0
 63139  1  0  0  0
 63140  1  0  0  0
 64141  1  0  0  0
 65142  1  0  0  0
 68 83  1  0  0  0
 71 74  2  0  0  0
 71 75  1  0  0  0
 71143  1  0  0  0
 72 74  1  0  0  0
 72 76  2  0  0  0
 72144  1  0  0  0
 73 75  2  0  0  0
 73 76  1  0  0  0
 73145  1  0  0  0
 74 77  1  0  0  0
 75 78  1  0  0  0
 76 81  1  0  0  0
 77 79  2  0  0  0
 77146  1  0  0  0
 78 80  2  0  0  0
 78147  1  0  0  0
 79148  1  0  0  0
 80 82  1  0  0  0
 80149  1  0  0  0
 81150  1  0  0  0
 81151  1  0  0  0
 81152  1  0  0  0
 82 83  1  0  0  0
 82153  1  0  0  0
 82154  1  0  0  0
 83155  1  0  0  0
 83156  1  0  0  0
M  ISO  4   1 100  68 101  79 100  83 101
M  END
> <chiral flag>
0

> <version>
0

> <s_m_source_file>
/data/baiqing/PycharmProjects/Reinvent-master-3.2/result/LINK_invent/BTK/process_docking_weight1_custom_product_contain_oxygen_bond_distance_aromatic_linkinvent_7_9_3/rearranged_h_0127.sdf

> <i_m_source_file_index>
77

> <r_mmod_Potential_Energy-OPLS-2005>
138.933898925781

> <r_mmod_Stretch_Energy-OPLS-2005>
44.1144943237305

> <r_mmod_Bend_Energy-OPLS-2005>
154.778839111328

> <r_mmod_Torsional_Energy-OPLS-2005>
237.301284790039

> <r_mmod_Improper_Torsional_Energy-OPLS-2005>
24.4441413879395

> <r_mmod_Van_der_Waal_Energy-OPLS-2005>
151.185653686523

> <r_mmod_Electrostatic_Energy-OPLS-2005>
-318.071350097656

> <r_mmod_Solvation_Energy-OPLS-2005>
-196.820526123047

> <b_mmod_Minimization_Converged-OPLS-2005>
0

> <r_mmod_RMS_Derivative-OPLS-2005>
3.41042041778564

$$$$
77
                    3D
 Structure written by MMmdl.
158166  0  0  1  0            999 V2000
  -30.7318  -14.4547   20.6815 C   0  0  0  0  0  0
  -30.4222  -12.3350   19.4231 C   0  0  0  0  0  0
  -29.4964  -12.5371   18.2076 C   0  0  0  0  0  0
  -28.0200  -12.3754   18.6149 C   0  0  0  0  0  0
  -27.6616  -13.2070   19.8743 C   0  0  2  0  0  0
  -28.6951  -12.9784   20.9974 C   0  0  0  0  0  0
  -25.2590  -13.8159   20.5670 C   0  0  0  0  0  0
  -24.1840  -13.0441   20.9155 C   0  0  0  0  0  0
  -24.6388  -11.6897   20.8703 C   0  0  0  0  0  0
  -23.9059  -10.4289   21.0395 C   0  0  0  0  0  0
  -24.3619   -9.4209   21.9176 C   0  0  0  0  0  0
  -23.6294   -8.2248   22.0761 C   0  0  0  0  0  0
  -22.4275   -8.0279   21.3557 C   0  0  0  0  0  0
  -21.9910   -9.0248   20.4656 C   0  0  0  0  0  0
  -22.7234  -10.2125   20.3056 C   0  0  0  0  0  0
  -21.6856   -6.0723   22.5282 C   0  0  0  0  0  0
  -21.4018   -6.5638   23.8208 C   0  0  0  0  0  0
  -21.3662   -5.6804   24.9177 C   0  0  0  0  0  0
  -21.6045   -4.3067   24.7229 C   0  0  0  0  0  0
  -21.8828   -3.8138   23.4357 C   0  0  0  0  0  0
  -21.9201   -4.6949   22.3405 C   0  0  0  0  0  0
  -22.7870  -13.5235   21.1841 C   0  0  0  0  0  0
  -22.1675   -4.2130   21.0984 F   0  0  0  0  0  0
  -21.5619   -3.4560   25.7743 F   0  0  0  0  0  0
  -30.0321  -13.2998   20.4682 N   0  0  0  0  0  0
  -26.3014  -12.9325   20.3319 N   0  0  0  0  0  0
  -25.9311  -11.6483   20.5695 N   0  0  0  0  0  0
  -22.0522  -12.8223   22.0380 N   0  0  0  0  0  0
  -25.4336  -15.1884   20.4116 N   0  0  0  0  0  0
  -31.7688  -14.6977   20.0556 O   0  0  0  0  0  0
  -21.6651   -6.8870   21.4242 O   0  0  0  0  0  0
  -22.3543  -14.5542   20.6692 O   0  0  0  0  0  0
  -24.6155  -31.8647   23.2089 C   0  0  0  0  0  0
  -25.9040  -32.4799   23.8396 C   0  0  1  0  0  0
  -27.2419  -27.4257   20.1026 C   0  0  0  0  0  0
  -25.5889  -33.8602   24.2319 N   0  0  0  0  0  0
  -23.4057  -30.4872   21.5473 C   0  0  2  0  0  0
  -24.8573  -28.9514   20.1134 C   0  0  0  0  0  0
  -22.7411  -29.4637   22.4969 C   0  0  0  0  0  0
  -18.0263  -28.1364   22.8483 C   0  0  0  0  0  0
  -24.1493  -36.7318   23.2644 C   0  0  0  0  0  0
  -25.9359  -30.8295   21.3640 C   0  0  0  0  0  0
  -26.0178  -29.4645   20.7078 C   0  0  0  0  0  0
  -27.2168  -28.7106   20.6961 C   0  0  0  0  0  0
  -26.0661  -26.9281   19.5041 C   0  0  0  0  0  0
  -24.8768  -27.6827   19.5072 C   0  0  0  0  0  0
  -23.6172  -29.8169   20.1629 C   0  0  0  0  0  0
  -25.4113  -36.3108   24.0341 C   0  0  1  0  0  0
  -20.5853  -28.3656   23.1302 C   0  0  2  0  0  0
  -20.6745  -26.9386   22.5405 C   0  0  0  0  0  0
  -19.5733  -26.6369   21.5195 C   0  0  0  0  0  0
  -18.1912  -26.7910   22.1610 C   0  0  0  0  0  0
  -19.1512  -28.8828   23.2890 C   0  0  0  0  0  0
  -18.9449  -30.1432   23.8904 C   0  0  0  0  0  0
  -17.6453  -30.6575   24.0555 C   0  0  0  0  0  0
  -25.9035  -34.9468   23.5132 C   0  0  0  0  0  0
  -16.5343  -29.9075   23.6321 C   0  0  0  0  0  0
  -16.7256  -28.6485   23.0351 C   0  0  0  0  0  0
  -26.4462  -31.6588   25.0733 C   0  0  0  0  0  0
  -25.3736  -31.3696   26.1490 C   0  0  0  0  0  0
  -27.0301  -30.3032   24.6125 C   0  0  0  0  0  0
  -27.6033  -32.4301   25.7500 C   0  0  0  0  0  0
  -27.5579  -37.1821   24.8467 C   0  0  0  0  0  0
  -21.4136  -29.3024   22.3710 N   0  0  0  0  0  0
  -26.4301  -37.3786   23.9398 N   0  0  0  0  0  0
  -24.6701  -31.0747   22.0983 N   0  0  0  0  0  0
  -23.4171  -28.8182   23.3022 O   0  0  0  0  0  0
  -28.3822  -26.6466   20.1002 O   0  0  0  0  0  0
  -26.5602  -34.8921   22.4695 O   0  0  0  0  0  0
  -23.5340  -32.1403   23.7471 O   0  0  0  0  0  0
  -28.4030  -20.8469   20.3544 C   0  0  0  0  0  0
  -28.7539  -19.4949   20.5766 C   0  0  0  0  0  0
  -31.0877  -20.0834   20.3614 C   0  0  0  0  0  0
  -29.3834  -21.8422   20.1240 C   0  0  0  0  0  0
  -30.7460  -21.4408   20.1391 C   0  0  0  0  0  0
  -30.1105  -19.0894   20.5824 C   0  0  0  0  0  0
  -31.8715  -22.4358   19.9193 C   0  0  0  0  0  0
  -28.9255  -23.2843   19.8008 C   0  0  0  0  0  0
  -30.3037  -15.4897   21.7553 C   0  0  0  0  0  0
  -29.3494  -24.3963   20.8015 C   0  0  0  0  0  0
  -29.6219  -16.7953   21.2492 C   0  0  0  0  0  0
  -28.3222  -25.5458   21.0271 C   0  0  0  0  0  0
  -30.5501  -17.7858   20.7836 O   0  0  0  0  0  0
  -31.4660  -12.4410   19.1235 H   0  0  0  0  0  0
  -30.3321  -11.3171   19.8066 H   0  0  0  0  0  0
  -29.7489  -11.8285   17.4189 H   0  0  0  0  0  0
  -29.6546  -13.5321   17.7884 H   0  0  0  0  0  0
  -27.8377  -11.3164   18.8023 H   0  0  0  0  0  0
  -27.3710  -12.6527   17.7831 H   0  0  0  0  0  0
  -27.7117  -14.2569   19.5861 H   0  0  0  0  0  0
  -28.6745  -11.9354   21.3158 H   0  0  0  0  0  0
  -28.4064  -13.5462   21.8774 H   0  0  0  0  0  0
  -25.2771   -9.5677   22.4737 H   0  0  0  0  0  0
  -24.0006   -7.4638   22.7489 H   0  0  0  0  0  0
  -21.0847   -8.8765   19.8955 H   0  0  0  0  0  0
  -22.3706  -10.9658   19.6156 H   0  0  0  0  0  0
  -21.2018   -7.6148   23.9704 H   0  0  0  0  0  0
  -21.1475   -6.0537   25.9081 H   0  0  0  0  0  0
  -22.0602   -2.7597   23.2870 H   0  0  0  0  0  0
  -22.4184  -11.9887   22.4728 H   0  0  0  0  0  0
  -21.1134  -13.1218   22.2613 H   0  0  0  0  0  0
  -24.6698  -15.8474   20.5165 H   0  0  0  0  0  0
  -26.2888  -15.6202   20.0859 H   0  0  0  0  0  0
  -26.7109  -32.5510   23.1162 H   0  0  0  0  0  0
  -25.0029  -33.9756   25.0457 H   0  0  0  0  0  0
  -22.6966  -31.3050   21.4039 H   0  0  0  0  0  0
  -23.3740  -35.9665   23.3330 H   0  0  0  0  0  0
  -24.3586  -36.8907   22.2053 H   0  0  0  0  0  0
  -23.7265  -37.6541   23.6642 H   0  0  0  0  0  0
  -26.0510  -31.5991   20.5999 H   0  0  0  0  0  0
  -26.8209  -30.8787   21.9862 H   0  0  0  0  0  0
  -28.1141  -29.1039   21.1540 H   0  0  0  0  0  0
  -26.0697  -25.9495   19.0444 H   0  0  0  0  0  0
  -23.9853  -27.2808   19.0455 H   0  0  0  0  0  0
  -23.7238  -30.5901   19.4009 H   0  0  0  0  0  0
  -22.7434  -29.2334   19.8673 H   0  0  0  0  0  0
  -25.1290  -36.1978   25.0834 H   0  0  0  0  0  0
  -20.9940  -28.3211   24.1428 H   0  0  0  0  0  0
  -20.5616  -26.2270   23.3593 H   0  0  0  0  0  0
  -21.6622  -26.7402   22.1227 H   0  0  0  0  0  0
  -19.6898  -25.6280   21.1224 H   0  0  0  0  0  0
  -19.6679  -27.3179   20.6726 H   0  0  0  0  0  0
  -17.4179  -26.6653   21.4012 H   0  0  0  0  0  0
  -18.0324  -26.0037   22.8997 H   0  0  0  0  0  0
  -19.7931  -30.7232   24.2282 H   0  0  0  0  0  0
  -17.5019  -31.6266   24.5142 H   0  0  0  0  0  0
  -15.5346  -30.2993   23.7641 H   0  0  0  0  0  0
  -15.8652  -28.0817   22.7073 H   0  0  0  0  0  0
  -24.5888  -30.7062   25.7843 H   0  0  0  0  0  0
  -24.8959  -32.2855   26.4981 H   0  0  0  0  0  0
  -25.8103  -30.8839   27.0229 H   0  0  0  0  0  0
  -26.2864  -29.6791   24.1157 H   0  0  0  0  0  0
  -27.4045  -29.7265   25.4597 H   0  0  0  0  0  0
  -27.8707  -30.4356   23.9305 H   0  0  0  0  0  0
  -27.2646  -33.3577   26.2125 H   0  0  0  0  0  0
  -28.3825  -32.6889   25.0319 H   0  0  0  0  0  0
  -28.0721  -31.8395   26.5382 H   0  0  0  0  0  0
  -28.2613  -38.0103   24.7482 H   0  0  0  0  0  0
  -28.1054  -36.2630   24.6325 H   0  0  0  0  0  0
  -27.2293  -37.1513   25.8872 H   0  0  0  0  0  0
  -20.9296  -29.8779   21.6963 H   0  0  0  0  0  0
  -26.0193  -38.2868   24.1375 H   0  0  0  0  0  0
  -27.3542  -21.1109   20.3405 H   0  0  0  0  0  0
  -27.9588  -18.7789   20.7247 H   0  0  0  0  0  0
  -32.1294  -19.7924   20.3641 H   0  0  0  0  0  0
  -32.8041  -21.9263   19.6712 H   0  0  0  0  0  0
  -32.0418  -23.0127   20.8285 H   0  0  0  0  0  0
  -31.6471  -23.1222   19.1043 H   0  0  0  0  0  0
  -27.8370  -23.2799   19.7271 H   0  0  0  0  0  0
  -29.2693  -23.5472   18.7994 H   0  0  0  0  0  0
  -29.6700  -15.0295   22.5073 H   0  0  0  0  0  0
  -31.1943  -15.7644   22.3198 H   0  0  0  0  0  0
  -30.3266  -24.8031   20.5409 H   0  0  0  0  0  0
  -29.4824  -23.9159   21.7712 H   0  0  0  0  0  0
  -29.0768  -17.2205   22.0940 H   0  0  0  0  0  0
  -28.8831  -16.5720   20.4789 H   0  0  0  0  0  0
  -28.5107  -25.9723   22.0136 H   0  0  0  0  0  0
  -27.3195  -25.1194   21.0844 H   0  0  0  0  0  0
  1 25  1  0  0  0
  1 30  2  0  0  0
  1 79  1  0  0  0
  2  3  1  0  0  0
  2 25  1  0  0  0
  2 84  1  0  0  0
  2 85  1  0  0  0
  3  4  1  0  0  0
  3 86  1  0  0  0
  3 87  1  0  0  0
  4  5  1  0  0  0
  4 88  1  0  0  0
  4 89  1  0  0  0
  5  6  1  0  0  0
  5 26  1  0  0  0
  5 90  1  0  0  0
  6 25  1  0  0  0
  6 91  1  0  0  0
  6 92  1  0  0  0
  7  8  2  0  0  0
  7 26  1  0  0  0
  7 29  1  0  0  0
  8  9  1  0  0  0
  8 22  1  0  0  0
  9 10  1  0  0  0
  9 27  2  0  0  0
 10 11  2  0  0  0
 10 15  1  0  0  0
 11 12  1  0  0  0
 11 93  1  0  0  0
 12 13  2  0  0  0
 12 94  1  0  0  0
 13 14  1  0  0  0
 13 31  1  0  0  0
 14 15  2  0  0  0
 14 95  1  0  0  0
 15 96  1  0  0  0
 16 17  2  0  0  0
 16 21  1  0  0  0
 16 31  1  0  0  0
 17 18  1  0  0  0
 17 97  1  0  0  0
 18 19  2  0  0  0
 18 98  1  0  0  0
 19 20  1  0  0  0
 19 24  1  0  0  0
 20 21  2  0  0  0
 20 99  1  0  0  0
 21 23  1  0  0  0
 22 28  1  0  0  0
 22 32  2  0  0  0
 26 27  1  0  0  0
 28100  1  0  0  0
 28101  1  0  0  0
 29102  1  0  0  0
 29103  1  0  0  0
 33 34  1  0  0  0
 33 66  1  0  0  0
 33 70  2  0  0  0
 34 36  1  0  0  0
 34 59  1  0  0  0
 34104  1  0  0  0
 35 44  2  0  0  0
 35 45  1  0  0  0
 35 68  1  0  0  0
 36 56  1  0  0  0
 36105  1  0  0  0
 37 39  1  0  0  0
 37 47  1  0  0  0
 37 66  1  0  0  0
 37106  1  0  0  0
 38 43  2  0  0  0
 38 46  1  0  0  0
 38 47  1  0  0  0
 39 64  1  0  0  0
 39 67  2  0  0  0
 40 52  1  0  0  0
 40 53  2  0  0  0
 40 58  1  0  0  0
 41107  1  0  0  0
 41108  1  0  0  0
 41109  1  0  0  0
 41 48  1  0  0  0
 42 43  1  0  0  0
 42 66  1  0  0  0
 42110  1  0  0  0
 42111  1  0  0  0
 43 44  1  0  0  0
 44112  1  0  0  0
 45 46  2  0  0  0
 45113  1  0  0  0
 46114  1  0  0  0
 47115  1  0  0  0
 47116  1  0  0  0
 48 56  1  0  0  0
 48 65  1  0  0  0
 48117  1  0  0  0
 49 50  1  0  0  0
 49 53  1  0  0  0
 49 64  1  0  0  0
 49118  1  0  0  0
 50 51  1  0  0  0
 50119  1  0  0  0
 50120  1  0  0  0
 51 52  1  0  0  0
 51121  1  0  0  0
 51122  1  0  0  0
 52123  1  0  0  0
 52124  1  0  0  0
 53 54  1  0  0  0
 54 55  2  0  0  0
 54125  1  0  0  0
 55 57  1  0  0  0
 55126  1  0  0  0
 56 69  2  0  0  0
 57 58  2  0  0  0
 57127  1  0  0  0
 58128  1  0  0  0
 59 60  1  0  0  0
 59 61  1  0  0  0
 59 62  1  0  0  0
 60129  1  0  0  0
 60130  1  0  0  0
 60131  1  0  0  0
 61132  1  0  0  0
 61133  1  0  0  0
 61134  1  0  0  0
 62135  1  0  0  0
 62136  1  0  0  0
 62137  1  0  0  0
 63 65  1  0  0  0
 63138  1  0  0  0
 63139  1  0  0  0
 63140  1  0  0  0
 64141  1  0  0  0
 65142  1  0  0  0
 68 82  1  0  0  0
 71 72  2  0  0  0
 71 74  1  0  0  0
 71143  1  0  0  0
 72 76  1  0  0  0
 72144  1  0  0  0
 73 75  1  0  0  0
 73 76  2  0  0  0
 73145  1  0  0  0
 74 75  2  0  0  0
 74 78  1  0  0  0
 75 77  1  0  0  0
 76 83  1  0  0  0
 77146  1  0  0  0
 77147  1  0  0  0
 77148  1  0  0  0
 78 80  1  0  0  0
 78149  1  0  0  0
 78150  1  0  0  0
 79 81  1  0  0  0
 79151  1  0  0  0
 79152  1  0  0  0
 80 82  1  0  0  0
 80153  1  0  0  0
 80154  1  0  0  0
 81 83  1  0  0  0
 81155  1  0  0  0
 81156  1  0  0  0
 82157  1  0  0  0
 82158  1  0  0  0
M  ISO  4   1 100  68 101  79 100  82 101
M  END
> <chiral flag>
0

> <version>
0

> <s_m_source_file>
/data/baiqing/PycharmProjects/Reinvent-master-3.2/result/LINK_invent/BTK/process_docking_weight1_custom_product_contain_oxygen_bond_distance_aromatic_linkinvent_7_9_3/rearranged_h_0127.sdf

> <i_m_source_file_index>
78

> <r_mmod_Potential_Energy-OPLS-2005>
-29.3762912750244

> <r_mmod_Stretch_Energy-OPLS-2005>
43.2510452270508

> <r_mmod_Bend_Energy-OPLS-2005>
110.46019744873

> <r_mmod_Torsional_Energy-OPLS-2005>
198.118988037109

> <r_mmod_Improper_Torsional_Energy-OPLS-2005>
1.92966032028198

> <r_mmod_Van_der_Waal_Energy-OPLS-2005>
146.386123657227

> <r_mmod_Electrostatic_Energy-OPLS-2005>
-339.3125

> <r_mmod_Solvation_Energy-OPLS-2005>
-202.13069152832

> <b_mmod_Minimization_Converged-OPLS-2005>
0

> <r_mmod_RMS_Derivative-OPLS-2005>
2.0551872253418

$$$$
78
                    3D
 Structure written by MMmdl.
151159  0  0  1  0            999 V2000
  -30.5653  -14.7932   20.4521 C   0  0  0  0  0  0
  -30.4422  -12.4858   19.4716 C   0  0  0  0  0  0
  -29.5127  -12.5153   18.2364 C   0  0  0  0  0  0
  -28.0407  -12.3238   18.6533 C   0  0  0  0  0  0
  -27.6395  -13.2265   19.8486 C   0  0  2  0  0  0
  -28.6855  -13.1671   20.9835 C   0  0  0  0  0  0
  -25.2468  -13.8127   20.5638 C   0  0  0  0  0  0
  -24.1789  -13.0389   20.9222 C   0  0  0  0  0  0
  -24.6393  -11.6872   20.8766 C   0  0  0  0  0  0
  -23.9065  -10.4260   21.0421 C   0  0  0  0  0  0
  -24.3615   -9.4181   21.9198 C   0  0  0  0  0  0
  -23.6282   -8.2224   22.0764 C   0  0  0  0  0  0
  -22.4267   -8.0268   21.3549 C   0  0  0  0  0  0
  -21.9906   -9.0242   20.4653 C   0  0  0  0  0  0
  -22.7238  -10.2118   20.3066 C   0  0  0  0  0  0
  -21.6852   -6.0726   22.5278 C   0  0  0  0  0  0
  -21.4009   -6.5632   23.8207 C   0  0  0  0  0  0
  -21.3655   -5.6792   24.9172 C   0  0  0  0  0  0
  -21.6048   -4.3053   24.7228 C   0  0  0  0  0  0
  -21.8816   -3.8140   23.4350 C   0  0  0  0  0  0
  -21.9187   -4.6956   22.3405 C   0  0  0  0  0  0
  -22.7814  -13.5193   21.1857 C   0  0  0  0  0  0
  -22.1662   -4.2141   21.0983 F   0  0  0  0  0  0
  -21.5626   -3.4538   25.7741 F   0  0  0  0  0  0
  -29.9811  -13.5430   20.4023 N   0  0  0  0  0  0
  -26.2918  -12.9347   20.3261 N   0  0  0  0  0  0
  -25.9326  -11.6498   20.5772 N   0  0  0  0  0  0
  -22.0455  -12.8204   22.0425 N   0  0  0  0  0  0
  -25.4054  -15.1823   20.3897 N   0  0  0  0  0  0
  -31.7603  -14.9143   20.1598 O   0  0  0  0  0  0
  -21.6633   -6.8871   21.4240 O   0  0  0  0  0  0
  -22.3514  -14.5506   20.6696 O   0  0  0  0  0  0
  -24.6332  -31.8518   23.1940 C   0  0  0  0  0  0
  -25.9148  -32.4734   23.8293 C   0  0  1  0  0  0
  -27.2277  -27.2463   20.1438 C   0  0  0  0  0  0
  -25.5942  -33.8535   24.2220 N   0  0  0  0  0  0
  -23.4304  -30.4706   21.5392 C   0  0  2  0  0  0
  -24.8792  -28.9037   20.1187 C   0  0  0  0  0  0
  -22.7505  -29.4581   22.4920 C   0  0  0  0  0  0
  -18.0286  -28.1399   22.8456 C   0  0  0  0  0  0
  -24.1495  -36.7275   23.2637 C   0  0  0  0  0  0
  -25.9757  -30.7621   21.3717 C   0  0  0  0  0  0
  -26.0506  -29.3803   20.7203 C   0  0  0  0  0  0
  -27.2308  -28.5676   20.7108 C   0  0  0  0  0  0
  -26.0328  -26.8285   19.5252 C   0  0  0  0  0  0
  -24.8757  -27.6370   19.5100 C   0  0  0  0  0  0
  -23.6505  -29.7952   20.1596 C   0  0  0  0  0  0
  -25.4117  -36.3047   24.0321 C   0  0  1  0  0  0
  -20.5886  -28.3696   23.1278 C   0  0  2  0  0  0
  -20.6791  -26.9418   22.5414 C   0  0  0  0  0  0
  -19.5780  -26.6383   21.5212 C   0  0  0  0  0  0
  -18.1944  -26.7932   22.1606 C   0  0  0  0  0  0
  -19.1536  -28.8866   23.2854 C   0  0  0  0  0  0
  -18.9464  -30.1462   23.8876 C   0  0  0  0  0  0
  -17.6467  -30.6591   24.0557 C   0  0  0  0  0  0
  -25.9065  -34.9422   23.5073 C   0  0  0  0  0  0
  -16.5357  -29.9088   23.6339 C   0  0  0  0  0  0
  -16.7270  -28.6522   23.0328 C   0  0  0  0  0  0
  -26.4520  -31.6558   25.0687 C   0  0  0  0  0  0
  -25.3727  -31.3719   26.1394 C   0  0  0  0  0  0
  -27.0361  -30.2975   24.6154 C   0  0  0  0  0  0
  -27.6066  -32.4312   25.7476 C   0  0  0  0  0  0
  -27.5578  -37.1781   24.8460 C   0  0  0  0  0  0
  -21.4211  -29.3035   22.3672 N   0  0  0  0  0  0
  -26.4281  -37.3745   23.9414 N   0  0  0  0  0  0
  -24.6992  -31.0462   22.0924 N   0  0  0  0  0  0
  -23.4198  -28.8127   23.3032 O   0  0  0  0  0  0
  -28.3440  -26.3780   20.1301 O   0  0  0  0  0  0
  -26.5634  -34.8909   22.4643 O   0  0  0  0  0  0
  -23.5484  -32.1357   23.7232 O   0  0  0  0  0  0
  -30.8095  -19.3154   20.5790 C   0  0  0  0  0  0
  -29.4811  -19.5770   20.3421 C   0  0  0  0  0  0
  -28.8669  -18.2485   20.3666 C   0  0  0  0  0  0
  -29.8768  -17.2891   20.5351 C   0  0  0  0  0  0
  -28.8133  -20.9625   20.0673 C   0  0  0  0  0  0
  -29.2028  -22.2822   20.2844 C   0  0  0  0  0  0
  -27.3970  -17.9676   20.2177 C   0  0  0  0  0  0
  -28.5422  -23.6462   19.7430 C   0  0  0  0  0  0
  -28.2605  -24.9644   20.6575 C   0  0  0  0  0  0
  -29.7141  -15.8881   20.6074 N   0  0  0  0  0  0
  -31.0685  -17.9505   20.6695 O   0  0  0  0  0  0
  -31.4792  -12.6333   19.1647 H   0  0  0  0  0  0
  -30.4101  -11.5091   19.9564 H   0  0  0  0  0  0
  -29.8031  -11.7414   17.5251 H   0  0  0  0  0  0
  -29.6241  -13.4674   17.7155 H   0  0  0  0  0  0
  -27.9094  -11.2756   18.9237 H   0  0  0  0  0  0
  -27.3793  -12.5022   17.8049 H   0  0  0  0  0  0
  -27.6285  -14.2450   19.4611 H   0  0  0  0  0  0
  -28.7354  -12.1671   21.4169 H   0  0  0  0  0  0
  -28.4125  -13.8378   21.7997 H   0  0  0  0  0  0
  -25.2757   -9.5654   22.4776 H   0  0  0  0  0  0
  -23.9978   -7.4622   22.7494 H   0  0  0  0  0  0
  -21.0833   -8.8767   19.8967 H   0  0  0  0  0  0
  -22.3699  -10.9659   19.6182 H   0  0  0  0  0  0
  -21.2004   -7.6142   23.9710 H   0  0  0  0  0  0
  -21.1483   -6.0522   25.9075 H   0  0  0  0  0  0
  -22.0600   -2.7602   23.2854 H   0  0  0  0  0  0
  -22.4055  -11.9855   22.4803 H   0  0  0  0  0  0
  -21.1087  -13.1260   22.2645 H   0  0  0  0  0  0
  -24.6093  -15.8076   20.4533 H   0  0  0  0  0  0
  -26.2010  -15.5999   19.9280 H   0  0  0  0  0  0
  -26.7202  -32.5376   23.1021 H   0  0  0  0  0  0
  -25.0084  -33.9675   25.0363 H   0  0  0  0  0  0
  -22.7255  -31.2909   21.3877 H   0  0  0  0  0  0
  -23.3760  -35.9607   23.3277 H   0  0  0  0  0  0
  -24.3582  -36.8924   22.2056 H   0  0  0  0  0  0
  -23.7257  -37.6470   23.6685 H   0  0  0  0  0  0
  -26.1058  -31.5168   20.5951 H   0  0  0  0  0  0
  -26.8581  -30.8207   21.9977 H   0  0  0  0  0  0
  -28.1357  -28.9342   21.1737 H   0  0  0  0  0  0
  -25.9909  -25.8561   19.0548 H   0  0  0  0  0  0
  -23.9773  -27.2648   19.0378 H   0  0  0  0  0  0
  -23.7788  -30.5694   19.4023 H   0  0  0  0  0  0
  -22.7685  -29.2308   19.8528 H   0  0  0  0  0  0
  -25.1301  -36.1879   25.0812 H   0  0  0  0  0  0
  -20.9948  -28.3272   24.1410 H   0  0  0  0  0  0
  -20.5722  -26.2294   23.3602 H   0  0  0  0  0  0
  -21.6652  -26.7471   22.1185 H   0  0  0  0  0  0
  -19.6967  -25.6292   21.1248 H   0  0  0  0  0  0
  -19.6749  -27.3182   20.6731 H   0  0  0  0  0  0
  -17.4222  -26.6653   21.4008 H   0  0  0  0  0  0
  -18.0353  -26.0089   22.9019 H   0  0  0  0  0  0
  -19.7947  -30.7275   24.2237 H   0  0  0  0  0  0
  -17.5030  -31.6269   24.5158 H   0  0  0  0  0  0
  -15.5365  -30.2990   23.7688 H   0  0  0  0  0  0
  -15.8661  -28.0854   22.7042 H   0  0  0  0  0  0
  -24.5928  -30.7048   25.7699 H   0  0  0  0  0  0
  -24.8897  -32.2896   26.4760 H   0  0  0  0  0  0
  -25.8023  -30.8928   27.0197 H   0  0  0  0  0  0
  -26.2925  -29.6724   24.1195 H   0  0  0  0  0  0
  -27.4073  -29.7238   25.4647 H   0  0  0  0  0  0
  -27.8782  -30.4254   23.9354 H   0  0  0  0  0  0
  -27.2669  -33.3633   26.2003 H   0  0  0  0  0  0
  -28.3904  -32.6835   25.0323 H   0  0  0  0  0  0
  -28.0696  -31.8469   26.5438 H   0  0  0  0  0  0
  -28.2552  -38.0112   24.7511 H   0  0  0  0  0  0
  -28.1116  -36.2637   24.6270 H   0  0  0  0  0  0
  -27.2300  -37.1393   25.8861 H   0  0  0  0  0  0
  -20.9415  -29.8713   21.6823 H   0  0  0  0  0  0
  -26.0159  -38.2817   24.1431 H   0  0  0  0  0  0
  -31.6841  -19.9457   20.6561 H   0  0  0  0  0  0
  -27.8789  -20.8631   19.5334 H   0  0  0  0  0  0
  -30.1225  -22.4348   20.8318 H   0  0  0  0  0  0
  -26.8034  -18.8619   20.4080 H   0  0  0  0  0  0
  -27.0910  -17.2130   20.9406 H   0  0  0  0  0  0
  -27.1755  -17.6136   19.2110 H   0  0  0  0  0  0
  -27.6222  -23.3929   19.2165 H   0  0  0  0  0  0
  -29.2289  -23.9746   18.9622 H   0  0  0  0  0  0
  -28.9916  -24.9402   21.4657 H   0  0  0  0  0  0
  -27.3018  -24.8325   21.1602 H   0  0  0  0  0  0
  -28.7577  -15.6009   20.7384 H   0  0  0  0  0  0
  1 25  1  0  0  0
  1 30  2  0  0  0
  1 80  1  0  0  0
  2  3  1  0  0  0
  2 25  1  0  0  0
  2 82  1  0  0  0
  2 83  1  0  0  0
  3  4  1  0  0  0
  3 84  1  0  0  0
  3 85  1  0  0  0
  4  5  1  0  0  0
  4 86  1  0  0  0
  4 87  1  0  0  0
  5  6  1  0  0  0
  5 26  1  0  0  0
  5 88  1  0  0  0
  6 25  1  0  0  0
  6 89  1  0  0  0
  6 90  1  0  0  0
  7  8  2  0  0  0
  7 26  1  0  0  0
  7 29  1  0  0  0
  8  9  1  0  0  0
  8 22  1  0  0  0
  9 10  1  0  0  0
  9 27  2  0  0  0
 10 11  2  0  0  0
 10 15  1  0  0  0
 11 12  1  0  0  0
 11 91  1  0  0  0
 12 13  2  0  0  0
 12 92  1  0  0  0
 13 14  1  0  0  0
 13 31  1  0  0  0
 14 15  2  0  0  0
 14 93  1  0  0  0
 15 94  1  0  0  0
 16 17  2  0  0  0
 16 21  1  0  0  0
 16 31  1  0  0  0
 17 18  1  0  0  0
 17 95  1  0  0  0
 18 19  2  0  0  0
 18 96  1  0  0  0
 19 20  1  0  0  0
 19 24  1  0  0  0
 20 21  2  0  0  0
 20 97  1  0  0  0
 21 23  1  0  0  0
 22 28  1  0  0  0
 22 32  2  0  0  0
 26 27  1  0  0  0
 28 98  1  0  0  0
 28 99  1  0  0  0
 29100  1  0  0  0
 29101  1  0  0  0
 33 34  1  0  0  0
 33 66  1  0  0  0
 33 70  2  0  0  0
 34 36  1  0  0  0
 34 59  1  0  0  0
 34102  1  0  0  0
 35 44  2  0  0  0
 35 45  1  0  0  0
 35 68  1  0  0  0
 36 56  1  0  0  0
 36103  1  0  0  0
 37 39  1  0  0  0
 37 47  1  0  0  0
 37 66  1  0  0  0
 37104  1  0  0  0
 38 43  2  0  0  0
 38 46  1  0  0  0
 38 47  1  0  0  0
 39 64  1  0  0  0
 39 67  2  0  0  0
 40 52  1  0  0  0
 40 53  2  0  0  0
 40 58  1  0  0  0
 41105  1  0  0  0
 41106  1  0  0  0
 41107  1  0  0  0
 41 48  1  0  0  0
 42 43  1  0  0  0
 42 66  1  0  0  0
 42108  1  0  0  0
 42109  1  0  0  0
 43 44  1  0  0  0
 44110  1  0  0  0
 45 46  2  0  0  0
 45111  1  0  0  0
 46112  1  0  0  0
 47113  1  0  0  0
 47114  1  0  0  0
 48 56  1  0  0  0
 48 65  1  0  0  0
 48115  1  0  0  0
 49 50  1  0  0  0
 49 53  1  0  0  0
 49 64  1  0  0  0
 49116  1  0  0  0
 50 51  1  0  0  0
 50117  1  0  0  0
 50118  1  0  0  0
 51 52  1  0  0  0
 51119  1  0  0  0
 51120  1  0  0  0
 52121  1  0  0  0
 52122  1  0  0  0
 53 54  1  0  0  0
 54 55  2  0  0  0
 54123  1  0  0  0
 55 57  1  0  0  0
 55124  1  0  0  0
 56 69  2  0  0  0
 57 58  2  0  0  0
 57125  1  0  0  0
 58126  1  0  0  0
 59 60  1  0  0  0
 59 61  1  0  0  0
 59 62  1  0  0  0
 60127  1  0  0  0
 60128  1  0  0  0
 60129  1  0  0  0
 61130  1  0  0  0
 61131  1  0  0  0
 61132  1  0  0  0
 62133  1  0  0  0
 62134  1  0  0  0
 62135  1  0  0  0
 63 65  1  0  0  0
 63136  1  0  0  0
 63137  1  0  0  0
 63138  1  0  0  0
 64139  1  0  0  0
 65140  1  0  0  0
 68 79  1  0  0  0
 71 72  2  0  0  0
 71 81  1  0  0  0
 71141  1  0  0  0
 72 73  1  0  0  0
 72 75  1  0  0  0
 73 74  2  0  0  0
 73 77  1  0  0  0
 74 80  1  0  0  0
 74 81  1  0  0  0
 75 76  2  0  0  0
 75142  1  0  0  0
 76 78  1  0  0  0
 76143  1  0  0  0
 77144  1  0  0  0
 77145  1  0  0  0
 77146  1  0  0  0
 78 79  1  0  0  0
 78147  1  0  0  0
 78148  1  0  0  0
 79149  1  0  0  0
 79150  1  0  0  0
 80151  1  0  0  0
M  ISO  4   1 100  68 101  79 101  80 100
M  END
> <chiral flag>
0

> <version>
0

> <s_m_source_file>
/data/baiqing/PycharmProjects/Reinvent-master-3.2/result/LINK_invent/BTK/process_docking_weight1_custom_product_contain_oxygen_bond_distance_aromatic_linkinvent_7_9_3/rearranged_h_0127.sdf

> <i_m_source_file_index>
79

> <r_mmod_Potential_Energy-OPLS-2005>
165.99723815918

> <r_mmod_Stretch_Energy-OPLS-2005>
126.682426452637

> <r_mmod_Bend_Energy-OPLS-2005>
185.862686157227

> <r_mmod_Torsional_Energy-OPLS-2005>
231.895690917969

> <r_mmod_Improper_Torsional_Energy-OPLS-2005>
7.5942907333374

> <r_mmod_Van_der_Waal_Energy-OPLS-2005>
107.608520507812

> <r_mmod_Electrostatic_Energy-OPLS-2005>
-377.926239013672

> <r_mmod_Solvation_Energy-OPLS-2005>
-213.72981262207

> <b_mmod_Minimization_Converged-OPLS-2005>
0

> <r_mmod_RMS_Derivative-OPLS-2005>
1.64270031452179

$$$$
79
                    3D
 Structure written by MMmdl.
157165  0  0  1  0            999 V2000
  -30.5905  -14.8269   20.5260 C   0  0  0  0  0  0
  -30.4423  -12.5223   19.5002 C   0  0  0  0  0  0
  -29.5205  -12.5452   18.2575 C   0  0  0  0  0  0
  -28.0496  -12.3371   18.6616 C   0  0  0  0  0  0
  -27.6438  -13.2319   19.8605 C   0  0  2  0  0  0
  -28.6798  -13.1534   21.0019 C   0  0  0  0  0  0
  -25.2434  -13.8142   20.5566 C   0  0  0  0  0  0
  -24.1765  -13.0393   20.9184 C   0  0  0  0  0  0
  -24.6385  -11.6890   20.8750 C   0  0  0  0  0  0
  -23.9059  -10.4267   21.0397 C   0  0  0  0  0  0
  -24.3605   -9.4191   21.9180 C   0  0  0  0  0  0
  -23.6276   -8.2234   22.0760 C   0  0  0  0  0  0
  -22.4265   -8.0264   21.3544 C   0  0  0  0  0  0
  -21.9896   -9.0236   20.4648 C   0  0  0  0  0  0
  -22.7225  -10.2115   20.3052 C   0  0  0  0  0  0
  -21.6848   -6.0718   22.5273 C   0  0  0  0  0  0
  -21.4009   -6.5621   23.8204 C   0  0  0  0  0  0
  -21.3660   -5.6779   24.9168 C   0  0  0  0  0  0
  -21.6045   -4.3043   24.7222 C   0  0  0  0  0  0
  -21.8824   -3.8132   23.4345 C   0  0  0  0  0  0
  -21.9190   -4.6946   22.3398 C   0  0  0  0  0  0
  -22.7792  -13.5184   21.1854 C   0  0  0  0  0  0
  -22.1655   -4.2126   21.0979 F   0  0  0  0  0  0
  -21.5635   -3.4531   25.7739 F   0  0  0  0  0  0
  -29.9847  -13.5717   20.4569 N   0  0  0  0  0  0
  -26.2922  -12.9383   20.3280 N   0  0  0  0  0  0
  -25.9321  -11.6523   20.5772 N   0  0  0  0  0  0
  -22.0455  -12.8192   22.0447 N   0  0  0  0  0  0
  -25.3965  -15.1830   20.3724 N   0  0  0  0  0  0
  -31.7030  -14.9722   20.0056 O   0  0  0  0  0  0
  -21.6635   -6.8859   21.4237 O   0  0  0  0  0  0
  -22.3463  -14.5485   20.6701 O   0  0  0  0  0  0
  -24.6385  -31.8488   23.1943 C   0  0  0  0  0  0
  -25.9187  -32.4716   23.8298 C   0  0  1  0  0  0
  -27.2306  -27.2056   20.1319 C   0  0  0  0  0  0
  -25.5949  -33.8514   24.2214 N   0  0  0  0  0  0
  -23.4389  -30.4676   21.5408 C   0  0  2  0  0  0
  -24.8883  -28.9077   20.1128 C   0  0  0  0  0  0
  -22.7550  -29.4540   22.4914 C   0  0  0  0  0  0
  -18.0291  -28.1385   22.8477 C   0  0  0  0  0  0
  -24.1480  -36.7256   23.2644 C   0  0  0  0  0  0
  -25.9897  -30.7432   21.3847 C   0  0  0  0  0  0
  -26.0628  -29.3614   20.7239 C   0  0  0  0  0  0
  -27.2320  -28.5244   20.7219 C   0  0  0  0  0  0
  -26.0318  -26.8435   19.4728 C   0  0  0  0  0  0
  -24.8800  -27.6572   19.4774 C   0  0  0  0  0  0
  -23.6625  -29.8011   20.1587 C   0  0  0  0  0  0
  -25.4108  -36.3042   24.0325 C   0  0  1  0  0  0
  -20.5898  -28.3693   23.1254 C   0  0  2  0  0  0
  -20.6777  -26.9403   22.5409 C   0  0  0  0  0  0
  -19.5758  -26.6374   21.5213 C   0  0  0  0  0  0
  -18.1932  -26.7924   22.1616 C   0  0  0  0  0  0
  -19.1549  -28.8863   23.2846 C   0  0  0  0  0  0
  -18.9478  -30.1463   23.8861 C   0  0  0  0  0  0
  -17.6477  -30.6594   24.0547 C   0  0  0  0  0  0
  -25.9060  -34.9419   23.5076 C   0  0  0  0  0  0
  -16.5363  -29.9084   23.6343 C   0  0  0  0  0  0
  -16.7277  -28.6501   23.0355 C   0  0  0  0  0  0
  -26.4522  -31.6578   25.0728 C   0  0  0  0  0  0
  -25.3715  -31.3758   26.1437 C   0  0  0  0  0  0
  -27.0388  -30.2977   24.6279 C   0  0  0  0  0  0
  -27.6044  -32.4364   25.7514 C   0  0  0  0  0  0
  -27.5567  -37.1769   24.8466 C   0  0  0  0  0  0
  -21.4253  -29.3023   22.3645 N   0  0  0  0  0  0
  -26.4273  -37.3757   23.9422 N   0  0  0  0  0  0
  -24.7086  -31.0386   22.0959 N   0  0  0  0  0  0
  -23.4222  -28.8092   23.3048 O   0  0  0  0  0  0
  -28.3177  -26.2790   20.2304 O   0  0  0  0  0  0
  -26.5641  -34.8919   22.4651 O   0  0  0  0  0  0
  -23.5519  -32.1337   23.7203 O   0  0  0  0  0  0
  -30.7030  -18.4451   20.3008 C   0  0  0  0  0  0
  -30.5201  -19.8580   20.0197 C   0  0  0  0  0  0
  -28.2997  -19.7320   20.8018 C   0  0  0  0  0  0
  -29.6919  -17.5820   20.8442 C   0  0  0  0  0  0
  -29.3023  -20.5766   20.2595 C   0  0  0  0  0  0
  -28.4687  -18.3260   21.0890 C   0  0  0  0  0  0
  -29.9131  -16.0689   21.3365 C   0  0  0  0  0  0
  -26.9519  -18.0735   23.1222 C   0  0  0  0  0  0
  -28.9679  -22.0702   19.7092 C   0  0  0  0  0  0
  -27.2242  -17.6628   21.6675 C   0  0  0  0  0  0
  -28.9599  -23.5102   20.5085 C   0  0  0  0  0  0
  -28.1967  -24.8077   19.8265 C   0  0  0  0  0  0
  -29.5601  -15.8349   22.5328 N   0  0  0  0  0  0
  -31.4789  -12.6684   19.1926 H   0  0  0  0  0  0
  -30.4190  -11.5391   19.9728 H   0  0  0  0  0  0
  -29.8247  -11.7758   17.5464 H   0  0  0  0  0  0
  -29.6276  -13.5008   17.7419 H   0  0  0  0  0  0
  -27.9253  -11.2862   18.9276 H   0  0  0  0  0  0
  -27.3911  -12.5160   17.8104 H   0  0  0  0  0  0
  -27.6426  -14.2577   19.4904 H   0  0  0  0  0  0
  -28.7392  -12.1395   21.4003 H   0  0  0  0  0  0
  -28.3518  -13.7654   21.8379 H   0  0  0  0  0  0
  -25.2747   -9.5667   22.4751 H   0  0  0  0  0  0
  -23.9968   -7.4636   22.7493 H   0  0  0  0  0  0
  -21.0822   -8.8759   19.8957 H   0  0  0  0  0  0
  -22.3679  -10.9652   19.6160 H   0  0  0  0  0  0
  -21.2001   -7.6128   23.9699 H   0  0  0  0  0  0
  -21.1474   -6.0510   25.9071 H   0  0  0  0  0  0
  -22.0605   -2.7590   23.2856 H   0  0  0  0  0  0
  -22.4067  -11.9852   22.4830 H   0  0  0  0  0  0
  -21.1098  -13.1251   22.2692 H   0  0  0  0  0  0
  -24.6089  -15.8177   20.4396 H   0  0  0  0  0  0
  -26.2224  -15.6151   19.9805 H   0  0  0  0  0  0
  -26.7240  -32.5347   23.1015 H   0  0  0  0  0  0
  -25.0066  -33.9616   25.0339 H   0  0  0  0  0  0
  -22.7383  -31.2905   21.3901 H   0  0  0  0  0  0
  -23.3756  -35.9574   23.3301 H   0  0  0  0  0  0
  -24.3560  -36.8898   22.2059 H   0  0  0  0  0  0
  -23.7220  -37.6443   23.6683 H   0  0  0  0  0  0
  -26.1344  -31.5035   20.6155 H   0  0  0  0  0  0
  -26.8641  -30.7910   22.0219 H   0  0  0  0  0  0
  -28.1292  -28.8694   21.2184 H   0  0  0  0  0  0
  -25.9386  -25.9019   18.9567 H   0  0  0  0  0  0
  -23.9791  -27.3035   18.9949 H   0  0  0  0  0  0
  -23.7994  -30.5784   19.4076 H   0  0  0  0  0  0
  -22.7800  -29.2396   19.8464 H   0  0  0  0  0  0
  -25.1276  -36.1869   25.0814 H   0  0  0  0  0  0
  -20.9944  -28.3288   24.1390 H   0  0  0  0  0  0
  -20.5677  -26.2298   23.3619 H   0  0  0  0  0  0
  -21.6640  -26.7415   22.1190 H   0  0  0  0  0  0
  -19.6911  -25.6276   21.1259 H   0  0  0  0  0  0
  -19.6712  -27.3172   20.6737 H   0  0  0  0  0  0
  -17.4192  -26.6672   21.4023 H   0  0  0  0  0  0
  -18.0312  -26.0070   22.9014 H   0  0  0  0  0  0
  -19.7966  -30.7270   24.2224 H   0  0  0  0  0  0
  -17.5048  -31.6278   24.5149 H   0  0  0  0  0  0
  -15.5364  -30.2966   23.7724 H   0  0  0  0  0  0
  -15.8669  -28.0824   22.7078 H   0  0  0  0  0  0
  -24.5893  -30.7100   25.7772 H   0  0  0  0  0  0
  -24.8904  -32.2943   26.4813 H   0  0  0  0  0  0
  -25.8012  -30.8974   27.0250 H   0  0  0  0  0  0
  -26.2994  -29.6702   24.1286 H   0  0  0  0  0  0
  -27.4009  -29.7264   25.4841 H   0  0  0  0  0  0
  -27.8900  -30.4216   23.9582 H   0  0  0  0  0  0
  -27.2599  -33.3678   26.2020 H   0  0  0  0  0  0
  -28.3879  -32.6914   25.0370 H   0  0  0  0  0  0
  -28.0679  -31.8551   26.5495 H   0  0  0  0  0  0
  -28.2557  -38.0093   24.7517 H   0  0  0  0  0  0
  -28.1086  -36.2608   24.6270 H   0  0  0  0  0  0
  -27.2279  -37.1380   25.8872 H   0  0  0  0  0  0
  -20.9477  -29.8741   21.6818 H   0  0  0  0  0  0
  -26.0147  -38.2818   24.1479 H   0  0  0  0  0  0
  -31.6771  -18.0162   20.1106 H   0  0  0  0  0  0
  -31.3485  -20.3934   19.5776 H   0  0  0  0  0  0
  -27.3270  -20.1726   20.9782 H   0  0  0  0  0  0
  -26.0446  -17.5937   23.4906 H   0  0  0  0  0  0
  -26.8118  -19.1505   23.2190 H   0  0  0  0  0  0
  -27.7696  -17.7862   23.7818 H   0  0  0  0  0  0
  -27.9721  -21.9787   19.2719 H   0  0  0  0  0  0
  -29.6151  -22.2101   18.8432 H   0  0  0  0  0  0
  -27.2679  -16.5801   21.5898 H   0  0  0  0  0  0
  -26.3705  -17.9527   21.0528 H   0  0  0  0  0  0
  -29.9943  -23.7843   20.7162 H   0  0  0  0  0  0
  -28.5014  -23.3517   21.4855 H   0  0  0  0  0  0
  -27.1504  -24.5189   19.8731 H   0  0  0  0  0  0
  -28.4530  -24.7935   18.7669 H   0  0  0  0  0  0
  -29.1706  -16.6695   22.9545 H   0  0  0  0  0  0
  1 25  1  0  0  0
  1 30  2  0  0  0
  1 77  1  0  0  0
  2  3  1  0  0  0
  2 25  1  0  0  0
  2 84  1  0  0  0
  2 85  1  0  0  0
  3  4  1  0  0  0
  3 86  1  0  0  0
  3 87  1  0  0  0
  4  5  1  0  0  0
  4 88  1  0  0  0
  4 89  1  0  0  0
  5  6  1  0  0  0
  5 26  1  0  0  0
  5 90  1  0  0  0
  6 25  1  0  0  0
  6 91  1  0  0  0
  6 92  1  0  0  0
  7  8  2  0  0  0
  7 26  1  0  0  0
  7 29  1  0  0  0
  8  9  1  0  0  0
  8 22  1  0  0  0
  9 10  1  0  0  0
  9 27  2  0  0  0
 10 11  2  0  0  0
 10 15  1  0  0  0
 11 12  1  0  0  0
 11 93  1  0  0  0
 12 13  2  0  0  0
 12 94  1  0  0  0
 13 14  1  0  0  0
 13 31  1  0  0  0
 14 15  2  0  0  0
 14 95  1  0  0  0
 15 96  1  0  0  0
 16 17  2  0  0  0
 16 21  1  0  0  0
 16 31  1  0  0  0
 17 18  1  0  0  0
 17 97  1  0  0  0
 18 19  2  0  0  0
 18 98  1  0  0  0
 19 20  1  0  0  0
 19 24  1  0  0  0
 20 21  2  0  0  0
 20 99  1  0  0  0
 21 23  1  0  0  0
 22 28  1  0  0  0
 22 32  2  0  0  0
 26 27  1  0  0  0
 28100  1  0  0  0
 28101  1  0  0  0
 29102  1  0  0  0
 29103  1  0  0  0
 33 34  1  0  0  0
 33 66  1  0  0  0
 33 70  2  0  0  0
 34 36  1  0  0  0
 34 59  1  0  0  0
 34104  1  0  0  0
 35 44  2  0  0  0
 35 45  1  0  0  0
 35 68  1  0  0  0
 36 56  1  0  0  0
 36105  1  0  0  0
 37 39  1  0  0  0
 37 47  1  0  0  0
 37 66  1  0  0  0
 37106  1  0  0  0
 38 43  2  0  0  0
 38 46  1  0  0  0
 38 47  1  0  0  0
 39 64  1  0  0  0
 39 67  2  0  0  0
 40 52  1  0  0  0
 40 53  2  0  0  0
 40 58  1  0  0  0
 41107  1  0  0  0
 41108  1  0  0  0
 41109  1  0  0  0
 41 48  1  0  0  0
 42 43  1  0  0  0
 42 66  1  0  0  0
 42110  1  0  0  0
 42111  1  0  0  0
 43 44  1  0  0  0
 44112  1  0  0  0
 45 46  2  0  0  0
 45113  1  0  0  0
 46114  1  0  0  0
 47115  1  0  0  0
 47116  1  0  0  0
 48 56  1  0  0  0
 48 65  1  0  0  0
 48117  1  0  0  0
 49 50  1  0  0  0
 49 53  1  0  0  0
 49 64  1  0  0  0
 49118  1  0  0  0
 50 51  1  0  0  0
 50119  1  0  0  0
 50120  1  0  0  0
 51 52  1  0  0  0
 51121  1  0  0  0
 51122  1  0  0  0
 52123  1  0  0  0
 52124  1  0  0  0
 53 54  1  0  0  0
 54 55  2  0  0  0
 54125  1  0  0  0
 55 57  1  0  0  0
 55126  1  0  0  0
 56 69  2  0  0  0
 57 58  2  0  0  0
 57127  1  0  0  0
 58128  1  0  0  0
 59 60  1  0  0  0
 59 61  1  0  0  0
 59 62  1  0  0  0
 60129  1  0  0  0
 60130  1  0  0  0
 60131  1  0  0  0
 61132  1  0  0  0
 61133  1  0  0  0
 61134  1  0  0  0
 62135  1  0  0  0
 62136  1  0  0  0
 62137  1  0  0  0
 63 65  1  0  0  0
 63138  1  0  0  0
 63139  1  0  0  0
 63140  1  0  0  0
 64141  1  0  0  0
 65142  1  0  0  0
 68 82  1  0  0  0
 71 72  2  0  0  0
 71 74  1  0  0  0
 71143  1  0  0  0
 72 75  1  0  0  0
 72144  1  0  0  0
 73 75  2  0  0  0
 73 76  1  0  0  0
 73145  1  0  0  0
 74 76  2  0  0  0
 74 77  1  0  0  0
 75 79  1  0  0  0
 76 80  1  0  0  0
 77 83  2  0  0  0
 78 80  1  0  0  0
 78146  1  0  0  0
 78147  1  0  0  0
 78148  1  0  0  0
 79 81  1  0  0  0
 79149  1  0  0  0
 79150  1  0  0  0
 80151  1  0  0  0
 80152  1  0  0  0
 81 82  1  0  0  0
 81153  1  0  0  0
 81154  1  0  0  0
 82155  1  0  0  0
 82156  1  0  0  0
 83157  1  0  0  0
M  ISO  4   1 100  68 101  77 100  82 101
M  END
> <chiral flag>
0

> <version>
0

> <s_m_source_file>
/data/baiqing/PycharmProjects/Reinvent-master-3.2/result/LINK_invent/BTK/process_docking_weight1_custom_product_contain_oxygen_bond_distance_aromatic_linkinvent_7_9_3/rearranged_h_0127.sdf

> <i_m_source_file_index>
80

> <r_mmod_Potential_Energy-OPLS-2005>
511.843017578125

> <r_mmod_Stretch_Energy-OPLS-2005>
194.74186706543

> <r_mmod_Bend_Energy-OPLS-2005>
241.930267333984

> <r_mmod_Torsional_Energy-OPLS-2005>
212.9287109375

> <r_mmod_Improper_Torsional_Energy-OPLS-2005>
5.7631688117981

> <r_mmod_Van_der_Waal_Energy-OPLS-2005>
142.54345703125

> <r_mmod_Electrostatic_Energy-OPLS-2005>
-220.306228637695

> <r_mmod_Solvation_Energy-OPLS-2005>
-187.982360839844

> <b_mmod_Minimization_Converged-OPLS-2005>
0

> <r_mmod_RMS_Derivative-OPLS-2005>
2.04632329940796

$$$$
80
                    3D
 Structure written by MMmdl.
162171  0  0  1  0            999 V2000
  -30.6322  -14.7897   20.3995 C   0  0  0  0  0  0
  -30.4304  -12.4800   19.4581 C   0  0  0  0  0  0
  -29.4954  -12.4899   18.2261 C   0  0  0  0  0  0
  -28.0270  -12.2971   18.6472 C   0  0  0  0  0  0
  -27.6279  -13.2218   19.8241 C   0  0  2  0  0  0
  -28.6818  -13.2374   20.9554 C   0  0  0  0  0  0
  -25.2458  -13.7962   20.5683 C   0  0  0  0  0  0
  -24.1751  -13.0274   20.9216 C   0  0  0  0  0  0
  -24.6350  -11.6799   20.8739 C   0  0  0  0  0  0
  -23.8993  -10.4204   21.0414 C   0  0  0  0  0  0
  -24.3555   -9.4150   21.9203 C   0  0  0  0  0  0
  -23.6259   -8.2187   22.0763 C   0  0  0  0  0  0
  -22.4271   -8.0194   21.3531 C   0  0  0  0  0  0
  -21.9853   -9.0144   20.4657 C   0  0  0  0  0  0
  -22.7145  -10.2043   20.3092 C   0  0  0  0  0  0
  -21.6840   -6.0692   22.5250 C   0  0  0  0  0  0
  -21.3993   -6.5631   23.8157 C   0  0  0  0  0  0
  -21.3640   -5.6792   24.9127 C   0  0  0  0  0  0
  -21.6051   -4.3055   24.7197 C   0  0  0  0  0  0
  -21.8855   -3.8132   23.4335 C   0  0  0  0  0  0
  -21.9202   -4.6931   22.3383 C   0  0  0  0  0  0
  -22.7827  -13.5138   21.1846 C   0  0  0  0  0  0
  -22.1705   -4.2132   21.0954 F   0  0  0  0  0  0
  -21.5603   -3.4540   25.7715 F   0  0  0  0  0  0
  -29.9917  -13.5634   20.3701 N   0  0  0  0  0  0
  -26.2881  -12.9212   20.3215 N   0  0  0  0  0  0
  -25.9286  -11.6388   20.5777 N   0  0  0  0  0  0
  -22.0454  -12.8108   22.0395 N   0  0  0  0  0  0
  -25.4106  -15.1576   20.3934 N   0  0  0  0  0  0
  -31.8541  -14.8295   20.2311 O   0  0  0  0  0  0
  -21.6628   -6.8821   21.4223 O   0  0  0  0  0  0
  -22.3552  -14.5466   20.6684 O   0  0  0  0  0  0
  -24.6267  -31.8533   23.1976 C   0  0  0  0  0  0
  -25.9077  -32.4764   23.8341 C   0  0  1  0  0  0
  -27.2526  -27.2947   20.1429 C   0  0  0  0  0  0
  -25.5868  -33.8552   24.2276 N   0  0  0  0  0  0
  -23.4288  -30.4689   21.5377 C   0  0  2  0  0  0
  -24.8870  -28.9199   20.1144 C   0  0  0  0  0  0
  -22.7519  -29.4539   22.4911 C   0  0  0  0  0  0
  -18.0307  -28.1340   22.8497 C   0  0  0  0  0  0
  -24.1464  -36.7229   23.2640 C   0  0  0  0  0  0
  -25.9717  -30.7810   21.3808 C   0  0  0  0  0  0
  -26.0540  -29.4067   20.7178 C   0  0  0  0  0  0
  -27.2362  -28.6082   20.7177 C   0  0  0  0  0  0
  -26.0606  -26.8656   19.5155 C   0  0  0  0  0  0
  -24.8960  -27.6597   19.4985 C   0  0  0  0  0  0
  -23.6535  -29.7983   20.1582 C   0  0  0  0  0  0
  -25.4099  -36.3061   24.0351 C   0  0  1  0  0  0
  -20.5904  -28.3635   23.1259 C   0  0  2  0  0  0
  -20.6800  -26.9349   22.5386 C   0  0  0  0  0  0
  -19.5769  -26.6350   21.5200 C   0  0  0  0  0  0
  -18.1946  -26.7889   22.1614 C   0  0  0  0  0  0
  -19.1557  -28.8812   23.2872 C   0  0  0  0  0  0
  -18.9485  -30.1439   23.8873 C   0  0  0  0  0  0
  -17.6482  -30.6564   24.0551 C   0  0  0  0  0  0
  -25.9017  -34.9435   23.5120 C   0  0  0  0  0  0
  -16.5379  -29.9042   23.6342 C   0  0  0  0  0  0
  -16.7295  -28.6455   23.0378 C   0  0  0  0  0  0
  -26.4493  -31.6571   25.0712 C   0  0  0  0  0  0
  -25.3758  -31.3641   26.1459 C   0  0  0  0  0  0
  -27.0370  -30.2999   24.6185 C   0  0  0  0  0  0
  -27.6050  -32.4348   25.7449 C   0  0  0  0  0  0
  -27.5574  -37.1758   24.8488 C   0  0  0  0  0  0
  -21.4235  -29.2958   22.3627 N   0  0  0  0  0  0
  -26.4269  -37.3772   23.9437 N   0  0  0  0  0  0
  -24.6919  -31.0518   22.0944 N   0  0  0  0  0  0
  -23.4218  -28.8101   23.3031 O   0  0  0  0  0  0
  -28.3837  -26.4525   20.2114 O   0  0  0  0  0  0
  -26.5576  -34.8908   22.4687 O   0  0  0  0  0  0
  -23.5396  -32.1316   23.7249 O   0  0  0  0  0  0
  -28.1832  -19.6778   17.7007 C   0  0  0  0  0  0
  -27.4124  -18.8061   18.4889 C   0  0  0  0  0  0
  -29.3147  -20.2723   18.2741 C   0  0  0  0  0  0
  -29.2510  -18.6400   20.1100 C   0  0  0  0  0  0
  -27.9122  -18.3683   19.7379 C   0  0  0  0  0  0
  -29.7144  -19.9179   19.5811 C   0  0  0  0  0  0
  -30.1201  -17.3810   20.4312 C   0  0  0  0  0  0
  -29.7770  -16.0356   20.2742 C   0  0  0  0  0  0
  -30.4134  -24.4126   21.4920 C   0  0  0  0  0  0
  -30.8143  -24.4366   20.0400 C   0  0  0  0  0  0
  -29.4163  -23.9787   20.4289 C   0  0  0  0  0  0
  -26.9688  -17.7701   20.7550 C   0  0  0  0  0  0
  -30.0909  -21.2126   20.4008 C   0  0  0  0  0  0
  -29.0183  -22.4352   20.3583 C   0  0  0  0  0  0
  -28.2300  -24.9756   20.0571 C   0  0  0  0  0  0
  -31.4654  -12.6022   19.1335 H   0  0  0  0  0  0
  -30.3864  -11.5172   19.9685 H   0  0  0  0  0  0
  -29.7753  -11.7005   17.5302 H   0  0  0  0  0  0
  -29.6134  -13.4310   17.6834 H   0  0  0  0  0  0
  -27.9034  -11.2534   18.9431 H   0  0  0  0  0  0
  -27.3588  -12.4487   17.7951 H   0  0  0  0  0  0
  -27.5804  -14.2173   19.3905 H   0  0  0  0  0  0
  -28.7181  -12.2775   21.4697 H   0  0  0  0  0  0
  -28.4067  -13.9819   21.7060 H   0  0  0  0  0  0
  -25.2735   -9.5623   22.4726 H   0  0  0  0  0  0
  -23.9957   -7.4581   22.7491 H   0  0  0  0  0  0
  -21.0787   -8.8666   19.8954 H   0  0  0  0  0  0
  -22.3622  -10.9573   19.6186 H   0  0  0  0  0  0
  -21.2003   -7.6145   23.9665 H   0  0  0  0  0  0
  -21.1417   -6.0510   25.9019 H   0  0  0  0  0  0
  -22.0664   -2.7605   23.2818 H   0  0  0  0  0  0
  -22.4130  -11.9723   22.4668 H   0  0  0  0  0  0
  -21.1113  -13.1142   22.2752 H   0  0  0  0  0  0
  -24.6411  -15.8105   20.4870 H   0  0  0  0  0  0
  -26.2433  -15.5822   20.0104 H   0  0  0  0  0  0
  -26.7134  -32.5477   23.1077 H   0  0  0  0  0  0
  -25.0124  -33.9681   25.0500 H   0  0  0  0  0  0
  -22.7276  -31.2891   21.3834 H   0  0  0  0  0  0
  -23.3765  -35.9526   23.3338 H   0  0  0  0  0  0
  -24.3529  -36.8796   22.2042 H   0  0  0  0  0  0
  -23.7181  -37.6427   23.6639 H   0  0  0  0  0  0
  -26.1198  -31.5566   20.6286 H   0  0  0  0  0  0
  -26.8422  -30.8205   22.0244 H   0  0  0  0  0  0
  -28.1353  -28.9785   21.1899 H   0  0  0  0  0  0
  -26.0126  -25.8981   19.0374 H   0  0  0  0  0  0
  -23.9980  -27.2878   19.0203 H   0  0  0  0  0  0
  -23.7798  -30.5718   19.3996 H   0  0  0  0  0  0
  -22.7859  -29.2112   19.8546 H   0  0  0  0  0  0
  -25.1276  -36.1915   25.0837 H   0  0  0  0  0  0
  -21.0000  -28.3215   24.1389 H   0  0  0  0  0  0
  -20.5690  -26.2245   23.3580 H   0  0  0  0  0  0
  -21.6664  -26.7358   22.1179 H   0  0  0  0  0  0
  -19.6905  -25.6261   21.1237 H   0  0  0  0  0  0
  -19.6713  -27.3172   20.6739 H   0  0  0  0  0  0
  -17.4219  -26.6655   21.4013 H   0  0  0  0  0  0
  -18.0323  -26.0007   22.8980 H   0  0  0  0  0  0
  -19.7975  -30.7247   24.2208 H   0  0  0  0  0  0
  -17.5054  -31.6254   24.5118 H   0  0  0  0  0  0
  -15.5372  -30.2938   23.7655 H   0  0  0  0  0  0
  -15.8714  -28.0749   22.7102 H   0  0  0  0  0  0
  -24.5968  -30.6950   25.7783 H   0  0  0  0  0  0
  -24.8912  -32.2775   26.4919 H   0  0  0  0  0  0
  -25.8108  -30.8803   27.0219 H   0  0  0  0  0  0
  -26.2907  -29.6704   24.1325 H   0  0  0  0  0  0
  -27.4188  -29.7306   25.4671 H   0  0  0  0  0  0
  -27.8740  -30.4278   23.9335 H   0  0  0  0  0  0
  -27.2647  -33.3681   26.1968 H   0  0  0  0  0  0
  -28.3849  -32.6871   25.0257 H   0  0  0  0  0  0
  -28.0772  -31.8555   26.5410 H   0  0  0  0  0  0
  -28.2598  -38.0053   24.7564 H   0  0  0  0  0  0
  -28.1066  -36.2584   24.6291 H   0  0  0  0  0  0
  -27.2291  -37.1383   25.8891 H   0  0  0  0  0  0
  -20.9405  -29.8613   21.6762 H   0  0  0  0  0  0
  -26.0165  -38.2833   24.1501 H   0  0  0  0  0  0
  -27.8130  -20.0535   16.7550 H   0  0  0  0  0  0
  -26.4209  -18.5351   18.1447 H   0  0  0  0  0  0
  -29.7080  -21.1641   17.8015 H   0  0  0  0  0  0
  -31.1195  -17.5862   20.7970 H   0  0  0  0  0  0
  -28.7780  -15.8532   19.9294 H   0  0  0  0  0  0
  -30.2518  -25.3702   21.9858 H   0  0  0  0  0  0
  -30.8609  -23.6393   22.1147 H   0  0  0  0  0  0
  -31.5531  -23.7060   19.7241 H   0  0  0  0  0  0
  -30.9107  -25.4106   19.5592 H   0  0  0  0  0  0
  -25.9805  -17.6282   20.3223 H   0  0  0  0  0  0
  -26.8318  -18.4824   21.5699 H   0  0  0  0  0  0
  -27.3330  -16.8434   21.1936 H   0  0  0  0  0  0
  -31.0338  -21.5546   19.9763 H   0  0  0  0  0  0
  -30.3169  -20.9346   21.4310 H   0  0  0  0  0  0
  -28.4318  -22.3504   19.4499 H   0  0  0  0  0  0
  -28.2983  -22.2530   21.1535 H   0  0  0  0  0  0
  -27.9899  -24.7865   19.0096 H   0  0  0  0  0  0
  -27.3505  -24.6534   20.6199 H   0  0  0  0  0  0
  1 25  1  0  0  0
  1 30  2  0  0  0
  1 78  1  0  0  0
  2  3  1  0  0  0
  2 25  1  0  0  0
  2 86  1  0  0  0
  2 87  1  0  0  0
  3  4  1  0  0  0
  3 88  1  0  0  0
  3 89  1  0  0  0
  4  5  1  0  0  0
  4 90  1  0  0  0
  4 91  1  0  0  0
  5  6  1  0  0  0
  5 26  1  0  0  0
  5 92  1  0  0  0
  6 25  1  0  0  0
  6 93  1  0  0  0
  6 94  1  0  0  0
  7  8  2  0  0  0
  7 26  1  0  0  0
  7 29  1  0  0  0
  8  9  1  0  0  0
  8 22  1  0  0  0
  9 10  1  0  0  0
  9 27  2  0  0  0
 10 11  2  0  0  0
 10 15  1  0  0  0
 11 12  1  0  0  0
 11 95  1  0  0  0
 12 13  2  0  0  0
 12 96  1  0  0  0
 13 14  1  0  0  0
 13 31  1  0  0  0
 14 15  2  0  0  0
 14 97  1  0  0  0
 15 98  1  0  0  0
 16 17  2  0  0  0
 16 21  1  0  0  0
 16 31  1  0  0  0
 17 18  1  0  0  0
 17 99  1  0  0  0
 18 19  2  0  0  0
 18100  1  0  0  0
 19 20  1  0  0  0
 19 24  1  0  0  0
 20 21  2  0  0  0
 20101  1  0  0  0
 21 23  1  0  0  0
 22 28  1  0  0  0
 22 32  2  0  0  0
 26 27  1  0  0  0
 28102  1  0  0  0
 28103  1  0  0  0
 29104  1  0  0  0
 29105  1  0  0  0
 33 34  1  0  0  0
 33 66  1  0  0  0
 33 70  2  0  0  0
 34 36  1  0  0  0
 34 59  1  0  0  0
 34106  1  0  0  0
 35 44  2  0  0  0
 35 45  1  0  0  0
 35 68  1  0  0  0
 36 56  1  0  0  0
 36107  1  0  0  0
 37 39  1  0  0  0
 37 47  1  0  0  0
 37 66  1  0  0  0
 37108  1  0  0  0
 38 43  2  0  0  0
 38 46  1  0  0  0
 38 47  1  0  0  0
 39 64  1  0  0  0
 39 67  2  0  0  0
 40 52  1  0  0  0
 40 53  2  0  0  0
 40 58  1  0  0  0
 41109  1  0  0  0
 41110  1  0  0  0
 41111  1  0  0  0
 41 48  1  0  0  0
 42 43  1  0  0  0
 42 66  1  0  0  0
 42112  1  0  0  0
 42113  1  0  0  0
 43 44  1  0  0  0
 44114  1  0  0  0
 45 46  2  0  0  0
 45115  1  0  0  0
 46116  1  0  0  0
 47117  1  0  0  0
 47118  1  0  0  0
 48 56  1  0  0  0
 48 65  1  0  0  0
 48119  1  0  0  0
 49 50  1  0  0  0
 49 53  1  0  0  0
 49 64  1  0  0  0
 49120  1  0  0  0
 50 51  1  0  0  0
 50121  1  0  0  0
 50122  1  0  0  0
 51 52  1  0  0  0
 51123  1  0  0  0
 51124  1  0  0  0
 52125  1  0  0  0
 52126  1  0  0  0
 53 54  1  0  0  0
 54 55  2  0  0  0
 54127  1  0  0  0
 55 57  1  0  0  0
 55128  1  0  0  0
 56 69  2  0  0  0
 57 58  2  0  0  0
 57129  1  0  0  0
 58130  1  0  0  0
 59 60  1  0  0  0
 59 61  1  0  0  0
 59 62  1  0  0  0
 60131  1  0  0  0
 60132  1  0  0  0
 60133  1  0  0  0
 61134  1  0  0  0
 61135  1  0  0  0
 61136  1  0  0  0
 62137  1  0  0  0
 62138  1  0  0  0
 62139  1  0  0  0
 63 65  1  0  0  0
 63140  1  0  0  0
 63141  1  0  0  0
 63142  1  0  0  0
 64143  1  0  0  0
 65144  1  0  0  0
 68 85  1  0  0  0
 71 72  2  0  0  0
 71 73  1  0  0  0
 71145  1  0  0  0
 72 75  1  0  0  0
 72146  1  0  0  0
 73 76  2  0  0  0
 73147  1  0  0  0
 74 75  2  0  0  0
 74 76  1  0  0  0
 74 77  1  0  0  0
 75 82  1  0  0  0
 76 83  1  0  0  0
 77 78  2  0  0  0
 77148  1  0  0  0
 78149  1  0  0  0
 79 80  1  0  0  0
 79 81  1  0  0  0
 79150  1  0  0  0
 79151  1  0  0  0
 80 81  1  0  0  0
 80152  1  0  0  0
 80153  1  0  0  0
 81 84  1  0  0  0
 81 85  1  0  0  0
 82154  1  0  0  0
 82155  1  0  0  0
 82156  1  0  0  0
 83 84  1  0  0  0
 83157  1  0  0  0
 83158  1  0  0  0
 84159  1  0  0  0
 84160  1  0  0  0
 85161  1  0  0  0
 85162  1  0  0  0
M  ISO  4   1 100  68 101  78 100  85 101
M  END
> <chiral flag>
0

> <version>
0

> <s_m_source_file>
/data/baiqing/PycharmProjects/Reinvent-master-3.2/result/LINK_invent/BTK/process_docking_weight1_custom_product_contain_oxygen_bond_distance_aromatic_linkinvent_7_9_3/rearranged_h_0127.sdf

> <i_m_source_file_index>
81

> <r_mmod_Potential_Energy-OPLS-2005>
485.298004150391

> <r_mmod_Stretch_Energy-OPLS-2005>
123.801742553711

> <r_mmod_Bend_Energy-OPLS-2005>
168.363525390625

> <r_mmod_Torsional_Energy-OPLS-2005>
450.343780517578

> <r_mmod_Improper_Torsional_Energy-OPLS-2005>
25.7824115753174

> <r_mmod_Van_der_Waal_Energy-OPLS-2005>
148.099548339844

> <r_mmod_Electrostatic_Energy-OPLS-2005>
-340.513153076172

> <r_mmod_Solvation_Energy-OPLS-2005>
-184.571319580078

> <b_mmod_Minimization_Converged-OPLS-2005>
0

> <r_mmod_RMS_Derivative-OPLS-2005>
6.11020517349243

$$$$
81
                    3D
 Structure written by MMmdl.
153161  0  0  1  0            999 V2000
  -30.5468  -14.9147   20.4148 C   0  0  0  0  0  0
  -30.4385  -12.5535   19.5100 C   0  0  0  0  0  0
  -29.5326  -12.5414   18.2574 C   0  0  0  0  0  0
  -28.0571  -12.3390   18.6582 C   0  0  0  0  0  0
  -27.6350  -13.2499   19.8415 C   0  0  2  0  0  0
  -28.6734  -13.2476   20.9842 C   0  0  0  0  0  0
  -25.2454  -13.8204   20.5644 C   0  0  0  0  0  0
  -24.1776  -13.0426   20.9181 C   0  0  0  0  0  0
  -24.6392  -11.6914   20.8694 C   0  0  0  0  0  0
  -23.9053  -10.4290   21.0367 C   0  0  0  0  0  0
  -24.3603   -9.4213   21.9162 C   0  0  0  0  0  0
  -23.6287   -8.2244   22.0748 C   0  0  0  0  0  0
  -22.4266   -8.0266   21.3542 C   0  0  0  0  0  0
  -21.9887   -9.0233   20.4646 C   0  0  0  0  0  0
  -22.7210  -10.2123   20.3043 C   0  0  0  0  0  0
  -21.6857   -6.0715   22.5281 C   0  0  0  0  0  0
  -21.4017   -6.5622   23.8218 C   0  0  0  0  0  0
  -21.3669   -5.6779   24.9178 C   0  0  0  0  0  0
  -21.6057   -4.3038   24.7229 C   0  0  0  0  0  0
  -21.8819   -3.8128   23.4353 C   0  0  0  0  0  0
  -21.9190   -4.6942   22.3401 C   0  0  0  0  0  0
  -22.7799  -13.5211   21.1861 C   0  0  0  0  0  0
  -22.1652   -4.2126   21.0978 F   0  0  0  0  0  0
  -21.5633   -3.4524   25.7745 F   0  0  0  0  0  0
  -29.9618  -13.6494   20.4023 N   0  0  0  0  0  0
  -26.2896  -12.9449   20.3197 N   0  0  0  0  0  0
  -25.9330  -11.6565   20.5679 N   0  0  0  0  0  0
  -22.0433  -12.8243   22.0434 N   0  0  0  0  0  0
  -25.4087  -15.1933   20.4039 N   0  0  0  0  0  0
  -31.7339  -14.9960   20.0808 O   0  0  0  0  0  0
  -21.6640   -6.8859   21.4250 O   0  0  0  0  0  0
  -22.3492  -14.5516   20.6697 O   0  0  0  0  0  0
  -24.6473  -31.8467   23.1903 C   0  0  0  0  0  0
  -25.9237  -32.4707   23.8316 C   0  0  1  0  0  0
  -27.2097  -27.1284   20.1372 C   0  0  0  0  0  0
  -25.5986  -33.8514   24.2226 N   0  0  0  0  0  0
  -23.4522  -30.4681   21.5370 C   0  0  2  0  0  0
  -24.8996  -28.9025   20.1065 C   0  0  0  0  0  0
  -22.7603  -29.4582   22.4868 C   0  0  0  0  0  0
  -18.0324  -28.1421   22.8469 C   0  0  0  0  0  0
  -24.1498  -36.7248   23.2637 C   0  0  0  0  0  0
  -26.0121  -30.7106   21.3992 C   0  0  0  0  0  0
  -26.0789  -29.3260   20.7316 C   0  0  0  0  0  0
  -27.2348  -28.4545   20.7348 C   0  0  0  0  0  0
  -26.0080  -26.8262   19.4538 C   0  0  0  0  0  0
  -24.8783  -27.6666   19.4506 C   0  0  0  0  0  0
  -23.6775  -29.8040   20.1550 C   0  0  0  0  0  0
  -25.4128  -36.3043   24.0323 C   0  0  1  0  0  0
  -20.5940  -28.3760   23.1212 C   0  0  2  0  0  0
  -20.6828  -26.9464   22.5394 C   0  0  0  0  0  0
  -19.5793  -26.6403   21.5219 C   0  0  0  0  0  0
  -18.1973  -26.7960   22.1626 C   0  0  0  0  0  0
  -19.1582  -28.8908   23.2833 C   0  0  0  0  0  0
  -18.9495  -30.1500   23.8864 C   0  0  0  0  0  0
  -17.6491  -30.6610   24.0557 C   0  0  0  0  0  0
  -25.9089  -34.9413   23.5081 C   0  0  0  0  0  0
  -16.5383  -29.9095   23.6347 C   0  0  0  0  0  0
  -16.7307  -28.6518   23.0360 C   0  0  0  0  0  0
  -26.4536  -31.6567   25.0761 C   0  0  0  0  0  0
  -25.3710  -31.3776   26.1459 C   0  0  0  0  0  0
  -27.0373  -30.2941   24.6383 C   0  0  0  0  0  0
  -27.6116  -32.4302   25.7505 C   0  0  0  0  0  0
  -27.5583  -37.1784   24.8459 C   0  0  0  0  0  0
  -21.4297  -29.3065   22.3575 N   0  0  0  0  0  0
  -26.4296  -37.3752   23.9405 N   0  0  0  0  0  0
  -24.7237  -31.0308   22.0951 N   0  0  0  0  0  0
  -23.4229  -28.8154   23.3055 O   0  0  0  0  0  0
  -28.2271  -26.1003   20.2276 O   0  0  0  0  0  0
  -26.5672  -34.8901   22.4658 O   0  0  0  0  0  0
  -23.5584  -32.1367   23.7094 O   0  0  0  0  0  0
  -28.6692  -21.0054   21.5387 C   0  0  0  0  0  0
  -28.3858  -22.4246   21.3992 C   0  0  0  0  0  0
  -29.1137  -22.3181   19.1703 C   0  0  0  0  0  0
  -29.1657  -20.1274   20.5094 C   0  0  0  0  0  0
  -28.5689  -23.1748   20.1948 C   0  0  0  0  0  0
  -29.3925  -20.8857   19.2976 C   0  0  0  0  0  0
  -29.2653  -18.5408   20.7851 C   0  0  0  0  0  0
  -31.3704  -20.1383   17.8779 C   0  0  0  0  0  0
  -29.8457  -20.1674   18.0331 C   0  0  0  0  0  0
  -27.8448  -24.6308   19.8853 C   0  0  0  0  0  0
  -29.9859  -17.5189   20.2881 N   0  0  0  0  0  0
  -29.7657  -16.0816   20.6405 N   0  0  0  0  0  0
  -31.4827  -12.6840   19.2202 H   0  0  0  0  0  0
  -30.3934  -11.5917   20.0213 H   0  0  0  0  0  0
  -29.8481  -11.7595   17.5641 H   0  0  0  0  0  0
  -29.6420  -13.4873   17.7254 H   0  0  0  0  0  0
  -27.9311  -11.2919   18.9329 H   0  0  0  0  0  0
  -27.4076  -12.5103   17.7995 H   0  0  0  0  0  0
  -27.6097  -14.2608   19.4331 H   0  0  0  0  0  0
  -28.7426  -12.2618   21.4457 H   0  0  0  0  0  0
  -28.3760  -13.9373   21.7749 H   0  0  0  0  0  0
  -25.2728   -9.5729   22.4739 H   0  0  0  0  0  0
  -23.9993   -7.4658   22.7492 H   0  0  0  0  0  0
  -21.0796   -8.8759   19.8977 H   0  0  0  0  0  0
  -22.3631  -10.9653   19.6162 H   0  0  0  0  0  0
  -21.2015   -7.6131   23.9716 H   0  0  0  0  0  0
  -21.1493   -6.0499   25.9085 H   0  0  0  0  0  0
  -22.0593   -2.7586   23.2849 H   0  0  0  0  0  0
  -22.3972  -11.9879   22.4824 H   0  0  0  0  0  0
  -21.1084  -13.1371   22.2666 H   0  0  0  0  0  0
  -24.6227  -15.8300   20.4740 H   0  0  0  0  0  0
  -26.2437  -15.6341   20.0378 H   0  0  0  0  0  0
  -26.7316  -32.5292   23.1055 H   0  0  0  0  0  0
  -25.0104  -33.9645   25.0355 H   0  0  0  0  0  0
  -22.7549  -31.2949   21.3856 H   0  0  0  0  0  0
  -23.3791  -35.9552   23.3282 H   0  0  0  0  0  0
  -24.3588  -36.8898   22.2057 H   0  0  0  0  0  0
  -23.7223  -37.6428   23.6680 H   0  0  0  0  0  0
  -26.1872  -31.4700   20.6368 H   0  0  0  0  0  0
  -26.8742  -30.7452   22.0530 H   0  0  0  0  0  0
  -28.1279  -28.7693   21.2559 H   0  0  0  0  0  0
  -25.8860  -25.8940   18.9251 H   0  0  0  0  0  0
  -23.9842  -27.3406   18.9375 H   0  0  0  0  0  0
  -23.8121  -30.5811   19.4018 H   0  0  0  0  0  0
  -22.7917  -29.2464   19.8467 H   0  0  0  0  0  0
  -25.1315  -36.1884   25.0819 H   0  0  0  0  0  0
  -21.0027  -28.3375   24.1337 H   0  0  0  0  0  0
  -20.5787  -26.2385   23.3627 H   0  0  0  0  0  0
  -21.6691  -26.7511   22.1161 H   0  0  0  0  0  0
  -19.6972  -25.6306   21.1282 H   0  0  0  0  0  0
  -19.6727  -27.3192   20.6731 H   0  0  0  0  0  0
  -17.4252  -26.6695   21.4022 H   0  0  0  0  0  0
  -18.0364  -26.0119   22.9036 H   0  0  0  0  0  0
  -19.7969  -30.7324   24.2223 H   0  0  0  0  0  0
  -17.5046  -31.6287   24.5167 H   0  0  0  0  0  0
  -15.5385  -30.2983   23.7697 H   0  0  0  0  0  0
  -15.8713  -28.0826   22.7085 H   0  0  0  0  0  0
  -24.5807  -30.7251   25.7723 H   0  0  0  0  0  0
  -24.9008  -32.2976   26.4948 H   0  0  0  0  0  0
  -25.7956  -30.8829   27.0206 H   0  0  0  0  0  0
  -26.2976  -29.6674   24.1387 H   0  0  0  0  0  0
  -27.3928  -29.7252   25.4986 H   0  0  0  0  0  0
  -27.8939  -30.4136   23.9745 H   0  0  0  0  0  0
  -27.2769  -33.3612   26.2089 H   0  0  0  0  0  0
  -28.3902  -32.6842   25.0298 H   0  0  0  0  0  0
  -28.0828  -31.8425   26.5395 H   0  0  0  0  0  0
  -28.2599  -38.0084   24.7523 H   0  0  0  0  0  0
  -28.1090  -36.2621   24.6268 H   0  0  0  0  0  0
  -27.2314  -37.1408   25.8866 H   0  0  0  0  0  0
  -20.9555  -29.8686   21.6642 H   0  0  0  0  0  0
  -26.0174  -38.2835   24.1391 H   0  0  0  0  0  0
  -28.4330  -20.5613   22.4954 H   0  0  0  0  0  0
  -27.9294  -22.9283   22.2403 H   0  0  0  0  0  0
  -29.2458  -22.7600   18.1921 H   0  0  0  0  0  0
  -28.5869  -18.2406   21.5853 H   0  0  0  0  0  0
  -31.6512  -19.7191   16.9101 H   0  0  0  0  0  0
  -31.8312  -19.5282   18.6535 H   0  0  0  0  0  0
  -31.7963  -21.1396   17.9380 H   0  0  0  0  0  0
  -29.4079  -20.6628   17.1661 H   0  0  0  0  0  0
  -29.4462  -19.1531   18.0128 H   0  0  0  0  0  0
  -26.8584  -24.4789   20.3260 H   0  0  0  0  0  0
  -27.6865  -24.6202   18.8063 H   0  0  0  0  0  0
  -28.8464  -15.9003   21.0200 H   0  0  0  0  0  0
  1 25  1  0  0  0
  1 30  2  0  0  0
  1 82  1  0  0  0
  2  3  1  0  0  0
  2 25  1  0  0  0
  2 83  1  0  0  0
  2 84  1  0  0  0
  3  4  1  0  0  0
  3 85  1  0  0  0
  3 86  1  0  0  0
  4  5  1  0  0  0
  4 87  1  0  0  0
  4 88  1  0  0  0
  5  6  1  0  0  0
  5 26  1  0  0  0
  5 89  1  0  0  0
  6 25  1  0  0  0
  6 90  1  0  0  0
  6 91  1  0  0  0
  7  8  2  0  0  0
  7 26  1  0  0  0
  7 29  1  0  0  0
  8  9  1  0  0  0
  8 22  1  0  0  0
  9 10  1  0  0  0
  9 27  2  0  0  0
 10 11  2  0  0  0
 10 15  1  0  0  0
 11 12  1  0  0  0
 11 92  1  0  0  0
 12 13  2  0  0  0
 12 93  1  0  0  0
 13 14  1  0  0  0
 13 31  1  0  0  0
 14 15  2  0  0  0
 14 94  1  0  0  0
 15 95  1  0  0  0
 16 17  2  0  0  0
 16 21  1  0  0  0
 16 31  1  0  0  0
 17 18  1  0  0  0
 17 96  1  0  0  0
 18 19  2  0  0  0
 18 97  1  0  0  0
 19 20  1  0  0  0
 19 24  1  0  0  0
 20 21  2  0  0  0
 20 98  1  0  0  0
 21 23  1  0  0  0
 22 28  1  0  0  0
 22 32  2  0  0  0
 26 27  1  0  0  0
 28 99  1  0  0  0
 28100  1  0  0  0
 29101  1  0  0  0
 29102  1  0  0  0
 33 34  1  0  0  0
 33 66  1  0  0  0
 33 70  2  0  0  0
 34 36  1  0  0  0
 34 59  1  0  0  0
 34103  1  0  0  0
 35 44  2  0  0  0
 35 45  1  0  0  0
 35 68  1  0  0  0
 36 56  1  0  0  0
 36104  1  0  0  0
 37 39  1  0  0  0
 37 47  1  0  0  0
 37 66  1  0  0  0
 37105  1  0  0  0
 38 43  2  0  0  0
 38 46  1  0  0  0
 38 47  1  0  0  0
 39 64  1  0  0  0
 39 67  2  0  0  0
 40 52  1  0  0  0
 40 53  2  0  0  0
 40 58  1  0  0  0
 41106  1  0  0  0
 41107  1  0  0  0
 41108  1  0  0  0
 41 48  1  0  0  0
 42 43  1  0  0  0
 42 66  1  0  0  0
 42109  1  0  0  0
 42110  1  0  0  0
 43 44  1  0  0  0
 44111  1  0  0  0
 45 46  2  0  0  0
 45112  1  0  0  0
 46113  1  0  0  0
 47114  1  0  0  0
 47115  1  0  0  0
 48 56  1  0  0  0
 48 65  1  0  0  0
 48116  1  0  0  0
 49 50  1  0  0  0
 49 53  1  0  0  0
 49 64  1  0  0  0
 49117  1  0  0  0
 50 51  1  0  0  0
 50118  1  0  0  0
 50119  1  0  0  0
 51 52  1  0  0  0
 51120  1  0  0  0
 51121  1  0  0  0
 52122  1  0  0  0
 52123  1  0  0  0
 53 54  1  0  0  0
 54 55  2  0  0  0
 54124  1  0  0  0
 55 57  1  0  0  0
 55125  1  0  0  0
 56 69  2  0  0  0
 57 58  2  0  0  0
 57126  1  0  0  0
 58127  1  0  0  0
 59 60  1  0  0  0
 59 61  1  0  0  0
 59 62  1  0  0  0
 60128  1  0  0  0
 60129  1  0  0  0
 60130  1  0  0  0
 61131  1  0  0  0
 61132  1  0  0  0
 61133  1  0  0  0
 62134  1  0  0  0
 62135  1  0  0  0
 62136  1  0  0  0
 63 65  1  0  0  0
 63137  1  0  0  0
 63138  1  0  0  0
 63139  1  0  0  0
 64140  1  0  0  0
 65141  1  0  0  0
 68 80  1  0  0  0
 71 72  2  0  0  0
 71 74  1  0  0  0
 71142  1  0  0  0
 72 75  1  0  0  0
 72143  1  0  0  0
 73 75  2  0  0  0
 73 76  1  0  0  0
 73144  1  0  0  0
 74 76  2  0  0  0
 74 77  1  0  0  0
 75 80  1  0  0  0
 76 79  1  0  0  0
 77 81  2  0  0  0
 77145  1  0  0  0
 78 79  1  0  0  0
 78146  1  0  0  0
 78147  1  0  0  0
 78148  1  0  0  0
 79149  1  0  0  0
 79150  1  0  0  0
 80151  1  0  0  0
 80152  1  0  0  0
 81 82  1  0  0  0
 82153  1  0  0  0
M  ISO  4   1 100  68 101  80 101  82 100
M  END
> <chiral flag>
0

> <version>
0

> <s_m_source_file>
/data/baiqing/PycharmProjects/Reinvent-master-3.2/result/LINK_invent/BTK/process_docking_weight1_custom_product_contain_oxygen_bond_distance_aromatic_linkinvent_7_9_3/rearranged_h_0127.sdf

> <i_m_source_file_index>
82

> <r_mmod_Potential_Energy-OPLS-2005>
561.454162597656

> <r_mmod_Stretch_Energy-OPLS-2005>
238.583786010742

> <r_mmod_Bend_Energy-OPLS-2005>
255.544799804688

> <r_mmod_Torsional_Energy-OPLS-2005>
228.567413330078

> <r_mmod_Improper_Torsional_Energy-OPLS-2005>
8.63611030578613

> <r_mmod_Van_der_Waal_Energy-OPLS-2005>
137.229125976562

> <r_mmod_Electrostatic_Energy-OPLS-2005>
-275.197479248047

> <r_mmod_Solvation_Energy-OPLS-2005>
-220.57502746582

> <b_mmod_Minimization_Converged-OPLS-2005>
0

> <r_mmod_RMS_Derivative-OPLS-2005>
2.5402500629425

$$$$
82
                    3D
 Structure written by MMmdl.
154162  0  0  1  0            999 V2000
  -30.5929  -14.6424   20.5023 C   0  0  0  0  0  0
  -30.4433  -12.3915   19.4530 C   0  0  0  0  0  0
  -29.5082  -12.4905   18.2257 C   0  0  0  0  0  0
  -28.0343  -12.3225   18.6445 C   0  0  0  0  0  0
  -27.6530  -13.2033   19.8619 C   0  0  2  0  0  0
  -28.6940  -13.0513   20.9935 C   0  0  0  0  0  0
  -25.2528  -13.8088   20.5535 C   0  0  0  0  0  0
  -24.1818  -13.0405   20.9184 C   0  0  0  0  0  0
  -24.6381  -11.6882   20.8768 C   0  0  0  0  0  0
  -23.9039  -10.4278   21.0427 C   0  0  0  0  0  0
  -24.3608   -9.4201   21.9196 C   0  0  0  0  0  0
  -23.6290   -8.2229   22.0754 C   0  0  0  0  0  0
  -22.4266   -8.0265   21.3544 C   0  0  0  0  0  0
  -21.9898   -9.0237   20.4646 C   0  0  0  0  0  0
  -22.7215  -10.2120   20.3075 C   0  0  0  0  0  0
  -21.6841   -6.0730   22.5283 C   0  0  0  0  0  0
  -21.3989   -6.5640   23.8213 C   0  0  0  0  0  0
  -21.3661   -5.6788   24.9174 C   0  0  0  0  0  0
  -21.6053   -4.3053   24.7220 C   0  0  0  0  0  0
  -21.8825   -3.8143   23.4343 C   0  0  0  0  0  0
  -21.9194   -4.6960   22.3404 C   0  0  0  0  0  0
  -22.7851  -13.5226   21.1843 C   0  0  0  0  0  0
  -22.1669   -4.2155   21.0980 F   0  0  0  0  0  0
  -21.5649   -3.4536   25.7730 F   0  0  0  0  0  0
  -30.0091  -13.4048   20.4348 N   0  0  0  0  0  0
  -26.2975  -12.9271   20.3273 N   0  0  0  0  0  0
  -25.9311  -11.6454   20.5811 N   0  0  0  0  0  0
  -22.0499  -12.8225   22.0409 N   0  0  0  0  0  0
  -25.4142  -15.1760   20.3654 N   0  0  0  0  0  0
  -31.7509  -14.8262   20.1101 O   0  0  0  0  0  0
  -21.6641   -6.8858   21.4237 O   0  0  0  0  0  0
  -22.3551  -14.5546   20.6707 O   0  0  0  0  0  0
  -24.6265  -31.8607   23.2080 C   0  0  0  0  0  0
  -25.9107  -32.4791   23.8386 C   0  0  1  0  0  0
  -27.2128  -27.3361   20.1158 C   0  0  0  0  0  0
  -25.5941  -33.8590   24.2313 N   0  0  0  0  0  0
  -23.4186  -30.4890   21.5488 C   0  0  2  0  0  0
  -24.8609  -28.9512   20.1094 C   0  0  0  0  0  0
  -22.7485  -29.4617   22.4928 C   0  0  0  0  0  0
  -18.0287  -28.1394   22.8501 C   0  0  0  0  0  0
  -24.1475  -36.7278   23.2641 C   0  0  0  0  0  0
  -25.9591  -30.7969   21.3764 C   0  0  0  0  0  0
  -26.0296  -29.4281   20.7158 C   0  0  0  0  0  0
  -27.2091  -28.6304   20.7124 C   0  0  0  0  0  0
  -26.0272  -26.9160   19.4672 C   0  0  0  0  0  0
  -24.8601  -27.6991   19.4759 C   0  0  0  0  0  0
  -23.6316  -29.8327   20.1602 C   0  0  0  0  0  0
  -25.4101  -36.3082   24.0347 C   0  0  1  0  0  0
  -20.5893  -28.3671   23.1296 C   0  0  2  0  0  0
  -20.6767  -26.9396   22.5411 C   0  0  0  0  0  0
  -19.5736  -26.6375   21.5229 C   0  0  0  0  0  0
  -18.1913  -26.7940   22.1628 C   0  0  0  0  0  0
  -19.1545  -28.8849   23.2891 C   0  0  0  0  0  0
  -18.9464  -30.1463   23.8883 C   0  0  0  0  0  0
  -17.6465  -30.6592   24.0580 C   0  0  0  0  0  0
  -25.9042  -34.9456   23.5114 C   0  0  0  0  0  0
  -16.5350  -29.9103   23.6345 C   0  0  0  0  0  0
  -16.7278  -28.6527   23.0350 C   0  0  0  0  0  0
  -26.4504  -31.6615   25.0754 C   0  0  0  0  0  0
  -25.3786  -31.3806   26.1532 C   0  0  0  0  0  0
  -27.0317  -30.3037   24.6192 C   0  0  0  0  0  0
  -27.6080  -32.4357   25.7487 C   0  0  0  0  0  0
  -27.5579  -37.1786   24.8468 C   0  0  0  0  0  0
  -21.4194  -29.3040   22.3697 N   0  0  0  0  0  0
  -26.4275  -37.3778   23.9440 N   0  0  0  0  0  0
  -24.6870  -31.0643   22.1016 N   0  0  0  0  0  0
  -23.4232  -28.8127   23.2963 O   0  0  0  0  0  0
  -28.3249  -26.4870   20.1913 O   0  0  0  0  0  0
  -26.5573  -34.8916   22.4657 O   0  0  0  0  0  0
  -23.5433  -32.1372   23.7441 O   0  0  0  0  0  0
  -28.6791  -19.3321   21.1155 C   0  0  0  0  0  0
  -30.8530  -17.8531   20.1550 C   0  0  0  0  0  0
  -29.7558  -20.0596   20.5551 C   0  0  0  0  0  0
  -28.6954  -17.9094   21.2312 C   0  0  0  0  0  0
  -29.7906  -17.1218   20.7528 C   0  0  0  0  0  0
  -30.8379  -19.2759   20.0657 C   0  0  0  0  0  0
  -29.8128  -21.5762   20.5026 C   0  0  0  0  0  0
  -28.8511  -22.5297   20.6950 C   0  0  0  0  0  0
  -27.4930  -17.2782   21.9176 C   0  0  0  0  0  0
  -29.1022  -24.0713   20.7668 C   0  0  0  0  0  0
  -28.1119  -25.0371   20.0126 C   0  0  0  0  0  0
  -29.7541  -15.6611   20.8763 N   0  0  0  0  0  0
  -31.9032  -19.9006   19.5046 F   0  0  0  0  0  0
  -31.4830  -12.5291   19.1514 H   0  0  0  0  0  0
  -30.3927  -11.3949   19.8940 H   0  0  0  0  0  0
  -29.7749  -11.7275   17.4930 H   0  0  0  0  0  0
  -29.6415  -13.4526   17.7267 H   0  0  0  0  0  0
  -27.8866  -11.2717   18.8969 H   0  0  0  0  0  0
  -27.3699  -12.5221   17.8043 H   0  0  0  0  0  0
  -27.6749  -14.2367   19.5168 H   0  0  0  0  0  0
  -28.7093  -12.0272   21.3663 H   0  0  0  0  0  0
  -28.4326  -13.6691   21.8533 H   0  0  0  0  0  0
  -25.2749   -9.5687   22.4769 H   0  0  0  0  0  0
  -24.0018   -7.4613   22.7451 H   0  0  0  0  0  0
  -21.0839   -8.8745   19.8926 H   0  0  0  0  0  0
  -22.3670  -10.9671   19.6199 H   0  0  0  0  0  0
  -21.1951   -7.6147   23.9713 H   0  0  0  0  0  0
  -21.1484   -6.0515   25.9075 H   0  0  0  0  0  0
  -22.0599   -2.7605   23.2834 H   0  0  0  0  0  0
  -22.4137  -11.9898   22.4797 H   0  0  0  0  0  0
  -21.1133  -13.1255   22.2659 H   0  0  0  0  0  0
  -24.6083  -15.7902   20.3812 H   0  0  0  0  0  0
  -26.2110  -15.5782   19.8902 H   0  0  0  0  0  0
  -26.7174  -32.5457   23.1133 H   0  0  0  0  0  0
  -25.0217  -33.9733   25.0545 H   0  0  0  0  0  0
  -22.7133  -31.3116   21.4123 H   0  0  0  0  0  0
  -23.3764  -35.9580   23.3261 H   0  0  0  0  0  0
  -24.3583  -36.8915   22.2062 H   0  0  0  0  0  0
  -23.7172  -37.6453   23.6671 H   0  0  0  0  0  0
  -26.0935  -31.5640   20.6120 H   0  0  0  0  0  0
  -26.8407  -30.8405   22.0049 H   0  0  0  0  0  0
  -28.1050  -28.9871   21.2026 H   0  0  0  0  0  0
  -25.9734  -25.9679   18.9538 H   0  0  0  0  0  0
  -23.9665  -27.3351   18.9886 H   0  0  0  0  0  0
  -23.7633  -30.6174   19.4134 H   0  0  0  0  0  0
  -22.7496  -29.2708   19.8488 H   0  0  0  0  0  0
  -25.1278  -36.1921   25.0836 H   0  0  0  0  0  0
  -20.9995  -28.3210   24.1414 H   0  0  0  0  0  0
  -20.5657  -26.2276   23.3600 H   0  0  0  0  0  0
  -21.6624  -26.7410   22.1179 H   0  0  0  0  0  0
  -19.6878  -25.6291   21.1240 H   0  0  0  0  0  0
  -19.6685  -27.3207   20.6784 H   0  0  0  0  0  0
  -17.4194  -26.6716   21.4018 H   0  0  0  0  0  0
  -18.0284  -26.0081   22.9008 H   0  0  0  0  0  0
  -19.7943  -30.7298   24.2189 H   0  0  0  0  0  0
  -17.5030  -31.6265   24.5197 H   0  0  0  0  0  0
  -15.5357  -30.3005   23.7684 H   0  0  0  0  0  0
  -15.8670  -28.0875   22.7034 H   0  0  0  0  0  0
  -24.5856  -30.7259   25.7913 H   0  0  0  0  0  0
  -24.9124  -32.3023   26.5041 H   0  0  0  0  0  0
  -25.8129  -30.8915   27.0259 H   0  0  0  0  0  0
  -26.2860  -29.6787   24.1270 H   0  0  0  0  0  0
  -27.4088  -29.7299   25.4662 H   0  0  0  0  0  0
  -27.8709  -30.4330   23.9357 H   0  0  0  0  0  0
  -27.2727  -33.3730   26.1944 H   0  0  0  0  0  0
  -28.3941  -32.6782   25.0329 H   0  0  0  0  0  0
  -28.0674  -31.8555   26.5495 H   0  0  0  0  0  0
  -28.2581  -38.0104   24.7540 H   0  0  0  0  0  0
  -28.1078  -36.2632   24.6238 H   0  0  0  0  0  0
  -27.2304  -37.1352   25.8871 H   0  0  0  0  0  0
  -20.9348  -29.8852   21.7002 H   0  0  0  0  0  0
  -26.0151  -38.2838   24.1494 H   0  0  0  0  0  0
  -27.8364  -19.8816   21.5115 H   0  0  0  0  0  0
  -31.7132  -17.3370   19.7569 H   0  0  0  0  0  0
  -30.8076  -21.9590   20.3266 H   0  0  0  0  0  0
  -27.8286  -22.2160   20.8581 H   0  0  0  0  0  0
  -27.3653  -17.7140   22.9098 H   0  0  0  0  0  0
  -27.5675  -16.1998   22.0423 H   0  0  0  0  0  0
  -26.5852  -17.4874   21.3498 H   0  0  0  0  0  0
  -30.1255  -24.2788   20.4577 H   0  0  0  0  0  0
  -29.0575  -24.3297   21.8273 H   0  0  0  0  0  0
  -27.1157  -24.7552   20.3549 H   0  0  0  0  0  0
  -28.1432  -24.8196   18.9428 H   0  0  0  0  0  0
  -28.8690  -15.3101   21.2090 H   0  0  0  0  0  0
  1 25  1  0  0  0
  1 30  2  0  0  0
  1 82  1  0  0  0
  2  3  1  0  0  0
  2 25  1  0  0  0
  2 84  1  0  0  0
  2 85  1  0  0  0
  3  4  1  0  0  0
  3 86  1  0  0  0
  3 87  1  0  0  0
  4  5  1  0  0  0
  4 88  1  0  0  0
  4 89  1  0  0  0
  5  6  1  0  0  0
  5 26  1  0  0  0
  5 90  1  0  0  0
  6 25  1  0  0  0
  6 91  1  0  0  0
  6 92  1  0  0  0
  7  8  2  0  0  0
  7 26  1  0  0  0
  7 29  1  0  0  0
  8  9  1  0  0  0
  8 22  1  0  0  0
  9 10  1  0  0  0
  9 27  2  0  0  0
 10 11  2  0  0  0
 10 15  1  0  0  0
 11 12  1  0  0  0
 11 93  1  0  0  0
 12 13  2  0  0  0
 12 94  1  0  0  0
 13 14  1  0  0  0
 13 31  1  0  0  0
 14 15  2  0  0  0
 14 95  1  0  0  0
 15 96  1  0  0  0
 16 17  2  0  0  0
 16 21  1  0  0  0
 16 31  1  0  0  0
 17 18  1  0  0  0
 17 97  1  0  0  0
 18 19  2  0  0  0
 18 98  1  0  0  0
 19 20  1  0  0  0
 19 24  1  0  0  0
 20 21  2  0  0  0
 20 99  1  0  0  0
 21 23  1  0  0  0
 22 28  1  0  0  0
 22 32  2  0  0  0
 26 27  1  0  0  0
 28100  1  0  0  0
 28101  1  0  0  0
 29102  1  0  0  0
 29103  1  0  0  0
 33 34  1  0  0  0
 33 66  1  0  0  0
 33 70  2  0  0  0
 34 36  1  0  0  0
 34 59  1  0  0  0
 34104  1  0  0  0
 35 44  2  0  0  0
 35 45  1  0  0  0
 35 68  1  0  0  0
 36 56  1  0  0  0
 36105  1  0  0  0
 37 39  1  0  0  0
 37 47  1  0  0  0
 37 66  1  0  0  0
 37106  1  0  0  0
 38 43  2  0  0  0
 38 46  1  0  0  0
 38 47  1  0  0  0
 39 64  1  0  0  0
 39 67  2  0  0  0
 40 52  1  0  0  0
 40 53  2  0  0  0
 40 58  1  0  0  0
 41107  1  0  0  0
 41108  1  0  0  0
 41109  1  0  0  0
 41 48  1  0  0  0
 42 43  1  0  0  0
 42 66  1  0  0  0
 42110  1  0  0  0
 42111  1  0  0  0
 43 44  1  0  0  0
 44112  1  0  0  0
 45 46  2  0  0  0
 45113  1  0  0  0
 46114  1  0  0  0
 47115  1  0  0  0
 47116  1  0  0  0
 48 56  1  0  0  0
 48 65  1  0  0  0
 48117  1  0  0  0
 49 50  1  0  0  0
 49 53  1  0  0  0
 49 64  1  0  0  0
 49118  1  0  0  0
 50 51  1  0  0  0
 50119  1  0  0  0
 50120  1  0  0  0
 51 52  1  0  0  0
 51121  1  0  0  0
 51122  1  0  0  0
 52123  1  0  0  0
 52124  1  0  0  0
 53 54  1  0  0  0
 54 55  2  0  0  0
 54125  1  0  0  0
 55 57  1  0  0  0
 55126  1  0  0  0
 56 69  2  0  0  0
 57 58  2  0  0  0
 57127  1  0  0  0
 58128  1  0  0  0
 59 60  1  0  0  0
 59 61  1  0  0  0
 59 62  1  0  0  0
 60129  1  0  0  0
 60130  1  0  0  0
 60131  1  0  0  0
 61132  1  0  0  0
 61133  1  0  0  0
 61134  1  0  0  0
 62135  1  0  0  0
 62136  1  0  0  0
 62137  1  0  0  0
 63 65  1  0  0  0
 63138  1  0  0  0
 63139  1  0  0  0
 63140  1  0  0  0
 64141  1  0  0  0
 65142  1  0  0  0
 68 81  1  0  0  0
 71 73  2  0  0  0
 71 74  1  0  0  0
 71143  1  0  0  0
 72 75  1  0  0  0
 72 76  2  0  0  0
 72144  1  0  0  0
 73 76  1  0  0  0
 73 77  1  0  0  0
 74 75  2  0  0  0
 74 79  1  0  0  0
 75 82  1  0  0  0
 76 83  1  0  0  0
 77 78  2  0  0  0
 77145  1  0  0  0
 78 80  1  0  0  0
 78146  1  0  0  0
 79147  1  0  0  0
 79148  1  0  0  0
 79149  1  0  0  0
 80 81  1  0  0  0
 80150  1  0  0  0
 80151  1  0  0  0
 81152  1  0  0  0
 81153  1  0  0  0
 82154  1  0  0  0
M  ISO  4   1 100  68 101  81 101  82 100
M  END
> <chiral flag>
0

> <version>
0

> <s_m_source_file>
/data/baiqing/PycharmProjects/Reinvent-master-3.2/result/LINK_invent/BTK/process_docking_weight1_custom_product_contain_oxygen_bond_distance_aromatic_linkinvent_7_9_3/rearranged_h_0127.sdf

> <i_m_source_file_index>
83

> <r_mmod_Potential_Energy-OPLS-2005>
51.1587715148926

> <r_mmod_Stretch_Energy-OPLS-2005>
69.8872833251953

> <r_mmod_Bend_Energy-OPLS-2005>
128.99284362793

> <r_mmod_Torsional_Energy-OPLS-2005>
210.808792114258

> <r_mmod_Improper_Torsional_Energy-OPLS-2005>
5.74842739105225

> <r_mmod_Van_der_Waal_Energy-OPLS-2005>
149.087020874023

> <r_mmod_Electrostatic_Energy-OPLS-2005>
-363.837860107422

> <r_mmod_Solvation_Energy-OPLS-2005>
-198.991729736328

> <b_mmod_Minimization_Converged-OPLS-2005>
0

> <r_mmod_RMS_Derivative-OPLS-2005>
2.88679337501526

$$$$
83
                    3D
 Structure written by MMmdl.
162170  0  0  1  0            999 V2000
  -30.6015  -14.6114   20.5636 C   0  0  0  0  0  0
  -30.4630  -12.3946   19.4292 C   0  0  0  0  0  0
  -29.5124  -12.5337   18.2146 C   0  0  0  0  0  0
  -28.0316  -12.3680   18.6256 C   0  0  0  0  0  0
  -27.6684  -13.1941   19.8871 C   0  0  2  0  0  0
  -28.7197  -12.9361   20.9905 C   0  0  0  0  0  0
  -25.2635  -13.8103   20.5711 C   0  0  0  0  0  0
  -24.1867  -13.0402   20.9179 C   0  0  0  0  0  0
  -24.6403  -11.6863   20.8742 C   0  0  0  0  0  0
  -23.9053  -10.4268   21.0423 C   0  0  0  0  0  0
  -24.3599   -9.4178   21.9203 C   0  0  0  0  0  0
  -23.6268   -8.2216   22.0760 C   0  0  0  0  0  0
  -22.4251   -8.0270   21.3540 C   0  0  0  0  0  0
  -21.9891   -9.0253   20.4646 C   0  0  0  0  0  0
  -22.7228  -10.2130   20.3068 C   0  0  0  0  0  0
  -21.6848   -6.0723   22.5268 C   0  0  0  0  0  0
  -21.4013   -6.5630   23.8204 C   0  0  0  0  0  0
  -21.3658   -5.6785   24.9169 C   0  0  0  0  0  0
  -21.6049   -4.3048   24.7223 C   0  0  0  0  0  0
  -21.8814   -3.8137   23.4346 C   0  0  0  0  0  0
  -21.9188   -4.6952   22.3398 C   0  0  0  0  0  0
  -22.7892  -13.5218   21.1841 C   0  0  0  0  0  0
  -22.1658   -4.2133   21.0978 F   0  0  0  0  0  0
  -21.5634   -3.4536   25.7741 F   0  0  0  0  0  0
  -30.0291  -13.3628   20.4568 N   0  0  0  0  0  0
  -26.3069  -12.9243   20.3431 N   0  0  0  0  0  0
  -25.9333  -11.6410   20.5784 N   0  0  0  0  0  0
  -22.0521  -12.8237   22.0406 N   0  0  0  0  0  0
  -25.4369  -15.1824   20.4131 N   0  0  0  0  0  0
  -31.7308  -14.8166   20.1096 O   0  0  0  0  0  0
  -21.6621   -6.8866   21.4231 O   0  0  0  0  0  0
  -22.3583  -14.5531   20.6693 O   0  0  0  0  0  0
  -24.6235  -31.8637   23.2070 C   0  0  0  0  0  0
  -25.9098  -32.4791   23.8393 C   0  0  1  0  0  0
  -27.2284  -27.3608   20.0917 C   0  0  0  0  0  0
  -25.5924  -33.8592   24.2315 N   0  0  0  0  0  0
  -23.4140  -30.4898   21.5512 C   0  0  2  0  0  0
  -24.8571  -28.9524   20.1141 C   0  0  0  0  0  0
  -22.7457  -29.4652   22.4980 C   0  0  0  0  0  0
  -18.0280  -28.1379   22.8499 C   0  0  0  0  0  0
  -24.1482  -36.7297   23.2641 C   0  0  0  0  0  0
  -25.9534  -30.8064   21.3728 C   0  0  0  0  0  0
  -26.0277  -29.4392   20.7096 C   0  0  0  0  0  0
  -27.2163  -28.6559   20.6864 C   0  0  0  0  0  0
  -26.0270  -26.9146   19.4881 C   0  0  0  0  0  0
  -24.8568  -27.6923   19.4991 C   0  0  0  0  0  0
  -23.6244  -29.8285   20.1652 C   0  0  0  0  0  0
  -25.4103  -36.3090   24.0340 C   0  0  1  0  0  0
  -20.5879  -28.3683   23.1300 C   0  0  2  0  0  0
  -20.6766  -26.9411   22.5415 C   0  0  0  0  0  0
  -19.5741  -26.6389   21.5212 C   0  0  0  0  0  0
  -18.1924  -26.7922   22.1633 C   0  0  0  0  0  0
  -19.1530  -28.8848   23.2894 C   0  0  0  0  0  0
  -18.9451  -30.1452   23.8907 C   0  0  0  0  0  0
  -17.6450  -30.6585   24.0563 C   0  0  0  0  0  0
  -25.9046  -34.9458   23.5125 C   0  0  0  0  0  0
  -16.5346  -29.9085   23.6324 C   0  0  0  0  0  0
  -16.7267  -28.6499   23.0356 C   0  0  0  0  0  0
  -26.4493  -31.6581   25.0746 C   0  0  0  0  0  0
  -25.3735  -31.3702   26.1479 C   0  0  0  0  0  0
  -27.0339  -30.3011   24.6178 C   0  0  0  0  0  0
  -27.6064  -32.4308   25.7508 C   0  0  0  0  0  0
  -27.5577  -37.1805   24.8470 C   0  0  0  0  0  0
  -21.4175  -29.3045   22.3703 N   0  0  0  0  0  0
  -26.4289  -37.3778   23.9414 N   0  0  0  0  0  0
  -24.6826  -31.0682   22.1007 N   0  0  0  0  0  0
  -23.4191  -28.8192   23.3050 O   0  0  0  0  0  0
  -28.3732  -26.5557   20.1062 O   0  0  0  0  0  0
  -26.5616  -34.8924   22.4692 O   0  0  0  0  0  0
  -23.5408  -32.1441   23.7412 O   0  0  0  0  0  0
  -29.9321  -19.4087   20.3565 C   0  0  0  0  0  0
  -32.6546  -19.5167   20.9114 C   0  0  0  0  0  0
  -30.5754  -18.2238   20.8513 C   0  0  0  0  0  0
  -31.9613  -18.3103   21.1457 C   0  0  0  0  0  0
  -32.0075  -20.6691   20.4193 C   0  0  0  0  0  0
  -30.6222  -20.6412   20.1462 C   0  0  0  0  0  0
  -29.7093  -17.0363   21.1648 C   0  0  0  0  0  0
  -29.6967  -15.6638   21.1079 C   0  0  0  0  0  0
  -32.7420  -17.1789   21.7901 C   0  0  0  0  0  0
  -33.7244  -21.8108   18.9488 C   0  0  0  0  0  0
  -32.8298  -21.9282   20.1870 C   0  0  0  0  0  0
  -29.4428  -24.1718   20.1027 C   0  0  0  0  0  0
  -28.1786  -25.1023   20.0444 C   0  0  0  0  0  0
  -29.1656  -22.6301   20.3227 C   0  0  0  0  0  0
  -30.0414  -21.7667   19.5603 O   0  0  0  0  0  0
  -31.4967  -12.5568   19.1205 H   0  0  0  0  0  0
  -30.4363  -11.3780   19.8254 H   0  0  0  0  0  0
  -29.7715  -11.8017   17.4484 H   0  0  0  0  0  0
  -29.6543  -13.5140   17.7570 H   0  0  0  0  0  0
  -27.8592  -11.3091   18.8207 H   0  0  0  0  0  0
  -27.3747  -12.6360   17.7980 H   0  0  0  0  0  0
  -27.7141  -14.2462   19.6064 H   0  0  0  0  0  0
  -28.7499  -11.8695   21.2177 H   0  0  0  0  0  0
  -28.4573  -13.3860   21.9473 H   0  0  0  0  0  0
  -25.2747   -9.5653   22.4777 H   0  0  0  0  0  0
  -23.9973   -7.4603   22.7479 H   0  0  0  0  0  0
  -21.0816   -8.8779   19.8953 H   0  0  0  0  0  0
  -22.3692  -10.9675   19.6174 H   0  0  0  0  0  0
  -21.2005   -7.6139   23.9703 H   0  0  0  0  0  0
  -21.1494   -6.0520   25.9071 H   0  0  0  0  0  0
  -22.0600   -2.7598   23.2852 H   0  0  0  0  0  0
  -22.4099  -11.9883   22.4801 H   0  0  0  0  0  0
  -21.1154  -13.1305   22.2611 H   0  0  0  0  0  0
  -24.6737  -15.8394   20.5312 H   0  0  0  0  0  0
  -26.2934  -15.6237   20.1035 H   0  0  0  0  0  0
  -26.7173  -32.5472   23.1156 H   0  0  0  0  0  0
  -25.0037  -33.9750   25.0435 H   0  0  0  0  0  0
  -22.7062  -31.3093   21.4121 H   0  0  0  0  0  0
  -23.3742  -35.9633   23.3309 H   0  0  0  0  0  0
  -24.3571  -36.8905   22.2052 H   0  0  0  0  0  0
  -23.7240  -37.6508   23.6651 H   0  0  0  0  0  0
  -26.0833  -31.5767   20.6115 H   0  0  0  0  0  0
  -26.8344  -30.8487   22.0024 H   0  0  0  0  0  0
  -28.1192  -29.0301   21.1480 H   0  0  0  0  0  0
  -25.9542  -25.9590   18.9939 H   0  0  0  0  0  0
  -23.9582  -27.3117   19.0325 H   0  0  0  0  0  0
  -23.7374  -30.6071   19.4094 H   0  0  0  0  0  0
  -22.7446  -29.2558   19.8660 H   0  0  0  0  0  0
  -25.1276  -36.1951   25.0835 H   0  0  0  0  0  0
  -20.9966  -28.3242   24.1421 H   0  0  0  0  0  0
  -20.5651  -26.2297   23.3611 H   0  0  0  0  0  0
  -21.6637  -26.7439   22.1213 H   0  0  0  0  0  0
  -19.6902  -25.6301   21.1240 H   0  0  0  0  0  0
  -19.6663  -27.3202   20.6742 H   0  0  0  0  0  0
  -17.4189  -26.6675   21.4041 H   0  0  0  0  0  0
  -18.0326  -26.0056   22.9023 H   0  0  0  0  0  0
  -19.7927  -30.7266   24.2284 H   0  0  0  0  0  0
  -17.5004  -31.6262   24.5165 H   0  0  0  0  0  0
  -15.5346  -30.2988   23.7634 H   0  0  0  0  0  0
  -15.8672  -28.0810   22.7078 H   0  0  0  0  0  0
  -24.5892  -30.7078   25.7791 H   0  0  0  0  0  0
  -24.8955  -32.2866   26.4951 H   0  0  0  0  0  0
  -25.8067  -30.8832   27.0226 H   0  0  0  0  0  0
  -26.2916  -29.6765   24.1192 H   0  0  0  0  0  0
  -27.4044  -29.7257   25.4673 H   0  0  0  0  0  0
  -27.8779  -30.4310   23.9399 H   0  0  0  0  0  0
  -27.2678  -33.3596   26.2115 H   0  0  0  0  0  0
  -28.3853  -32.6887   25.0317 H   0  0  0  0  0  0
  -28.0758  -31.8415   26.5400 H   0  0  0  0  0  0
  -28.2598  -38.0097   24.7498 H   0  0  0  0  0  0
  -28.1075  -36.2632   24.6310 H   0  0  0  0  0  0
  -27.2305  -37.1459   25.8877 H   0  0  0  0  0  0
  -20.9355  -29.8762   21.6909 H   0  0  0  0  0  0
  -26.0177  -38.2865   24.1391 H   0  0  0  0  0  0
  -28.8761  -19.3696   20.1313 H   0  0  0  0  0  0
  -33.7115  -19.5687   21.1346 H   0  0  0  0  0  0
  -28.8004  -17.3938   21.6307 H   0  0  0  0  0  0
  -28.7795  -15.3249   21.5486 H   0  0  0  0  0  0
  -33.3032  -16.6347   21.0320 H   0  0  0  0  0  0
  -32.1050  -16.4822   22.3316 H   0  0  0  0  0  0
  -33.4589  -17.5748   22.5098 H   0  0  0  0  0  0
  -34.2675  -22.7403   18.7765 H   0  0  0  0  0  0
  -33.1345  -21.5969   18.0568 H   0  0  0  0  0  0
  -34.4585  -21.0132   19.0656 H   0  0  0  0  0  0
  -33.4430  -22.1133   21.0702 H   0  0  0  0  0  0
  -32.1892  -22.8050   20.0915 H   0  0  0  0  0  0
  -30.1211  -24.5192   20.8819 H   0  0  0  0  0  0
  -29.9851  -24.2987   19.1649 H   0  0  0  0  0  0
  -27.6887  -24.8434   19.1067 H   0  0  0  0  0  0
  -27.4960  -24.8156   20.8466 H   0  0  0  0  0  0
  -28.1494  -22.3969   20.0021 H   0  0  0  0  0  0
  -29.2111  -22.3887   21.3862 H   0  0  0  0  0  0
  1 25  1  0  0  0
  1 30  2  0  0  0
  1 78  1  0  0  0
  2  3  1  0  0  0
  2 25  1  0  0  0
  2 86  1  0  0  0
  2 87  1  0  0  0
  3  4  1  0  0  0
  3 88  1  0  0  0
  3 89  1  0  0  0
  4  5  1  0  0  0
  4 90  1  0  0  0
  4 91  1  0  0  0
  5  6  1  0  0  0
  5 26  1  0  0  0
  5 92  1  0  0  0
  6 25  1  0  0  0
  6 93  1  0  0  0
  6 94  1  0  0  0
  7  8  2  0  0  0
  7 26  1  0  0  0
  7 29  1  0  0  0
  8  9  1  0  0  0
  8 22  1  0  0  0
  9 10  1  0  0  0
  9 27  2  0  0  0
 10 11  2  0  0  0
 10 15  1  0  0  0
 11 12  1  0  0  0
 11 95  1  0  0  0
 12 13  2  0  0  0
 12 96  1  0  0  0
 13 14  1  0  0  0
 13 31  1  0  0  0
 14 15  2  0  0  0
 14 97  1  0  0  0
 15 98  1  0  0  0
 16 17  2  0  0  0
 16 21  1  0  0  0
 16 31  1  0  0  0
 17 18  1  0  0  0
 17 99  1  0  0  0
 18 19  2  0  0  0
 18100  1  0  0  0
 19 20  1  0  0  0
 19 24  1  0  0  0
 20 21  2  0  0  0
 20101  1  0  0  0
 21 23  1  0  0  0
 22 28  1  0  0  0
 22 32  2  0  0  0
 26 27  1  0  0  0
 28102  1  0  0  0
 28103  1  0  0  0
 29104  1  0  0  0
 29105  1  0  0  0
 33 34  1  0  0  0
 33 66  1  0  0  0
 33 70  2  0  0  0
 34 36  1  0  0  0
 34 59  1  0  0  0
 34106  1  0  0  0
 35 44  2  0  0  0
 35 45  1  0  0  0
 35 68  1  0  0  0
 36 56  1  0  0  0
 36107  1  0  0  0
 37 39  1  0  0  0
 37 47  1  0  0  0
 37 66  1  0  0  0
 37108  1  0  0  0
 38 43  2  0  0  0
 38 46  1  0  0  0
 38 47  1  0  0  0
 39 64  1  0  0  0
 39 67  2  0  0  0
 40 52  1  0  0  0
 40 53  2  0  0  0
 40 58  1  0  0  0
 41109  1  0  0  0
 41110  1  0  0  0
 41111  1  0  0  0
 41 48  1  0  0  0
 42 43  1  0  0  0
 42 66  1  0  0  0
 42112  1  0  0  0
 42113  1  0  0  0
 43 44  1  0  0  0
 44114  1  0  0  0
 45 46  2  0  0  0
 45115  1  0  0  0
 46116  1  0  0  0
 47117  1  0  0  0
 47118  1  0  0  0
 48 56  1  0  0  0
 48 65  1  0  0  0
 48119  1  0  0  0
 49 50  1  0  0  0
 49 53  1  0  0  0
 49 64  1  0  0  0
 49120  1  0  0  0
 50 51  1  0  0  0
 50121  1  0  0  0
 50122  1  0  0  0
 51 52  1  0  0  0
 51123  1  0  0  0
 51124  1  0  0  0
 52125  1  0  0  0
 52126  1  0  0  0
 53 54  1  0  0  0
 54 55  2  0  0  0
 54127  1  0  0  0
 55 57  1  0  0  0
 55128  1  0  0  0
 56 69  2  0  0  0
 57 58  2  0  0  0
 57129  1  0  0  0
 58130  1  0  0  0
 59 60  1  0  0  0
 59 61  1  0  0  0
 59 62  1  0  0  0
 60131  1  0  0  0
 60132  1  0  0  0
 60133  1  0  0  0
 61134  1  0  0  0
 61135  1  0  0  0
 61136  1  0  0  0
 62137  1  0  0  0
 62138  1  0  0  0
 62139  1  0  0  0
 63 65  1  0  0  0
 63140  1  0  0  0
 63141  1  0  0  0
 63142  1  0  0  0
 64143  1  0  0  0
 65144  1  0  0  0
 68 83  1  0  0  0
 71 73  2  0  0  0
 71 76  1  0  0  0
 71145  1  0  0  0
 72 74  2  0  0  0
 72 75  1  0  0  0
 72146  1  0  0  0
 73 74  1  0  0  0
 73 77  1  0  0  0
 74 79  1  0  0  0
 75 76  2  0  0  0
 75 81  1  0  0  0
 76 85  1  0  0  0
 77 78  2  0  0  0
 77147  1  0  0  0
 78148  1  0  0  0
 79149  1  0  0  0
 79150  1  0  0  0
 79151  1  0  0  0
 80 81  1  0  0  0
 80152  1  0  0  0
 80153  1  0  0  0
 80154  1  0  0  0
 81155  1  0  0  0
 81156  1  0  0  0
 82 83  1  0  0  0
 82 84  1  0  0  0
 82157  1  0  0  0
 82158  1  0  0  0
 83159  1  0  0  0
 83160  1  0  0  0
 84 85  1  0  0  0
 84161  1  0  0  0
 84162  1  0  0  0
M  ISO  4   1 100  68 101  78 100  83 101
M  END
> <chiral flag>
0

> <version>
0

> <s_m_source_file>
/data/baiqing/PycharmProjects/Reinvent-master-3.2/result/LINK_invent/BTK/process_docking_weight1_custom_product_contain_oxygen_bond_distance_aromatic_linkinvent_7_9_3/rearranged_h_0127.sdf

> <i_m_source_file_index>
84

> <r_mmod_Potential_Energy-OPLS-2005>
126.107131958008

> <r_mmod_Stretch_Energy-OPLS-2005>
65.4426803588867

> <r_mmod_Bend_Energy-OPLS-2005>
184.604965209961

> <r_mmod_Torsional_Energy-OPLS-2005>
231.614440917969

> <r_mmod_Improper_Torsional_Energy-OPLS-2005>
4.85527849197388

> <r_mmod_Van_der_Waal_Energy-OPLS-2005>
155.684112548828

> <r_mmod_Electrostatic_Energy-OPLS-2005>
-352.471710205078

> <r_mmod_Solvation_Energy-OPLS-2005>
-197.840408325195

> <b_mmod_Minimization_Converged-OPLS-2005>
0

> <r_mmod_RMS_Derivative-OPLS-2005>
1.72166109085083

$$$$
84
                    3D
 Structure written by MMmdl.
158166  0  0  1  0            999 V2000
  -30.6830  -14.5301   20.5353 C   0  0  0  0  0  0
  -30.4355  -12.3412   19.4133 C   0  0  0  0  0  0
  -29.5009  -12.4945   18.1958 C   0  0  0  0  0  0
  -28.0222  -12.3543   18.6141 C   0  0  0  0  0  0
  -27.6608  -13.2074   19.8594 C   0  0  2  0  0  0
  -28.7083  -13.0242   20.9785 C   0  0  0  0  0  0
  -25.2625  -13.8146   20.5598 C   0  0  0  0  0  0
  -24.1869  -13.0443   20.9098 C   0  0  0  0  0  0
  -24.6431  -11.6908   20.8705 C   0  0  0  0  0  0
  -23.9091  -10.4303   21.0388 C   0  0  0  0  0  0
  -24.3634   -9.4214   21.9174 C   0  0  0  0  0  0
  -23.6300   -8.2261   22.0777 C   0  0  0  0  0  0
  -22.4285   -8.0303   21.3569 C   0  0  0  0  0  0
  -21.9923   -9.0259   20.4656 C   0  0  0  0  0  0
  -22.7256  -10.2138   20.3047 C   0  0  0  0  0  0
  -21.6860   -6.0738   22.5271 C   0  0  0  0  0  0
  -21.4014   -6.5632   23.8196 C   0  0  0  0  0  0
  -21.3654   -5.6785   24.9143 C   0  0  0  0  0  0
  -21.6047   -4.3051   24.7200 C   0  0  0  0  0  0
  -21.8828   -3.8147   23.4315 C   0  0  0  0  0  0
  -21.9195   -4.6969   22.3373 C   0  0  0  0  0  0
  -22.7903  -13.5269   21.1725 C   0  0  0  0  0  0
  -22.1665   -4.2154   21.0963 F   0  0  0  0  0  0
  -21.5625   -3.4544   25.7711 F   0  0  0  0  0  0
  -30.0263  -13.3447   20.4069 N   0  0  0  0  0  0
  -26.3048  -12.9305   20.3281 N   0  0  0  0  0  0
  -25.9369  -11.6473   20.5744 N   0  0  0  0  0  0
  -22.0539  -12.8299   22.0299 N   0  0  0  0  0  0
  -25.4395  -15.1854   20.3964 N   0  0  0  0  0  0
  -31.8391  -14.6964   20.1400 O   0  0  0  0  0  0
  -21.6645   -6.8898   21.4248 O   0  0  0  0  0  0
  -22.3598  -14.5560   20.6544 O   0  0  0  0  0  0
  -24.6158  -31.8604   23.2017 C   0  0  0  0  0  0
  -25.9026  -32.4760   23.8356 C   0  0  1  0  0  0
  -27.2300  -27.3831   20.0833 C   0  0  0  0  0  0
  -25.5885  -33.8581   24.2256 N   0  0  0  0  0  0
  -23.4094  -30.4793   21.5441 C   0  0  2  0  0  0
  -24.8527  -28.9373   20.1118 C   0  0  0  0  0  0
  -22.7438  -29.4561   22.4967 C   0  0  0  0  0  0
  -18.0249  -28.1337   22.8401 C   0  0  0  0  0  0
  -24.1496  -36.7327   23.2631 C   0  0  0  0  0  0
  -25.9446  -30.8080   21.3650 C   0  0  0  0  0  0
  -26.0134  -29.4388   20.7081 C   0  0  0  0  0  0
  -27.2019  -28.6642   20.6966 C   0  0  0  0  0  0
  -26.0433  -26.9008   19.4908 C   0  0  0  0  0  0
  -24.8609  -27.6651   19.5087 C   0  0  0  0  0  0
  -23.6173  -29.8100   20.1597 C   0  0  0  0  0  0
  -25.4115  -36.3082   24.0314 C   0  0  1  0  0  0
  -20.5837  -28.3615   23.1292 C   0  0  2  0  0  0
  -20.6752  -26.9346   22.5433 C   0  0  0  0  0  0
  -19.5746  -26.6334   21.5207 C   0  0  0  0  0  0
  -18.1893  -26.7854   22.1578 C   0  0  0  0  0  0
  -19.1513  -28.8796   23.2813 C   0  0  0  0  0  0
  -18.9475  -30.1393   23.8829 C   0  0  0  0  0  0
  -17.6492  -30.6545   24.0518 C   0  0  0  0  0  0
  -25.9082  -34.9450   23.5121 C   0  0  0  0  0  0
  -16.5352  -29.9049   23.6334 C   0  0  0  0  0  0
  -16.7263  -28.6476   23.0316 C   0  0  0  0  0  0
  -26.4455  -31.6562   25.0727 C   0  0  0  0  0  0
  -25.3709  -31.3728   26.1490 C   0  0  0  0  0  0
  -27.0272  -30.2987   24.6128 C   0  0  0  0  0  0
  -27.5991  -32.4337   25.7498 C   0  0  0  0  0  0
  -27.5571  -37.1810   24.8450 C   0  0  0  0  0  0
  -21.4165  -29.2972   22.3733 N   0  0  0  0  0  0
  -26.4275  -37.3781   23.9435 N   0  0  0  0  0  0
  -24.6739  -31.0657   22.0931 N   0  0  0  0  0  0
  -23.4201  -28.8118   23.3047 O   0  0  0  0  0  0
  -28.4076  -26.6489   20.1039 O   0  0  0  0  0  0
  -26.5701  -34.8919   22.4711 O   0  0  0  0  0  0
  -23.5344  -32.1378   23.7378 O   0  0  0  0  0  0
  -31.6209  -19.5088   18.9809 C   0  0  0  0  0  0
  -30.6608  -20.5276   19.1085 C   0  0  0  0  0  0
  -31.4831  -18.3168   19.7136 C   0  0  0  0  0  0
  -29.5149  -20.3690   19.9205 C   0  0  0  0  0  0
  -29.3595  -19.1310   20.6343 C   0  0  0  0  0  0
  -30.3742  -18.1131   20.5621 C   0  0  0  0  0  0
  -28.1308  -18.8992   22.7894 C   0  0  0  0  0  0
  -28.5784  -21.5386   20.0741 C   0  0  0  0  0  0
  -28.1467  -18.9242   21.4438 C   0  0  0  0  0  0
  -28.9572  -22.8452   20.1350 C   0  0  0  0  0  0
  -30.4260  -16.8659   21.4838 C   0  0  0  0  0  0
  -28.0675  -24.1015   20.2998 C   0  0  0  0  0  0
  -28.5275  -25.3501   19.4646 C   0  0  0  0  0  0
  -29.9406  -15.5614   20.9908 N   0  0  0  0  0  0
  -31.4775  -12.4563   19.1066 H   0  0  0  0  0  0
  -30.3576  -11.3385   19.8410 H   0  0  0  0  0  0
  -29.7470  -11.7432   17.4439 H   0  0  0  0  0  0
  -29.6597  -13.4654   17.7232 H   0  0  0  0  0  0
  -27.8387  -11.3010   18.8248 H   0  0  0  0  0  0
  -27.3704  -12.6176   17.7805 H   0  0  0  0  0  0
  -27.6925  -14.2487   19.5373 H   0  0  0  0  0  0
  -28.7072  -11.9951   21.3375 H   0  0  0  0  0  0
  -28.4693  -13.6416   21.8463 H   0  0  0  0  0  0
  -25.2794   -9.5653   22.4724 H   0  0  0  0  0  0
  -23.9977   -7.4657   22.7542 H   0  0  0  0  0  0
  -21.0843   -8.8804   19.8970 H   0  0  0  0  0  0
  -22.3751  -10.9670   19.6143 H   0  0  0  0  0  0
  -21.2031   -7.6149   23.9693 H   0  0  0  0  0  0
  -21.1457   -6.0512   25.9040 H   0  0  0  0  0  0
  -22.0623   -2.7620   23.2805 H   0  0  0  0  0  0
  -22.4153  -11.9959   22.4688 H   0  0  0  0  0  0
  -21.1162  -13.1351   22.2478 H   0  0  0  0  0  0
  -24.6834  -15.8519   20.4933 H   0  0  0  0  0  0
  -26.2938  -15.6114   20.0611 H   0  0  0  0  0  0
  -26.7057  -32.5431   23.1061 H   0  0  0  0  0  0
  -24.9888  -33.9697   25.0294 H   0  0  0  0  0  0
  -22.6972  -31.2924   21.3946 H   0  0  0  0  0  0
  -23.3734  -35.9677   23.3333 H   0  0  0  0  0  0
  -24.3591  -36.8979   22.2051 H   0  0  0  0  0  0
  -23.7300  -37.6544   23.6682 H   0  0  0  0  0  0
  -26.0839  -31.5732   20.5998 H   0  0  0  0  0  0
  -26.8214  -30.8406   21.9984 H   0  0  0  0  0  0
  -28.1019  -29.0437   21.1603 H   0  0  0  0  0  0
  -26.0089  -25.9304   19.0225 H   0  0  0  0  0  0
  -23.9626  -27.2607   19.0701 H   0  0  0  0  0  0
  -23.7263  -30.5817   19.3988 H   0  0  0  0  0  0
  -22.7408  -29.2305   19.8686 H   0  0  0  0  0  0
  -25.1314  -36.1942   25.0801 H   0  0  0  0  0  0
  -20.9847  -28.3164   24.1455 H   0  0  0  0  0  0
  -20.5656  -26.2201   23.3626 H   0  0  0  0  0  0
  -21.6620  -26.7397   22.1218 H   0  0  0  0  0  0
  -19.6948  -25.6279   21.1194 H   0  0  0  0  0  0
  -19.6703  -27.3192   20.6770 H   0  0  0  0  0  0
  -17.4194  -26.6564   21.3964 H   0  0  0  0  0  0
  -18.0246  -26.0045   22.9042 H   0  0  0  0  0  0
  -19.8018  -30.7157   24.2171 H   0  0  0  0  0  0
  -17.5114  -31.6222   24.5134 H   0  0  0  0  0  0
  -15.5356  -30.2947   23.7728 H   0  0  0  0  0  0
  -15.8639  -28.0800   22.7051 H   0  0  0  0  0  0
  -24.5832  -30.7088   25.7885 H   0  0  0  0  0  0
  -24.8922  -32.2905   26.4941 H   0  0  0  0  0  0
  -25.8047  -30.8909   27.0254 H   0  0  0  0  0  0
  -26.2829  -29.6757   24.1140 H   0  0  0  0  0  0
  -27.3975  -29.7205   25.4584 H   0  0  0  0  0  0
  -27.8688  -30.4288   23.9319 H   0  0  0  0  0  0
  -27.2532  -33.3645   26.2043 H   0  0  0  0  0  0
  -28.3796  -32.6944   25.0318 H   0  0  0  0  0  0
  -28.0640  -31.8491   26.5466 H   0  0  0  0  0  0
  -28.2584  -38.0107   24.7524 H   0  0  0  0  0  0
  -28.1086  -36.2644   24.6256 H   0  0  0  0  0  0
  -27.2313  -37.1491   25.8854 H   0  0  0  0  0  0
  -20.9339  -29.8796   21.7023 H   0  0  0  0  0  0
  -26.0178  -38.2876   24.1376 H   0  0  0  0  0  0
  -32.4859  -19.6567   18.3466 H   0  0  0  0  0  0
  -30.8085  -21.4480   18.5590 H   0  0  0  0  0  0
  -32.2665  -17.5705   19.6565 H   0  0  0  0  0  0
  -27.2228  -18.7215   23.3512 H   0  0  0  0  0  0
  -29.0372  -19.0603   23.3580 H   0  0  0  0  0  0
  -27.5219  -21.3001   20.1183 H   0  0  0  0  0  0
  -27.2273  -18.7662   20.8898 H   0  0  0  0  0  0
  -30.0178  -23.0594   20.1034 H   0  0  0  0  0  0
  -29.8956  -17.0620   22.4106 H   0  0  0  0  0  0
  -31.4624  -16.7457   21.8128 H   0  0  0  0  0  0
  -28.1035  -24.3715   21.3568 H   0  0  0  0  0  0
  -27.0240  -23.8632   20.0925 H   0  0  0  0  0  0
  -28.0784  -25.3498   18.4667 H   0  0  0  0  0  0
  -29.5967  -25.2409   19.2703 H   0  0  0  0  0  0
  -28.9811  -15.3393   21.2120 H   0  0  0  0  0  0
  1 25  1  0  0  0
  1 30  2  0  0  0
  1 84  1  0  0  0
  2  3  1  0  0  0
  2 25  1  0  0  0
  2 85  1  0  0  0
  2 86  1  0  0  0
  3  4  1  0  0  0
  3 87  1  0  0  0
  3 88  1  0  0  0
  4  5  1  0  0  0
  4 89  1  0  0  0
  4 90  1  0  0  0
  5  6  1  0  0  0
  5 26  1  0  0  0
  5 91  1  0  0  0
  6 25  1  0  0  0
  6 92  1  0  0  0
  6 93  1  0  0  0
  7  8  2  0  0  0
  7 26  1  0  0  0
  7 29  1  0  0  0
  8  9  1  0  0  0
  8 22  1  0  0  0
  9 10  1  0  0  0
  9 27  2  0  0  0
 10 11  2  0  0  0
 10 15  1  0  0  0
 11 12  1  0  0  0
 11 94  1  0  0  0
 12 13  2  0  0  0
 12 95  1  0  0  0
 13 14  1  0  0  0
 13 31  1  0  0  0
 14 15  2  0  0  0
 14 96  1  0  0  0
 15 97  1  0  0  0
 16 17  2  0  0  0
 16 21  1  0  0  0
 16 31  1  0  0  0
 17 18  1  0  0  0
 17 98  1  0  0  0
 18 19  2  0  0  0
 18 99  1  0  0  0
 19 20  1  0  0  0
 19 24  1  0  0  0
 20 21  2  0  0  0
 20100  1  0  0  0
 21 23  1  0  0  0
 22 28  1  0  0  0
 22 32  2  0  0  0
 26 27  1  0  0  0
 28101  1  0  0  0
 28102  1  0  0  0
 29103  1  0  0  0
 29104  1  0  0  0
 33 34  1  0  0  0
 33 66  1  0  0  0
 33 70  2  0  0  0
 34 36  1  0  0  0
 34 59  1  0  0  0
 34105  1  0  0  0
 35 44  2  0  0  0
 35 45  1  0  0  0
 35 68  1  0  0  0
 36 56  1  0  0  0
 36106  1  0  0  0
 37 39  1  0  0  0
 37 47  1  0  0  0
 37 66  1  0  0  0
 37107  1  0  0  0
 38 43  2  0  0  0
 38 46  1  0  0  0
 38 47  1  0  0  0
 39 64  1  0  0  0
 39 67  2  0  0  0
 40 52  1  0  0  0
 40 53  2  0  0  0
 40 58  1  0  0  0
 41108  1  0  0  0
 41109  1  0  0  0
 41110  1  0  0  0
 41 48  1  0  0  0
 42 43  1  0  0  0
 42 66  1  0  0  0
 42111  1  0  0  0
 42112  1  0  0  0
 43 44  1  0  0  0
 44113  1  0  0  0
 45 46  2  0  0  0
 45114  1  0  0  0
 46115  1  0  0  0
 47116  1  0  0  0
 47117  1  0  0  0
 48 56  1  0  0  0
 48 65  1  0  0  0
 48118  1  0  0  0
 49 50  1  0  0  0
 49 53  1  0  0  0
 49 64  1  0  0  0
 49119  1  0  0  0
 50 51  1  0  0  0
 50120  1  0  0  0
 50121  1  0  0  0
 51 52  1  0  0  0
 51122  1  0  0  0
 51123  1  0  0  0
 52124  1  0  0  0
 52125  1  0  0  0
 53 54  1  0  0  0
 54 55  2  0  0  0
 54126  1  0  0  0
 55 57  1  0  0  0
 55127  1  0  0  0
 56 69  2  0  0  0
 57 58  2  0  0  0
 57128  1  0  0  0
 58129  1  0  0  0
 59 60  1  0  0  0
 59 61  1  0  0  0
 59 62  1  0  0  0
 60130  1  0  0  0
 60131  1  0  0  0
 60132  1  0  0  0
 61133  1  0  0  0
 61134  1  0  0  0
 61135  1  0  0  0
 62136  1  0  0  0
 62137  1  0  0  0
 62138  1  0  0  0
 63 65  1  0  0  0
 63139  1  0  0  0
 63140  1  0  0  0
 63141  1  0  0  0
 64142  1  0  0  0
 65143  1  0  0  0
 68 83  1  0  0  0
 71 72  2  0  0  0
 71 73  1  0  0  0
 71144  1  0  0  0
 72 74  1  0  0  0
 72145  1  0  0  0
 73 76  2  0  0  0
 73146  1  0  0  0
 74 75  2  0  0  0
 74 78  1  0  0  0
 75 76  1  0  0  0
 75 79  1  0  0  0
 76 81  1  0  0  0
 77 79  2  0  0  0
 77147  1  0  0  0
 77148  1  0  0  0
 78 80  2  0  0  0
 78149  1  0  0  0
 79150  1  0  0  0
 80 82  1  0  0  0
 80151  1  0  0  0
 81 84  1  0  0  0
 81152  1  0  0  0
 81153  1  0  0  0
 82 83  1  0  0  0
 82154  1  0  0  0
 82155  1  0  0  0
 83156  1  0  0  0
 83157  1  0  0  0
 84158  1  0  0  0
M  ISO  4   1 100  68 101  83 101  84 100
M  END
> <chiral flag>
0

> <version>
0

> <s_m_source_file>
/data/baiqing/PycharmProjects/Reinvent-master-3.2/result/LINK_invent/BTK/process_docking_weight1_custom_product_contain_oxygen_bond_distance_aromatic_linkinvent_7_9_3/rearranged_h_0127.sdf

> <i_m_source_file_index>
85

> <r_mmod_Potential_Energy-OPLS-2005>
-8.81349086761475

> <r_mmod_Stretch_Energy-OPLS-2005>
52.9166107177734

> <r_mmod_Bend_Energy-OPLS-2005>
116.976593017578

> <r_mmod_Torsional_Energy-OPLS-2005>
243.756423950195

> <r_mmod_Improper_Torsional_Energy-OPLS-2005>
4.7291464805603

> <r_mmod_Van_der_Waal_Energy-OPLS-2005>
147.145812988281

> <r_mmod_Electrostatic_Energy-OPLS-2005>
-395.026794433594

> <r_mmod_Solvation_Energy-OPLS-2005>
-202.029647827148

> <b_mmod_Minimization_Converged-OPLS-2005>
0

> <r_mmod_RMS_Derivative-OPLS-2005>
5.62024641036987

$$$$
85
                    3D
 Structure written by MMmdl.
162170  0  0  1  0            999 V2000
  -30.6313  -14.6901   20.4787 C   0  0  0  0  0  0
  -30.4316  -12.4254   19.4524 C   0  0  0  0  0  0
  -29.5033  -12.5086   18.2216 C   0  0  0  0  0  0
  -28.0283  -12.3400   18.6371 C   0  0  0  0  0  0
  -27.6443  -13.2275   19.8512 C   0  0  2  0  0  0
  -28.6940  -13.1333   20.9800 C   0  0  0  0  0  0
  -25.2517  -13.8191   20.5677 C   0  0  0  0  0  0
  -24.1808  -13.0439   20.9228 C   0  0  0  0  0  0
  -24.6405  -11.6925   20.8767 C   0  0  0  0  0  0
  -23.9084  -10.4297   21.0421 C   0  0  0  0  0  0
  -24.3633   -9.4212   21.9197 C   0  0  0  0  0  0
  -23.6306   -8.2248   22.0757 C   0  0  0  0  0  0
  -22.4286   -8.0289   21.3545 C   0  0  0  0  0  0
  -21.9930   -9.0266   20.4647 C   0  0  0  0  0  0
  -22.7261  -10.2146   20.3066 C   0  0  0  0  0  0
  -21.6852   -6.0754   22.5290 C   0  0  0  0  0  0
  -21.4013   -6.5655   23.8229 C   0  0  0  0  0  0
  -21.3656   -5.6800   24.9185 C   0  0  0  0  0  0
  -21.6041   -4.3063   24.7227 C   0  0  0  0  0  0
  -21.8816   -3.8163   23.4345 C   0  0  0  0  0  0
  -21.9192   -4.6983   22.3404 C   0  0  0  0  0  0
  -22.7828  -13.5223   21.1876 C   0  0  0  0  0  0
  -22.1662   -4.2173   21.0982 F   0  0  0  0  0  0
  -21.5624   -3.4544   25.7738 F   0  0  0  0  0  0
  -29.9971  -13.4755   20.3963 N   0  0  0  0  0  0
  -26.2953  -12.9392   20.3281 N   0  0  0  0  0  0
  -25.9336  -11.6542   20.5768 N   0  0  0  0  0  0
  -22.0468  -12.8196   22.0421 N   0  0  0  0  0  0
  -25.4164  -15.1904   20.4036 N   0  0  0  0  0  0
  -31.8263  -14.7884   20.1857 O   0  0  0  0  0  0
  -21.6638   -6.8891   21.4251 O   0  0  0  0  0  0
  -22.3516  -14.5530   20.6729 O   0  0  0  0  0  0
  -24.6269  -31.8580   23.1977 C   0  0  0  0  0  0
  -25.9124  -32.4766   23.8302 C   0  0  1  0  0  0
  -27.2234  -27.3027   20.1322 C   0  0  0  0  0  0
  -25.5923  -33.8558   24.2243 N   0  0  0  0  0  0
  -23.4203  -30.4789   21.5412 C   0  0  2  0  0  0
  -24.8655  -28.9231   20.1143 C   0  0  0  0  0  0
  -22.7477  -29.4611   22.4930 C   0  0  0  0  0  0
  -18.0294  -28.1386   22.8460 C   0  0  0  0  0  0
  -24.1502  -36.7289   23.2641 C   0  0  0  0  0  0
  -25.9590  -30.7884   21.3631 C   0  0  0  0  0  0
  -26.0353  -29.4100   20.7123 C   0  0  0  0  0  0
  -27.2193  -28.6140   20.7043 C   0  0  0  0  0  0
  -26.0312  -26.8592   19.5264 C   0  0  0  0  0  0
  -24.8656  -27.6531   19.5124 C   0  0  0  0  0  0
  -23.6330  -29.8056   20.1599 C   0  0  0  0  0  0
  -25.4126  -36.3066   24.0329 C   0  0  1  0  0  0
  -20.5894  -28.3666   23.1292 C   0  0  2  0  0  0
  -20.6792  -26.9389   22.5419 C   0  0  0  0  0  0
  -19.5774  -26.6377   21.5211 C   0  0  0  0  0  0
  -18.1944  -26.7931   22.1602 C   0  0  0  0  0  0
  -19.1546  -28.8846   23.2865 C   0  0  0  0  0  0
  -18.9469  -30.1456   23.8866 C   0  0  0  0  0  0
  -17.6470  -30.6574   24.0553 C   0  0  0  0  0  0
  -25.9070  -34.9441   23.5091 C   0  0  0  0  0  0
  -16.5362  -29.9072   23.6334 C   0  0  0  0  0  0
  -16.7285  -28.6510   23.0319 C   0  0  0  0  0  0
  -26.4502  -31.6578   25.0675 C   0  0  0  0  0  0
  -25.3725  -31.3729   26.1401 C   0  0  0  0  0  0
  -27.0358  -30.3020   24.6111 C   0  0  0  0  0  0
  -27.6068  -32.4297   25.7449 C   0  0  0  0  0  0
  -27.5584  -37.1796   24.8467 C   0  0  0  0  0  0
  -21.4195  -29.3019   22.3685 N   0  0  0  0  0  0
  -26.4300  -37.3772   23.9408 N   0  0  0  0  0  0
  -24.6879  -31.0590   22.0917 N   0  0  0  0  0  0
  -23.4213  -28.8161   23.3004 O   0  0  0  0  0  0
  -28.3489  -26.4659   20.1103 O   0  0  0  0  0  0
  -26.5632  -34.8911   22.4652 O   0  0  0  0  0  0
  -23.5435  -32.1366   23.7329 O   0  0  0  0  0  0
  -30.8893  -19.9607   21.3543 C   0  0  0  0  0  0
  -31.3025  -17.5580   21.6052 C   0  0  0  0  0  0
  -31.6489  -18.8961   21.8799 C   0  0  0  0  0  0
  -29.7627  -19.7421   20.5325 C   0  0  0  0  0  0
  -29.4107  -18.3481   20.2705 C   0  0  0  0  0  0
  -30.1843  -17.2346   20.8049 C   0  0  0  0  0  0
  -32.8637  -19.2031   22.7362 C   0  0  0  0  0  0
  -28.6755  -17.7969   17.9084 C   0  0  0  0  0  0
  -29.1036  -21.0339   19.8702 C   0  0  0  0  0  0
  -28.2343  -18.0096   19.3630 C   0  0  0  0  0  0
  -28.9065  -22.4090   20.6894 C   0  0  0  0  0  0
  -28.5571  -23.7738   19.9011 C   0  0  0  0  0  0
  -28.2757  -25.1186   20.7350 C   0  0  0  0  0  0
  -29.8367  -15.8102   20.6246 N   0  0  0  0  0  0
  -31.4729  -12.5482   19.1482 H   0  0  0  0  0  0
  -30.3687  -11.4416   19.9194 H   0  0  0  0  0  0
  -29.7744  -11.7483   17.4882 H   0  0  0  0  0  0
  -29.6349  -13.4727   17.7272 H   0  0  0  0  0  0
  -27.8724  -11.2889   18.8821 H   0  0  0  0  0  0
  -27.3716  -12.5558   17.7929 H   0  0  0  0  0  0
  -27.6448  -14.2528   19.4828 H   0  0  0  0  0  0
  -28.7193  -12.1286   21.4045 H   0  0  0  0  0  0
  -28.4426  -13.8058   21.8018 H   0  0  0  0  0  0
  -25.2781   -9.5683   22.4771 H   0  0  0  0  0  0
  -24.0022   -7.4630   22.7473 H   0  0  0  0  0  0
  -21.0866   -8.8785   19.8942 H   0  0  0  0  0  0
  -22.3728  -10.9687   19.6173 H   0  0  0  0  0  0
  -21.2003   -7.6164   23.9738 H   0  0  0  0  0  0
  -21.1478   -6.0529   25.9085 H   0  0  0  0  0  0
  -22.0593   -2.7629   23.2839 H   0  0  0  0  0  0
  -22.4076  -11.9851   22.4793 H   0  0  0  0  0  0
  -21.1086  -13.1217   22.2627 H   0  0  0  0  0  0
  -24.6365  -15.8324   20.4931 H   0  0  0  0  0  0
  -26.2408  -15.6245   20.0125 H   0  0  0  0  0  0
  -26.7177  -32.5445   23.1026 H   0  0  0  0  0  0
  -25.0074  -33.9683   25.0398 H   0  0  0  0  0  0
  -22.7134  -31.2979   21.3968 H   0  0  0  0  0  0
  -23.3751  -35.9630   23.3316 H   0  0  0  0  0  0
  -24.3589  -36.8913   22.2053 H   0  0  0  0  0  0
  -23.7269  -37.6498   23.6666 H   0  0  0  0  0  0
  -26.0832  -31.5473   20.5870 H   0  0  0  0  0  0
  -26.8427  -30.8441   21.9872 H   0  0  0  0  0  0
  -28.1231  -28.9893   21.1622 H   0  0  0  0  0  0
  -26.0017  -25.8818   19.0666 H   0  0  0  0  0  0
  -23.9672  -27.2718   19.0460 H   0  0  0  0  0  0
  -23.7446  -30.5783   19.3972 H   0  0  0  0  0  0
  -22.7530  -29.2319   19.8647 H   0  0  0  0  0  0
  -25.1311  -36.1907   25.0822 H   0  0  0  0  0  0
  -20.9968  -28.3237   24.1419 H   0  0  0  0  0  0
  -20.5716  -26.2249   23.3606 H   0  0  0  0  0  0
  -21.6656  -26.7435   22.1194 H   0  0  0  0  0  0
  -19.6943  -25.6291   21.1229 H   0  0  0  0  0  0
  -19.6751  -27.3186   20.6745 H   0  0  0  0  0  0
  -17.4231  -26.6668   21.3996 H   0  0  0  0  0  0
  -18.0330  -26.0097   22.9014 H   0  0  0  0  0  0
  -19.7959  -30.7278   24.2201 H   0  0  0  0  0  0
  -17.5036  -31.6254   24.5153 H   0  0  0  0  0  0
  -15.5357  -30.2949   23.7711 H   0  0  0  0  0  0
  -15.8690  -28.0840   22.6994 H   0  0  0  0  0  0
  -24.5913  -30.7066   25.7726 H   0  0  0  0  0  0
  -24.8876  -32.2905   26.4759 H   0  0  0  0  0  0
  -25.8023  -30.8956   27.0216 H   0  0  0  0  0  0
  -26.2930  -29.6736   24.1174 H   0  0  0  0  0  0
  -27.4154  -29.7300   25.4585 H   0  0  0  0  0  0
  -27.8745  -30.4343   23.9261 H   0  0  0  0  0  0
  -27.2708  -33.3624   26.1987 H   0  0  0  0  0  0
  -28.3889  -32.6804   25.0271 H   0  0  0  0  0  0
  -28.0708  -31.8430   26.5386 H   0  0  0  0  0  0
  -28.2599  -38.0092   24.7491 H   0  0  0  0  0  0
  -28.1074  -36.2617   24.6307 H   0  0  0  0  0  0
  -27.2295  -37.1467   25.8868 H   0  0  0  0  0  0
  -20.9368  -29.8722   21.6883 H   0  0  0  0  0  0
  -26.0181  -38.2846   24.1394 H   0  0  0  0  0  0
  -31.2107  -20.9705   21.5650 H   0  0  0  0  0  0
  -31.9037  -16.7670   22.0302 H   0  0  0  0  0  0
  -32.7267  -20.1371   23.2830 H   0  0  0  0  0  0
  -33.7504  -19.3048   22.1084 H   0  0  0  0  0  0
  -33.0511  -18.4140   23.4651 H   0  0  0  0  0  0
  -27.8430  -17.4558   17.2925 H   0  0  0  0  0  0
  -29.4642  -17.0449   17.8446 H   0  0  0  0  0  0
  -29.0589  -18.7188   17.4697 H   0  0  0  0  0  0
  -28.1446  -20.7836   19.4225 H   0  0  0  0  0  0
  -29.7511  -21.2646   19.0228 H   0  0  0  0  0  0
  -27.4590  -18.7714   19.4193 H   0  0  0  0  0  0
  -27.7494  -17.1060   19.7301 H   0  0  0  0  0  0
  -29.8135  -22.6114   21.2574 H   0  0  0  0  0  0
  -28.1340  -22.2379   21.4387 H   0  0  0  0  0  0
  -27.6857  -23.5906   19.2738 H   0  0  0  0  0  0
  -29.3727  -23.9742   19.2041 H   0  0  0  0  0  0
  -29.0257  -25.1549   21.5264 H   0  0  0  0  0  0
  -27.3279  -25.0057   21.2621 H   0  0  0  0  0  0
  -28.8499  -15.6126   20.6038 H   0  0  0  0  0  0
  1 25  1  0  0  0
  1 30  2  0  0  0
  1 84  1  0  0  0
  2  3  1  0  0  0
  2 25  1  0  0  0
  2 85  1  0  0  0
  2 86  1  0  0  0
  3  4  1  0  0  0
  3 87  1  0  0  0
  3 88  1  0  0  0
  4  5  1  0  0  0
  4 89  1  0  0  0
  4 90  1  0  0  0
  5  6  1  0  0  0
  5 26  1  0  0  0
  5 91  1  0  0  0
  6 25  1  0  0  0
  6 92  1  0  0  0
  6 93  1  0  0  0
  7  8  2  0  0  0
  7 26  1  0  0  0
  7 29  1  0  0  0
  8  9  1  0  0  0
  8 22  1  0  0  0
  9 10  1  0  0  0
  9 27  2  0  0  0
 10 11  2  0  0  0
 10 15  1  0  0  0
 11 12  1  0  0  0
 11 94  1  0  0  0
 12 13  2  0  0  0
 12 95  1  0  0  0
 13 14  1  0  0  0
 13 31  1  0  0  0
 14 15  2  0  0  0
 14 96  1  0  0  0
 15 97  1  0  0  0
 16 17  2  0  0  0
 16 21  1  0  0  0
 16 31  1  0  0  0
 17 18  1  0  0  0
 17 98  1  0  0  0
 18 19  2  0  0  0
 18 99  1  0  0  0
 19 20  1  0  0  0
 19 24  1  0  0  0
 20 21  2  0  0  0
 20100  1  0  0  0
 21 23  1  0  0  0
 22 28  1  0  0  0
 22 32  2  0  0  0
 26 27  1  0  0  0
 28101  1  0  0  0
 28102  1  0  0  0
 29103  1  0  0  0
 29104  1  0  0  0
 33 34  1  0  0  0
 33 66  1  0  0  0
 33 70  2  0  0  0
 34 36  1  0  0  0
 34 59  1  0  0  0
 34105  1  0  0  0
 35 44  2  0  0  0
 35 45  1  0  0  0
 35 68  1  0  0  0
 36 56  1  0  0  0
 36106  1  0  0  0
 37 39  1  0  0  0
 37 47  1  0  0  0
 37 66  1  0  0  0
 37107  1  0  0  0
 38 43  2  0  0  0
 38 46  1  0  0  0
 38 47  1  0  0  0
 39 64  1  0  0  0
 39 67  2  0  0  0
 40 52  1  0  0  0
 40 53  2  0  0  0
 40 58  1  0  0  0
 41108  1  0  0  0
 41109  1  0  0  0
 41110  1  0  0  0
 41 48  1  0  0  0
 42 43  1  0  0  0
 42 66  1  0  0  0
 42111  1  0  0  0
 42112  1  0  0  0
 43 44  1  0  0  0
 44113  1  0  0  0
 45 46  2  0  0  0
 45114  1  0  0  0
 46115  1  0  0  0
 47116  1  0  0  0
 47117  1  0  0  0
 48 56  1  0  0  0
 48 65  1  0  0  0
 48118  1  0  0  0
 49 50  1  0  0  0
 49 53  1  0  0  0
 49 64  1  0  0  0
 49119  1  0  0  0
 50 51  1  0  0  0
 50120  1  0  0  0
 50121  1  0  0  0
 51 52  1  0  0  0
 51122  1  0  0  0
 51123  1  0  0  0
 52124  1  0  0  0
 52125  1  0  0  0
 53 54  1  0  0  0
 54 55  2  0  0  0
 54126  1  0  0  0
 55 57  1  0  0  0
 55127  1  0  0  0
 56 69  2  0  0  0
 57 58  2  0  0  0
 57128  1  0  0  0
 58129  1  0  0  0
 59 60  1  0  0  0
 59 61  1  0  0  0
 59 62  1  0  0  0
 60130  1  0  0  0
 60131  1  0  0  0
 60132  1  0  0  0
 61133  1  0  0  0
 61134  1  0  0  0
 61135  1  0  0  0
 62136  1  0  0  0
 62137  1  0  0  0
 62138  1  0  0  0
 63 65  1  0  0  0
 63139  1  0  0  0
 63140  1  0  0  0
 63141  1  0  0  0
 64142  1  0  0  0
 65143  1  0  0  0
 68 83  1  0  0  0
 71 73  2  0  0  0
 71 74  1  0  0  0
 71144  1  0  0  0
 72 73  1  0  0  0
 72 76  2  0  0  0
 72145  1  0  0  0
 73 77  1  0  0  0
 74 75  2  0  0  0
 74 79  1  0  0  0
 75 76  1  0  0  0
 75 80  1  0  0  0
 76 84  1  0  0  0
 77146  1  0  0  0
 77147  1  0  0  0
 77148  1  0  0  0
 78 80  1  0  0  0
 78149  1  0  0  0
 78150  1  0  0  0
 78151  1  0  0  0
 79 81  1  0  0  0
 79152  1  0  0  0
 79153  1  0  0  0
 80154  1  0  0  0
 80155  1  0  0  0
 81 82  1  0  0  0
 81156  1  0  0  0
 81157  1  0  0  0
 82 83  1  0  0  0
 82158  1  0  0  0
 82159  1  0  0  0
 83160  1  0  0  0
 83161  1  0  0  0
 84162  1  0  0  0
M  ISO  4   1 100  68 101  83 101  84 100
M  END
> <chiral flag>
0

> <version>
0

> <s_m_source_file>
/data/baiqing/PycharmProjects/Reinvent-master-3.2/result/LINK_invent/BTK/process_docking_weight1_custom_product_contain_oxygen_bond_distance_aromatic_linkinvent_7_9_3/rearranged_h_0127.sdf

> <i_m_source_file_index>
86

> <r_mmod_Potential_Energy-OPLS-2005>
124.521987915039

> <r_mmod_Stretch_Energy-OPLS-2005>
105.496635437012

> <r_mmod_Bend_Energy-OPLS-2005>
147.278503417969

> <r_mmod_Torsional_Energy-OPLS-2005>
244.180969238281

> <r_mmod_Improper_Torsional_Energy-OPLS-2005>
7.24848890304565

> <r_mmod_Van_der_Waal_Energy-OPLS-2005>
130.414001464844

> <r_mmod_Electrostatic_Energy-OPLS-2005>
-371.063446044922

> <r_mmod_Solvation_Energy-OPLS-2005>
-199.382141113281

> <b_mmod_Minimization_Converged-OPLS-2005>
0

> <r_mmod_RMS_Derivative-OPLS-2005>
2.56546497344971

$$$$
86
                    3D
 Structure written by MMmdl.
159167  0  0  1  0            999 V2000
  -30.5855  -14.6347   20.5260 C   0  0  0  0  0  0
  -30.4752  -12.4168   19.4410 C   0  0  0  0  0  0
  -29.5178  -12.4588   18.2200 C   0  0  0  0  0  0
  -28.0501  -12.2668   18.6471 C   0  0  0  0  0  0
  -27.6638  -13.1662   19.8458 C   0  0  2  0  0  0
  -28.7040  -12.9939   20.9719 C   0  0  0  0  0  0
  -25.2711  -13.7981   20.5500 C   0  0  0  0  0  0
  -24.1906  -13.0312   20.9135 C   0  0  0  0  0  0
  -24.6404  -11.6796   20.8694 C   0  0  0  0  0  0
  -23.9035  -10.4218   21.0413 C   0  0  0  0  0  0
  -24.3576   -9.4157   21.9235 C   0  0  0  0  0  0
  -23.6259   -8.2176   22.0769 C   0  0  0  0  0  0
  -22.4253   -8.0234   21.3544 C   0  0  0  0  0  0
  -21.9868   -9.0196   20.4659 C   0  0  0  0  0  0
  -22.7178  -10.2103   20.3095 C   0  0  0  0  0  0
  -21.6809   -6.0688   22.5282 C   0  0  0  0  0  0
  -21.3947   -6.5598   23.8200 C   0  0  0  0  0  0
  -21.3652   -5.6770   24.9177 C   0  0  0  0  0  0
  -21.6036   -4.3026   24.7243 C   0  0  0  0  0  0
  -21.8826   -3.8122   23.4364 C   0  0  0  0  0  0
  -21.9170   -4.6922   22.3418 C   0  0  0  0  0  0
  -22.7988  -13.5220   21.1789 C   0  0  0  0  0  0
  -22.1672   -4.2106   21.1000 F   0  0  0  0  0  0
  -21.5667   -3.4542   25.7770 F   0  0  0  0  0  0
  -30.0189  -13.3926   20.4383 N   0  0  0  0  0  0
  -26.3049  -12.9054   20.3150 N   0  0  0  0  0  0
  -25.9310  -11.6275   20.5676 N   0  0  0  0  0  0
  -22.0584  -12.8226   22.0354 N   0  0  0  0  0  0
  -25.4524  -15.1604   20.3650 N   0  0  0  0  0  0
  -31.7664  -14.8189   20.2004 O   0  0  0  0  0  0
  -21.6612   -6.8836   21.4247 O   0  0  0  0  0  0
  -22.3715  -14.5527   20.6666 O   0  0  0  0  0  0
  -24.6229  -31.8664   23.2043 C   0  0  0  0  0  0
  -25.9098  -32.4809   23.8341 C   0  0  1  0  0  0
  -27.2030  -27.3546   20.1238 C   0  0  0  0  0  0
  -25.5896  -33.8606   24.2285 N   0  0  0  0  0  0
  -23.4078  -30.4885   21.5532 C   0  0  2  0  0  0
  -24.8452  -28.9348   20.1281 C   0  0  0  0  0  0
  -22.7428  -29.4656   22.5042 C   0  0  0  0  0  0
  -18.0269  -28.1294   22.8595 C   0  0  0  0  0  0
  -24.1467  -36.7298   23.2644 C   0  0  0  0  0  0
  -25.9466  -30.8059   21.3673 C   0  0  0  0  0  0
  -26.0127  -29.4285   20.7240 C   0  0  0  0  0  0
  -27.2008  -28.6471   20.7140 C   0  0  0  0  0  0
  -26.0203  -26.8908   19.5173 C   0  0  0  0  0  0
  -24.8442  -27.6658   19.5219 C   0  0  0  0  0  0
  -23.6162  -29.8175   20.1710 C   0  0  0  0  0  0
  -25.4088  -36.3112   24.0343 C   0  0  1  0  0  0
  -20.5892  -28.3608   23.1302 C   0  0  2  0  0  0
  -20.6788  -26.9429   22.5114 C   0  0  0  0  0  0
  -19.5608  -26.6516   21.5037 C   0  0  0  0  0  0
  -18.1916  -26.7824   22.1763 C   0  0  0  0  0  0
  -19.1537  -28.8775   23.2920 C   0  0  0  0  0  0
  -18.9482  -30.1394   23.8908 C   0  0  0  0  0  0
  -17.6501  -30.6552   24.0584 C   0  0  0  0  0  0
  -25.9045  -34.9474   23.5111 C   0  0  0  0  0  0
  -16.5381  -29.9059   23.6414 C   0  0  0  0  0  0
  -16.7275  -28.6454   23.0478 C   0  0  0  0  0  0
  -26.4489  -31.6608   25.0694 C   0  0  0  0  0  0
  -25.3737  -31.3738   26.1439 C   0  0  0  0  0  0
  -27.0324  -30.3026   24.6125 C   0  0  0  0  0  0
  -27.6057  -32.4342   25.7470 C   0  0  0  0  0  0
  -27.5558  -37.1803   24.8481 C   0  0  0  0  0  0
  -21.4156  -29.3054   22.3813 N   0  0  0  0  0  0
  -26.4282  -37.3776   23.9413 N   0  0  0  0  0  0
  -24.6773  -31.0721   22.0982 N   0  0  0  0  0  0
  -23.4181  -28.8165   23.3078 O   0  0  0  0  0  0
  -28.3376  -26.5741   19.9901 O   0  0  0  0  0  0
  -26.5629  -34.8958   22.4685 O   0  0  0  0  0  0
  -23.5428  -32.1417   23.7441 O   0  0  0  0  0  0
  -29.2030  -19.5300   20.7484 C   0  0  0  0  0  0
  -26.7863  -19.1923   22.0423 C   0  0  0  0  0  0
  -28.9123  -18.2127   21.2530 C   0  0  0  0  0  0
  -27.6773  -18.0888   21.9761 C   0  0  0  0  0  0
  -28.3359  -20.6706   20.8609 C   0  0  0  0  0  0
  -27.0909  -20.4599   21.5021 C   0  0  0  0  0  0
  -29.8789  -17.0635   20.9537 C   0  0  0  0  0  0
  -29.6160  -15.7242   20.8228 C   0  0  0  0  0  0
  -27.3532  -17.0020   24.2760 C   0  0  0  0  0  0
  -27.2341  -16.8453   22.7589 C   0  0  0  0  0  0
  -27.7891  -24.2042   21.1123 C   0  0  0  0  0  0
  -28.6329  -25.5322   20.9575 C   0  0  0  0  0  0
  -27.8900  -23.0440   20.0559 C   0  0  0  0  0  0
  -28.7732  -21.9133   20.3563 O   0  0  0  0  0  0
  -26.1789  -21.4591   21.6312 F   0  0  0  0  0  0
  -31.4975  -12.6267   19.1192 H   0  0  0  0  0  0
  -30.4917  -11.4348   19.9141 H   0  0  0  0  0  0
  -29.8012  -11.6694   17.5248 H   0  0  0  0  0  0
  -29.6196  -13.3912   17.6627 H   0  0  0  0  0  0
  -27.9357  -11.2251   18.9540 H   0  0  0  0  0  0
  -27.3788  -12.4020   17.7975 H   0  0  0  0  0  0
  -27.6875  -14.1936   19.4875 H   0  0  0  0  0  0
  -28.7298  -11.9523   21.2923 H   0  0  0  0  0  0
  -28.4122  -13.5621   21.8531 H   0  0  0  0  0  0
  -25.2673   -9.5606   22.4913 H   0  0  0  0  0  0
  -23.9894   -7.4524   22.7478 H   0  0  0  0  0  0
  -21.0786   -8.8676   19.9008 H   0  0  0  0  0  0
  -22.3545  -10.9653   19.6277 H   0  0  0  0  0  0
  -21.1918   -7.6110   23.9683 H   0  0  0  0  0  0
  -21.1477   -6.0522   25.9067 H   0  0  0  0  0  0
  -22.0630   -2.7592   23.2893 H   0  0  0  0  0  0
  -22.4043  -11.9810   22.4730 H   0  0  0  0  0  0
  -21.1253  -13.1410   22.2524 H   0  0  0  0  0  0
  -24.6759  -15.8064   20.4096 H   0  0  0  0  0  0
  -26.2385  -15.5319   19.8478 H   0  0  0  0  0  0
  -26.7172  -32.5500   23.1099 H   0  0  0  0  0  0
  -25.0016  -33.9741   25.0416 H   0  0  0  0  0  0
  -22.6998  -31.3077   21.4131 H   0  0  0  0  0  0
  -23.3735  -35.9624   23.3365 H   0  0  0  0  0  0
  -24.3565  -36.8851   22.2046 H   0  0  0  0  0  0
  -23.7240  -37.6521   23.6646 H   0  0  0  0  0  0
  -26.0800  -31.5616   20.5923 H   0  0  0  0  0  0
  -26.8304  -30.8533   21.9933 H   0  0  0  0  0  0
  -28.1091  -29.0375   21.1502 H   0  0  0  0  0  0
  -26.0126  -25.9232   19.0364 H   0  0  0  0  0  0
  -23.9455  -27.2788   19.0577 H   0  0  0  0  0  0
  -23.7276  -30.5980   19.4169 H   0  0  0  0  0  0
  -22.7302  -29.2474   19.8836 H   0  0  0  0  0  0
  -25.1274  -36.1958   25.0834 H   0  0  0  0  0  0
  -20.9964  -28.3081   24.1429 H   0  0  0  0  0  0
  -20.5937  -26.2054   23.3080 H   0  0  0  0  0  0
  -21.6581  -26.7675   22.0630 H   0  0  0  0  0  0
  -19.6767  -25.6551   21.0781 H   0  0  0  0  0  0
  -19.6294  -27.3546   20.6714 H   0  0  0  0  0  0
  -17.3972  -26.6382   21.4432 H   0  0  0  0  0  0
  -18.0656  -25.9985   22.9260 H   0  0  0  0  0  0
  -19.7977  -30.7201   24.2267 H   0  0  0  0  0  0
  -17.5094  -31.6243   24.5184 H   0  0  0  0  0  0
  -15.5387  -30.2972   23.7791 H   0  0  0  0  0  0
  -15.8659  -28.0773   22.7296 H   0  0  0  0  0  0
  -24.5876  -30.7121   25.7786 H   0  0  0  0  0  0
  -24.8947  -32.2894   26.4921 H   0  0  0  0  0  0
  -25.8053  -30.8875   27.0188 H   0  0  0  0  0  0
  -26.2921  -29.6830   24.1043 H   0  0  0  0  0  0
  -27.3930  -29.7239   25.4635 H   0  0  0  0  0  0
  -27.8826  -30.4337   23.9418 H   0  0  0  0  0  0
  -27.2671  -33.3647   26.2050 H   0  0  0  0  0  0
  -28.3866  -32.6888   25.0286 H   0  0  0  0  0  0
  -28.0733  -31.8443   26.5371 H   0  0  0  0  0  0
  -28.2625  -38.0049   24.7463 H   0  0  0  0  0  0
  -28.0993  -36.2579   24.6383 H   0  0  0  0  0  0
  -27.2277  -37.1556   25.8886 H   0  0  0  0  0  0
  -20.9316  -29.8887   21.7139 H   0  0  0  0  0  0
  -26.0181  -38.2864   24.1368 H   0  0  0  0  0  0
  -30.1396  -19.6827   20.2351 H   0  0  0  0  0  0
  -25.8321  -19.0730   22.5384 H   0  0  0  0  0  0
  -30.9137  -17.3659   20.8406 H   0  0  0  0  0  0
  -28.5921  -15.4266   20.9016 H   0  0  0  0  0  0
  -27.2104  -16.0247   24.7441 H   0  0  0  0  0  0
  -26.5987  -17.6774   24.6800 H   0  0  0  0  0  0
  -28.3487  -17.3476   24.5670 H   0  0  0  0  0  0
  -27.7812  -15.9310   22.5862 H   0  0  0  0  0  0
  -26.1977  -16.6411   22.4843 H   0  0  0  0  0  0
  -26.7417  -24.4711   21.2433 H   0  0  0  0  0  0
  -28.0670  -23.7620   22.0695 H   0  0  0  0  0  0
  -28.6695  -26.0298   21.9247 H   0  0  0  0  0  0
  -29.6614  -25.2305   20.7603 H   0  0  0  0  0  0
  -28.2380  -23.4953   19.1240 H   0  0  0  0  0  0
  -26.8870  -22.6912   19.8102 H   0  0  0  0  0  0
  1 25  1  0  0  0
  1 30  2  0  0  0
  1 78  1  0  0  0
  2  3  1  0  0  0
  2 25  1  0  0  0
  2 86  1  0  0  0
  2 87  1  0  0  0
  3  4  1  0  0  0
  3 88  1  0  0  0
  3 89  1  0  0  0
  4  5  1  0  0  0
  4 90  1  0  0  0
  4 91  1  0  0  0
  5  6  1  0  0  0
  5 26  1  0  0  0
  5 92  1  0  0  0
  6 25  1  0  0  0
  6 93  1  0  0  0
  6 94  1  0  0  0
  7  8  2  0  0  0
  7 26  1  0  0  0
  7 29  1  0  0  0
  8  9  1  0  0  0
  8 22  1  0  0  0
  9 10  1  0  0  0
  9 27  2  0  0  0
 10 11  2  0  0  0
 10 15  1  0  0  0
 11 12  1  0  0  0
 11 95  1  0  0  0
 12 13  2  0  0  0
 12 96  1  0  0  0
 13 14  1  0  0  0
 13 31  1  0  0  0
 14 15  2  0  0  0
 14 97  1  0  0  0
 15 98  1  0  0  0
 16 17  2  0  0  0
 16 21  1  0  0  0
 16 31  1  0  0  0
 17 18  1  0  0  0
 17 99  1  0  0  0
 18 19  2  0  0  0
 18100  1  0  0  0
 19 20  1  0  0  0
 19 24  1  0  0  0
 20 21  2  0  0  0
 20101  1  0  0  0
 21 23  1  0  0  0
 22 28  1  0  0  0
 22 32  2  0  0  0
 26 27  1  0  0  0
 28102  1  0  0  0
 28103  1  0  0  0
 29104  1  0  0  0
 29105  1  0  0  0
 33 34  1  0  0  0
 33 66  1  0  0  0
 33 70  2  0  0  0
 34 36  1  0  0  0
 34 59  1  0  0  0
 34106  1  0  0  0
 35 44  2  0  0  0
 35 45  1  0  0  0
 35 68  1  0  0  0
 36 56  1  0  0  0
 36107  1  0  0  0
 37 39  1  0  0  0
 37 47  1  0  0  0
 37 66  1  0  0  0
 37108  1  0  0  0
 38 43  2  0  0  0
 38 46  1  0  0  0
 38 47  1  0  0  0
 39 64  1  0  0  0
 39 67  2  0  0  0
 40 52  1  0  0  0
 40 53  2  0  0  0
 40 58  1  0  0  0
 41109  1  0  0  0
 41110  1  0  0  0
 41111  1  0  0  0
 41 48  1  0  0  0
 42 43  1  0  0  0
 42 66  1  0  0  0
 42112  1  0  0  0
 42113  1  0  0  0
 43 44  1  0  0  0
 44114  1  0  0  0
 45 46  2  0  0  0
 45115  1  0  0  0
 46116  1  0  0  0
 47117  1  0  0  0
 47118  1  0  0  0
 48 56  1  0  0  0
 48 65  1  0  0  0
 48119  1  0  0  0
 49 50  1  0  0  0
 49 53  1  0  0  0
 49 64  1  0  0  0
 49120  1  0  0  0
 50 51  1  0  0  0
 50121  1  0  0  0
 50122  1  0  0  0
 51 52  1  0  0  0
 51123  1  0  0  0
 51124  1  0  0  0
 52125  1  0  0  0
 52126  1  0  0  0
 53 54  1  0  0  0
 54 55  2  0  0  0
 54127  1  0  0  0
 55 57  1  0  0  0
 55128  1  0  0  0
 56 69  2  0  0  0
 57 58  2  0  0  0
 57129  1  0  0  0
 58130  1  0  0  0
 59 60  1  0  0  0
 59 61  1  0  0  0
 59 62  1  0  0  0
 60131  1  0  0  0
 60132  1  0  0  0
 60133  1  0  0  0
 61134  1  0  0  0
 61135  1  0  0  0
 61136  1  0  0  0
 62137  1  0  0  0
 62138  1  0  0  0
 62139  1  0  0  0
 63 65  1  0  0  0
 63140  1  0  0  0
 63141  1  0  0  0
 63142  1  0  0  0
 64143  1  0  0  0
 65144  1  0  0  0
 68 82  1  0  0  0
 71 73  2  0  0  0
 71 75  1  0  0  0
 71145  1  0  0  0
 72 74  2  0  0  0
 72 76  1  0  0  0
 72146  1  0  0  0
 73 74  1  0  0  0
 73 77  1  0  0  0
 74 80  1  0  0  0
 75 76  2  0  0  0
 75 84  1  0  0  0
 76 85  1  0  0  0
 77 78  2  0  0  0
 77147  1  0  0  0
 78148  1  0  0  0
 79 80  1  0  0  0
 79149  1  0  0  0
 79150  1  0  0  0
 79151  1  0  0  0
 80152  1  0  0  0
 80153  1  0  0  0
 81 82  1  0  0  0
 81 83  1  0  0  0
 81154  1  0  0  0
 81155  1  0  0  0
 82156  1  0  0  0
 82157  1  0  0  0
 83 84  1  0  0  0
 83158  1  0  0  0
 83159  1  0  0  0
M  ISO  4   1 100  68 101  78 100  82 101
M  END
> <chiral flag>
0

> <version>
0

> <s_m_source_file>
/data/baiqing/PycharmProjects/Reinvent-master-3.2/result/LINK_invent/BTK/process_docking_weight1_custom_product_contain_oxygen_bond_distance_aromatic_linkinvent_7_9_3/rearranged_h_0127.sdf

> <i_m_source_file_index>
87

> <r_mmod_Potential_Energy-OPLS-2005>
147.303161621094

> <r_mmod_Stretch_Energy-OPLS-2005>
71.7665328979492

> <r_mmod_Bend_Energy-OPLS-2005>
168.083770751953

> <r_mmod_Torsional_Energy-OPLS-2005>
229.90934753418

> <r_mmod_Improper_Torsional_Energy-OPLS-2005>
6.69463872909546

> <r_mmod_Van_der_Waal_Energy-OPLS-2005>
153.939025878906

> <r_mmod_Electrostatic_Energy-OPLS-2005>
-340.456481933594

> <r_mmod_Solvation_Energy-OPLS-2005>
-186.141006469727

> <b_mmod_Minimization_Converged-OPLS-2005>
0

> <r_mmod_RMS_Derivative-OPLS-2005>
9.89378833770752

$$$$
87
                    3D
 Structure written by MMmdl.
152160  0  0  1  0            999 V2000
  -30.7281  -14.4718   20.5219 C   0  0  0  0  0  0
  -30.4066  -12.2893   19.4429 C   0  0  0  0  0  0
  -29.4941  -12.4914   18.2157 C   0  0  0  0  0  0
  -28.0126  -12.3646   18.6200 C   0  0  0  0  0  0
  -27.6565  -13.2152   19.8700 C   0  0  2  0  0  0
  -28.6969  -13.0213   20.9951 C   0  0  0  0  0  0
  -25.2562  -13.8185   20.5688 C   0  0  0  0  0  0
  -24.1821  -13.0448   20.9178 C   0  0  0  0  0  0
  -24.6391  -11.6919   20.8740 C   0  0  0  0  0  0
  -23.9068  -10.4296   21.0407 C   0  0  0  0  0  0
  -24.3621   -9.4209   21.9181 C   0  0  0  0  0  0
  -23.6296   -8.2244   22.0754 C   0  0  0  0  0  0
  -22.4276   -8.0284   21.3547 C   0  0  0  0  0  0
  -21.9913   -9.0256   20.4647 C   0  0  0  0  0  0
  -22.7242  -10.2135   20.3056 C   0  0  0  0  0  0
  -21.6852   -6.0739   22.5282 C   0  0  0  0  0  0
  -21.4014   -6.5643   23.8215 C   0  0  0  0  0  0
  -21.3658   -5.6796   24.9177 C   0  0  0  0  0  0
  -21.6042   -4.3059   24.7227 C   0  0  0  0  0  0
  -21.8818   -3.8152   23.4348 C   0  0  0  0  0  0
  -21.9190   -4.6967   22.3404 C   0  0  0  0  0  0
  -22.7842  -13.5235   21.1849 C   0  0  0  0  0  0
  -22.1656   -4.2154   21.0981 F   0  0  0  0  0  0
  -21.5630   -3.4541   25.7739 F   0  0  0  0  0  0
  -30.0289  -13.3043   20.4423 N   0  0  0  0  0  0
  -26.3000  -12.9371   20.3355 N   0  0  0  0  0  0
  -25.9320  -11.6523   20.5770 N   0  0  0  0  0  0
  -22.0490  -12.8221   22.0409 N   0  0  0  0  0  0
  -25.4289  -15.1903   20.4111 N   0  0  0  0  0  0
  -31.8928  -14.5366   20.1183 O   0  0  0  0  0  0
  -21.6638   -6.8882   21.4246 O   0  0  0  0  0  0
  -22.3516  -14.5538   20.6701 O   0  0  0  0  0  0
  -24.6140  -31.8695   23.2121 C   0  0  0  0  0  0
  -25.9041  -32.4828   23.8409 C   0  0  1  0  0  0
  -27.2243  -27.4396   20.0989 C   0  0  0  0  0  0
  -25.5903  -33.8626   24.2341 N   0  0  0  0  0  0
  -23.4009  -30.4955   21.5522 C   0  0  2  0  0  0
  -24.8463  -28.9676   20.1114 C   0  0  0  0  0  0
  -22.7405  -29.4674   22.4987 C   0  0  0  0  0  0
  -18.0274  -28.1376   22.8495 C   0  0  0  0  0  0
  -24.1489  -36.7319   23.2636 C   0  0  0  0  0  0
  -25.9303  -30.8379   21.3650 C   0  0  0  0  0  0
  -26.0074  -29.4745   20.7097 C   0  0  0  0  0  0
  -27.2024  -28.7187   20.6990 C   0  0  0  0  0  0
  -26.0517  -26.9586   19.4743 C   0  0  0  0  0  0
  -24.8636  -27.7092   19.4884 C   0  0  0  0  0  0
  -23.6078  -29.8321   20.1651 C   0  0  0  0  0  0
  -25.4107  -36.3115   24.0340 C   0  0  1  0  0  0
  -20.5863  -28.3667   23.1316 C   0  0  2  0  0  0
  -20.6766  -26.9405   22.5413 C   0  0  0  0  0  0
  -19.5743  -26.6387   21.5210 C   0  0  0  0  0  0
  -18.1924  -26.7924   22.1624 C   0  0  0  0  0  0
  -19.1522  -28.8837   23.2905 C   0  0  0  0  0  0
  -18.9449  -30.1443   23.8916 C   0  0  0  0  0  0
  -17.6452  -30.6585   24.0566 C   0  0  0  0  0  0
  -25.9034  -34.9478   23.5136 C   0  0  0  0  0  0
  -16.5344  -29.9089   23.6322 C   0  0  0  0  0  0
  -16.7263  -28.6501   23.0352 C   0  0  0  0  0  0
  -26.4472  -31.6596   25.0727 C   0  0  0  0  0  0
  -25.3743  -31.3700   26.1477 C   0  0  0  0  0  0
  -27.0296  -30.3038   24.6096 C   0  0  0  0  0  0
  -27.6056  -32.4303   25.7486 C   0  0  0  0  0  0
  -27.5585  -37.1811   24.8463 C   0  0  0  0  0  0
  -21.4133  -29.3038   22.3724 N   0  0  0  0  0  0
  -26.4295  -37.3796   23.9410 N   0  0  0  0  0  0
  -24.6666  -31.0810   22.1016 N   0  0  0  0  0  0
  -23.4180  -28.8212   23.3023 O   0  0  0  0  0  0
  -28.3676  -26.6707   20.1224 O   0  0  0  0  0  0
  -26.5590  -34.8926   22.4694 O   0  0  0  0  0  0
  -23.5336  -32.1441   23.7523 O   0  0  0  0  0  0
  -30.7293  -19.4097   20.4083 C   0  0  0  0  0  0
  -28.7926  -19.8818   21.3525 C   0  0  0  0  0  0
  -29.8709  -20.4897   20.7601 C   0  0  0  0  0  0
  -30.1252  -18.2433   20.7861 C   0  0  0  0  0  0
  -30.5530  -16.8876   20.6145 C   0  0  0  0  0  0
  -29.9937  -15.6862   20.9015 C   0  0  0  0  0  0
  -30.1579  -21.9590   20.4936 C   0  0  0  0  0  0
  -29.0127  -22.9409   20.8082 C   0  0  0  0  0  0
  -29.3179  -24.3910   20.3569 C   0  0  0  0  0  0
  -28.1802  -25.3674   20.7017 C   0  0  0  0  0  0
  -28.9281  -18.5173   21.3720 O   0  0  0  0  0  0
  -31.4554  -12.3452   19.1465 H   0  0  0  0  0  0
  -30.2745  -11.2885   19.8569 H   0  0  0  0  0  0
  -29.7340  -11.7598   17.4431 H   0  0  0  0  0  0
  -29.6743  -13.4733   17.7758 H   0  0  0  0  0  0
  -27.8160  -11.3107   18.8205 H   0  0  0  0  0  0
  -27.3685  -12.6370   17.7833 H   0  0  0  0  0  0
  -27.6944  -14.2596   19.5603 H   0  0  0  0  0  0
  -28.6678  -11.9939   21.3614 H   0  0  0  0  0  0
  -28.4668  -13.6396   21.8624 H   0  0  0  0  0  0
  -25.2767   -9.5683   22.4752 H   0  0  0  0  0  0
  -24.0007   -7.4633   22.7472 H   0  0  0  0  0  0
  -21.0844   -8.8777   19.8949 H   0  0  0  0  0  0
  -22.3703  -10.9675   19.6165 H   0  0  0  0  0  0
  -21.2010   -7.6153   23.9718 H   0  0  0  0  0  0
  -21.1480   -6.0530   25.9079 H   0  0  0  0  0  0
  -22.0598   -2.7614   23.2849 H   0  0  0  0  0  0
  -22.4114  -11.9883   22.4793 H   0  0  0  0  0  0
  -21.1109  -13.1241   22.2628 H   0  0  0  0  0  0
  -24.6683  -15.8513   20.5270 H   0  0  0  0  0  0
  -26.2923  -15.6296   20.1167 H   0  0  0  0  0  0
  -26.7114  -32.5547   23.1177 H   0  0  0  0  0  0
  -25.0067  -33.9791   25.0495 H   0  0  0  0  0  0
  -22.6894  -31.3125   21.4162 H   0  0  0  0  0  0
  -23.3747  -35.9655   23.3300 H   0  0  0  0  0  0
  -24.3587  -36.8929   22.2049 H   0  0  0  0  0  0
  -23.7242  -37.6528   23.6644 H   0  0  0  0  0  0
  -26.0431  -31.6065   20.5989 H   0  0  0  0  0  0
  -26.8180  -30.8886   21.9835 H   0  0  0  0  0  0
  -28.0976  -29.1027   21.1683 H   0  0  0  0  0  0
  -26.0474  -26.0030   18.9702 H   0  0  0  0  0  0
  -23.9745  -27.3186   19.0122 H   0  0  0  0  0  0
  -23.7132  -30.6089   19.4070 H   0  0  0  0  0  0
  -22.7319  -29.2514   19.8698 H   0  0  0  0  0  0
  -25.1280  -36.1984   25.0833 H   0  0  0  0  0  0
  -20.9961  -28.3233   24.1434 H   0  0  0  0  0  0
  -20.5674  -26.2274   23.3600 H   0  0  0  0  0  0
  -21.6638  -26.7453   22.1203 H   0  0  0  0  0  0
  -19.6909  -25.6302   21.1232 H   0  0  0  0  0  0
  -19.6682  -27.3205   20.6747 H   0  0  0  0  0  0
  -17.4192  -26.6673   21.4027 H   0  0  0  0  0  0
  -18.0329  -26.0060   22.9016 H   0  0  0  0  0  0
  -19.7925  -30.7253   24.2296 H   0  0  0  0  0  0
  -17.5008  -31.6268   24.5165 H   0  0  0  0  0  0
  -15.5346  -30.3000   23.7632 H   0  0  0  0  0  0
  -15.8662  -28.0827   22.7061 H   0  0  0  0  0  0
  -24.5908  -30.7056   25.7813 H   0  0  0  0  0  0
  -24.8943  -32.2855   26.4943 H   0  0  0  0  0  0
  -25.8096  -30.8851   27.0224 H   0  0  0  0  0  0
  -26.2839  -29.6804   24.1149 H   0  0  0  0  0  0
  -27.4068  -29.7266   25.4549 H   0  0  0  0  0  0
  -27.8675  -30.4355   23.9244 H   0  0  0  0  0  0
  -27.2687  -33.3593   26.2097 H   0  0  0  0  0  0
  -28.3850  -32.6873   25.0300 H   0  0  0  0  0  0
  -28.0740  -31.8401   26.5373 H   0  0  0  0  0  0
  -28.2599  -38.0112   24.7519 H   0  0  0  0  0  0
  -28.1084  -36.2645   24.6275 H   0  0  0  0  0  0
  -27.2305  -37.1448   25.8866 H   0  0  0  0  0  0
  -20.9287  -29.8761   21.6952 H   0  0  0  0  0  0
  -26.0187  -38.2876   24.1409 H   0  0  0  0  0  0
  -31.6878  -19.4783   19.9121 H   0  0  0  0  0  0
  -27.8747  -20.2540   21.7879 H   0  0  0  0  0  0
  -31.5249  -16.8706   20.1407 H   0  0  0  0  0  0
  -29.0267  -15.6537   21.3774 H   0  0  0  0  0  0
  -30.4291  -22.0502   19.4409 H   0  0  0  0  0  0
  -31.0461  -22.2414   21.0606 H   0  0  0  0  0  0
  -28.8013  -22.9230   21.8781 H   0  0  0  0  0  0
  -28.1043  -22.6023   20.3077 H   0  0  0  0  0  0
  -29.4805  -24.4018   19.2786 H   0  0  0  0  0  0
  -30.2456  -24.7395   20.8121 H   0  0  0  0  0  0
  -28.1109  -25.4777   21.7847 H   0  0  0  0  0  0
  -27.2469  -24.9018   20.3890 H   0  0  0  0  0  0
  1 25  1  0  0  0
  1 30  2  0  0  0
  1 76  1  0  0  0
  2  3  1  0  0  0
  2 25  1  0  0  0
  2 82  1  0  0  0
  2 83  1  0  0  0
  3  4  1  0  0  0
  3 84  1  0  0  0
  3 85  1  0  0  0
  4  5  1  0  0  0
  4 86  1  0  0  0
  4 87  1  0  0  0
  5  6  1  0  0  0
  5 26  1  0  0  0
  5 88  1  0  0  0
  6 25  1  0  0  0
  6 89  1  0  0  0
  6 90  1  0  0  0
  7  8  2  0  0  0
  7 26  1  0  0  0
  7 29  1  0  0  0
  8  9  1  0  0  0
  8 22  1  0  0  0
  9 10  1  0  0  0
  9 27  2  0  0  0
 10 11  2  0  0  0
 10 15  1  0  0  0
 11 12  1  0  0  0
 11 91  1  0  0  0
 12 13  2  0  0  0
 12 92  1  0  0  0
 13 14  1  0  0  0
 13 31  1  0  0  0
 14 15  2  0  0  0
 14 93  1  0  0  0
 15 94  1  0  0  0
 16 17  2  0  0  0
 16 21  1  0  0  0
 16 31  1  0  0  0
 17 18  1  0  0  0
 17 95  1  0  0  0
 18 19  2  0  0  0
 18 96  1  0  0  0
 19 20  1  0  0  0
 19 24  1  0  0  0
 20 21  2  0  0  0
 20 97  1  0  0  0
 21 23  1  0  0  0
 22 28  1  0  0  0
 22 32  2  0  0  0
 26 27  1  0  0  0
 28 98  1  0  0  0
 28 99  1  0  0  0
 29100  1  0  0  0
 29101  1  0  0  0
 33 34  1  0  0  0
 33 66  1  0  0  0
 33 70  2  0  0  0
 34 36  1  0  0  0
 34 59  1  0  0  0
 34102  1  0  0  0
 35 44  2  0  0  0
 35 45  1  0  0  0
 35 68  1  0  0  0
 36 56  1  0  0  0
 36103  1  0  0  0
 37 39  1  0  0  0
 37 47  1  0  0  0
 37 66  1  0  0  0
 37104  1  0  0  0
 38 43  2  0  0  0
 38 46  1  0  0  0
 38 47  1  0  0  0
 39 64  1  0  0  0
 39 67  2  0  0  0
 40 52  1  0  0  0
 40 53  2  0  0  0
 40 58  1  0  0  0
 41105  1  0  0  0
 41106  1  0  0  0
 41107  1  0  0  0
 41 48  1  0  0  0
 42 43  1  0  0  0
 42 66  1  0  0  0
 42108  1  0  0  0
 42109  1  0  0  0
 43 44  1  0  0  0
 44110  1  0  0  0
 45 46  2  0  0  0
 45111  1  0  0  0
 46112  1  0  0  0
 47113  1  0  0  0
 47114  1  0  0  0
 48 56  1  0  0  0
 48 65  1  0  0  0
 48115  1  0  0  0
 49 50  1  0  0  0
 49 53  1  0  0  0
 49 64  1  0  0  0
 49116  1  0  0  0
 50 51  1  0  0  0
 50117  1  0  0  0
 50118  1  0  0  0
 51 52  1  0  0  0
 51119  1  0  0  0
 51120  1  0  0  0
 52121  1  0  0  0
 52122  1  0  0  0
 53 54  1  0  0  0
 54 55  2  0  0  0
 54123  1  0  0  0
 55 57  1  0  0  0
 55124  1  0  0  0
 56 69  2  0  0  0
 57 58  2  0  0  0
 57125  1  0  0  0
 58126  1  0  0  0
 59 60  1  0  0  0
 59 61  1  0  0  0
 59 62  1  0  0  0
 60127  1  0  0  0
 60128  1  0  0  0
 60129  1  0  0  0
 61130  1  0  0  0
 61131  1  0  0  0
 61132  1  0  0  0
 62133  1  0  0  0
 62134  1  0  0  0
 62135  1  0  0  0
 63 65  1  0  0  0
 63136  1  0  0  0
 63137  1  0  0  0
 63138  1  0  0  0
 64139  1  0  0  0
 65140  1  0  0  0
 68 80  1  0  0  0
 71 73  1  0  0  0
 71 74  2  0  0  0
 71141  1  0  0  0
 72 73  2  0  0  0
 72 81  1  0  0  0
 72142  1  0  0  0
 73 77  1  0  0  0
 74 75  1  0  0  0
 74 81  1  0  0  0
 75 76  2  0  0  0
 75143  1  0  0  0
 76144  1  0  0  0
 77 78  1  0  0  0
 77145  1  0  0  0
 77146  1  0  0  0
 78 79  1  0  0  0
 78147  1  0  0  0
 78148  1  0  0  0
 79 80  1  0  0  0
 79149  1  0  0  0
 79150  1  0  0  0
 80151  1  0  0  0
 80152  1  0  0  0
M  ISO  4   1 100  68 101  76 100  80 101
M  END
> <chiral flag>
0

> <version>
0

> <s_m_source_file>
/data/baiqing/PycharmProjects/Reinvent-master-3.2/result/LINK_invent/BTK/process_docking_weight1_custom_product_contain_oxygen_bond_distance_aromatic_linkinvent_7_9_3/rearranged_h_0127.sdf

> <i_m_source_file_index>
88

> <r_mmod_Potential_Energy-OPLS-2005>
-49.3810424804688

> <r_mmod_Stretch_Energy-OPLS-2005>
33.6996994018555

> <r_mmod_Bend_Energy-OPLS-2005>
99.2036666870117

> <r_mmod_Torsional_Energy-OPLS-2005>
192.310440063477

> <r_mmod_Improper_Torsional_Energy-OPLS-2005>
4.31002473831177

> <r_mmod_Van_der_Waal_Energy-OPLS-2005>
138.643997192383

> <r_mmod_Electrostatic_Energy-OPLS-2005>
-345.160430908203

> <r_mmod_Solvation_Energy-OPLS-2005>
-190.3115234375

> <b_mmod_Minimization_Converged-OPLS-2005>
0

> <r_mmod_RMS_Derivative-OPLS-2005>
0.531730592250824

$$$$
