0
                    3D
 Structure written by MMmdl.
160168  0  0  1  0            999 V2000
  -30.6601  -14.5829   20.5233 C   0  0  0  0  0  0
  -30.4267  -12.3708   19.4247 C   0  0  0  0  0  0
  -29.4920  -12.5246   18.2060 C   0  0  0  0  0  0
  -28.0198  -12.3636   18.6272 C   0  0  0  0  0  0
  -27.6586  -13.2192   19.8676 C   0  0  2  0  0  0
  -28.7017  -13.0521   20.9927 C   0  0  0  0  0  0
  -25.2587  -13.8167   20.5656 C   0  0  0  0  0  0
  -24.1854  -13.0465   20.9236 C   0  0  0  0  0  0
  -24.6391  -11.6939   20.8757 C   0  0  0  0  0  0
  -23.9046  -10.4327   21.0380 C   0  0  0  0  0  0
  -24.3602   -9.4248   21.9162 C   0  0  0  0  0  0
  -23.6308   -8.2272   22.0723 C   0  0  0  0  0  0
  -22.4284   -8.0292   21.3523 C   0  0  0  0  0  0
  -21.9913   -9.0246   20.4619 C   0  0  0  0  0  0
  -22.7212  -10.2152   20.3022 C   0  0  0  0  0  0
  -21.6875   -6.0742   22.5272 C   0  0  0  0  0  0
  -21.3997   -6.5642   23.8193 C   0  0  0  0  0  0
  -21.3635   -5.6802   24.9165 C   0  0  0  0  0  0
  -21.6048   -4.3057   24.7227 C   0  0  0  0  0  0
  -21.8836   -3.8149   23.4341 C   0  0  0  0  0  0
  -21.9216   -4.6976   22.3398 C   0  0  0  0  0  0
  -22.7878  -13.5261   21.1906 C   0  0  0  0  0  0
  -22.1697   -4.2149   21.0984 F   0  0  0  0  0  0
  -21.5628   -3.4549   25.7734 F   0  0  0  0  0  0
  -30.0247  -13.3722   20.4348 N   0  0  0  0  0  0
  -26.3031  -12.9375   20.3314 N   0  0  0  0  0  0
  -25.9328  -11.6541   20.5772 N   0  0  0  0  0  0
  -22.0518  -12.8201   22.0415 N   0  0  0  0  0  0
  -25.4303  -15.1854   20.3896 N   0  0  0  0  0  0
  -31.7832  -14.7627   20.0425 O   0  0  0  0  0  0
  -21.6647   -6.8879   21.4220 O   0  0  0  0  0  0
  -22.3586  -14.5590   20.6793 O   0  0  0  0  0  0
  -24.6198  -31.8571   23.2067 C   0  0  0  0  0  0
  -25.9067  -32.4747   23.8351 C   0  0  1  0  0  0
  -27.2281  -27.3923   20.0794 C   0  0  0  0  0  0
  -25.5876  -33.8538   24.2276 N   0  0  0  0  0  0
  -23.4090  -30.4869   21.5487 C   0  0  2  0  0  0
  -24.8484  -28.9389   20.1198 C   0  0  0  0  0  0
  -22.7450  -29.4630   22.4968 C   0  0  0  0  0  0
  -18.0272  -28.1409   22.8562 C   0  0  0  0  0  0
  -24.1384  -36.7115   23.2666 C   0  0  0  0  0  0
  -25.9460  -30.8089   21.3652 C   0  0  0  0  0  0
  -26.0182  -29.4457   20.7049 C   0  0  0  0  0  0
  -27.2133  -28.6837   20.6703 C   0  0  0  0  0  0
  -26.0366  -26.9036   19.5070 C   0  0  0  0  0  0
  -24.8533  -27.6669   19.5260 C   0  0  0  0  0  0
  -23.6136  -29.8120   20.1683 C   0  0  0  0  0  0
  -25.4026  -36.3011   24.0387 C   0  0  1  0  0  0
  -20.5852  -28.3629   23.1316 C   0  0  2  0  0  0
  -20.6690  -26.9332   22.5456 C   0  0  0  0  0  0
  -19.5680  -26.6377   21.5236 C   0  0  0  0  0  0
  -18.1857  -26.7969   22.1652 C   0  0  0  0  0  0
  -19.1517  -28.8843   23.2916 C   0  0  0  0  0  0
  -18.9503  -30.1475   23.8887 C   0  0  0  0  0  0
  -17.6505  -30.6619   24.0617 C   0  0  0  0  0  0
  -25.8994  -34.9415   23.5127 C   0  0  0  0  0  0
  -16.5373  -29.9136   23.6414 C   0  0  0  0  0  0
  -16.7257  -28.6545   23.0436 C   0  0  0  0  0  0
  -26.4451  -31.6577   25.0732 C   0  0  0  0  0  0
  -25.3715  -31.3715   26.1468 C   0  0  0  0  0  0
  -27.0281  -30.3012   24.6168 C   0  0  0  0  0  0
  -27.6001  -32.4303   25.7525 C   0  0  0  0  0  0
  -27.5489  -37.1687   24.8536 C   0  0  0  0  0  0
  -21.4151  -29.2975   22.3689 N   0  0  0  0  0  0
  -26.4179  -37.3752   23.9520 N   0  0  0  0  0  0
  -24.6780  -31.0696   22.0970 N   0  0  0  0  0  0
  -23.4196  -28.8155   23.2992 O   0  0  0  0  0  0
  -28.3837  -26.6366   19.9932 O   0  0  0  0  0  0
  -26.5608  -34.8933   22.4703 O   0  0  0  0  0  0
  -23.5364  -32.1297   23.7473 O   0  0  0  0  0  0
  -29.3540  -19.1978   20.5342 C   0  0  0  0  0  0
  -28.4512  -18.8050   19.5556 C   0  0  0  0  0  0
  -29.6866  -16.8857   20.5321 C   0  0  0  0  0  0
  -29.6246  -20.6385   20.9944 C   0  0  0  0  0  0
  -28.4450  -24.0841   19.8969 C   0  0  0  0  0  0
  -30.5017  -22.3870   17.7511 C   0  0  0  0  0  0
  -32.1387  -23.0161   19.5692 C   0  0  0  0  0  0
  -28.4322  -25.3967   20.7464 C   0  0  0  0  0  0
  -29.6095  -23.0562   20.1157 C   0  0  2  0  0  0
  -30.7184  -23.2312   19.0268 C   0  0  0  0  0  0
  -29.9811  -18.0608   21.1297 N   0  0  0  0  0  0
  -27.4608  -19.5479   18.9021 N   0  0  0  0  0  0
  -29.9761  -15.5987   21.1113 N   0  0  0  0  0  0
  -29.1789  -21.6319   20.1873 N   0  0  0  0  0  0
  -30.2887  -20.8846   22.0079 O   0  0  0  0  0  0
  -27.5442  -23.8696   19.0778 O   0  0  0  0  0  0
  -28.5900  -17.0966   19.1706 S   0  0  0  0  0  0
  -31.4642  -12.4897   19.1063 H   0  0  0  0  0  0
  -30.3558  -11.3615   19.8348 H   0  0  0  0  0  0
  -29.7383  -11.7877   17.4415 H   0  0  0  0  0  0
  -29.6389  -13.5007   17.7409 H   0  0  0  0  0  0
  -27.8561  -11.3101   18.8562 H   0  0  0  0  0  0
  -27.3574  -12.6026   17.7923 H   0  0  0  0  0  0
  -27.6852  -14.2589   19.5461 H   0  0  0  0  0  0
  -28.6922  -12.0310   21.3753 H   0  0  0  0  0  0
  -28.4485  -13.6917   21.8377 H   0  0  0  0  0  0
  -25.2730   -9.5781   22.4742 H   0  0  0  0  0  0
  -24.0057   -7.4654   22.7405 H   0  0  0  0  0  0
  -21.0863   -8.8724   19.8881 H   0  0  0  0  0  0
  -22.3628  -10.9692   19.6132 H   0  0  0  0  0  0
  -21.1935   -7.6148   23.9699 H   0  0  0  0  0  0
  -21.1442   -6.0521   25.9067 H   0  0  0  0  0  0
  -22.0629   -2.7616   23.2844 H   0  0  0  0  0  0
  -22.4156  -11.9873   22.4813 H   0  0  0  0  0  0
  -21.1100  -13.1149   22.2526 H   0  0  0  0  0  0
  -24.6349  -15.8163   20.3946 H   0  0  0  0  0  0
  -26.2344  -15.5682   19.9096 H   0  0  0  0  0  0
  -26.7147  -32.5388   23.1096 H   0  0  0  0  0  0
  -25.0051  -33.9654   25.0452 H   0  0  0  0  0  0
  -22.7012  -31.3047   21.4052 H   0  0  0  0  0  0
  -23.3723  -35.9365   23.3380 H   0  0  0  0  0  0
  -24.3454  -36.8639   22.2060 H   0  0  0  0  0  0
  -23.7048  -37.6302   23.6628 H   0  0  0  0  0  0
  -26.0780  -31.5837   20.6084 H   0  0  0  0  0  0
  -26.8253  -30.8400   21.9963 H   0  0  0  0  0  0
  -28.1177  -29.0855   21.0996 H   0  0  0  0  0  0
  -26.0164  -25.9325   19.0332 H   0  0  0  0  0  0
  -23.9526  -27.2640   19.0827 H   0  0  0  0  0  0
  -23.7225  -30.5811   19.4039 H   0  0  0  0  0  0
  -22.7374  -29.2303   19.8740 H   0  0  0  0  0  0
  -25.1188  -36.1807   25.0888 H   0  0  0  0  0  0
  -20.9981  -28.3164   24.1413 H   0  0  0  0  0  0
  -20.5489  -26.2223   23.3625 H   0  0  0  0  0  0
  -21.6561  -26.7263   22.1282 H   0  0  0  0  0  0
  -19.6794  -25.6309   21.1181 H   0  0  0  0  0  0
  -19.6662  -27.3268   20.6824 H   0  0  0  0  0  0
  -17.4125  -26.6797   21.4050 H   0  0  0  0  0  0
  -18.0215  -26.0120   22.9027 H   0  0  0  0  0  0
  -19.7993  -30.7317   24.2175 H   0  0  0  0  0  0
  -17.5098  -31.6314   24.5203 H   0  0  0  0  0  0
  -15.5383  -30.3053   23.7804 H   0  0  0  0  0  0
  -15.8634  -28.0890   22.7148 H   0  0  0  0  0  0
  -24.6135  -30.6705   25.7951 H   0  0  0  0  0  0
  -24.8590  -32.2816   26.4605 H   0  0  0  0  0  0
  -25.8118  -30.9309   27.0416 H   0  0  0  0  0  0
  -26.2816  -29.6769   24.1238 H   0  0  0  0  0  0
  -27.4032  -29.7269   25.4652 H   0  0  0  0  0  0
  -27.8669  -30.4312   23.9315 H   0  0  0  0  0  0
  -27.2676  -33.3769   26.1807 H   0  0  0  0  0  0
  -28.3993  -32.6529   25.0444 H   0  0  0  0  0  0
  -28.0401  -31.8564   26.5690 H   0  0  0  0  0  0
  -28.2559  -37.9932   24.7527 H   0  0  0  0  0  0
  -28.0886  -36.2457   24.6369 H   0  0  0  0  0  0
  -27.2212  -37.1336   25.8949 H   0  0  0  0  0  0
  -20.9287  -29.8666   21.6900 H   0  0  0  0  0  0
  -26.0005  -38.2755   24.1739 H   0  0  0  0  0  0
  -31.1679  -22.7085   16.9480 H   0  0  0  0  0  0
  -29.4818  -22.4735   17.3744 H   0  0  0  0  0  0
  -30.7006  -21.3255   17.9204 H   0  0  0  0  0  0
  -32.8796  -23.4159   18.8731 H   0  0  0  0  0  0
  -32.3587  -21.9559   19.7065 H   0  0  0  0  0  0
  -32.2806  -23.5340   20.5215 H   0  0  0  0  0  0
  -29.3418  -25.4284   21.3441 H   0  0  0  0  0  0
  -27.6009  -25.3499   21.4465 H   0  0  0  0  0  0
  -30.0531  -23.3201   21.0801 H   0  0  0  0  0  0
  -30.6861  -24.2733   18.7016 H   0  0  0  0  0  0
  -26.9462  -20.1573   19.5333 H   0  0  0  0  0  0
  -26.7793  -19.0096   18.3707 H   0  0  0  0  0  0
  -29.2117  -15.2628   21.6753 H   0  0  0  0  0  0
  -28.5926  -21.3070   19.4241 H   0  0  0  0  0  0
  1 25  1  0  0  0
  1 30  2  0  0  0
  1 83  1  0  0  0
  2  3  1  0  0  0
  2 25  1  0  0  0
  2 88  1  0  0  0
  2 89  1  0  0  0
  3  4  1  0  0  0
  3 90  1  0  0  0
  3 91  1  0  0  0
  4  5  1  0  0  0
  4 92  1  0  0  0
  4 93  1  0  0  0
  5  6  1  0  0  0
  5 26  1  0  0  0
  5 94  1  0  0  0
  6 25  1  0  0  0
  6 95  1  0  0  0
  6 96  1  0  0  0
  7  8  2  0  0  0
  7 26  1  0  0  0
  7 29  1  0  0  0
  8  9  1  0  0  0
  8 22  1  0  0  0
  9 10  1  0  0  0
  9 27  2  0  0  0
 10 11  2  0  0  0
 10 15  1  0  0  0
 11 12  1  0  0  0
 11 97  1  0  0  0
 12 13  2  0  0  0
 12 98  1  0  0  0
 13 14  1  0  0  0
 13 31  1  0  0  0
 14 15  2  0  0  0
 14 99  1  0  0  0
 15100  1  0  0  0
 16 17  2  0  0  0
 16 21  1  0  0  0
 16 31  1  0  0  0
 17 18  1  0  0  0
 17101  1  0  0  0
 18 19  2  0  0  0
 18102  1  0  0  0
 19 20  1  0  0  0
 19 24  1  0  0  0
 20 21  2  0  0  0
 20103  1  0  0  0
 21 23  1  0  0  0
 22 28  1  0  0  0
 22 32  2  0  0  0
 26 27  1  0  0  0
 28104  1  0  0  0
 28105  1  0  0  0
 29106  1  0  0  0
 29107  1  0  0  0
 33 34  1  0  0  0
 33 66  1  0  0  0
 33 70  2  0  0  0
 34 36  1  0  0  0
 34 59  1  0  0  0
 34108  1  0  0  0
 35 44  2  0  0  0
 35 45  1  0  0  0
 35 68  1  0  0  0
 36 56  1  0  0  0
 36109  1  0  0  0
 37 39  1  0  0  0
 37 47  1  0  0  0
 37 66  1  0  0  0
 37110  1  0  0  0
 38 43  2  0  0  0
 38 46  1  0  0  0
 38 47  1  0  0  0
 39 64  1  0  0  0
 39 67  2  0  0  0
 40 52  1  0  0  0
 40 53  2  0  0  0
 40 58  1  0  0  0
 41111  1  0  0  0
 41112  1  0  0  0
 41113  1  0  0  0
 41 48  1  0  0  0
 42 43  1  0  0  0
 42 66  1  0  0  0
 42114  1  0  0  0
 42115  1  0  0  0
 43 44  1  0  0  0
 44116  1  0  0  0
 45 46  2  0  0  0
 45117  1  0  0  0
 46118  1  0  0  0
 47119  1  0  0  0
 47120  1  0  0  0
 48 56  1  0  0  0
 48 65  1  0  0  0
 48121  1  0  0  0
 49 50  1  0  0  0
 49 53  1  0  0  0
 49 64  1  0  0  0
 49122  1  0  0  0
 50 51  1  0  0  0
 50123  1  0  0  0
 50124  1  0  0  0
 51 52  1  0  0  0
 51125  1  0  0  0
 51126  1  0  0  0
 52127  1  0  0  0
 52128  1  0  0  0
 53 54  1  0  0  0
 54 55  2  0  0  0
 54129  1  0  0  0
 55 57  1  0  0  0
 55130  1  0  0  0
 56 69  2  0  0  0
 57 58  2  0  0  0
 57131  1  0  0  0
 58132  1  0  0  0
 59 60  1  0  0  0
 59 61  1  0  0  0
 59 62  1  0  0  0
 60133  1  0  0  0
 60134  1  0  0  0
 60135  1  0  0  0
 61136  1  0  0  0
 61137  1  0  0  0
 61138  1  0  0  0
 62139  1  0  0  0
 62140  1  0  0  0
 62141  1  0  0  0
 63 65  1  0  0  0
 63142  1  0  0  0
 63143  1  0  0  0
 63144  1  0  0  0
 64145  1  0  0  0
 65146  1  0  0  0
 68 78  1  0  0  0
 71 72  2  0  0  0
 71 74  1  0  0  0
 71 81  1  0  0  0
 72 82  1  0  0  0
 72 87  1  0  0  0
 73 81  2  0  0  0
 73 83  1  0  0  0
 73 87  1  0  0  0
 74 84  1  0  0  0
 74 85  2  0  0  0
 75 78  1  0  0  0
 75 79  1  0  0  0
 75 86  2  0  0  0
 76147  1  0  0  0
 76148  1  0  0  0
 76149  1  0  0  0
 76 80  1  0  0  0
 77 80  1  0  0  0
 77150  1  0  0  0
 77151  1  0  0  0
 77152  1  0  0  0
 78153  1  0  0  0
 78154  1  0  0  0
 79 80  1  0  0  0
 79 84  1  0  0  0
 79155  1  0  0  0
 80156  1  0  0  0
 82157  1  0  0  0
 82158  1  0  0  0
 83159  1  0  0  0
 84160  1  0  0  0
M  ISO  4   1 100  68 101  78 101  83 100
M  END
> <chiral flag>
0

> <version>
0

> <s_m_source_file>
/data/baiqing/PycharmProjects/Reinvent-master-3.2/result/LINK_invent/BTK/process_docking_weight1_custom_product_contain_oxygen_bond_distance_aromatic_linkinvent_7_9_3/rearranged_h_0182.sdf

> <i_m_source_file_index>
1

> <r_mmod_Potential_Energy-OPLS-2005>
80.004997253418

> <r_mmod_Stretch_Energy-OPLS-2005>
56.2140197753906

> <r_mmod_Bend_Energy-OPLS-2005>
115.252830505371

> <r_mmod_Torsional_Energy-OPLS-2005>
316.561096191406

> <r_mmod_Improper_Torsional_Energy-OPLS-2005>
15.2512092590332

> <r_mmod_Van_der_Waal_Energy-OPLS-2005>
113.33154296875

> <r_mmod_Electrostatic_Energy-OPLS-2005>
-310.461242675781

> <r_mmod_Solvation_Energy-OPLS-2005>
-252.401336669922

> <b_mmod_Minimization_Converged-OPLS-2005>
0

> <r_mmod_RMS_Derivative-OPLS-2005>
7.03301334381104

$$$$
1
                    3D
 Structure written by MMmdl.
152160  0  0  1  0            999 V2000
  -30.7058  -14.4682   20.5762 C   0  0  0  0  0  0
  -30.4183  -12.3007   19.4291 C   0  0  0  0  0  0
  -29.4949  -12.5016   18.2100 C   0  0  0  0  0  0
  -28.0163  -12.3589   18.6202 C   0  0  0  0  0  0
  -27.6594  -13.2084   19.8686 C   0  0  2  0  0  0
  -28.6995  -13.0154   20.9943 C   0  0  0  0  0  0
  -25.2595  -13.8166   20.5677 C   0  0  0  0  0  0
  -24.1842  -13.0442   20.9171 C   0  0  0  0  0  0
  -24.6398  -11.6911   20.8727 C   0  0  0  0  0  0
  -23.9068  -10.4293   21.0404 C   0  0  0  0  0  0
  -24.3623   -9.4214   21.9183 C   0  0  0  0  0  0
  -23.6299   -8.2247   22.0754 C   0  0  0  0  0  0
  -22.4281   -8.0282   21.3542 C   0  0  0  0  0  0
  -21.9912   -9.0256   20.4647 C   0  0  0  0  0  0
  -22.7239  -10.2136   20.3055 C   0  0  0  0  0  0
  -21.6857   -6.0738   22.5282 C   0  0  0  0  0  0
  -21.4013   -6.5643   23.8213 C   0  0  0  0  0  0
  -21.3654   -5.6795   24.9175 C   0  0  0  0  0  0
  -21.6042   -4.3057   24.7224 C   0  0  0  0  0  0
  -21.8819   -3.8149   23.4344 C   0  0  0  0  0  0
  -21.9198   -4.6966   22.3404 C   0  0  0  0  0  0
  -22.7867  -13.5246   21.1842 C   0  0  0  0  0  0
  -22.1665   -4.2155   21.0977 F   0  0  0  0  0  0
  -21.5630   -3.4537   25.7731 F   0  0  0  0  0  0
  -30.0330  -13.2934   20.4445 N   0  0  0  0  0  0
  -26.3021  -12.9336   20.3339 N   0  0  0  0  0  0
  -25.9324  -11.6498   20.5755 N   0  0  0  0  0  0
  -22.0511  -12.8224   22.0399 N   0  0  0  0  0  0
  -25.4352  -15.1880   20.4107 N   0  0  0  0  0  0
  -31.8409  -14.6139   20.1126 O   0  0  0  0  0  0
  -21.6647   -6.8878   21.4238 O   0  0  0  0  0  0
  -22.3548  -14.5560   20.6709 O   0  0  0  0  0  0
  -24.6139  -31.8685   23.2094 C   0  0  0  0  0  0
  -25.9038  -32.4825   23.8397 C   0  0  1  0  0  0
  -27.2376  -27.4454   20.1001 C   0  0  0  0  0  0
  -25.5906  -33.8624   24.2330 N   0  0  0  0  0  0
  -23.4015  -30.4903   21.5501 C   0  0  2  0  0  0
  -24.8482  -28.9510   20.1203 C   0  0  0  0  0  0
  -22.7403  -29.4663   22.5001 C   0  0  0  0  0  0
  -18.0272  -28.1383   22.8491 C   0  0  0  0  0  0
  -24.1487  -36.7311   23.2641 C   0  0  0  0  0  0
  -25.9278  -30.8377   21.3589 C   0  0  0  0  0  0
  -26.0075  -29.4706   20.7107 C   0  0  0  0  0  0
  -27.2080  -28.7262   20.6941 C   0  0  0  0  0  0
  -26.0632  -26.9312   19.5130 C   0  0  0  0  0  0
  -24.8694  -27.6789   19.5198 C   0  0  0  0  0  0
  -23.6088  -29.8168   20.1667 C   0  0  0  0  0  0
  -25.4110  -36.3113   24.0342 C   0  0  1  0  0  0
  -20.5860  -28.3663   23.1325 C   0  0  2  0  0  0
  -20.6756  -26.9399   22.5425 C   0  0  0  0  0  0
  -19.5740  -26.6382   21.5214 C   0  0  0  0  0  0
  -18.1913  -26.7936   22.1609 C   0  0  0  0  0  0
  -19.1522  -28.8841   23.2902 C   0  0  0  0  0  0
  -18.9450  -30.1446   23.8917 C   0  0  0  0  0  0
  -17.6450  -30.6584   24.0576 C   0  0  0  0  0  0
  -25.9036  -34.9480   23.5129 C   0  0  0  0  0  0
  -16.5341  -29.9084   23.6336 C   0  0  0  0  0  0
  -16.7259  -28.6504   23.0352 C   0  0  0  0  0  0
  -26.4466  -31.6608   25.0726 C   0  0  0  0  0  0
  -25.3740  -31.3715   26.1482 C   0  0  0  0  0  0
  -27.0289  -30.3052   24.6091 C   0  0  0  0  0  0
  -27.6054  -32.4327   25.7478 C   0  0  0  0  0  0
  -27.5582  -37.1806   24.8465 C   0  0  0  0  0  0
  -21.4135  -29.3028   22.3729 N   0  0  0  0  0  0
  -26.4296  -37.3798   23.9411 N   0  0  0  0  0  0
  -24.6659  -31.0801   22.0981 N   0  0  0  0  0  0
  -23.4175  -28.8220   23.3055 O   0  0  0  0  0  0
  -28.4061  -26.7235   20.0542 O   0  0  0  0  0  0
  -26.5596  -34.8935   22.4688 O   0  0  0  0  0  0
  -23.5336  -32.1423   23.7503 O   0  0  0  0  0  0
  -29.6828  -18.9209   22.4221 C   0  0  0  0  0  0
  -30.1271  -18.3284   21.2665 C   0  0  0  0  0  0
  -29.2067  -20.6380   20.9619 C   0  0  0  0  0  0
  -29.0367  -22.9894   20.8775 C   0  0  0  0  0  0
  -28.5204  -24.2504   20.1680 C   0  0  0  0  0  0
  -29.8814  -23.2545   22.1274 C   0  0  0  0  0  0
  -30.8477  -17.0143   21.0925 C   0  0  0  0  0  0
  -28.4655  -25.5920   20.9393 C   0  0  0  0  0  0
  -29.9948  -15.7150   21.1682 C   0  0  0  0  0  0
  -29.1499  -20.2055   22.2303 N   0  0  0  0  0  0
  -28.8037  -21.8123   20.4052 N   0  0  0  0  0  0
  -28.1165  -24.2059   18.9979 O   0  0  0  0  0  0
  -29.8239  -19.3702   19.8947 S   0  0  0  0  0  0
  -31.4640  -12.3874   19.1294 H   0  0  0  0  0  0
  -30.3088  -11.2928   19.8320 H   0  0  0  0  0  0
  -29.7364  -11.7787   17.4300 H   0  0  0  0  0  0
  -29.6635  -13.4888   17.7761 H   0  0  0  0  0  0
  -27.8280  -11.3038   18.8221 H   0  0  0  0  0  0
  -27.3658  -12.6267   17.7874 H   0  0  0  0  0  0
  -27.6964  -14.2513   19.5547 H   0  0  0  0  0  0
  -28.6668  -11.9932   21.3731 H   0  0  0  0  0  0
  -28.4619  -13.6502   21.8475 H   0  0  0  0  0  0
  -25.2773   -9.5686   22.4753 H   0  0  0  0  0  0
  -24.0012   -7.4637   22.7470 H   0  0  0  0  0  0
  -21.0846   -8.8777   19.8949 H   0  0  0  0  0  0
  -22.3709  -10.9677   19.6160 H   0  0  0  0  0  0
  -21.1999   -7.6155   23.9716 H   0  0  0  0  0  0
  -21.1472   -6.0526   25.9078 H   0  0  0  0  0  0
  -22.0601   -2.7612   23.2844 H   0  0  0  0  0  0
  -22.4129  -11.9879   22.4768 H   0  0  0  0  0  0
  -21.1134  -13.1244   22.2623 H   0  0  0  0  0  0
  -24.6748  -15.8490   20.5254 H   0  0  0  0  0  0
  -26.2987  -15.6261   20.1133 H   0  0  0  0  0  0
  -26.7121  -32.5539   23.1178 H   0  0  0  0  0  0
  -25.0104  -33.9794   25.0508 H   0  0  0  0  0  0
  -22.6903  -31.3066   21.4096 H   0  0  0  0  0  0
  -23.3757  -35.9635   23.3310 H   0  0  0  0  0  0
  -24.3594  -36.8913   22.2054 H   0  0  0  0  0  0
  -23.7223  -37.6513   23.6649 H   0  0  0  0  0  0
  -26.0361  -31.6020   20.5882 H   0  0  0  0  0  0
  -26.8170  -30.8931   21.9756 H   0  0  0  0  0  0
  -28.1081  -29.1297   21.1372 H   0  0  0  0  0  0
  -26.0728  -25.9588   19.0421 H   0  0  0  0  0  0
  -23.9778  -27.2724   19.0625 H   0  0  0  0  0  0
  -23.7177  -30.5894   19.4052 H   0  0  0  0  0  0
  -22.7325  -29.2362   19.8719 H   0  0  0  0  0  0
  -25.1286  -36.1976   25.0838 H   0  0  0  0  0  0
  -20.9943  -28.3221   24.1451 H   0  0  0  0  0  0
  -20.5650  -26.2274   23.3612 H   0  0  0  0  0  0
  -21.6626  -26.7435   22.1217 H   0  0  0  0  0  0
  -19.6897  -25.6292   21.1239 H   0  0  0  0  0  0
  -19.6693  -27.3206   20.6756 H   0  0  0  0  0  0
  -17.4188  -26.6715   21.4001 H   0  0  0  0  0  0
  -18.0290  -26.0061   22.8983 H   0  0  0  0  0  0
  -19.7925  -30.7260   24.2290 H   0  0  0  0  0  0
  -17.5004  -31.6272   24.5163 H   0  0  0  0  0  0
  -15.5345  -30.2994   23.7653 H   0  0  0  0  0  0
  -15.8656  -28.0833   22.7064 H   0  0  0  0  0  0
  -24.5948  -30.7008   25.7842 H   0  0  0  0  0  0
  -24.8892  -32.2862   26.4902 H   0  0  0  0  0  0
  -25.8107  -30.8934   27.0256 H   0  0  0  0  0  0
  -26.2819  -29.6812   24.1167 H   0  0  0  0  0  0
  -27.4082  -29.7291   25.4540 H   0  0  0  0  0  0
  -27.8645  -30.4384   23.9216 H   0  0  0  0  0  0
  -27.2692  -33.3634   26.2064 H   0  0  0  0  0  0
  -28.3854  -32.6867   25.0288 H   0  0  0  0  0  0
  -28.0726  -31.8441   26.5383 H   0  0  0  0  0  0
  -28.2601  -38.0102   24.7511 H   0  0  0  0  0  0
  -28.1074  -36.2635   24.6285 H   0  0  0  0  0  0
  -27.2313  -37.1432   25.8873 H   0  0  0  0  0  0
  -20.9298  -29.8754   21.6952 H   0  0  0  0  0  0
  -26.0185  -38.2872   24.1432 H   0  0  0  0  0  0
  -29.7355  -18.5154   23.4232 H   0  0  0  0  0  0
  -30.6011  -24.0524   21.9456 H   0  0  0  0  0  0
  -30.4795  -22.3971   22.4254 H   0  0  0  0  0  0
  -29.2437  -23.5381   22.9642 H   0  0  0  0  0  0
  -31.6440  -16.9497   21.8351 H   0  0  0  0  0  0
  -31.3623  -17.0541   20.1312 H   0  0  0  0  0  0
  -29.3543  -25.7203   21.5537 H   0  0  0  0  0  0
  -27.6138  -25.5788   21.6210 H   0  0  0  0  0  0
  -29.0774  -15.8672   20.6005 H   0  0  0  0  0  0
  -29.7040  -15.5254   22.2012 H   0  0  0  0  0  0
  1 25  1  0  0  0
  1 30  2  0  0  0
  1 79  1  0  0  0
  2  3  1  0  0  0
  2 25  1  0  0  0
  2 84  1  0  0  0
  2 85  1  0  0  0
  3  4  1  0  0  0
  3 86  1  0  0  0
  3 87  1  0  0  0
  4  5  1  0  0  0
  4 88  1  0  0  0
  4 89  1  0  0  0
  5  6  1  0  0  0
  5 26  1  0  0  0
  5 90  1  0  0  0
  6 25  1  0  0  0
  6 91  1  0  0  0
  6 92  1  0  0  0
  7  8  2  0  0  0
  7 26  1  0  0  0
  7 29  1  0  0  0
  8  9  1  0  0  0
  8 22  1  0  0  0
  9 10  1  0  0  0
  9 27  2  0  0  0
 10 11  2  0  0  0
 10 15  1  0  0  0
 11 12  1  0  0  0
 11 93  1  0  0  0
 12 13  2  0  0  0
 12 94  1  0  0  0
 13 14  1  0  0  0
 13 31  1  0  0  0
 14 15  2  0  0  0
 14 95  1  0  0  0
 15 96  1  0  0  0
 16 17  2  0  0  0
 16 21  1  0  0  0
 16 31  1  0  0  0
 17 18  1  0  0  0
 17 97  1  0  0  0
 18 19  2  0  0  0
 18 98  1  0  0  0
 19 20  1  0  0  0
 19 24  1  0  0  0
 20 21  2  0  0  0
 20 99  1  0  0  0
 21 23  1  0  0  0
 22 28  1  0  0  0
 22 32  2  0  0  0
 26 27  1  0  0  0
 28100  1  0  0  0
 28101  1  0  0  0
 29102  1  0  0  0
 29103  1  0  0  0
 33 34  1  0  0  0
 33 66  1  0  0  0
 33 70  2  0  0  0
 34 36  1  0  0  0
 34 59  1  0  0  0
 34104  1  0  0  0
 35 44  2  0  0  0
 35 45  1  0  0  0
 35 68  1  0  0  0
 36 56  1  0  0  0
 36105  1  0  0  0
 37 39  1  0  0  0
 37 47  1  0  0  0
 37 66  1  0  0  0
 37106  1  0  0  0
 38 43  2  0  0  0
 38 46  1  0  0  0
 38 47  1  0  0  0
 39 64  1  0  0  0
 39 67  2  0  0  0
 40 52  1  0  0  0
 40 53  2  0  0  0
 40 58  1  0  0  0
 41107  1  0  0  0
 41108  1  0  0  0
 41109  1  0  0  0
 41 48  1  0  0  0
 42 43  1  0  0  0
 42 66  1  0  0  0
 42110  1  0  0  0
 42111  1  0  0  0
 43 44  1  0  0  0
 44112  1  0  0  0
 45 46  2  0  0  0
 45113  1  0  0  0
 46114  1  0  0  0
 47115  1  0  0  0
 47116  1  0  0  0
 48 56  1  0  0  0
 48 65  1  0  0  0
 48117  1  0  0  0
 49 50  1  0  0  0
 49 53  1  0  0  0
 49 64  1  0  0  0
 49118  1  0  0  0
 50 51  1  0  0  0
 50119  1  0  0  0
 50120  1  0  0  0
 51 52  1  0  0  0
 51121  1  0  0  0
 51122  1  0  0  0
 52123  1  0  0  0
 52124  1  0  0  0
 53 54  1  0  0  0
 54 55  2  0  0  0
 54125  1  0  0  0
 55 57  1  0  0  0
 55126  1  0  0  0
 56 69  2  0  0  0
 57 58  2  0  0  0
 57127  1  0  0  0
 58128  1  0  0  0
 59 60  1  0  0  0
 59 61  1  0  0  0
 59 62  1  0  0  0
 60129  1  0  0  0
 60130  1  0  0  0
 60131  1  0  0  0
 61132  1  0  0  0
 61133  1  0  0  0
 61134  1  0  0  0
 62135  1  0  0  0
 62136  1  0  0  0
 62137  1  0  0  0
 63 65  1  0  0  0
 63138  1  0  0  0
 63139  1  0  0  0
 63140  1  0  0  0
 64141  1  0  0  0
 65142  1  0  0  0
 68 78  1  0  0  0
 71 72  2  0  0  0
 71 80  1  0  0  0
 71143  1  0  0  0
 72 77  1  0  0  0
 72 83  1  0  0  0
 73 80  2  0  0  0
 73 81  1  0  0  0
 73 83  1  0  0  0
 74 75  1  0  0  0
 74 76  1  0  0  0
 74 81  2  0  0  0
 75 78  1  0  0  0
 75 82  2  0  0  0
 76144  1  0  0  0
 76145  1  0  0  0
 76146  1  0  0  0
 77 79  1  0  0  0
 77147  1  0  0  0
 77148  1  0  0  0
 78149  1  0  0  0
 78150  1  0  0  0
 79151  1  0  0  0
 79152  1  0  0  0
M  ISO  4   1 100  68 101  78 101  79 100
M  END
> <chiral flag>
0

> <version>
0

> <s_m_source_file>
/data/baiqing/PycharmProjects/Reinvent-master-3.2/result/LINK_invent/BTK/process_docking_weight1_custom_product_contain_oxygen_bond_distance_aromatic_linkinvent_7_9_3/rearranged_h_0182.sdf

> <i_m_source_file_index>
2

> <r_mmod_Potential_Energy-OPLS-2005>
-36.2356834411621

> <r_mmod_Stretch_Energy-OPLS-2005>
38.7116470336914

> <r_mmod_Bend_Energy-OPLS-2005>
110.330444335938

> <r_mmod_Torsional_Energy-OPLS-2005>
202.004943847656

> <r_mmod_Improper_Torsional_Energy-OPLS-2005>
3.67422294616699

> <r_mmod_Van_der_Waal_Energy-OPLS-2005>
134.721054077148

> <r_mmod_Electrostatic_Energy-OPLS-2005>
-311.704528808594

> <r_mmod_Solvation_Energy-OPLS-2005>
-225.931427001953

> <b_mmod_Minimization_Converged-OPLS-2005>
0

> <r_mmod_RMS_Derivative-OPLS-2005>
1.12151837348938

$$$$
2
                    3D
 Structure written by MMmdl.
155163  0  0  1  0            999 V2000
  -30.6831  -14.4957   20.5412 C   0  0  0  0  0  0
  -30.4203  -12.3129   19.4224 C   0  0  0  0  0  0
  -29.4919  -12.5001   18.2042 C   0  0  0  0  0  0
  -28.0131  -12.3612   18.6171 C   0  0  0  0  0  0
  -27.6570  -13.2065   19.8696 C   0  0  2  0  0  0
  -28.7001  -13.0007   20.9915 C   0  0  0  0  0  0
  -25.2565  -13.8159   20.5650 C   0  0  0  0  0  0
  -24.1830  -13.0439   20.9191 C   0  0  0  0  0  0
  -24.6387  -11.6908   20.8753 C   0  0  0  0  0  0
  -23.9061  -10.4295   21.0419 C   0  0  0  0  0  0
  -24.3617   -9.4207   21.9192 C   0  0  0  0  0  0
  -23.6292   -8.2241   22.0757 C   0  0  0  0  0  0
  -22.4273   -8.0283   21.3549 C   0  0  0  0  0  0
  -21.9910   -9.0258   20.4653 C   0  0  0  0  0  0
  -22.7236  -10.2137   20.3066 C   0  0  0  0  0  0
  -21.6853   -6.0738   22.5284 C   0  0  0  0  0  0
  -21.4011   -6.5643   23.8216 C   0  0  0  0  0  0
  -21.3658   -5.6794   24.9177 C   0  0  0  0  0  0
  -21.6044   -4.3057   24.7228 C   0  0  0  0  0  0
  -21.8817   -3.8151   23.4349 C   0  0  0  0  0  0
  -21.9189   -4.6966   22.3406 C   0  0  0  0  0  0
  -22.7856  -13.5240   21.1853 C   0  0  0  0  0  0
  -22.1660   -4.2152   21.0983 F   0  0  0  0  0  0
  -21.5627   -3.4542   25.7739 F   0  0  0  0  0  0
  -30.0269  -13.3067   20.4341 N   0  0  0  0  0  0
  -26.2996  -12.9326   20.3335 N   0  0  0  0  0  0
  -25.9312  -11.6494   20.5774 N   0  0  0  0  0  0
  -22.0494  -12.8239   22.0407 N   0  0  0  0  0  0
  -25.4272  -15.1872   20.3988 N   0  0  0  0  0  0
  -31.8354  -14.6416   20.1192 O   0  0  0  0  0  0
  -21.6638   -6.8880   21.4244 O   0  0  0  0  0  0
  -22.3548  -14.5549   20.6701 O   0  0  0  0  0  0
  -24.6140  -31.8662   23.2082 C   0  0  0  0  0  0
  -25.9035  -32.4807   23.8378 C   0  0  1  0  0  0
  -27.2325  -27.4282   20.1060 C   0  0  0  0  0  0
  -25.5898  -33.8606   24.2323 N   0  0  0  0  0  0
  -23.4032  -30.4892   21.5465 C   0  0  2  0  0  0
  -24.8501  -28.9488   20.1150 C   0  0  0  0  0  0
  -22.7407  -29.4651   22.4969 C   0  0  0  0  0  0
  -18.0270  -28.1393   22.8473 C   0  0  0  0  0  0
  -24.1494  -36.7309   23.2643 C   0  0  0  0  0  0
  -25.9307  -30.8318   21.3594 C   0  0  0  0  0  0
  -26.0089  -29.4641   20.7091 C   0  0  0  0  0  0
  -27.2055  -28.7128   20.6962 C   0  0  0  0  0  0
  -26.0615  -26.9231   19.5063 C   0  0  0  0  0  0
  -24.8717  -27.6791   19.5080 C   0  0  0  0  0  0
  -23.6134  -29.8188   20.1613 C   0  0  0  0  0  0
  -25.4110  -36.3102   24.0349 C   0  0  1  0  0  0
  -20.5863  -28.3666   23.1313 C   0  0  2  0  0  0
  -20.6760  -26.9402   22.5413 C   0  0  0  0  0  0
  -19.5744  -26.6394   21.5206 C   0  0  0  0  0  0
  -18.1916  -26.7934   22.1612 C   0  0  0  0  0  0
  -19.1522  -28.8840   23.2891 C   0  0  0  0  0  0
  -18.9458  -30.1438   23.8908 C   0  0  0  0  0  0
  -17.6464  -30.6586   24.0569 C   0  0  0  0  0  0
  -25.9040  -34.9466   23.5139 C   0  0  0  0  0  0
  -16.5353  -29.9095   23.6331 C   0  0  0  0  0  0
  -16.7258  -28.6524   23.0333 C   0  0  0  0  0  0
  -26.4463  -31.6572   25.0697 C   0  0  0  0  0  0
  -25.3745  -31.3686   26.1464 C   0  0  0  0  0  0
  -27.0269  -30.3013   24.6047 C   0  0  0  0  0  0
  -27.6064  -32.4262   25.7451 C   0  0  0  0  0  0
  -27.5581  -37.1806   24.8468 C   0  0  0  0  0  0
  -21.4134  -29.3036   22.3717 N   0  0  0  0  0  0
  -26.4294  -37.3783   23.9413 N   0  0  0  0  0  0
  -24.6676  -31.0772   22.0972 N   0  0  0  0  0  0
  -23.4175  -28.8194   23.3010 O   0  0  0  0  0  0
  -28.4016  -26.6991   20.0875 O   0  0  0  0  0  0
  -26.5597  -34.8921   22.4695 O   0  0  0  0  0  0
  -23.5330  -32.1407   23.7481 O   0  0  0  0  0  0
  -31.4519  -18.8379   20.7724 C   0  0  0  0  0  0
  -30.2093  -19.4376   20.7489 C   0  0  0  0  0  0
  -30.1966  -16.9344   20.8953 C   0  0  0  0  0  0
  -29.3552  -23.0812   20.4430 C   0  0  0  0  0  0
  -28.9374  -21.5689   20.5233 C   0  0  0  0  0  0
  -32.7779  -19.5334   20.6977 C   0  0  0  0  0  0
  -27.7038  -25.5848   22.2294 C   0  0  0  0  0  0
  -28.2874  -24.1670   20.1491 C   0  0  0  0  0  0
  -28.5026  -25.5141   20.9114 C   0  0  1  0  0  0
  -31.4320  -17.4414   20.8621 N   0  0  0  0  0  0
  -30.0308  -20.7915   20.6627 N   0  0  0  0  0  0
  -29.9228  -15.5311   20.9663 N   0  0  0  0  0  0
  -30.5454  -23.4007   20.5704 O   0  0  0  0  0  0
  -27.7701  -21.1686   20.4618 O   0  0  0  0  0  0
  -28.9543  -18.1990   20.8598 S   0  0  0  0  0  0
  -31.4642  -12.4111   19.1199 H   0  0  0  0  0  0
  -30.3230  -11.3050   19.8282 H   0  0  0  0  0  0
  -29.7330  -11.7692   17.4313 H   0  0  0  0  0  0
  -29.6579  -13.4816   17.7575 H   0  0  0  0  0  0
  -27.8249  -11.3059   18.8172 H   0  0  0  0  0  0
  -27.3623  -12.6309   17.7846 H   0  0  0  0  0  0
  -27.6955  -14.2512   19.5622 H   0  0  0  0  0  0
  -28.6798  -11.9677   21.3426 H   0  0  0  0  0  0
  -28.4650  -13.6105   21.8649 H   0  0  0  0  0  0
  -25.2764   -9.5676   22.4763 H   0  0  0  0  0  0
  -24.0003   -7.4630   22.7473 H   0  0  0  0  0  0
  -21.0841   -8.8781   19.8957 H   0  0  0  0  0  0
  -22.3703  -10.9679   19.6176 H   0  0  0  0  0  0
  -21.2006   -7.6148   23.9720 H   0  0  0  0  0  0
  -21.1480   -6.0525   25.9078 H   0  0  0  0  0  0
  -22.0596   -2.7614   23.2851 H   0  0  0  0  0  0
  -22.4103  -11.9895   22.4793 H   0  0  0  0  0  0
  -21.1115  -13.1280   22.2625 H   0  0  0  0  0  0
  -24.6488  -15.8328   20.4767 H   0  0  0  0  0  0
  -26.2572  -15.6179   20.0115 H   0  0  0  0  0  0
  -26.7104  -32.5529   23.1142 H   0  0  0  0  0  0
  -25.0040  -33.9760   25.0465 H   0  0  0  0  0  0
  -22.6937  -31.3071   21.4057 H   0  0  0  0  0  0
  -23.3751  -35.9645   23.3307 H   0  0  0  0  0  0
  -24.3597  -36.8917   22.2057 H   0  0  0  0  0  0
  -23.7251  -37.6520   23.6652 H   0  0  0  0  0  0
  -26.0409  -31.5952   20.5881 H   0  0  0  0  0  0
  -26.8192  -30.8878   21.9756 H   0  0  0  0  0  0
  -28.1043  -29.1082   21.1494 H   0  0  0  0  0  0
  -26.0733  -25.9502   19.0366 H   0  0  0  0  0  0
  -23.9817  -27.2812   19.0408 H   0  0  0  0  0  0
  -23.7261  -30.5936   19.4024 H   0  0  0  0  0  0
  -22.7367  -29.2422   19.8615 H   0  0  0  0  0  0
  -25.1285  -36.1964   25.0842 H   0  0  0  0  0  0
  -20.9947  -28.3228   24.1435 H   0  0  0  0  0  0
  -20.5677  -26.2264   23.3593 H   0  0  0  0  0  0
  -21.6629  -26.7448   22.1202 H   0  0  0  0  0  0
  -19.6915  -25.6312   21.1213 H   0  0  0  0  0  0
  -19.6703  -27.3216   20.6750 H   0  0  0  0  0  0
  -17.4194  -26.6676   21.4010 H   0  0  0  0  0  0
  -18.0321  -26.0077   22.9014 H   0  0  0  0  0  0
  -19.7938  -30.7236   24.2290 H   0  0  0  0  0  0
  -17.5033  -31.6273   24.5156 H   0  0  0  0  0  0
  -15.5357  -30.3010   23.7656 H   0  0  0  0  0  0
  -15.8660  -28.0866   22.7021 H   0  0  0  0  0  0
  -24.5927  -30.7021   25.7813 H   0  0  0  0  0  0
  -24.8932  -32.2842   26.4903 H   0  0  0  0  0  0
  -25.8111  -30.8869   27.0221 H   0  0  0  0  0  0
  -26.2783  -29.6791   24.1131 H   0  0  0  0  0  0
  -27.4077  -29.7230   25.4473 H   0  0  0  0  0  0
  -27.8609  -30.4331   23.9153 H   0  0  0  0  0  0
  -27.2720  -33.3565   26.2046 H   0  0  0  0  0  0
  -28.3861  -32.6793   25.0259 H   0  0  0  0  0  0
  -28.0738  -31.8359   26.5342 H   0  0  0  0  0  0
  -28.2596  -38.0101   24.7490 H   0  0  0  0  0  0
  -28.1074  -36.2628   24.6312 H   0  0  0  0  0  0
  -27.2303  -37.1479   25.8872 H   0  0  0  0  0  0
  -20.9285  -29.8780   21.6966 H   0  0  0  0  0  0
  -26.0187  -38.2863   24.1414 H   0  0  0  0  0  0
  -32.8586  -20.3178   21.4499 H   0  0  0  0  0  0
  -32.9243  -19.9951   19.7211 H   0  0  0  0  0  0
  -33.6067  -18.8441   20.8589 H   0  0  0  0  0  0
  -27.9413  -24.7389   22.8744 H   0  0  0  0  0  0
  -26.6273  -25.5674   22.0536 H   0  0  0  0  0  0
  -27.9369  -26.4935   22.7853 H   0  0  0  0  0  0
  -27.2916  -23.7715   20.3489 H   0  0  0  0  0  0
  -28.3297  -24.3538   19.0770 H   0  0  0  0  0  0
  -29.5457  -25.5637   21.2235 H   0  0  0  0  0  0
  -30.8726  -21.3562   20.6812 H   0  0  0  0  0  0
  -28.9781  -15.2861   21.2147 H   0  0  0  0  0  0
  1 25  1  0  0  0
  1 30  2  0  0  0
  1 82  1  0  0  0
  2  3  1  0  0  0
  2 25  1  0  0  0
  2 86  1  0  0  0
  2 87  1  0  0  0
  3  4  1  0  0  0
  3 88  1  0  0  0
  3 89  1  0  0  0
  4  5  1  0  0  0
  4 90  1  0  0  0
  4 91  1  0  0  0
  5  6  1  0  0  0
  5 26  1  0  0  0
  5 92  1  0  0  0
  6 25  1  0  0  0
  6 93  1  0  0  0
  6 94  1  0  0  0
  7  8  2  0  0  0
  7 26  1  0  0  0
  7 29  1  0  0  0
  8  9  1  0  0  0
  8 22  1  0  0  0
  9 10  1  0  0  0
  9 27  2  0  0  0
 10 11  2  0  0  0
 10 15  1  0  0  0
 11 12  1  0  0  0
 11 95  1  0  0  0
 12 13  2  0  0  0
 12 96  1  0  0  0
 13 14  1  0  0  0
 13 31  1  0  0  0
 14 15  2  0  0  0
 14 97  1  0  0  0
 15 98  1  0  0  0
 16 17  2  0  0  0
 16 21  1  0  0  0
 16 31  1  0  0  0
 17 18  1  0  0  0
 17 99  1  0  0  0
 18 19  2  0  0  0
 18100  1  0  0  0
 19 20  1  0  0  0
 19 24  1  0  0  0
 20 21  2  0  0  0
 20101  1  0  0  0
 21 23  1  0  0  0
 22 28  1  0  0  0
 22 32  2  0  0  0
 26 27  1  0  0  0
 28102  1  0  0  0
 28103  1  0  0  0
 29104  1  0  0  0
 29105  1  0  0  0
 33 34  1  0  0  0
 33 66  1  0  0  0
 33 70  2  0  0  0
 34 36  1  0  0  0
 34 59  1  0  0  0
 34106  1  0  0  0
 35 44  2  0  0  0
 35 45  1  0  0  0
 35 68  1  0  0  0
 36 56  1  0  0  0
 36107  1  0  0  0
 37 39  1  0  0  0
 37 47  1  0  0  0
 37 66  1  0  0  0
 37108  1  0  0  0
 38 43  2  0  0  0
 38 46  1  0  0  0
 38 47  1  0  0  0
 39 64  1  0  0  0
 39 67  2  0  0  0
 40 52  1  0  0  0
 40 53  2  0  0  0
 40 58  1  0  0  0
 41109  1  0  0  0
 41110  1  0  0  0
 41111  1  0  0  0
 41 48  1  0  0  0
 42 43  1  0  0  0
 42 66  1  0  0  0
 42112  1  0  0  0
 42113  1  0  0  0
 43 44  1  0  0  0
 44114  1  0  0  0
 45 46  2  0  0  0
 45115  1  0  0  0
 46116  1  0  0  0
 47117  1  0  0  0
 47118  1  0  0  0
 48 56  1  0  0  0
 48 65  1  0  0  0
 48119  1  0  0  0
 49 50  1  0  0  0
 49 53  1  0  0  0
 49 64  1  0  0  0
 49120  1  0  0  0
 50 51  1  0  0  0
 50121  1  0  0  0
 50122  1  0  0  0
 51 52  1  0  0  0
 51123  1  0  0  0
 51124  1  0  0  0
 52125  1  0  0  0
 52126  1  0  0  0
 53 54  1  0  0  0
 54 55  2  0  0  0
 54127  1  0  0  0
 55 57  1  0  0  0
 55128  1  0  0  0
 56 69  2  0  0  0
 57 58  2  0  0  0
 57129  1  0  0  0
 58130  1  0  0  0
 59 60  1  0  0  0
 59 61  1  0  0  0
 59 62  1  0  0  0
 60131  1  0  0  0
 60132  1  0  0  0
 60133  1  0  0  0
 61134  1  0  0  0
 61135  1  0  0  0
 61136  1  0  0  0
 62137  1  0  0  0
 62138  1  0  0  0
 62139  1  0  0  0
 63 65  1  0  0  0
 63140  1  0  0  0
 63141  1  0  0  0
 63142  1  0  0  0
 64143  1  0  0  0
 65144  1  0  0  0
 68 79  1  0  0  0
 71 72  2  0  0  0
 71 76  1  0  0  0
 71 80  1  0  0  0
 72 81  1  0  0  0
 72 85  1  0  0  0
 73 80  2  0  0  0
 73 82  1  0  0  0
 73 85  1  0  0  0
 74 75  1  0  0  0
 74 78  1  0  0  0
 74 83  2  0  0  0
 75 81  1  0  0  0
 75 84  2  0  0  0
 76145  1  0  0  0
 76146  1  0  0  0
 76147  1  0  0  0
 77148  1  0  0  0
 77149  1  0  0  0
 77150  1  0  0  0
 77 79  1  0  0  0
 78 79  1  0  0  0
 78151  1  0  0  0
 78152  1  0  0  0
 79153  1  0  0  0
 81154  1  0  0  0
 82155  1  0  0  0
M  ISO  4   1 100  68 101  79 101  82 100
M  END
> <chiral flag>
0

> <version>
0

> <s_m_source_file>
/data/baiqing/PycharmProjects/Reinvent-master-3.2/result/LINK_invent/BTK/process_docking_weight1_custom_product_contain_oxygen_bond_distance_aromatic_linkinvent_7_9_3/rearranged_h_0182.sdf

> <i_m_source_file_index>
3

> <r_mmod_Potential_Energy-OPLS-2005>
-107.727096557617

> <r_mmod_Stretch_Energy-OPLS-2005>
40.9278831481934

> <r_mmod_Bend_Energy-OPLS-2005>
125.885627746582

> <r_mmod_Torsional_Energy-OPLS-2005>
224.473251342773

> <r_mmod_Improper_Torsional_Energy-OPLS-2005>
4.91808605194092

> <r_mmod_Van_der_Waal_Energy-OPLS-2005>
131.713165283203

> <r_mmod_Electrostatic_Energy-OPLS-2005>
-408.096252441406

> <r_mmod_Solvation_Energy-OPLS-2005>
-242.336059570312

> <b_mmod_Minimization_Converged-OPLS-2005>
0

> <r_mmod_RMS_Derivative-OPLS-2005>
1.28027427196503

$$$$
3
                    3D
 Structure written by MMmdl.
154162  0  0  1  0            999 V2000
  -30.7008  -14.5518   20.5400 C   0  0  0  0  0  0
  -30.4193  -12.3413   19.4467 C   0  0  0  0  0  0
  -29.4957  -12.4722   18.2177 C   0  0  0  0  0  0
  -28.0168  -12.3424   18.6338 C   0  0  0  0  0  0
  -27.6532  -13.2191   19.8652 C   0  0  2  0  0  0
  -28.6990  -13.0692   20.9948 C   0  0  0  0  0  0
  -25.2551  -13.8173   20.5727 C   0  0  0  0  0  0
  -24.1836  -13.0430   20.9239 C   0  0  0  0  0  0
  -24.6399  -11.6910   20.8800 C   0  0  0  0  0  0
  -23.9054  -10.4306   21.0439 C   0  0  0  0  0  0
  -24.3617   -9.4217   21.9209 C   0  0  0  0  0  0
  -23.6300   -8.2243   22.0765 C   0  0  0  0  0  0
  -22.4267   -8.0296   21.3571 C   0  0  0  0  0  0
  -21.9914   -9.0270   20.4665 C   0  0  0  0  0  0
  -22.7236  -10.2149   20.3084 C   0  0  0  0  0  0
  -21.6835   -6.0750   22.5278 C   0  0  0  0  0  0
  -21.4020   -6.5656   23.8226 C   0  0  0  0  0  0
  -21.3664   -5.6798   24.9196 C   0  0  0  0  0  0
  -21.6048   -4.3062   24.7229 C   0  0  0  0  0  0
  -21.8803   -3.8167   23.4346 C   0  0  0  0  0  0
  -21.9188   -4.6984   22.3408 C   0  0  0  0  0  0
  -22.7875  -13.5257   21.1874 C   0  0  0  0  0  0
  -22.1659   -4.2172   21.0990 F   0  0  0  0  0  0
  -21.5610   -3.4542   25.7743 F   0  0  0  0  0  0
  -30.0164  -13.3738   20.4208 N   0  0  0  0  0  0
  -26.2999  -12.9380   20.3359 N   0  0  0  0  0  0
  -25.9330  -11.6529   20.5803 N   0  0  0  0  0  0
  -22.0482  -12.8270   22.0418 N   0  0  0  0  0  0
  -25.4224  -15.1906   20.4129 N   0  0  0  0  0  0
  -31.8568  -14.6503   20.1117 O   0  0  0  0  0  0
  -21.6637   -6.8896   21.4250 O   0  0  0  0  0  0
  -22.3573  -14.5561   20.6675 O   0  0  0  0  0  0
  -24.6215  -31.8643   23.2068 C   0  0  0  0  0  0
  -25.9094  -32.4798   23.8378 C   0  0  1  0  0  0
  -27.2247  -27.3833   20.1194 C   0  0  0  0  0  0
  -25.5921  -33.8588   24.2316 N   0  0  0  0  0  0
  -23.4120  -30.4917   21.5460 C   0  0  2  0  0  0
  -24.8552  -28.9566   20.1102 C   0  0  0  0  0  0
  -22.7446  -29.4675   22.4947 C   0  0  0  0  0  0
  -18.0290  -28.1377   22.8511 C   0  0  0  0  0  0
  -24.1479  -36.7300   23.2647 C   0  0  0  0  0  0
  -25.9455  -30.8205   21.3637 C   0  0  0  0  0  0
  -26.0212  -29.4530   20.7093 C   0  0  0  0  0  0
  -27.2101  -28.6781   20.7025 C   0  0  0  0  0  0
  -26.0413  -26.9269   19.4931 C   0  0  0  0  0  0
  -24.8638  -27.6963   19.4933 C   0  0  0  0  0  0
  -23.6216  -29.8290   20.1601 C   0  0  0  0  0  0
  -25.4099  -36.3098   24.0350 C   0  0  1  0  0  0
  -20.5882  -28.3687   23.1292 C   0  0  2  0  0  0
  -20.6760  -26.9417   22.5412 C   0  0  0  0  0  0
  -19.5722  -26.6396   21.5219 C   0  0  0  0  0  0
  -18.1915  -26.7932   22.1656 C   0  0  0  0  0  0
  -19.1544  -28.8849   23.2894 C   0  0  0  0  0  0
  -18.9469  -30.1450   23.8911 C   0  0  0  0  0  0
  -17.6460  -30.6576   24.0583 C   0  0  0  0  0  0
  -25.9036  -34.9461   23.5127 C   0  0  0  0  0  0
  -16.5347  -29.9083   23.6329 C   0  0  0  0  0  0
  -16.7279  -28.6496   23.0359 C   0  0  0  0  0  0
  -26.4493  -31.6584   25.0710 C   0  0  0  0  0  0
  -25.3764  -31.3712   26.1470 C   0  0  0  0  0  0
  -27.0327  -30.3011   24.6113 C   0  0  0  0  0  0
  -27.6063  -32.4307   25.7465 C   0  0  0  0  0  0
  -27.5567  -37.1802   24.8476 C   0  0  0  0  0  0
  -21.4164  -29.3051   22.3678 N   0  0  0  0  0  0
  -26.4278  -37.3783   23.9425 N   0  0  0  0  0  0
  -24.6788  -31.0742   22.0964 N   0  0  0  0  0  0
  -23.4192  -28.8205   23.3020 O   0  0  0  0  0  0
  -28.3572  -26.5762   20.1862 O   0  0  0  0  0  0
  -26.5599  -34.8928   22.4687 O   0  0  0  0  0  0
  -23.5396  -32.1406   23.7430 O   0  0  0  0  0  0
  -31.1613  -19.5279   21.5715 C   0  0  0  0  0  0
  -29.8659  -19.2294   21.1550 C   0  0  0  0  0  0
  -32.0133  -18.4483   21.8053 C   0  0  0  0  0  0
  -30.3824  -16.9597   21.1715 C   0  0  0  0  0  0
  -28.8721  -22.8137   21.1848 C   0  0  0  0  0  0
  -28.7054  -21.6879   18.9621 C   0  0  0  0  0  0
  -29.2890  -24.2366   20.7047 C   0  0  0  0  0  0
  -28.1168  -25.1363   20.2056 C   0  0  0  0  0  0
  -29.2981  -21.5554   20.3551 C   0  0  2  0  0  0
  -29.4782  -17.9409   20.9714 N   0  0  0  0  0  0
  -31.6195  -17.1771   21.6092 N   0  0  0  0  0  0
  -28.9181  -20.2530   20.9585 N   0  0  0  0  0  0
  -29.9863  -15.6371   20.9569 N   0  0  0  0  0  0
  -28.2514  -22.7066   22.2477 O   0  0  0  0  0  0
  -29.3918  -22.0951   18.0279 O   0  0  0  0  0  0
  -33.2688  -18.6786   22.2574 F   0  0  0  0  0  0
  -27.4390  -21.2865   18.7492 F   0  0  0  0  0  0
  -31.4621  -12.4256   19.1417 H   0  0  0  0  0  0
  -30.3235  -11.3519   19.8959 H   0  0  0  0  0  0
  -29.7423  -11.7020   17.4845 H   0  0  0  0  0  0
  -29.6657  -13.4295   17.7214 H   0  0  0  0  0  0
  -27.8379  -11.2936   18.8728 H   0  0  0  0  0  0
  -27.3639  -12.5811   17.7922 H   0  0  0  0  0  0
  -27.6754  -14.2587   19.5291 H   0  0  0  0  0  0
  -28.6939  -12.0549   21.3982 H   0  0  0  0  0  0
  -28.4583  -13.7212   21.8372 H   0  0  0  0  0  0
  -25.2744   -9.5699   22.4794 H   0  0  0  0  0  0
  -24.0008   -7.4644   22.7464 H   0  0  0  0  0  0
  -21.0832   -8.8798   19.8970 H   0  0  0  0  0  0
  -22.3687  -10.9713   19.6206 H   0  0  0  0  0  0
  -21.2021   -7.6166   23.9741 H   0  0  0  0  0  0
  -21.1498   -6.0537   25.9095 H   0  0  0  0  0  0
  -22.0571   -2.7623   23.2832 H   0  0  0  0  0  0
  -22.4031  -11.9947   22.4887 H   0  0  0  0  0  0
  -21.1112  -13.1343   22.2591 H   0  0  0  0  0  0
  -24.6487  -15.8367   20.5298 H   0  0  0  0  0  0
  -26.2528  -15.6370   20.0430 H   0  0  0  0  0  0
  -26.7165  -32.5507   23.1152 H   0  0  0  0  0  0
  -25.0077  -33.9726   25.0461 H   0  0  0  0  0  0
  -22.7057  -31.3127   21.4069 H   0  0  0  0  0  0
  -23.3725  -35.9648   23.3321 H   0  0  0  0  0  0
  -24.3580  -36.8888   22.2059 H   0  0  0  0  0  0
  -23.7242  -37.6516   23.6633 H   0  0  0  0  0  0
  -26.0644  -31.5848   20.5953 H   0  0  0  0  0  0
  -26.8321  -30.8719   21.9830 H   0  0  0  0  0  0
  -28.1043  -29.0571   21.1772 H   0  0  0  0  0  0
  -26.0029  -25.9657   19.0042 H   0  0  0  0  0  0
  -23.9722  -27.3106   19.0183 H   0  0  0  0  0  0
  -23.7389  -30.6054   19.4044 H   0  0  0  0  0  0
  -22.7442  -29.2563   19.8591 H   0  0  0  0  0  0
  -25.1268  -36.1956   25.0838 H   0  0  0  0  0  0
  -21.0011  -28.3260   24.1392 H   0  0  0  0  0  0
  -20.5659  -26.2308   23.3618 H   0  0  0  0  0  0
  -21.6631  -26.7420   22.1206 H   0  0  0  0  0  0
  -19.6872  -25.6315   21.1222 H   0  0  0  0  0  0
  -19.6630  -27.3234   20.6766 H   0  0  0  0  0  0
  -17.4181  -26.6707   21.4047 H   0  0  0  0  0  0
  -18.0289  -26.0042   22.9027 H   0  0  0  0  0  0
  -19.7933  -30.7273   24.2271 H   0  0  0  0  0  0
  -17.5011  -31.6257   24.5196 H   0  0  0  0  0  0
  -15.5352  -30.2999   23.7613 H   0  0  0  0  0  0
  -15.8684  -28.0821   22.7058 H   0  0  0  0  0  0
  -24.5914  -30.7075   25.7829 H   0  0  0  0  0  0
  -24.8995  -32.2884   26.4931 H   0  0  0  0  0  0
  -25.8137  -30.8875   27.0221 H   0  0  0  0  0  0
  -26.2877  -29.6753   24.1188 H   0  0  0  0  0  0
  -27.4102  -29.7263   25.4592 H   0  0  0  0  0  0
  -27.8712  -30.4307   23.9266 H   0  0  0  0  0  0
  -27.2667  -33.3594   26.2070 H   0  0  0  0  0  0
  -28.3854  -32.6899   25.0276 H   0  0  0  0  0  0
  -28.0760  -31.8422   26.5365 H   0  0  0  0  0  0
  -28.2613  -38.0065   24.7486 H   0  0  0  0  0  0
  -28.1028  -36.2604   24.6337 H   0  0  0  0  0  0
  -27.2293  -37.1504   25.8879 H   0  0  0  0  0  0
  -20.9329  -29.8805   21.6936 H   0  0  0  0  0  0
  -26.0164  -38.2857   24.1411 H   0  0  0  0  0  0
  -31.5051  -20.5328   21.7626 H   0  0  0  0  0  0
  -30.0527  -24.1487   19.9331 H   0  0  0  0  0  0
  -29.7719  -24.7203   21.5542 H   0  0  0  0  0  0
  -27.2437  -24.9268   20.8272 H   0  0  0  0  0  0
  -27.8718  -24.8176   19.1930 H   0  0  0  0  0  0
  -30.3797  -21.5901   20.2326 H   0  0  0  0  0  0
  -27.9687  -19.9626   20.7663 H   0  0  0  0  0  0
  -29.0041  -15.4669   21.0833 H   0  0  0  0  0  0
  1 25  1  0  0  0
  1 30  2  0  0  0
  1 83  1  0  0  0
  2  3  1  0  0  0
  2 25  1  0  0  0
  2 88  1  0  0  0
  2 89  1  0  0  0
  3  4  1  0  0  0
  3 90  1  0  0  0
  3 91  1  0  0  0
  4  5  1  0  0  0
  4 92  1  0  0  0
  4 93  1  0  0  0
  5  6  1  0  0  0
  5 26  1  0  0  0
  5 94  1  0  0  0
  6 25  1  0  0  0
  6 95  1  0  0  0
  6 96  1  0  0  0
  7  8  2  0  0  0
  7 26  1  0  0  0
  7 29  1  0  0  0
  8  9  1  0  0  0
  8 22  1  0  0  0
  9 10  1  0  0  0
  9 27  2  0  0  0
 10 11  2  0  0  0
 10 15  1  0  0  0
 11 12  1  0  0  0
 11 97  1  0  0  0
 12 13  2  0  0  0
 12 98  1  0  0  0
 13 14  1  0  0  0
 13 31  1  0  0  0
 14 15  2  0  0  0
 14 99  1  0  0  0
 15100  1  0  0  0
 16 17  2  0  0  0
 16 21  1  0  0  0
 16 31  1  0  0  0
 17 18  1  0  0  0
 17101  1  0  0  0
 18 19  2  0  0  0
 18102  1  0  0  0
 19 20  1  0  0  0
 19 24  1  0  0  0
 20 21  2  0  0  0
 20103  1  0  0  0
 21 23  1  0  0  0
 22 28  1  0  0  0
 22 32  2  0  0  0
 26 27  1  0  0  0
 28104  1  0  0  0
 28105  1  0  0  0
 29106  1  0  0  0
 29107  1  0  0  0
 33 34  1  0  0  0
 33 66  1  0  0  0
 33 70  2  0  0  0
 34 36  1  0  0  0
 34 59  1  0  0  0
 34108  1  0  0  0
 35 44  2  0  0  0
 35 45  1  0  0  0
 35 68  1  0  0  0
 36 56  1  0  0  0
 36109  1  0  0  0
 37 39  1  0  0  0
 37 47  1  0  0  0
 37 66  1  0  0  0
 37110  1  0  0  0
 38 43  2  0  0  0
 38 46  1  0  0  0
 38 47  1  0  0  0
 39 64  1  0  0  0
 39 67  2  0  0  0
 40 52  1  0  0  0
 40 53  2  0  0  0
 40 58  1  0  0  0
 41111  1  0  0  0
 41112  1  0  0  0
 41113  1  0  0  0
 41 48  1  0  0  0
 42 43  1  0  0  0
 42 66  1  0  0  0
 42114  1  0  0  0
 42115  1  0  0  0
 43 44  1  0  0  0
 44116  1  0  0  0
 45 46  2  0  0  0
 45117  1  0  0  0
 46118  1  0  0  0
 47119  1  0  0  0
 47120  1  0  0  0
 48 56  1  0  0  0
 48 65  1  0  0  0
 48121  1  0  0  0
 49 50  1  0  0  0
 49 53  1  0  0  0
 49 64  1  0  0  0
 49122  1  0  0  0
 50 51  1  0  0  0
 50123  1  0  0  0
 50124  1  0  0  0
 51 52  1  0  0  0
 51125  1  0  0  0
 51126  1  0  0  0
 52127  1  0  0  0
 52128  1  0  0  0
 53 54  1  0  0  0
 54 55  2  0  0  0
 54129  1  0  0  0
 55 57  1  0  0  0
 55130  1  0  0  0
 56 69  2  0  0  0
 57 58  2  0  0  0
 57131  1  0  0  0
 58132  1  0  0  0
 59 60  1  0  0  0
 59 61  1  0  0  0
 59 62  1  0  0  0
 60133  1  0  0  0
 60134  1  0  0  0
 60135  1  0  0  0
 61136  1  0  0  0
 61137  1  0  0  0
 61138  1  0  0  0
 62139  1  0  0  0
 62140  1  0  0  0
 62141  1  0  0  0
 63 65  1  0  0  0
 63142  1  0  0  0
 63143  1  0  0  0
 63144  1  0  0  0
 64145  1  0  0  0
 65146  1  0  0  0
 68 78  1  0  0  0
 71 72  2  0  0  0
 71 73  1  0  0  0
 71147  1  0  0  0
 72 80  1  0  0  0
 72 82  1  0  0  0
 73 81  2  0  0  0
 73 86  1  0  0  0
 74 80  2  0  0  0
 74 81  1  0  0  0
 74 83  1  0  0  0
 75 77  1  0  0  0
 75 79  1  0  0  0
 75 84  2  0  0  0
 76 79  1  0  0  0
 76 85  2  0  0  0
 76 87  1  0  0  0
 77 78  1  0  0  0
 77148  1  0  0  0
 77149  1  0  0  0
 78150  1  0  0  0
 78151  1  0  0  0
 79 82  1  0  0  0
 79152  1  0  0  0
 82153  1  0  0  0
 83154  1  0  0  0
M  ISO  4   1 100  68 101  78 101  83 100
M  END
> <chiral flag>
0

> <version>
0

> <s_m_source_file>
/data/baiqing/PycharmProjects/Reinvent-master-3.2/result/LINK_invent/BTK/process_docking_weight1_custom_product_contain_oxygen_bond_distance_aromatic_linkinvent_7_9_3/rearranged_h_0182.sdf

> <i_m_source_file_index>
4

> <r_mmod_Potential_Energy-OPLS-2005>
-654.841247558594

> <r_mmod_Stretch_Energy-OPLS-2005>
50.5434036254883

> <r_mmod_Bend_Energy-OPLS-2005>
113.163162231445

> <r_mmod_Torsional_Energy-OPLS-2005>
215.136260986328

> <r_mmod_Improper_Torsional_Energy-OPLS-2005>
7.31491899490356

> <r_mmod_Van_der_Waal_Energy-OPLS-2005>
161.834197998047

> <r_mmod_Electrostatic_Energy-OPLS-2005>
-987.510009765625

> <r_mmod_Solvation_Energy-OPLS-2005>
-243.553695678711

> <b_mmod_Minimization_Converged-OPLS-2005>
0

> <r_mmod_RMS_Derivative-OPLS-2005>
4.56333875656128

$$$$
4
                    3D
 Structure written by MMmdl.
149157  0  0  1  0            999 V2000
  -30.6004  -14.7011   20.4814 C   0  0  0  0  0  0
  -30.4423  -12.4266   19.4631 C   0  0  0  0  0  0
  -29.5112  -12.5108   18.2319 C   0  0  0  0  0  0
  -28.0351  -12.3403   18.6443 C   0  0  0  0  0  0
  -27.6499  -13.2219   19.8619 C   0  0  2  0  0  0
  -28.6963  -13.1036   20.9933 C   0  0  0  0  0  0
  -25.2534  -13.8170   20.5690 C   0  0  0  0  0  0
  -24.1805  -13.0423   20.9164 C   0  0  0  0  0  0
  -24.6393  -11.6901   20.8727 C   0  0  0  0  0  0
  -23.9066  -10.4284   21.0397 C   0  0  0  0  0  0
  -24.3617   -9.4203   21.9179 C   0  0  0  0  0  0
  -23.6291   -8.2240   22.0753 C   0  0  0  0  0  0
  -22.4273   -8.0278   21.3544 C   0  0  0  0  0  0
  -21.9907   -9.0250   20.4645 C   0  0  0  0  0  0
  -22.7236  -10.2128   20.3051 C   0  0  0  0  0  0
  -21.6853   -6.0734   22.5279 C   0  0  0  0  0  0
  -21.4014   -6.5639   23.8212 C   0  0  0  0  0  0
  -21.3659   -5.6792   24.9174 C   0  0  0  0  0  0
  -21.6044   -4.3055   24.7225 C   0  0  0  0  0  0
  -21.8820   -3.8145   23.4347 C   0  0  0  0  0  0
  -21.9193   -4.6962   22.3403 C   0  0  0  0  0  0
  -22.7831  -13.5215   21.1841 C   0  0  0  0  0  0
  -22.1661   -4.2147   21.0980 F   0  0  0  0  0  0
  -21.5628   -3.4539   25.7738 F   0  0  0  0  0  0
  -30.0066  -13.4609   20.4264 N   0  0  0  0  0  0
  -26.2977  -12.9368   20.3334 N   0  0  0  0  0  0
  -25.9329  -11.6515   20.5766 N   0  0  0  0  0  0
  -22.0486  -12.8209   22.0410 N   0  0  0  0  0  0
  -25.4205  -15.1898   20.4176 N   0  0  0  0  0  0
  -31.7711  -14.8474   20.1129 O   0  0  0  0  0  0
  -21.6637   -6.8876   21.4241 O   0  0  0  0  0  0
  -22.3508  -14.5523   20.6700 O   0  0  0  0  0  0
  -24.6281  -31.8574   23.2005 C   0  0  0  0  0  0
  -25.9117  -32.4767   23.8344 C   0  0  1  0  0  0
  -27.2256  -27.2930   20.1276 C   0  0  0  0  0  0
  -25.5923  -33.8569   24.2268 N   0  0  0  0  0  0
  -23.4244  -30.4793   21.5429 C   0  0  2  0  0  0
  -24.8737  -28.9291   20.1118 C   0  0  0  0  0  0
  -22.7489  -29.4608   22.4923 C   0  0  0  0  0  0
  -18.0289  -28.1386   22.8486 C   0  0  0  0  0  0
  -24.1489  -36.7291   23.2640 C   0  0  0  0  0  0
  -25.9674  -30.7789   21.3775 C   0  0  0  0  0  0
  -26.0424  -29.4025   20.7229 C   0  0  0  0  0  0
  -27.2220  -28.5949   20.7239 C   0  0  0  0  0  0
  -26.0385  -26.8822   19.4826 C   0  0  0  0  0  0
  -24.8742  -27.6744   19.4823 C   0  0  0  0  0  0
  -23.6423  -29.8122   20.1591 C   0  0  0  0  0  0
  -25.4115  -36.3078   24.0328 C   0  0  1  0  0  0
  -20.5891  -28.3693   23.1277 C   0  0  2  0  0  0
  -20.6777  -26.9413   22.5409 C   0  0  0  0  0  0
  -19.5752  -26.6383   21.5213 C   0  0  0  0  0  0
  -18.1933  -26.7927   22.1626 C   0  0  0  0  0  0
  -19.1542  -28.8856   23.2876 C   0  0  0  0  0  0
  -18.9464  -30.1458   23.8893 C   0  0  0  0  0  0
  -17.6463  -30.6587   24.0563 C   0  0  0  0  0  0
  -25.9052  -34.9446   23.5100 C   0  0  0  0  0  0
  -16.5354  -29.9085   23.6331 C   0  0  0  0  0  0
  -16.7276  -28.6503   23.0352 C   0  0  0  0  0  0
  -26.4496  -31.6586   25.0724 C   0  0  0  0  0  0
  -25.3723  -31.3729   26.1447 C   0  0  0  0  0  0
  -27.0347  -30.3007   24.6197 C   0  0  0  0  0  0
  -27.6049  -32.4328   25.7496 C   0  0  0  0  0  0
  -27.5578  -37.1802   24.8466 C   0  0  0  0  0  0
  -21.4199  -29.3041   22.3667 N   0  0  0  0  0  0
  -26.4293  -37.3773   23.9406 N   0  0  0  0  0  0
  -24.6920  -31.0560   22.0970 N   0  0  0  0  0  0
  -23.4199  -28.8151   23.3017 O   0  0  0  0  0  0
  -28.3222  -26.4095   20.1503 O   0  0  0  0  0  0
  -26.5624  -34.8917   22.4670 O   0  0  0  0  0  0
  -23.5437  -32.1384   23.7314 O   0  0  0  0  0  0
  -28.4691  -19.3013   20.9103 C   0  0  0  0  0  0
  -29.5367  -20.1028   20.4258 C   0  0  0  0  0  0
  -28.6031  -17.8826   21.0180 C   0  0  0  0  0  0
  -29.8034  -17.2149   20.6519 C   0  0  0  0  0  0
  -30.6969  -19.3508   20.0827 C   0  0  0  0  0  0
  -28.0960  -25.0332   20.4278 C   0  0  0  0  0  0
  -28.9416  -23.9657   20.1927 C   0  0  0  0  0  0
  -28.5775  -22.5422   20.5348 C   0  0  0  0  0  0
  -30.8297  -17.9849   20.1880 N   0  0  0  0  0  0
  -29.5199  -21.5783   20.2538 N   0  0  0  0  0  0
  -29.7730  -15.7510   20.8124 N   0  0  0  0  0  0
  -27.4994  -22.2295   21.0416 O   0  0  0  0  0  0
  -30.1382  -24.2009   19.6343 O   0  0  0  0  0  0
  -27.5591  -17.1467   21.4722 F   0  0  0  0  0  0
  -31.7676  -20.0304   19.6078 F   0  0  0  0  0  0
  -31.4819  -12.5595   19.1587 H   0  0  0  0  0  0
  -30.3898  -11.4372   19.9202 H   0  0  0  0  0  0
  -29.7842  -11.7495   17.4999 H   0  0  0  0  0  0
  -29.6438  -13.4731   17.7351 H   0  0  0  0  0  0
  -27.8818  -11.2885   18.8886 H   0  0  0  0  0  0
  -27.3788  -12.5539   17.7998 H   0  0  0  0  0  0
  -27.6564  -14.2521   19.5057 H   0  0  0  0  0  0
  -28.7210  -12.0870   21.3888 H   0  0  0  0  0  0
  -28.4331  -13.7437   21.8368 H   0  0  0  0  0  0
  -25.2764   -9.5680   22.4752 H   0  0  0  0  0  0
  -23.9999   -7.4634   22.7475 H   0  0  0  0  0  0
  -21.0836   -8.8770   19.8954 H   0  0  0  0  0  0
  -22.3695  -10.9666   19.6159 H   0  0  0  0  0  0
  -21.2008   -7.6148   23.9715 H   0  0  0  0  0  0
  -21.1480   -6.0522   25.9077 H   0  0  0  0  0  0
  -22.0599   -2.7607   23.2848 H   0  0  0  0  0  0
  -22.4109  -11.9869   22.4791 H   0  0  0  0  0  0
  -21.1110  -13.1238   22.2635 H   0  0  0  0  0  0
  -24.6597  -15.8400   20.5779 H   0  0  0  0  0  0
  -26.2973  -15.6578   20.2273 H   0  0  0  0  0  0
  -26.7185  -32.5432   23.1091 H   0  0  0  0  0  0
  -25.0062  -33.9710   25.0407 H   0  0  0  0  0  0
  -22.7194  -31.3004   21.3972 H   0  0  0  0  0  0
  -23.3747  -35.9628   23.3310 H   0  0  0  0  0  0
  -24.3577  -36.8904   22.2053 H   0  0  0  0  0  0
  -23.7249  -37.6498   23.6658 H   0  0  0  0  0  0
  -26.1020  -31.5395   20.6072 H   0  0  0  0  0  0
  -26.8464  -30.8296   22.0084 H   0  0  0  0  0  0
  -28.1185  -28.9507   21.2121 H   0  0  0  0  0  0
  -26.0007  -25.9210   18.9897 H   0  0  0  0  0  0
  -23.9807  -27.3075   18.9962 H   0  0  0  0  0  0
  -23.7640  -30.5880   19.4023 H   0  0  0  0  0  0
  -22.7620  -29.2428   19.8554 H   0  0  0  0  0  0
  -25.1297  -36.1930   25.0821 H   0  0  0  0  0  0
  -20.9982  -28.3269   24.1398 H   0  0  0  0  0  0
  -20.5679  -26.2302   23.3611 H   0  0  0  0  0  0
  -21.6645  -26.7441   22.1202 H   0  0  0  0  0  0
  -19.6914  -25.6293   21.1244 H   0  0  0  0  0  0
  -19.6689  -27.3192   20.6742 H   0  0  0  0  0  0
  -17.4201  -26.6670   21.4031 H   0  0  0  0  0  0
  -18.0338  -26.0072   22.9026 H   0  0  0  0  0  0
  -19.7939  -30.7275   24.2261 H   0  0  0  0  0  0
  -17.5017  -31.6267   24.5165 H   0  0  0  0  0  0
  -15.5355  -30.2987   23.7656 H   0  0  0  0  0  0
  -15.8675  -28.0822   22.7069 H   0  0  0  0  0  0
  -24.5899  -30.7078   25.7773 H   0  0  0  0  0  0
  -24.8914  -32.2897   26.4867 H   0  0  0  0  0  0
  -25.8043  -30.8909   27.0226 H   0  0  0  0  0  0
  -26.2931  -29.6752   24.1215 H   0  0  0  0  0  0
  -27.4031  -29.7270   25.4712 H   0  0  0  0  0  0
  -27.8805  -30.4290   23.9438 H   0  0  0  0  0  0
  -27.2652  -33.3628   26.2069 H   0  0  0  0  0  0
  -28.3860  -32.6891   25.0327 H   0  0  0  0  0  0
  -28.0716  -31.8460   26.5417 H   0  0  0  0  0  0
  -28.2600  -38.0094   24.7503 H   0  0  0  0  0  0
  -28.1069  -36.2624   24.6306 H   0  0  0  0  0  0
  -27.2293  -37.1467   25.8869 H   0  0  0  0  0  0
  -20.9382  -29.8762   21.6872 H   0  0  0  0  0  0
  -26.0174  -38.2849   24.1398 H   0  0  0  0  0  0
  -27.5315  -19.7484   21.2001 H   0  0  0  0  0  0
  -27.1269  -24.8751   20.8845 H   0  0  0  0  0  0
  -30.3638  -21.9722   19.8538 H   0  0  0  0  0  0
  -28.8752  -15.4386   21.1468 H   0  0  0  0  0  0
  -30.1928  -25.1375   19.4898 H   0  0  0  0  0  0
  1 25  1  0  0  0
  1 30  2  0  0  0
  1 81  1  0  0  0
  2  3  1  0  0  0
  2 25  1  0  0  0
  2 86  1  0  0  0
  2 87  1  0  0  0
  3  4  1  0  0  0
  3 88  1  0  0  0
  3 89  1  0  0  0
  4  5  1  0  0  0
  4 90  1  0  0  0
  4 91  1  0  0  0
  5  6  1  0  0  0
  5 26  1  0  0  0
  5 92  1  0  0  0
  6 25  1  0  0  0
  6 93  1  0  0  0
  6 94  1  0  0  0
  7  8  2  0  0  0
  7 26  1  0  0  0
  7 29  1  0  0  0
  8  9  1  0  0  0
  8 22  1  0  0  0
  9 10  1  0  0  0
  9 27  2  0  0  0
 10 11  2  0  0  0
 10 15  1  0  0  0
 11 12  1  0  0  0
 11 95  1  0  0  0
 12 13  2  0  0  0
 12 96  1  0  0  0
 13 14  1  0  0  0
 13 31  1  0  0  0
 14 15  2  0  0  0
 14 97  1  0  0  0
 15 98  1  0  0  0
 16 17  2  0  0  0
 16 21  1  0  0  0
 16 31  1  0  0  0
 17 18  1  0  0  0
 17 99  1  0  0  0
 18 19  2  0  0  0
 18100  1  0  0  0
 19 20  1  0  0  0
 19 24  1  0  0  0
 20 21  2  0  0  0
 20101  1  0  0  0
 21 23  1  0  0  0
 22 28  1  0  0  0
 22 32  2  0  0  0
 26 27  1  0  0  0
 28102  1  0  0  0
 28103  1  0  0  0
 29104  1  0  0  0
 29105  1  0  0  0
 33 34  1  0  0  0
 33 66  1  0  0  0
 33 70  2  0  0  0
 34 36  1  0  0  0
 34 59  1  0  0  0
 34106  1  0  0  0
 35 44  2  0  0  0
 35 45  1  0  0  0
 35 68  1  0  0  0
 36 56  1  0  0  0
 36107  1  0  0  0
 37 39  1  0  0  0
 37 47  1  0  0  0
 37 66  1  0  0  0
 37108  1  0  0  0
 38 43  2  0  0  0
 38 46  1  0  0  0
 38 47  1  0  0  0
 39 64  1  0  0  0
 39 67  2  0  0  0
 40 52  1  0  0  0
 40 53  2  0  0  0
 40 58  1  0  0  0
 41109  1  0  0  0
 41110  1  0  0  0
 41111  1  0  0  0
 41 48  1  0  0  0
 42 43  1  0  0  0
 42 66  1  0  0  0
 42112  1  0  0  0
 42113  1  0  0  0
 43 44  1  0  0  0
 44114  1  0  0  0
 45 46  2  0  0  0
 45115  1  0  0  0
 46116  1  0  0  0
 47117  1  0  0  0
 47118  1  0  0  0
 48 56  1  0  0  0
 48 65  1  0  0  0
 48119  1  0  0  0
 49 50  1  0  0  0
 49 53  1  0  0  0
 49 64  1  0  0  0
 49120  1  0  0  0
 50 51  1  0  0  0
 50121  1  0  0  0
 50122  1  0  0  0
 51 52  1  0  0  0
 51123  1  0  0  0
 51124  1  0  0  0
 52125  1  0  0  0
 52126  1  0  0  0
 53 54  1  0  0  0
 54 55  2  0  0  0
 54127  1  0  0  0
 55 57  1  0  0  0
 55128  1  0  0  0
 56 69  2  0  0  0
 57 58  2  0  0  0
 57129  1  0  0  0
 58130  1  0  0  0
 59 60  1  0  0  0
 59 61  1  0  0  0
 59 62  1  0  0  0
 60131  1  0  0  0
 60132  1  0  0  0
 60133  1  0  0  0
 61134  1  0  0  0
 61135  1  0  0  0
 61136  1  0  0  0
 62137  1  0  0  0
 62138  1  0  0  0
 62139  1  0  0  0
 63 65  1  0  0  0
 63140  1  0  0  0
 63141  1  0  0  0
 63142  1  0  0  0
 64143  1  0  0  0
 65144  1  0  0  0
 68 76  1  0  0  0
 71 72  2  0  0  0
 71 73  1  0  0  0
 71145  1  0  0  0
 72 75  1  0  0  0
 72 80  1  0  0  0
 73 74  2  0  0  0
 73 84  1  0  0  0
 74 79  1  0  0  0
 74 81  1  0  0  0
 75 79  2  0  0  0
 75 85  1  0  0  0
 76 77  2  0  0  0
 76146  1  0  0  0
 77 78  1  0  0  0
 77 83  1  0  0  0
 78 80  1  0  0  0
 78 82  2  0  0  0
 80147  1  0  0  0
 81148  1  0  0  0
 83149  1  0  0  0
M  ISO  4   1 100  68 101  76 101  81 100
M  END
> <chiral flag>
0

> <version>
0

> <s_m_source_file>
/data/baiqing/PycharmProjects/Reinvent-master-3.2/result/LINK_invent/BTK/process_docking_weight1_custom_product_contain_oxygen_bond_distance_aromatic_linkinvent_7_9_3/rearranged_h_0182.sdf

> <i_m_source_file_index>
5

> <r_mmod_Potential_Energy-OPLS-2005>
-168.511840820312

> <r_mmod_Stretch_Energy-OPLS-2005>
91.6649398803711

> <r_mmod_Bend_Energy-OPLS-2005>
151.717575073242

> <r_mmod_Torsional_Energy-OPLS-2005>
197.994201660156

> <r_mmod_Improper_Torsional_Energy-OPLS-2005>
3.63526153564453

> <r_mmod_Van_der_Waal_Energy-OPLS-2005>
146.912338256836

> <r_mmod_Electrostatic_Energy-OPLS-2005>
-600.115295410156

> <r_mmod_Solvation_Energy-OPLS-2005>
-226.404800415039

> <b_mmod_Minimization_Converged-OPLS-2005>
0

> <r_mmod_RMS_Derivative-OPLS-2005>
0.093295082449913

$$$$
5
                    3D
 Structure written by MMmdl.
154162  0  0  1  0            999 V2000
  -30.5962  -14.6978   20.4751 C   0  0  0  0  0  0
  -30.4391  -12.4244   19.4641 C   0  0  0  0  0  0
  -29.5105  -12.5050   18.2313 C   0  0  0  0  0  0
  -28.0346  -12.3338   18.6431 C   0  0  0  0  0  0
  -27.6474  -13.2188   19.8576 C   0  0  2  0  0  0
  -28.6908  -13.1072   20.9916 C   0  0  0  0  0  0
  -25.2529  -13.8175   20.5662 C   0  0  0  0  0  0
  -24.1816  -13.0437   20.9211 C   0  0  0  0  0  0
  -24.6395  -11.6911   20.8763 C   0  0  0  0  0  0
  -23.9074  -10.4291   21.0431 C   0  0  0  0  0  0
  -24.3624   -9.4201   21.9202 C   0  0  0  0  0  0
  -23.6290   -8.2240   22.0764 C   0  0  0  0  0  0
  -22.4272   -8.0287   21.3552 C   0  0  0  0  0  0
  -21.9918   -9.0265   20.4655 C   0  0  0  0  0  0
  -22.7253  -10.2142   20.3070 C   0  0  0  0  0  0
  -21.6848   -6.0740   22.5280 C   0  0  0  0  0  0
  -21.4013   -6.5642   23.8214 C   0  0  0  0  0  0
  -21.3654   -5.6795   24.9174 C   0  0  0  0  0  0
  -21.6041   -4.3060   24.7224 C   0  0  0  0  0  0
  -21.8816   -3.8151   23.4347 C   0  0  0  0  0  0
  -21.9189   -4.6968   22.3403 C   0  0  0  0  0  0
  -22.7836  -13.5227   21.1868 C   0  0  0  0  0  0
  -22.1657   -4.2154   21.0981 F   0  0  0  0  0  0
  -21.5628   -3.4544   25.7739 F   0  0  0  0  0  0
  -29.9995  -13.4608   20.4229 N   0  0  0  0  0  0
  -26.2953  -12.9358   20.3286 N   0  0  0  0  0  0
  -25.9322  -11.6518   20.5770 N   0  0  0  0  0  0
  -22.0466  -12.8227   22.0419 N   0  0  0  0  0  0
  -25.4215  -15.1895   20.4005 N   0  0  0  0  0  0
  -31.7745  -14.8334   20.1284 O   0  0  0  0  0  0
  -21.6633   -6.8888   21.4245 O   0  0  0  0  0  0
  -22.3531  -14.5532   20.6709 O   0  0  0  0  0  0
  -24.6279  -31.8552   23.1975 C   0  0  0  0  0  0
  -25.9114  -32.4751   23.8315 C   0  0  1  0  0  0
  -27.2315  -27.3019   20.1303 C   0  0  0  0  0  0
  -25.5920  -33.8552   24.2246 N   0  0  0  0  0  0
  -23.4228  -30.4752   21.5405 C   0  0  2  0  0  0
  -24.8712  -28.9192   20.1125 C   0  0  0  0  0  0
  -22.7481  -29.4602   22.4935 C   0  0  0  0  0  0
  -18.0272  -28.1398   22.8461 C   0  0  0  0  0  0
  -24.1490  -36.7289   23.2642 C   0  0  0  0  0  0
  -25.9622  -30.7818   21.3680 C   0  0  0  0  0  0
  -26.0370  -29.4055   20.7157 C   0  0  0  0  0  0
  -27.2206  -28.6100   20.7090 C   0  0  0  0  0  0
  -26.0486  -26.8647   19.5012 C   0  0  0  0  0  0
  -24.8793  -27.6554   19.4942 C   0  0  0  0  0  0
  -23.6378  -29.8008   20.1584 C   0  0  0  0  0  0
  -25.4106  -36.3064   24.0336 C   0  0  1  0  0  0
  -20.5881  -28.3685   23.1283 C   0  0  2  0  0  0
  -20.6768  -26.9409   22.5411 C   0  0  0  0  0  0
  -19.5747  -26.6382   21.5214 C   0  0  0  0  0  0
  -18.1919  -26.7933   22.1616 C   0  0  0  0  0  0
  -19.1529  -28.8855   23.2860 C   0  0  0  0  0  0
  -18.9466  -30.1459   23.8878 C   0  0  0  0  0  0
  -17.6470  -30.6589   24.0564 C   0  0  0  0  0  0
  -25.9053  -34.9437   23.5095 C   0  0  0  0  0  0
  -16.5353  -29.9094   23.6347 C   0  0  0  0  0  0
  -16.7263  -28.6526   23.0330 C   0  0  0  0  0  0
  -26.4494  -31.6565   25.0690 C   0  0  0  0  0  0
  -25.3730  -31.3716   26.1423 C   0  0  0  0  0  0
  -27.0340  -30.2990   24.6145 C   0  0  0  0  0  0
  -27.6044  -32.4309   25.7468 C   0  0  0  0  0  0
  -27.5570  -37.1783   24.8460 C   0  0  0  0  0  0
  -21.4194  -29.3029   22.3682 N   0  0  0  0  0  0
  -26.4272  -37.3763   23.9415 N   0  0  0  0  0  0
  -24.6898  -31.0551   22.0926 N   0  0  0  0  0  0
  -23.4195  -28.8150   23.3031 O   0  0  0  0  0  0
  -28.3698  -26.4797   20.1401 O   0  0  0  0  0  0
  -26.5623  -34.8917   22.4664 O   0  0  0  0  0  0
  -23.5446  -32.1358   23.7297 O   0  0  0  0  0  0
  -28.7479  -18.0552   20.7899 C   0  0  0  0  0  0
  -29.8401  -20.0715   20.1897 C   0  0  0  0  0  0
  -29.8908  -17.2228   20.5568 C   0  0  0  0  0  0
  -31.0006  -19.2298   19.9668 C   0  0  0  0  0  0
  -29.8297  -21.6250   19.9260 C   0  0  0  0  0  0
  -27.2512  -24.8145   21.6878 C   0  0  0  0  0  0
  -28.5310  -23.8523   19.6342 C   0  0  0  0  0  0
  -28.3612  -25.0738   20.6540 C   0  0  1  0  0  0
  -28.7128  -19.4242   20.6161 N   0  0  0  0  0  0
  -31.0156  -17.8717   20.1477 N   0  0  0  0  0  0
  -32.2403  -19.6920   19.5354 N   0  0  0  0  0  0
  -29.7687  -15.7660   20.7543 N   0  0  0  0  0  0
  -28.7403  -22.4318   20.1571 N   0  0  0  0  0  0
  -30.8393  -22.1621   19.4605 O   0  0  0  0  0  0
  -31.4783  -12.5588   19.1605 H   0  0  0  0  0  0
  -30.3884  -11.4356   19.9232 H   0  0  0  0  0  0
  -29.7860  -11.7423   17.5016 H   0  0  0  0  0  0
  -29.6421  -13.4664   17.7314 H   0  0  0  0  0  0
  -27.8839  -11.2825   18.8922 H   0  0  0  0  0  0
  -27.3783  -12.5432   17.7974 H   0  0  0  0  0  0
  -27.6553  -14.2470   19.4966 H   0  0  0  0  0  0
  -28.7141  -12.0942   21.3967 H   0  0  0  0  0  0
  -28.4272  -13.7565   21.8278 H   0  0  0  0  0  0
  -25.2774   -9.5662   22.4776 H   0  0  0  0  0  0
  -23.9989   -7.4628   22.7485 H   0  0  0  0  0  0
  -21.0848   -8.8796   19.8959 H   0  0  0  0  0  0
  -22.3728  -10.9685   19.6175 H   0  0  0  0  0  0
  -21.2008   -7.6152   23.9719 H   0  0  0  0  0  0
  -21.1475   -6.0528   25.9076 H   0  0  0  0  0  0
  -22.0600   -2.7615   23.2847 H   0  0  0  0  0  0
  -22.4065  -11.9879   22.4807 H   0  0  0  0  0  0
  -21.1090  -13.1275   22.2623 H   0  0  0  0  0  0
  -24.6378  -15.8288   20.4766 H   0  0  0  0  0  0
  -26.2346  -15.6158   19.9769 H   0  0  0  0  0  0
  -26.7176  -32.5415   23.1058 H   0  0  0  0  0  0
  -25.0072  -33.9692   25.0393 H   0  0  0  0  0  0
  -22.7168  -31.2948   21.3920 H   0  0  0  0  0  0
  -23.3755  -35.9620   23.3290 H   0  0  0  0  0  0
  -24.3592  -36.8923   22.2063 H   0  0  0  0  0  0
  -23.7248  -37.6485   23.6677 H   0  0  0  0  0  0
  -26.0889  -31.5399   20.5942 H   0  0  0  0  0  0
  -26.8452  -30.8372   21.9935 H   0  0  0  0  0  0
  -28.1207  -28.9803   21.1798 H   0  0  0  0  0  0
  -26.0266  -25.8957   19.0238 H   0  0  0  0  0  0
  -23.9872  -27.2775   19.0144 H   0  0  0  0  0  0
  -23.7568  -30.5728   19.3991 H   0  0  0  0  0  0
  -22.7582  -29.2284   19.8577 H   0  0  0  0  0  0
  -25.1288  -36.1898   25.0832 H   0  0  0  0  0  0
  -20.9949  -28.3252   24.1412 H   0  0  0  0  0  0
  -20.5683  -26.2293   23.3611 H   0  0  0  0  0  0
  -21.6631  -26.7442   22.1189 H   0  0  0  0  0  0
  -19.6923  -25.6295   21.1235 H   0  0  0  0  0  0
  -19.6695  -27.3196   20.6752 H   0  0  0  0  0  0
  -17.4192  -26.6670   21.4017 H   0  0  0  0  0  0
  -18.0305  -26.0086   22.9027 H   0  0  0  0  0  0
  -19.7949  -30.7272   24.2228 H   0  0  0  0  0  0
  -17.5034  -31.6271   24.5166 H   0  0  0  0  0  0
  -15.5356  -30.2994   23.7701 H   0  0  0  0  0  0
  -15.8659  -28.0868   22.7032 H   0  0  0  0  0  0
  -24.5907  -30.7065   25.7745 H   0  0  0  0  0  0
  -24.8937  -32.2900   26.4823 H   0  0  0  0  0  0
  -25.8059  -30.8901   27.0204 H   0  0  0  0  0  0
  -26.2904  -29.6728   24.1200 H   0  0  0  0  0  0
  -27.4081  -29.7249   25.4629 H   0  0  0  0  0  0
  -27.8754  -30.4278   23.9334 H   0  0  0  0  0  0
  -27.2636  -33.3615   26.2020 H   0  0  0  0  0  0
  -28.3866  -32.6853   25.0306 H   0  0  0  0  0  0
  -28.0699  -31.8457   26.5410 H   0  0  0  0  0  0
  -28.2554  -38.0111   24.7517 H   0  0  0  0  0  0
  -28.1101  -36.2633   24.6258 H   0  0  0  0  0  0
  -27.2304  -37.1395   25.8870 H   0  0  0  0  0  0
  -20.9380  -29.8764   21.6893 H   0  0  0  0  0  0
  -26.0157  -38.2835   24.1431 H   0  0  0  0  0  0
  -27.8189  -17.6097   21.1156 H   0  0  0  0  0  0
  -27.4257  -23.8778   22.2171 H   0  0  0  0  0  0
  -26.2696  -24.7423   21.2207 H   0  0  0  0  0  0
  -27.2149  -25.6058   22.4369 H   0  0  0  0  0  0
  -29.3429  -24.1094   18.9522 H   0  0  0  0  0  0
  -27.6456  -23.8221   18.9990 H   0  0  0  0  0  0
  -29.2835  -25.0533   21.2347 H   0  0  0  0  0  0
  -32.3991  -20.6917   19.4362 H   0  0  0  0  0  0
  -33.0629  -19.1003   19.5399 H   0  0  0  0  0  0
  -28.8501  -15.4745   21.0494 H   0  0  0  0  0  0
  -27.9373  -21.9679   20.5603 H   0  0  0  0  0  0
  1 25  1  0  0  0
  1 30  2  0  0  0
  1 82  1  0  0  0
  2  3  1  0  0  0
  2 25  1  0  0  0
  2 85  1  0  0  0
  2 86  1  0  0  0
  3  4  1  0  0  0
  3 87  1  0  0  0
  3 88  1  0  0  0
  4  5  1  0  0  0
  4 89  1  0  0  0
  4 90  1  0  0  0
  5  6  1  0  0  0
  5 26  1  0  0  0
  5 91  1  0  0  0
  6 25  1  0  0  0
  6 92  1  0  0  0
  6 93  1  0  0  0
  7  8  2  0  0  0
  7 26  1  0  0  0
  7 29  1  0  0  0
  8  9  1  0  0  0
  8 22  1  0  0  0
  9 10  1  0  0  0
  9 27  2  0  0  0
 10 11  2  0  0  0
 10 15  1  0  0  0
 11 12  1  0  0  0
 11 94  1  0  0  0
 12 13  2  0  0  0
 12 95  1  0  0  0
 13 14  1  0  0  0
 13 31  1  0  0  0
 14 15  2  0  0  0
 14 96  1  0  0  0
 15 97  1  0  0  0
 16 17  2  0  0  0
 16 21  1  0  0  0
 16 31  1  0  0  0
 17 18  1  0  0  0
 17 98  1  0  0  0
 18 19  2  0  0  0
 18 99  1  0  0  0
 19 20  1  0  0  0
 19 24  1  0  0  0
 20 21  2  0  0  0
 20100  1  0  0  0
 21 23  1  0  0  0
 22 28  1  0  0  0
 22 32  2  0  0  0
 26 27  1  0  0  0
 28101  1  0  0  0
 28102  1  0  0  0
 29103  1  0  0  0
 29104  1  0  0  0
 33 34  1  0  0  0
 33 66  1  0  0  0
 33 70  2  0  0  0
 34 36  1  0  0  0
 34 59  1  0  0  0
 34105  1  0  0  0
 35 44  2  0  0  0
 35 45  1  0  0  0
 35 68  1  0  0  0
 36 56  1  0  0  0
 36106  1  0  0  0
 37 39  1  0  0  0
 37 47  1  0  0  0
 37 66  1  0  0  0
 37107  1  0  0  0
 38 43  2  0  0  0
 38 46  1  0  0  0
 38 47  1  0  0  0
 39 64  1  0  0  0
 39 67  2  0  0  0
 40 52  1  0  0  0
 40 53  2  0  0  0
 40 58  1  0  0  0
 41108  1  0  0  0
 41109  1  0  0  0
 41110  1  0  0  0
 41 48  1  0  0  0
 42 43  1  0  0  0
 42 66  1  0  0  0
 42111  1  0  0  0
 42112  1  0  0  0
 43 44  1  0  0  0
 44113  1  0  0  0
 45 46  2  0  0  0
 45114  1  0  0  0
 46115  1  0  0  0
 47116  1  0  0  0
 47117  1  0  0  0
 48 56  1  0  0  0
 48 65  1  0  0  0
 48118  1  0  0  0
 49 50  1  0  0  0
 49 53  1  0  0  0
 49 64  1  0  0  0
 49119  1  0  0  0
 50 51  1  0  0  0
 50120  1  0  0  0
 50121  1  0  0  0
 51 52  1  0  0  0
 51122  1  0  0  0
 51123  1  0  0  0
 52124  1  0  0  0
 52125  1  0  0  0
 53 54  1  0  0  0
 54 55  2  0  0  0
 54126  1  0  0  0
 55 57  1  0  0  0
 55127  1  0  0  0
 56 69  2  0  0  0
 57 58  2  0  0  0
 57128  1  0  0  0
 58129  1  0  0  0
 59 60  1  0  0  0
 59 61  1  0  0  0
 59 62  1  0  0  0
 60130  1  0  0  0
 60131  1  0  0  0
 60132  1  0  0  0
 61133  1  0  0  0
 61134  1  0  0  0
 61135  1  0  0  0
 62136  1  0  0  0
 62137  1  0  0  0
 62138  1  0  0  0
 63 65  1  0  0  0
 63139  1  0  0  0
 63140  1  0  0  0
 63141  1  0  0  0
 64142  1  0  0  0
 65143  1  0  0  0
 68 78  1  0  0  0
 71 73  2  0  0  0
 71 79  1  0  0  0
 71144  1  0  0  0
 72 74  1  0  0  0
 72 75  1  0  0  0
 72 79  2  0  0  0
 73 80  1  0  0  0
 73 82  1  0  0  0
 74 80  2  0  0  0
 74 81  1  0  0  0
 75 83  1  0  0  0
 75 84  2  0  0  0
 76145  1  0  0  0
 76146  1  0  0  0
 76147  1  0  0  0
 76 78  1  0  0  0
 77 78  1  0  0  0
 77 83  1  0  0  0
 77148  1  0  0  0
 77149  1  0  0  0
 78150  1  0  0  0
 81151  1  0  0  0
 81152  1  0  0  0
 82153  1  0  0  0
 83154  1  0  0  0
M  ISO  4   1 100  68 101  78 101  82 100
M  END
> <chiral flag>
0

> <version>
0

> <s_m_source_file>
/data/baiqing/PycharmProjects/Reinvent-master-3.2/result/LINK_invent/BTK/process_docking_weight1_custom_product_contain_oxygen_bond_distance_aromatic_linkinvent_7_9_3/rearranged_h_0182.sdf

> <i_m_source_file_index>
6

> <r_mmod_Potential_Energy-OPLS-2005>
165.968032836914

> <r_mmod_Stretch_Energy-OPLS-2005>
105.961204528809

> <r_mmod_Bend_Energy-OPLS-2005>
178.958984375

> <r_mmod_Torsional_Energy-OPLS-2005>
237.33186340332

> <r_mmod_Improper_Torsional_Energy-OPLS-2005>
5.80836248397827

> <r_mmod_Van_der_Waal_Energy-OPLS-2005>
146.337905883789

> <r_mmod_Electrostatic_Energy-OPLS-2005>
-312.689392089844

> <r_mmod_Solvation_Energy-OPLS-2005>
-256.151092529297

> <b_mmod_Minimization_Converged-OPLS-2005>
0

> <r_mmod_RMS_Derivative-OPLS-2005>
1.62785518169403

$$$$
6
                    3D
 Structure written by MMmdl.
152160  0  0  1  0            999 V2000
  -30.5835  -14.8070   20.4448 C   0  0  0  0  0  0
  -30.4409  -12.4869   19.4835 C   0  0  0  0  0  0
  -29.5161  -12.5179   18.2446 C   0  0  0  0  0  0
  -28.0432  -12.3320   18.6564 C   0  0  0  0  0  0
  -27.6445  -13.2343   19.8545 C   0  0  2  0  0  0
  -28.6925  -13.1768   20.9902 C   0  0  0  0  0  0
  -25.2511  -13.8200   20.5691 C   0  0  0  0  0  0
  -24.1802  -13.0443   20.9220 C   0  0  0  0  0  0
  -24.6395  -11.6926   20.8754 C   0  0  0  0  0  0
  -23.9067  -10.4300   21.0400 C   0  0  0  0  0  0
  -24.3620   -9.4215   21.9184 C   0  0  0  0  0  0
  -23.6304   -8.2242   22.0740 C   0  0  0  0  0  0
  -22.4278   -8.0278   21.3538 C   0  0  0  0  0  0
  -21.9917   -9.0249   20.4634 C   0  0  0  0  0  0
  -22.7238  -10.2141   20.3049 C   0  0  0  0  0  0
  -21.6852   -6.0736   22.5285 C   0  0  0  0  0  0
  -21.4013   -6.5641   23.8220 C   0  0  0  0  0  0
  -21.3665   -5.6794   24.9181 C   0  0  0  0  0  0
  -21.6042   -4.3054   24.7234 C   0  0  0  0  0  0
  -21.8817   -3.8146   23.4350 C   0  0  0  0  0  0
  -21.9194   -4.6964   22.3405 C   0  0  0  0  0  0
  -22.7821  -13.5224   21.1898 C   0  0  0  0  0  0
  -22.1659   -4.2148   21.0986 F   0  0  0  0  0  0
  -21.5637   -3.4541   25.7747 F   0  0  0  0  0  0
  -29.9924  -13.5538   20.4147 N   0  0  0  0  0  0
  -26.2955  -12.9410   20.3305 N   0  0  0  0  0  0
  -25.9336  -11.6553   20.5765 N   0  0  0  0  0  0
  -22.0467  -12.8204   22.0435 N   0  0  0  0  0  0
  -25.4217  -15.1915   20.4070 N   0  0  0  0  0  0
  -31.7617  -14.9182   20.0902 O   0  0  0  0  0  0
  -21.6639   -6.8875   21.4239 O   0  0  0  0  0  0
  -22.3514  -14.5540   20.6746 O   0  0  0  0  0  0
  -24.6390  -31.8476   23.1901 C   0  0  0  0  0  0
  -25.9180  -32.4723   23.8269 C   0  0  1  0  0  0
  -27.2171  -27.2073   20.1291 C   0  0  0  0  0  0
  -25.5927  -33.8523   24.2181 N   0  0  0  0  0  0
  -23.4399  -30.4672   21.5353 C   0  0  2  0  0  0
  -24.8905  -28.9100   20.1000 C   0  0  0  0  0  0
  -22.7548  -29.4558   22.4882 C   0  0  0  0  0  0
  -18.0270  -28.1421   22.8467 C   0  0  0  0  0  0
  -24.1471  -36.7270   23.2638 C   0  0  0  0  0  0
  -25.9895  -30.7448   21.3785 C   0  0  0  0  0  0
  -26.0658  -29.3649   20.7135 C   0  0  0  0  0  0
  -27.2371  -28.5279   20.7128 C   0  0  0  0  0  0
  -26.0262  -26.8398   19.4714 C   0  0  0  0  0  0
  -24.8792  -27.6600   19.4631 C   0  0  0  0  0  0
  -23.6604  -29.7995   20.1528 C   0  0  0  0  0  0
  -25.4106  -36.3060   24.0308 C   0  0  1  0  0  0
  -20.5877  -28.3734   23.1230 C   0  0  2  0  0  0
  -20.6748  -26.9437   22.5397 C   0  0  0  0  0  0
  -19.5731  -26.6399   21.5190 C   0  0  0  0  0  0
  -18.1911  -26.7956   22.1611 C   0  0  0  0  0  0
  -19.1528  -28.8897   23.2839 C   0  0  0  0  0  0
  -18.9472  -30.1491   23.8873 C   0  0  0  0  0  0
  -17.6483  -30.6620   24.0560 C   0  0  0  0  0  0
  -25.9066  -34.9434   23.5067 C   0  0  0  0  0  0
  -16.5360  -29.9118   23.6354 C   0  0  0  0  0  0
  -16.7258  -28.6531   23.0372 C   0  0  0  0  0  0
  -26.4516  -31.6579   25.0712 C   0  0  0  0  0  0
  -25.3708  -31.3778   26.1417 C   0  0  0  0  0  0
  -27.0342  -30.2957   24.6281 C   0  0  0  0  0  0
  -27.6047  -32.4349   25.7507 C   0  0  0  0  0  0
  -27.5560  -37.1788   24.8466 C   0  0  0  0  0  0
  -21.4247  -29.3059   22.3627 N   0  0  0  0  0  0
  -26.4279  -37.3770   23.9409 N   0  0  0  0  0  0
  -24.7083  -31.0388   22.0908 N   0  0  0  0  0  0
  -23.4208  -28.8111   23.3021 O   0  0  0  0  0  0
  -28.2048  -26.1785   20.2607 O   0  0  0  0  0  0
  -26.5671  -34.8940   22.4656 O   0  0  0  0  0  0
  -23.5522  -32.1336   23.7153 O   0  0  0  0  0  0
  -30.4149  -19.5229   19.6777 C   0  0  0  0  0  0
  -29.3530  -20.0202   20.4349 C   0  0  0  0  0  0
  -29.8225  -17.3938   20.5397 C   0  0  0  0  0  0
  -28.1441  -23.6379   21.0833 C   0  0  0  0  0  0
  -27.8885  -25.0420   21.1026 C   0  0  0  0  0  0
  -28.9285  -22.6477   20.2231 C   0  0  0  0  0  0
  -31.3200  -20.3434   18.8084 C   0  0  0  0  0  0
  -27.0936  -25.5670   22.3212 C   0  0  0  0  0  0
  -30.6611  -18.1017   19.7517 N   0  0  0  0  0  0
  -28.8299  -21.3191   20.6818 N   0  0  0  0  0  0
  -29.7769  -15.9049   20.7488 N   0  0  0  0  0  0
  -29.5855  -22.9492   19.2254 O   0  0  0  0  0  0
  -27.5385  -22.9810   22.0934 O   0  0  0  0  0  0
  -28.6462  -18.5714   21.2434 S   0  0  0  0  0  0
  -31.4805  -12.6182   19.1809 H   0  0  0  0  0  0
  -30.3990  -11.5124   19.9730 H   0  0  0  0  0  0
  -29.8071  -11.7426   17.5338 H   0  0  0  0  0  0
  -29.6321  -13.4698   17.7230 H   0  0  0  0  0  0
  -27.9056  -11.2831   18.9227 H   0  0  0  0  0  0
  -27.3856  -12.5173   17.8058 H   0  0  0  0  0  0
  -27.6342  -14.2545   19.4694 H   0  0  0  0  0  0
  -28.7376  -12.1744   21.4195 H   0  0  0  0  0  0
  -28.4154  -13.8430   21.8093 H   0  0  0  0  0  0
  -25.2755   -9.5703   22.4773 H   0  0  0  0  0  0
  -24.0021   -7.4621   22.7447 H   0  0  0  0  0  0
  -21.0854   -8.8761   19.8924 H   0  0  0  0  0  0
  -22.3685  -10.9683   19.6163 H   0  0  0  0  0  0
  -21.1991   -7.6150   23.9724 H   0  0  0  0  0  0
  -21.1492   -6.0525   25.9090 H   0  0  0  0  0  0
  -22.0589   -2.7607   23.2856 H   0  0  0  0  0  0
  -22.4094  -11.9871   22.4832 H   0  0  0  0  0  0
  -21.1073  -13.1205   22.2619 H   0  0  0  0  0  0
  -24.6476  -15.8415   20.4882 H   0  0  0  0  0  0
  -26.2610  -15.6215   20.0414 H   0  0  0  0  0  0
  -26.7253  -32.5354   23.1003 H   0  0  0  0  0  0
  -24.9994  -33.9634   25.0280 H   0  0  0  0  0  0
  -22.7396  -31.2903   21.3856 H   0  0  0  0  0  0
  -23.3752  -35.9587   23.3328 H   0  0  0  0  0  0
  -24.3522  -36.8888   22.2045 H   0  0  0  0  0  0
  -23.7234  -37.6473   23.6670 H   0  0  0  0  0  0
  -26.1312  -31.5061   20.6103 H   0  0  0  0  0  0
  -26.8618  -30.7908   22.0191 H   0  0  0  0  0  0
  -28.1297  -28.8550   21.2266 H   0  0  0  0  0  0
  -25.9596  -25.8637   19.0124 H   0  0  0  0  0  0
  -23.9787  -27.3068   18.9796 H   0  0  0  0  0  0
  -23.7847  -30.5761   19.3970 H   0  0  0  0  0  0
  -22.7768  -29.2335   19.8503 H   0  0  0  0  0  0
  -25.1292  -36.1884   25.0797 H   0  0  0  0  0  0
  -20.9930  -28.3333   24.1370 H   0  0  0  0  0  0
  -20.5593  -26.2366   23.3633 H   0  0  0  0  0  0
  -21.6620  -26.7428   22.1223 H   0  0  0  0  0  0
  -19.6896  -25.6302   21.1243 H   0  0  0  0  0  0
  -19.6666  -27.3187   20.6702 H   0  0  0  0  0  0
  -17.4161  -26.6674   21.4040 H   0  0  0  0  0  0
  -18.0341  -26.0111   22.9022 H   0  0  0  0  0  0
  -19.7958  -30.7284   24.2248 H   0  0  0  0  0  0
  -17.5047  -31.6297   24.5168 H   0  0  0  0  0  0
  -15.5360  -30.3019   23.7715 H   0  0  0  0  0  0
  -15.8649  -28.0845   22.7124 H   0  0  0  0  0  0
  -24.5885  -30.7125   25.7743 H   0  0  0  0  0  0
  -24.8915  -32.2965   26.4797 H   0  0  0  0  0  0
  -25.7989  -30.8986   27.0228 H   0  0  0  0  0  0
  -26.2925  -29.6720   24.1277 H   0  0  0  0  0  0
  -27.3899  -29.7235   25.4860 H   0  0  0  0  0  0
  -27.8867  -30.4148   23.9598 H   0  0  0  0  0  0
  -27.2607  -33.3646   26.2047 H   0  0  0  0  0  0
  -28.3879  -32.6908   25.0362 H   0  0  0  0  0  0
  -28.0689  -31.8515   26.5470 H   0  0  0  0  0  0
  -28.2600  -38.0066   24.7481 H   0  0  0  0  0  0
  -28.1037  -36.2595   24.6324 H   0  0  0  0  0  0
  -27.2273  -37.1464   25.8873 H   0  0  0  0  0  0
  -20.9484  -29.8798   21.6817 H   0  0  0  0  0  0
  -26.0164  -38.2840   24.1445 H   0  0  0  0  0  0
  -31.7219  -21.1999   19.3497 H   0  0  0  0  0  0
  -30.7813  -20.7288   17.9420 H   0  0  0  0  0  0
  -32.1673  -19.7676   18.4360 H   0  0  0  0  0  0
  -27.2859  -25.0274   23.2487 H   0  0  0  0  0  0
  -26.0218  -25.5294   22.1166 H   0  0  0  0  0  0
  -27.3612  -26.5900   22.5807 H   0  0  0  0  0  0
  -28.1702  -21.3343   21.4511 H   0  0  0  0  0  0
  -28.9070  -15.6025   21.1570 H   0  0  0  0  0  0
  -27.0667  -23.6346   22.5930 H   0  0  0  0  0  0
  1 25  1  0  0  0
  1 30  2  0  0  0
  1 81  1  0  0  0
  2  3  1  0  0  0
  2 25  1  0  0  0
  2 85  1  0  0  0
  2 86  1  0  0  0
  3  4  1  0  0  0
  3 87  1  0  0  0
  3 88  1  0  0  0
  4  5  1  0  0  0
  4 89  1  0  0  0
  4 90  1  0  0  0
  5  6  1  0  0  0
  5 26  1  0  0  0
  5 91  1  0  0  0
  6 25  1  0  0  0
  6 92  1  0  0  0
  6 93  1  0  0  0
  7  8  2  0  0  0
  7 26  1  0  0  0
  7 29  1  0  0  0
  8  9  1  0  0  0
  8 22  1  0  0  0
  9 10  1  0  0  0
  9 27  2  0  0  0
 10 11  2  0  0  0
 10 15  1  0  0  0
 11 12  1  0  0  0
 11 94  1  0  0  0
 12 13  2  0  0  0
 12 95  1  0  0  0
 13 14  1  0  0  0
 13 31  1  0  0  0
 14 15  2  0  0  0
 14 96  1  0  0  0
 15 97  1  0  0  0
 16 17  2  0  0  0
 16 21  1  0  0  0
 16 31  1  0  0  0
 17 18  1  0  0  0
 17 98  1  0  0  0
 18 19  2  0  0  0
 18 99  1  0  0  0
 19 20  1  0  0  0
 19 24  1  0  0  0
 20 21  2  0  0  0
 20100  1  0  0  0
 21 23  1  0  0  0
 22 28  1  0  0  0
 22 32  2  0  0  0
 26 27  1  0  0  0
 28101  1  0  0  0
 28102  1  0  0  0
 29103  1  0  0  0
 29104  1  0  0  0
 33 34  1  0  0  0
 33 66  1  0  0  0
 33 70  2  0  0  0
 34 36  1  0  0  0
 34 59  1  0  0  0
 34105  1  0  0  0
 35 44  2  0  0  0
 35 45  1  0  0  0
 35 68  1  0  0  0
 36 56  1  0  0  0
 36106  1  0  0  0
 37 39  1  0  0  0
 37 47  1  0  0  0
 37 66  1  0  0  0
 37107  1  0  0  0
 38 43  2  0  0  0
 38 46  1  0  0  0
 38 47  1  0  0  0
 39 64  1  0  0  0
 39 67  2  0  0  0
 40 52  1  0  0  0
 40 53  2  0  0  0
 40 58  1  0  0  0
 41108  1  0  0  0
 41109  1  0  0  0
 41110  1  0  0  0
 41 48  1  0  0  0
 42 43  1  0  0  0
 42 66  1  0  0  0
 42111  1  0  0  0
 42112  1  0  0  0
 43 44  1  0  0  0
 44113  1  0  0  0
 45 46  2  0  0  0
 45114  1  0  0  0
 46115  1  0  0  0
 47116  1  0  0  0
 47117  1  0  0  0
 48 56  1  0  0  0
 48 65  1  0  0  0
 48118  1  0  0  0
 49 50  1  0  0  0
 49 53  1  0  0  0
 49 64  1  0  0  0
 49119  1  0  0  0
 50 51  1  0  0  0
 50120  1  0  0  0
 50121  1  0  0  0
 51 52  1  0  0  0
 51122  1  0  0  0
 51123  1  0  0  0
 52124  1  0  0  0
 52125  1  0  0  0
 53 54  1  0  0  0
 54 55  2  0  0  0
 54126  1  0  0  0
 55 57  1  0  0  0
 55127  1  0  0  0
 56 69  2  0  0  0
 57 58  2  0  0  0
 57128  1  0  0  0
 58129  1  0  0  0
 59 60  1  0  0  0
 59 61  1  0  0  0
 59 62  1  0  0  0
 60130  1  0  0  0
 60131  1  0  0  0
 60132  1  0  0  0
 61133  1  0  0  0
 61134  1  0  0  0
 61135  1  0  0  0
 62136  1  0  0  0
 62137  1  0  0  0
 62138  1  0  0  0
 63 65  1  0  0  0
 63139  1  0  0  0
 63140  1  0  0  0
 63141  1  0  0  0
 64142  1  0  0  0
 65143  1  0  0  0
 68 75  1  0  0  0
 71 72  2  0  0  0
 71 77  1  0  0  0
 71 79  1  0  0  0
 72 80  1  0  0  0
 72 84  1  0  0  0
 73 79  2  0  0  0
 73 81  1  0  0  0
 73 84  1  0  0  0
 74 75  2  0  0  0
 74 76  1  0  0  0
 74 83  1  0  0  0
 75 78  1  0  0  0
 76 80  1  0  0  0
 76 82  2  0  0  0
 77144  1  0  0  0
 77145  1  0  0  0
 77146  1  0  0  0
 78147  1  0  0  0
 78148  1  0  0  0
 78149  1  0  0  0
 80150  1  0  0  0
 81151  1  0  0  0
 83152  1  0  0  0
M  ISO  4   1 100  68 101  75 101  81 100
M  END
> <chiral flag>
0

> <version>
0

> <s_m_source_file>
/data/baiqing/PycharmProjects/Reinvent-master-3.2/result/LINK_invent/BTK/process_docking_weight1_custom_product_contain_oxygen_bond_distance_aromatic_linkinvent_7_9_3/rearranged_h_0182.sdf

> <i_m_source_file_index>
7

> <r_mmod_Potential_Energy-OPLS-2005>
246.10221862793

> <r_mmod_Stretch_Energy-OPLS-2005>
156.72477722168

> <r_mmod_Bend_Energy-OPLS-2005>
279.267608642578

> <r_mmod_Torsional_Energy-OPLS-2005>
220.294357299805

> <r_mmod_Improper_Torsional_Energy-OPLS-2005>
4.1617169380188

> <r_mmod_Van_der_Waal_Energy-OPLS-2005>
141.517379760742

> <r_mmod_Electrostatic_Energy-OPLS-2005>
-444.441162109375

> <r_mmod_Solvation_Energy-OPLS-2005>
-243.282165527344

> <b_mmod_Minimization_Converged-OPLS-2005>
0

> <r_mmod_RMS_Derivative-OPLS-2005>
2.75477266311646

$$$$
7
                    3D
 Structure written by MMmdl.
156164  0  0  1  0            999 V2000
  -30.5761  -14.7462   20.4619 C   0  0  0  0  0  0
  -30.4526  -12.4586   19.4523 C   0  0  0  0  0  0
  -29.5132  -12.5191   18.2255 C   0  0  0  0  0  0
  -28.0402  -12.3401   18.6454 C   0  0  0  0  0  0
  -27.6531  -13.2235   19.8587 C   0  0  2  0  0  0
  -28.7036  -13.1191   20.9887 C   0  0  0  0  0  0
  -25.2566  -13.8198   20.5714 C   0  0  0  0  0  0
  -24.1831  -13.0448   20.9215 C   0  0  0  0  0  0
  -24.6402  -11.6922   20.8727 C   0  0  0  0  0  0
  -23.9054  -10.4308   21.0394 C   0  0  0  0  0  0
  -24.3598   -9.4226   21.9172 C   0  0  0  0  0  0
  -23.6271   -8.2267   22.0747 C   0  0  0  0  0  0
  -22.4246   -8.0307   21.3560 C   0  0  0  0  0  0
  -21.9886   -9.0267   20.4649 C   0  0  0  0  0  0
  -22.7211  -10.2152   20.3055 C   0  0  0  0  0  0
  -21.6870   -6.0728   22.5267 C   0  0  0  0  0  0
  -21.4018   -6.5616   23.8203 C   0  0  0  0  0  0
  -21.3669   -5.6769   24.9159 C   0  0  0  0  0  0
  -21.6055   -4.3037   24.7215 C   0  0  0  0  0  0
  -21.8818   -3.8133   23.4334 C   0  0  0  0  0  0
  -21.9200   -4.6955   22.3390 C   0  0  0  0  0  0
  -22.7854  -13.5267   21.1872 C   0  0  0  0  0  0
  -22.1671   -4.2137   21.0974 F   0  0  0  0  0  0
  -21.5636   -3.4523   25.7734 F   0  0  0  0  0  0
  -30.0098  -13.4903   20.4161 N   0  0  0  0  0  0
  -26.2997  -12.9374   20.3319 N   0  0  0  0  0  0
  -25.9335  -11.6532   20.5748 N   0  0  0  0  0  0
  -22.0454  -12.8287   22.0429 N   0  0  0  0  0  0
  -25.4269  -15.1917   20.4166 N   0  0  0  0  0  0
  -31.7380  -14.9275   20.0811 O   0  0  0  0  0  0
  -21.6654   -6.8870   21.4231 O   0  0  0  0  0  0
  -22.3543  -14.5560   20.6703 O   0  0  0  0  0  0
  -24.6293  -31.8554   23.1966 C   0  0  0  0  0  0
  -25.9137  -32.4742   23.8305 C   0  0  1  0  0  0
  -27.2449  -27.2833   20.1258 C   0  0  0  0  0  0
  -25.5951  -33.8539   24.2252 N   0  0  0  0  0  0
  -23.4267  -30.4768   21.5347 C   0  0  2  0  0  0
  -24.8825  -28.9181   20.1140 C   0  0  0  0  0  0
  -22.7491  -29.4610   22.4865 C   0  0  0  0  0  0
  -18.0311  -28.1396   22.8408 C   0  0  0  0  0  0
  -24.1493  -36.7279   23.2631 C   0  0  0  0  0  0
  -25.9712  -30.7721   21.3779 C   0  0  0  0  0  0
  -26.0492  -29.3946   20.7250 C   0  0  0  0  0  0
  -27.2326  -28.5888   20.7215 C   0  0  0  0  0  0
  -26.0619  -26.8802   19.4733 C   0  0  0  0  0  0
  -24.8913  -27.6656   19.4794 C   0  0  0  0  0  0
  -23.6513  -29.8029   20.1535 C   0  0  0  0  0  0
  -25.4108  -36.3046   24.0319 C   0  0  1  0  0  0
  -20.5898  -28.3715   23.1238 C   0  0  2  0  0  0
  -20.6786  -26.9417   22.5404 C   0  0  0  0  0  0
  -19.5801  -26.6392   21.5161 C   0  0  0  0  0  0
  -18.1971  -26.7943   22.1546 C   0  0  0  0  0  0
  -19.1552  -28.8867   23.2842 C   0  0  0  0  0  0
  -18.9460  -30.1458   23.8874 C   0  0  0  0  0  0
  -17.6464  -30.6566   24.0589 C   0  0  0  0  0  0
  -25.9045  -34.9420   23.5087 C   0  0  0  0  0  0
  -16.5360  -29.9068   23.6316 C   0  0  0  0  0  0
  -16.7299  -28.6504   23.0306 C   0  0  0  0  0  0
  -26.4514  -31.6568   25.0695 C   0  0  0  0  0  0
  -25.3746  -31.3753   26.1428 C   0  0  0  0  0  0
  -27.0367  -30.2963   24.6215 C   0  0  0  0  0  0
  -27.6051  -32.4315   25.7490 C   0  0  0  0  0  0
  -27.5576  -37.1797   24.8457 C   0  0  0  0  0  0
  -21.4196  -29.3073   22.3630 N   0  0  0  0  0  0
  -26.4280  -37.3752   23.9410 N   0  0  0  0  0  0
  -24.6931  -31.0534   22.0931 N   0  0  0  0  0  0
  -23.4210  -28.8124   23.2931 O   0  0  0  0  0  0
  -28.3681  -26.4206   20.1159 O   0  0  0  0  0  0
  -26.5611  -34.8897   22.4657 O   0  0  0  0  0  0
  -23.5450  -32.1381   23.7261 O   0  0  0  0  0  0
  -28.3546  -19.1846   21.0362 C   0  0  0  0  0  0
  -29.3872  -19.8266   20.3511 C   0  0  0  0  0  0
  -29.6235  -17.2336   20.7066 C   0  0  0  0  0  0
  -29.1994  -22.3476   20.6124 C   0  0  0  0  0  0
  -26.9699  -24.6192   21.2810 C   0  0  0  0  0  0
  -26.9748  -19.7958   23.0567 C   0  0  0  0  0  0
  -28.9963  -23.7695   19.8822 C   0  0  0  0  0  0
  -28.3406  -25.0205   20.6915 C   0  0  1  0  0  0
  -27.0297  -19.7348   21.5269 C   0  0  0  0  0  0
  -28.5346  -17.7905   21.2424 N   0  0  0  0  0  0
  -29.4703  -21.1709   19.9300 N   0  0  0  0  0  0
  -29.7234  -15.7653   20.8309 N   0  0  0  0  0  0
  -29.1622  -22.3239   21.8438 O   0  0  0  0  0  0
  -26.0253  -18.9458   21.1419 F   0  0  0  0  0  0
  -26.7442  -20.9455   21.0519 F   0  0  0  0  0  0
  -30.5787  -18.5316   19.9004 S   0  0  0  0  0  0
  -31.4879  -12.6096   19.1414 H   0  0  0  0  0  0
  -30.4198  -11.4732   19.9157 H   0  0  0  0  0  0
  -29.7874  -11.7504   17.5014 H   0  0  0  0  0  0
  -29.6369  -13.4759   17.7161 H   0  0  0  0  0  0
  -27.8958  -11.2883   18.8939 H   0  0  0  0  0  0
  -27.3795  -12.5499   17.8033 H   0  0  0  0  0  0
  -27.6565  -14.2510   19.4944 H   0  0  0  0  0  0
  -28.7429  -12.1072   21.3940 H   0  0  0  0  0  0
  -28.4326  -13.7634   21.8269 H   0  0  0  0  0  0
  -25.2728   -9.5736   22.4751 H   0  0  0  0  0  0
  -24.0002   -7.4667   22.7451 H   0  0  0  0  0  0
  -21.0828   -8.8770   19.8939 H   0  0  0  0  0  0
  -22.3640  -10.9693   19.6186 H   0  0  0  0  0  0
  -21.1994   -7.6121   23.9707 H   0  0  0  0  0  0
  -21.1496   -6.0492   25.9069 H   0  0  0  0  0  0
  -22.0586   -2.7598   23.2834 H   0  0  0  0  0  0
  -22.4037  -11.9975   22.4879 H   0  0  0  0  0  0
  -21.1067  -13.1353   22.2559 H   0  0  0  0  0  0
  -24.6625  -15.8457   20.5451 H   0  0  0  0  0  0
  -26.2826  -15.6463   20.1209 H   0  0  0  0  0  0
  -26.7219  -32.5403   23.1059 H   0  0  0  0  0  0
  -25.0129  -33.9660   25.0420 H   0  0  0  0  0  0
  -22.7227  -31.2967   21.3798 H   0  0  0  0  0  0
  -23.3731  -35.9642   23.3284 H   0  0  0  0  0  0
  -24.3567  -36.8912   22.2045 H   0  0  0  0  0  0
  -23.7277  -37.6491   23.6658 H   0  0  0  0  0  0
  -26.1129  -31.5332   20.6080 H   0  0  0  0  0  0
  -26.8475  -30.8204   22.0131 H   0  0  0  0  0  0
  -28.1296  -28.9530   21.2031 H   0  0  0  0  0  0
  -26.0375  -25.9310   18.9588 H   0  0  0  0  0  0
  -24.0005  -27.2950   18.9904 H   0  0  0  0  0  0
  -23.7799  -30.5745   19.3931 H   0  0  0  0  0  0
  -22.7740  -29.2322   19.8428 H   0  0  0  0  0  0
  -25.1288  -36.1884   25.0809 H   0  0  0  0  0  0
  -20.9990  -28.3306   24.1355 H   0  0  0  0  0  0
  -20.5600  -26.2363   23.3635 H   0  0  0  0  0  0
  -21.6676  -26.7371   22.1252 H   0  0  0  0  0  0
  -19.6970  -25.6309   21.1194 H   0  0  0  0  0  0
  -19.6817  -27.3191   20.6690 H   0  0  0  0  0  0
  -17.4252  -26.6707   21.3940 H   0  0  0  0  0  0
  -18.0342  -26.0089   22.8937 H   0  0  0  0  0  0
  -19.7944  -30.7246   24.2272 H   0  0  0  0  0  0
  -17.5018  -31.6228   24.5232 H   0  0  0  0  0  0
  -15.5350  -30.2957   23.7656 H   0  0  0  0  0  0
  -15.8711  -28.0829   22.6982 H   0  0  0  0  0  0
  -24.5915  -30.7094   25.7794 H   0  0  0  0  0  0
  -24.8944  -32.2936   26.4810 H   0  0  0  0  0  0
  -25.8063  -30.8985   27.0234 H   0  0  0  0  0  0
  -26.2974  -29.6695   24.1209 H   0  0  0  0  0  0
  -27.3994  -29.7229   25.4764 H   0  0  0  0  0  0
  -27.8874  -30.4187   23.9502 H   0  0  0  0  0  0
  -27.2633  -33.3608   26.2052 H   0  0  0  0  0  0
  -28.3881  -32.6895   25.0353 H   0  0  0  0  0  0
  -28.0697  -31.8456   26.5429 H   0  0  0  0  0  0
  -28.2581  -38.0107   24.7478 H   0  0  0  0  0  0
  -28.1077  -36.2620   24.6295 H   0  0  0  0  0  0
  -27.2278  -37.1469   25.8860 H   0  0  0  0  0  0
  -20.9364  -29.8912   21.6942 H   0  0  0  0  0  0
  -26.0140  -38.2822   24.1424 H   0  0  0  0  0  0
  -27.0489  -23.7371   21.9149 H   0  0  0  0  0  0
  -26.2553  -24.3664   20.5005 H   0  0  0  0  0  0
  -26.5505  -25.4060   21.9096 H   0  0  0  0  0  0
  -26.9637  -18.7929   23.4841 H   0  0  0  0  0  0
  -26.0754  -20.3103   23.3962 H   0  0  0  0  0  0
  -27.8383  -20.3192   23.4667 H   0  0  0  0  0  0
  -28.3982  -23.5987   18.9862 H   0  0  0  0  0  0
  -29.9747  -24.0812   19.5129 H   0  0  0  0  0  0
  -28.9902  -25.1307   21.5609 H   0  0  0  0  0  0
  -29.7599  -21.2987   18.9688 H   0  0  0  0  0  0
  -28.8712  -15.3770   21.2010 H   0  0  0  0  0  0
  1 25  1  0  0  0
  1 30  2  0  0  0
  1 82  1  0  0  0
  2  3  1  0  0  0
  2 25  1  0  0  0
  2 87  1  0  0  0
  2 88  1  0  0  0
  3  4  1  0  0  0
  3 89  1  0  0  0
  3 90  1  0  0  0
  4  5  1  0  0  0
  4 91  1  0  0  0
  4 92  1  0  0  0
  5  6  1  0  0  0
  5 26  1  0  0  0
  5 93  1  0  0  0
  6 25  1  0  0  0
  6 94  1  0  0  0
  6 95  1  0  0  0
  7  8  2  0  0  0
  7 26  1  0  0  0
  7 29  1  0  0  0
  8  9  1  0  0  0
  8 22  1  0  0  0
  9 10  1  0  0  0
  9 27  2  0  0  0
 10 11  2  0  0  0
 10 15  1  0  0  0
 11 12  1  0  0  0
 11 96  1  0  0  0
 12 13  2  0  0  0
 12 97  1  0  0  0
 13 14  1  0  0  0
 13 31  1  0  0  0
 14 15  2  0  0  0
 14 98  1  0  0  0
 15 99  1  0  0  0
 16 17  2  0  0  0
 16 21  1  0  0  0
 16 31  1  0  0  0
 17 18  1  0  0  0
 17100  1  0  0  0
 18 19  2  0  0  0
 18101  1  0  0  0
 19 20  1  0  0  0
 19 24  1  0  0  0
 20 21  2  0  0  0
 20102  1  0  0  0
 21 23  1  0  0  0
 22 28  1  0  0  0
 22 32  2  0  0  0
 26 27  1  0  0  0
 28103  1  0  0  0
 28104  1  0  0  0
 29105  1  0  0  0
 29106  1  0  0  0
 33 34  1  0  0  0
 33 66  1  0  0  0
 33 70  2  0  0  0
 34 36  1  0  0  0
 34 59  1  0  0  0
 34107  1  0  0  0
 35 44  2  0  0  0
 35 45  1  0  0  0
 35 68  1  0  0  0
 36 56  1  0  0  0
 36108  1  0  0  0
 37 39  1  0  0  0
 37 47  1  0  0  0
 37 66  1  0  0  0
 37109  1  0  0  0
 38 43  2  0  0  0
 38 46  1  0  0  0
 38 47  1  0  0  0
 39 64  1  0  0  0
 39 67  2  0  0  0
 40 52  1  0  0  0
 40 53  2  0  0  0
 40 58  1  0  0  0
 41110  1  0  0  0
 41111  1  0  0  0
 41112  1  0  0  0
 41 48  1  0  0  0
 42 43  1  0  0  0
 42 66  1  0  0  0
 42113  1  0  0  0
 42114  1  0  0  0
 43 44  1  0  0  0
 44115  1  0  0  0
 45 46  2  0  0  0
 45116  1  0  0  0
 46117  1  0  0  0
 47118  1  0  0  0
 47119  1  0  0  0
 48 56  1  0  0  0
 48 65  1  0  0  0
 48120  1  0  0  0
 49 50  1  0  0  0
 49 53  1  0  0  0
 49 64  1  0  0  0
 49121  1  0  0  0
 50 51  1  0  0  0
 50122  1  0  0  0
 50123  1  0  0  0
 51 52  1  0  0  0
 51124  1  0  0  0
 51125  1  0  0  0
 52126  1  0  0  0
 52127  1  0  0  0
 53 54  1  0  0  0
 54 55  2  0  0  0
 54128  1  0  0  0
 55 57  1  0  0  0
 55129  1  0  0  0
 56 69  2  0  0  0
 57 58  2  0  0  0
 57130  1  0  0  0
 58131  1  0  0  0
 59 60  1  0  0  0
 59 61  1  0  0  0
 59 62  1  0  0  0
 60132  1  0  0  0
 60133  1  0  0  0
 60134  1  0  0  0
 61135  1  0  0  0
 61136  1  0  0  0
 61137  1  0  0  0
 62138  1  0  0  0
 62139  1  0  0  0
 62140  1  0  0  0
 63 65  1  0  0  0
 63141  1  0  0  0
 63142  1  0  0  0
 63143  1  0  0  0
 64144  1  0  0  0
 65145  1  0  0  0
 68 78  1  0  0  0
 71 72  2  0  0  0
 71 79  1  0  0  0
 71 80  1  0  0  0
 72 81  1  0  0  0
 72 86  1  0  0  0
 73 80  2  0  0  0
 73 82  1  0  0  0
 73 86  1  0  0  0
 74 77  1  0  0  0
 74 81  1  0  0  0
 74 83  2  0  0  0
 75146  1  0  0  0
 75147  1  0  0  0
 75148  1  0  0  0
 75 78  1  0  0  0
 76149  1  0  0  0
 76150  1  0  0  0
 76151  1  0  0  0
 76 79  1  0  0  0
 77 78  1  0  0  0
 77152  1  0  0  0
 77153  1  0  0  0
 78154  1  0  0  0
 79 84  1  0  0  0
 79 85  1  0  0  0
 81155  1  0  0  0
 82156  1  0  0  0
M  ISO  4   1 100  68 101  78 101  82 100
M  END
> <chiral flag>
0

> <version>
0

> <s_m_source_file>
/data/baiqing/PycharmProjects/Reinvent-master-3.2/result/LINK_invent/BTK/process_docking_weight1_custom_product_contain_oxygen_bond_distance_aromatic_linkinvent_7_9_3/rearranged_h_0182.sdf

> <i_m_source_file_index>
8

> <r_mmod_Potential_Energy-OPLS-2005>
96.2595901489258

> <r_mmod_Stretch_Energy-OPLS-2005>
116.291381835938

> <r_mmod_Bend_Energy-OPLS-2005>
204.621063232422

> <r_mmod_Torsional_Energy-OPLS-2005>
237.001815795898

> <r_mmod_Improper_Torsional_Energy-OPLS-2005>
4.21618032455444

> <r_mmod_Van_der_Waal_Energy-OPLS-2005>
118.719688415527

> <r_mmod_Electrostatic_Energy-OPLS-2005>
-444.719055175781

> <r_mmod_Solvation_Energy-OPLS-2005>
-217.172180175781

> <b_mmod_Minimization_Converged-OPLS-2005>
0

> <r_mmod_RMS_Derivative-OPLS-2005>
3.70967507362366

$$$$
8
                    3D
 Structure written by MMmdl.
153161  0  0  1  0            999 V2000
  -30.6591  -14.5464   20.4698 C   0  0  0  0  0  0
  -30.4251  -12.3269   19.4435 C   0  0  0  0  0  0
  -29.4998  -12.4791   18.2167 C   0  0  0  0  0  0
  -28.0215  -12.3363   18.6296 C   0  0  0  0  0  0
  -27.6527  -13.2086   19.8590 C   0  0  2  0  0  0
  -28.6957  -13.0526   20.9898 C   0  0  0  0  0  0
  -25.2570  -13.8161   20.5657 C   0  0  0  0  0  0
  -24.1826  -13.0442   20.9169 C   0  0  0  0  0  0
  -24.6375  -11.6905   20.8725 C   0  0  0  0  0  0
  -23.9041  -10.4296   21.0400 C   0  0  0  0  0  0
  -24.3601   -9.4215   21.9178 C   0  0  0  0  0  0
  -23.6283   -8.2248   22.0752 C   0  0  0  0  0  0
  -22.4266   -8.0284   21.3544 C   0  0  0  0  0  0
  -21.9888   -9.0253   20.4647 C   0  0  0  0  0  0
  -22.7209  -10.2137   20.3056 C   0  0  0  0  0  0
  -21.6855   -6.0731   22.5272 C   0  0  0  0  0  0
  -21.4018   -6.5633   23.8205 C   0  0  0  0  0  0
  -21.3654   -5.6788   24.9168 C   0  0  0  0  0  0
  -21.6042   -4.3050   24.7216 C   0  0  0  0  0  0
  -21.8824   -3.8140   23.4337 C   0  0  0  0  0  0
  -21.9192   -4.6960   22.3393 C   0  0  0  0  0  0
  -22.7853  -13.5249   21.1845 C   0  0  0  0  0  0
  -22.1665   -4.2150   21.0970 F   0  0  0  0  0  0
  -21.5625   -3.4530   25.7724 F   0  0  0  0  0  0
  -30.0197  -13.3460   20.4249 N   0  0  0  0  0  0
  -26.2983  -12.9323   20.3294 N   0  0  0  0  0  0
  -25.9302  -11.6487   20.5744 N   0  0  0  0  0  0
  -22.0492  -12.8252   22.0405 N   0  0  0  0  0  0
  -25.4316  -15.1878   20.4064 N   0  0  0  0  0  0
  -31.8553  -14.6627   20.1916 O   0  0  0  0  0  0
  -21.6642   -6.8876   21.4234 O   0  0  0  0  0  0
  -22.3539  -14.5554   20.6695 O   0  0  0  0  0  0
  -24.6186  -31.8659   23.2081 C   0  0  0  0  0  0
  -25.9069  -32.4808   23.8381 C   0  0  1  0  0  0
  -27.2269  -27.3932   20.0966 C   0  0  0  0  0  0
  -25.5916  -33.8608   24.2317 N   0  0  0  0  0  0
  -23.4064  -30.4914   21.5503 C   0  0  2  0  0  0
  -24.8480  -28.9515   20.1165 C   0  0  0  0  0  0
  -22.7426  -29.4661   22.4982 C   0  0  0  0  0  0
  -18.0277  -28.1378   22.8482 C   0  0  0  0  0  0
  -24.1491  -36.7313   23.2637 C   0  0  0  0  0  0
  -25.9397  -30.8194   21.3659 C   0  0  0  0  0  0
  -26.0123  -29.4512   20.7111 C   0  0  0  0  0  0
  -27.2022  -28.6816   20.6926 C   0  0  0  0  0  0
  -26.0331  -26.9132   19.5080 C   0  0  0  0  0  0
  -24.8557  -27.6839   19.5132 C   0  0  0  0  0  0
  -23.6143  -29.8253   20.1646 C   0  0  0  0  0  0
  -25.4111  -36.3107   24.0335 C   0  0  1  0  0  0
  -20.5866  -28.3675   23.1307 C   0  0  2  0  0  0
  -20.6770  -26.9408   22.5415 C   0  0  0  0  0  0
  -19.5750  -26.6384   21.5210 C   0  0  0  0  0  0
  -18.1926  -26.7924   22.1615 C   0  0  0  0  0  0
  -19.1527  -28.8841   23.2890 C   0  0  0  0  0  0
  -18.9456  -30.1446   23.8908 C   0  0  0  0  0  0
  -17.6455  -30.6582   24.0567 C   0  0  0  0  0  0
  -25.9042  -34.9472   23.5123 C   0  0  0  0  0  0
  -16.5348  -29.9082   23.6322 C   0  0  0  0  0  0
  -16.7268  -28.6501   23.0341 C   0  0  0  0  0  0
  -26.4482  -31.6592   25.0720 C   0  0  0  0  0  0
  -25.3743  -31.3709   26.1467 C   0  0  0  0  0  0
  -27.0308  -30.3025   24.6116 C   0  0  0  0  0  0
  -27.6063  -32.4307   25.7475 C   0  0  0  0  0  0
  -27.5588  -37.1808   24.8460 C   0  0  0  0  0  0
  -21.4151  -29.3038   22.3714 N   0  0  0  0  0  0
  -26.4297  -37.3792   23.9410 N   0  0  0  0  0  0
  -24.6735  -31.0738   22.0994 N   0  0  0  0  0  0
  -23.4187  -28.8201   23.3032 O   0  0  0  0  0  0
  -28.4124  -26.6696   20.1018 O   0  0  0  0  0  0
  -26.5604  -34.8927   22.4684 O   0  0  0  0  0  0
  -23.5376  -32.1430   23.7461 O   0  0  0  0  0  0
  -29.4062  -18.0987   20.5558 C   0  0  0  0  0  0
  -30.2267  -19.4735   18.7168 C   0  0  0  0  0  0
  -29.5122  -19.3815   19.9325 C   0  0  0  0  0  0
  -30.0012  -16.9289   19.9848 C   0  0  0  0  0  0
  -30.7790  -18.3308   18.1185 C   0  0  0  0  0  0
  -30.6493  -17.0686   18.7254 C   0  0  0  0  0  0
  -27.9574  -22.8271   20.6516 C   0  0  0  0  0  0
  -29.1285  -21.8555   20.2711 C   0  0  0  0  0  0
  -28.2678  -24.3130   20.9687 C   0  0  0  0  0  0
  -28.4486  -25.2612   19.7491 C   0  0  0  0  0  0
  -28.8327  -20.5406   20.4586 N   0  0  0  0  0  0
  -29.8605  -15.6349   20.6257 N   0  0  0  0  0  0
  -26.7922  -22.4185   20.7294 O   0  0  0  0  0  0
  -30.2175  -22.2789   19.8680 O   0  0  0  0  0  0
  -31.4123  -18.4421   16.9257 F   0  0  0  0  0  0
  -31.1098  -15.9944   18.0409 F   0  0  0  0  0  0
  -31.4697  -12.4293   19.1427 H   0  0  0  0  0  0
  -30.3347  -11.3302   19.8767 H   0  0  0  0  0  0
  -29.7487  -11.7301   17.4636 H   0  0  0  0  0  0
  -29.6589  -13.4509   17.7468 H   0  0  0  0  0  0
  -27.8463  -11.2844   18.8593 H   0  0  0  0  0  0
  -27.3705  -12.5741   17.7875 H   0  0  0  0  0  0
  -27.6751  -14.2436   19.5176 H   0  0  0  0  0  0
  -28.6810  -12.0376   21.3888 H   0  0  0  0  0  0
  -28.4640  -13.7090   21.8304 H   0  0  0  0  0  0
  -25.2750   -9.5695   22.4747 H   0  0  0  0  0  0
  -23.9996   -7.4639   22.7467 H   0  0  0  0  0  0
  -21.0821   -8.8767   19.8952 H   0  0  0  0  0  0
  -22.3665  -10.9676   19.6167 H   0  0  0  0  0  0
  -21.2026   -7.6146   23.9710 H   0  0  0  0  0  0
  -21.1466   -6.0519   25.9072 H   0  0  0  0  0  0
  -22.0610   -2.7606   23.2836 H   0  0  0  0  0  0
  -22.4100  -11.9913   22.4803 H   0  0  0  0  0  0
  -21.1119  -13.1305   22.2615 H   0  0  0  0  0  0
  -24.6672  -15.8459   20.5122 H   0  0  0  0  0  0
  -26.2804  -15.6203   20.0655 H   0  0  0  0  0  0
  -26.7136  -32.5500   23.1139 H   0  0  0  0  0  0
  -25.0079  -33.9763   25.0471 H   0  0  0  0  0  0
  -22.6965  -31.3097   21.4123 H   0  0  0  0  0  0
  -23.3752  -35.9647   23.3298 H   0  0  0  0  0  0
  -24.3592  -36.8929   22.2053 H   0  0  0  0  0  0
  -23.7244  -37.6516   23.6654 H   0  0  0  0  0  0
  -26.0590  -31.5850   20.5980 H   0  0  0  0  0  0
  -26.8255  -30.8697   21.9873 H   0  0  0  0  0  0
  -28.1033  -29.0692   21.1472 H   0  0  0  0  0  0
  -25.9709  -25.9471   19.0344 H   0  0  0  0  0  0
  -23.9583  -27.2915   19.0545 H   0  0  0  0  0  0
  -23.7278  -30.6014   19.4066 H   0  0  0  0  0  0
  -22.7349  -29.2513   19.8664 H   0  0  0  0  0  0
  -25.1285  -36.1972   25.0827 H   0  0  0  0  0  0
  -20.9956  -28.3247   24.1429 H   0  0  0  0  0  0
  -20.5668  -26.2288   23.3608 H   0  0  0  0  0  0
  -21.6645  -26.7444   22.1219 H   0  0  0  0  0  0
  -19.6915  -25.6297   21.1236 H   0  0  0  0  0  0
  -19.6687  -27.3199   20.6743 H   0  0  0  0  0  0
  -17.4199  -26.6673   21.4013 H   0  0  0  0  0  0
  -18.0319  -26.0061   22.9005 H   0  0  0  0  0  0
  -19.7934  -30.7255   24.2280 H   0  0  0  0  0  0
  -17.5015  -31.6259   24.5168 H   0  0  0  0  0  0
  -15.5350  -30.2988   23.7641 H   0  0  0  0  0  0
  -15.8669  -28.0827   22.7046 H   0  0  0  0  0  0
  -24.5911  -30.7059   25.7806 H   0  0  0  0  0  0
  -24.8942  -32.2871   26.4916 H   0  0  0  0  0  0
  -25.8092  -30.8875   27.0224 H   0  0  0  0  0  0
  -26.2854  -29.6782   24.1175 H   0  0  0  0  0  0
  -27.4071  -29.7265   25.4581 H   0  0  0  0  0  0
  -27.8695  -30.4330   23.9273 H   0  0  0  0  0  0
  -27.2690  -33.3594   26.2089 H   0  0  0  0  0  0
  -28.3848  -32.6886   25.0282 H   0  0  0  0  0  0
  -28.0759  -31.8408   26.5357 H   0  0  0  0  0  0
  -28.2602  -38.0109   24.7522 H   0  0  0  0  0  0
  -28.1086  -36.2644   24.6261 H   0  0  0  0  0  0
  -27.2314  -37.1430   25.8865 H   0  0  0  0  0  0
  -20.9318  -29.8769   21.6941 H   0  0  0  0  0  0
  -26.0185  -38.2871   24.1410 H   0  0  0  0  0  0
  -28.8571  -18.0112   21.4830 H   0  0  0  0  0  0
  -30.3213  -20.4121   18.1913 H   0  0  0  0  0  0
  -29.1519  -24.3556   21.6036 H   0  0  0  0  0  0
  -27.4422  -24.6819   21.5757 H   0  0  0  0  0  0
  -27.7833  -25.0015   18.9284 H   0  0  0  0  0  0
  -29.4437  -25.0831   19.3405 H   0  0  0  0  0  0
  -27.9564  -20.3820   20.9410 H   0  0  0  0  0  0
  -28.9661  -15.4530   21.0532 H   0  0  0  0  0  0
  1 25  1  0  0  0
  1 30  2  0  0  0
  1 82  1  0  0  0
  2  3  1  0  0  0
  2 25  1  0  0  0
  2 87  1  0  0  0
  2 88  1  0  0  0
  3  4  1  0  0  0
  3 89  1  0  0  0
  3 90  1  0  0  0
  4  5  1  0  0  0
  4 91  1  0  0  0
  4 92  1  0  0  0
  5  6  1  0  0  0
  5 26  1  0  0  0
  5 93  1  0  0  0
  6 25  1  0  0  0
  6 94  1  0  0  0
  6 95  1  0  0  0
  7  8  2  0  0  0
  7 26  1  0  0  0
  7 29  1  0  0  0
  8  9  1  0  0  0
  8 22  1  0  0  0
  9 10  1  0  0  0
  9 27  2  0  0  0
 10 11  2  0  0  0
 10 15  1  0  0  0
 11 12  1  0  0  0
 11 96  1  0  0  0
 12 13  2  0  0  0
 12 97  1  0  0  0
 13 14  1  0  0  0
 13 31  1  0  0  0
 14 15  2  0  0  0
 14 98  1  0  0  0
 15 99  1  0  0  0
 16 17  2  0  0  0
 16 21  1  0  0  0
 16 31  1  0  0  0
 17 18  1  0  0  0
 17100  1  0  0  0
 18 19  2  0  0  0
 18101  1  0  0  0
 19 20  1  0  0  0
 19 24  1  0  0  0
 20 21  2  0  0  0
 20102  1  0  0  0
 21 23  1  0  0  0
 22 28  1  0  0  0
 22 32  2  0  0  0
 26 27  1  0  0  0
 28103  1  0  0  0
 28104  1  0  0  0
 29105  1  0  0  0
 29106  1  0  0  0
 33 34  1  0  0  0
 33 66  1  0  0  0
 33 70  2  0  0  0
 34 36  1  0  0  0
 34 59  1  0  0  0
 34107  1  0  0  0
 35 44  2  0  0  0
 35 45  1  0  0  0
 35 68  1  0  0  0
 36 56  1  0  0  0
 36108  1  0  0  0
 37 39  1  0  0  0
 37 47  1  0  0  0
 37 66  1  0  0  0
 37109  1  0  0  0
 38 43  2  0  0  0
 38 46  1  0  0  0
 38 47  1  0  0  0
 39 64  1  0  0  0
 39 67  2  0  0  0
 40 52  1  0  0  0
 40 53  2  0  0  0
 40 58  1  0  0  0
 41110  1  0  0  0
 41111  1  0  0  0
 41112  1  0  0  0
 41 48  1  0  0  0
 42 43  1  0  0  0
 42 66  1  0  0  0
 42113  1  0  0  0
 42114  1  0  0  0
 43 44  1  0  0  0
 44115  1  0  0  0
 45 46  2  0  0  0
 45116  1  0  0  0
 46117  1  0  0  0
 47118  1  0  0  0
 47119  1  0  0  0
 48 56  1  0  0  0
 48 65  1  0  0  0
 48120  1  0  0  0
 49 50  1  0  0  0
 49 53  1  0  0  0
 49 64  1  0  0  0
 49121  1  0  0  0
 50 51  1  0  0  0
 50122  1  0  0  0
 50123  1  0  0  0
 51 52  1  0  0  0
 51124  1  0  0  0
 51125  1  0  0  0
 52126  1  0  0  0
 52127  1  0  0  0
 53 54  1  0  0  0
 54 55  2  0  0  0
 54128  1  0  0  0
 55 57  1  0  0  0
 55129  1  0  0  0
 56 69  2  0  0  0
 57 58  2  0  0  0
 57130  1  0  0  0
 58131  1  0  0  0
 59 60  1  0  0  0
 59 61  1  0  0  0
 59 62  1  0  0  0
 60132  1  0  0  0
 60133  1  0  0  0
 60134  1  0  0  0
 61135  1  0  0  0
 61136  1  0  0  0
 61137  1  0  0  0
 62138  1  0  0  0
 62139  1  0  0  0
 62140  1  0  0  0
 63 65  1  0  0  0
 63141  1  0  0  0
 63142  1  0  0  0
 63143  1  0  0  0
 64144  1  0  0  0
 65145  1  0  0  0
 68 80  1  0  0  0
 71 73  2  0  0  0
 71 74  1  0  0  0
 71146  1  0  0  0
 72 73  1  0  0  0
 72 75  2  0  0  0
 72147  1  0  0  0
 73 81  1  0  0  0
 74 76  2  0  0  0
 74 82  1  0  0  0
 75 76  1  0  0  0
 75 85  1  0  0  0
 76 86  1  0  0  0
 77 78  1  0  0  0
 77 79  1  0  0  0
 77 83  2  0  0  0
 78 81  1  0  0  0
 78 84  2  0  0  0
 79 80  1  0  0  0
 79148  1  0  0  0
 79149  1  0  0  0
 80150  1  0  0  0
 80151  1  0  0  0
 81152  1  0  0  0
 82153  1  0  0  0
M  ISO  4   1 100  68 101  80 101  82 100
M  END
> <chiral flag>
0

> <version>
0

> <s_m_source_file>
/data/baiqing/PycharmProjects/Reinvent-master-3.2/result/LINK_invent/BTK/process_docking_weight1_custom_product_contain_oxygen_bond_distance_aromatic_linkinvent_7_9_3/rearranged_h_0182.sdf

> <i_m_source_file_index>
9

> <r_mmod_Potential_Energy-OPLS-2005>
3.89940619468689

> <r_mmod_Stretch_Energy-OPLS-2005>
51.0471229553223

> <r_mmod_Bend_Energy-OPLS-2005>
112.798805236816

> <r_mmod_Torsional_Energy-OPLS-2005>
252.367935180664

> <r_mmod_Improper_Torsional_Energy-OPLS-2005>
6.3307056427002

> <r_mmod_Van_der_Waal_Energy-OPLS-2005>
156.33349609375

> <r_mmod_Electrostatic_Energy-OPLS-2005>
-364.07470703125

> <r_mmod_Solvation_Energy-OPLS-2005>
-237.191635131836

> <b_mmod_Minimization_Converged-OPLS-2005>
0

> <r_mmod_RMS_Derivative-OPLS-2005>
1.13605487346649

$$$$
9
                    3D
 Structure written by MMmdl.
153161  0  0  1  0            999 V2000
  -30.5949  -14.7166   20.4840 C   0  0  0  0  0  0
  -30.4431  -12.4375   19.4699 C   0  0  0  0  0  0
  -29.5134  -12.5104   18.2368 C   0  0  0  0  0  0
  -28.0378  -12.3394   18.6472 C   0  0  0  0  0  0
  -27.6510  -13.2229   19.8625 C   0  0  2  0  0  0
  -28.6948  -13.1103   20.9965 C   0  0  0  0  0  0
  -25.2552  -13.8182   20.5697 C   0  0  0  0  0  0
  -24.1824  -13.0437   20.9194 C   0  0  0  0  0  0
  -24.6399  -11.6907   20.8743 C   0  0  0  0  0  0
  -23.9072  -10.4287   21.0403 C   0  0  0  0  0  0
  -24.3621   -9.4202   21.9182 C   0  0  0  0  0  0
  -23.6289   -8.2243   22.0760 C   0  0  0  0  0  0
  -22.4273   -8.0280   21.3545 C   0  0  0  0  0  0
  -21.9908   -9.0256   20.4651 C   0  0  0  0  0  0
  -22.7242  -10.2132   20.3053 C   0  0  0  0  0  0
  -21.6850   -6.0733   22.5270 C   0  0  0  0  0  0
  -21.4015   -6.5637   23.8206 C   0  0  0  0  0  0
  -21.3658   -5.6791   24.9168 C   0  0  0  0  0  0
  -21.6042   -4.3054   24.7216 C   0  0  0  0  0  0
  -21.8822   -3.8142   23.4341 C   0  0  0  0  0  0
  -21.9193   -4.6961   22.3395 C   0  0  0  0  0  0
  -22.7846  -13.5227   21.1850 C   0  0  0  0  0  0
  -22.1660   -4.2146   21.0972 F   0  0  0  0  0  0
  -21.5631   -3.4539   25.7731 F   0  0  0  0  0  0
  -30.0033  -13.4735   20.4328 N   0  0  0  0  0  0
  -26.2980  -12.9371   20.3321 N   0  0  0  0  0  0
  -25.9330  -11.6519   20.5763 N   0  0  0  0  0  0
  -22.0489  -12.8220   22.0411 N   0  0  0  0  0  0
  -25.4262  -15.1910   20.4121 N   0  0  0  0  0  0
  -31.7554  -14.8645   20.0855 O   0  0  0  0  0  0
  -21.6638   -6.8875   21.4233 O   0  0  0  0  0  0
  -22.3529  -14.5524   20.6692 O   0  0  0  0  0  0
  -24.6297  -31.8560   23.1999 C   0  0  0  0  0  0
  -25.9127  -32.4760   23.8341 C   0  0  1  0  0  0
  -27.2131  -27.2672   20.1267 C   0  0  0  0  0  0
  -25.5928  -33.8562   24.2255 N   0  0  0  0  0  0
  -23.4261  -30.4807   21.5420 C   0  0  2  0  0  0
  -24.8715  -28.9332   20.1054 C   0  0  0  0  0  0
  -22.7494  -29.4608   22.4899 C   0  0  0  0  0  0
  -18.0298  -28.1395   22.8495 C   0  0  0  0  0  0
  -24.1485  -36.7277   23.2643 C   0  0  0  0  0  0
  -25.9720  -30.7675   21.3837 C   0  0  0  0  0  0
  -26.0408  -29.3925   20.7239 C   0  0  0  0  0  0
  -27.2107  -28.5700   20.7289 C   0  0  0  0  0  0
  -26.0281  -26.8880   19.4545 C   0  0  0  0  0  0
  -24.8707  -27.6888   19.4600 C   0  0  0  0  0  0
  -23.6423  -29.8182   20.1564 C   0  0  0  0  0  0
  -25.4109  -36.3074   24.0331 C   0  0  1  0  0  0
  -20.5902  -28.3698   23.1272 C   0  0  2  0  0  0
  -20.6784  -26.9415   22.5412 C   0  0  0  0  0  0
  -19.5756  -26.6381   21.5228 C   0  0  0  0  0  0
  -18.1934  -26.7943   22.1628 C   0  0  0  0  0  0
  -19.1552  -28.8864   23.2884 C   0  0  0  0  0  0
  -18.9473  -30.1465   23.8898 C   0  0  0  0  0  0
  -17.6473  -30.6597   24.0566 C   0  0  0  0  0  0
  -25.9054  -34.9446   23.5100 C   0  0  0  0  0  0
  -16.5362  -29.9093   23.6332 C   0  0  0  0  0  0
  -16.7282  -28.6508   23.0363 C   0  0  0  0  0  0
  -26.4495  -31.6594   25.0733 C   0  0  0  0  0  0
  -25.3710  -31.3758   26.1451 C   0  0  0  0  0  0
  -27.0358  -30.3015   24.6232 C   0  0  0  0  0  0
  -27.6041  -32.4345   25.7501 C   0  0  0  0  0  0
  -27.5575  -37.1793   24.8467 C   0  0  0  0  0  0
  -21.4202  -29.3053   22.3654 N   0  0  0  0  0  0
  -26.4283  -37.3773   23.9411 N   0  0  0  0  0  0
  -24.6946  -31.0534   22.0973 N   0  0  0  0  0  0
  -23.4206  -28.8146   23.2988 O   0  0  0  0  0  0
  -28.3097  -26.3791   20.2188 O   0  0  0  0  0  0
  -26.5626  -34.8925   22.4672 O   0  0  0  0  0  0
  -23.5446  -32.1384   23.7286 O   0  0  0  0  0  0
  -30.2953  -19.2709   19.6197 C   0  0  0  0  0  0
  -29.4814  -19.8320   20.5964 C   0  0  0  0  0  0
  -29.8515  -17.2380   20.6601 C   0  0  0  0  0  0
  -29.0765  -22.3044   20.0969 C   0  0  0  0  0  0
  -30.3963  -24.2875   20.9352 C   0  0  0  0  0  0
  -28.2724  -23.6736   22.1257 C   0  0  0  0  0  0
  -28.1642  -24.9148   19.8972 C   0  0  0  0  0  0
  -28.9545  -23.7805   20.7439 C   0  0  0  0  0  0
  -30.4970  -17.8577   19.6572 N   0  0  0  0  0  0
  -29.1657  -21.1716   20.8864 N   0  0  0  0  0  0
  -29.8040  -15.7754   20.8869 N   0  0  0  0  0  0
  -29.0874  -22.2077   18.8695 O   0  0  0  0  0  0
  -30.9080  -19.9994   18.7152 F   0  0  0  0  0  0
  -28.9350  -18.4634   21.6115 S   0  0  0  0  0  0
  -31.4815  -12.5734   19.1634 H   0  0  0  0  0  0
  -30.3978  -11.4494   19.9302 H   0  0  0  0  0  0
  -29.7902  -11.7437   17.5122 H   0  0  0  0  0  0
  -29.6449  -13.4693   17.7324 H   0  0  0  0  0  0
  -27.8851  -11.2879   18.8931 H   0  0  0  0  0  0
  -27.3819  -12.5512   17.8020 H   0  0  0  0  0  0
  -27.6592  -14.2531   19.5050 H   0  0  0  0  0  0
  -28.7247  -12.0942   21.3924 H   0  0  0  0  0  0
  -28.4266  -13.7498   21.8386 H   0  0  0  0  0  0
  -25.2769   -9.5676   22.4751 H   0  0  0  0  0  0
  -23.9992   -7.4637   22.7485 H   0  0  0  0  0  0
  -21.0836   -8.8771   19.8960 H   0  0  0  0  0  0
  -22.3698  -10.9668   19.6158 H   0  0  0  0  0  0
  -21.2006   -7.6146   23.9702 H   0  0  0  0  0  0
  -21.1479   -6.0525   25.9069 H   0  0  0  0  0  0
  -22.0604   -2.7604   23.2837 H   0  0  0  0  0  0
  -22.4099  -11.9874   22.4788 H   0  0  0  0  0  0
  -21.1115  -13.1259   22.2628 H   0  0  0  0  0  0
  -24.6589  -15.8448   20.5249 H   0  0  0  0  0  0
  -26.2667  -15.6278   20.0564 H   0  0  0  0  0  0
  -26.7187  -32.5407   23.1077 H   0  0  0  0  0  0
  -25.0098  -33.9710   25.0416 H   0  0  0  0  0  0
  -22.7236  -31.3037   21.3978 H   0  0  0  0  0  0
  -23.3764  -35.9595   23.3306 H   0  0  0  0  0  0
  -24.3573  -36.8895   22.2058 H   0  0  0  0  0  0
  -23.7222  -37.6471   23.6663 H   0  0  0  0  0  0
  -26.1176  -31.5284   20.6160 H   0  0  0  0  0  0
  -26.8486  -30.8112   22.0188 H   0  0  0  0  0  0
  -28.1008  -28.9127   21.2375 H   0  0  0  0  0  0
  -25.9571  -25.9552   18.9184 H   0  0  0  0  0  0
  -23.9800  -27.3389   18.9565 H   0  0  0  0  0  0
  -23.7638  -30.5961   19.4020 H   0  0  0  0  0  0
  -22.7609  -29.2509   19.8511 H   0  0  0  0  0  0
  -25.1295  -36.1914   25.0821 H   0  0  0  0  0  0
  -20.9998  -28.3280   24.1388 H   0  0  0  0  0  0
  -20.5697  -26.2313   23.3620 H   0  0  0  0  0  0
  -21.6647  -26.7448   22.1188 H   0  0  0  0  0  0
  -19.6918  -25.6291   21.1260 H   0  0  0  0  0  0
  -19.6690  -27.3186   20.6755 H   0  0  0  0  0  0
  -17.4203  -26.6706   21.4021 H   0  0  0  0  0  0
  -18.0312  -26.0088   22.9020 H   0  0  0  0  0  0
  -19.7953  -30.7286   24.2250 H   0  0  0  0  0  0
  -17.5033  -31.6277   24.5171 H   0  0  0  0  0  0
  -15.5365  -30.3006   23.7670 H   0  0  0  0  0  0
  -15.8678  -28.0831   22.7081 H   0  0  0  0  0  0
  -24.5883  -30.7108   25.7785 H   0  0  0  0  0  0
  -24.8905  -32.2941   26.4838 H   0  0  0  0  0  0
  -25.8021  -30.8961   27.0250 H   0  0  0  0  0  0
  -26.2958  -29.6753   24.1241 H   0  0  0  0  0  0
  -27.4042  -29.7274   25.4744 H   0  0  0  0  0  0
  -27.8830  -30.4306   23.9495 H   0  0  0  0  0  0
  -27.2639  -33.3656   26.2044 H   0  0  0  0  0  0
  -28.3871  -32.6887   25.0345 H   0  0  0  0  0  0
  -28.0696  -31.8498   26.5446 H   0  0  0  0  0  0
  -28.2596  -38.0090   24.7524 H   0  0  0  0  0  0
  -28.1081  -36.2626   24.6290 H   0  0  0  0  0  0
  -27.2303  -37.1427   25.8875 H   0  0  0  0  0  0
  -20.9373  -29.8779   21.6871 H   0  0  0  0  0  0
  -26.0173  -38.2851   24.1421 H   0  0  0  0  0  0
  -31.0051  -23.5767   21.4957 H   0  0  0  0  0  0
  -30.4126  -25.2300   21.4841 H   0  0  0  0  0  0
  -30.8851  -24.4587   19.9749 H   0  0  0  0  0  0
  -28.8411  -23.0592   22.8235 H   0  0  0  0  0  0
  -27.2714  -23.2470   22.0442 H   0  0  0  0  0  0
  -28.1639  -24.6561   22.5856 H   0  0  0  0  0  0
  -27.1207  -24.6157   19.9703 H   0  0  0  0  0  0
  -28.4219  -24.8115   18.8422 H   0  0  0  0  0  0
  -28.9883  -21.3563   21.8636 H   0  0  0  0  0  0
  -28.9696  -15.4712   21.3632 H   0  0  0  0  0  0
  1 25  1  0  0  0
  1 30  2  0  0  0
  1 81  1  0  0  0
  2  3  1  0  0  0
  2 25  1  0  0  0
  2 85  1  0  0  0
  2 86  1  0  0  0
  3  4  1  0  0  0
  3 87  1  0  0  0
  3 88  1  0  0  0
  4  5  1  0  0  0
  4 89  1  0  0  0
  4 90  1  0  0  0
  5  6  1  0  0  0
  5 26  1  0  0  0
  5 91  1  0  0  0
  6 25  1  0  0  0
  6 92  1  0  0  0
  6 93  1  0  0  0
  7  8  2  0  0  0
  7 26  1  0  0  0
  7 29  1  0  0  0
  8  9  1  0  0  0
  8 22  1  0  0  0
  9 10  1  0  0  0
  9 27  2  0  0  0
 10 11  2  0  0  0
 10 15  1  0  0  0
 11 12  1  0  0  0
 11 94  1  0  0  0
 12 13  2  0  0  0
 12 95  1  0  0  0
 13 14  1  0  0  0
 13 31  1  0  0  0
 14 15  2  0  0  0
 14 96  1  0  0  0
 15 97  1  0  0  0
 16 17  2  0  0  0
 16 21  1  0  0  0
 16 31  1  0  0  0
 17 18  1  0  0  0
 17 98  1  0  0  0
 18 19  2  0  0  0
 18 99  1  0  0  0
 19 20  1  0  0  0
 19 24  1  0  0  0
 20 21  2  0  0  0
 20100  1  0  0  0
 21 23  1  0  0  0
 22 28  1  0  0  0
 22 32  2  0  0  0
 26 27  1  0  0  0
 28101  1  0  0  0
 28102  1  0  0  0
 29103  1  0  0  0
 29104  1  0  0  0
 33 34  1  0  0  0
 33 66  1  0  0  0
 33 70  2  0  0  0
 34 36  1  0  0  0
 34 59  1  0  0  0
 34105  1  0  0  0
 35 44  2  0  0  0
 35 45  1  0  0  0
 35 68  1  0  0  0
 36 56  1  0  0  0
 36106  1  0  0  0
 37 39  1  0  0  0
 37 47  1  0  0  0
 37 66  1  0  0  0
 37107  1  0  0  0
 38 43  2  0  0  0
 38 46  1  0  0  0
 38 47  1  0  0  0
 39 64  1  0  0  0
 39 67  2  0  0  0
 40 52  1  0  0  0
 40 53  2  0  0  0
 40 58  1  0  0  0
 41108  1  0  0  0
 41109  1  0  0  0
 41110  1  0  0  0
 41 48  1  0  0  0
 42 43  1  0  0  0
 42 66  1  0  0  0
 42111  1  0  0  0
 42112  1  0  0  0
 43 44  1  0  0  0
 44113  1  0  0  0
 45 46  2  0  0  0
 45114  1  0  0  0
 46115  1  0  0  0
 47116  1  0  0  0
 47117  1  0  0  0
 48 56  1  0  0  0
 48 65  1  0  0  0
 48118  1  0  0  0
 49 50  1  0  0  0
 49 53  1  0  0  0
 49 64  1  0  0  0
 49119  1  0  0  0
 50 51  1  0  0  0
 50120  1  0  0  0
 50121  1  0  0  0
 51 52  1  0  0  0
 51122  1  0  0  0
 51123  1  0  0  0
 52124  1  0  0  0
 52125  1  0  0  0
 53 54  1  0  0  0
 54 55  2  0  0  0
 54126  1  0  0  0
 55 57  1  0  0  0
 55127  1  0  0  0
 56 69  2  0  0  0
 57 58  2  0  0  0
 57128  1  0  0  0
 58129  1  0  0  0
 59 60  1  0  0  0
 59 61  1  0  0  0
 59 62  1  0  0  0
 60130  1  0  0  0
 60131  1  0  0  0
 60132  1  0  0  0
 61133  1  0  0  0
 61134  1  0  0  0
 61135  1  0  0  0
 62136  1  0  0  0
 62137  1  0  0  0
 62138  1  0  0  0
 63 65  1  0  0  0
 63139  1  0  0  0
 63140  1  0  0  0
 63141  1  0  0  0
 64142  1  0  0  0
 65143  1  0  0  0
 68 77  1  0  0  0
 71 72  2  0  0  0
 71 79  1  0  0  0
 71 83  1  0  0  0
 72 80  1  0  0  0
 72 84  1  0  0  0
 73 79  2  0  0  0
 73 81  1  0  0  0
 73 84  1  0  0  0
 74 78  1  0  0  0
 74 80  1  0  0  0
 74 82  2  0  0  0
 75144  1  0  0  0
 75145  1  0  0  0
 75146  1  0  0  0
 75 78  1  0  0  0
 76 78  1  0  0  0
 76147  1  0  0  0
 76148  1  0  0  0
 76149  1  0  0  0
 77 78  1  0  0  0
 77150  1  0  0  0
 77151  1  0  0  0
 80152  1  0  0  0
 81153  1  0  0  0
M  ISO  4   1 100  68 101  77 101  81 100
M  END
> <chiral flag>
0

> <version>
0

> <s_m_source_file>
/data/baiqing/PycharmProjects/Reinvent-master-3.2/result/LINK_invent/BTK/process_docking_weight1_custom_product_contain_oxygen_bond_distance_aromatic_linkinvent_7_9_3/rearranged_h_0182.sdf

> <i_m_source_file_index>
10

> <r_mmod_Potential_Energy-OPLS-2005>
51.2226829528809

> <r_mmod_Stretch_Energy-OPLS-2005>
108.57625579834

> <r_mmod_Bend_Energy-OPLS-2005>
168.105270385742

> <r_mmod_Torsional_Energy-OPLS-2005>
245.283218383789

> <r_mmod_Improper_Torsional_Energy-OPLS-2005>
3.4321391582489

> <r_mmod_Van_der_Waal_Energy-OPLS-2005>
123.481460571289

> <r_mmod_Electrostatic_Energy-OPLS-2005>
-428.752685546875

> <r_mmod_Solvation_Energy-OPLS-2005>
-246.082092285156

> <b_mmod_Minimization_Converged-OPLS-2005>
0

> <r_mmod_RMS_Derivative-OPLS-2005>
1.31263637542725

$$$$
10
                    3D
 Structure written by MMmdl.
154162  0  0  1  0            999 V2000
  -30.7089  -14.5397   20.5665 C   0  0  0  0  0  0
  -30.4200  -12.3524   19.4406 C   0  0  0  0  0  0
  -29.4959  -12.4962   18.2160 C   0  0  0  0  0  0
  -28.0218  -12.3332   18.6334 C   0  0  0  0  0  0
  -27.6490  -13.2072   19.8597 C   0  0  2  0  0  0
  -28.6918  -13.0645   20.9900 C   0  0  0  0  0  0
  -25.2548  -13.8159   20.5678 C   0  0  0  0  0  0
  -24.1807  -13.0437   20.9188 C   0  0  0  0  0  0
  -24.6361  -11.6899   20.8734 C   0  0  0  0  0  0
  -23.9031  -10.4282   21.0401 C   0  0  0  0  0  0
  -24.3588   -9.4201   21.9177 C   0  0  0  0  0  0
  -23.6273   -8.2231   22.0741 C   0  0  0  0  0  0
  -22.4258   -8.0264   21.3529 C   0  0  0  0  0  0
  -21.9888   -9.0239   20.4633 C   0  0  0  0  0  0
  -22.7205  -10.2126   20.3049 C   0  0  0  0  0  0
  -21.6854   -6.0716   22.5274 C   0  0  0  0  0  0
  -21.4005   -6.5623   23.8203 C   0  0  0  0  0  0
  -21.3663   -5.6781   24.9169 C   0  0  0  0  0  0
  -21.6053   -4.3042   24.7223 C   0  0  0  0  0  0
  -21.8821   -3.8127   23.4345 C   0  0  0  0  0  0
  -21.9193   -4.6943   22.3399 C   0  0  0  0  0  0
  -22.7837  -13.5240   21.1852 C   0  0  0  0  0  0
  -22.1663   -4.2131   21.0975 F   0  0  0  0  0  0
  -21.5638   -3.4528   25.7737 F   0  0  0  0  0  0
  -30.0125  -13.3714   20.4239 N   0  0  0  0  0  0
  -26.2955  -12.9312   20.3306 N   0  0  0  0  0  0
  -25.9278  -11.6477   20.5732 N   0  0  0  0  0  0
  -22.0471  -12.8232   22.0407 N   0  0  0  0  0  0
  -25.4327  -15.1872   20.4080 N   0  0  0  0  0  0
  -31.8549  -14.6649   20.1320 O   0  0  0  0  0  0
  -21.6628   -6.8859   21.4233 O   0  0  0  0  0  0
  -22.3520  -14.5543   20.6696 O   0  0  0  0  0  0
  -24.6195  -31.8650   23.2078 C   0  0  0  0  0  0
  -25.9087  -32.4799   23.8378 C   0  0  1  0  0  0
  -27.2251  -27.3898   20.1144 C   0  0  0  0  0  0
  -25.5940  -33.8595   24.2313 N   0  0  0  0  0  0
  -23.4093  -30.4903   21.5465 C   0  0  2  0  0  0
  -24.8569  -28.9502   20.1178 C   0  0  0  0  0  0
  -22.7442  -29.4654   22.4949 C   0  0  0  0  0  0
  -18.0286  -28.1377   22.8500 C   0  0  0  0  0  0
  -24.1486  -36.7304   23.2631 C   0  0  0  0  0  0
  -25.9420  -30.8186   21.3669 C   0  0  0  0  0  0
  -26.0193  -29.4477   20.7198 C   0  0  0  0  0  0
  -27.2105  -28.6759   20.7153 C   0  0  0  0  0  0
  -26.0519  -26.9299   19.4865 C   0  0  0  0  0  0
  -24.8691  -27.6908   19.4958 C   0  0  0  0  0  0
  -23.6212  -29.8224   20.1627 C   0  0  0  0  0  0
  -25.4112  -36.3095   24.0325 C   0  0  1  0  0  0
  -20.5887  -28.3676   23.1299 C   0  0  2  0  0  0
  -20.6781  -26.9406   22.5415 C   0  0  0  0  0  0
  -19.5745  -26.6386   21.5223 C   0  0  0  0  0  0
  -18.1927  -26.7924   22.1635 C   0  0  0  0  0  0
  -19.1540  -28.8846   23.2898 C   0  0  0  0  0  0
  -18.9457  -30.1455   23.8903 C   0  0  0  0  0  0
  -17.6455  -30.6582   24.0569 C   0  0  0  0  0  0
  -25.9042  -34.9455   23.5108 C   0  0  0  0  0  0
  -16.5350  -29.9080   23.6321 C   0  0  0  0  0  0
  -16.7276  -28.6499   23.0346 C   0  0  0  0  0  0
  -26.4498  -31.6585   25.0715 C   0  0  0  0  0  0
  -25.3750  -31.3698   26.1452 C   0  0  0  0  0  0
  -27.0329  -30.3020   24.6120 C   0  0  0  0  0  0
  -27.6071  -32.4307   25.7480 C   0  0  0  0  0  0
  -27.5574  -37.1803   24.8458 C   0  0  0  0  0  0
  -21.4168  -29.3031   22.3689 N   0  0  0  0  0  0
  -26.4289  -37.3789   23.9406 N   0  0  0  0  0  0
  -24.6747  -31.0742   22.0978 N   0  0  0  0  0  0
  -23.4197  -28.8192   23.3011 O   0  0  0  0  0  0
  -28.3623  -26.6010   20.0788 O   0  0  0  0  0  0
  -26.5587  -34.8909   22.4657 O   0  0  0  0  0  0
  -23.5382  -32.1404   23.7461 O   0  0  0  0  0  0
  -29.7194  -18.0265   20.9891 C   0  0  0  0  0  0
  -30.5253  -18.3877   22.0618 C   0  0  0  0  0  0
  -29.3799  -20.3329   21.0197 C   0  0  0  0  0  0
  -29.5368  -16.6158   20.4188 C   0  0  0  0  0  0
  -28.9050  -22.8231   21.0862 C   0  0  0  0  0  0
  -26.7069  -23.6732   20.1041 C   0  0  0  0  0  0
  -28.4031  -25.4408   20.9576 C   0  0  0  0  0  0
  -28.2034  -24.0024   20.3239 C   0  0  1  0  0  0
  -29.0939  -19.1663   20.4100 N   0  0  0  0  0  0
  -31.3561  -17.6064   22.8688 N   0  0  0  0  0  0
  -28.8433  -21.5788   20.5379 N   0  0  0  0  0  0
  -30.0882  -15.6023   21.1274 N   0  0  0  0  0  0
  -28.9051  -16.4331   19.3690 O   0  0  0  0  0  0
  -29.4813  -23.0486   22.1527 O   0  0  0  0  0  0
  -30.4685  -20.1117   22.3870 S   0  0  0  0  0  0
  -31.4638  -12.4516   19.1373 H   0  0  0  0  0  0
  -30.3312  -11.3550   19.8760 H   0  0  0  0  0  0
  -29.7540  -11.7515   17.4619 H   0  0  0  0  0  0
  -29.6455  -13.4723   17.7513 H   0  0  0  0  0  0
  -27.8652  -11.2811   18.8740 H   0  0  0  0  0  0
  -27.3626  -12.5550   17.7935 H   0  0  0  0  0  0
  -27.6643  -14.2374   19.5119 H   0  0  0  0  0  0
  -28.6845  -12.0487   21.3896 H   0  0  0  0  0  0
  -28.4445  -13.7210   21.8257 H   0  0  0  0  0  0
  -25.2737   -9.5690   22.4737 H   0  0  0  0  0  0
  -23.9993   -7.4625   22.7460 H   0  0  0  0  0  0
  -21.0815   -8.8747   19.8940 H   0  0  0  0  0  0
  -22.3657  -10.9654   19.6146 H   0  0  0  0  0  0
  -21.1987   -7.6128   23.9706 H   0  0  0  0  0  0
  -21.1491   -6.0502   25.9077 H   0  0  0  0  0  0
  -22.0601   -2.7588   23.2846 H   0  0  0  0  0  0
  -22.4079  -11.9912   22.4829 H   0  0  0  0  0  0
  -21.1083  -13.1255   22.2596 H   0  0  0  0  0  0
  -24.6724  -15.8510   20.5071 H   0  0  0  0  0  0
  -26.2875  -15.6111   20.0670 H   0  0  0  0  0  0
  -26.7171  -32.5516   23.1153 H   0  0  0  0  0  0
  -25.0148  -33.9736   25.0501 H   0  0  0  0  0  0
  -22.6994  -31.3074   21.4058 H   0  0  0  0  0  0
  -23.3739  -35.9646   23.3299 H   0  0  0  0  0  0
  -24.3565  -36.8911   22.2042 H   0  0  0  0  0  0
  -23.7251  -37.6514   23.6642 H   0  0  0  0  0  0
  -26.0571  -31.5784   20.5932 H   0  0  0  0  0  0
  -26.8291  -30.8756   21.9856 H   0  0  0  0  0  0
  -28.1088  -29.0563   21.1809 H   0  0  0  0  0  0
  -26.0509  -25.9861   18.9690 H   0  0  0  0  0  0
  -23.9809  -27.3080   19.0129 H   0  0  0  0  0  0
  -23.7372  -30.5937   19.4000 H   0  0  0  0  0  0
  -22.7443  -29.2443   19.8650 H   0  0  0  0  0  0
  -25.1291  -36.1947   25.0820 H   0  0  0  0  0  0
  -21.0000  -28.3261   24.1408 H   0  0  0  0  0  0
  -20.5710  -26.2281   23.3611 H   0  0  0  0  0  0
  -21.6643  -26.7438   22.1193 H   0  0  0  0  0  0
  -19.6892  -25.6303   21.1227 H   0  0  0  0  0  0
  -19.6682  -27.3215   20.6773 H   0  0  0  0  0  0
  -17.4206  -26.6705   21.4021 H   0  0  0  0  0  0
  -18.0304  -26.0057   22.9021 H   0  0  0  0  0  0
  -19.7933  -30.7285   24.2257 H   0  0  0  0  0  0
  -17.5002  -31.6254   24.5182 H   0  0  0  0  0  0
  -15.5349  -30.2982   23.7630 H   0  0  0  0  0  0
  -15.8685  -28.0824   22.7036 H   0  0  0  0  0  0
  -24.5941  -30.7024   25.7787 H   0  0  0  0  0  0
  -24.8918  -32.2847   26.4883 H   0  0  0  0  0  0
  -25.8098  -30.8883   27.0220 H   0  0  0  0  0  0
  -26.2874  -29.6780   24.1178 H   0  0  0  0  0  0
  -27.4082  -29.7272   25.4597 H   0  0  0  0  0  0
  -27.8723  -30.4320   23.9286 H   0  0  0  0  0  0
  -27.2697  -33.3608   26.2063 H   0  0  0  0  0  0
  -28.3884  -32.6855   25.0304 H   0  0  0  0  0  0
  -28.0745  -31.8425   26.5389 H   0  0  0  0  0  0
  -28.2598  -38.0097   24.7511 H   0  0  0  0  0  0
  -28.1067  -36.2624   24.6292 H   0  0  0  0  0  0
  -27.2277  -37.1468   25.8856 H   0  0  0  0  0  0
  -20.9338  -29.8758   21.6910 H   0  0  0  0  0  0
  -26.0167  -38.2856   24.1438 H   0  0  0  0  0  0
  -26.4490  -22.6386   20.3289 H   0  0  0  0  0  0
  -26.4208  -23.8368   19.0656 H   0  0  0  0  0  0
  -26.0631  -24.2904   20.7304 H   0  0  0  0  0  0
  -29.3960  -25.4886   21.4045 H   0  0  0  0  0  0
  -27.7158  -25.5800   21.7951 H   0  0  0  0  0  0
  -28.6948  -24.0171   19.3503 H   0  0  0  0  0  0
  -32.2832  -17.4910   22.4650 H   0  0  0  0  0  0
  -31.5147  -18.0476   23.7718 H   0  0  0  0  0  0
  -28.3247  -21.5145   19.6753 H   0  0  0  0  0  0
  -30.6244  -16.0431   21.8697 H   0  0  0  0  0  0
  1 25  1  0  0  0
  1 30  2  0  0  0
  1 82  1  0  0  0
  2  3  1  0  0  0
  2 25  1  0  0  0
  2 86  1  0  0  0
  2 87  1  0  0  0
  3  4  1  0  0  0
  3 88  1  0  0  0
  3 89  1  0  0  0
  4  5  1  0  0  0
  4 90  1  0  0  0
  4 91  1  0  0  0
  5  6  1  0  0  0
  5 26  1  0  0  0
  5 92  1  0  0  0
  6 25  1  0  0  0
  6 93  1  0  0  0
  6 94  1  0  0  0
  7  8  2  0  0  0
  7 26  1  0  0  0
  7 29  1  0  0  0
  8  9  1  0  0  0
  8 22  1  0  0  0
  9 10  1  0  0  0
  9 27  2  0  0  0
 10 11  2  0  0  0
 10 15  1  0  0  0
 11 12  1  0  0  0
 11 95  1  0  0  0
 12 13  2  0  0  0
 12 96  1  0  0  0
 13 14  1  0  0  0
 13 31  1  0  0  0
 14 15  2  0  0  0
 14 97  1  0  0  0
 15 98  1  0  0  0
 16 17  2  0  0  0
 16 21  1  0  0  0
 16 31  1  0  0  0
 17 18  1  0  0  0
 17 99  1  0  0  0
 18 19  2  0  0  0
 18100  1  0  0  0
 19 20  1  0  0  0
 19 24  1  0  0  0
 20 21  2  0  0  0
 20101  1  0  0  0
 21 23  1  0  0  0
 22 28  1  0  0  0
 22 32  2  0  0  0
 26 27  1  0  0  0
 28102  1  0  0  0
 28103  1  0  0  0
 29104  1  0  0  0
 29105  1  0  0  0
 33 34  1  0  0  0
 33 66  1  0  0  0
 33 70  2  0  0  0
 34 36  1  0  0  0
 34 59  1  0  0  0
 34106  1  0  0  0
 35 44  2  0  0  0
 35 45  1  0  0  0
 35 68  1  0  0  0
 36 56  1  0  0  0
 36107  1  0  0  0
 37 39  1  0  0  0
 37 47  1  0  0  0
 37 66  1  0  0  0
 37108  1  0  0  0
 38 43  2  0  0  0
 38 46  1  0  0  0
 38 47  1  0  0  0
 39 64  1  0  0  0
 39 67  2  0  0  0
 40 52  1  0  0  0
 40 53  2  0  0  0
 40 58  1  0  0  0
 41109  1  0  0  0
 41110  1  0  0  0
 41111  1  0  0  0
 41 48  1  0  0  0
 42 43  1  0  0  0
 42 66  1  0  0  0
 42112  1  0  0  0
 42113  1  0  0  0
 43 44  1  0  0  0
 44114  1  0  0  0
 45 46  2  0  0  0
 45115  1  0  0  0
 46116  1  0  0  0
 47117  1  0  0  0
 47118  1  0  0  0
 48 56  1  0  0  0
 48 65  1  0  0  0
 48119  1  0  0  0
 49 50  1  0  0  0
 49 53  1  0  0  0
 49 64  1  0  0  0
 49120  1  0  0  0
 50 51  1  0  0  0
 50121  1  0  0  0
 50122  1  0  0  0
 51 52  1  0  0  0
 51123  1  0  0  0
 51124  1  0  0  0
 52125  1  0  0  0
 52126  1  0  0  0
 53 54  1  0  0  0
 54 55  2  0  0  0
 54127  1  0  0  0
 55 57  1  0  0  0
 55128  1  0  0  0
 56 69  2  0  0  0
 57 58  2  0  0  0
 57129  1  0  0  0
 58130  1  0  0  0
 59 60  1  0  0  0
 59 61  1  0  0  0
 59 62  1  0  0  0
 60131  1  0  0  0
 60132  1  0  0  0
 60133  1  0  0  0
 61134  1  0  0  0
 61135  1  0  0  0
 61136  1  0  0  0
 62137  1  0  0  0
 62138  1  0  0  0
 62139  1  0  0  0
 63 65  1  0  0  0
 63140  1  0  0  0
 63141  1  0  0  0
 63142  1  0  0  0
 64143  1  0  0  0
 65144  1  0  0  0
 68 77  1  0  0  0
 71 72  2  0  0  0
 71 74  1  0  0  0
 71 79  1  0  0  0
 72 80  1  0  0  0
 72 85  1  0  0  0
 73 79  2  0  0  0
 73 81  1  0  0  0
 73 85  1  0  0  0
 74 82  1  0  0  0
 74 83  2  0  0  0
 75 78  1  0  0  0
 75 81  1  0  0  0
 75 84  2  0  0  0
 76145  1  0  0  0
 76146  1  0  0  0
 76147  1  0  0  0
 76 78  1  0  0  0
 77 78  1  0  0  0
 77148  1  0  0  0
 77149  1  0  0  0
 78150  1  0  0  0
 80151  1  0  0  0
 80152  1  0  0  0
 81153  1  0  0  0
 82154  1  0  0  0
M  ISO  4   1 100  68 101  77 101  82 100
M  END
> <chiral flag>
0

> <version>
0

> <s_m_source_file>
/data/baiqing/PycharmProjects/Reinvent-master-3.2/result/LINK_invent/BTK/process_docking_weight1_custom_product_contain_oxygen_bond_distance_aromatic_linkinvent_7_9_3/rearranged_h_0182.sdf

> <i_m_source_file_index>
11

> <r_mmod_Potential_Energy-OPLS-2005>
31.9443225860596

> <r_mmod_Stretch_Energy-OPLS-2005>
53.1663284301758

> <r_mmod_Bend_Energy-OPLS-2005>
124.445846557617

> <r_mmod_Torsional_Energy-OPLS-2005>
338.256408691406

> <r_mmod_Improper_Torsional_Energy-OPLS-2005>
13.6236639022827

> <r_mmod_Van_der_Waal_Energy-OPLS-2005>
132.444976806641

> <r_mmod_Electrostatic_Energy-OPLS-2005>
-426.181884765625

> <r_mmod_Solvation_Energy-OPLS-2005>
-227.311462402344

> <b_mmod_Minimization_Converged-OPLS-2005>
0

> <r_mmod_RMS_Derivative-OPLS-2005>
1.82111811637878

$$$$
11
                    3D
 Structure written by MMmdl.
155163  0  0  1  0            999 V2000
  -30.6988  -14.4581   20.5749 C   0  0  0  0  0  0
  -30.4269  -12.2977   19.4181 C   0  0  0  0  0  0
  -29.4960  -12.5074   18.2049 C   0  0  0  0  0  0
  -28.0160  -12.3715   18.6154 C   0  0  0  0  0  0
  -27.6651  -13.2036   19.8779 C   0  0  2  0  0  0
  -28.7063  -12.9654   20.9961 C   0  0  0  0  0  0
  -25.2619  -13.8160   20.5683 C   0  0  0  0  0  0
  -24.1851  -13.0441   20.9150 C   0  0  0  0  0  0
  -24.6396  -11.6904   20.8714 C   0  0  0  0  0  0
  -23.9059  -10.4292   21.0390 C   0  0  0  0  0  0
  -24.3614   -9.4213   21.9172 C   0  0  0  0  0  0
  -23.6290   -8.2248   22.0750 C   0  0  0  0  0  0
  -22.4273   -8.0280   21.3541 C   0  0  0  0  0  0
  -21.9904   -9.0251   20.4646 C   0  0  0  0  0  0
  -22.7228  -10.2131   20.3049 C   0  0  0  0  0  0
  -21.6857   -6.0736   22.5277 C   0  0  0  0  0  0
  -21.4015   -6.5639   23.8211 C   0  0  0  0  0  0
  -21.3662   -5.6791   24.9174 C   0  0  0  0  0  0
  -21.6046   -4.3053   24.7225 C   0  0  0  0  0  0
  -21.8821   -3.8146   23.4346 C   0  0  0  0  0  0
  -21.9193   -4.6962   22.3402 C   0  0  0  0  0  0
  -22.7877  -13.5245   21.1817 C   0  0  0  0  0  0
  -22.1661   -4.2148   21.0979 F   0  0  0  0  0  0
  -21.5630   -3.4536   25.7739 F   0  0  0  0  0  0
  -30.0427  -13.2710   20.4520 N   0  0  0  0  0  0
  -26.3048  -12.9318   20.3376 N   0  0  0  0  0  0
  -25.9324  -11.6479   20.5758 N   0  0  0  0  0  0
  -22.0520  -12.8244   22.0385 N   0  0  0  0  0  0
  -25.4382  -15.1881   20.4153 N   0  0  0  0  0  0
  -31.8249  -14.6425   20.0968 O   0  0  0  0  0  0
  -21.6641   -6.8876   21.4238 O   0  0  0  0  0  0
  -22.3560  -14.5551   20.6670 O   0  0  0  0  0  0
  -24.6150  -31.8696   23.2141 C   0  0  0  0  0  0
  -25.9048  -32.4831   23.8426 C   0  0  1  0  0  0
  -27.2266  -27.4299   20.0813 C   0  0  0  0  0  0
  -25.5905  -33.8629   24.2350 N   0  0  0  0  0  0
  -23.4013  -30.4971   21.5559 C   0  0  2  0  0  0
  -24.8433  -28.9702   20.1150 C   0  0  0  0  0  0
  -22.7411  -29.4670   22.5007 C   0  0  0  0  0  0
  -18.0270  -28.1372   22.8500 C   0  0  0  0  0  0
  -24.1486  -36.7318   23.2636 C   0  0  0  0  0  0
  -25.9336  -30.8317   21.3706 C   0  0  0  0  0  0
  -26.0071  -29.4681   20.7133 C   0  0  0  0  0  0
  -27.1984  -28.7039   20.6989 C   0  0  0  0  0  0
  -26.0384  -26.9612   19.4655 C   0  0  0  0  0  0
  -24.8541  -27.7149   19.4911 C   0  0  0  0  0  0
  -23.6077  -29.8380   20.1683 C   0  0  0  0  0  0
  -25.4105  -36.3117   24.0339 C   0  0  1  0  0  0
  -20.5861  -28.3656   23.1325 C   0  0  2  0  0  0
  -20.6760  -26.9393   22.5419 C   0  0  0  0  0  0
  -19.5737  -26.6382   21.5217 C   0  0  0  0  0  0
  -18.1916  -26.7918   22.1631 C   0  0  0  0  0  0
  -19.1519  -28.8831   23.2909 C   0  0  0  0  0  0
  -18.9446  -30.1439   23.8917 C   0  0  0  0  0  0
  -17.6448  -30.6581   24.0564 C   0  0  0  0  0  0
  -25.9035  -34.9479   23.5138 C   0  0  0  0  0  0
  -16.5340  -29.9080   23.6325 C   0  0  0  0  0  0
  -16.7259  -28.6495   23.0354 C   0  0  0  0  0  0
  -26.4476  -31.6602   25.0749 C   0  0  0  0  0  0
  -25.3748  -31.3699   26.1503 C   0  0  0  0  0  0
  -27.0295  -30.3041   24.6118 C   0  0  0  0  0  0
  -27.6059  -32.4312   25.7507 C   0  0  0  0  0  0
  -27.5584  -37.1811   24.8463 C   0  0  0  0  0  0
  -21.4139  -29.3033   22.3742 N   0  0  0  0  0  0
  -26.4294  -37.3800   23.9412 N   0  0  0  0  0  0
  -24.6683  -31.0799   22.1048 N   0  0  0  0  0  0
  -23.4186  -28.8192   23.3032 O   0  0  0  0  0  0
  -28.3965  -26.6857   20.1051 O   0  0  0  0  0  0
  -26.5595  -34.8923   22.4698 O   0  0  0  0  0  0
  -23.5344  -32.1452   23.7534 O   0  0  0  0  0  0
  -29.6244  -19.3283   19.9747 C   0  0  0  0  0  0
  -30.8621  -18.7931   20.3904 C   0  0  0  0  0  0
  -28.5443  -18.4328   20.0552 C   0  0  0  0  0  0
  -29.8972  -16.7523   20.7957 C   0  0  0  0  0  0
  -29.3452  -23.0071   19.3823 C   0  0  0  0  0  0
  -29.8094  -21.7530   20.1571 C   0  0  0  0  0  0
  -28.3225  -25.3288   19.6250 C   0  0  0  0  0  0
  -29.4967  -24.4034   20.0338 C   0  0  0  0  0  0
  -30.9913  -17.5238   20.8118 N   0  0  0  0  0  0
  -28.6706  -17.1657   20.4759 N   0  0  0  0  0  0
  -32.0365  -19.5303   20.3382 N   0  0  0  0  0  0
  -27.2721  -18.8275   19.6685 N   0  0  0  0  0  0
  -29.9808  -15.4332   21.1635 N   0  0  0  0  0  0
  -28.8839  -22.8918   18.2383 O   0  0  0  0  0  0
  -29.4363  -20.5805   19.4147 O   0  0  0  0  0  0
  -30.6494  -24.9473   19.6386 F   0  0  0  0  0  0
  -29.5047  -24.2851   21.3628 F   0  0  0  0  0  0
  -31.4703  -12.3967   19.1138 H   0  0  0  0  0  0
  -30.3271  -11.2826   19.8065 H   0  0  0  0  0  0
  -29.7322  -11.7871   17.4202 H   0  0  0  0  0  0
  -29.6682  -13.4946   17.7727 H   0  0  0  0  0  0
  -27.8194  -11.3150   18.8019 H   0  0  0  0  0  0
  -27.3685  -12.6570   17.7855 H   0  0  0  0  0  0
  -27.7142  -14.2541   19.5894 H   0  0  0  0  0  0
  -28.6780  -11.9237   21.3197 H   0  0  0  0  0  0
  -28.4646  -13.5464   21.8873 H   0  0  0  0  0  0
  -25.2764   -9.5695   22.4740 H   0  0  0  0  0  0
  -24.0005   -7.4647   22.7473 H   0  0  0  0  0  0
  -21.0835   -8.8760   19.8960 H   0  0  0  0  0  0
  -22.3676  -10.9664   19.6156 H   0  0  0  0  0  0
  -21.2005   -7.6145   23.9714 H   0  0  0  0  0  0
  -21.1485   -6.0520   25.9075 H   0  0  0  0  0  0
  -22.0599   -2.7606   23.2845 H   0  0  0  0  0  0
  -22.4135  -11.9907   22.4779 H   0  0  0  0  0  0
  -21.1138  -13.1277   22.2589 H   0  0  0  0  0  0
  -24.6755  -15.8458   20.5341 H   0  0  0  0  0  0
  -26.3106  -15.6346   20.1542 H   0  0  0  0  0  0
  -26.7116  -32.5535   23.1187 H   0  0  0  0  0  0
  -25.0057  -33.9799   25.0495 H   0  0  0  0  0  0
  -22.6900  -31.3148   21.4229 H   0  0  0  0  0  0
  -23.3749  -35.9652   23.3303 H   0  0  0  0  0  0
  -24.3585  -36.8928   22.2051 H   0  0  0  0  0  0
  -23.7238  -37.6523   23.6646 H   0  0  0  0  0  0
  -26.0509  -31.6002   20.6053 H   0  0  0  0  0  0
  -26.8199  -30.8792   21.9916 H   0  0  0  0  0  0
  -28.0941  -29.0850   21.1693 H   0  0  0  0  0  0
  -25.9872  -26.0151   18.9489 H   0  0  0  0  0  0
  -23.9604  -27.3286   19.0201 H   0  0  0  0  0  0
  -23.7168  -30.6175   19.4135 H   0  0  0  0  0  0
  -22.7304  -29.2614   19.8698 H   0  0  0  0  0  0
  -25.1279  -36.1988   25.0833 H   0  0  0  0  0  0
  -20.9952  -28.3213   24.1447 H   0  0  0  0  0  0
  -20.5668  -26.2261   23.3602 H   0  0  0  0  0  0
  -21.6630  -26.7440   22.1208 H   0  0  0  0  0  0
  -19.6896  -25.6297   21.1233 H   0  0  0  0  0  0
  -19.6675  -27.3206   20.6758 H   0  0  0  0  0  0
  -17.4186  -26.6675   21.4030 H   0  0  0  0  0  0
  -18.0312  -26.0052   22.9020 H   0  0  0  0  0  0
  -19.7921  -30.7251   24.2298 H   0  0  0  0  0  0
  -17.5000  -31.6266   24.5153 H   0  0  0  0  0  0
  -15.5339  -30.2987   23.7637 H   0  0  0  0  0  0
  -15.8660  -28.0816   22.7065 H   0  0  0  0  0  0
  -24.5917  -30.7050   25.7843 H   0  0  0  0  0  0
  -24.8948  -32.2849   26.4982 H   0  0  0  0  0  0
  -25.8113  -30.8849   27.0243 H   0  0  0  0  0  0
  -26.2832  -29.6819   24.1160 H   0  0  0  0  0  0
  -27.4046  -29.7261   25.4575 H   0  0  0  0  0  0
  -27.8685  -30.4361   23.9281 H   0  0  0  0  0  0
  -27.2687  -33.3597   26.2127 H   0  0  0  0  0  0
  -28.3850  -32.6890   25.0321 H   0  0  0  0  0  0
  -28.0747  -31.8406   26.5388 H   0  0  0  0  0  0
  -28.2599  -38.0111   24.7519 H   0  0  0  0  0  0
  -28.1080  -36.2642   24.6275 H   0  0  0  0  0  0
  -27.2303  -37.1448   25.8867 H   0  0  0  0  0  0
  -20.9288  -29.8777   21.6991 H   0  0  0  0  0  0
  -26.0183  -38.2878   24.1417 H   0  0  0  0  0  0
  -29.3337  -21.7392   21.1382 H   0  0  0  0  0  0
  -30.8864  -21.8134   20.3053 H   0  0  0  0  0  0
  -27.4223  -24.8456   20.0084 H   0  0  0  0  0  0
  -28.2371  -25.3716   18.5374 H   0  0  0  0  0  0
  -32.0513  -20.2973   19.6801 H   0  0  0  0  0  0
  -32.8996  -19.0038   20.3585 H   0  0  0  0  0  0
  -27.1294  -19.8233   19.5616 H   0  0  0  0  0  0
  -26.4837  -18.3328   20.0619 H   0  0  0  0  0  0
  -29.1226  -15.0795   21.5484 H   0  0  0  0  0  0
  1 25  1  0  0  0
  1 30  2  0  0  0
  1 83  1  0  0  0
  2  3  1  0  0  0
  2 25  1  0  0  0
  2 88  1  0  0  0
  2 89  1  0  0  0
  3  4  1  0  0  0
  3 90  1  0  0  0
  3 91  1  0  0  0
  4  5  1  0  0  0
  4 92  1  0  0  0
  4 93  1  0  0  0
  5  6  1  0  0  0
  5 26  1  0  0  0
  5 94  1  0  0  0
  6 25  1  0  0  0
  6 95  1  0  0  0
  6 96  1  0  0  0
  7  8  2  0  0  0
  7 26  1  0  0  0
  7 29  1  0  0  0
  8  9  1  0  0  0
  8 22  1  0  0  0
  9 10  1  0  0  0
  9 27  2  0  0  0
 10 11  2  0  0  0
 10 15  1  0  0  0
 11 12  1  0  0  0
 11 97  1  0  0  0
 12 13  2  0  0  0
 12 98  1  0  0  0
 13 14  1  0  0  0
 13 31  1  0  0  0
 14 15  2  0  0  0
 14 99  1  0  0  0
 15100  1  0  0  0
 16 17  2  0  0  0
 16 21  1  0  0  0
 16 31  1  0  0  0
 17 18  1  0  0  0
 17101  1  0  0  0
 18 19  2  0  0  0
 18102  1  0  0  0
 19 20  1  0  0  0
 19 24  1  0  0  0
 20 21  2  0  0  0
 20103  1  0  0  0
 21 23  1  0  0  0
 22 28  1  0  0  0
 22 32  2  0  0  0
 26 27  1  0  0  0
 28104  1  0  0  0
 28105  1  0  0  0
 29106  1  0  0  0
 29107  1  0  0  0
 33 34  1  0  0  0
 33 66  1  0  0  0
 33 70  2  0  0  0
 34 36  1  0  0  0
 34 59  1  0  0  0
 34108  1  0  0  0
 35 44  2  0  0  0
 35 45  1  0  0  0
 35 68  1  0  0  0
 36 56  1  0  0  0
 36109  1  0  0  0
 37 39  1  0  0  0
 37 47  1  0  0  0
 37 66  1  0  0  0
 37110  1  0  0  0
 38 43  2  0  0  0
 38 46  1  0  0  0
 38 47  1  0  0  0
 39 64  1  0  0  0
 39 67  2  0  0  0
 40 52  1  0  0  0
 40 53  2  0  0  0
 40 58  1  0  0  0
 41111  1  0  0  0
 41112  1  0  0  0
 41113  1  0  0  0
 41 48  1  0  0  0
 42 43  1  0  0  0
 42 66  1  0  0  0
 42114  1  0  0  0
 42115  1  0  0  0
 43 44  1  0  0  0
 44116  1  0  0  0
 45 46  2  0  0  0
 45117  1  0  0  0
 46118  1  0  0  0
 47119  1  0  0  0
 47120  1  0  0  0
 48 56  1  0  0  0
 48 65  1  0  0  0
 48121  1  0  0  0
 49 50  1  0  0  0
 49 53  1  0  0  0
 49 64  1  0  0  0
 49122  1  0  0  0
 50 51  1  0  0  0
 50123  1  0  0  0
 50124  1  0  0  0
 51 52  1  0  0  0
 51125  1  0  0  0
 51126  1  0  0  0
 52127  1  0  0  0
 52128  1  0  0  0
 53 54  1  0  0  0
 54 55  2  0  0  0
 54129  1  0  0  0
 55 57  1  0  0  0
 55130  1  0  0  0
 56 69  2  0  0  0
 57 58  2  0  0  0
 57131  1  0  0  0
 58132  1  0  0  0
 59 60  1  0  0  0
 59 61  1  0  0  0
 59 62  1  0  0  0
 60133  1  0  0  0
 60134  1  0  0  0
 60135  1  0  0  0
 61136  1  0  0  0
 61137  1  0  0  0
 61138  1  0  0  0
 62139  1  0  0  0
 62140  1  0  0  0
 62141  1  0  0  0
 63 65  1  0  0  0
 63142  1  0  0  0
 63143  1  0  0  0
 63144  1  0  0  0
 64145  1  0  0  0
 65146  1  0  0  0
 68 77  1  0  0  0
 71 72  2  0  0  0
 71 73  1  0  0  0
 71 85  1  0  0  0
 72 79  1  0  0  0
 72 81  1  0  0  0
 73 80  2  0  0  0
 73 82  1  0  0  0
 74 79  2  0  0  0
 74 80  1  0  0  0
 74 83  1  0  0  0
 75 76  1  0  0  0
 75 78  1  0  0  0
 75 84  2  0  0  0
 76 85  1  0  0  0
 76147  1  0  0  0
 76148  1  0  0  0
 77 78  1  0  0  0
 77149  1  0  0  0
 77150  1  0  0  0
 78 86  1  0  0  0
 78 87  1  0  0  0
 81151  1  0  0  0
 81152  1  0  0  0
 82153  1  0  0  0
 82154  1  0  0  0
 83155  1  0  0  0
M  ISO  4   1 100  68 101  77 101  83 100
M  END
> <chiral flag>
0

> <version>
0

> <s_m_source_file>
/data/baiqing/PycharmProjects/Reinvent-master-3.2/result/LINK_invent/BTK/process_docking_weight1_custom_product_contain_oxygen_bond_distance_aromatic_linkinvent_7_9_3/rearranged_h_0182.sdf

> <i_m_source_file_index>
12

> <r_mmod_Potential_Energy-OPLS-2005>
-431.525604248047

> <r_mmod_Stretch_Energy-OPLS-2005>
37.9372291564941

> <r_mmod_Bend_Energy-OPLS-2005>
112.528137207031

> <r_mmod_Torsional_Energy-OPLS-2005>
260.561401367188

> <r_mmod_Improper_Torsional_Energy-OPLS-2005>
12.7584114074707

> <r_mmod_Van_der_Waal_Energy-OPLS-2005>
166.812973022461

> <r_mmod_Electrostatic_Energy-OPLS-2005>
-785.973388671875

> <r_mmod_Solvation_Energy-OPLS-2005>
-248.734283447266

> <b_mmod_Minimization_Converged-OPLS-2005>
0

> <r_mmod_RMS_Derivative-OPLS-2005>
0.70543497800827

$$$$
12
                    3D
 Structure written by MMmdl.
156164  0  0  1  0            999 V2000
  -30.6166  -14.5937   20.5271 C   0  0  0  0  0  0
  -30.4436  -12.3710   19.4348 C   0  0  0  0  0  0
  -29.5016  -12.4705   18.2147 C   0  0  0  0  0  0
  -28.0317  -12.2927   18.6474 C   0  0  0  0  0  0
  -27.6512  -13.1878   19.8545 C   0  0  2  0  0  0
  -28.6947  -13.0384   20.9840 C   0  0  0  0  0  0
  -25.2592  -13.8100   20.5666 C   0  0  0  0  0  0
  -24.1835  -13.0432   20.9194 C   0  0  0  0  0  0
  -24.6354  -11.6891   20.8767 C   0  0  0  0  0  0
  -23.9019  -10.4280   21.0427 C   0  0  0  0  0  0
  -24.3575   -9.4192   21.9207 C   0  0  0  0  0  0
  -23.6256   -8.2231   22.0771 C   0  0  0  0  0  0
  -22.4257   -8.0259   21.3542 C   0  0  0  0  0  0
  -21.9875   -9.0234   20.4659 C   0  0  0  0  0  0
  -22.7193  -10.2119   20.3071 C   0  0  0  0  0  0
  -21.6829   -6.0715   22.5280 C   0  0  0  0  0  0
  -21.4005   -6.5630   23.8211 C   0  0  0  0  0  0
  -21.3662   -5.6789   24.9175 C   0  0  0  0  0  0
  -21.6038   -4.3051   24.7237 C   0  0  0  0  0  0
  -21.8818   -3.8135   23.4361 C   0  0  0  0  0  0
  -21.9194   -4.6945   22.3408 C   0  0  0  0  0  0
  -22.7863  -13.5253   21.1858 C   0  0  0  0  0  0
  -22.1662   -4.2132   21.0980 F   0  0  0  0  0  0
  -21.5634   -3.4539   25.7749 F   0  0  0  0  0  0
  -30.0087  -13.3780   20.4140 N   0  0  0  0  0  0
  -26.2966  -12.9216   20.3254 N   0  0  0  0  0  0
  -25.9263  -11.6416   20.5761 N   0  0  0  0  0  0
  -22.0472  -12.8258   22.0386 N   0  0  0  0  0  0
  -25.4347  -15.1813   20.4036 N   0  0  0  0  0  0
  -31.7958  -14.7730   20.1974 O   0  0  0  0  0  0
  -21.6619   -6.8857   21.4243 O   0  0  0  0  0  0
  -22.3599  -14.5572   20.6686 O   0  0  0  0  0  0
  -24.6151  -31.8637   23.2084 C   0  0  0  0  0  0
  -25.9038  -32.4801   23.8362 C   0  0  1  0  0  0
  -27.2314  -27.3909   20.1105 C   0  0  0  0  0  0
  -25.5870  -33.8600   24.2269 N   0  0  0  0  0  0
  -23.4083  -30.4869   21.5459 C   0  0  2  0  0  0
  -24.8615  -28.9448   20.1156 C   0  0  0  0  0  0
  -22.7431  -29.4601   22.4928 C   0  0  0  0  0  0
  -18.0298  -28.1375   22.8493 C   0  0  0  0  0  0
  -24.1473  -36.7266   23.2648 C   0  0  0  0  0  0
  -25.9468  -30.8069   21.3802 C   0  0  0  0  0  0
  -26.0221  -29.4430   20.7204 C   0  0  0  0  0  0
  -27.2147  -28.6753   20.7115 C   0  0  0  0  0  0
  -26.0571  -26.9125   19.4986 C   0  0  0  0  0  0
  -24.8747  -27.6790   19.5028 C   0  0  0  0  0  0
  -23.6265  -29.8197   20.1607 C   0  0  0  0  0  0
  -25.4109  -36.3083   24.0334 C   0  0  1  0  0  0
  -20.5895  -28.3623   23.1291 C   0  0  2  0  0  0
  -20.6787  -26.9347   22.5414 C   0  0  0  0  0  0
  -19.5761  -26.6357   21.5208 C   0  0  0  0  0  0
  -18.1931  -26.7922   22.1606 C   0  0  0  0  0  0
  -19.1555  -28.8817   23.2883 C   0  0  0  0  0  0
  -18.9494  -30.1442   23.8865 C   0  0  0  0  0  0
  -17.6503  -30.6570   24.0560 C   0  0  0  0  0  0
  -25.9039  -34.9454   23.5101 C   0  0  0  0  0  0
  -16.5381  -29.9094   23.6358 C   0  0  0  0  0  0
  -16.7288  -28.6526   23.0345 C   0  0  0  0  0  0
  -26.4487  -31.6659   25.0729 C   0  0  0  0  0  0
  -25.3720  -31.3791   26.1459 C   0  0  0  0  0  0
  -27.0415  -30.3110   24.6174 C   0  0  0  0  0  0
  -27.5989  -32.4494   25.7468 C   0  0  0  0  0  0
  -27.5578  -37.1773   24.8466 C   0  0  0  0  0  0
  -21.4161  -29.2985   22.3676 N   0  0  0  0  0  0
  -26.4286  -37.3777   23.9420 N   0  0  0  0  0  0
  -24.6727  -31.0688   22.1011 N   0  0  0  0  0  0
  -23.4185  -28.8111   23.2960 O   0  0  0  0  0  0
  -28.3737  -26.6126   20.0654 O   0  0  0  0  0  0
  -26.5590  -34.8907   22.4662 O   0  0  0  0  0  0
  -23.5334  -32.1449   23.7410 O   0  0  0  0  0  0
  -29.9185  -19.3418   22.7087 C   0  0  0  0  0  0
  -30.0482  -16.9259   22.7326 C   0  0  0  0  0  0
  -30.0473  -18.1442   23.4220 C   0  0  0  0  0  0
  -29.7762  -19.3021   21.3053 C   0  0  0  0  0  0
  -29.9316  -16.9133   21.3306 C   0  0  0  0  0  0
  -29.7007  -20.6232   20.5225 C   0  0  0  0  0  0
  -30.8054  -23.4804   20.0496 C   0  0  0  0  0  0
  -28.3795  -24.0900   20.6571 C   0  0  0  0  0  0
  -28.5041  -25.5987   21.0913 C   0  0  0  0  0  0
  -29.6237  -23.1936   21.0026 C   0  0  1  0  0  0
  -29.7822  -18.0929   20.6451 N   0  0  0  0  0  0
  -29.7460  -15.6209   20.7348 N   0  0  0  0  0  0
  -29.3696  -21.7349   21.2332 N   0  0  0  0  0  0
  -29.9584  -20.6564   19.3162 O   0  0  0  0  0  0
  -30.1569  -18.1603   24.7727 F   0  0  0  0  0  0
  -31.4818  -12.5151   19.1315 H   0  0  0  0  0  0
  -30.3972  -11.3775   19.8823 H   0  0  0  0  0  0
  -29.7684  -11.7080   17.4805 H   0  0  0  0  0  0
  -29.6239  -13.4334   17.7151 H   0  0  0  0  0  0
  -27.9070  -11.2435   18.9241 H   0  0  0  0  0  0
  -27.3574  -12.4663   17.8075 H   0  0  0  0  0  0
  -27.6715  -14.2158   19.4940 H   0  0  0  0  0  0
  -28.7077  -12.0161   21.3679 H   0  0  0  0  0  0
  -28.4408  -13.6687   21.8382 H   0  0  0  0  0  0
  -25.2718   -9.5679   22.4794 H   0  0  0  0  0  0
  -23.9962   -7.4625   22.7494 H   0  0  0  0  0  0
  -21.0811   -8.8743   19.8961 H   0  0  0  0  0  0
  -22.3643  -10.9660   19.6189 H   0  0  0  0  0  0
  -21.1982   -7.6139   23.9708 H   0  0  0  0  0  0
  -21.1490   -6.0520   25.9075 H   0  0  0  0  0  0
  -22.0595   -2.7597   23.2862 H   0  0  0  0  0  0
  -22.4032  -11.9885   22.4748 H   0  0  0  0  0  0
  -21.1114  -13.1329   22.2600 H   0  0  0  0  0  0
  -24.6638  -15.8307   20.5168 H   0  0  0  0  0  0
  -26.2543  -15.6125   19.9995 H   0  0  0  0  0  0
  -26.7059  -32.5466   23.1063 H   0  0  0  0  0  0
  -25.0027  -33.9806   25.0400 H   0  0  0  0  0  0
  -22.6969  -31.3032   21.4021 H   0  0  0  0  0  0
  -23.3763  -35.9569   23.3337 H   0  0  0  0  0  0
  -24.3531  -36.8871   22.2054 H   0  0  0  0  0  0
  -23.7218  -37.6449   23.6675 H   0  0  0  0  0  0
  -26.0891  -31.5761   20.6227 H   0  0  0  0  0  0
  -26.8240  -30.8440   22.0147 H   0  0  0  0  0  0
  -28.1149  -29.0573   21.1724 H   0  0  0  0  0  0
  -26.0538  -25.9446   19.0168 H   0  0  0  0  0  0
  -23.9843  -27.2919   19.0282 H   0  0  0  0  0  0
  -23.7431  -30.5991   19.4065 H   0  0  0  0  0  0
  -22.7506  -29.2464   19.8518 H   0  0  0  0  0  0
  -25.1303  -36.1931   25.0832 H   0  0  0  0  0  0
  -20.9995  -28.3217   24.1410 H   0  0  0  0  0  0
  -20.5719  -26.2207   23.3604 H   0  0  0  0  0  0
  -21.6652  -26.7415   22.1168 H   0  0  0  0  0  0
  -19.6901  -25.6266   21.1252 H   0  0  0  0  0  0
  -19.6732  -27.3145   20.6725 H   0  0  0  0  0  0
  -17.4213  -26.6671   21.4003 H   0  0  0  0  0  0
  -18.0322  -26.0053   22.8993 H   0  0  0  0  0  0
  -19.7984  -30.7258   24.2192 H   0  0  0  0  0  0
  -17.5093  -31.6271   24.5134 H   0  0  0  0  0  0
  -15.5398  -30.2984   23.7742 H   0  0  0  0  0  0
  -15.8680  -28.0873   22.7032 H   0  0  0  0  0  0
  -24.5759  -30.7337   25.7742 H   0  0  0  0  0  0
  -24.9086  -32.2999   26.5014 H   0  0  0  0  0  0
  -25.8036  -30.8792   27.0147 H   0  0  0  0  0  0
  -26.3014  -29.6754   24.1296 H   0  0  0  0  0  0
  -27.4277  -29.7467   25.4675 H   0  0  0  0  0  0
  -27.8794  -30.4455   23.9332 H   0  0  0  0  0  0
  -27.2499  -33.3755   26.2044 H   0  0  0  0  0  0
  -28.3751  -32.7181   25.0298 H   0  0  0  0  0  0
  -28.0718  -31.8686   26.5390 H   0  0  0  0  0  0
  -28.2580  -38.0092   24.7569 H   0  0  0  0  0  0
  -28.1127  -36.2630   24.6276 H   0  0  0  0  0  0
  -27.2293  -37.1367   25.8868 H   0  0  0  0  0  0
  -20.9317  -29.8664   21.6863 H   0  0  0  0  0  0
  -26.0178  -38.2828   24.1518 H   0  0  0  0  0  0
  -29.9511  -20.2699   23.2592 H   0  0  0  0  0  0
  -30.1037  -16.0087   23.3010 H   0  0  0  0  0  0
  -31.0994  -24.5295   20.0975 H   0  0  0  0  0  0
  -30.5490  -23.2712   19.0109 H   0  0  0  0  0  0
  -31.6858  -22.8923   20.3098 H   0  0  0  0  0  0
  -28.1609  -24.0289   19.5910 H   0  0  0  0  0  0
  -27.4991  -23.6772   21.1527 H   0  0  0  0  0  0
  -29.4859  -25.7567   21.5394 H   0  0  0  0  0  0
  -27.8018  -25.7959   21.9040 H   0  0  0  0  0  0
  -29.9574  -23.5242   21.9881 H   0  0  0  0  0  0
  -28.7893  -15.3062   20.7515 H   0  0  0  0  0  0
  -29.0997  -21.5005   22.1800 H   0  0  0  0  0  0
  1 25  1  0  0  0
  1 30  2  0  0  0
  1 82  1  0  0  0
  2  3  1  0  0  0
  2 25  1  0  0  0
  2 86  1  0  0  0
  2 87  1  0  0  0
  3  4  1  0  0  0
  3 88  1  0  0  0
  3 89  1  0  0  0
  4  5  1  0  0  0
  4 90  1  0  0  0
  4 91  1  0  0  0
  5  6  1  0  0  0
  5 26  1  0  0  0
  5 92  1  0  0  0
  6 25  1  0  0  0
  6 93  1  0  0  0
  6 94  1  0  0  0
  7  8  2  0  0  0
  7 26  1  0  0  0
  7 29  1  0  0  0
  8  9  1  0  0  0
  8 22  1  0  0  0
  9 10  1  0  0  0
  9 27  2  0  0  0
 10 11  2  0  0  0
 10 15  1  0  0  0
 11 12  1  0  0  0
 11 95  1  0  0  0
 12 13  2  0  0  0
 12 96  1  0  0  0
 13 14  1  0  0  0
 13 31  1  0  0  0
 14 15  2  0  0  0
 14 97  1  0  0  0
 15 98  1  0  0  0
 16 17  2  0  0  0
 16 21  1  0  0  0
 16 31  1  0  0  0
 17 18  1  0  0  0
 17 99  1  0  0  0
 18 19  2  0  0  0
 18100  1  0  0  0
 19 20  1  0  0  0
 19 24  1  0  0  0
 20 21  2  0  0  0
 20101  1  0  0  0
 21 23  1  0  0  0
 22 28  1  0  0  0
 22 32  2  0  0  0
 26 27  1  0  0  0
 28102  1  0  0  0
 28103  1  0  0  0
 29104  1  0  0  0
 29105  1  0  0  0
 33 34  1  0  0  0
 33 66  1  0  0  0
 33 70  2  0  0  0
 34 36  1  0  0  0
 34 59  1  0  0  0
 34106  1  0  0  0
 35 44  2  0  0  0
 35 45  1  0  0  0
 35 68  1  0  0  0
 36 56  1  0  0  0
 36107  1  0  0  0
 37 39  1  0  0  0
 37 47  1  0  0  0
 37 66  1  0  0  0
 37108  1  0  0  0
 38 43  2  0  0  0
 38 46  1  0  0  0
 38 47  1  0  0  0
 39 64  1  0  0  0
 39 67  2  0  0  0
 40 52  1  0  0  0
 40 53  2  0  0  0
 40 58  1  0  0  0
 41109  1  0  0  0
 41110  1  0  0  0
 41111  1  0  0  0
 41 48  1  0  0  0
 42 43  1  0  0  0
 42 66  1  0  0  0
 42112  1  0  0  0
 42113  1  0  0  0
 43 44  1  0  0  0
 44114  1  0  0  0
 45 46  2  0  0  0
 45115  1  0  0  0
 46116  1  0  0  0
 47117  1  0  0  0
 47118  1  0  0  0
 48 56  1  0  0  0
 48 65  1  0  0  0
 48119  1  0  0  0
 49 50  1  0  0  0
 49 53  1  0  0  0
 49 64  1  0  0  0
 49120  1  0  0  0
 50 51  1  0  0  0
 50121  1  0  0  0
 50122  1  0  0  0
 51 52  1  0  0  0
 51123  1  0  0  0
 51124  1  0  0  0
 52125  1  0  0  0
 52126  1  0  0  0
 53 54  1  0  0  0
 54 55  2  0  0  0
 54127  1  0  0  0
 55 57  1  0  0  0
 55128  1  0  0  0
 56 69  2  0  0  0
 57 58  2  0  0  0
 57129  1  0  0  0
 58130  1  0  0  0
 59 60  1  0  0  0
 59 61  1  0  0  0
 59 62  1  0  0  0
 60131  1  0  0  0
 60132  1  0  0  0
 60133  1  0  0  0
 61134  1  0  0  0
 61135  1  0  0  0
 61136  1  0  0  0
 62137  1  0  0  0
 62138  1  0  0  0
 62139  1  0  0  0
 63 65  1  0  0  0
 63140  1  0  0  0
 63141  1  0  0  0
 63142  1  0  0  0
 64143  1  0  0  0
 65144  1  0  0  0
 68 79  1  0  0  0
 71 73  2  0  0  0
 71 74  1  0  0  0
 71145  1  0  0  0
 72 73  1  0  0  0
 72 75  2  0  0  0
 72146  1  0  0  0
 73 85  1  0  0  0
 74 76  1  0  0  0
 74 81  2  0  0  0
 75 81  1  0  0  0
 75 82  1  0  0  0
 76 83  1  0  0  0
 76 84  2  0  0  0
 77147  1  0  0  0
 77148  1  0  0  0
 77149  1  0  0  0
 77 80  1  0  0  0
 78 79  1  0  0  0
 78 80  1  0  0  0
 78150  1  0  0  0
 78151  1  0  0  0
 79152  1  0  0  0
 79153  1  0  0  0
 80 83  1  0  0  0
 80154  1  0  0  0
 82155  1  0  0  0
 83156  1  0  0  0
M  ISO  4   1 100  68 101  79 101  82 100
M  END
> <chiral flag>
0

> <version>
0

> <s_m_source_file>
/data/baiqing/PycharmProjects/Reinvent-master-3.2/result/LINK_invent/BTK/process_docking_weight1_custom_product_contain_oxygen_bond_distance_aromatic_linkinvent_7_9_3/rearranged_h_0182.sdf

> <i_m_source_file_index>
13

> <r_mmod_Potential_Energy-OPLS-2005>
-161.386306762695

> <r_mmod_Stretch_Energy-OPLS-2005>
54.855583190918

> <r_mmod_Bend_Energy-OPLS-2005>
124.195358276367

> <r_mmod_Torsional_Energy-OPLS-2005>
296.001892089844

> <r_mmod_Improper_Torsional_Energy-OPLS-2005>
10.6708889007568

> <r_mmod_Van_der_Waal_Energy-OPLS-2005>
146.695617675781

> <r_mmod_Electrostatic_Energy-OPLS-2005>
-573.252380371094

> <r_mmod_Solvation_Energy-OPLS-2005>
-252.745788574219

> <b_mmod_Minimization_Converged-OPLS-2005>
0

> <r_mmod_RMS_Derivative-OPLS-2005>
3.93746900558472

$$$$
13
                    3D
 Structure written by MMmdl.
146154  0  0  1  0            999 V2000
  -30.5912  -14.8619   20.4349 C   0  0  0  0  0  0
  -30.4386  -12.5290   19.4945 C   0  0  0  0  0  0
  -29.5198  -12.5182   18.2523 C   0  0  0  0  0  0
  -28.0480  -12.3294   18.6640 C   0  0  0  0  0  0
  -27.6371  -13.2476   19.8447 C   0  0  2  0  0  0
  -28.6816  -13.2381   20.9827 C   0  0  0  0  0  0
  -25.2497  -13.8227   20.5744 C   0  0  0  0  0  0
  -24.1796  -13.0451   20.9233 C   0  0  0  0  0  0
  -24.6410  -11.6931   20.8762 C   0  0  0  0  0  0
  -23.9100  -10.4294   21.0416 C   0  0  0  0  0  0
  -24.3641   -9.4199   21.9193 C   0  0  0  0  0  0
  -23.6302   -8.2237   22.0755 C   0  0  0  0  0  0
  -22.4279   -8.0288   21.3553 C   0  0  0  0  0  0
  -21.9928   -9.0271   20.4652 C   0  0  0  0  0  0
  -22.7273  -10.2141   20.3064 C   0  0  0  0  0  0
  -21.6847   -6.0743   22.5284 C   0  0  0  0  0  0
  -21.4010   -6.5640   23.8221 C   0  0  0  0  0  0
  -21.3658   -5.6790   24.9181 C   0  0  0  0  0  0
  -21.6040   -4.3054   24.7225 C   0  0  0  0  0  0
  -21.8818   -3.8150   23.4348 C   0  0  0  0  0  0
  -21.9190   -4.6971   22.3404 C   0  0  0  0  0  0
  -22.7808  -13.5216   21.1879 C   0  0  0  0  0  0
  -22.1664   -4.2157   21.0983 F   0  0  0  0  0  0
  -21.5628   -3.4537   25.7736 F   0  0  0  0  0  0
  -29.9729  -13.6188   20.3948 N   0  0  0  0  0  0
  -26.2925  -12.9460   20.3272 N   0  0  0  0  0  0
  -25.9339  -11.6586   20.5738 N   0  0  0  0  0  0
  -22.0453  -12.8196   22.0429 N   0  0  0  0  0  0
  -25.4181  -15.1956   20.4225 N   0  0  0  0  0  0
  -31.7900  -14.9019   20.1502 O   0  0  0  0  0  0
  -21.6639   -6.8889   21.4241 O   0  0  0  0  0  0
  -22.3492  -14.5528   20.6735 O   0  0  0  0  0  0
  -24.6376  -31.8498   23.1929 C   0  0  0  0  0  0
  -25.9175  -32.4722   23.8294 C   0  0  1  0  0  0
  -27.2169  -27.1951   20.1456 C   0  0  0  0  0  0
  -25.5942  -33.8528   24.2215 N   0  0  0  0  0  0
  -23.4398  -30.4702   21.5375 C   0  0  2  0  0  0
  -24.8927  -28.9117   20.1044 C   0  0  0  0  0  0
  -22.7550  -29.4566   22.4879 C   0  0  0  0  0  0
  -18.0310  -28.1385   22.8483 C   0  0  0  0  0  0
  -24.1489  -36.7268   23.2635 C   0  0  0  0  0  0
  -25.9913  -30.7405   21.3871 C   0  0  0  0  0  0
  -26.0667  -29.3577   20.7280 C   0  0  0  0  0  0
  -27.2329  -28.5105   20.7434 C   0  0  0  0  0  0
  -26.0283  -26.8472   19.4679 C   0  0  0  0  0  0
  -24.8830  -27.6666   19.4593 C   0  0  0  0  0  0
  -23.6641  -29.8032   20.1542 C   0  0  0  0  0  0
  -25.4119  -36.3047   24.0317 C   0  0  1  0  0  0
  -20.5919  -28.3706   23.1247 C   0  0  2  0  0  0
  -20.6798  -26.9417   22.5398 C   0  0  0  0  0  0
  -19.5766  -26.6372   21.5212 C   0  0  0  0  0  0
  -18.1950  -26.7927   22.1629 C   0  0  0  0  0  0
  -19.1565  -28.8865   23.2858 C   0  0  0  0  0  0
  -18.9481  -30.1463   23.8880 C   0  0  0  0  0  0
  -17.6479  -30.6584   24.0561 C   0  0  0  0  0  0
  -25.9065  -34.9419   23.5071 C   0  0  0  0  0  0
  -16.5370  -29.9076   23.6331 C   0  0  0  0  0  0
  -16.7295  -28.6494   23.0352 C   0  0  0  0  0  0
  -26.4512  -31.6574   25.0714 C   0  0  0  0  0  0
  -25.3710  -31.3755   26.1413 C   0  0  0  0  0  0
  -27.0366  -30.2977   24.6258 C   0  0  0  0  0  0
  -27.6050  -32.4325   25.7497 C   0  0  0  0  0  0
  -27.5583  -37.1789   24.8464 C   0  0  0  0  0  0
  -21.4250  -29.3039   22.3622 N   0  0  0  0  0  0
  -26.4286  -37.3758   23.9410 N   0  0  0  0  0  0
  -24.7087  -31.0394   22.0951 N   0  0  0  0  0  0
  -23.4216  -28.8109   23.3006 O   0  0  0  0  0  0
  -28.2111  -26.1684   20.2365 O   0  0  0  0  0  0
  -26.5641  -34.8907   22.4643 O   0  0  0  0  0  0
  -23.5508  -32.1341   23.7180 O   0  0  0  0  0  0
  -30.0534  -17.5103   20.4013 C   0  0  0  0  0  0
  -31.1327  -18.0457   19.7245 C   0  0  0  0  0  0
  -29.5870  -19.9201   20.3882 C   0  0  0  0  0  0
  -27.7727  -24.9389   20.8560 C   0  0  0  0  0  0
  -28.0425  -23.5470   20.9285 C   0  0  0  0  0  0
  -29.0495  -22.5713   20.3204 C   0  0  0  0  0  0
  -29.1826  -18.6370   20.7672 N   0  0  0  0  0  0
  -29.8224  -16.0276   20.6389 N   0  0  0  0  0  0
  -28.8642  -21.2146   20.6708 N   0  0  0  0  0  0
  -29.9673  -22.9214   19.5778 O   0  0  0  0  0  0
  -27.1886  -22.9115   21.7520 O   0  0  0  0  0  0
  -32.1467  -17.3282   19.1893 F   0  0  0  0  0  0
  -31.1268  -19.8035   19.5281 S   0  0  0  0  0  0
  -31.4763  -12.6642   19.1826 H   0  0  0  0  0  0
  -30.4105  -11.5682   20.0111 H   0  0  0  0  0  0
  -29.8208  -11.7258   17.5660 H   0  0  0  0  0  0
  -29.6303  -13.4569   17.7069 H   0  0  0  0  0  0
  -27.9202  -11.2852   18.9496 H   0  0  0  0  0  0
  -27.3915  -12.4933   17.8088 H   0  0  0  0  0  0
  -27.6122  -14.2586   19.4368 H   0  0  0  0  0  0
  -28.7417  -12.2534   21.4494 H   0  0  0  0  0  0
  -28.3967  -13.9361   21.7720 H   0  0  0  0  0  0
  -25.2781   -9.5662   22.4777 H   0  0  0  0  0  0
  -23.9998   -7.4621   22.7468 H   0  0  0  0  0  0
  -21.0857   -8.8809   19.8959 H   0  0  0  0  0  0
  -22.3744  -10.9687   19.6179 H   0  0  0  0  0  0
  -21.1998   -7.6151   23.9729 H   0  0  0  0  0  0
  -21.1485   -6.0521   25.9087 H   0  0  0  0  0  0
  -22.0599   -2.7610   23.2848 H   0  0  0  0  0  0
  -22.4051  -11.9854   22.4817 H   0  0  0  0  0  0
  -21.1072  -13.1223   22.2643 H   0  0  0  0  0  0
  -24.6542  -15.8490   20.5577 H   0  0  0  0  0  0
  -26.2636  -15.6419   20.0898 H   0  0  0  0  0  0
  -26.7246  -32.5356   23.1030 H   0  0  0  0  0  0
  -25.0092  -33.9659   25.0361 H   0  0  0  0  0  0
  -22.7384  -31.2942   21.3879 H   0  0  0  0  0  0
  -23.3755  -35.9600   23.3286 H   0  0  0  0  0  0
  -24.3574  -36.8903   22.2054 H   0  0  0  0  0  0
  -23.7240  -37.6460   23.6674 H   0  0  0  0  0  0
  -26.1388  -31.4989   20.6171 H   0  0  0  0  0  0
  -26.8641  -30.7909   22.0260 H   0  0  0  0  0  0
  -28.1199  -28.8350   21.2698 H   0  0  0  0  0  0
  -25.9651  -25.8851   18.9784 H   0  0  0  0  0  0
  -23.9890  -27.3234   18.9572 H   0  0  0  0  0  0
  -23.7867  -30.5779   19.3967 H   0  0  0  0  0  0
  -22.7824  -29.2366   19.8501 H   0  0  0  0  0  0
  -25.1303  -36.1884   25.0812 H   0  0  0  0  0  0
  -21.0011  -28.3284   24.1365 H   0  0  0  0  0  0
  -20.5699  -26.2319   23.3610 H   0  0  0  0  0  0
  -21.6665  -26.7425   22.1192 H   0  0  0  0  0  0
  -19.6923  -25.6271   21.1258 H   0  0  0  0  0  0
  -19.6699  -27.3166   20.6731 H   0  0  0  0  0  0
  -17.4219  -26.6668   21.4033 H   0  0  0  0  0  0
  -18.0360  -26.0066   22.9029 H   0  0  0  0  0  0
  -19.7955  -30.7288   24.2233 H   0  0  0  0  0  0
  -17.5028  -31.6263   24.5167 H   0  0  0  0  0  0
  -15.5366  -30.2972   23.7666 H   0  0  0  0  0  0
  -15.8697  -28.0806   22.7072 H   0  0  0  0  0  0
  -24.5888  -30.7102   25.7730 H   0  0  0  0  0  0
  -24.8891  -32.2936   26.4788 H   0  0  0  0  0  0
  -25.7993  -30.8953   27.0220 H   0  0  0  0  0  0
  -26.2973  -29.6715   24.1247 H   0  0  0  0  0  0
  -27.3978  -29.7253   25.4811 H   0  0  0  0  0  0
  -27.8881  -30.4216   23.9561 H   0  0  0  0  0  0
  -27.2650  -33.3636   26.2039 H   0  0  0  0  0  0
  -28.3881  -32.6868   25.0343 H   0  0  0  0  0  0
  -28.0694  -31.8470   26.5440 H   0  0  0  0  0  0
  -28.2585  -38.0102   24.7522 H   0  0  0  0  0  0
  -28.1089  -36.2628   24.6271 H   0  0  0  0  0  0
  -27.2296  -37.1417   25.8864 H   0  0  0  0  0  0
  -20.9451  -29.8750   21.6804 H   0  0  0  0  0  0
  -26.0154  -38.2825   24.1420 H   0  0  0  0  0  0
  -26.9405  -25.2307   21.4849 H   0  0  0  0  0  0
  -28.8862  -15.8182   20.9428 H   0  0  0  0  0  0
  -28.0557  -21.1196   21.2700 H   0  0  0  0  0  0
  -26.5894  -23.5559   22.1056 H   0  0  0  0  0  0
  1 25  1  0  0  0
  1 30  2  0  0  0
  1 78  1  0  0  0
  2  3  1  0  0  0
  2 25  1  0  0  0
  2 84  1  0  0  0
  2 85  1  0  0  0
  3  4  1  0  0  0
  3 86  1  0  0  0
  3 87  1  0  0  0
  4  5  1  0  0  0
  4 88  1  0  0  0
  4 89  1  0  0  0
  5  6  1  0  0  0
  5 26  1  0  0  0
  5 90  1  0  0  0
  6 25  1  0  0  0
  6 91  1  0  0  0
  6 92  1  0  0  0
  7  8  2  0  0  0
  7 26  1  0  0  0
  7 29  1  0  0  0
  8  9  1  0  0  0
  8 22  1  0  0  0
  9 10  1  0  0  0
  9 27  2  0  0  0
 10 11  2  0  0  0
 10 15  1  0  0  0
 11 12  1  0  0  0
 11 93  1  0  0  0
 12 13  2  0  0  0
 12 94  1  0  0  0
 13 14  1  0  0  0
 13 31  1  0  0  0
 14 15  2  0  0  0
 14 95  1  0  0  0
 15 96  1  0  0  0
 16 17  2  0  0  0
 16 21  1  0  0  0
 16 31  1  0  0  0
 17 18  1  0  0  0
 17 97  1  0  0  0
 18 19  2  0  0  0
 18 98  1  0  0  0
 19 20  1  0  0  0
 19 24  1  0  0  0
 20 21  2  0  0  0
 20 99  1  0  0  0
 21 23  1  0  0  0
 22 28  1  0  0  0
 22 32  2  0  0  0
 26 27  1  0  0  0
 28100  1  0  0  0
 28101  1  0  0  0
 29102  1  0  0  0
 29103  1  0  0  0
 33 34  1  0  0  0
 33 66  1  0  0  0
 33 70  2  0  0  0
 34 36  1  0  0  0
 34 59  1  0  0  0
 34104  1  0  0  0
 35 44  2  0  0  0
 35 45  1  0  0  0
 35 68  1  0  0  0
 36 56  1  0  0  0
 36105  1  0  0  0
 37 39  1  0  0  0
 37 47  1  0  0  0
 37 66  1  0  0  0
 37106  1  0  0  0
 38 43  2  0  0  0
 38 46  1  0  0  0
 38 47  1  0  0  0
 39 64  1  0  0  0
 39 67  2  0  0  0
 40 52  1  0  0  0
 40 53  2  0  0  0
 40 58  1  0  0  0
 41107  1  0  0  0
 41108  1  0  0  0
 41109  1  0  0  0
 41 48  1  0  0  0
 42 43  1  0  0  0
 42 66  1  0  0  0
 42110  1  0  0  0
 42111  1  0  0  0
 43 44  1  0  0  0
 44112  1  0  0  0
 45 46  2  0  0  0
 45113  1  0  0  0
 46114  1  0  0  0
 47115  1  0  0  0
 47116  1  0  0  0
 48 56  1  0  0  0
 48 65  1  0  0  0
 48117  1  0  0  0
 49 50  1  0  0  0
 49 53  1  0  0  0
 49 64  1  0  0  0
 49118  1  0  0  0
 50 51  1  0  0  0
 50119  1  0  0  0
 50120  1  0  0  0
 51 52  1  0  0  0
 51121  1  0  0  0
 51122  1  0  0  0
 52123  1  0  0  0
 52124  1  0  0  0
 53 54  1  0  0  0
 54 55  2  0  0  0
 54125  1  0  0  0
 55 57  1  0  0  0
 55126  1  0  0  0
 56 69  2  0  0  0
 57 58  2  0  0  0
 57127  1  0  0  0
 58128  1  0  0  0
 59 60  1  0  0  0
 59 61  1  0  0  0
 59 62  1  0  0  0
 60129  1  0  0  0
 60130  1  0  0  0
 60131  1  0  0  0
 61132  1  0  0  0
 61133  1  0  0  0
 61134  1  0  0  0
 62135  1  0  0  0
 62136  1  0  0  0
 62137  1  0  0  0
 63 65  1  0  0  0
 63138  1  0  0  0
 63139  1  0  0  0
 63140  1  0  0  0
 64141  1  0  0  0
 65142  1  0  0  0
 68 74  1  0  0  0
 71 72  2  0  0  0
 71 77  1  0  0  0
 71 78  1  0  0  0
 72 82  1  0  0  0
 72 83  1  0  0  0
 73 77  2  0  0  0
 73 79  1  0  0  0
 73 83  1  0  0  0
 74 75  2  0  0  0
 74143  1  0  0  0
 75 76  1  0  0  0
 75 81  1  0  0  0
 76 79  1  0  0  0
 76 80  2  0  0  0
 78144  1  0  0  0
 79145  1  0  0  0
 81146  1  0  0  0
M  ISO  4   1 100  68 101  74 101  78 100
M  END
> <chiral flag>
0

> <version>
0

> <s_m_source_file>
/data/baiqing/PycharmProjects/Reinvent-master-3.2/result/LINK_invent/BTK/process_docking_weight1_custom_product_contain_oxygen_bond_distance_aromatic_linkinvent_7_9_3/rearranged_h_0182.sdf

> <i_m_source_file_index>
14

> <r_mmod_Potential_Energy-OPLS-2005>
249.284713745117

> <r_mmod_Stretch_Energy-OPLS-2005>
173.762619018555

> <r_mmod_Bend_Energy-OPLS-2005>
272.498138427734

> <r_mmod_Torsional_Energy-OPLS-2005>
209.642761230469

> <r_mmod_Improper_Torsional_Energy-OPLS-2005>
3.69212174415588

> <r_mmod_Van_der_Waal_Energy-OPLS-2005>
128.2626953125

> <r_mmod_Electrostatic_Energy-OPLS-2005>
-446.869781494141

> <r_mmod_Solvation_Energy-OPLS-2005>
-241.788818359375

> <b_mmod_Minimization_Converged-OPLS-2005>
0

> <r_mmod_RMS_Derivative-OPLS-2005>
1.60643291473389

$$$$
14
                    3D
 Structure written by MMmdl.
152160  0  0  1  0            999 V2000
  -30.7428  -14.4181   20.5123 C   0  0  0  0  0  0
  -30.4118  -12.2570   19.4245 C   0  0  0  0  0  0
  -29.4944  -12.4789   18.2054 C   0  0  0  0  0  0
  -28.0084  -12.3797   18.6014 C   0  0  0  0  0  0
  -27.6603  -13.2123   19.8680 C   0  0  2  0  0  0
  -28.7025  -12.9830   20.9870 C   0  0  0  0  0  0
  -25.2600  -13.8201   20.5687 C   0  0  0  0  0  0
  -24.1858  -13.0478   20.9202 C   0  0  0  0  0  0
  -24.6397  -11.6939   20.8743 C   0  0  0  0  0  0
  -23.9038  -10.4329   21.0349 C   0  0  0  0  0  0
  -24.3578   -9.4257   21.9128 C   0  0  0  0  0  0
  -23.6272   -8.2292   22.0729 C   0  0  0  0  0  0
  -22.4266   -8.0278   21.3521 C   0  0  0  0  0  0
  -21.9881   -9.0260   20.4649 C   0  0  0  0  0  0
  -22.7194  -10.2146   20.3028 C   0  0  0  0  0  0
  -21.6874   -6.0743   22.5270 C   0  0  0  0  0  0
  -21.4031   -6.5641   23.8213 C   0  0  0  0  0  0
  -21.3662   -5.6776   24.9160 C   0  0  0  0  0  0
  -21.6034   -4.3042   24.7202 C   0  0  0  0  0  0
  -21.8819   -3.8138   23.4325 C   0  0  0  0  0  0
  -21.9212   -4.6967   22.3389 C   0  0  0  0  0  0
  -22.7862  -13.5262   21.1825 C   0  0  0  0  0  0
  -22.1665   -4.2156   21.0968 F   0  0  0  0  0  0
  -21.5620   -3.4523   25.7715 F   0  0  0  0  0  0
  -30.0395  -13.2565   20.4356 N   0  0  0  0  0  0
  -26.3018  -12.9365   20.3336 N   0  0  0  0  0  0
  -25.9317  -11.6519   20.5752 N   0  0  0  0  0  0
  -22.0473  -12.8313   22.0396 N   0  0  0  0  0  0
  -25.4315  -15.1931   20.4137 N   0  0  0  0  0  0
  -31.9045  -14.5033   20.1043 O   0  0  0  0  0  0
  -21.6640   -6.8865   21.4222 O   0  0  0  0  0  0
  -22.3553  -14.5528   20.6609 O   0  0  0  0  0  0
  -24.6044  -31.8703   23.2124 C   0  0  0  0  0  0
  -25.8970  -32.4824   23.8416 C   0  0  1  0  0  0
  -27.2645  -27.5174   20.1086 C   0  0  0  0  0  0
  -25.5862  -33.8627   24.2378 N   0  0  0  0  0  0
  -23.3889  -30.4904   21.5489 C   0  0  2  0  0  0
  -24.8438  -28.9588   20.1194 C   0  0  0  0  0  0
  -22.7349  -29.4686   22.5041 C   0  0  0  0  0  0
  -18.0260  -28.1374   22.8481 C   0  0  0  0  0  0
  -24.1491  -36.7338   23.2637 C   0  0  0  0  0  0
  -25.9016  -30.8716   21.3421 C   0  0  0  0  0  0
  -25.9909  -29.5072   20.7040 C   0  0  0  0  0  0
  -27.2011  -28.7983   20.6921 C   0  0  0  0  0  0
  -26.1114  -26.9704   19.5090 C   0  0  0  0  0  0
  -24.8959  -27.6874   19.5185 C   0  0  0  0  0  0
  -23.5919  -29.8033   20.1691 C   0  0  0  0  0  0
  -25.4099  -36.3125   24.0363 C   0  0  1  0  0  0
  -20.5831  -28.3643   23.1346 C   0  0  2  0  0  0
  -20.6751  -26.9396   22.5408 C   0  0  0  0  0  0
  -19.5739  -26.6388   21.5198 C   0  0  0  0  0  0
  -18.1910  -26.7939   22.1598 C   0  0  0  0  0  0
  -19.1494  -28.8826   23.2907 C   0  0  0  0  0  0
  -18.9438  -30.1447   23.8914 C   0  0  0  0  0  0
  -17.6431  -30.6587   24.0564 C   0  0  0  0  0  0
  -25.9001  -34.9479   23.5169 C   0  0  0  0  0  0
  -16.5327  -29.9090   23.6302 C   0  0  0  0  0  0
  -16.7236  -28.6497   23.0321 C   0  0  0  0  0  0
  -26.4444  -31.6543   25.0674 C   0  0  0  0  0  0
  -25.3754  -31.3590   26.1449 C   0  0  0  0  0  0
  -27.0256  -30.3015   24.5925 C   0  0  0  0  0  0
  -27.6061  -32.4204   25.7418 C   0  0  0  0  0  0
  -27.5587  -37.1827   24.8470 C   0  0  0  0  0  0
  -21.4083  -29.3023   22.3769 N   0  0  0  0  0  0
  -26.4304  -37.3794   23.9409 N   0  0  0  0  0  0
  -24.6513  -31.0889   22.0972 N   0  0  0  0  0  0
  -23.4151  -28.8245   23.3067 O   0  0  0  0  0  0
  -28.4321  -26.8037   20.0957 O   0  0  0  0  0  0
  -26.5544  -34.8907   22.4720 O   0  0  0  0  0  0
  -23.5270  -32.1386   23.7603 O   0  0  0  0  0  0
  -28.7265  -18.4619   21.2964 C   0  0  0  0  0  0
  -29.9336  -18.1034   20.7452 C   0  0  0  0  0  0
  -29.7062  -20.4973   21.1234 C   0  0  0  0  0  0
  -30.4547  -16.8069   20.4918 C   0  0  0  0  0  0
  -30.0030  -15.6060   20.9078 C   0  0  0  0  0  0
  -29.1047  -22.8170   21.7884 C   0  0  0  0  0  0
  -28.6541  -25.3437   21.9676 C   0  0  0  0  0  0
  -29.0771  -26.6882   21.3691 C   0  0  0  0  0  0
  -29.6587  -24.2319   21.6204 C   0  0  2  0  0  0
  -28.6043  -19.8390   21.5016 N   0  0  0  0  0  0
  -29.8945  -21.8844   21.2460 N   0  0  0  0  0  0
  -28.0385  -22.5976   22.3719 O   0  0  0  0  0  0
  -30.0681  -24.3572   20.3512 F   0  0  0  0  0  0
  -30.9553  -19.4784   20.4372 S   0  0  0  0  0  0
  -31.4560  -12.3316   19.1153 H   0  0  0  0  0  0
  -30.2878  -11.2497   19.8282 H   0  0  0  0  0  0
  -29.7242  -11.7438   17.4332 H   0  0  0  0  0  0
  -29.6939  -13.4575   17.7637 H   0  0  0  0  0  0
  -27.7797  -11.3274   18.7709 H   0  0  0  0  0  0
  -27.3858  -12.6926   17.7623 H   0  0  0  0  0  0
  -27.7064  -14.2639   19.5832 H   0  0  0  0  0  0
  -28.6679  -11.9483   21.3292 H   0  0  0  0  0  0
  -28.4744  -13.5803   21.8694 H   0  0  0  0  0  0
  -25.2729   -9.5786   22.4689 H   0  0  0  0  0  0
  -24.0032   -7.4690   22.7435 H   0  0  0  0  0  0
  -21.0821   -8.8726   19.8968 H   0  0  0  0  0  0
  -22.3584  -10.9650   19.6140 H   0  0  0  0  0  0
  -21.2001   -7.6137   23.9721 H   0  0  0  0  0  0
  -21.1491   -6.0492   25.9066 H   0  0  0  0  0  0
  -22.0597   -2.7602   23.2805 H   0  0  0  0  0  0
  -22.4071  -12.0056   22.4941 H   0  0  0  0  0  0
  -21.1055  -13.1345   22.2442 H   0  0  0  0  0  0
  -24.6611  -15.8430   20.5187 H   0  0  0  0  0  0
  -26.2802  -15.6378   20.0831 H   0  0  0  0  0  0
  -26.7049  -32.5565   23.1210 H   0  0  0  0  0  0
  -25.0112  -33.9795   25.0596 H   0  0  0  0  0  0
  -22.6716  -31.3011   21.4051 H   0  0  0  0  0  0
  -23.3717  -35.9710   23.3332 H   0  0  0  0  0  0
  -24.3587  -36.8880   22.2039 H   0  0  0  0  0  0
  -23.7284  -37.6588   23.6598 H   0  0  0  0  0  0
  -25.9767  -31.6314   20.5645 H   0  0  0  0  0  0
  -26.8052  -30.9509   21.9354 H   0  0  0  0  0  0
  -28.0830  -29.2474   21.1283 H   0  0  0  0  0  0
  -26.1571  -25.9902   19.0563 H   0  0  0  0  0  0
  -24.0162  -27.2554   19.0661 H   0  0  0  0  0  0
  -23.6785  -30.5644   19.3933 H   0  0  0  0  0  0
  -22.7210  -29.2039   19.8913 H   0  0  0  0  0  0
  -25.1276  -36.2018   25.0863 H   0  0  0  0  0  0
  -20.9930  -28.3221   24.1458 H   0  0  0  0  0  0
  -20.5675  -26.2261   23.3590 H   0  0  0  0  0  0
  -21.6625  -26.7466   22.1189 H   0  0  0  0  0  0
  -19.6907  -25.6304   21.1214 H   0  0  0  0  0  0
  -19.6697  -27.3212   20.6749 H   0  0  0  0  0  0
  -17.4195  -26.6682   21.3987 H   0  0  0  0  0  0
  -18.0303  -26.0070   22.8985 H   0  0  0  0  0  0
  -19.7906  -30.7251   24.2286 H   0  0  0  0  0  0
  -17.4985  -31.6262   24.5184 H   0  0  0  0  0  0
  -15.5326  -30.2994   23.7615 H   0  0  0  0  0  0
  -15.8641  -28.0835   22.7010 H   0  0  0  0  0  0
  -24.5973  -30.6871   25.7814 H   0  0  0  0  0  0
  -24.8903  -32.2722   26.4908 H   0  0  0  0  0  0
  -25.8180  -30.8785   27.0187 H   0  0  0  0  0  0
  -26.2773  -29.6751   24.1055 H   0  0  0  0  0  0
  -27.4179  -29.7225   25.4293 H   0  0  0  0  0  0
  -27.8512  -30.4392   23.8931 H   0  0  0  0  0  0
  -27.2751  -33.3506   26.2050 H   0  0  0  0  0  0
  -28.3860  -32.6739   25.0221 H   0  0  0  0  0  0
  -28.0751  -31.8276   26.5280 H   0  0  0  0  0  0
  -28.2647  -38.0078   24.7468 H   0  0  0  0  0  0
  -28.1047  -36.2622   24.6379 H   0  0  0  0  0  0
  -27.2295  -37.1561   25.8866 H   0  0  0  0  0  0
  -20.9267  -29.8669   21.6928 H   0  0  0  0  0  0
  -26.0188  -38.2880   24.1369 H   0  0  0  0  0  0
  -27.9181  -17.8104   21.5910 H   0  0  0  0  0  0
  -31.3346  -16.8309   19.8596 H   0  0  0  0  0  0
  -29.1195  -15.5588   21.5200 H   0  0  0  0  0  0
  -27.6424  -25.0964   21.6394 H   0  0  0  0  0  0
  -28.5875  -25.4293   23.0531 H   0  0  0  0  0  0
  -30.1592  -26.7435   21.2394 H   0  0  0  0  0  0
  -28.8351  -27.4778   22.0788 H   0  0  0  0  0  0
  -30.5489  -24.3330   22.2419 H   0  0  0  0  0  0
  -30.7432  -22.2519   20.8375 H   0  0  0  0  0  0
  1 25  1  0  0  0
  1 30  2  0  0  0
  1 75  1  0  0  0
  2  3  1  0  0  0
  2 25  1  0  0  0
  2 85  1  0  0  0
  2 86  1  0  0  0
  3  4  1  0  0  0
  3 87  1  0  0  0
  3 88  1  0  0  0
  4  5  1  0  0  0
  4 89  1  0  0  0
  4 90  1  0  0  0
  5  6  1  0  0  0
  5 26  1  0  0  0
  5 91  1  0  0  0
  6 25  1  0  0  0
  6 92  1  0  0  0
  6 93  1  0  0  0
  7  8  2  0  0  0
  7 26  1  0  0  0
  7 29  1  0  0  0
  8  9  1  0  0  0
  8 22  1  0  0  0
  9 10  1  0  0  0
  9 27  2  0  0  0
 10 11  2  0  0  0
 10 15  1  0  0  0
 11 12  1  0  0  0
 11 94  1  0  0  0
 12 13  2  0  0  0
 12 95  1  0  0  0
 13 14  1  0  0  0
 13 31  1  0  0  0
 14 15  2  0  0  0
 14 96  1  0  0  0
 15 97  1  0  0  0
 16 17  2  0  0  0
 16 21  1  0  0  0
 16 31  1  0  0  0
 17 18  1  0  0  0
 17 98  1  0  0  0
 18 19  2  0  0  0
 18 99  1  0  0  0
 19 20  1  0  0  0
 19 24  1  0  0  0
 20 21  2  0  0  0
 20100  1  0  0  0
 21 23  1  0  0  0
 22 28  1  0  0  0
 22 32  2  0  0  0
 26 27  1  0  0  0
 28101  1  0  0  0
 28102  1  0  0  0
 29103  1  0  0  0
 29104  1  0  0  0
 33 34  1  0  0  0
 33 66  1  0  0  0
 33 70  2  0  0  0
 34 36  1  0  0  0
 34 59  1  0  0  0
 34105  1  0  0  0
 35 44  2  0  0  0
 35 45  1  0  0  0
 35 68  1  0  0  0
 36 56  1  0  0  0
 36106  1  0  0  0
 37 39  1  0  0  0
 37 47  1  0  0  0
 37 66  1  0  0  0
 37107  1  0  0  0
 38 43  2  0  0  0
 38 46  1  0  0  0
 38 47  1  0  0  0
 39 64  1  0  0  0
 39 67  2  0  0  0
 40 52  1  0  0  0
 40 53  2  0  0  0
 40 58  1  0  0  0
 41108  1  0  0  0
 41109  1  0  0  0
 41110  1  0  0  0
 41 48  1  0  0  0
 42 43  1  0  0  0
 42 66  1  0  0  0
 42111  1  0  0  0
 42112  1  0  0  0
 43 44  1  0  0  0
 44113  1  0  0  0
 45 46  2  0  0  0
 45114  1  0  0  0
 46115  1  0  0  0
 47116  1  0  0  0
 47117  1  0  0  0
 48 56  1  0  0  0
 48 65  1  0  0  0
 48118  1  0  0  0
 49 50  1  0  0  0
 49 53  1  0  0  0
 49 64  1  0  0  0
 49119  1  0  0  0
 50 51  1  0  0  0
 50120  1  0  0  0
 50121  1  0  0  0
 51 52  1  0  0  0
 51122  1  0  0  0
 51123  1  0  0  0
 52124  1  0  0  0
 52125  1  0  0  0
 53 54  1  0  0  0
 54 55  2  0  0  0
 54126  1  0  0  0
 55 57  1  0  0  0
 55127  1  0  0  0
 56 69  2  0  0  0
 57 58  2  0  0  0
 57128  1  0  0  0
 58129  1  0  0  0
 59 60  1  0  0  0
 59 61  1  0  0  0
 59 62  1  0  0  0
 60130  1  0  0  0
 60131  1  0  0  0
 60132  1  0  0  0
 61133  1  0  0  0
 61134  1  0  0  0
 61135  1  0  0  0
 62136  1  0  0  0
 62137  1  0  0  0
 62138  1  0  0  0
 63 65  1  0  0  0
 63139  1  0  0  0
 63140  1  0  0  0
 63141  1  0  0  0
 64142  1  0  0  0
 65143  1  0  0  0
 68 78  1  0  0  0
 71 72  2  0  0  0
 71 80  1  0  0  0
 71144  1  0  0  0
 72 74  1  0  0  0
 72 84  1  0  0  0
 73 80  2  0  0  0
 73 81  1  0  0  0
 73 84  1  0  0  0
 74 75  2  0  0  0
 74145  1  0  0  0
 75146  1  0  0  0
 76 79  1  0  0  0
 76 81  1  0  0  0
 76 82  2  0  0  0
 77 78  1  0  0  0
 77 79  1  0  0  0
 77147  1  0  0  0
 77148  1  0  0  0
 78149  1  0  0  0
 78150  1  0  0  0
 79 83  1  0  0  0
 79151  1  0  0  0
 81152  1  0  0  0
M  ISO  4   1 100  68 101  75 100  78 101
M  END
> <chiral flag>
0

> <version>
0

> <s_m_source_file>
/data/baiqing/PycharmProjects/Reinvent-master-3.2/result/LINK_invent/BTK/process_docking_weight1_custom_product_contain_oxygen_bond_distance_aromatic_linkinvent_7_9_3/rearranged_h_0182.sdf

> <i_m_source_file_index>
15

> <r_mmod_Potential_Energy-OPLS-2005>
-97.5256729125977

> <r_mmod_Stretch_Energy-OPLS-2005>
30.0466804504395

> <r_mmod_Bend_Energy-OPLS-2005>
102.492599487305

> <r_mmod_Torsional_Energy-OPLS-2005>
205.403579711914

> <r_mmod_Improper_Torsional_Energy-OPLS-2005>
4.48645782470703

> <r_mmod_Van_der_Waal_Energy-OPLS-2005>
151.671829223633

> <r_mmod_Electrostatic_Energy-OPLS-2005>
-368.023529052734

> <r_mmod_Solvation_Energy-OPLS-2005>
-238.094467163086

> <b_mmod_Minimization_Converged-OPLS-2005>
0

> <r_mmod_RMS_Derivative-OPLS-2005>
4.86593723297119

$$$$
15
                    3D
 Structure written by MMmdl.
160168  0  0  1  0            999 V2000
  -30.6761  -14.5570   20.5026 C   0  0  0  0  0  0
  -30.4181  -12.3365   19.4493 C   0  0  0  0  0  0
  -29.4976  -12.4942   18.2207 C   0  0  0  0  0  0
  -28.0185  -12.3552   18.6294 C   0  0  0  0  0  0
  -27.6526  -13.2173   19.8674 C   0  0  2  0  0  0
  -28.6965  -13.0584   20.9963 C   0  0  0  0  0  0
  -25.2547  -13.8183   20.5695 C   0  0  0  0  0  0
  -24.1823  -13.0442   20.9197 C   0  0  0  0  0  0
  -24.6396  -11.6915   20.8749 C   0  0  0  0  0  0
  -23.9076  -10.4295   21.0414 C   0  0  0  0  0  0
  -24.3617   -9.4211   21.9192 C   0  0  0  0  0  0
  -23.6294   -8.2246   22.0766 C   0  0  0  0  0  0
  -22.4279   -8.0286   21.3546 C   0  0  0  0  0  0
  -21.9922   -9.0262   20.4649 C   0  0  0  0  0  0
  -22.7252  -10.2140   20.3062 C   0  0  0  0  0  0
  -21.6850   -6.0744   22.5275 C   0  0  0  0  0  0
  -21.4012   -6.5645   23.8209 C   0  0  0  0  0  0
  -21.3663   -5.6797   24.9173 C   0  0  0  0  0  0
  -21.6045   -4.3060   24.7222 C   0  0  0  0  0  0
  -21.8819   -3.8156   23.4340 C   0  0  0  0  0  0
  -21.9195   -4.6972   22.3396 C   0  0  0  0  0  0
  -22.7842  -13.5231   21.1859 C   0  0  0  0  0  0
  -22.1659   -4.2157   21.0970 F   0  0  0  0  0  0
  -21.5637   -3.4545   25.7737 F   0  0  0  0  0  0
  -30.0193  -13.3608   20.4317 N   0  0  0  0  0  0
  -26.2979  -12.9368   20.3352 N   0  0  0  0  0  0
  -25.9324  -11.6522   20.5783 N   0  0  0  0  0  0
  -22.0491  -12.8212   22.0406 N   0  0  0  0  0  0
  -25.4256  -15.1900   20.4070 N   0  0  0  0  0  0
  -31.8477  -14.6570   20.1275 O   0  0  0  0  0  0
  -21.6636   -6.8887   21.4241 O   0  0  0  0  0  0
  -22.3526  -14.5541   20.6721 O   0  0  0  0  0  0
  -24.6207  -31.8626   23.2078 C   0  0  0  0  0  0
  -25.9089  -32.4782   23.8373 C   0  0  1  0  0  0
  -27.2339  -27.3831   20.0948 C   0  0  0  0  0  0
  -25.5936  -33.8592   24.2308 N   0  0  0  0  0  0
  -23.4088  -30.4867   21.5488 C   0  0  2  0  0  0
  -24.8543  -28.9464   20.1137 C   0  0  0  0  0  0
  -22.7424  -29.4637   22.4969 C   0  0  0  0  0  0
  -18.0270  -28.1363   22.8485 C   0  0  0  0  0  0
  -24.1481  -36.7278   23.2641 C   0  0  0  0  0  0
  -25.9431  -30.8115   21.3700 C   0  0  0  0  0  0
  -26.0175  -29.4444   20.7113 C   0  0  0  0  0  0
  -27.2066  -28.6706   20.6973 C   0  0  0  0  0  0
  -26.0405  -26.9072   19.5031 C   0  0  0  0  0  0
  -24.8635  -27.6795   19.5076 C   0  0  0  0  0  0
  -23.6182  -29.8176   20.1643 C   0  0  0  0  0  0
  -25.4113  -36.3085   24.0327 C   0  0  1  0  0  0
  -20.5860  -28.3666   23.1286 C   0  0  2  0  0  0
  -20.6756  -26.9391   22.5412 C   0  0  0  0  0  0
  -19.5729  -26.6370   21.5210 C   0  0  0  0  0  0
  -18.1904  -26.7909   22.1614 C   0  0  0  0  0  0
  -19.1524  -28.8839   23.2872 C   0  0  0  0  0  0
  -18.9456  -30.1454   23.8864 C   0  0  0  0  0  0
  -17.6459  -30.6568   24.0570 C   0  0  0  0  0  0
  -25.9048  -34.9455   23.5112 C   0  0  0  0  0  0
  -16.5349  -29.9063   23.6347 C   0  0  0  0  0  0
  -16.7269  -28.6491   23.0350 C   0  0  0  0  0  0
  -26.4516  -31.6574   25.0725 C   0  0  0  0  0  0
  -25.3781  -31.3658   26.1470 C   0  0  0  0  0  0
  -27.0386  -30.3014   24.6148 C   0  0  0  0  0  0
  -27.6077  -32.4314   25.7488 C   0  0  0  0  0  0
  -27.5576  -37.1794   24.8476 C   0  0  0  0  0  0
  -21.4149  -29.3028   22.3696 N   0  0  0  0  0  0
  -26.4295  -37.3782   23.9412 N   0  0  0  0  0  0
  -24.6754  -31.0689   22.0998 N   0  0  0  0  0  0
  -23.4176  -28.8194   23.3036 O   0  0  0  0  0  0
  -28.4047  -26.6322   20.1310 O   0  0  0  0  0  0
  -26.5594  -34.8916   22.4665 O   0  0  0  0  0  0
  -23.5393  -32.1415   23.7445 O   0  0  0  0  0  0
  -30.2139  -19.5611   20.2884 C   0  0  0  0  0  0
  -31.3910  -18.9014   19.9735 C   0  0  0  0  0  0
  -30.1841  -17.0491   20.6040 C   0  0  0  0  0  0
  -29.8880  -21.0408   20.2481 C   0  0  0  0  0  0
  -28.4444  -24.0751   20.1627 C   0  0  0  0  0  0
  -25.7645  -22.4507   19.9944 C   0  0  0  0  0  0
  -26.6062  -21.5202   17.7961 C   0  0  0  0  0  0
  -28.5363  -25.4085   19.3507 C   0  0  0  0  0  0
  -28.2617  -22.7520   19.3225 C   0  0  2  0  0  0
  -26.7829  -22.6321   18.8483 C   0  0  0  0  0  0
  -31.3578  -17.5145   20.1571 N   0  0  0  0  0  0
  -32.5765  -19.4598   19.4870 N   0  0  0  0  0  0
  -29.9217  -15.6423   20.8349 N   0  0  0  0  0  0
  -28.6368  -21.4576   19.9696 N   0  0  0  0  0  0
  -30.8026  -21.8631   20.3337 O   0  0  0  0  0  0
  -28.5038  -24.0872   21.3967 O   0  0  0  0  0  0
  -29.0143  -18.3782   20.8421 S   0  0  0  0  0  0
  -31.4654  -12.4212   19.1508 H   0  0  0  0  0  0
  -30.3132  -11.3396   19.8801 H   0  0  0  0  0  0
  -29.7460  -11.7489   17.4639 H   0  0  0  0  0  0
  -29.6625  -13.4675   17.7565 H   0  0  0  0  0  0
  -27.8361  -11.3020   18.8453 H   0  0  0  0  0  0
  -27.3698  -12.6091   17.7899 H   0  0  0  0  0  0
  -27.6772  -14.2557   19.5379 H   0  0  0  0  0  0
  -28.6830  -12.0404   21.3884 H   0  0  0  0  0  0
  -28.4609  -13.7046   21.8438 H   0  0  0  0  0  0
  -25.2765   -9.5675   22.4769 H   0  0  0  0  0  0
  -24.0007   -7.4636   22.7485 H   0  0  0  0  0  0
  -21.0865   -8.8780   19.8940 H   0  0  0  0  0  0
  -22.3728  -10.9678   19.6165 H   0  0  0  0  0  0
  -21.1994   -7.6149   23.9712 H   0  0  0  0  0  0
  -21.1488   -6.0532   25.9078 H   0  0  0  0  0  0
  -22.0596   -2.7623   23.2843 H   0  0  0  0  0  0
  -22.4109  -11.9857   22.4759 H   0  0  0  0  0  0
  -21.1102  -13.1215   22.2614 H   0  0  0  0  0  0
  -24.6545  -15.8422   20.5038 H   0  0  0  0  0  0
  -26.2647  -15.6249   20.0454 H   0  0  0  0  0  0
  -26.7154  -32.5472   23.1121 H   0  0  0  0  0  0
  -25.0165  -33.9742   25.0511 H   0  0  0  0  0  0
  -22.7009  -31.3058   21.4068 H   0  0  0  0  0  0
  -23.3769  -35.9585   23.3310 H   0  0  0  0  0  0
  -24.3562  -36.8904   22.2052 H   0  0  0  0  0  0
  -23.7215  -37.6466   23.6672 H   0  0  0  0  0  0
  -26.0696  -31.5801   20.6070 H   0  0  0  0  0  0
  -26.8243  -30.8558   21.9982 H   0  0  0  0  0  0
  -28.1057  -29.0548   21.1592 H   0  0  0  0  0  0
  -25.9793  -25.9292   19.0520 H   0  0  0  0  0  0
  -23.9655  -27.2857   19.0519 H   0  0  0  0  0  0
  -23.7241  -30.5908   19.4023 H   0  0  0  0  0  0
  -22.7424  -29.2360   19.8704 H   0  0  0  0  0  0
  -25.1294  -36.1941   25.0821 H   0  0  0  0  0  0
  -20.9943  -28.3237   24.1410 H   0  0  0  0  0  0
  -20.5642  -26.2273   23.3606 H   0  0  0  0  0  0
  -21.6625  -26.7407   22.1212 H   0  0  0  0  0  0
  -19.6885  -25.6287   21.1227 H   0  0  0  0  0  0
  -19.6663  -27.3190   20.6744 H   0  0  0  0  0  0
  -17.4176  -26.6686   21.4006 H   0  0  0  0  0  0
  -18.0294  -26.0031   22.8985 H   0  0  0  0  0  0
  -19.7934  -30.7294   24.2183 H   0  0  0  0  0  0
  -17.5012  -31.6234   24.5190 H   0  0  0  0  0  0
  -15.5355  -30.2958   23.7685 H   0  0  0  0  0  0
  -15.8666  -28.0826   22.7050 H   0  0  0  0  0  0
  -24.5982  -30.6975   25.7805 H   0  0  0  0  0  0
  -24.8957  -32.2802   26.4926 H   0  0  0  0  0  0
  -25.8154  -30.8832   27.0222 H   0  0  0  0  0  0
  -26.2952  -29.6708   24.1264 H   0  0  0  0  0  0
  -27.4216  -29.7315   25.4623 H   0  0  0  0  0  0
  -27.8752  -30.4327   23.9284 H   0  0  0  0  0  0
  -27.2703  -33.3635   26.2027 H   0  0  0  0  0  0
  -28.3906  -32.6828   25.0323 H   0  0  0  0  0  0
  -28.0724  -31.8465   26.5434 H   0  0  0  0  0  0
  -28.2602  -38.0080   24.7532 H   0  0  0  0  0  0
  -28.1061  -36.2617   24.6313 H   0  0  0  0  0  0
  -27.2277  -37.1456   25.8872 H   0  0  0  0  0  0
  -20.9319  -29.8764   21.6925 H   0  0  0  0  0  0
  -26.0176  -38.2853   24.1441 H   0  0  0  0  0  0
  -24.7498  -22.3687   19.6033 H   0  0  0  0  0  0
  -25.7676  -23.2980   20.6811 H   0  0  0  0  0  0
  -25.9605  -21.5516   20.5784 H   0  0  0  0  0  0
  -25.5949  -21.5260   17.3881 H   0  0  0  0  0  0
  -26.7808  -20.5280   18.2114 H   0  0  0  0  0  0
  -27.2908  -21.6531   16.9576 H   0  0  0  0  0  0
  -27.8631  -25.3860   18.4971 H   0  0  0  0  0  0
  -29.5326  -25.4277   18.9104 H   0  0  0  0  0  0
  -28.8916  -22.8547   18.4373 H   0  0  0  0  0  0
  -26.5200  -23.5617   18.3397 H   0  0  0  0  0  0
  -32.7034  -20.4669   19.5191 H   0  0  0  0  0  0
  -33.4336  -18.9181   19.4754 H   0  0  0  0  0  0
  -28.9924  -15.4276   21.1591 H   0  0  0  0  0  0
  -27.9212  -20.7468   19.9558 H   0  0  0  0  0  0
  1 25  1  0  0  0
  1 30  2  0  0  0
  1 83  1  0  0  0
  2  3  1  0  0  0
  2 25  1  0  0  0
  2 88  1  0  0  0
  2 89  1  0  0  0
  3  4  1  0  0  0
  3 90  1  0  0  0
  3 91  1  0  0  0
  4  5  1  0  0  0
  4 92  1  0  0  0
  4 93  1  0  0  0
  5  6  1  0  0  0
  5 26  1  0  0  0
  5 94  1  0  0  0
  6 25  1  0  0  0
  6 95  1  0  0  0
  6 96  1  0  0  0
  7  8  2  0  0  0
  7 26  1  0  0  0
  7 29  1  0  0  0
  8  9  1  0  0  0
  8 22  1  0  0  0
  9 10  1  0  0  0
  9 27  2  0  0  0
 10 11  2  0  0  0
 10 15  1  0  0  0
 11 12  1  0  0  0
 11 97  1  0  0  0
 12 13  2  0  0  0
 12 98  1  0  0  0
 13 14  1  0  0  0
 13 31  1  0  0  0
 14 15  2  0  0  0
 14 99  1  0  0  0
 15100  1  0  0  0
 16 17  2  0  0  0
 16 21  1  0  0  0
 16 31  1  0  0  0
 17 18  1  0  0  0
 17101  1  0  0  0
 18 19  2  0  0  0
 18102  1  0  0  0
 19 20  1  0  0  0
 19 24  1  0  0  0
 20 21  2  0  0  0
 20103  1  0  0  0
 21 23  1  0  0  0
 22 28  1  0  0  0
 22 32  2  0  0  0
 26 27  1  0  0  0
 28104  1  0  0  0
 28105  1  0  0  0
 29106  1  0  0  0
 29107  1  0  0  0
 33 34  1  0  0  0
 33 66  1  0  0  0
 33 70  2  0  0  0
 34 36  1  0  0  0
 34 59  1  0  0  0
 34108  1  0  0  0
 35 44  2  0  0  0
 35 45  1  0  0  0
 35 68  1  0  0  0
 36 56  1  0  0  0
 36109  1  0  0  0
 37 39  1  0  0  0
 37 47  1  0  0  0
 37 66  1  0  0  0
 37110  1  0  0  0
 38 43  2  0  0  0
 38 46  1  0  0  0
 38 47  1  0  0  0
 39 64  1  0  0  0
 39 67  2  0  0  0
 40 52  1  0  0  0
 40 53  2  0  0  0
 40 58  1  0  0  0
 41111  1  0  0  0
 41112  1  0  0  0
 41113  1  0  0  0
 41 48  1  0  0  0
 42 43  1  0  0  0
 42 66  1  0  0  0
 42114  1  0  0  0
 42115  1  0  0  0
 43 44  1  0  0  0
 44116  1  0  0  0
 45 46  2  0  0  0
 45117  1  0  0  0
 46118  1  0  0  0
 47119  1  0  0  0
 47120  1  0  0  0
 48 56  1  0  0  0
 48 65  1  0  0  0
 48121  1  0  0  0
 49 50  1  0  0  0
 49 53  1  0  0  0
 49 64  1  0  0  0
 49122  1  0  0  0
 50 51  1  0  0  0
 50123  1  0  0  0
 50124  1  0  0  0
 51 52  1  0  0  0
 51125  1  0  0  0
 51126  1  0  0  0
 52127  1  0  0  0
 52128  1  0  0  0
 53 54  1  0  0  0
 54 55  2  0  0  0
 54129  1  0  0  0
 55 57  1  0  0  0
 55130  1  0  0  0
 56 69  2  0  0  0
 57 58  2  0  0  0
 57131  1  0  0  0
 58132  1  0  0  0
 59 60  1  0  0  0
 59 61  1  0  0  0
 59 62  1  0  0  0
 60133  1  0  0  0
 60134  1  0  0  0
 60135  1  0  0  0
 61136  1  0  0  0
 61137  1  0  0  0
 61138  1  0  0  0
 62139  1  0  0  0
 62140  1  0  0  0
 62141  1  0  0  0
 63 65  1  0  0  0
 63142  1  0  0  0
 63143  1  0  0  0
 63144  1  0  0  0
 64145  1  0  0  0
 65146  1  0  0  0
 68 78  1  0  0  0
 71 72  2  0  0  0
 71 74  1  0  0  0
 71 87  1  0  0  0
 72 81  1  0  0  0
 72 82  1  0  0  0
 73 81  2  0  0  0
 73 83  1  0  0  0
 73 87  1  0  0  0
 74 84  1  0  0  0
 74 85  2  0  0  0
 75 78  1  0  0  0
 75 79  1  0  0  0
 75 86  2  0  0  0
 76147  1  0  0  0
 76148  1  0  0  0
 76149  1  0  0  0
 76 80  1  0  0  0
 77 80  1  0  0  0
 77150  1  0  0  0
 77151  1  0  0  0
 77152  1  0  0  0
 78153  1  0  0  0
 78154  1  0  0  0
 79 80  1  0  0  0
 79 84  1  0  0  0
 79155  1  0  0  0
 80156  1  0  0  0
 82157  1  0  0  0
 82158  1  0  0  0
 83159  1  0  0  0
 84160  1  0  0  0
M  ISO  4   1 100  68 101  78 101  83 100
M  END
> <chiral flag>
0

> <version>
0

> <s_m_source_file>
/data/baiqing/PycharmProjects/Reinvent-master-3.2/result/LINK_invent/BTK/process_docking_weight1_custom_product_contain_oxygen_bond_distance_aromatic_linkinvent_7_9_3/rearranged_h_0182.sdf

> <i_m_source_file_index>
16

> <r_mmod_Potential_Energy-OPLS-2005>
-110.648727416992

> <r_mmod_Stretch_Energy-OPLS-2005>
56.3072280883789

> <r_mmod_Bend_Energy-OPLS-2005>
135.733352661133

> <r_mmod_Torsional_Energy-OPLS-2005>
235.133819580078

> <r_mmod_Improper_Torsional_Energy-OPLS-2005>
8.27573490142822

> <r_mmod_Van_der_Waal_Energy-OPLS-2005>
126.877319335938

> <r_mmod_Electrostatic_Energy-OPLS-2005>
-418.121124267578

> <r_mmod_Solvation_Energy-OPLS-2005>
-280.751159667969

> <b_mmod_Minimization_Converged-OPLS-2005>
0

> <r_mmod_RMS_Derivative-OPLS-2005>
1.57931625843048

$$$$
16
                    3D
 Structure written by MMmdl.
149157  0  0  1  0            999 V2000
  -30.5870  -14.8032   20.4467 C   0  0  0  0  0  0
  -30.4374  -12.4898   19.4880 C   0  0  0  0  0  0
  -29.5198  -12.5230   18.2451 C   0  0  0  0  0  0
  -28.0460  -12.3361   18.6541 C   0  0  0  0  0  0
  -27.6416  -13.2398   19.8500 C   0  0  2  0  0  0
  -28.6835  -13.1906   20.9905 C   0  0  0  0  0  0
  -25.2502  -13.8197   20.5690 C   0  0  0  0  0  0
  -24.1804  -13.0438   20.9215 C   0  0  0  0  0  0
  -24.6402  -11.6920   20.8743 C   0  0  0  0  0  0
  -23.9077  -10.4296   21.0400 C   0  0  0  0  0  0
  -24.3630   -9.4209   21.9177 C   0  0  0  0  0  0
  -23.6306   -8.2242   22.0742 C   0  0  0  0  0  0
  -22.4283   -8.0286   21.3540 C   0  0  0  0  0  0
  -21.9923   -9.0259   20.4638 C   0  0  0  0  0  0
  -22.7251  -10.2135   20.3048 C   0  0  0  0  0  0
  -21.6858   -6.0739   22.5277 C   0  0  0  0  0  0
  -21.4024   -6.5638   23.8214 C   0  0  0  0  0  0
  -21.3668   -5.6786   24.9173 C   0  0  0  0  0  0
  -21.6044   -4.3047   24.7218 C   0  0  0  0  0  0
  -21.8819   -3.8147   23.4336 C   0  0  0  0  0  0
  -21.9195   -4.6970   22.3398 C   0  0  0  0  0  0
  -22.7825  -13.5218   21.1883 C   0  0  0  0  0  0
  -22.1661   -4.2154   21.0979 F   0  0  0  0  0  0
  -21.5631   -3.4529   25.7732 F   0  0  0  0  0  0
  -29.9842  -13.5586   20.4142 N   0  0  0  0  0  0
  -26.2939  -12.9422   20.3263 N   0  0  0  0  0  0
  -25.9338  -11.6562   20.5732 N   0  0  0  0  0  0
  -22.0469  -12.8207   22.0441 N   0  0  0  0  0  0
  -25.4174  -15.1923   20.4079 N   0  0  0  0  0  0
  -31.7707  -14.8969   20.1041 O   0  0  0  0  0  0
  -21.6645   -6.8881   21.4239 O   0  0  0  0  0  0
  -22.3505  -14.5525   20.6730 O   0  0  0  0  0  0
  -24.6352  -31.8518   23.1937 C   0  0  0  0  0  0
  -25.9150  -32.4739   23.8317 C   0  0  1  0  0  0
  -27.2187  -27.2228   20.1230 C   0  0  0  0  0  0
  -25.5925  -33.8541   24.2236 N   0  0  0  0  0  0
  -23.4328  -30.4730   21.5400 C   0  0  2  0  0  0
  -24.8769  -28.9143   20.1070 C   0  0  0  0  0  0
  -22.7519  -29.4589   22.4908 C   0  0  0  0  0  0
  -18.0287  -28.1374   22.8485 C   0  0  0  0  0  0
  -24.1484  -36.7289   23.2641 C   0  0  0  0  0  0
  -25.9810  -30.7537   21.3762 C   0  0  0  0  0  0
  -26.0509  -29.3723   20.7168 C   0  0  0  0  0  0
  -27.2192  -28.5392   20.7126 C   0  0  0  0  0  0
  -26.0140  -26.8397   19.4892 C   0  0  0  0  0  0
  -24.8669  -27.6583   19.4831 C   0  0  0  0  0  0
  -23.6491  -29.8048   20.1564 C   0  0  0  0  0  0
  -25.4110  -36.3066   24.0324 C   0  0  1  0  0  0
  -20.5892  -28.3697   23.1252 C   0  0  2  0  0  0
  -20.6762  -26.9408   22.5402 C   0  0  0  0  0  0
  -19.5736  -26.6372   21.5207 C   0  0  0  0  0  0
  -18.1920  -26.7912   22.1628 C   0  0  0  0  0  0
  -19.1539  -28.8848   23.2862 C   0  0  0  0  0  0
  -18.9465  -30.1445   23.8889 C   0  0  0  0  0  0
  -17.6463  -30.6575   24.0557 C   0  0  0  0  0  0
  -25.9062  -34.9439   23.5093 C   0  0  0  0  0  0
  -16.5353  -29.9076   23.6322 C   0  0  0  0  0  0
  -16.7273  -28.6486   23.0353 C   0  0  0  0  0  0
  -26.4491  -31.6574   25.0734 C   0  0  0  0  0  0
  -25.3707  -31.3735   26.1459 C   0  0  0  0  0  0
  -27.0340  -30.2977   24.6248 C   0  0  0  0  0  0
  -27.6039  -32.4316   25.7514 C   0  0  0  0  0  0
  -27.5582  -37.1793   24.8460 C   0  0  0  0  0  0
  -21.4219  -29.3050   22.3653 N   0  0  0  0  0  0
  -26.4282  -37.3773   23.9418 N   0  0  0  0  0  0
  -24.7029  -31.0449   22.0932 N   0  0  0  0  0  0
  -23.4198  -28.8135   23.3025 O   0  0  0  0  0  0
  -28.3236  -26.3294   20.2220 O   0  0  0  0  0  0
  -26.5658  -34.8923   22.4680 O   0  0  0  0  0  0
  -23.5490  -32.1358   23.7208 O   0  0  0  0  0  0
  -30.9843  -17.9430   19.6915 C   0  0  0  0  0  0
  -29.9671  -17.3963   20.4424 C   0  0  0  0  0  0
  -29.3962  -19.7627   20.4909 C   0  0  0  0  0  0
  -28.7434  -21.1453   20.9439 C   0  0  0  0  0  0
  -28.4459  -23.6527   20.6380 C   0  0  0  0  0  0
  -29.6355  -24.9479   18.7222 C   0  0  0  0  0  0
  -28.4003  -24.9245   19.6320 C   0  0  2  0  0  0
  -29.0869  -18.4641   20.8750 N   0  0  0  0  0  0
  -29.7988  -15.9300   20.7109 N   0  0  0  0  0  0
  -28.8686  -22.3631   20.2603 N   0  0  0  0  0  0
  -28.0556  -21.0677   21.9707 O   0  0  0  0  0  0
  -28.0542  -23.8866   21.7868 O   0  0  0  0  0  0
  -30.8689  -19.7087   19.5160 S   0  0  0  0  0  0
  -31.4788  -12.6173   19.1886 H   0  0  0  0  0  0
  -30.3864  -11.5152   19.9760 H   0  0  0  0  0  0
  -29.8163  -11.7478   17.5374 H   0  0  0  0  0  0
  -29.6379  -13.4738   17.7227 H   0  0  0  0  0  0
  -27.9110  -11.2882   18.9242 H   0  0  0  0  0  0
  -27.3888  -12.5146   17.8014 H   0  0  0  0  0  0
  -27.6278  -14.2592   19.4648 H   0  0  0  0  0  0
  -28.7288  -12.1939   21.4325 H   0  0  0  0  0  0
  -28.4023  -13.8692   21.7986 H   0  0  0  0  0  0
  -25.2778   -9.5689   22.4750 H   0  0  0  0  0  0
  -24.0022   -7.4632   22.7455 H   0  0  0  0  0  0
  -21.0852   -8.8783   19.8945 H   0  0  0  0  0  0
  -22.3711  -10.9680   19.6162 H   0  0  0  0  0  0
  -21.2020   -7.6146   23.9723 H   0  0  0  0  0  0
  -21.1495   -6.0511   25.9078 H   0  0  0  0  0  0
  -22.0592   -2.7608   23.2833 H   0  0  0  0  0  0
  -22.4083  -11.9875   22.4849 H   0  0  0  0  0  0
  -21.1082  -13.1219   22.2629 H   0  0  0  0  0  0
  -24.6445  -15.8418   20.5013 H   0  0  0  0  0  0
  -26.2591  -15.6317   20.0585 H   0  0  0  0  0  0
  -26.7236  -32.5367   23.1075 H   0  0  0  0  0  0
  -25.0026  -33.9674   25.0350 H   0  0  0  0  0  0
  -22.7326  -31.2977   21.3931 H   0  0  0  0  0  0
  -23.3750  -35.9616   23.3272 H   0  0  0  0  0  0
  -24.3586  -36.8947   22.2062 H   0  0  0  0  0  0
  -23.7222  -37.6476   23.6686 H   0  0  0  0  0  0
  -26.1226  -31.5104   20.6026 H   0  0  0  0  0  0
  -26.8577  -30.8038   22.0108 H   0  0  0  0  0  0
  -28.1167  -28.8885   21.2042 H   0  0  0  0  0  0
  -25.8983  -25.8782   19.0185 H   0  0  0  0  0  0
  -23.9658  -27.2968   19.0067 H   0  0  0  0  0  0
  -23.7759  -30.5808   19.4006 H   0  0  0  0  0  0
  -22.7656  -29.2401   19.8518 H   0  0  0  0  0  0
  -25.1285  -36.1919   25.0813 H   0  0  0  0  0  0
  -20.9981  -28.3271   24.1373 H   0  0  0  0  0  0
  -20.5626  -26.2323   23.3619 H   0  0  0  0  0  0
  -21.6632  -26.7406   22.1215 H   0  0  0  0  0  0
  -19.6894  -25.6280   21.1237 H   0  0  0  0  0  0
  -19.6651  -27.3181   20.6728 H   0  0  0  0  0  0
  -17.4184  -26.6651   21.4034 H   0  0  0  0  0  0
  -18.0329  -26.0049   22.9020 H   0  0  0  0  0  0
  -19.7942  -30.7253   24.2257 H   0  0  0  0  0  0
  -17.5020  -31.6255   24.5161 H   0  0  0  0  0  0
  -15.5349  -30.2979   23.7633 H   0  0  0  0  0  0
  -15.8675  -28.0796   22.7079 H   0  0  0  0  0  0
  -24.5853  -30.7120   25.7784 H   0  0  0  0  0  0
  -24.8945  -32.2913   26.4911 H   0  0  0  0  0  0
  -25.8014  -30.8882   27.0227 H   0  0  0  0  0  0
  -26.2933  -29.6722   24.1247 H   0  0  0  0  0  0
  -27.3969  -29.7239   25.4790 H   0  0  0  0  0  0
  -27.8837  -30.4227   23.9530 H   0  0  0  0  0  0
  -27.2627  -33.3601   26.2099 H   0  0  0  0  0  0
  -28.3844  -32.6893   25.0345 H   0  0  0  0  0  0
  -28.0718  -31.8447   26.5430 H   0  0  0  0  0  0
  -28.2574  -38.0115   24.7544 H   0  0  0  0  0  0
  -28.1099  -36.2653   24.6222 H   0  0  0  0  0  0
  -27.2324  -37.1370   25.8867 H   0  0  0  0  0  0
  -20.9404  -29.8806   21.6887 H   0  0  0  0  0  0
  -26.0159  -38.2845   24.1422 H   0  0  0  0  0  0
  -31.8046  -17.4237   19.2128 H   0  0  0  0  0  0
  -29.5553  -25.7575   17.9967 H   0  0  0  0  0  0
  -29.7412  -24.0224   18.1567 H   0  0  0  0  0  0
  -30.5485  -25.1045   19.2966 H   0  0  0  0  0  0
  -27.5623  -24.7266   18.9721 H   0  0  0  0  0  0
  -28.8964  -15.6849   21.0858 H   0  0  0  0  0  0
  -29.3096  -22.2914   19.3575 H   0  0  0  0  0  0
  1 25  1  0  0  0
  1 30  2  0  0  0
  1 79  1  0  0  0
  2  3  1  0  0  0
  2 25  1  0  0  0
  2 84  1  0  0  0
  2 85  1  0  0  0
  3  4  1  0  0  0
  3 86  1  0  0  0
  3 87  1  0  0  0
  4  5  1  0  0  0
  4 88  1  0  0  0
  4 89  1  0  0  0
  5  6  1  0  0  0
  5 26  1  0  0  0
  5 90  1  0  0  0
  6 25  1  0  0  0
  6 91  1  0  0  0
  6 92  1  0  0  0
  7  8  2  0  0  0
  7 26  1  0  0  0
  7 29  1  0  0  0
  8  9  1  0  0  0
  8 22  1  0  0  0
  9 10  1  0  0  0
  9 27  2  0  0  0
 10 11  2  0  0  0
 10 15  1  0  0  0
 11 12  1  0  0  0
 11 93  1  0  0  0
 12 13  2  0  0  0
 12 94  1  0  0  0
 13 14  1  0  0  0
 13 31  1  0  0  0
 14 15  2  0  0  0
 14 95  1  0  0  0
 15 96  1  0  0  0
 16 17  2  0  0  0
 16 21  1  0  0  0
 16 31  1  0  0  0
 17 18  1  0  0  0
 17 97  1  0  0  0
 18 19  2  0  0  0
 18 98  1  0  0  0
 19 20  1  0  0  0
 19 24  1  0  0  0
 20 21  2  0  0  0
 20 99  1  0  0  0
 21 23  1  0  0  0
 22 28  1  0  0  0
 22 32  2  0  0  0
 26 27  1  0  0  0
 28100  1  0  0  0
 28101  1  0  0  0
 29102  1  0  0  0
 29103  1  0  0  0
 33 34  1  0  0  0
 33 66  1  0  0  0
 33 70  2  0  0  0
 34 36  1  0  0  0
 34 59  1  0  0  0
 34104  1  0  0  0
 35 44  2  0  0  0
 35 45  1  0  0  0
 35 68  1  0  0  0
 36 56  1  0  0  0
 36105  1  0  0  0
 37 39  1  0  0  0
 37 47  1  0  0  0
 37 66  1  0  0  0
 37106  1  0  0  0
 38 43  2  0  0  0
 38 46  1  0  0  0
 38 47  1  0  0  0
 39 64  1  0  0  0
 39 67  2  0  0  0
 40 52  1  0  0  0
 40 53  2  0  0  0
 40 58  1  0  0  0
 41107  1  0  0  0
 41108  1  0  0  0
 41109  1  0  0  0
 41 48  1  0  0  0
 42 43  1  0  0  0
 42 66  1  0  0  0
 42110  1  0  0  0
 42111  1  0  0  0
 43 44  1  0  0  0
 44112  1  0  0  0
 45 46  2  0  0  0
 45113  1  0  0  0
 46114  1  0  0  0
 47115  1  0  0  0
 47116  1  0  0  0
 48 56  1  0  0  0
 48 65  1  0  0  0
 48117  1  0  0  0
 49 50  1  0  0  0
 49 53  1  0  0  0
 49 64  1  0  0  0
 49118  1  0  0  0
 50 51  1  0  0  0
 50119  1  0  0  0
 50120  1  0  0  0
 51 52  1  0  0  0
 51121  1  0  0  0
 51122  1  0  0  0
 52123  1  0  0  0
 52124  1  0  0  0
 53 54  1  0  0  0
 54 55  2  0  0  0
 54125  1  0  0  0
 55 57  1  0  0  0
 55126  1  0  0  0
 56 69  2  0  0  0
 57 58  2  0  0  0
 57127  1  0  0  0
 58128  1  0  0  0
 59 60  1  0  0  0
 59 61  1  0  0  0
 59 62  1  0  0  0
 60129  1  0  0  0
 60130  1  0  0  0
 60131  1  0  0  0
 61132  1  0  0  0
 61133  1  0  0  0
 61134  1  0  0  0
 62135  1  0  0  0
 62136  1  0  0  0
 62137  1  0  0  0
 63 65  1  0  0  0
 63138  1  0  0  0
 63139  1  0  0  0
 63140  1  0  0  0
 64141  1  0  0  0
 65142  1  0  0  0
 68 77  1  0  0  0
 71 72  2  0  0  0
 71 83  1  0  0  0
 71143  1  0  0  0
 72 78  1  0  0  0
 72 79  1  0  0  0
 73 74  1  0  0  0
 73 78  2  0  0  0
 73 83  1  0  0  0
 74 80  1  0  0  0
 74 81  2  0  0  0
 75 77  1  0  0  0
 75 80  1  0  0  0
 75 82  2  0  0  0
 76144  1  0  0  0
 76145  1  0  0  0
 76146  1  0  0  0
 76 77  1  0  0  0
 77147  1  0  0  0
 79148  1  0  0  0
 80149  1  0  0  0
M  ISO  4   1 100  68 101  77 101  79 100
M  END
> <chiral flag>
0

> <version>
0

> <s_m_source_file>
/data/baiqing/PycharmProjects/Reinvent-master-3.2/result/LINK_invent/BTK/process_docking_weight1_custom_product_contain_oxygen_bond_distance_aromatic_linkinvent_7_9_3/rearranged_h_0182.sdf

> <i_m_source_file_index>
17

> <r_mmod_Potential_Energy-OPLS-2005>
80.2024993896484

> <r_mmod_Stretch_Energy-OPLS-2005>
153.594818115234

> <r_mmod_Bend_Energy-OPLS-2005>
198.996307373047

> <r_mmod_Torsional_Energy-OPLS-2005>
240.997055053711

> <r_mmod_Improper_Torsional_Energy-OPLS-2005>
4.51731157302856

> <r_mmod_Van_der_Waal_Energy-OPLS-2005>
119.875991821289

> <r_mmod_Electrostatic_Energy-OPLS-2005>
-452.373077392578

> <r_mmod_Solvation_Energy-OPLS-2005>
-294.358001708984

> <b_mmod_Minimization_Converged-OPLS-2005>
0

> <r_mmod_RMS_Derivative-OPLS-2005>
1.77761650085449

$$$$
17
                    3D
 Structure written by MMmdl.
157165  0  0  1  0            999 V2000
  -30.5778  -14.7434   20.4636 C   0  0  0  0  0  0
  -30.4426  -12.4468   19.4770 C   0  0  0  0  0  0
  -29.5173  -12.5068   18.2393 C   0  0  0  0  0  0
  -28.0416  -12.3225   18.6471 C   0  0  0  0  0  0
  -27.6429  -13.2213   19.8460 C   0  0  2  0  0  0
  -28.6851  -13.1490   20.9828 C   0  0  0  0  0  0
  -25.2540  -13.8175   20.5681 C   0  0  0  0  0  0
  -24.1818  -13.0435   20.9195 C   0  0  0  0  0  0
  -24.6391  -11.6907   20.8737 C   0  0  0  0  0  0
  -23.9063  -10.4291   21.0407 C   0  0  0  0  0  0
  -24.3616   -9.4207   21.9184 C   0  0  0  0  0  0
  -23.6292   -8.2242   22.0754 C   0  0  0  0  0  0
  -22.4273   -8.0281   21.3545 C   0  0  0  0  0  0
  -21.9908   -9.0254   20.4647 C   0  0  0  0  0  0
  -22.7236  -10.2133   20.3056 C   0  0  0  0  0  0
  -21.6852   -6.0735   22.5279 C   0  0  0  0  0  0
  -21.4013   -6.5639   23.8212 C   0  0  0  0  0  0
  -21.3660   -5.6793   24.9175 C   0  0  0  0  0  0
  -21.6045   -4.3056   24.7225 C   0  0  0  0  0  0
  -21.8819   -3.8146   23.4346 C   0  0  0  0  0  0
  -21.9193   -4.6963   22.3402 C   0  0  0  0  0  0
  -22.7842  -13.5227   21.1864 C   0  0  0  0  0  0
  -22.1661   -4.2149   21.0980 F   0  0  0  0  0  0
  -21.5630   -3.4539   25.7738 F   0  0  0  0  0  0
  -29.9959  -13.4957   20.4209 N   0  0  0  0  0  0
  -26.2944  -12.9351   20.3242 N   0  0  0  0  0  0
  -25.9314  -11.6506   20.5724 N   0  0  0  0  0  0
  -22.0488  -12.8218   22.0422 N   0  0  0  0  0  0
  -25.4248  -15.1901   20.4118 N   0  0  0  0  0  0
  -31.7601  -14.8669   20.1280 O   0  0  0  0  0  0
  -21.6639   -6.8877   21.4240 O   0  0  0  0  0  0
  -22.3523  -14.5534   20.6715 O   0  0  0  0  0  0
  -24.6296  -31.8544   23.1958 C   0  0  0  0  0  0
  -25.9123  -32.4746   23.8311 C   0  0  1  0  0  0
  -27.2280  -27.2742   20.1446 C   0  0  0  0  0  0
  -25.5922  -33.8547   24.2244 N   0  0  0  0  0  0
  -23.4262  -30.4735   21.5392 C   0  0  2  0  0  0
  -24.8748  -28.9128   20.1155 C   0  0  0  0  0  0
  -22.7495  -29.4590   22.4920 C   0  0  0  0  0  0
  -18.0291  -28.1386   22.8484 C   0  0  0  0  0  0
  -24.1490  -36.7278   23.2642 C   0  0  0  0  0  0
  -25.9683  -30.7752   21.3687 C   0  0  0  0  0  0
  -26.0442  -29.3963   20.7155 C   0  0  0  0  0  0
  -27.2269  -28.5943   20.7054 C   0  0  0  0  0  0
  -26.0387  -26.8455   19.5228 C   0  0  0  0  0  0
  -24.8761  -27.6456   19.5062 C   0  0  0  0  0  0
  -23.6440  -29.7987   20.1582 C   0  0  0  0  0  0
  -25.4116  -36.3063   24.0327 C   0  0  1  0  0  0
  -20.5894  -28.3689   23.1279 C   0  0  2  0  0  0
  -20.6778  -26.9408   22.5414 C   0  0  0  0  0  0
  -19.5755  -26.6382   21.5215 C   0  0  0  0  0  0
  -18.1934  -26.7928   22.1625 C   0  0  0  0  0  0
  -19.1544  -28.8855   23.2875 C   0  0  0  0  0  0
  -18.9467  -30.1458   23.8891 C   0  0  0  0  0  0
  -17.6466  -30.6586   24.0562 C   0  0  0  0  0  0
  -25.9056  -34.9434   23.5092 C   0  0  0  0  0  0
  -16.5357  -29.9083   23.6331 C   0  0  0  0  0  0
  -16.7277  -28.6503   23.0349 C   0  0  0  0  0  0
  -26.4498  -31.6566   25.0697 C   0  0  0  0  0  0
  -25.3725  -31.3715   26.1423 C   0  0  0  0  0  0
  -27.0346  -30.2984   24.6164 C   0  0  0  0  0  0
  -27.6049  -32.4308   25.7476 C   0  0  0  0  0  0
  -27.5577  -37.1794   24.8466 C   0  0  0  0  0  0
  -21.4203  -29.3034   22.3667 N   0  0  0  0  0  0
  -26.4289  -37.3764   23.9409 N   0  0  0  0  0  0
  -24.6939  -31.0525   22.0917 N   0  0  0  0  0  0
  -23.4198  -28.8145   23.3027 O   0  0  0  0  0  0
  -28.3464  -26.4139   20.1486 O   0  0  0  0  0  0
  -26.5635  -34.8913   22.4665 O   0  0  0  0  0  0
  -23.5451  -32.1356   23.7268 O   0  0  0  0  0  0
  -29.3746  -18.8230   20.2627 C   0  0  0  0  0  0
  -28.1484  -18.8605   19.6380 C   0  0  0  0  0  0
  -28.8370  -21.1692   20.2486 C   0  0  0  0  0  0
  -28.2706  -23.7252   20.1368 C   0  0  0  0  0  0
  -27.3338  -23.8576   22.9890 C   0  0  0  0  0  0
  -28.0718  -26.2264   23.2307 C   0  0  0  0  0  0
  -30.3076  -17.5512   20.4380 C   0  0  0  0  0  0
  -29.7109  -16.0719   20.7328 C   0  0  0  0  0  0
  -28.3940  -25.1223   20.9322 C   0  0  2  0  0  0
  -27.5143  -25.1918   22.2313 C   0  0  0  0  0  0
  -29.7329  -20.1852   20.6143 N   0  0  0  0  0  0
  -28.9862  -22.6088   20.5581 N   0  0  0  0  0  0
  -27.5360  -23.6781   19.1467 O   0  0  0  0  0  0
  -27.5225  -17.7632   19.1460 F   0  0  0  0  0  0
  -27.4352  -20.4553   19.4443 S   0  0  0  0  0  0
  -31.4832  -12.5793   19.1765 H   0  0  0  0  0  0
  -30.3908  -11.4653   19.9509 H   0  0  0  0  0  0
  -29.8035  -11.7409   17.5173 H   0  0  0  0  0  0
  -29.6414  -13.4658   17.7338 H   0  0  0  0  0  0
  -27.9011  -11.2734   18.9102 H   0  0  0  0  0  0
  -27.3860  -12.5126   17.7965 H   0  0  0  0  0  0
  -27.6321  -14.2377   19.4579 H   0  0  0  0  0  0
  -28.7134  -12.1492   21.4189 H   0  0  0  0  0  0
  -28.4154  -13.8262   21.7942 H   0  0  0  0  0  0
  -25.2762   -9.5685   22.4756 H   0  0  0  0  0  0
  -24.0003   -7.4634   22.7474 H   0  0  0  0  0  0
  -21.0839   -8.8771   19.8952 H   0  0  0  0  0  0
  -22.3694  -10.9672   19.6165 H   0  0  0  0  0  0
  -21.2004   -7.6147   23.9715 H   0  0  0  0  0  0
  -21.1482   -6.0523   25.9078 H   0  0  0  0  0  0
  -22.0598   -2.7609   23.2846 H   0  0  0  0  0  0
  -22.4106  -11.9878   22.4806 H   0  0  0  0  0  0
  -21.1108  -13.1243   22.2634 H   0  0  0  0  0  0
  -24.6564  -15.8420   20.5248 H   0  0  0  0  0  0
  -26.2721  -15.6362   20.0823 H   0  0  0  0  0  0
  -26.7188  -32.5406   23.1055 H   0  0  0  0  0  0
  -25.0057  -33.9681   25.0382 H   0  0  0  0  0  0
  -22.7220  -31.2944   21.3894 H   0  0  0  0  0  0
  -23.3752  -35.9610   23.3305 H   0  0  0  0  0  0
  -24.3579  -36.8906   22.2057 H   0  0  0  0  0  0
  -23.7247  -37.6479   23.6672 H   0  0  0  0  0  0
  -26.1012  -31.5350   20.5972 H   0  0  0  0  0  0
  -26.8476  -30.8281   21.9990 H   0  0  0  0  0  0
  -28.1297  -28.9693   21.1666 H   0  0  0  0  0  0
  -26.0051  -25.8698   19.0594 H   0  0  0  0  0  0
  -23.9800  -27.2691   19.0326 H   0  0  0  0  0  0
  -23.7669  -30.5706   19.3975 H   0  0  0  0  0  0
  -22.7636  -29.2284   19.8566 H   0  0  0  0  0  0
  -25.1302  -36.1905   25.0820 H   0  0  0  0  0  0
  -20.9986  -28.3264   24.1400 H   0  0  0  0  0  0
  -20.5679  -26.2295   23.3615 H   0  0  0  0  0  0
  -21.6645  -26.7432   22.1209 H   0  0  0  0  0  0
  -19.6915  -25.6293   21.1245 H   0  0  0  0  0  0
  -19.6696  -27.3192   20.6746 H   0  0  0  0  0  0
  -17.4205  -26.6677   21.4026 H   0  0  0  0  0  0
  -18.0332  -26.0073   22.9024 H   0  0  0  0  0  0
  -19.7943  -30.7278   24.2254 H   0  0  0  0  0  0
  -17.5020  -31.6265   24.5164 H   0  0  0  0  0  0
  -15.5357  -30.2984   23.7658 H   0  0  0  0  0  0
  -15.8679  -28.0824   22.7060 H   0  0  0  0  0  0
  -24.5899  -30.7067   25.7750 H   0  0  0  0  0  0
  -24.8917  -32.2886   26.4839 H   0  0  0  0  0  0
  -25.8044  -30.8897   27.0203 H   0  0  0  0  0  0
  -26.2927  -29.6726   24.1187 H   0  0  0  0  0  0
  -27.4044  -29.7241   25.4669 H   0  0  0  0  0  0
  -27.8791  -30.4266   23.9389 H   0  0  0  0  0  0
  -27.2651  -33.3610   26.2043 H   0  0  0  0  0  0
  -28.3865  -32.6869   25.0310 H   0  0  0  0  0  0
  -28.0711  -31.8442   26.5403 H   0  0  0  0  0  0
  -28.2592  -38.0092   24.7509 H   0  0  0  0  0  0
  -28.1077  -36.2623   24.6297 H   0  0  0  0  0  0
  -27.2296  -37.1449   25.8870 H   0  0  0  0  0  0
  -20.9389  -29.8746   21.6864 H   0  0  0  0  0  0
  -26.0167  -38.2837   24.1410 H   0  0  0  0  0  0
  -26.7541  -24.0022   23.9015 H   0  0  0  0  0  0
  -28.2919  -23.4251   23.2796 H   0  0  0  0  0  0
  -26.7919  -23.1188   22.3976 H   0  0  0  0  0  0
  -27.3907  -26.3708   24.0700 H   0  0  0  0  0  0
  -28.2277  -27.2019   22.7763 H   0  0  0  0  0  0
  -29.0320  -25.9070   23.6372 H   0  0  0  0  0  0
  -31.0335  -17.7633   21.2228 H   0  0  0  0  0  0
  -30.9109  -17.4689   19.5339 H   0  0  0  0  0  0
  -28.8316  -15.9641   20.1051 H   0  0  0  0  0  0
  -29.3436  -16.0407   21.7582 H   0  0  0  0  0  0
  -29.4270  -25.0951   21.2811 H   0  0  0  0  0  0
  -26.5101  -25.5071   21.9483 H   0  0  0  0  0  0
  -29.6701  -22.8052   21.2737 H   0  0  0  0  0  0
  1 25  1  0  0  0
  1 30  2  0  0  0
  1 78  1  0  0  0
  2  3  1  0  0  0
  2 25  1  0  0  0
  2 86  1  0  0  0
  2 87  1  0  0  0
  3  4  1  0  0  0
  3 88  1  0  0  0
  3 89  1  0  0  0
  4  5  1  0  0  0
  4 90  1  0  0  0
  4 91  1  0  0  0
  5  6  1  0  0  0
  5 26  1  0  0  0
  5 92  1  0  0  0
  6 25  1  0  0  0
  6 93  1  0  0  0
  6 94  1  0  0  0
  7  8  2  0  0  0
  7 26  1  0  0  0
  7 29  1  0  0  0
  8  9  1  0  0  0
  8 22  1  0  0  0
  9 10  1  0  0  0
  9 27  2  0  0  0
 10 11  2  0  0  0
 10 15  1  0  0  0
 11 12  1  0  0  0
 11 95  1  0  0  0
 12 13  2  0  0  0
 12 96  1  0  0  0
 13 14  1  0  0  0
 13 31  1  0  0  0
 14 15  2  0  0  0
 14 97  1  0  0  0
 15 98  1  0  0  0
 16 17  2  0  0  0
 16 21  1  0  0  0
 16 31  1  0  0  0
 17 18  1  0  0  0
 17 99  1  0  0  0
 18 19  2  0  0  0
 18100  1  0  0  0
 19 20  1  0  0  0
 19 24  1  0  0  0
 20 21  2  0  0  0
 20101  1  0  0  0
 21 23  1  0  0  0
 22 28  1  0  0  0
 22 32  2  0  0  0
 26 27  1  0  0  0
 28102  1  0  0  0
 28103  1  0  0  0
 29104  1  0  0  0
 29105  1  0  0  0
 33 34  1  0  0  0
 33 66  1  0  0  0
 33 70  2  0  0  0
 34 36  1  0  0  0
 34 59  1  0  0  0
 34106  1  0  0  0
 35 44  2  0  0  0
 35 45  1  0  0  0
 35 68  1  0  0  0
 36 56  1  0  0  0
 36107  1  0  0  0
 37 39  1  0  0  0
 37 47  1  0  0  0
 37 66  1  0  0  0
 37108  1  0  0  0
 38 43  2  0  0  0
 38 46  1  0  0  0
 38 47  1  0  0  0
 39 64  1  0  0  0
 39 67  2  0  0  0
 40 52  1  0  0  0
 40 53  2  0  0  0
 40 58  1  0  0  0
 41109  1  0  0  0
 41110  1  0  0  0
 41111  1  0  0  0
 41 48  1  0  0  0
 42 43  1  0  0  0
 42 66  1  0  0  0
 42112  1  0  0  0
 42113  1  0  0  0
 43 44  1  0  0  0
 44114  1  0  0  0
 45 46  2  0  0  0
 45115  1  0  0  0
 46116  1  0  0  0
 47117  1  0  0  0
 47118  1  0  0  0
 48 56  1  0  0  0
 48 65  1  0  0  0
 48119  1  0  0  0
 49 50  1  0  0  0
 49 53  1  0  0  0
 49 64  1  0  0  0
 49120  1  0  0  0
 50 51  1  0  0  0
 50121  1  0  0  0
 50122  1  0  0  0
 51 52  1  0  0  0
 51123  1  0  0  0
 51124  1  0  0  0
 52125  1  0  0  0
 52126  1  0  0  0
 53 54  1  0  0  0
 54 55  2  0  0  0
 54127  1  0  0  0
 55 57  1  0  0  0
 55128  1  0  0  0
 56 69  2  0  0  0
 57 58  2  0  0  0
 57129  1  0  0  0
 58130  1  0  0  0
 59 60  1  0  0  0
 59 61  1  0  0  0
 59 62  1  0  0  0
 60131  1  0  0  0
 60132  1  0  0  0
 60133  1  0  0  0
 61134  1  0  0  0
 61135  1  0  0  0
 61136  1  0  0  0
 62137  1  0  0  0
 62138  1  0  0  0
 62139  1  0  0  0
 63 65  1  0  0  0
 63140  1  0  0  0
 63141  1  0  0  0
 63142  1  0  0  0
 64143  1  0  0  0
 65144  1  0  0  0
 68 79  1  0  0  0
 71 72  2  0  0  0
 71 77  1  0  0  0
 71 81  1  0  0  0
 72 84  1  0  0  0
 72 85  1  0  0  0
 73 81  2  0  0  0
 73 82  1  0  0  0
 73 85  1  0  0  0
 74 79  1  0  0  0
 74 82  1  0  0  0
 74 83  2  0  0  0
 75145  1  0  0  0
 75146  1  0  0  0
 75147  1  0  0  0
 75 80  1  0  0  0
 76 80  1  0  0  0
 76148  1  0  0  0
 76149  1  0  0  0
 76150  1  0  0  0
 77 78  1  0  0  0
 77151  1  0  0  0
 77152  1  0  0  0
 78153  1  0  0  0
 78154  1  0  0  0
 79 80  1  0  0  0
 79155  1  0  0  0
 80156  1  0  0  0
 82157  1  0  0  0
M  ISO  4   1 100  68 101  78 100  79 101
M  END
> <chiral flag>
0

> <version>
0

> <s_m_source_file>
/data/baiqing/PycharmProjects/Reinvent-master-3.2/result/LINK_invent/BTK/process_docking_weight1_custom_product_contain_oxygen_bond_distance_aromatic_linkinvent_7_9_3/rearranged_h_0182.sdf

> <i_m_source_file_index>
18

> <r_mmod_Potential_Energy-OPLS-2005>
112.058479309082

> <r_mmod_Stretch_Energy-OPLS-2005>
124.175933837891

> <r_mmod_Bend_Energy-OPLS-2005>
171.170547485352

> <r_mmod_Torsional_Energy-OPLS-2005>
207.971832275391

> <r_mmod_Improper_Torsional_Energy-OPLS-2005>
4.79670715332031

> <r_mmod_Van_der_Waal_Energy-OPLS-2005>
109.153694152832

> <r_mmod_Electrostatic_Energy-OPLS-2005>
-371.938049316406

> <r_mmod_Solvation_Energy-OPLS-2005>
-211.708984375

> <b_mmod_Minimization_Converged-OPLS-2005>
0

> <r_mmod_RMS_Derivative-OPLS-2005>
0.294777363538742

$$$$
18
                    3D
 Structure written by MMmdl.
156164  0  0  1  0            999 V2000
  -30.6278  -14.7183   20.4033 C   0  0  0  0  0  0
  -30.4203  -12.4198   19.4308 C   0  0  0  0  0  0
  -29.4864  -12.4789   18.1990 C   0  0  0  0  0  0
  -28.0157  -12.3170   18.6464 C   0  0  0  0  0  0
  -27.6311  -13.2234   19.8421 C   0  0  2  0  0  0
  -28.6978  -13.1625   20.9589 C   0  0  0  0  0  0
  -25.2488  -13.8147   20.5822 C   0  0  0  0  0  0
  -24.1713  -13.0433   20.9227 C   0  0  0  0  0  0
  -24.6285  -11.6919   20.8732 C   0  0  0  0  0  0
  -23.8980  -10.4317   21.0431 C   0  0  0  0  0  0
  -24.3550   -9.4235   21.9198 C   0  0  0  0  0  0
  -23.6231   -8.2296   22.0812 C   0  0  0  0  0  0
  -22.4238   -8.0306   21.3585 C   0  0  0  0  0  0
  -21.9809   -9.0267   20.4715 C   0  0  0  0  0  0
  -22.7158  -10.2133   20.3087 C   0  0  0  0  0  0
  -21.6848   -6.0714   22.5252 C   0  0  0  0  0  0
  -21.4049   -6.5618   23.8188 C   0  0  0  0  0  0
  -21.3645   -5.6798   24.9140 C   0  0  0  0  0  0
  -21.6040   -4.3050   24.7218 C   0  0  0  0  0  0
  -21.8804   -3.8146   23.4331 C   0  0  0  0  0  0
  -21.9207   -4.6957   22.3369 C   0  0  0  0  0  0
  -22.7756  -13.5300   21.1821 C   0  0  0  0  0  0
  -22.1670   -4.2153   21.0946 F   0  0  0  0  0  0
  -21.5579   -3.4530   25.7709 F   0  0  0  0  0  0
  -29.9862  -13.5011   20.3348 N   0  0  0  0  0  0
  -26.2876  -12.9340   20.3336 N   0  0  0  0  0  0
  -25.9199  -11.6507   20.5696 N   0  0  0  0  0  0
  -22.0294  -12.8428   22.0376 N   0  0  0  0  0  0
  -25.4210  -15.1903   20.4436 N   0  0  0  0  0  0
  -31.8576  -14.7735   20.2905 O   0  0  0  0  0  0
  -21.6661   -6.8868   21.4226 O   0  0  0  0  0  0
  -22.3575  -14.5639   20.6642 O   0  0  0  0  0  0
  -24.6306  -31.8543   23.1999 C   0  0  0  0  0  0
  -25.9149  -32.4742   23.8321 C   0  0  1  0  0  0
  -27.1965  -27.2307   20.1482 C   0  0  0  0  0  0
  -25.5947  -33.8543   24.2219 N   0  0  0  0  0  0
  -23.4238  -30.4811   21.5434 C   0  0  2  0  0  0
  -24.8700  -28.9247   20.1088 C   0  0  0  0  0  0
  -22.7471  -29.4606   22.4921 C   0  0  0  0  0  0
  -18.0305  -28.1397   22.8486 C   0  0  0  0  0  0
  -24.1467  -36.7248   23.2613 C   0  0  0  0  0  0
  -25.9727  -30.7560   21.3871 C   0  0  0  0  0  0
  -26.0423  -29.3769   20.7301 C   0  0  0  0  0  0
  -27.2092  -28.5425   20.7412 C   0  0  0  0  0  0
  -26.0109  -26.8608   19.4810 C   0  0  0  0  0  0
  -24.8614  -27.6749   19.4709 C   0  0  0  0  0  0
  -23.6434  -29.8179   20.1574 C   0  0  0  0  0  0
  -25.4077  -36.3041   24.0306 C   0  0  1  0  0  0
  -20.5887  -28.3697   23.1276 C   0  0  2  0  0  0
  -20.6796  -26.9417   22.5409 C   0  0  0  0  0  0
  -19.5770  -26.6375   21.5213 C   0  0  0  0  0  0
  -18.1943  -26.7941   22.1622 C   0  0  0  0  0  0
  -19.1552  -28.8861   23.2872 C   0  0  0  0  0  0
  -18.9478  -30.1459   23.8883 C   0  0  0  0  0  0
  -17.6478  -30.6585   24.0556 C   0  0  0  0  0  0
  -25.9045  -34.9438   23.5059 C   0  0  0  0  0  0
  -16.5367  -29.9070   23.6352 C   0  0  0  0  0  0
  -16.7280  -28.6495   23.0355 C   0  0  0  0  0  0
  -26.4502  -31.6589   25.0727 C   0  0  0  0  0  0
  -25.3721  -31.3811   26.1458 C   0  0  0  0  0  0
  -27.0328  -30.2980   24.6259 C   0  0  0  0  0  0
  -27.6041  -32.4341   25.7498 C   0  0  0  0  0  0
  -27.5593  -37.1707   24.8401 C   0  0  0  0  0  0
  -21.4185  -29.3044   22.3659 N   0  0  0  0  0  0
  -26.4219  -37.3775   23.9474 N   0  0  0  0  0  0
  -24.6942  -31.0493   22.0990 N   0  0  0  0  0  0
  -23.4192  -28.8140   23.3002 O   0  0  0  0  0  0
  -28.2560  -26.2911   20.1883 O   0  0  0  0  0  0
  -26.5628  -34.8930   22.4631 O   0  0  0  0  0  0
  -23.5465  -32.1425   23.7290 O   0  0  0  0  0  0
  -28.9985  -19.4140   22.3460 C   0  0  0  0  0  0
  -29.2355  -18.1849   22.9975 C   0  0  0  0  0  0
  -29.6270  -17.0488   22.2574 C   0  0  0  0  0  0
  -29.2299  -19.5764   20.9602 C   0  0  0  0  0  0
  -29.7364  -17.1276   20.8516 C   0  0  0  0  0  0
  -28.7236  -23.6023   20.1102 C   0  0  0  0  0  0
  -29.9284  -22.5422   22.0833 C   0  0  0  0  0  0
  -27.9121  -24.8869   20.6577 C   0  0  0  0  0  0
  -28.8625  -22.2282   21.0019 C   0  0  2  0  0  0
  -29.5479  -18.4020   20.2727 N   0  3  0  0  0  0
  -29.0653  -18.0479   24.3798 N   0  0  0  0  0  0
  -29.8616  -15.8431   20.1377 N   0  0  0  0  0  0
  -29.1421  -20.8821   20.3185 N   0  0  0  0  0  0
  -29.2563  -23.6756   18.9963 O   0  0  0  0  0  0
  -29.7953  -15.8729   22.9193 F   0  0  0  0  0  0
  -31.4713  -12.4944   19.1505 H   0  0  0  0  0  0
  -30.3180  -11.4501   19.9205 H   0  0  0  0  0  0
  -29.7456  -11.6911   17.4885 H   0  0  0  0  0  0
  -29.6147  -13.4168   17.6553 H   0  0  0  0  0  0
  -27.8771  -11.2697   18.9285 H   0  0  0  0  0  0
  -27.3442  -12.5096   17.8041 H   0  0  0  0  0  0
  -27.6087  -14.2407   19.4574 H   0  0  0  0  0  0
  -28.7286  -12.1611   21.3910 H   0  0  0  0  0  0
  -28.4602  -13.8469   21.7738 H   0  0  0  0  0  0
  -25.2656   -9.5726   22.4794 H   0  0  0  0  0  0
  -23.9924   -7.4692   22.7530 H   0  0  0  0  0  0
  -21.0736   -8.8793   19.9018 H   0  0  0  0  0  0
  -22.3586  -10.9665   19.6226 H   0  0  0  0  0  0
  -21.2065   -7.6130   23.9672 H   0  0  0  0  0  0
  -21.1475   -6.0531   25.9044 H   0  0  0  0  0  0
  -22.0598   -2.7635   23.2820 H   0  0  0  0  0  0
  -22.3816  -12.0139   22.4925 H   0  0  0  0  0  0
  -21.0939  -13.1627   22.2510 H   0  0  0  0  0  0
  -24.6599  -15.8373   20.6133 H   0  0  0  0  0  0
  -26.2774  -15.6584   20.1824 H   0  0  0  0  0  0
  -26.7202  -32.5389   23.1051 H   0  0  0  0  0  0
  -25.0141  -33.9657   25.0398 H   0  0  0  0  0  0
  -22.7179  -31.3038   21.4006 H   0  0  0  0  0  0
  -23.3783  -35.9512   23.3123 H   0  0  0  0  0  0
  -24.3606  -36.9052   22.2070 H   0  0  0  0  0  0
  -23.7159  -37.6360   23.6749 H   0  0  0  0  0  0
  -26.1207  -31.5161   20.6193 H   0  0  0  0  0  0
  -26.8469  -30.8009   22.0266 H   0  0  0  0  0  0
  -28.0941  -28.8752   21.2637 H   0  0  0  0  0  0
  -25.9564  -25.9120   18.9665 H   0  0  0  0  0  0
  -23.9716  -27.3267   18.9641 H   0  0  0  0  0  0
  -23.7707  -30.5952   19.4023 H   0  0  0  0  0  0
  -22.7587  -29.2600   19.8448 H   0  0  0  0  0  0
  -25.1237  -36.1830   25.0786 H   0  0  0  0  0  0
  -20.9978  -28.3293   24.1393 H   0  0  0  0  0  0
  -20.5718  -26.2283   23.3592 H   0  0  0  0  0  0
  -21.6667  -26.7463   22.1196 H   0  0  0  0  0  0
  -19.6901  -25.6276   21.1251 H   0  0  0  0  0  0
  -19.6676  -27.3163   20.6724 H   0  0  0  0  0  0
  -17.4197  -26.6690   21.4030 H   0  0  0  0  0  0
  -18.0317  -26.0071   22.9007 H   0  0  0  0  0  0
  -19.7950  -30.7293   24.2200 H   0  0  0  0  0  0
  -17.5034  -31.6279   24.5127 H   0  0  0  0  0  0
  -15.5363  -30.2963   23.7667 H   0  0  0  0  0  0
  -15.8685  -28.0777   22.7105 H   0  0  0  0  0  0
  -24.5791  -30.7269   25.7811 H   0  0  0  0  0  0
  -24.9047  -32.3038   26.4899 H   0  0  0  0  0  0
  -25.8032  -30.8946   27.0217 H   0  0  0  0  0  0
  -26.2926  -29.6739   24.1235 H   0  0  0  0  0  0
  -27.3913  -29.7234   25.4809 H   0  0  0  0  0  0
  -27.8850  -30.4185   23.9569 H   0  0  0  0  0  0
  -27.2594  -33.3618   26.2061 H   0  0  0  0  0  0
  -28.3842  -32.6955   25.0340 H   0  0  0  0  0  0
  -28.0696  -31.8488   26.5437 H   0  0  0  0  0  0
  -28.2403  -38.0203   24.7794 H   0  0  0  0  0  0
  -28.1316  -36.2794   24.5781 H   0  0  0  0  0  0
  -27.2404  -37.0826   25.8801 H   0  0  0  0  0  0
  -20.9345  -29.8759   21.6879 H   0  0  0  0  0  0
  -26.0076  -38.2781   24.1703 H   0  0  0  0  0  0
  -28.6530  -20.2403   22.9459 H   0  0  0  0  0  0
  -29.5619  -23.3316   22.7452 H   0  0  0  0  0  0
  -30.8592  -22.9000   21.6334 H   0  0  0  0  0  0
  -30.1918  -21.7040   22.7266 H   0  0  0  0  0  0
  -27.9993  -24.8776   21.7449 H   0  0  0  0  0  0
  -26.8630  -24.6672   20.4519 H   0  0  0  0  0  0
  -27.9114  -22.0874   21.5158 H   0  0  0  0  0  0
  -29.6688  -18.4768   19.2588 H   0  0  0  0  0  0
  -28.1383  -18.3091   24.6876 H   0  0  0  0  0  0
  -29.2371  -17.0878   24.6608 H   0  0  0  0  0  0
  -29.0712  -15.6405   19.5492 H   0  0  0  0  0  0
  -29.2712  -20.9434   19.3144 H   0  0  0  0  0  0
  1 25  1  0  0  0
  1 30  2  0  0  0
  1 82  1  0  0  0
  2  3  1  0  0  0
  2 25  1  0  0  0
  2 86  1  0  0  0
  2 87  1  0  0  0
  3  4  1  0  0  0
  3 88  1  0  0  0
  3 89  1  0  0  0
  4  5  1  0  0  0
  4 90  1  0  0  0
  4 91  1  0  0  0
  5  6  1  0  0  0
  5 26  1  0  0  0
  5 92  1  0  0  0
  6 25  1  0  0  0
  6 93  1  0  0  0
  6 94  1  0  0  0
  7  8  2  0  0  0
  7 26  1  0  0  0
  7 29  1  0  0  0
  8  9  1  0  0  0
  8 22  1  0  0  0
  9 10  1  0  0  0
  9 27  2  0  0  0
 10 11  2  0  0  0
 10 15  1  0  0  0
 11 12  1  0  0  0
 11 95  1  0  0  0
 12 13  2  0  0  0
 12 96  1  0  0  0
 13 14  1  0  0  0
 13 31  1  0  0  0
 14 15  2  0  0  0
 14 97  1  0  0  0
 15 98  1  0  0  0
 16 17  2  0  0  0
 16 21  1  0  0  0
 16 31  1  0  0  0
 17 18  1  0  0  0
 17 99  1  0  0  0
 18 19  2  0  0  0
 18100  1  0  0  0
 19 20  1  0  0  0
 19 24  1  0  0  0
 20 21  2  0  0  0
 20101  1  0  0  0
 21 23  1  0  0  0
 22 28  1  0  0  0
 22 32  2  0  0  0
 26 27  1  0  0  0
 28102  1  0  0  0
 28103  1  0  0  0
 29104  1  0  0  0
 29105  1  0  0  0
 33 34  1  0  0  0
 33 66  1  0  0  0
 33 70  2  0  0  0
 34 36  1  0  0  0
 34 59  1  0  0  0
 34106  1  0  0  0
 35 44  2  0  0  0
 35 45  1  0  0  0
 35 68  1  0  0  0
 36 56  1  0  0  0
 36107  1  0  0  0
 37 39  1  0  0  0
 37 47  1  0  0  0
 37 66  1  0  0  0
 37108  1  0  0  0
 38 43  2  0  0  0
 38 46  1  0  0  0
 38 47  1  0  0  0
 39 64  1  0  0  0
 39 67  2  0  0  0
 40 52  1  0  0  0
 40 53  2  0  0  0
 40 58  1  0  0  0
 41109  1  0  0  0
 41110  1  0  0  0
 41111  1  0  0  0
 41 48  1  0  0  0
 42 43  1  0  0  0
 42 66  1  0  0  0
 42112  1  0  0  0
 42113  1  0  0  0
 43 44  1  0  0  0
 44114  1  0  0  0
 45 46  2  0  0  0
 45115  1  0  0  0
 46116  1  0  0  0
 47117  1  0  0  0
 47118  1  0  0  0
 48 56  1  0  0  0
 48 65  1  0  0  0
 48119  1  0  0  0
 49 50  1  0  0  0
 49 53  1  0  0  0
 49 64  1  0  0  0
 49120  1  0  0  0
 50 51  1  0  0  0
 50121  1  0  0  0
 50122  1  0  0  0
 51 52  1  0  0  0
 51123  1  0  0  0
 51124  1  0  0  0
 52125  1  0  0  0
 52126  1  0  0  0
 53 54  1  0  0  0
 54 55  2  0  0  0
 54127  1  0  0  0
 55 57  1  0  0  0
 55128  1  0  0  0
 56 69  2  0  0  0
 57 58  2  0  0  0
 57129  1  0  0  0
 58130  1  0  0  0
 59 60  1  0  0  0
 59 61  1  0  0  0
 59 62  1  0  0  0
 60131  1  0  0  0
 60132  1  0  0  0
 60133  1  0  0  0
 61134  1  0  0  0
 61135  1  0  0  0
 61136  1  0  0  0
 62137  1  0  0  0
 62138  1  0  0  0
 62139  1  0  0  0
 63 65  1  0  0  0
 63140  1  0  0  0
 63141  1  0  0  0
 63142  1  0  0  0
 64143  1  0  0  0
 65144  1  0  0  0
 68 78  1  0  0  0
 71 72  2  0  0  0
 71 74  1  0  0  0
 71145  1  0  0  0
 72 73  1  0  0  0
 72 81  1  0  0  0
 73 75  2  0  0  0
 73 85  1  0  0  0
 74 80  2  0  0  0
 74 83  1  0  0  0
 75 80  1  0  0  0
 75 82  1  0  0  0
 76 78  1  0  0  0
 76 79  1  0  0  0
 76 84  2  0  0  0
 77146  1  0  0  0
 77147  1  0  0  0
 77148  1  0  0  0
 77 79  1  0  0  0
 78149  1  0  0  0
 78150  1  0  0  0
 79 83  1  0  0  0
 79151  1  0  0  0
 80152  1  0  0  0
 81153  1  0  0  0
 81154  1  0  0  0
 82155  1  0  0  0
 83156  1  0  0  0
M  CHG  1  80   1
M  ISO  4   1 100  68 101  78 101  82 100
M  END
> <chiral flag>
0

> <version>
0

> <s_m_source_file>
/data/baiqing/PycharmProjects/Reinvent-master-3.2/result/LINK_invent/BTK/process_docking_weight1_custom_product_contain_oxygen_bond_distance_aromatic_linkinvent_7_9_3/rearranged_h_0182.sdf

> <i_m_source_file_index>
19

> <r_mmod_Potential_Energy-OPLS-2005>
181.095626831055

> <r_mmod_Stretch_Energy-OPLS-2005>
138.615905761719

> <r_mmod_Bend_Energy-OPLS-2005>
176.971664428711

> <r_mmod_Torsional_Energy-OPLS-2005>
289.725158691406

> <r_mmod_Improper_Torsional_Energy-OPLS-2005>
21.5435276031494

> <r_mmod_Van_der_Waal_Energy-OPLS-2005>
139.482864379883

> <r_mmod_Electrostatic_Energy-OPLS-2005>
-203.746246337891

> <r_mmod_Solvation_Energy-OPLS-2005>
-481.616241455078

> <b_mmod_Minimization_Converged-OPLS-2005>
0

> <r_mmod_RMS_Derivative-OPLS-2005>
8.16671848297119

$$$$
19
                    3D
 Structure written by MMmdl.
151159  0  0  1  0            999 V2000
  -30.4465  -14.9677   20.3660 C   0  0  0  0  0  0
  -30.4163  -12.5722   19.5021 C   0  0  0  0  0  0
  -29.5129  -12.5884   18.2398 C   0  0  0  0  0  0
  -28.0343  -12.3781   18.6280 C   0  0  0  0  0  0
  -27.6209  -13.2587   19.8365 C   0  0  2  0  0  0
  -28.6615  -13.2346   20.9786 C   0  0  0  0  0  0
  -25.2372  -13.8209   20.5639 C   0  0  0  0  0  0
  -24.1737  -13.0446   20.9198 C   0  0  0  0  0  0
  -24.6370  -11.6909   20.8726 C   0  0  0  0  0  0
  -23.9051  -10.4290   21.0391 C   0  0  0  0  0  0
  -24.3596   -9.4206   21.9176 C   0  0  0  0  0  0
  -23.6306   -8.2238   22.0737 C   0  0  0  0  0  0
  -22.4282   -8.0283   21.3550 C   0  0  0  0  0  0
  -21.9886   -9.0249   20.4660 C   0  0  0  0  0  0
  -22.7197  -10.2138   20.3079 C   0  0  0  0  0  0
  -21.6830   -6.0737   22.5278 C   0  0  0  0  0  0
  -21.4047   -6.5640   23.8222 C   0  0  0  0  0  0
  -21.3677   -5.6787   24.9168 C   0  0  0  0  0  0
  -21.6018   -4.3043   24.7247 C   0  0  0  0  0  0
  -21.8807   -3.8154   23.4358 C   0  0  0  0  0  0
  -21.9190   -4.6964   22.3412 C   0  0  0  0  0  0
  -22.7735  -13.5184   21.1894 C   0  0  0  0  0  0
  -22.1631   -4.2145   21.0988 F   0  0  0  0  0  0
  -21.5605   -3.4534   25.7754 F   0  0  0  0  0  0
  -29.9373  -13.6638   20.3976 N   0  0  0  0  0  0
  -26.2815  -12.9504   20.3191 N   0  0  0  0  0  0
  -25.9316  -11.6590   20.5663 N   0  0  0  0  0  0
  -22.0380  -12.8291   22.0520 N   0  0  0  0  0  0
  -25.3968  -15.1979   20.4055 N   0  0  0  0  0  0
  -31.6319  -15.1001   20.0416 O   0  0  0  0  0  0
  -21.6634   -6.8884   21.4240 O   0  0  0  0  0  0
  -22.3377  -14.5465   20.6644 O   0  0  0  0  0  0
  -24.6418  -31.8439   23.1827 C   0  0  0  0  0  0
  -25.9214  -32.4645   23.8225 C   0  0  1  0  0  0
  -27.1518  -27.0963   20.2160 C   0  0  0  0  0  0
  -25.5893  -33.8434   24.2082 N   0  0  0  0  0  0
  -23.4403  -30.4665   21.5287 C   0  0  2  0  0  0
  -24.8806  -28.8922   20.1013 C   0  0  0  0  0  0
  -22.7553  -29.4535   22.4825 C   0  0  0  0  0  0
  -18.0305  -28.1368   22.8491 C   0  0  0  0  0  0
  -24.1469  -36.7286   23.2647 C   0  0  0  0  0  0
  -25.9976  -30.7077   21.3881 C   0  0  0  0  0  0
  -26.0569  -29.3162   20.7363 C   0  0  0  0  0  0
  -27.1988  -28.4296   20.7800 C   0  0  0  0  0  0
  -25.9730  -26.7904   19.5033 C   0  0  0  0  0  0
  -24.8578  -27.6459   19.4582 C   0  0  0  0  0  0
  -23.6629  -29.8002   20.1460 C   0  0  0  0  0  0
  -25.4090  -36.2978   24.0306 C   0  0  1  0  0  0
  -20.5932  -28.3697   23.1227 C   0  0  2  0  0  0
  -20.6754  -26.9394   22.5404 C   0  0  0  0  0  0
  -19.5694  -26.6380   21.5204 C   0  0  0  0  0  0
  -18.1906  -26.7926   22.1673 C   0  0  0  0  0  0
  -19.1577  -28.8846   23.2841 C   0  0  0  0  0  0
  -18.9485  -30.1480   23.8825 C   0  0  0  0  0  0
  -17.6471  -30.6538   24.0582 C   0  0  0  0  0  0
  -25.9064  -34.9373   23.5011 C   0  0  0  0  0  0
  -16.5346  -29.9021   23.6369 C   0  0  0  0  0  0
  -16.7302  -28.6471   23.0336 C   0  0  0  0  0  0
  -26.4477  -31.6521   25.0679 C   0  0  0  0  0  0
  -25.3661  -31.3817   26.1405 C   0  0  0  0  0  0
  -27.0370  -30.2866   24.6407 C   0  0  0  0  0  0
  -27.5937  -32.4390   25.7483 C   0  0  0  0  0  0
  -27.5570  -37.1749   24.8430 C   0  0  0  0  0  0
  -21.4240  -29.2992   22.3562 N   0  0  0  0  0  0
  -26.4233  -37.3722   23.9433 N   0  0  0  0  0  0
  -24.7115  -31.0350   22.0828 N   0  0  0  0  0  0
  -23.4242  -28.8160   23.2988 O   0  0  0  0  0  0
  -28.1440  -26.0607   20.3211 O   0  0  0  0  0  0
  -26.5711  -34.8899   22.4615 O   0  0  0  0  0  0
  -23.5552  -32.1322   23.7058 O   0  0  0  0  0  0
  -28.8142  -20.2300   20.4019 C   0  0  0  0  0  0
  -28.8292  -19.6094   19.1435 C   0  0  0  0  0  0
  -29.4699  -17.5834   20.3332 C   0  0  0  0  0  0
  -28.3775  -21.6595   20.9512 C   0  0  0  0  0  0
  -28.4296  -20.2509   17.8070 C   0  0  0  0  0  0
  -27.5640  -24.7197   22.3185 C   0  0  0  0  0  0
  -28.5764  -23.1781   20.3140 C   0  0  0  0  0  0
  -27.7732  -24.6085   20.7762 C   0  0  2  0  0  0
  -29.1998  -18.1921   19.1396 N   0  0  0  0  0  0
  -29.5527  -16.0636   20.5846 N   0  0  0  0  0  0
  -27.8705  -21.6333   22.0796 O   0  0  0  0  0  0
  -29.2122  -18.8906   21.5830 S   0  0  0  0  0  0
  -31.4654  -12.6802   19.2357 H   0  0  0  0  0  0
  -30.3343  -11.6012   19.9987 H   0  0  0  0  0  0
  -29.8342  -11.8390   17.5145 H   0  0  0  0  0  0
  -29.6165  -13.5539   17.7391 H   0  0  0  0  0  0
  -27.8859  -11.3214   18.8555 H   0  0  0  0  0  0
  -27.3884  -12.5888   17.7713 H   0  0  0  0  0  0
  -27.5983  -14.2826   19.4591 H   0  0  0  0  0  0
  -28.7320  -12.2365   21.4135 H   0  0  0  0  0  0
  -28.3602  -13.8889   21.7961 H   0  0  0  0  0  0
  -25.2735   -9.5685   22.4745 H   0  0  0  0  0  0
  -23.9998   -7.4630   22.7481 H   0  0  0  0  0  0
  -21.0772   -8.8787   19.9032 H   0  0  0  0  0  0
  -22.3612  -10.9680   19.6212 H   0  0  0  0  0  0
  -21.2060   -7.6154   23.9742 H   0  0  0  0  0  0
  -21.1485   -6.0506   25.9069 H   0  0  0  0  0  0
  -22.0576   -2.7629   23.2849 H   0  0  0  0  0  0
  -22.3950  -11.9990   22.5043 H   0  0  0  0  0  0
  -21.1017  -13.1403   22.2733 H   0  0  0  0  0  0
  -24.5881  -15.8109   20.4338 H   0  0  0  0  0  0
  -26.2267  -15.6581   20.0607 H   0  0  0  0  0  0
  -26.7252  -32.5214   23.0958 H   0  0  0  0  0  0
  -24.9805  -33.9486   25.0067 H   0  0  0  0  0  0
  -22.7404  -31.2915   21.3760 H   0  0  0  0  0  0
  -23.3698  -35.9646   23.3188 H   0  0  0  0  0  0
  -24.3604  -36.9055   22.2095 H   0  0  0  0  0  0
  -23.7263  -37.6450   23.6771 H   0  0  0  0  0  0
  -26.1738  -31.4608   20.6176 H   0  0  0  0  0  0
  -26.8634  -30.7375   22.0408 H   0  0  0  0  0  0
  -28.0787  -28.7419   21.3241 H   0  0  0  0  0  0
  -25.8905  -25.8323   19.0106 H   0  0  0  0  0  0
  -23.9692  -27.3223   18.9366 H   0  0  0  0  0  0
  -23.7876  -30.5692   19.3837 H   0  0  0  0  0  0
  -22.7759  -29.2354   19.8510 H   0  0  0  0  0  0
  -25.1266  -36.1739   25.0797 H   0  0  0  0  0  0
  -21.0032  -28.3247   24.1348 H   0  0  0  0  0  0
  -20.5578  -26.2291   23.3636 H   0  0  0  0  0  0
  -21.6620  -26.7309   22.1219 H   0  0  0  0  0  0
  -19.6818  -25.6278   21.1206 H   0  0  0  0  0  0
  -19.6600  -27.3229   20.6759 H   0  0  0  0  0  0
  -17.4173  -26.6694   21.4074 H   0  0  0  0  0  0
  -18.0270  -26.0056   22.9063 H   0  0  0  0  0  0
  -19.7943  -30.7343   24.2097 H   0  0  0  0  0  0
  -17.4997  -31.6203   24.5210 H   0  0  0  0  0  0
  -15.5339  -30.2868   23.7706 H   0  0  0  0  0  0
  -15.8745  -28.0780   22.6999 H   0  0  0  0  0  0
  -24.5730  -30.7261   25.7759 H   0  0  0  0  0  0
  -24.9009  -32.3062   26.4818 H   0  0  0  0  0  0
  -25.7937  -30.8968   27.0203 H   0  0  0  0  0  0
  -26.3017  -29.6539   24.1407 H   0  0  0  0  0  0
  -27.3824  -29.7211   25.5072 H   0  0  0  0  0  0
  -27.8972  -30.3961   23.9823 H   0  0  0  0  0  0
  -27.2357  -33.3649   26.2056 H   0  0  0  0  0  0
  -28.3738  -32.7119   25.0341 H   0  0  0  0  0  0
  -28.0647  -31.8610   26.5471 H   0  0  0  0  0  0
  -28.2468  -38.0156   24.7583 H   0  0  0  0  0  0
  -28.1173  -36.2688   24.6036 H   0  0  0  0  0  0
  -27.2357  -37.1155   25.8850 H   0  0  0  0  0  0
  -20.9437  -29.8761   21.6811 H   0  0  0  0  0  0
  -26.0056  -38.2755   24.1493 H   0  0  0  0  0  0
  -29.0134  -21.1446   17.5703 H   0  0  0  0  0  0
  -27.3745  -20.5431   17.7752 H   0  0  0  0  0  0
  -28.5649  -19.5849   16.9455 H   0  0  0  0  0  0
  -28.0623  -25.5849   22.7567 H   0  0  0  0  0  0
  -27.9068  -23.8602   22.8857 H   0  0  0  0  0  0
  -26.4997  -24.8152   22.5497 H   0  0  0  0  0  0
  -28.4269  -23.0719   19.2419 H   0  0  0  0  0  0
  -29.6395  -23.3806   20.4502 H   0  0  0  0  0  0
  -26.7640  -24.4287   20.4044 H   0  0  0  0  0  0
  -28.7124  -15.7199   21.0202 H   0  0  0  0  0  0
  1 25  1  0  0  0
  1 30  2  0  0  0
  1 80  1  0  0  0
  2  3  1  0  0  0
  2 25  1  0  0  0
  2 83  1  0  0  0
  2 84  1  0  0  0
  3  4  1  0  0  0
  3 85  1  0  0  0
  3 86  1  0  0  0
  4  5  1  0  0  0
  4 87  1  0  0  0
  4 88  1  0  0  0
  5  6  1  0  0  0
  5 26  1  0  0  0
  5 89  1  0  0  0
  6 25  1  0  0  0
  6 90  1  0  0  0
  6 91  1  0  0  0
  7  8  2  0  0  0
  7 26  1  0  0  0
  7 29  1  0  0  0
  8  9  1  0  0  0
  8 22  1  0  0  0
  9 10  1  0  0  0
  9 27  2  0  0  0
 10 11  2  0  0  0
 10 15  1  0  0  0
 11 12  1  0  0  0
 11 92  1  0  0  0
 12 13  2  0  0  0
 12 93  1  0  0  0
 13 14  1  0  0  0
 13 31  1  0  0  0
 14 15  2  0  0  0
 14 94  1  0  0  0
 15 95  1  0  0  0
 16 17  2  0  0  0
 16 21  1  0  0  0
 16 31  1  0  0  0
 17 18  1  0  0  0
 17 96  1  0  0  0
 18 19  2  0  0  0
 18 97  1  0  0  0
 19 20  1  0  0  0
 19 24  1  0  0  0
 20 21  2  0  0  0
 20 98  1  0  0  0
 21 23  1  0  0  0
 22 28  1  0  0  0
 22 32  2  0  0  0
 26 27  1  0  0  0
 28 99  1  0  0  0
 28100  1  0  0  0
 29101  1  0  0  0
 29102  1  0  0  0
 33 34  1  0  0  0
 33 66  1  0  0  0
 33 70  2  0  0  0
 34 36  1  0  0  0
 34 59  1  0  0  0
 34103  1  0  0  0
 35 44  2  0  0  0
 35 45  1  0  0  0
 35 68  1  0  0  0
 36 56  1  0  0  0
 36104  1  0  0  0
 37 39  1  0  0  0
 37 47  1  0  0  0
 37 66  1  0  0  0
 37105  1  0  0  0
 38 43  2  0  0  0
 38 46  1  0  0  0
 38 47  1  0  0  0
 39 64  1  0  0  0
 39 67  2  0  0  0
 40 52  1  0  0  0
 40 53  2  0  0  0
 40 58  1  0  0  0
 41106  1  0  0  0
 41107  1  0  0  0
 41108  1  0  0  0
 41 48  1  0  0  0
 42 43  1  0  0  0
 42 66  1  0  0  0
 42109  1  0  0  0
 42110  1  0  0  0
 43 44  1  0  0  0
 44111  1  0  0  0
 45 46  2  0  0  0
 45112  1  0  0  0
 46113  1  0  0  0
 47114  1  0  0  0
 47115  1  0  0  0
 48 56  1  0  0  0
 48 65  1  0  0  0
 48116  1  0  0  0
 49 50  1  0  0  0
 49 53  1  0  0  0
 49 64  1  0  0  0
 49117  1  0  0  0
 50 51  1  0  0  0
 50118  1  0  0  0
 50119  1  0  0  0
 51 52  1  0  0  0
 51120  1  0  0  0
 51121  1  0  0  0
 52122  1  0  0  0
 52123  1  0  0  0
 53 54  1  0  0  0
 54 55  2  0  0  0
 54124  1  0  0  0
 55 57  1  0  0  0
 55125  1  0  0  0
 56 69  2  0  0  0
 57 58  2  0  0  0
 57126  1  0  0  0
 58127  1  0  0  0
 59 60  1  0  0  0
 59 61  1  0  0  0
 59 62  1  0  0  0
 60128  1  0  0  0
 60129  1  0  0  0
 60130  1  0  0  0
 61131  1  0  0  0
 61132  1  0  0  0
 61133  1  0  0  0
 62134  1  0  0  0
 62135  1  0  0  0
 62136  1  0  0  0
 63 65  1  0  0  0
 63137  1  0  0  0
 63138  1  0  0  0
 63139  1  0  0  0
 64140  1  0  0  0
 65141  1  0  0  0
 68 78  1  0  0  0
 71 72  2  0  0  0
 71 74  1  0  0  0
 71 82  1  0  0  0
 72 75  1  0  0  0
 72 79  1  0  0  0
 73 79  2  0  0  0
 73 80  1  0  0  0
 73 82  1  0  0  0
 74 77  1  0  0  0
 74 81  2  0  0  0
 75142  1  0  0  0
 75143  1  0  0  0
 75144  1  0  0  0
 76145  1  0  0  0
 76146  1  0  0  0
 76147  1  0  0  0
 76 78  1  0  0  0
 77 78  1  0  0  0
 77148  1  0  0  0
 77149  1  0  0  0
 78150  1  0  0  0
 80151  1  0  0  0
M  ISO  4   1 100  68 101  78 101  80 100
M  END
> <chiral flag>
0

> <version>
0

> <s_m_source_file>
/data/baiqing/PycharmProjects/Reinvent-master-3.2/result/LINK_invent/BTK/process_docking_weight1_custom_product_contain_oxygen_bond_distance_aromatic_linkinvent_7_9_3/rearranged_h_0182.sdf

> <i_m_source_file_index>
20

> <r_mmod_Potential_Energy-OPLS-2005>
515.625854492188

> <r_mmod_Stretch_Energy-OPLS-2005>
257.880920410156

> <r_mmod_Bend_Energy-OPLS-2005>
266.619720458984

> <r_mmod_Torsional_Energy-OPLS-2005>
278.657989501953

> <r_mmod_Improper_Torsional_Energy-OPLS-2005>
7.49040079116821

> <r_mmod_Van_der_Waal_Energy-OPLS-2005>
111.050468444824

> <r_mmod_Electrostatic_Energy-OPLS-2005>
-415.4267578125

> <r_mmod_Solvation_Energy-OPLS-2005>
-226.373291015625

> <b_mmod_Minimization_Converged-OPLS-2005>
0

> <r_mmod_RMS_Derivative-OPLS-2005>
10.4390783309937

$$$$
20
                    3D
 Structure written by MMmdl.
153161  0  0  1  0            999 V2000
  -30.6134  -14.7518   20.4777 C   0  0  0  0  0  0
  -30.4369  -12.4678   19.4683 C   0  0  0  0  0  0
  -29.5105  -12.5096   18.2337 C   0  0  0  0  0  0
  -28.0390  -12.3249   18.6511 C   0  0  0  0  0  0
  -27.6408  -13.2295   19.8479 C   0  0  2  0  0  0
  -28.6863  -13.1671   20.9824 C   0  0  0  0  0  0
  -25.2502  -13.8195   20.5693 C   0  0  0  0  0  0
  -24.1799  -13.0443   20.9214 C   0  0  0  0  0  0
  -24.6396  -11.6915   20.8758 C   0  0  0  0  0  0
  -23.9076  -10.4295   21.0413 C   0  0  0  0  0  0
  -24.3622   -9.4207   21.9192 C   0  0  0  0  0  0
  -23.6290   -8.2247   22.0764 C   0  0  0  0  0  0
  -22.4274   -8.0288   21.3554 C   0  0  0  0  0  0
  -21.9912   -9.0266   20.4660 C   0  0  0  0  0  0
  -22.7247  -10.2139   20.3068 C   0  0  0  0  0  0
  -21.6844   -6.0743   22.5287 C   0  0  0  0  0  0
  -21.4008   -6.5643   23.8223 C   0  0  0  0  0  0
  -21.3657   -5.6796   24.9182 C   0  0  0  0  0  0
  -21.6041   -4.3060   24.7230 C   0  0  0  0  0  0
  -21.8818   -3.8153   23.4349 C   0  0  0  0  0  0
  -21.9191   -4.6972   22.3405 C   0  0  0  0  0  0
  -22.7820  -13.5226   21.1858 C   0  0  0  0  0  0
  -22.1657   -4.2155   21.0980 F   0  0  0  0  0  0
  -21.5622   -3.4538   25.7737 F   0  0  0  0  0  0
  -29.9837  -13.5287   20.3971 N   0  0  0  0  0  0
  -26.2928  -12.9399   20.3266 N   0  0  0  0  0  0
  -25.9322  -11.6541   20.5749 N   0  0  0  0  0  0
  -22.0444  -12.8249   22.0409 N   0  0  0  0  0  0
  -25.4185  -15.1929   20.4104 N   0  0  0  0  0  0
  -31.8016  -14.8407   20.1568 O   0  0  0  0  0  0
  -21.6637   -6.8890   21.4252 O   0  0  0  0  0  0
  -22.3528  -14.5535   20.6691 O   0  0  0  0  0  0
  -24.6333  -31.8544   23.1977 C   0  0  0  0  0  0
  -25.9154  -32.4750   23.8326 C   0  0  1  0  0  0
  -27.2124  -27.2410   20.1235 C   0  0  0  0  0  0
  -25.5947  -33.8552   24.2241 N   0  0  0  0  0  0
  -23.4322  -30.4781   21.5414 C   0  0  2  0  0  0
  -24.8782  -28.9273   20.1088 C   0  0  0  0  0  0
  -22.7528  -29.4599   22.4895 C   0  0  0  0  0  0
  -18.0298  -28.1408   22.8481 C   0  0  0  0  0  0
  -24.1492  -36.7286   23.2636 C   0  0  0  0  0  0
  -25.9809  -30.7583   21.3848 C   0  0  0  0  0  0
  -26.0514  -29.3803   20.7248 C   0  0  0  0  0  0
  -27.2203  -28.5480   20.7249 C   0  0  0  0  0  0
  -26.0163  -26.8732   19.4627 C   0  0  0  0  0  0
  -24.8665  -27.6830   19.4661 C   0  0  0  0  0  0
  -23.6519  -29.8162   20.1569 C   0  0  0  0  0  0
  -25.4123  -36.3067   24.0316 C   0  0  1  0  0  0
  -20.5907  -28.3718   23.1266 C   0  0  2  0  0  0
  -20.6786  -26.9438   22.5407 C   0  0  0  0  0  0
  -19.5758  -26.6401   21.5215 C   0  0  0  0  0  0
  -18.1938  -26.7946   22.1629 C   0  0  0  0  0  0
  -19.1551  -28.8884   23.2861 C   0  0  0  0  0  0
  -18.9470  -30.1485   23.8885 C   0  0  0  0  0  0
  -17.6464  -30.6597   24.0575 C   0  0  0  0  0  0
  -25.9063  -34.9440   23.5077 C   0  0  0  0  0  0
  -16.5360  -29.9096   23.6336 C   0  0  0  0  0  0
  -16.7284  -28.6523   23.0343 C   0  0  0  0  0  0
  -26.4506  -31.6580   25.0729 C   0  0  0  0  0  0
  -25.3718  -31.3752   26.1445 C   0  0  0  0  0  0
  -27.0351  -30.2984   24.6251 C   0  0  0  0  0  0
  -27.6055  -32.4322   25.7515 C   0  0  0  0  0  0
  -27.5583  -37.1807   24.8464 C   0  0  0  0  0  0
  -21.4234  -29.3051   22.3644 N   0  0  0  0  0  0
  -26.4291  -37.3774   23.9407 N   0  0  0  0  0  0
  -24.7014  -31.0486   22.0973 N   0  0  0  0  0  0
  -23.4224  -28.8141   23.2998 O   0  0  0  0  0  0
  -28.2843  -26.3111   20.1978 O   0  0  0  0  0  0
  -26.5635  -34.8917   22.4646 O   0  0  0  0  0  0
  -23.5478  -32.1381   23.7252 O   0  0  0  0  0  0
  -31.2434  -17.7018   21.7507 C   0  0  0  0  0  0
  -30.2089  -17.3187   20.9114 C   0  0  0  0  0  0
  -30.0003  -19.7054   20.8366 C   0  0  0  0  0  0
  -28.9316  -23.6782   20.4266 C   0  0  0  0  0  0
  -27.2170  -21.7146   20.4478 C   0  0  0  0  0  0
  -27.9845  -24.8592   19.8884 C   0  0  0  0  0  0
  -28.6560  -22.1003   20.0662 C   0  0  2  0  0  0
  -32.1646  -16.8903   22.6158 C   0  0  0  0  0  0
  -29.4761  -18.4944   20.4426 N   0  0  0  0  0  0
  -29.8393  -15.8915   20.6882 N   0  0  0  0  0  0
  -29.6262  -21.0963   20.6543 N   0  0  0  0  0  0
  -29.8941  -23.9713   21.1434 O   0  0  0  0  0  0
  -31.5774  -15.7939   23.0943 F   0  0  0  0  0  0
  -33.2665  -16.5286   21.9618 F   0  0  0  0  0  0
  -32.5627  -17.5846   23.6827 F   0  0  0  0  0  0
  -31.4339  -19.4480   21.8121 S   0  0  0  0  0  0
  -31.4742  -12.6052   19.1586 H   0  0  0  0  0  0
  -30.3975  -11.4913   19.9541 H   0  0  0  0  0  0
  -29.7998  -11.7360   17.5209 H   0  0  0  0  0  0
  -29.6285  -13.4630   17.7166 H   0  0  0  0  0  0
  -27.9058  -11.2766   18.9211 H   0  0  0  0  0  0
  -27.3808  -12.5057   17.8010 H   0  0  0  0  0  0
  -27.6339  -14.2491   19.4626 H   0  0  0  0  0  0
  -28.7282  -12.1676   21.4164 H   0  0  0  0  0  0
  -28.4169  -13.8424   21.7960 H   0  0  0  0  0  0
  -25.2767   -9.5671   22.4770 H   0  0  0  0  0  0
  -23.9990   -7.4640   22.7485 H   0  0  0  0  0  0
  -21.0840   -8.8804   19.8968 H   0  0  0  0  0  0
  -22.3724  -10.9684   19.6180 H   0  0  0  0  0  0
  -21.2006   -7.6149   23.9728 H   0  0  0  0  0  0
  -21.1470   -6.0520   25.9084 H   0  0  0  0  0  0
  -22.0600   -2.7611   23.2847 H   0  0  0  0  0  0
  -22.4035  -11.9916   22.4828 H   0  0  0  0  0  0
  -21.1069  -13.1313   22.2589 H   0  0  0  0  0  0
  -24.6441  -15.8387   20.5220 H   0  0  0  0  0  0
  -26.2498  -15.6375   20.0435 H   0  0  0  0  0  0
  -26.7232  -32.5389   23.1074 H   0  0  0  0  0  0
  -25.0103  -33.9677   25.0397 H   0  0  0  0  0  0
  -22.7302  -31.3012   21.3944 H   0  0  0  0  0  0
  -23.3743  -35.9626   23.3295 H   0  0  0  0  0  0
  -24.3583  -36.8915   22.2052 H   0  0  0  0  0  0
  -23.7249  -37.6490   23.6662 H   0  0  0  0  0  0
  -26.1232  -31.5183   20.6158 H   0  0  0  0  0  0
  -26.8578  -30.8080   22.0187 H   0  0  0  0  0  0
  -28.1144  -28.8804   21.2331 H   0  0  0  0  0  0
  -25.9269  -25.9308   18.9448 H   0  0  0  0  0  0
  -23.9711  -27.3353   18.9694 H   0  0  0  0  0  0
  -23.7850  -30.5929   19.4028 H   0  0  0  0  0  0
  -22.7697  -29.2538   19.8449 H   0  0  0  0  0  0
  -25.1299  -36.1915   25.0805 H   0  0  0  0  0  0
  -20.9991  -28.3304   24.1390 H   0  0  0  0  0  0
  -20.5707  -26.2331   23.3614 H   0  0  0  0  0  0
  -21.6652  -26.7475   22.1194 H   0  0  0  0  0  0
  -19.6920  -25.6308   21.1257 H   0  0  0  0  0  0
  -19.6689  -27.3202   20.6739 H   0  0  0  0  0  0
  -17.4211  -26.6692   21.4033 H   0  0  0  0  0  0
  -18.0342  -26.0088   22.9033 H   0  0  0  0  0  0
  -19.7946  -30.7310   24.2241 H   0  0  0  0  0  0
  -17.5018  -31.6273   24.5190 H   0  0  0  0  0  0
  -15.5361  -30.2994   23.7668 H   0  0  0  0  0  0
  -15.8687  -28.0851   22.7040 H   0  0  0  0  0  0
  -24.5913  -30.7070   25.7789 H   0  0  0  0  0  0
  -24.8886  -32.2926   26.4817 H   0  0  0  0  0  0
  -25.8034  -30.8992   27.0257 H   0  0  0  0  0  0
  -26.2954  -29.6734   24.1237 H   0  0  0  0  0  0
  -27.3963  -29.7250   25.4795 H   0  0  0  0  0  0
  -27.8859  -30.4225   23.9548 H   0  0  0  0  0  0
  -27.2660  -33.3629   26.2070 H   0  0  0  0  0  0
  -28.3890  -32.6864   25.0364 H   0  0  0  0  0  0
  -28.0691  -31.8459   26.5459 H   0  0  0  0  0  0
  -28.2594  -38.0109   24.7510 H   0  0  0  0  0  0
  -28.1083  -36.2640   24.6285 H   0  0  0  0  0  0
  -27.2303  -37.1454   25.8867 H   0  0  0  0  0  0
  -20.9428  -29.8776   21.6845 H   0  0  0  0  0  0
  -26.0163  -38.2848   24.1397 H   0  0  0  0  0  0
  -27.0540  -21.7801   21.5244 H   0  0  0  0  0  0
  -26.9895  -20.6947   20.1353 H   0  0  0  0  0  0
  -26.4834  -22.3588   19.9615 H   0  0  0  0  0  0
  -27.9154  -24.7494   18.8066 H   0  0  0  0  0  0
  -27.0008  -24.6258   20.2936 H   0  0  0  0  0  0
  -28.7401  -22.0070   18.9818 H   0  0  0  0  0  0
  -28.8483  -15.7111   20.6981 H   0  0  0  0  0  0
  -30.3334  -21.6560   21.1259 H   0  0  0  0  0  0
  1 25  1  0  0  0
  1 30  2  0  0  0
  1 80  1  0  0  0
  2  3  1  0  0  0
  2 25  1  0  0  0
  2 87  1  0  0  0
  2 88  1  0  0  0
  3  4  1  0  0  0
  3 89  1  0  0  0
  3 90  1  0  0  0
  4  5  1  0  0  0
  4 91  1  0  0  0
  4 92  1  0  0  0
  5  6  1  0  0  0
  5 26  1  0  0  0
  5 93  1  0  0  0
  6 25  1  0  0  0
  6 94  1  0  0  0
  6 95  1  0  0  0
  7  8  2  0  0  0
  7 26  1  0  0  0
  7 29  1  0  0  0
  8  9  1  0  0  0
  8 22  1  0  0  0
  9 10  1  0  0  0
  9 27  2  0  0  0
 10 11  2  0  0  0
 10 15  1  0  0  0
 11 12  1  0  0  0
 11 96  1  0  0  0
 12 13  2  0  0  0
 12 97  1  0  0  0
 13 14  1  0  0  0
 13 31  1  0  0  0
 14 15  2  0  0  0
 14 98  1  0  0  0
 15 99  1  0  0  0
 16 17  2  0  0  0
 16 21  1  0  0  0
 16 31  1  0  0  0
 17 18  1  0  0  0
 17100  1  0  0  0
 18 19  2  0  0  0
 18101  1  0  0  0
 19 20  1  0  0  0
 19 24  1  0  0  0
 20 21  2  0  0  0
 20102  1  0  0  0
 21 23  1  0  0  0
 22 28  1  0  0  0
 22 32  2  0  0  0
 26 27  1  0  0  0
 28103  1  0  0  0
 28104  1  0  0  0
 29105  1  0  0  0
 29106  1  0  0  0
 33 34  1  0  0  0
 33 66  1  0  0  0
 33 70  2  0  0  0
 34 36  1  0  0  0
 34 59  1  0  0  0
 34107  1  0  0  0
 35 44  2  0  0  0
 35 45  1  0  0  0
 35 68  1  0  0  0
 36 56  1  0  0  0
 36108  1  0  0  0
 37 39  1  0  0  0
 37 47  1  0  0  0
 37 66  1  0  0  0
 37109  1  0  0  0
 38 43  2  0  0  0
 38 46  1  0  0  0
 38 47  1  0  0  0
 39 64  1  0  0  0
 39 67  2  0  0  0
 40 52  1  0  0  0
 40 53  2  0  0  0
 40 58  1  0  0  0
 41110  1  0  0  0
 41111  1  0  0  0
 41112  1  0  0  0
 41 48  1  0  0  0
 42 43  1  0  0  0
 42 66  1  0  0  0
 42113  1  0  0  0
 42114  1  0  0  0
 43 44  1  0  0  0
 44115  1  0  0  0
 45 46  2  0  0  0
 45116  1  0  0  0
 46117  1  0  0  0
 47118  1  0  0  0
 47119  1  0  0  0
 48 56  1  0  0  0
 48 65  1  0  0  0
 48120  1  0  0  0
 49 50  1  0  0  0
 49 53  1  0  0  0
 49 64  1  0  0  0
 49121  1  0  0  0
 50 51  1  0  0  0
 50122  1  0  0  0
 50123  1  0  0  0
 51 52  1  0  0  0
 51124  1  0  0  0
 51125  1  0  0  0
 52126  1  0  0  0
 52127  1  0  0  0
 53 54  1  0  0  0
 54 55  2  0  0  0
 54128  1  0  0  0
 55 57  1  0  0  0
 55129  1  0  0  0
 56 69  2  0  0  0
 57 58  2  0  0  0
 57130  1  0  0  0
 58131  1  0  0  0
 59 60  1  0  0  0
 59 61  1  0  0  0
 59 62  1  0  0  0
 60132  1  0  0  0
 60133  1  0  0  0
 60134  1  0  0  0
 61135  1  0  0  0
 61136  1  0  0  0
 61137  1  0  0  0
 62138  1  0  0  0
 62139  1  0  0  0
 62140  1  0  0  0
 63 65  1  0  0  0
 63141  1  0  0  0
 63142  1  0  0  0
 63143  1  0  0  0
 64144  1  0  0  0
 65145  1  0  0  0
 68 76  1  0  0  0
 71 72  2  0  0  0
 71 78  1  0  0  0
 71 86  1  0  0  0
 72 79  1  0  0  0
 72 80  1  0  0  0
 73 79  2  0  0  0
 73 81  1  0  0  0
 73 86  1  0  0  0
 74 76  1  0  0  0
 74 77  1  0  0  0
 74 82  2  0  0  0
 75146  1  0  0  0
 75147  1  0  0  0
 75148  1  0  0  0
 75 77  1  0  0  0
 76149  1  0  0  0
 76150  1  0  0  0
 77 81  1  0  0  0
 77151  1  0  0  0
 78 83  1  0  0  0
 78 84  1  0  0  0
 78 85  1  0  0  0
 80152  1  0  0  0
 81153  1  0  0  0
M  ISO  4   1 100  68 101  76 101  80 100
M  END
> <chiral flag>
0

> <version>
0

> <s_m_source_file>
/data/baiqing/PycharmProjects/Reinvent-master-3.2/result/LINK_invent/BTK/process_docking_weight1_custom_product_contain_oxygen_bond_distance_aromatic_linkinvent_7_9_3/rearranged_h_0182.sdf

> <i_m_source_file_index>
21

> <r_mmod_Potential_Energy-OPLS-2005>
157.935394287109

> <r_mmod_Stretch_Energy-OPLS-2005>
130.957778930664

> <r_mmod_Bend_Energy-OPLS-2005>
189.011276245117

> <r_mmod_Torsional_Energy-OPLS-2005>
212.983489990234

> <r_mmod_Improper_Torsional_Energy-OPLS-2005>
5.97852039337158

> <r_mmod_Van_der_Waal_Energy-OPLS-2005>
120.249519348145

> <r_mmod_Electrostatic_Energy-OPLS-2005>
-375.455322265625

> <r_mmod_Solvation_Energy-OPLS-2005>
-221.50471496582

> <b_mmod_Minimization_Converged-OPLS-2005>
0

> <r_mmod_RMS_Derivative-OPLS-2005>
1.81814503669739

$$$$
21
                    3D
 Structure written by MMmdl.
150158  0  0  1  0            999 V2000
  -30.5702  -14.7892   20.4484 C   0  0  0  0  0  0
  -30.4417  -12.4766   19.4862 C   0  0  0  0  0  0
  -29.5148  -12.5112   18.2485 C   0  0  0  0  0  0
  -28.0411  -12.3298   18.6585 C   0  0  0  0  0  0
  -27.6463  -13.2194   19.8652 C   0  0  2  0  0  0
  -28.6901  -13.1560   21.0008 C   0  0  0  0  0  0
  -25.2488  -13.8157   20.5589 C   0  0  0  0  0  0
  -24.1789  -13.0417   20.9209 C   0  0  0  0  0  0
  -24.6370  -11.6901   20.8791 C   0  0  0  0  0  0
  -23.9037  -10.4295   21.0428 C   0  0  0  0  0  0
  -24.3596   -9.4214   21.9200 C   0  0  0  0  0  0
  -23.6285   -8.2240   22.0760 C   0  0  0  0  0  0
  -22.4280   -8.0267   21.3540 C   0  0  0  0  0  0
  -21.9909   -9.0251   20.4657 C   0  0  0  0  0  0
  -22.7222  -10.2143   20.3076 C   0  0  0  0  0  0
  -21.6875   -6.0722   22.5257 C   0  0  0  0  0  0
  -21.4049   -6.5632   23.8190 C   0  0  0  0  0  0
  -21.3652   -5.6786   24.9148 C   0  0  0  0  0  0
  -21.6027   -4.3045   24.7211 C   0  0  0  0  0  0
  -21.8830   -3.8133   23.4342 C   0  0  0  0  0  0
  -21.9209   -4.6947   22.3388 C   0  0  0  0  0  0
  -22.7808  -13.5228   21.1839 C   0  0  0  0  0  0
  -22.1671   -4.2121   21.0966 F   0  0  0  0  0  0
  -21.5612   -3.4536   25.7726 F   0  0  0  0  0  0
  -29.9896  -13.5342   20.4253 N   0  0  0  0  0  0
  -26.2952  -12.9347   20.3331 N   0  0  0  0  0  0
  -25.9301  -11.6505   20.5823 N   0  0  0  0  0  0
  -22.0445  -12.8259   22.0416 N   0  0  0  0  0  0
  -25.4096  -15.1839   20.3712 N   0  0  0  0  0  0
  -31.7348  -14.9257   20.0586 O   0  0  0  0  0  0
  -21.6658   -6.8861   21.4222 O   0  0  0  0  0  0
  -22.3505  -14.5516   20.6636 O   0  0  0  0  0  0
  -24.6358  -31.8506   23.1952 C   0  0  0  0  0  0
  -25.9181  -32.4716   23.8312 C   0  0  1  0  0  0
  -27.2367  -27.2241   20.1275 C   0  0  0  0  0  0
  -25.5977  -33.8522   24.2242 N   0  0  0  0  0  0
  -23.4365  -30.4724   21.5387 C   0  0  2  0  0  0
  -24.8863  -28.9112   20.1080 C   0  0  0  0  0  0
  -22.7528  -29.4576   22.4866 C   0  0  0  0  0  0
  -18.0294  -28.1395   22.8468 C   0  0  0  0  0  0
  -24.1495  -36.7252   23.2644 C   0  0  0  0  0  0
  -25.9882  -30.7464   21.3866 C   0  0  0  0  0  0
  -26.0602  -29.3694   20.7193 C   0  0  0  0  0  0
  -27.2335  -28.5417   20.7137 C   0  0  0  0  0  0
  -26.0296  -26.8324   19.5049 C   0  0  0  0  0  0
  -24.8801  -27.6509   19.4901 C   0  0  0  0  0  0
  -23.6586  -29.8075   20.1551 C   0  0  0  0  0  0
  -25.4129  -36.3050   24.0325 C   0  0  1  0  0  0
  -20.5913  -28.3721   23.1245 C   0  0  2  0  0  0
  -20.6780  -26.9430   22.5417 C   0  0  0  0  0  0
  -19.5772  -26.6383   21.5209 C   0  0  0  0  0  0
  -18.1943  -26.7941   22.1608 C   0  0  0  0  0  0
  -19.1552  -28.8877   23.2856 C   0  0  0  0  0  0
  -18.9472  -30.1462   23.8894 C   0  0  0  0  0  0
  -17.6470  -30.6591   24.0550 C   0  0  0  0  0  0
  -25.9069  -34.9416   23.5082 C   0  0  0  0  0  0
  -16.5360  -29.9084   23.6333 C   0  0  0  0  0  0
  -16.7281  -28.6505   23.0361 C   0  0  0  0  0  0
  -26.4522  -31.6580   25.0741 C   0  0  0  0  0  0
  -25.3718  -31.3826   26.1467 C   0  0  0  0  0  0
  -27.0325  -30.2933   24.6344 C   0  0  0  0  0  0
  -27.6098  -32.4319   25.7493 C   0  0  0  0  0  0
  -27.5584  -37.1786   24.8457 C   0  0  0  0  0  0
  -21.4234  -29.3040   22.3610 N   0  0  0  0  0  0
  -26.4295  -37.3753   23.9405 N   0  0  0  0  0  0
  -24.7045  -31.0419   22.0951 N   0  0  0  0  0  0
  -23.4201  -28.8130   23.3010 O   0  0  0  0  0  0
  -28.3392  -26.3210   20.2105 O   0  0  0  0  0  0
  -26.5644  -34.8901   22.4648 O   0  0  0  0  0  0
  -23.5505  -32.1367   23.7206 O   0  0  0  0  0  0
  -29.1121  -19.2227   19.1231 C   0  0  0  0  0  0
  -29.2471  -17.7675   19.1697 C   0  0  0  0  0  0
  -29.4124  -19.9410   20.2627 C   0  0  0  0  0  0
  -29.7240  -17.2391   20.3697 C   0  0  0  0  0  0
  -28.3006  -24.9471   19.7755 C   0  0  0  0  0  0
  -28.8424  -23.8087   20.3834 C   0  0  0  0  0  0
  -28.7673  -22.3996   19.7989 C   0  0  0  0  0  0
  -28.8062  -16.9317   17.9932 C   0  0  0  0  0  0
  -29.3276  -21.3365   20.5172 N   0  0  0  0  0  0
  -29.7767  -15.8850   20.7974 N   0  0  0  0  0  0
  -28.2292  -22.1790   18.7117 O   0  0  0  0  0  0
  -29.4794  -23.9543   21.5560 O   0  0  0  0  0  0
  -28.5547  -17.6719   16.9121 F   0  0  0  0  0  0
  -29.7316  -16.0395   17.6480 F   0  0  0  0  0  0
  -27.6843  -16.2717   18.2804 F   0  0  0  0  0  0
  -29.9662  -18.6799   21.4297 S   0  0  0  0  0  0
  -31.4788  -12.6189   19.1771 H   0  0  0  0  0  0
  -30.4065  -11.4974   19.9685 H   0  0  0  0  0  0
  -29.8035  -11.7360   17.5371 H   0  0  0  0  0  0
  -29.6316  -13.4623   17.7281 H   0  0  0  0  0  0
  -27.8926  -11.2802   18.9136 H   0  0  0  0  0  0
  -27.3861  -12.5317   17.8100 H   0  0  0  0  0  0
  -27.6424  -14.2384   19.4945 H   0  0  0  0  0  0
  -28.7351  -12.1551   21.4325 H   0  0  0  0  0  0
  -28.4089  -13.8220   21.8183 H   0  0  0  0  0  0
  -25.2739   -9.5720   22.4793 H   0  0  0  0  0  0
  -24.0009   -7.4646   22.7484 H   0  0  0  0  0  0
  -21.0835   -8.8770   19.8963 H   0  0  0  0  0  0
  -22.3658  -10.9689   19.6214 H   0  0  0  0  0  0
  -21.2081   -7.6158   23.9690 H   0  0  0  0  0  0
  -21.1460   -6.0513   25.9049 H   0  0  0  0  0  0
  -22.0636   -2.7602   23.2822 H   0  0  0  0  0  0
  -22.4092  -11.9959   22.4857 H   0  0  0  0  0  0
  -21.1075  -13.1302   22.2637 H   0  0  0  0  0  0
  -24.5846  -15.7736   20.3423 H   0  0  0  0  0  0
  -26.1735  -15.5564   19.8190 H   0  0  0  0  0  0
  -26.7245  -32.5320   23.1046 H   0  0  0  0  0  0
  -25.0128  -33.9670   25.0402 H   0  0  0  0  0  0
  -22.7346  -31.2960   21.3921 H   0  0  0  0  0  0
  -23.3747  -35.9583   23.3315 H   0  0  0  0  0  0
  -24.3581  -36.8858   22.2050 H   0  0  0  0  0  0
  -23.7250  -37.6462   23.6655 H   0  0  0  0  0  0
  -26.1516  -31.5104   20.6257 H   0  0  0  0  0  0
  -26.8544  -30.7787   22.0358 H   0  0  0  0  0  0
  -28.1308  -28.8911   21.2033 H   0  0  0  0  0  0
  -25.9367  -25.8547   19.0557 H   0  0  0  0  0  0
  -23.9819  -27.2840   19.0131 H   0  0  0  0  0  0
  -23.7984  -30.5892   19.4085 H   0  0  0  0  0  0
  -22.7720  -29.2574   19.8365 H   0  0  0  0  0  0
  -25.1306  -36.1883   25.0810 H   0  0  0  0  0  0
  -21.0010  -28.3324   24.1363 H   0  0  0  0  0  0
  -20.5668  -26.2341   23.3635 H   0  0  0  0  0  0
  -21.6652  -26.7425   22.1235 H   0  0  0  0  0  0
  -19.6935  -25.6286   21.1266 H   0  0  0  0  0  0
  -19.6721  -27.3167   20.6718 H   0  0  0  0  0  0
  -17.4225  -26.6682   21.3998 H   0  0  0  0  0  0
  -18.0329  -26.0088   22.9011 H   0  0  0  0  0  0
  -19.7944  -30.7267   24.2282 H   0  0  0  0  0  0
  -17.5024  -31.6278   24.5146 H   0  0  0  0  0  0
  -15.5364  -30.2982   23.7663 H   0  0  0  0  0  0
  -15.8677  -28.0803   22.7100 H   0  0  0  0  0  0
  -24.5920  -30.7119   25.7855 H   0  0  0  0  0  0
  -24.8880  -32.3020   26.4763 H   0  0  0  0  0  0
  -25.8021  -30.9139   27.0327 H   0  0  0  0  0  0
  -26.2920  -29.6699   24.1319 H   0  0  0  0  0  0
  -27.3832  -29.7213   25.4951 H   0  0  0  0  0  0
  -27.8893  -30.4091   23.9703 H   0  0  0  0  0  0
  -27.2734  -33.3626   26.2071 H   0  0  0  0  0  0
  -28.3902  -32.6871   25.0313 H   0  0  0  0  0  0
  -28.0783  -31.8450   26.5411 H   0  0  0  0  0  0
  -28.2620  -38.0072   24.7474 H   0  0  0  0  0  0
  -28.1068  -36.2594   24.6295 H   0  0  0  0  0  0
  -27.2315  -37.1449   25.8874 H   0  0  0  0  0  0
  -20.9443  -29.8723   21.6764 H   0  0  0  0  0  0
  -26.0159  -38.2815   24.1412 H   0  0  0  0  0  0
  -28.7483  -19.6924   18.2208 H   0  0  0  0  0  0
  -27.8020  -24.8586   18.8196 H   0  0  0  0  0  0
  -29.7293  -21.6454   21.3928 H   0  0  0  0  0  0
  -28.9482  -15.5932   21.2960 H   0  0  0  0  0  0
  -29.4667  -24.8791   21.7664 H   0  0  0  0  0  0
  1 25  1  0  0  0
  1 30  2  0  0  0
  1 80  1  0  0  0
  2  3  1  0  0  0
  2 25  1  0  0  0
  2 87  1  0  0  0
  2 88  1  0  0  0
  3  4  1  0  0  0
  3 89  1  0  0  0
  3 90  1  0  0  0
  4  5  1  0  0  0
  4 91  1  0  0  0
  4 92  1  0  0  0
  5  6  1  0  0  0
  5 26  1  0  0  0
  5 93  1  0  0  0
  6 25  1  0  0  0
  6 94  1  0  0  0
  6 95  1  0  0  0
  7  8  2  0  0  0
  7 26  1  0  0  0
  7 29  1  0  0  0
  8  9  1  0  0  0
  8 22  1  0  0  0
  9 10  1  0  0  0
  9 27  2  0  0  0
 10 11  2  0  0  0
 10 15  1  0  0  0
 11 12  1  0  0  0
 11 96  1  0  0  0
 12 13  2  0  0  0
 12 97  1  0  0  0
 13 14  1  0  0  0
 13 31  1  0  0  0
 14 15  2  0  0  0
 14 98  1  0  0  0
 15 99  1  0  0  0
 16 17  2  0  0  0
 16 21  1  0  0  0
 16 31  1  0  0  0
 17 18  1  0  0  0
 17100  1  0  0  0
 18 19  2  0  0  0
 18101  1  0  0  0
 19 20  1  0  0  0
 19 24  1  0  0  0
 20 21  2  0  0  0
 20102  1  0  0  0
 21 23  1  0  0  0
 22 28  1  0  0  0
 22 32  2  0  0  0
 26 27  1  0  0  0
 28103  1  0  0  0
 28104  1  0  0  0
 29105  1  0  0  0
 29106  1  0  0  0
 33 34  1  0  0  0
 33 66  1  0  0  0
 33 70  2  0  0  0
 34 36  1  0  0  0
 34 59  1  0  0  0
 34107  1  0  0  0
 35 44  2  0  0  0
 35 45  1  0  0  0
 35 68  1  0  0  0
 36 56  1  0  0  0
 36108  1  0  0  0
 37 39  1  0  0  0
 37 47  1  0  0  0
 37 66  1  0  0  0
 37109  1  0  0  0
 38 43  2  0  0  0
 38 46  1  0  0  0
 38 47  1  0  0  0
 39 64  1  0  0  0
 39 67  2  0  0  0
 40 52  1  0  0  0
 40 53  2  0  0  0
 40 58  1  0  0  0
 41110  1  0  0  0
 41111  1  0  0  0
 41112  1  0  0  0
 41 48  1  0  0  0
 42 43  1  0  0  0
 42 66  1  0  0  0
 42113  1  0  0  0
 42114  1  0  0  0
 43 44  1  0  0  0
 44115  1  0  0  0
 45 46  2  0  0  0
 45116  1  0  0  0
 46117  1  0  0  0
 47118  1  0  0  0
 47119  1  0  0  0
 48 56  1  0  0  0
 48 65  1  0  0  0
 48120  1  0  0  0
 49 50  1  0  0  0
 49 53  1  0  0  0
 49 64  1  0  0  0
 49121  1  0  0  0
 50 51  1  0  0  0
 50122  1  0  0  0
 50123  1  0  0  0
 51 52  1  0  0  0
 51124  1  0  0  0
 51125  1  0  0  0
 52126  1  0  0  0
 52127  1  0  0  0
 53 54  1  0  0  0
 54 55  2  0  0  0
 54128  1  0  0  0
 55 57  1  0  0  0
 55129  1  0  0  0
 56 69  2  0  0  0
 57 58  2  0  0  0
 57130  1  0  0  0
 58131  1  0  0  0
 59 60  1  0  0  0
 59 61  1  0  0  0
 59 62  1  0  0  0
 60132  1  0  0  0
 60133  1  0  0  0
 60134  1  0  0  0
 61135  1  0  0  0
 61136  1  0  0  0
 61137  1  0  0  0
 62138  1  0  0  0
 62139  1  0  0  0
 62140  1  0  0  0
 63 65  1  0  0  0
 63141  1  0  0  0
 63142  1  0  0  0
 63143  1  0  0  0
 64144  1  0  0  0
 65145  1  0  0  0
 68 75  1  0  0  0
 71 72  1  0  0  0
 71 73  2  0  0  0
 71146  1  0  0  0
 72 74  2  0  0  0
 72 78  1  0  0  0
 73 79  1  0  0  0
 73 86  1  0  0  0
 74 80  1  0  0  0
 74 86  1  0  0  0
 75 76  2  0  0  0
 75147  1  0  0  0
 76 77  1  0  0  0
 76 82  1  0  0  0
 77 79  1  0  0  0
 77 81  2  0  0  0
 78 83  1  0  0  0
 78 84  1  0  0  0
 78 85  1  0  0  0
 79148  1  0  0  0
 80149  1  0  0  0
 82150  1  0  0  0
M  ISO  4   1 100  68 101  75 101  80 100
M  END
> <chiral flag>
0

> <version>
0

> <s_m_source_file>
/data/baiqing/PycharmProjects/Reinvent-master-3.2/result/LINK_invent/BTK/process_docking_weight1_custom_product_contain_oxygen_bond_distance_aromatic_linkinvent_7_9_3/rearranged_h_0182.sdf

> <i_m_source_file_index>
22

> <r_mmod_Potential_Energy-OPLS-2005>
195.505462646484

> <r_mmod_Stretch_Energy-OPLS-2005>
133.687026977539

> <r_mmod_Bend_Energy-OPLS-2005>
180.79069519043

> <r_mmod_Torsional_Energy-OPLS-2005>
244.729400634766

> <r_mmod_Improper_Torsional_Energy-OPLS-2005>
7.48288774490356

> <r_mmod_Van_der_Waal_Energy-OPLS-2005>
115.819694519043

> <r_mmod_Electrostatic_Energy-OPLS-2005>
-376.974731445312

> <r_mmod_Solvation_Energy-OPLS-2005>
-216.785003662109

> <b_mmod_Minimization_Converged-OPLS-2005>
0

> <r_mmod_RMS_Derivative-OPLS-2005>
3.54659104347229

$$$$
22
                    3D
 Structure written by MMmdl.
154162  0  0  1  0            999 V2000
  -30.6222  -14.5511   20.5318 C   0  0  0  0  0  0
  -30.4462  -12.3439   19.4243 C   0  0  0  0  0  0
  -29.5084  -12.5035   18.2071 C   0  0  0  0  0  0
  -28.0288  -12.3483   18.6186 C   0  0  0  0  0  0
  -27.6578  -13.1976   19.8626 C   0  0  2  0  0  0
  -28.7015  -12.9967   20.9858 C   0  0  0  0  0  0
  -25.2572  -13.8114   20.5634 C   0  0  0  0  0  0
  -24.1835  -13.0396   20.9179 C   0  0  0  0  0  0
  -24.6366  -11.6862   20.8714 C   0  0  0  0  0  0
  -23.9018  -10.4264   21.0405 C   0  0  0  0  0  0
  -24.3583   -9.4193   21.9186 C   0  0  0  0  0  0
  -23.6269   -8.2218   22.0747 C   0  0  0  0  0  0
  -22.4259   -8.0239   21.3539 C   0  0  0  0  0  0
  -21.9880   -9.0219   20.4644 C   0  0  0  0  0  0
  -22.7183  -10.2102   20.3056 C   0  0  0  0  0  0
  -21.6841   -6.0714   22.5287 C   0  0  0  0  0  0
  -21.3996   -6.5628   23.8220 C   0  0  0  0  0  0
  -21.3664   -5.6786   24.9184 C   0  0  0  0  0  0
  -21.6058   -4.3051   24.7237 C   0  0  0  0  0  0
  -21.8822   -3.8125   23.4349 C   0  0  0  0  0  0
  -21.9186   -4.6941   22.3403 C   0  0  0  0  0  0
  -22.7861  -13.5219   21.1858 C   0  0  0  0  0  0
  -22.1664   -4.2136   21.0979 F   0  0  0  0  0  0
  -21.5639   -3.4531   25.7740 F   0  0  0  0  0  0
  -30.0219  -13.3314   20.4278 N   0  0  0  0  0  0
  -26.2989  -12.9260   20.3259 N   0  0  0  0  0  0
  -25.9288  -11.6432   20.5692 N   0  0  0  0  0  0
  -22.0480  -12.8260   22.0419 N   0  0  0  0  0  0
  -25.4225  -15.1828   20.4015 N   0  0  0  0  0  0
  -31.7930  -14.7510   20.1897 O   0  0  0  0  0  0
  -21.6616   -6.8846   21.4244 O   0  0  0  0  0  0
  -22.3577  -14.5533   20.6688 O   0  0  0  0  0  0
  -24.6182  -31.8659   23.2078 C   0  0  0  0  0  0
  -25.9058  -32.4804   23.8395 C   0  0  1  0  0  0
  -27.2246  -27.3823   20.0985 C   0  0  0  0  0  0
  -25.5912  -33.8606   24.2319 N   0  0  0  0  0  0
  -23.4072  -30.4898   21.5503 C   0  0  2  0  0  0
  -24.8486  -28.9491   20.1160 C   0  0  0  0  0  0
  -22.7445  -29.4645   22.4982 C   0  0  0  0  0  0
  -18.0276  -28.1385   22.8483 C   0  0  0  0  0  0
  -24.1488  -36.7316   23.2639 C   0  0  0  0  0  0
  -25.9413  -30.8136   21.3682 C   0  0  0  0  0  0
  -26.0131  -29.4452   20.7129 C   0  0  0  0  0  0
  -27.2000  -28.6688   20.7012 C   0  0  0  0  0  0
  -26.0281  -26.9060   19.5126 C   0  0  0  0  0  0
  -24.8525  -27.6796   19.5172 C   0  0  0  0  0  0
  -23.6172  -29.8268   20.1640 C   0  0  0  0  0  0
  -25.4107  -36.3101   24.0335 C   0  0  1  0  0  0
  -20.5870  -28.3672   23.1320 C   0  0  2  0  0  0
  -20.6768  -26.9409   22.5423 C   0  0  0  0  0  0
  -19.5746  -26.6388   21.5220 C   0  0  0  0  0  0
  -18.1923  -26.7938   22.1621 C   0  0  0  0  0  0
  -19.1529  -28.8846   23.2893 C   0  0  0  0  0  0
  -18.9449  -30.1453   23.8904 C   0  0  0  0  0  0
  -17.6449  -30.6587   24.0553 C   0  0  0  0  0  0
  -25.9035  -34.9467   23.5120 C   0  0  0  0  0  0
  -16.5343  -29.9085   23.6323 C   0  0  0  0  0  0
  -16.7262  -28.6506   23.0342 C   0  0  0  0  0  0
  -26.4464  -31.6597   25.0748 C   0  0  0  0  0  0
  -25.3726  -31.3733   26.1506 C   0  0  0  0  0  0
  -27.0258  -30.3023   24.6148 C   0  0  0  0  0  0
  -27.6065  -32.4296   25.7489 C   0  0  0  0  0  0
  -27.5586  -37.1806   24.8457 C   0  0  0  0  0  0
  -21.4171  -29.3028   22.3735 N   0  0  0  0  0  0
  -26.4292  -37.3792   23.9408 N   0  0  0  0  0  0
  -24.6742  -31.0725   22.0996 N   0  0  0  0  0  0
  -23.4204  -28.8191   23.3033 O   0  0  0  0  0  0
  -28.3969  -26.6353   20.1308 O   0  0  0  0  0  0
  -26.5607  -34.8926   22.4685 O   0  0  0  0  0  0
  -23.5358  -32.1434   23.7440 O   0  0  0  0  0  0
  -29.6481  -19.2214   20.5885 C   0  0  0  0  0  0
  -30.2305  -19.2622   21.8491 C   0  0  0  0  0  0
  -29.9856  -16.9555   20.9701 C   0  0  0  0  0  0
  -29.2760  -20.4002   19.6929 C   0  0  0  0  0  0
  -28.4945  -24.0960   20.2503 C   0  0  0  0  0  0
  -28.5179  -25.3940   19.3819 C   0  0  0  0  0  0
  -28.3007  -22.7252   19.5185 C   0  0  2  0  0  0
  -26.8267  -22.4737   19.1069 C   0  0  0  0  0  0
  -29.4910  -17.8846   20.1337 N   0  0  0  0  0  0
  -30.5448  -20.3470   22.6729 N   0  0  0  0  0  0
  -29.7521  -15.5603   20.7758 N   0  0  0  0  0  0
  -28.8356  -21.5456   20.2628 N   0  0  0  0  0  0
  -29.3339  -20.2909   18.4635 O   0  0  0  0  0  0
  -28.6611  -24.1665   21.4741 O   0  0  0  0  0  0
  -26.6974  -21.3930   18.3381 F   0  0  0  0  0  0
  -26.3414  -23.5065   18.4201 F   0  0  0  0  0  0
  -26.0732  -22.3107   20.1959 F   0  0  0  0  0  0
  -30.6414  -17.6561   22.4392 S   0  0  0  0  0  0
  -31.4864  -12.4881   19.1273 H   0  0  0  0  0  0
  -30.3832  -11.3323   19.8308 H   0  0  0  0  0  0
  -29.7651  -11.7705   17.4412 H   0  0  0  0  0  0
  -29.6619  -13.4836   17.7542 H   0  0  0  0  0  0
  -27.8588  -11.2930   18.8304 H   0  0  0  0  0  0
  -27.3747  -12.6009   17.7831 H   0  0  0  0  0  0
  -27.6893  -14.2383   19.5423 H   0  0  0  0  0  0
  -28.6992  -11.9610   21.3279 H   0  0  0  0  0  0
  -28.4571  -13.5963   21.8641 H   0  0  0  0  0  0
  -25.2732   -9.5694   22.4752 H   0  0  0  0  0  0
  -23.9998   -7.4613   22.7464 H   0  0  0  0  0  0
  -21.0807   -8.8702   19.8967 H   0  0  0  0  0  0
  -22.3618  -10.9625   19.6157 H   0  0  0  0  0  0
  -21.1979   -7.6136   23.9717 H   0  0  0  0  0  0
  -21.1502   -6.0515   25.9100 H   0  0  0  0  0  0
  -22.0598   -2.7587   23.2835 H   0  0  0  0  0  0
  -22.4046  -11.9902   22.4824 H   0  0  0  0  0  0
  -21.1104  -13.1326   22.2586 H   0  0  0  0  0  0
  -24.6302  -15.8111   20.4880 H   0  0  0  0  0  0
  -26.2388  -15.6296   20.0031 H   0  0  0  0  0  0
  -26.7136  -32.5479   23.1154 H   0  0  0  0  0  0
  -25.0042  -33.9768   25.0452 H   0  0  0  0  0  0
  -22.6955  -31.3063   21.4137 H   0  0  0  0  0  0
  -23.3755  -35.9645   23.3280 H   0  0  0  0  0  0
  -24.3595  -36.8958   22.2064 H   0  0  0  0  0  0
  -23.7236  -37.6516   23.6660 H   0  0  0  0  0  0
  -26.0645  -31.5776   20.5994 H   0  0  0  0  0  0
  -26.8255  -30.8621   21.9921 H   0  0  0  0  0  0
  -28.0982  -29.0488   21.1679 H   0  0  0  0  0  0
  -25.9561  -25.9267   19.0676 H   0  0  0  0  0  0
  -23.9499  -27.2840   19.0714 H   0  0  0  0  0  0
  -23.7407  -30.6047   19.4101 H   0  0  0  0  0  0
  -22.7361  -29.2593   19.8593 H   0  0  0  0  0  0
  -25.1278  -36.1970   25.0828 H   0  0  0  0  0  0
  -20.9945  -28.3234   24.1448 H   0  0  0  0  0  0
  -20.5695  -26.2281   23.3611 H   0  0  0  0  0  0
  -21.6636  -26.7465   22.1204 H   0  0  0  0  0  0
  -19.6909  -25.6300   21.1250 H   0  0  0  0  0  0
  -19.6697  -27.3199   20.6752 H   0  0  0  0  0  0
  -17.4210  -26.6697   21.4005 H   0  0  0  0  0  0
  -18.0302  -26.0080   22.9012 H   0  0  0  0  0  0
  -19.7920  -30.7261   24.2291 H   0  0  0  0  0  0
  -17.5000  -31.6274   24.5150 H   0  0  0  0  0  0
  -15.5337  -30.2978   23.7653 H   0  0  0  0  0  0
  -15.8671  -28.0823   22.7042 H   0  0  0  0  0  0
  -24.5849  -30.7145   25.7840 H   0  0  0  0  0  0
  -24.8978  -32.2900   26.5014 H   0  0  0  0  0  0
  -25.8066  -30.8840   27.0237 H   0  0  0  0  0  0
  -26.2790  -29.6828   24.1173 H   0  0  0  0  0  0
  -27.3966  -29.7232   25.4616 H   0  0  0  0  0  0
  -27.8667  -30.4312   23.9333 H   0  0  0  0  0  0
  -27.2721  -33.3595   26.2101 H   0  0  0  0  0  0
  -28.3852  -32.6858   25.0291 H   0  0  0  0  0  0
  -28.0766  -31.8401   26.5373 H   0  0  0  0  0  0
  -28.2591  -38.0114   24.7504 H   0  0  0  0  0  0
  -28.1087  -36.2643   24.6250 H   0  0  0  0  0  0
  -27.2314  -37.1433   25.8865 H   0  0  0  0  0  0
  -20.9356  -29.8765   21.6961 H   0  0  0  0  0  0
  -26.0180  -38.2874   24.1402 H   0  0  0  0  0  0
  -27.8229  -25.3319   18.5492 H   0  0  0  0  0  0
  -29.5002  -25.4172   18.9121 H   0  0  0  0  0  0
  -28.8718  -22.8093   18.5928 H   0  0  0  0  0  0
  -30.5620  -21.3205   22.3859 H   0  0  0  0  0  0
  -30.9314  -20.2293   23.6064 H   0  0  0  0  0  0
  -28.7915  -15.2753   20.8651 H   0  0  0  0  0  0
  -28.7825  -21.5760   21.2714 H   0  0  0  0  0  0
  1 25  1  0  0  0
  1 30  2  0  0  0
  1 81  1  0  0  0
  2  3  1  0  0  0
  2 25  1  0  0  0
  2 89  1  0  0  0
  2 90  1  0  0  0
  3  4  1  0  0  0
  3 91  1  0  0  0
  3 92  1  0  0  0
  4  5  1  0  0  0
  4 93  1  0  0  0
  4 94  1  0  0  0
  5  6  1  0  0  0
  5 26  1  0  0  0
  5 95  1  0  0  0
  6 25  1  0  0  0
  6 96  1  0  0  0
  6 97  1  0  0  0
  7  8  2  0  0  0
  7 26  1  0  0  0
  7 29  1  0  0  0
  8  9  1  0  0  0
  8 22  1  0  0  0
  9 10  1  0  0  0
  9 27  2  0  0  0
 10 11  2  0  0  0
 10 15  1  0  0  0
 11 12  1  0  0  0
 11 98  1  0  0  0
 12 13  2  0  0  0
 12 99  1  0  0  0
 13 14  1  0  0  0
 13 31  1  0  0  0
 14 15  2  0  0  0
 14100  1  0  0  0
 15101  1  0  0  0
 16 17  2  0  0  0
 16 21  1  0  0  0
 16 31  1  0  0  0
 17 18  1  0  0  0
 17102  1  0  0  0
 18 19  2  0  0  0
 18103  1  0  0  0
 19 20  1  0  0  0
 19 24  1  0  0  0
 20 21  2  0  0  0
 20104  1  0  0  0
 21 23  1  0  0  0
 22 28  1  0  0  0
 22 32  2  0  0  0
 26 27  1  0  0  0
 28105  1  0  0  0
 28106  1  0  0  0
 29107  1  0  0  0
 29108  1  0  0  0
 33 34  1  0  0  0
 33 66  1  0  0  0
 33 70  2  0  0  0
 34 36  1  0  0  0
 34 59  1  0  0  0
 34109  1  0  0  0
 35 44  2  0  0  0
 35 45  1  0  0  0
 35 68  1  0  0  0
 36 56  1  0  0  0
 36110  1  0  0  0
 37 39  1  0  0  0
 37 47  1  0  0  0
 37 66  1  0  0  0
 37111  1  0  0  0
 38 43  2  0  0  0
 38 46  1  0  0  0
 38 47  1  0  0  0
 39 64  1  0  0  0
 39 67  2  0  0  0
 40 52  1  0  0  0
 40 53  2  0  0  0
 40 58  1  0  0  0
 41112  1  0  0  0
 41113  1  0  0  0
 41114  1  0  0  0
 41 48  1  0  0  0
 42 43  1  0  0  0
 42 66  1  0  0  0
 42115  1  0  0  0
 42116  1  0  0  0
 43 44  1  0  0  0
 44117  1  0  0  0
 45 46  2  0  0  0
 45118  1  0  0  0
 46119  1  0  0  0
 47120  1  0  0  0
 47121  1  0  0  0
 48 56  1  0  0  0
 48 65  1  0  0  0
 48122  1  0  0  0
 49 50  1  0  0  0
 49 53  1  0  0  0
 49 64  1  0  0  0
 49123  1  0  0  0
 50 51  1  0  0  0
 50124  1  0  0  0
 50125  1  0  0  0
 51 52  1  0  0  0
 51126  1  0  0  0
 51127  1  0  0  0
 52128  1  0  0  0
 52129  1  0  0  0
 53 54  1  0  0  0
 54 55  2  0  0  0
 54130  1  0  0  0
 55 57  1  0  0  0
 55131  1  0  0  0
 56 69  2  0  0  0
 57 58  2  0  0  0
 57132  1  0  0  0
 58133  1  0  0  0
 59 60  1  0  0  0
 59 61  1  0  0  0
 59 62  1  0  0  0
 60134  1  0  0  0
 60135  1  0  0  0
 60136  1  0  0  0
 61137  1  0  0  0
 61138  1  0  0  0
 61139  1  0  0  0
 62140  1  0  0  0
 62141  1  0  0  0
 62142  1  0  0  0
 63 65  1  0  0  0
 63143  1  0  0  0
 63144  1  0  0  0
 63145  1  0  0  0
 64146  1  0  0  0
 65147  1  0  0  0
 68 76  1  0  0  0
 71 72  2  0  0  0
 71 74  1  0  0  0
 71 79  1  0  0  0
 72 80  1  0  0  0
 72 88  1  0  0  0
 73 79  2  0  0  0
 73 81  1  0  0  0
 73 88  1  0  0  0
 74 82  1  0  0  0
 74 83  2  0  0  0
 75 76  1  0  0  0
 75 77  1  0  0  0
 75 84  2  0  0  0
 76148  1  0  0  0
 76149  1  0  0  0
 77 78  1  0  0  0
 77 82  1  0  0  0
 77150  1  0  0  0
 78 85  1  0  0  0
 78 86  1  0  0  0
 78 87  1  0  0  0
 80151  1  0  0  0
 80152  1  0  0  0
 81153  1  0  0  0
 82154  1  0  0  0
M  ISO  4   1 100  68 101  76 101  81 100
M  END
> <chiral flag>
0

> <version>
0

> <s_m_source_file>
/data/baiqing/PycharmProjects/Reinvent-master-3.2/result/LINK_invent/BTK/process_docking_weight1_custom_product_contain_oxygen_bond_distance_aromatic_linkinvent_7_9_3/rearranged_h_0182.sdf

> <i_m_source_file_index>
23

> <r_mmod_Potential_Energy-OPLS-2005>
-80.6983337402344

> <r_mmod_Stretch_Energy-OPLS-2005>
51.1260528564453

> <r_mmod_Bend_Energy-OPLS-2005>
122.88151550293

> <r_mmod_Torsional_Energy-OPLS-2005>
227.904479980469

> <r_mmod_Improper_Torsional_Energy-OPLS-2005>
8.90349388122559

> <r_mmod_Van_der_Waal_Energy-OPLS-2005>
128.108215332031

> <r_mmod_Electrostatic_Energy-OPLS-2005>
-391.661651611328

> <r_mmod_Solvation_Energy-OPLS-2005>
-254.186782836914

> <b_mmod_Minimization_Converged-OPLS-2005>
0

> <r_mmod_RMS_Derivative-OPLS-2005>
2.69686961174011

$$$$
23
                    3D
 Structure written by MMmdl.
156164  0  0  1  0            999 V2000
  -30.6523  -14.5824   20.4569 C   0  0  0  0  0  0
  -30.4354  -12.3389   19.4481 C   0  0  0  0  0  0
  -29.5056  -12.4229   18.2187 C   0  0  0  0  0  0
  -28.0215  -12.3165   18.6315 C   0  0  0  0  0  0
  -27.6473  -13.2018   19.8530 C   0  0  2  0  0  0
  -28.6960  -13.0812   20.9806 C   0  0  0  0  0  0
  -25.2574  -13.8150   20.5702 C   0  0  0  0  0  0
  -24.1816  -13.0434   20.9204 C   0  0  0  0  0  0
  -24.6364  -11.6903   20.8753 C   0  0  0  0  0  0
  -23.9031  -10.4293   21.0426 C   0  0  0  0  0  0
  -24.3592   -9.4213   21.9200 C   0  0  0  0  0  0
  -23.6281   -8.2242   22.0761 C   0  0  0  0  0  0
  -22.4264   -8.0279   21.3553 C   0  0  0  0  0  0
  -21.9896   -9.0248   20.4651 C   0  0  0  0  0  0
  -22.7211  -10.2139   20.3070 C   0  0  0  0  0  0
  -21.6854   -6.0734   22.5282 C   0  0  0  0  0  0
  -21.4009   -6.5641   23.8219 C   0  0  0  0  0  0
  -21.3659   -5.6790   24.9179 C   0  0  0  0  0  0
  -21.6045   -4.3057   24.7228 C   0  0  0  0  0  0
  -21.8816   -3.8151   23.4352 C   0  0  0  0  0  0
  -21.9190   -4.6961   22.3407 C   0  0  0  0  0  0
  -22.7846  -13.5252   21.1846 C   0  0  0  0  0  0
  -22.1658   -4.2149   21.0982 F   0  0  0  0  0  0
  -21.5639   -3.4546   25.7747 F   0  0  0  0  0  0
  -30.0111  -13.3798   20.3974 N   0  0  0  0  0  0
  -26.2957  -12.9282   20.3299 N   0  0  0  0  0  0
  -25.9276  -11.6461   20.5768 N   0  0  0  0  0  0
  -22.0448  -12.8255   22.0388 N   0  0  0  0  0  0
  -25.4352  -15.1866   20.4142 N   0  0  0  0  0  0
  -31.8565  -14.6995   20.2108 O   0  0  0  0  0  0
  -21.6646   -6.8872   21.4241 O   0  0  0  0  0  0
  -22.3551  -14.5550   20.6670 O   0  0  0  0  0  0
  -24.6191  -31.8619   23.2063 C   0  0  0  0  0  0
  -25.9064  -32.4787   23.8375 C   0  0  1  0  0  0
  -27.2393  -27.3877   20.0876 C   0  0  0  0  0  0
  -25.5919  -33.8596   24.2283 N   0  0  0  0  0  0
  -23.4081  -30.4826   21.5493 C   0  0  2  0  0  0
  -24.8528  -28.9392   20.1143 C   0  0  0  0  0  0
  -22.7433  -29.4614   22.5000 C   0  0  0  0  0  0
  -18.0272  -28.1365   22.8491 C   0  0  0  0  0  0
  -24.1485  -36.7298   23.2641 C   0  0  0  0  0  0
  -25.9418  -30.8109   21.3676 C   0  0  0  0  0  0
  -26.0146  -29.4428   20.7101 C   0  0  0  0  0  0
  -27.2046  -28.6738   20.6914 C   0  0  0  0  0  0
  -26.0482  -26.9019   19.5012 C   0  0  0  0  0  0
  -24.8671  -27.6707   19.5095 C   0  0  0  0  0  0
  -23.6158  -29.8083   20.1663 C   0  0  0  0  0  0
  -25.4115  -36.3089   24.0324 C   0  0  1  0  0  0
  -20.5864  -28.3637   23.1337 C   0  0  2  0  0  0
  -20.6755  -26.9369   22.5420 C   0  0  0  0  0  0
  -19.5735  -26.6366   21.5214 C   0  0  0  0  0  0
  -18.1915  -26.7912   22.1619 C   0  0  0  0  0  0
  -19.1524  -28.8821   23.2904 C   0  0  0  0  0  0
  -18.9439  -30.1439   23.8895 C   0  0  0  0  0  0
  -17.6439  -30.6568   24.0563 C   0  0  0  0  0  0
  -25.9046  -34.9460   23.5096 C   0  0  0  0  0  0
  -16.5335  -29.9055   23.6341 C   0  0  0  0  0  0
  -16.7262  -28.6483   23.0352 C   0  0  0  0  0  0
  -26.4481  -31.6614   25.0741 C   0  0  0  0  0  0
  -25.3748  -31.3723   26.1492 C   0  0  0  0  0  0
  -27.0329  -30.3057   24.6172 C   0  0  0  0  0  0
  -27.6044  -32.4360   25.7491 C   0  0  0  0  0  0
  -27.5575  -37.1801   24.8463 C   0  0  0  0  0  0
  -21.4159  -29.3006   22.3751 N   0  0  0  0  0  0
  -26.4288  -37.3785   23.9407 N   0  0  0  0  0  0
  -24.6750  -31.0672   22.0992 N   0  0  0  0  0  0
  -23.4191  -28.8160   23.3048 O   0  0  0  0  0  0
  -28.4356  -26.6795   20.1047 O   0  0  0  0  0  0
  -26.5596  -34.8923   22.4651 O   0  0  0  0  0  0
  -23.5370  -32.1392   23.7432 O   0  0  0  0  0  0
  -31.3735  -18.5292   20.3339 C   0  0  0  0  0  0
  -30.1778  -18.1749   20.9123 C   0  0  0  0  0  0
  -29.8225  -20.4421   20.5584 C   0  0  0  0  0  0
  -29.4034  -22.8759   20.0648 C   0  0  0  0  0  0
  -29.4541  -24.6652   21.8349 C   0  0  0  0  0  0
  -29.5479  -16.1479   18.9917 C   0  0  0  0  0  0
  -29.7780  -16.7633   21.3720 C   0  0  0  0  0  0
  -28.5999  -25.3491   19.5368 C   0  0  0  0  0  0
  -28.6999  -24.1754   20.5839 C   0  0  1  0  0  0
  -29.3134  -19.2910   21.0514 N   0  0  0  0  0  0
  -29.1210  -21.6929   20.6716 N   0  0  0  0  0  0
  -29.8396  -15.6757   20.3555 N   0  0  0  0  0  0
  -30.1838  -22.9570   19.1123 O   0  0  0  0  0  0
  -31.4425  -20.2197   19.8933 S   0  0  0  0  0  0
  -31.4755  -12.4604   19.1392 H   0  0  0  0  0  0
  -30.3743  -11.3554   19.9148 H   0  0  0  0  0  0
  -29.7477  -11.6187   17.5226 H   0  0  0  0  0  0
  -29.6862  -13.3454   17.6707 H   0  0  0  0  0  0
  -27.8324  -11.2687   18.8693 H   0  0  0  0  0  0
  -27.3785  -12.5528   17.7830 H   0  0  0  0  0  0
  -27.6482  -14.2293   19.4996 H   0  0  0  0  0  0
  -28.6914  -12.0772   21.4068 H   0  0  0  0  0  0
  -28.4625  -13.7673   21.7962 H   0  0  0  0  0  0
  -25.2729   -9.5713   22.4782 H   0  0  0  0  0  0
  -24.0008   -7.4637   22.7472 H   0  0  0  0  0  0
  -21.0842   -8.8745   19.8950 H   0  0  0  0  0  0
  -22.3654  -10.9676   19.6189 H   0  0  0  0  0  0
  -21.1991   -7.6150   23.9722 H   0  0  0  0  0  0
  -21.1491   -6.0525   25.9081 H   0  0  0  0  0  0
  -22.0598   -2.7612   23.2852 H   0  0  0  0  0  0
  -22.4027  -11.9933   22.4828 H   0  0  0  0  0  0
  -21.1063  -13.1316   22.2559 H   0  0  0  0  0  0
  -24.6793  -15.8509   20.5390 H   0  0  0  0  0  0
  -26.3032  -15.6232   20.1265 H   0  0  0  0  0  0
  -26.7131  -32.5453   23.1124 H   0  0  0  0  0  0
  -25.0118  -33.9765   25.0466 H   0  0  0  0  0  0
  -22.6993  -31.3006   21.4059 H   0  0  0  0  0  0
  -23.3746  -35.9628   23.3309 H   0  0  0  0  0  0
  -24.3578  -36.8909   22.2052 H   0  0  0  0  0  0
  -23.7238  -37.6505   23.6662 H   0  0  0  0  0  0
  -26.0670  -31.5796   20.6038 H   0  0  0  0  0  0
  -26.8258  -30.8585   21.9919 H   0  0  0  0  0  0
  -28.1050  -29.0615   21.1472 H   0  0  0  0  0  0
  -25.9934  -25.9285   19.0405 H   0  0  0  0  0  0
  -23.9708  -27.2753   19.0512 H   0  0  0  0  0  0
  -23.7197  -30.5782   19.4020 H   0  0  0  0  0  0
  -22.7411  -29.2228   19.8766 H   0  0  0  0  0  0
  -25.1294  -36.1938   25.0814 H   0  0  0  0  0  0
  -20.9948  -28.3171   24.1467 H   0  0  0  0  0  0
  -20.5649  -26.2221   23.3590 H   0  0  0  0  0  0
  -21.6622  -26.7401   22.1210 H   0  0  0  0  0  0
  -19.6888  -25.6280   21.1229 H   0  0  0  0  0  0
  -19.6690  -27.3183   20.6753 H   0  0  0  0  0  0
  -17.4185  -26.6681   21.4020 H   0  0  0  0  0  0
  -18.0306  -26.0053   22.9009 H   0  0  0  0  0  0
  -19.7916  -30.7266   24.2251 H   0  0  0  0  0  0
  -17.4988  -31.6255   24.5138 H   0  0  0  0  0  0
  -15.5330  -30.2936   23.7682 H   0  0  0  0  0  0
  -15.8672  -28.0799   22.7059 H   0  0  0  0  0  0
  -24.5899  -30.7096   25.7823 H   0  0  0  0  0  0
  -24.8976  -32.2880   26.5001 H   0  0  0  0  0  0
  -25.8115  -30.8843   27.0220 H   0  0  0  0  0  0
  -26.2892  -29.6797   24.1230 H   0  0  0  0  0  0
  -27.4081  -29.7325   25.4657 H   0  0  0  0  0  0
  -27.8732  -30.4363   23.9349 H   0  0  0  0  0  0
  -27.2661  -33.3648   26.2107 H   0  0  0  0  0  0
  -28.3838  -32.6958   25.0313 H   0  0  0  0  0  0
  -28.0758  -31.8486   26.5382 H   0  0  0  0  0  0
  -28.2592  -38.0103   24.7518 H   0  0  0  0  0  0
  -28.1068  -36.2627   24.6272 H   0  0  0  0  0  0
  -27.2293  -37.1432   25.8870 H   0  0  0  0  0  0
  -20.9306  -29.8739   21.6992 H   0  0  0  0  0  0
  -26.0159  -38.2850   24.1439 H   0  0  0  0  0  0
  -32.2191  -17.8867   20.1256 H   0  0  0  0  0  0
  -30.4364  -25.0609   21.5732 H   0  0  0  0  0  0
  -29.6009  -23.8681   22.5641 H   0  0  0  0  0  0
  -28.9036  -25.4605   22.3364 H   0  0  0  0  0  0
  -28.7524  -16.8938   18.9877 H   0  0  0  0  0  0
  -29.2210  -15.3437   18.3379 H   0  0  0  0  0  0
  -30.4333  -16.5895   18.5310 H   0  0  0  0  0  0
  -28.7528  -16.7776   21.7451 H   0  0  0  0  0  0
  -30.3827  -16.4822   22.2361 H   0  0  0  0  0  0
  -27.8758  -25.1096   18.7616 H   0  0  0  0  0  0
  -29.5443  -25.4124   18.9948 H   0  0  0  0  0  0
  -27.6872  -23.9025   20.8824 H   0  0  0  0  0  0
  -28.3742  -21.7075   21.3504 H   0  0  0  0  0  0
  1 25  1  0  0  0
  1 30  2  0  0  0
  1 82  1  0  0  0
  2  3  1  0  0  0
  2 25  1  0  0  0
  2 85  1  0  0  0
  2 86  1  0  0  0
  3  4  1  0  0  0
  3 87  1  0  0  0
  3 88  1  0  0  0
  4  5  1  0  0  0
  4 89  1  0  0  0
  4 90  1  0  0  0
  5  6  1  0  0  0
  5 26  1  0  0  0
  5 91  1  0  0  0
  6 25  1  0  0  0
  6 92  1  0  0  0
  6 93  1  0  0  0
  7  8  2  0  0  0
  7 26  1  0  0  0
  7 29  1  0  0  0
  8  9  1  0  0  0
  8 22  1  0  0  0
  9 10  1  0  0  0
  9 27  2  0  0  0
 10 11  2  0  0  0
 10 15  1  0  0  0
 11 12  1  0  0  0
 11 94  1  0  0  0
 12 13  2  0  0  0
 12 95  1  0  0  0
 13 14  1  0  0  0
 13 31  1  0  0  0
 14 15  2  0  0  0
 14 96  1  0  0  0
 15 97  1  0  0  0
 16 17  2  0  0  0
 16 21  1  0  0  0
 16 31  1  0  0  0
 17 18  1  0  0  0
 17 98  1  0  0  0
 18 19  2  0  0  0
 18 99  1  0  0  0
 19 20  1  0  0  0
 19 24  1  0  0  0
 20 21  2  0  0  0
 20100  1  0  0  0
 21 23  1  0  0  0
 22 28  1  0  0  0
 22 32  2  0  0  0
 26 27  1  0  0  0
 28101  1  0  0  0
 28102  1  0  0  0
 29103  1  0  0  0
 29104  1  0  0  0
 33 34  1  0  0  0
 33 66  1  0  0  0
 33 70  2  0  0  0
 34 36  1  0  0  0
 34 59  1  0  0  0
 34105  1  0  0  0
 35 44  2  0  0  0
 35 45  1  0  0  0
 35 68  1  0  0  0
 36 56  1  0  0  0
 36106  1  0  0  0
 37 39  1  0  0  0
 37 47  1  0  0  0
 37 66  1  0  0  0
 37107  1  0  0  0
 38 43  2  0  0  0
 38 46  1  0  0  0
 38 47  1  0  0  0
 39 64  1  0  0  0
 39 67  2  0  0  0
 40 52  1  0  0  0
 40 53  2  0  0  0
 40 58  1  0  0  0
 41108  1  0  0  0
 41109  1  0  0  0
 41110  1  0  0  0
 41 48  1  0  0  0
 42 43  1  0  0  0
 42 66  1  0  0  0
 42111  1  0  0  0
 42112  1  0  0  0
 43 44  1  0  0  0
 44113  1  0  0  0
 45 46  2  0  0  0
 45114  1  0  0  0
 46115  1  0  0  0
 47116  1  0  0  0
 47117  1  0  0  0
 48 56  1  0  0  0
 48 65  1  0  0  0
 48118  1  0  0  0
 49 50  1  0  0  0
 49 53  1  0  0  0
 49 64  1  0  0  0
 49119  1  0  0  0
 50 51  1  0  0  0
 50120  1  0  0  0
 50121  1  0  0  0
 51 52  1  0  0  0
 51122  1  0  0  0
 51123  1  0  0  0
 52124  1  0  0  0
 52125  1  0  0  0
 53 54  1  0  0  0
 54 55  2  0  0  0
 54126  1  0  0  0
 55 57  1  0  0  0
 55127  1  0  0  0
 56 69  2  0  0  0
 57 58  2  0  0  0
 57128  1  0  0  0
 58129  1  0  0  0
 59 60  1  0  0  0
 59 61  1  0  0  0
 59 62  1  0  0  0
 60130  1  0  0  0
 60131  1  0  0  0
 60132  1  0  0  0
 61133  1  0  0  0
 61134  1  0  0  0
 61135  1  0  0  0
 62136  1  0  0  0
 62137  1  0  0  0
 62138  1  0  0  0
 63 65  1  0  0  0
 63139  1  0  0  0
 63140  1  0  0  0
 63141  1  0  0  0
 64142  1  0  0  0
 65143  1  0  0  0
 68 78  1  0  0  0
 71 72  2  0  0  0
 71 84  1  0  0  0
 71144  1  0  0  0
 72 77  1  0  0  0
 72 80  1  0  0  0
 73 80  2  0  0  0
 73 81  1  0  0  0
 73 84  1  0  0  0
 74 79  1  0  0  0
 74 81  1  0  0  0
 74 83  2  0  0  0
 75145  1  0  0  0
 75146  1  0  0  0
 75147  1  0  0  0
 75 79  1  0  0  0
 76 82  1  0  0  0
 76148  1  0  0  0
 76149  1  0  0  0
 76150  1  0  0  0
 77 82  1  0  0  0
 77151  1  0  0  0
 77152  1  0  0  0
 78 79  1  0  0  0
 78153  1  0  0  0
 78154  1  0  0  0
 79155  1  0  0  0
 81156  1  0  0  0
M  ISO  4   1 100  68 101  78 101  82 100
M  END
> <chiral flag>
0

> <version>
0

> <s_m_source_file>
/data/baiqing/PycharmProjects/Reinvent-master-3.2/result/LINK_invent/BTK/process_docking_weight1_custom_product_contain_oxygen_bond_distance_aromatic_linkinvent_7_9_3/rearranged_h_0182.sdf

> <i_m_source_file_index>
24

> <r_mmod_Potential_Energy-OPLS-2005>
-10.6177263259888

> <r_mmod_Stretch_Energy-OPLS-2005>
52.1640243530273

> <r_mmod_Bend_Energy-OPLS-2005>
122.488807678223

> <r_mmod_Torsional_Energy-OPLS-2005>
294.9599609375

> <r_mmod_Improper_Torsional_Energy-OPLS-2005>
14.9396171569824

> <r_mmod_Van_der_Waal_Energy-OPLS-2005>
128.98014831543

> <r_mmod_Electrostatic_Energy-OPLS-2005>
-438.609558105469

> <r_mmod_Solvation_Energy-OPLS-2005>
-218.868225097656

> <b_mmod_Minimization_Converged-OPLS-2005>
0

> <r_mmod_RMS_Derivative-OPLS-2005>
1.99937951564789

$$$$
24
                    3D
 Structure written by MMmdl.
152160  0  0  1  0            999 V2000
  -30.6670  -14.5369   20.5863 C   0  0  0  0  0  0
  -30.4379  -12.3381   19.4458 C   0  0  0  0  0  0
  -29.5132  -12.5340   18.2215 C   0  0  0  0  0  0
  -28.0306  -12.3827   18.6225 C   0  0  0  0  0  0
  -27.6678  -13.2106   19.8851 C   0  0  2  0  0  0
  -28.7115  -12.9893   21.0077 C   0  0  0  0  0  0
  -25.2625  -13.8161   20.5637 C   0  0  0  0  0  0
  -24.1894  -13.0438   20.9174 C   0  0  0  0  0  0
  -24.6441  -11.6901   20.8759 C   0  0  0  0  0  0
  -23.9099  -10.4281   21.0426 C   0  0  0  0  0  0
  -24.3623   -9.4195   21.9201 C   0  0  0  0  0  0
  -23.6282   -8.2232   22.0763 C   0  0  0  0  0  0
  -22.4268   -8.0276   21.3545 C   0  0  0  0  0  0
  -21.9914   -9.0272   20.4654 C   0  0  0  0  0  0
  -22.7264  -10.2147   20.3079 C   0  0  0  0  0  0
  -21.6857   -6.0766   22.5277 C   0  0  0  0  0  0
  -21.4018   -6.5662   23.8224 C   0  0  0  0  0  0
  -21.3649   -5.6819   24.9170 C   0  0  0  0  0  0
  -21.6040   -4.3080   24.7222 C   0  0  0  0  0  0
  -21.8799   -3.8165   23.4351 C   0  0  0  0  0  0
  -21.9175   -4.6990   22.3401 C   0  0  0  0  0  0
  -22.7897  -13.5221   21.1804 C   0  0  0  0  0  0
  -22.1652   -4.2175   21.0985 F   0  0  0  0  0  0
  -21.5603   -3.4554   25.7737 F   0  0  0  0  0  0
  -30.0405  -13.3236   20.4682 N   0  0  0  0  0  0
  -26.3073  -12.9341   20.3377 N   0  0  0  0  0  0
  -25.9364  -11.6507   20.5758 N   0  0  0  0  0  0
  -22.0516  -12.8273   22.0387 N   0  0  0  0  0  0
  -25.4291  -15.1873   20.3970 N   0  0  0  0  0  0
  -31.7657  -14.7636   20.0769 O   0  0  0  0  0  0
  -21.6618   -6.8900   21.4245 O   0  0  0  0  0  0
  -22.3610  -14.5531   20.6648 O   0  0  0  0  0  0
  -24.6233  -31.8612   23.2029 C   0  0  0  0  0  0
  -25.9125  -32.4756   23.8330 C   0  0  1  0  0  0
  -27.2309  -27.3700   20.1086 C   0  0  0  0  0  0
  -25.5961  -33.8548   24.2266 N   0  0  0  0  0  0
  -23.4121  -30.4870   21.5496 C   0  0  2  0  0  0
  -24.8551  -28.9477   20.1220 C   0  0  0  0  0  0
  -22.7447  -29.4632   22.5011 C   0  0  0  0  0  0
  -18.0283  -28.1420   22.8517 C   0  0  0  0  0  0
  -24.1489  -36.7255   23.2634 C   0  0  0  0  0  0
  -25.9511  -30.8169   21.3606 C   0  0  0  0  0  0
  -26.0290  -29.4500   20.7000 C   0  0  0  0  0  0
  -27.2202  -28.6784   20.6746 C   0  0  0  0  0  0
  -26.0308  -26.9076   19.5164 C   0  0  0  0  0  0
  -24.8540  -27.6761   19.5320 C   0  0  0  0  0  0
  -23.6201  -29.8184   20.1676 C   0  0  0  0  0  0
  -25.4123  -36.3054   24.0316 C   0  0  1  0  0  0
  -20.5864  -28.3695   23.1335 C   0  0  2  0  0  0
  -20.6773  -26.9428   22.5442 C   0  0  0  0  0  0
  -19.5746  -26.6404   21.5257 C   0  0  0  0  0  0
  -18.1917  -26.7964   22.1655 C   0  0  0  0  0  0
  -19.1525  -28.8888   23.2911 C   0  0  0  0  0  0
  -18.9427  -30.1502   23.8926 C   0  0  0  0  0  0
  -17.6418  -30.6614   24.0584 C   0  0  0  0  0  0
  -25.9074  -34.9424   23.5087 C   0  0  0  0  0  0
  -16.5320  -29.9097   23.6338 C   0  0  0  0  0  0
  -16.7253  -28.6532   23.0365 C   0  0  0  0  0  0
  -26.4544  -31.6534   25.0673 C   0  0  0  0  0  0
  -25.3810  -31.3634   26.1417 C   0  0  0  0  0  0
  -27.0405  -30.2978   24.6046 C   0  0  0  0  0  0
  -27.6078  -32.4286   25.7470 C   0  0  0  0  0  0
  -27.5594  -37.1760   24.8451 C   0  0  0  0  0  0
  -21.4182  -29.3022   22.3725 N   0  0  0  0  0  0
  -26.4293  -37.3764   23.9415 N   0  0  0  0  0  0
  -24.6829  -31.0684   22.0937 N   0  0  0  0  0  0
  -23.4192  -28.8189   23.3087 O   0  0  0  0  0  0
  -28.3715  -26.5684   20.1726 O   0  0  0  0  0  0
  -26.5627  -34.8898   22.4635 O   0  0  0  0  0  0
  -23.5409  -32.1418   23.7361 O   0  0  0  0  0  0
  -29.1004  -17.6787   21.8537 C   0  0  0  0  0  0
  -29.9276  -16.8551   21.1203 C   0  0  0  0  0  0
  -29.9400  -19.3261   20.5139 C   0  0  0  0  0  0
  -28.9373  -24.2079   20.9621 C   0  0  0  0  0  0
  -29.9631  -23.0938   20.5421 C   0  0  0  0  0  0
  -28.5555  -24.8432   18.3786 C   0  0  0  0  0  0
  -30.0777  -20.6927   19.8495 C   0  0  0  0  0  0
  -28.2590  -25.1285   19.8832 C   0  0  2  0  0  0
  -29.1015  -19.0469   21.5191 N   0  0  0  0  0  0
  -29.9704  -15.4850   21.2577 N   0  0  0  0  0  0
  -29.5049  -21.8203   20.6216 N   0  0  0  0  0  0
  -28.5927  -24.3079   22.1486 O   0  0  0  0  0  0
  -31.0980  -23.3770   20.1464 O   0  0  0  0  0  0
  -28.3137  -17.2124   22.7939 F   0  0  0  0  0  0
  -30.8077  -17.8636   19.9646 S   0  0  0  0  0  0
  -31.4869  -12.4400   19.1647 H   0  0  0  0  0  0
  -30.3318  -11.3228   19.8328 H   0  0  0  0  0  0
  -29.7541  -11.8139   17.4382 H   0  0  0  0  0  0
  -29.6898  -13.5210   17.7865 H   0  0  0  0  0  0
  -27.8532  -11.3249   18.8100 H   0  0  0  0  0  0
  -27.3841  -12.6553   17.7863 H   0  0  0  0  0  0
  -27.7030  -14.2591   19.5892 H   0  0  0  0  0  0
  -28.7041  -11.9485   21.3328 H   0  0  0  0  0  0
  -28.4509  -13.5588   21.9023 H   0  0  0  0  0  0
  -25.2774   -9.5670   22.4790 H   0  0  0  0  0  0
  -23.9985   -7.4645   22.7503 H   0  0  0  0  0  0
  -21.0820   -8.8797   19.8993 H   0  0  0  0  0  0
  -22.3702  -10.9687   19.6193 H   0  0  0  0  0  0
  -21.2032   -7.6171   23.9735 H   0  0  0  0  0  0
  -21.1487   -6.0548   25.9095 H   0  0  0  0  0  0
  -22.0580   -2.7624   23.2825 H   0  0  0  0  0  0
  -22.4090  -11.9944   22.4842 H   0  0  0  0  0  0
  -21.1151  -13.1378   22.2547 H   0  0  0  0  0  0
  -24.6405  -15.8222   20.4500 H   0  0  0  0  0  0
  -26.2559  -15.6191   20.0080 H   0  0  0  0  0  0
  -26.7181  -32.5449   23.1076 H   0  0  0  0  0  0
  -25.0114  -33.9686   25.0410 H   0  0  0  0  0  0
  -22.7022  -31.3050   21.4098 H   0  0  0  0  0  0
  -23.3720  -35.9623   23.3381 H   0  0  0  0  0  0
  -24.3591  -36.8791   22.2032 H   0  0  0  0  0  0
  -23.7262  -37.6485   23.6615 H   0  0  0  0  0  0
  -26.0716  -31.5893   20.5993 H   0  0  0  0  0  0
  -26.8351  -30.8623   21.9828 H   0  0  0  0  0  0
  -28.1283  -29.0761   21.1037 H   0  0  0  0  0  0
  -25.9500  -25.9377   19.0502 H   0  0  0  0  0  0
  -23.9483  -27.2660   19.1053 H   0  0  0  0  0  0
  -23.7363  -30.5975   19.4146 H   0  0  0  0  0  0
  -22.7417  -29.2455   19.8644 H   0  0  0  0  0  0
  -25.1279  -36.1905   25.0805 H   0  0  0  0  0  0
  -20.9955  -28.3292   24.1456 H   0  0  0  0  0  0
  -20.5737  -26.2290   23.3639 H   0  0  0  0  0  0
  -21.6630  -26.7507   22.1193 H   0  0  0  0  0  0
  -19.6913  -25.6323   21.1264 H   0  0  0  0  0  0
  -19.6690  -27.3246   20.6816 H   0  0  0  0  0  0
  -17.4185  -26.6741   21.4036 H   0  0  0  0  0  0
  -18.0304  -26.0104   22.9045 H   0  0  0  0  0  0
  -19.7905  -30.7335   24.2273 H   0  0  0  0  0  0
  -17.4970  -31.6289   24.5189 H   0  0  0  0  0  0
  -15.5336  -30.2995   23.7682 H   0  0  0  0  0  0
  -15.8665  -28.0868   22.7048 H   0  0  0  0  0  0
  -24.5882  -30.7137   25.7707 H   0  0  0  0  0  0
  -24.9141  -32.2810   26.4998 H   0  0  0  0  0  0
  -25.8149  -30.8622   27.0075 H   0  0  0  0  0  0
  -26.2970  -29.6709   24.1098 H   0  0  0  0  0  0
  -27.4207  -29.7228   25.4498 H   0  0  0  0  0  0
  -27.8791  -30.4299   23.9196 H   0  0  0  0  0  0
  -27.2564  -33.3370   26.2370 H   0  0  0  0  0  0
  -28.3716  -32.7218   25.0263 H   0  0  0  0  0  0
  -28.1000  -31.8266   26.5114 H   0  0  0  0  0  0
  -28.2550  -38.0116   24.7554 H   0  0  0  0  0  0
  -28.1141  -36.2629   24.6190 H   0  0  0  0  0  0
  -27.2335  -37.1310   25.8864 H   0  0  0  0  0  0
  -20.9402  -29.8646   21.6842 H   0  0  0  0  0  0
  -26.0153  -38.2814   24.1498 H   0  0  0  0  0  0
  -29.3340  -24.1096   18.1707 H   0  0  0  0  0  0
  -28.8446  -25.7551   17.8571 H   0  0  0  0  0  0
  -27.6596  -24.4751   17.8776 H   0  0  0  0  0  0
  -29.5519  -20.6563   18.8924 H   0  0  0  0  0  0
  -31.1268  -20.8662   19.6067 H   0  0  0  0  0  0
  -27.2332  -24.8108   20.0632 H   0  0  0  0  0  0
  -29.2048  -15.1066   21.7944 H   0  0  0  0  0  0
  -28.6094  -21.6677   21.0685 H   0  0  0  0  0  0
  1 25  1  0  0  0
  1 30  2  0  0  0
  1 80  1  0  0  0
  2  3  1  0  0  0
  2 25  1  0  0  0
  2 86  1  0  0  0
  2 87  1  0  0  0
  3  4  1  0  0  0
  3 88  1  0  0  0
  3 89  1  0  0  0
  4  5  1  0  0  0
  4 90  1  0  0  0
  4 91  1  0  0  0
  5  6  1  0  0  0
  5 26  1  0  0  0
  5 92  1  0  0  0
  6 25  1  0  0  0
  6 93  1  0  0  0
  6 94  1  0  0  0
  7  8  2  0  0  0
  7 26  1  0  0  0
  7 29  1  0  0  0
  8  9  1  0  0  0
  8 22  1  0  0  0
  9 10  1  0  0  0
  9 27  2  0  0  0
 10 11  2  0  0  0
 10 15  1  0  0  0
 11 12  1  0  0  0
 11 95  1  0  0  0
 12 13  2  0  0  0
 12 96  1  0  0  0
 13 14  1  0  0  0
 13 31  1  0  0  0
 14 15  2  0  0  0
 14 97  1  0  0  0
 15 98  1  0  0  0
 16 17  2  0  0  0
 16 21  1  0  0  0
 16 31  1  0  0  0
 17 18  1  0  0  0
 17 99  1  0  0  0
 18 19  2  0  0  0
 18100  1  0  0  0
 19 20  1  0  0  0
 19 24  1  0  0  0
 20 21  2  0  0  0
 20101  1  0  0  0
 21 23  1  0  0  0
 22 28  1  0  0  0
 22 32  2  0  0  0
 26 27  1  0  0  0
 28102  1  0  0  0
 28103  1  0  0  0
 29104  1  0  0  0
 29105  1  0  0  0
 33 34  1  0  0  0
 33 66  1  0  0  0
 33 70  2  0  0  0
 34 36  1  0  0  0
 34 59  1  0  0  0
 34106  1  0  0  0
 35 44  2  0  0  0
 35 45  1  0  0  0
 35 68  1  0  0  0
 36 56  1  0  0  0
 36107  1  0  0  0
 37 39  1  0  0  0
 37 47  1  0  0  0
 37 66  1  0  0  0
 37108  1  0  0  0
 38 43  2  0  0  0
 38 46  1  0  0  0
 38 47  1  0  0  0
 39 64  1  0  0  0
 39 67  2  0  0  0
 40 52  1  0  0  0
 40 53  2  0  0  0
 40 58  1  0  0  0
 41109  1  0  0  0
 41110  1  0  0  0
 41111  1  0  0  0
 41 48  1  0  0  0
 42 43  1  0  0  0
 42 66  1  0  0  0
 42112  1  0  0  0
 42113  1  0  0  0
 43 44  1  0  0  0
 44114  1  0  0  0
 45 46  2  0  0  0
 45115  1  0  0  0
 46116  1  0  0  0
 47117  1  0  0  0
 47118  1  0  0  0
 48 56  1  0  0  0
 48 65  1  0  0  0
 48119  1  0  0  0
 49 50  1  0  0  0
 49 53  1  0  0  0
 49 64  1  0  0  0
 49120  1  0  0  0
 50 51  1  0  0  0
 50121  1  0  0  0
 50122  1  0  0  0
 51 52  1  0  0  0
 51123  1  0  0  0
 51124  1  0  0  0
 52125  1  0  0  0
 52126  1  0  0  0
 53 54  1  0  0  0
 54 55  2  0  0  0
 54127  1  0  0  0
 55 57  1  0  0  0
 55128  1  0  0  0
 56 69  2  0  0  0
 57 58  2  0  0  0
 57129  1  0  0  0
 58130  1  0  0  0
 59 60  1  0  0  0
 59 61  1  0  0  0
 59 62  1  0  0  0
 60131  1  0  0  0
 60132  1  0  0  0
 60133  1  0  0  0
 61134  1  0  0  0
 61135  1  0  0  0
 61136  1  0  0  0
 62137  1  0  0  0
 62138  1  0  0  0
 62139  1  0  0  0
 63 65  1  0  0  0
 63140  1  0  0  0
 63141  1  0  0  0
 63142  1  0  0  0
 64143  1  0  0  0
 65144  1  0  0  0
 68 78  1  0  0  0
 71 72  2  0  0  0
 71 79  1  0  0  0
 71 84  1  0  0  0
 72 80  1  0  0  0
 72 85  1  0  0  0
 73 77  1  0  0  0
 73 79  2  0  0  0
 73 85  1  0  0  0
 74 75  1  0  0  0
 74 78  1  0  0  0
 74 82  2  0  0  0
 75 81  1  0  0  0
 75 83  2  0  0  0
 76145  1  0  0  0
 76146  1  0  0  0
 76147  1  0  0  0
 76 78  1  0  0  0
 77 81  1  0  0  0
 77148  1  0  0  0
 77149  1  0  0  0
 78150  1  0  0  0
 80151  1  0  0  0
 81152  1  0  0  0
M  ISO  4   1 100  68 101  78 101  80 100
M  END
> <chiral flag>
0

> <version>
0

> <s_m_source_file>
/data/baiqing/PycharmProjects/Reinvent-master-3.2/result/LINK_invent/BTK/process_docking_weight1_custom_product_contain_oxygen_bond_distance_aromatic_linkinvent_7_9_3/rearranged_h_0182.sdf

> <i_m_source_file_index>
25

> <r_mmod_Potential_Energy-OPLS-2005>
-64.3927536010742

> <r_mmod_Stretch_Energy-OPLS-2005>
56.3285255432129

> <r_mmod_Bend_Energy-OPLS-2005>
136.529083251953

> <r_mmod_Torsional_Energy-OPLS-2005>
229.139434814453

> <r_mmod_Improper_Torsional_Energy-OPLS-2005>
4.91889619827271

> <r_mmod_Van_der_Waal_Energy-OPLS-2005>
130.010848999023

> <r_mmod_Electrostatic_Energy-OPLS-2005>
-393.693328857422

> <r_mmod_Solvation_Energy-OPLS-2005>
-252.45393371582

> <b_mmod_Minimization_Converged-OPLS-2005>
0

> <r_mmod_RMS_Derivative-OPLS-2005>
6.98251819610596

$$$$
25
                    3D
 Structure written by MMmdl.
156164  0  0  1  0            999 V2000
  -30.5470  -14.7174   20.4840 C   0  0  0  0  0  0
  -30.4481  -12.4364   19.4597 C   0  0  0  0  0  0
  -29.5155  -12.4826   18.2267 C   0  0  0  0  0  0
  -28.0395  -12.2962   18.6389 C   0  0  0  0  0  0
  -27.6429  -13.1976   19.8384 C   0  0  2  0  0  0
  -28.6802  -13.0904   20.9764 C   0  0  0  0  0  0
  -25.2578  -13.8123   20.5626 C   0  0  0  0  0  0
  -24.1833  -13.0440   20.9185 C   0  0  0  0  0  0
  -24.6353  -11.6886   20.8717 C   0  0  0  0  0  0
  -23.9029  -10.4282   21.0386 C   0  0  0  0  0  0
  -24.3573   -9.4208   21.9187 C   0  0  0  0  0  0
  -23.6247   -8.2247   22.0774 C   0  0  0  0  0  0
  -22.4253   -8.0265   21.3534 C   0  0  0  0  0  0
  -21.9876   -9.0240   20.4651 C   0  0  0  0  0  0
  -22.7199  -10.2117   20.3041 C   0  0  0  0  0  0
  -21.6848   -6.0712   22.5279 C   0  0  0  0  0  0
  -21.4010   -6.5623   23.8199 C   0  0  0  0  0  0
  -21.3641   -5.6785   24.9165 C   0  0  0  0  0  0
  -21.6045   -4.3042   24.7229 C   0  0  0  0  0  0
  -21.8820   -3.8132   23.4346 C   0  0  0  0  0  0
  -21.9197   -4.6947   22.3406 C   0  0  0  0  0  0
  -22.7858  -13.5265   21.1873 C   0  0  0  0  0  0
  -22.1663   -4.2129   21.0970 F   0  0  0  0  0  0
  -21.5625   -3.4532   25.7747 F   0  0  0  0  0  0
  -29.9837  -13.4683   20.4115 N   0  0  0  0  0  0
  -26.2929  -12.9262   20.3164 N   0  0  0  0  0  0
  -25.9259  -11.6451   20.5675 N   0  0  0  0  0  0
  -22.0472  -12.8249   22.0365 N   0  0  0  0  0  0
  -25.4330  -15.1846   20.3987 N   0  0  0  0  0  0
  -31.7397  -14.8834   20.1945 O   0  0  0  0  0  0
  -21.6626   -6.8853   21.4235 O   0  0  0  0  0  0
  -22.3573  -14.5583   20.6758 O   0  0  0  0  0  0
  -24.6273  -31.8512   23.1928 C   0  0  0  0  0  0
  -25.9106  -32.4744   23.8305 C   0  0  1  0  0  0
  -27.2343  -27.2557   20.1455 C   0  0  0  0  0  0
  -25.5953  -33.8550   24.2261 N   0  0  0  0  0  0
  -23.4314  -30.4616   21.5325 C   0  0  2  0  0  0
  -24.8857  -28.9010   20.1206 C   0  0  0  0  0  0
  -22.7540  -29.4494   22.4888 C   0  0  0  0  0  0
  -18.0247  -28.1417   22.8427 C   0  0  0  0  0  0
  -24.1528  -36.7293   23.2646 C   0  0  0  0  0  0
  -25.9724  -30.7640   21.3745 C   0  0  0  0  0  0
  -26.0531  -29.3787   20.7320 C   0  0  0  0  0  0
  -27.2320  -28.5646   20.7363 C   0  0  0  0  0  0
  -26.0479  -26.8398   19.5145 C   0  0  0  0  0  0
  -24.8877  -27.6397   19.5045 C   0  0  0  0  0  0
  -23.6554  -29.7853   20.1545 C   0  0  0  0  0  0
  -25.4144  -36.3072   24.0344 C   0  0  1  0  0  0
  -20.5863  -28.3703   23.1307 C   0  0  2  0  0  0
  -20.6773  -26.9442   22.5400 C   0  0  0  0  0  0
  -19.5739  -26.6366   21.5225 C   0  0  0  0  0  0
  -18.1878  -26.7937   22.1580 C   0  0  0  0  0  0
  -19.1497  -28.8875   23.2828 C   0  0  0  0  0  0
  -18.9454  -30.1467   23.8870 C   0  0  0  0  0  0
  -17.6466  -30.6622   24.0570 C   0  0  0  0  0  0
  -25.9066  -34.9422   23.5101 C   0  0  0  0  0  0
  -16.5348  -29.9152   23.6313 C   0  0  0  0  0  0
  -16.7243  -28.6566   23.0319 C   0  0  0  0  0  0
  -26.4515  -31.6571   25.0668 C   0  0  0  0  0  0
  -25.3720  -31.3674   26.1360 C   0  0  0  0  0  0
  -27.0461  -30.3057   24.6080 C   0  0  0  0  0  0
  -27.6071  -32.4330   25.7418 C   0  0  0  0  0  0
  -27.5603  -37.1791   24.8457 C   0  0  0  0  0  0
  -21.4215  -29.3065   22.3773 N   0  0  0  0  0  0
  -26.4323  -37.3763   23.9391 N   0  0  0  0  0  0
  -24.6940  -31.0467   22.0906 N   0  0  0  0  0  0
  -23.4253  -28.7960   23.2895 O   0  0  0  0  0  0
  -28.3650  -26.4155   20.0733 O   0  0  0  0  0  0
  -26.5606  -34.8907   22.4648 O   0  0  0  0  0  0
  -23.5436  -32.1324   23.7255 O   0  0  0  0  0  0
  -30.6641  -19.3706   20.4421 C   0  0  0  0  0  0
  -29.3345  -19.8060   20.3577 C   0  0  0  0  0  0
  -29.7343  -17.2283   20.5901 C   0  0  0  0  0  0
  -28.9909  -22.3380   20.5911 C   0  0  0  0  0  0
  -26.6652  -23.2274   20.2424 C   0  0  0  0  0  0
  -28.4740  -23.7302   18.4926 C   0  0  0  0  0  0
  -28.4305  -25.0568   20.7189 C   0  0  0  0  0  0
  -31.9271  -20.1837   20.2556 C   0  0  0  0  0  0
  -28.1618  -23.6034   20.0134 C   0  0  0  0  0  0
  -30.8500  -17.9604   20.6350 N   0  0  0  0  0  0
  -28.7639  -21.0633   20.0916 N   0  0  0  0  0  0
  -29.6589  -15.7574   20.6859 N   0  0  0  0  0  0
  -29.7899  -22.5082   21.5124 O   0  0  0  0  0  0
  -32.3862  -20.6667   21.4100 F   0  0  0  0  0  0
  -32.8989  -19.4291   19.7366 F   0  0  0  0  0  0
  -31.7495  -21.1977   19.4073 F   0  0  0  0  0  0
  -28.3260  -18.3299   20.4256 S   0  0  0  0  0  0
  -31.4804  -12.6040   19.1520 H   0  0  0  0  0  0
  -30.4244  -11.4504   19.9238 H   0  0  0  0  0  0
  -29.7997  -11.7071   17.5136 H   0  0  0  0  0  0
  -29.6315  -13.4353   17.7059 H   0  0  0  0  0  0
  -27.9057  -11.2487   18.9121 H   0  0  0  0  0  0
  -27.3820  -12.4768   17.7873 H   0  0  0  0  0  0
  -27.6495  -14.2173   19.4580 H   0  0  0  0  0  0
  -28.7192  -12.0732   21.3726 H   0  0  0  0  0  0
  -28.4083  -13.7291   21.8182 H   0  0  0  0  0  0
  -25.2710   -9.5710   22.4769 H   0  0  0  0  0  0
  -23.9966   -7.4649   22.7511 H   0  0  0  0  0  0
  -21.0816   -8.8753   19.8934 H   0  0  0  0  0  0
  -22.3664  -10.9661   19.6137 H   0  0  0  0  0  0
  -21.1994   -7.6132   23.9698 H   0  0  0  0  0  0
  -21.1456   -6.0512   25.9069 H   0  0  0  0  0  0
  -22.0611   -2.7603   23.2866 H   0  0  0  0  0  0
  -22.4011  -11.9871   22.4745 H   0  0  0  0  0  0
  -21.1093  -13.1328   22.2564 H   0  0  0  0  0  0
  -24.6639  -15.8360   20.5115 H   0  0  0  0  0  0
  -26.2563  -15.6169   20.0040 H   0  0  0  0  0  0
  -26.7149  -32.5439   23.1023 H   0  0  0  0  0  0
  -25.0264  -33.9715   25.0532 H   0  0  0  0  0  0
  -22.7221  -31.2770   21.3785 H   0  0  0  0  0  0
  -23.3814  -35.9599   23.3257 H   0  0  0  0  0  0
  -24.3627  -36.8975   22.2068 H   0  0  0  0  0  0
  -23.7237  -37.6459   23.6718 H   0  0  0  0  0  0
  -26.1101  -31.5168   20.6016 H   0  0  0  0  0  0
  -26.8519  -30.8283   22.0015 H   0  0  0  0  0  0
  -28.1367  -28.9261   21.2087 H   0  0  0  0  0  0
  -26.0334  -25.8900   19.0034 H   0  0  0  0  0  0
  -24.0049  -27.2703   19.0013 H   0  0  0  0  0  0
  -23.7826  -30.5532   19.3899 H   0  0  0  0  0  0
  -22.7817  -29.2066   19.8535 H   0  0  0  0  0  0
  -25.1304  -36.1951   25.0847 H   0  0  0  0  0  0
  -20.9871  -28.3273   24.1466 H   0  0  0  0  0  0
  -20.5824  -26.2293   23.3568 H   0  0  0  0  0  0
  -21.6609  -26.7549   22.1118 H   0  0  0  0  0  0
  -19.6937  -25.6269   21.1308 H   0  0  0  0  0  0
  -19.6740  -27.3138   20.6742 H   0  0  0  0  0  0
  -17.4182  -26.6684   21.3962 H   0  0  0  0  0  0
  -18.0238  -26.0109   22.9016 H   0  0  0  0  0  0
  -19.7960  -30.7216   24.2323 H   0  0  0  0  0  0
  -17.5056  -31.6335   24.5125 H   0  0  0  0  0  0
  -15.5365  -30.3074   23.7695 H   0  0  0  0  0  0
  -15.8594  -28.0946   22.7049 H   0  0  0  0  0  0
  -24.5889  -30.7071   25.7583 H   0  0  0  0  0  0
  -24.8913  -32.2829   26.4818 H   0  0  0  0  0  0
  -25.7944  -30.8747   27.0126 H   0  0  0  0  0  0
  -26.3052  -29.6672   24.1232 H   0  0  0  0  0  0
  -27.4431  -29.7406   25.4521 H   0  0  0  0  0  0
  -27.8769  -30.4457   23.9145 H   0  0  0  0  0  0
  -27.2737  -33.3722   26.1844 H   0  0  0  0  0  0
  -28.3891  -32.6754   25.0204 H   0  0  0  0  0  0
  -28.0712  -31.8554   26.5410 H   0  0  0  0  0  0
  -28.2545  -38.0179   24.7580 H   0  0  0  0  0  0
  -28.1190  -36.2679   24.6213 H   0  0  0  0  0  0
  -27.2309  -37.1317   25.8867 H   0  0  0  0  0  0
  -20.9445  -29.8970   21.7111 H   0  0  0  0  0  0
  -26.0225  -38.2861   24.1388 H   0  0  0  0  0  0
  -26.3813  -22.2634   19.8112 H   0  0  0  0  0  0
  -25.9689  -23.9582   19.8409 H   0  0  0  0  0  0
  -26.4448  -23.1462   21.3092 H   0  0  0  0  0  0
  -28.7969  -22.7869   18.0474 H   0  0  0  0  0  0
  -29.2712  -24.4506   18.2914 H   0  0  0  0  0  0
  -27.6066  -24.0724   17.9291 H   0  0  0  0  0  0
  -29.4611  -25.0257   21.0741 H   0  0  0  0  0  0
  -27.8513  -25.0996   21.6396 H   0  0  0  0  0  0
  -27.9832  -21.0494   19.4453 H   0  0  0  0  0  0
  -28.7191  -15.4189   20.8317 H   0  0  0  0  0  0
  1 25  1  0  0  0
  1 30  2  0  0  0
  1 82  1  0  0  0
  2  3  1  0  0  0
  2 25  1  0  0  0
  2 88  1  0  0  0
  2 89  1  0  0  0
  3  4  1  0  0  0
  3 90  1  0  0  0
  3 91  1  0  0  0
  4  5  1  0  0  0
  4 92  1  0  0  0
  4 93  1  0  0  0
  5  6  1  0  0  0
  5 26  1  0  0  0
  5 94  1  0  0  0
  6 25  1  0  0  0
  6 95  1  0  0  0
  6 96  1  0  0  0
  7  8  2  0  0  0
  7 26  1  0  0  0
  7 29  1  0  0  0
  8  9  1  0  0  0
  8 22  1  0  0  0
  9 10  1  0  0  0
  9 27  2  0  0  0
 10 11  2  0  0  0
 10 15  1  0  0  0
 11 12  1  0  0  0
 11 97  1  0  0  0
 12 13  2  0  0  0
 12 98  1  0  0  0
 13 14  1  0  0  0
 13 31  1  0  0  0
 14 15  2  0  0  0
 14 99  1  0  0  0
 15100  1  0  0  0
 16 17  2  0  0  0
 16 21  1  0  0  0
 16 31  1  0  0  0
 17 18  1  0  0  0
 17101  1  0  0  0
 18 19  2  0  0  0
 18102  1  0  0  0
 19 20  1  0  0  0
 19 24  1  0  0  0
 20 21  2  0  0  0
 20103  1  0  0  0
 21 23  1  0  0  0
 22 28  1  0  0  0
 22 32  2  0  0  0
 26 27  1  0  0  0
 28104  1  0  0  0
 28105  1  0  0  0
 29106  1  0  0  0
 29107  1  0  0  0
 33 34  1  0  0  0
 33 66  1  0  0  0
 33 70  2  0  0  0
 34 36  1  0  0  0
 34 59  1  0  0  0
 34108  1  0  0  0
 35 44  2  0  0  0
 35 45  1  0  0  0
 35 68  1  0  0  0
 36 56  1  0  0  0
 36109  1  0  0  0
 37 39  1  0  0  0
 37 47  1  0  0  0
 37 66  1  0  0  0
 37110  1  0  0  0
 38 43  2  0  0  0
 38 46  1  0  0  0
 38 47  1  0  0  0
 39 64  1  0  0  0
 39 67  2  0  0  0
 40 52  1  0  0  0
 40 53  2  0  0  0
 40 58  1  0  0  0
 41111  1  0  0  0
 41112  1  0  0  0
 41113  1  0  0  0
 41 48  1  0  0  0
 42 43  1  0  0  0
 42 66  1  0  0  0
 42114  1  0  0  0
 42115  1  0  0  0
 43 44  1  0  0  0
 44116  1  0  0  0
 45 46  2  0  0  0
 45117  1  0  0  0
 46118  1  0  0  0
 47119  1  0  0  0
 47120  1  0  0  0
 48 56  1  0  0  0
 48 65  1  0  0  0
 48121  1  0  0  0
 49 50  1  0  0  0
 49 53  1  0  0  0
 49 64  1  0  0  0
 49122  1  0  0  0
 50 51  1  0  0  0
 50123  1  0  0  0
 50124  1  0  0  0
 51 52  1  0  0  0
 51125  1  0  0  0
 51126  1  0  0  0
 52127  1  0  0  0
 52128  1  0  0  0
 53 54  1  0  0  0
 54 55  2  0  0  0
 54129  1  0  0  0
 55 57  1  0  0  0
 55130  1  0  0  0
 56 69  2  0  0  0
 57 58  2  0  0  0
 57131  1  0  0  0
 58132  1  0  0  0
 59 60  1  0  0  0
 59 61  1  0  0  0
 59 62  1  0  0  0
 60133  1  0  0  0
 60134  1  0  0  0
 60135  1  0  0  0
 61136  1  0  0  0
 61137  1  0  0  0
 61138  1  0  0  0
 62139  1  0  0  0
 62140  1  0  0  0
 62141  1  0  0  0
 63 65  1  0  0  0
 63142  1  0  0  0
 63143  1  0  0  0
 63144  1  0  0  0
 64145  1  0  0  0
 65146  1  0  0  0
 68 77  1  0  0  0
 71 72  2  0  0  0
 71 78  1  0  0  0
 71 80  1  0  0  0
 72 81  1  0  0  0
 72 87  1  0  0  0
 73 80  2  0  0  0
 73 82  1  0  0  0
 73 87  1  0  0  0
 74 79  1  0  0  0
 74 81  1  0  0  0
 74 83  2  0  0  0
 75147  1  0  0  0
 75148  1  0  0  0
 75149  1  0  0  0
 75 79  1  0  0  0
 76 79  1  0  0  0
 76150  1  0  0  0
 76151  1  0  0  0
 76152  1  0  0  0
 77 79  1  0  0  0
 77153  1  0  0  0
 77154  1  0  0  0
 78 84  1  0  0  0
 78 85  1  0  0  0
 78 86  1  0  0  0
 81155  1  0  0  0
 82156  1  0  0  0
M  ISO  4   1 100  68 101  77 101  82 100
M  END
> <chiral flag>
0

> <version>
0

> <s_m_source_file>
/data/baiqing/PycharmProjects/Reinvent-master-3.2/result/LINK_invent/BTK/process_docking_weight1_custom_product_contain_oxygen_bond_distance_aromatic_linkinvent_7_9_3/rearranged_h_0182.sdf

> <i_m_source_file_index>
26

> <r_mmod_Potential_Energy-OPLS-2005>
214.348342895508

> <r_mmod_Stretch_Energy-OPLS-2005>
116.107460021973

> <r_mmod_Bend_Energy-OPLS-2005>
192.503753662109

> <r_mmod_Torsional_Energy-OPLS-2005>
278.823120117188

> <r_mmod_Improper_Torsional_Energy-OPLS-2005>
6.11071300506592

> <r_mmod_Van_der_Waal_Energy-OPLS-2005>
112.109481811523

> <r_mmod_Electrostatic_Energy-OPLS-2005>
-331.953216552734

> <r_mmod_Solvation_Energy-OPLS-2005>
-236.83203125

> <b_mmod_Minimization_Converged-OPLS-2005>
0

> <r_mmod_RMS_Derivative-OPLS-2005>
7.95551156997681

$$$$
26
                    3D
 Structure written by MMmdl.
168176  0  0  1  0            999 V2000
  -30.6834  -14.5224   20.5269 C   0  0  0  0  0  0
  -30.4259  -12.3244   19.4488 C   0  0  0  0  0  0
  -29.5074  -12.5067   18.2216 C   0  0  0  0  0  0
  -28.0268  -12.3648   18.6285 C   0  0  0  0  0  0
  -27.6619  -13.2144   19.8753 C   0  0  2  0  0  0
  -28.7010  -13.0280   21.0062 C   0  0  0  0  0  0
  -25.2584  -13.8168   20.5674 C   0  0  0  0  0  0
  -24.1837  -13.0438   20.9166 C   0  0  0  0  0  0
  -24.6390  -11.6902   20.8708 C   0  0  0  0  0  0
  -23.9047  -10.4294   21.0393 C   0  0  0  0  0  0
  -24.3604   -9.4213   21.9177 C   0  0  0  0  0  0
  -23.6289   -8.2241   22.0748 C   0  0  0  0  0  0
  -22.4273   -8.0278   21.3537 C   0  0  0  0  0  0
  -21.9899   -9.0243   20.4640 C   0  0  0  0  0  0
  -22.7215  -10.2129   20.3047 C   0  0  0  0  0  0
  -21.6849   -6.0729   22.5273 C   0  0  0  0  0  0
  -21.4010   -6.5635   23.8210 C   0  0  0  0  0  0
  -21.3662   -5.6789   24.9172 C   0  0  0  0  0  0
  -21.6049   -4.3050   24.7225 C   0  0  0  0  0  0
  -21.8822   -3.8140   23.4342 C   0  0  0  0  0  0
  -21.9189   -4.6951   22.3398 C   0  0  0  0  0  0
  -22.7862  -13.5238   21.1846 C   0  0  0  0  0  0
  -22.1661   -4.2136   21.0974 F   0  0  0  0  0  0
  -21.5636   -3.4537   25.7738 F   0  0  0  0  0  0
  -30.0328  -13.3265   20.4559 N   0  0  0  0  0  0
  -26.3022  -12.9347   20.3338 N   0  0  0  0  0  0
  -25.9324  -11.6499   20.5740 N   0  0  0  0  0  0
  -22.0487  -12.8237   22.0399 N   0  0  0  0  0  0
  -25.4327  -15.1892   20.4119 N   0  0  0  0  0  0
  -31.8203  -14.6806   20.0726 O   0  0  0  0  0  0
  -21.6637   -6.8872   21.4238 O   0  0  0  0  0  0
  -22.3546  -14.5549   20.6703 O   0  0  0  0  0  0
  -24.6207  -31.8673   23.2107 C   0  0  0  0  0  0
  -25.9086  -32.4816   23.8406 C   0  0  1  0  0  0
  -27.2183  -27.3929   20.0983 C   0  0  0  0  0  0
  -25.5941  -33.8615   24.2340 N   0  0  0  0  0  0
  -23.4092  -30.4951   21.5527 C   0  0  2  0  0  0
  -24.8512  -28.9660   20.1099 C   0  0  0  0  0  0
  -22.7445  -29.4665   22.4981 C   0  0  0  0  0  0
  -18.0287  -28.1382   22.8504 C   0  0  0  0  0  0
  -24.1483  -36.7302   23.2628 C   0  0  0  0  0  0
  -25.9441  -30.8210   21.3695 C   0  0  0  0  0  0
  -26.0176  -29.4551   20.7112 C   0  0  0  0  0  0
  -27.2058  -28.6785   20.7007 C   0  0  0  0  0  0
  -26.0348  -26.9503   19.4594 C   0  0  0  0  0  0
  -24.8582  -27.7151   19.4769 C   0  0  0  0  0  0
  -23.6168  -29.8367   20.1640 C   0  0  0  0  0  0
  -25.4102  -36.3102   24.0337 C   0  0  1  0  0  0
  -20.5886  -28.3668   23.1309 C   0  0  2  0  0  0
  -20.6781  -26.9405   22.5404 C   0  0  0  0  0  0
  -19.5745  -26.6392   21.5211 C   0  0  0  0  0  0
  -18.1927  -26.7934   22.1631 C   0  0  0  0  0  0
  -19.1539  -28.8845   23.2904 C   0  0  0  0  0  0
  -18.9463  -30.1461   23.8895 C   0  0  0  0  0  0
  -17.6462  -30.6585   24.0571 C   0  0  0  0  0  0
  -25.9045  -34.9469   23.5125 C   0  0  0  0  0  0
  -16.5355  -29.9085   23.6336 C   0  0  0  0  0  0
  -16.7275  -28.6504   23.0357 C   0  0  0  0  0  0
  -26.4490  -31.6604   25.0748 C   0  0  0  0  0  0
  -25.3751  -31.3741   26.1500 C   0  0  0  0  0  0
  -27.0303  -30.3037   24.6136 C   0  0  0  0  0  0
  -27.6081  -32.4311   25.7509 C   0  0  0  0  0  0
  -27.5590  -37.1790   24.8450 C   0  0  0  0  0  0
  -21.4169  -29.3036   22.3712 N   0  0  0  0  0  0
  -26.4269  -37.3803   23.9438 N   0  0  0  0  0  0
  -24.6766  -31.0752   22.1020 N   0  0  0  0  0  0
  -23.4200  -28.8212   23.3036 O   0  0  0  0  0  0
  -28.3458  -26.5771   20.1545 O   0  0  0  0  0  0
  -26.5581  -34.8923   22.4674 O   0  0  0  0  0  0
  -23.5388  -32.1444   23.7475 O   0  0  0  0  0  0
  -29.4389  -18.6517   18.7032 C   0  0  0  0  0  0
  -29.2986  -19.0409   20.0168 C   0  0  0  0  0  0
  -29.8616  -16.8253   20.3117 C   0  0  0  0  0  0
  -28.9561  -22.7344   19.9326 C   0  0  0  0  0  0
  -29.1910  -19.4631   17.4705 C   0  0  0  0  0  0
  -32.3484  -22.6681   21.9291 C   0  0  0  0  0  0
  -33.5133  -22.1082   19.7626 C   0  0  0  0  0  0
  -27.6094  -25.0529   21.9149 C   0  0  0  0  0  0
  -29.3274  -24.2171   20.2333 C   0  0  0  0  0  0
  -31.1353  -21.3213   20.1146 C   0  0  0  0  0  0
  -29.6824  -21.5334   20.6305 C   0  0  2  0  0  0
  -32.1637  -22.4338   20.4211 C   0  0  0  0  0  0
  -28.1068  -25.1669   20.4613 C   0  0  2  0  0  0
  -29.5299  -17.9812   20.9237 N   0  0  0  0  0  0
  -28.8535  -20.3226   20.4273 N   0  0  0  0  0  0
  -29.9786  -15.5741   20.9999 N   0  0  0  0  0  0
  -28.0665  -22.5005   19.1060 O   0  0  0  0  0  0
  -29.9535  -16.9866   18.5603 S   0  0  0  0  0  0
  -31.4740  -12.4135   19.1572 H   0  0  0  0  0  0
  -30.3205  -11.3191   19.8592 H   0  0  0  0  0  0
  -29.7558  -11.7715   17.4545 H   0  0  0  0  0  0
  -29.6769  -13.4862   17.7711 H   0  0  0  0  0  0
  -27.8440  -11.3099   18.8366 H   0  0  0  0  0  0
  -27.3791  -12.6268   17.7913 H   0  0  0  0  0  0
  -27.6970  -14.2585   19.5633 H   0  0  0  0  0  0
  -28.6788  -12.0025   21.3788 H   0  0  0  0  0  0
  -28.4581  -13.6566   21.8642 H   0  0  0  0  0  0
  -25.2751   -9.5701   22.4745 H   0  0  0  0  0  0
  -24.0001   -7.4640   22.7471 H   0  0  0  0  0  0
  -21.0825   -8.8757   19.8956 H   0  0  0  0  0  0
  -22.3667  -10.9662   19.6156 H   0  0  0  0  0  0
  -21.2001   -7.6144   23.9708 H   0  0  0  0  0  0
  -21.1487   -6.0518   25.9079 H   0  0  0  0  0  0
  -22.0599   -2.7597   23.2838 H   0  0  0  0  0  0
  -22.4090  -11.9897   22.4797 H   0  0  0  0  0  0
  -21.1107  -13.1280   22.2599 H   0  0  0  0  0  0
  -24.6704  -15.8477   20.5335 H   0  0  0  0  0  0
  -26.2890  -15.6285   20.0997 H   0  0  0  0  0  0
  -26.7173  -32.5506   23.1184 H   0  0  0  0  0  0
  -25.0169  -33.9783   25.0537 H   0  0  0  0  0  0
  -22.6997  -31.3147   21.4191 H   0  0  0  0  0  0
  -23.3758  -35.9616   23.3243 H   0  0  0  0  0  0
  -24.3606  -36.8956   22.2053 H   0  0  0  0  0  0
  -23.7200  -37.6482   23.6664 H   0  0  0  0  0  0
  -26.0635  -31.5880   20.6024 H   0  0  0  0  0  0
  -26.8294  -30.8714   21.9910 H   0  0  0  0  0  0
  -28.1002  -29.0469   21.1845 H   0  0  0  0  0  0
  -25.9856  -26.0118   18.9300 H   0  0  0  0  0  0
  -23.9673  -27.3390   18.9920 H   0  0  0  0  0  0
  -23.7317  -30.6165   19.4103 H   0  0  0  0  0  0
  -22.7371  -29.2650   19.8623 H   0  0  0  0  0  0
  -25.1269  -36.1952   25.0824 H   0  0  0  0  0  0
  -20.9995  -28.3218   24.1424 H   0  0  0  0  0  0
  -20.5706  -26.2267   23.3584 H   0  0  0  0  0  0
  -21.6650  -26.7458   22.1180 H   0  0  0  0  0  0
  -19.6892  -25.6303   21.1233 H   0  0  0  0  0  0
  -19.6677  -27.3212   20.6746 H   0  0  0  0  0  0
  -17.4207  -26.6706   21.4022 H   0  0  0  0  0  0
  -18.0314  -26.0068   22.9018 H   0  0  0  0  0  0
  -19.7936  -30.7295   24.2239 H   0  0  0  0  0  0
  -17.5012  -31.6258   24.5183 H   0  0  0  0  0  0
  -15.5354  -30.2984   23.7653 H   0  0  0  0  0  0
  -15.8684  -28.0822   22.7056 H   0  0  0  0  0  0
  -24.5897  -30.7114   25.7856 H   0  0  0  0  0  0
  -24.8970  -32.2905   26.4968 H   0  0  0  0  0  0
  -25.8097  -30.8900   27.0253 H   0  0  0  0  0  0
  -26.2839  -29.6819   24.1174 H   0  0  0  0  0  0
  -27.4049  -29.7268   25.4604 H   0  0  0  0  0  0
  -27.8700  -30.4356   23.9306 H   0  0  0  0  0  0
  -27.2734  -33.3639   26.2066 H   0  0  0  0  0  0
  -28.3906  -32.6813   25.0331 H   0  0  0  0  0  0
  -28.0719  -31.8425   26.5438 H   0  0  0  0  0  0
  -28.2547  -38.0150   24.7610 H   0  0  0  0  0  0
  -28.1146  -36.2694   24.6123 H   0  0  0  0  0  0
  -27.2336  -37.1256   25.8853 H   0  0  0  0  0  0
  -20.9322  -29.8765   21.6945 H   0  0  0  0  0  0
  -26.0145  -38.2857   24.1524 H   0  0  0  0  0  0
  -30.0032  -20.1659   17.2925 H   0  0  0  0  0  0
  -28.2657  -20.0337   17.5580 H   0  0  0  0  0  0
  -29.1046  -18.8280   16.5888 H   0  0  0  0  0  0
  -33.0672  -23.4677   22.1144 H   0  0  0  0  0  0
  -32.7156  -21.7715   22.4299 H   0  0  0  0  0  0
  -31.4180  -22.9597   22.4156 H   0  0  0  0  0  0
  -34.2265  -22.9227   19.8961 H   0  0  0  0  0  0
  -33.4021  -21.9491   18.6895 H   0  0  0  0  0  0
  -33.9575  -21.2066   20.1858 H   0  0  0  0  0  0
  -27.3725  -24.0201   22.1708 H   0  0  0  0  0  0
  -26.7047  -25.6368   22.0839 H   0  0  0  0  0  0
  -28.3638  -25.4063   22.6178 H   0  0  0  0  0  0
  -29.8924  -24.5742   19.3732 H   0  0  0  0  0  0
  -30.0002  -24.2658   21.0889 H   0  0  0  0  0  0
  -31.1051  -21.1797   19.0348 H   0  0  0  0  0  0
  -31.5330  -20.3935   20.5262 H   0  0  0  0  0  0
  -29.7083  -21.7209   21.7041 H   0  0  0  0  0  0
  -31.8272  -23.3654   19.9697 H   0  0  0  0  0  0
  -27.3229  -24.7828   19.8167 H   0  0  0  0  0  0
  -28.1589  -20.6579   19.7589 H   0  0  0  0  0  0
  -29.2074  -15.3523   21.6082 H   0  0  0  0  0  0
  1 25  1  0  0  0
  1 30  2  0  0  0
  1 86  1  0  0  0
  2  3  1  0  0  0
  2 25  1  0  0  0
  2 89  1  0  0  0
  2 90  1  0  0  0
  3  4  1  0  0  0
  3 91  1  0  0  0
  3 92  1  0  0  0
  4  5  1  0  0  0
  4 93  1  0  0  0
  4 94  1  0  0  0
  5  6  1  0  0  0
  5 26  1  0  0  0
  5 95  1  0  0  0
  6 25  1  0  0  0
  6 96  1  0  0  0
  6 97  1  0  0  0
  7  8  2  0  0  0
  7 26  1  0  0  0
  7 29  1  0  0  0
  8  9  1  0  0  0
  8 22  1  0  0  0
  9 10  1  0  0  0
  9 27  2  0  0  0
 10 11  2  0  0  0
 10 15  1  0  0  0
 11 12  1  0  0  0
 11 98  1  0  0  0
 12 13  2  0  0  0
 12 99  1  0  0  0
 13 14  1  0  0  0
 13 31  1  0  0  0
 14 15  2  0  0  0
 14100  1  0  0  0
 15101  1  0  0  0
 16 17  2  0  0  0
 16 21  1  0  0  0
 16 31  1  0  0  0
 17 18  1  0  0  0
 17102  1  0  0  0
 18 19  2  0  0  0
 18103  1  0  0  0
 19 20  1  0  0  0
 19 24  1  0  0  0
 20 21  2  0  0  0
 20104  1  0  0  0
 21 23  1  0  0  0
 22 28  1  0  0  0
 22 32  2  0  0  0
 26 27  1  0  0  0
 28105  1  0  0  0
 28106  1  0  0  0
 29107  1  0  0  0
 29108  1  0  0  0
 33 34  1  0  0  0
 33 66  1  0  0  0
 33 70  2  0  0  0
 34 36  1  0  0  0
 34 59  1  0  0  0
 34109  1  0  0  0
 35 44  2  0  0  0
 35 45  1  0  0  0
 35 68  1  0  0  0
 36 56  1  0  0  0
 36110  1  0  0  0
 37 39  1  0  0  0
 37 47  1  0  0  0
 37 66  1  0  0  0
 37111  1  0  0  0
 38 43  2  0  0  0
 38 46  1  0  0  0
 38 47  1  0  0  0
 39 64  1  0  0  0
 39 67  2  0  0  0
 40 52  1  0  0  0
 40 53  2  0  0  0
 40 58  1  0  0  0
 41112  1  0  0  0
 41113  1  0  0  0
 41114  1  0  0  0
 41 48  1  0  0  0
 42 43  1  0  0  0
 42 66  1  0  0  0
 42115  1  0  0  0
 42116  1  0  0  0
 43 44  1  0  0  0
 44117  1  0  0  0
 45 46  2  0  0  0
 45118  1  0  0  0
 46119  1  0  0  0
 47120  1  0  0  0
 47121  1  0  0  0
 48 56  1  0  0  0
 48 65  1  0  0  0
 48122  1  0  0  0
 49 50  1  0  0  0
 49 53  1  0  0  0
 49 64  1  0  0  0
 49123  1  0  0  0
 50 51  1  0  0  0
 50124  1  0  0  0
 50125  1  0  0  0
 51 52  1  0  0  0
 51126  1  0  0  0
 51127  1  0  0  0
 52128  1  0  0  0
 52129  1  0  0  0
 53 54  1  0  0  0
 54 55  2  0  0  0
 54130  1  0  0  0
 55 57  1  0  0  0
 55131  1  0  0  0
 56 69  2  0  0  0
 57 58  2  0  0  0
 57132  1  0  0  0
 58133  1  0  0  0
 59 60  1  0  0  0
 59 61  1  0  0  0
 59 62  1  0  0  0
 60134  1  0  0  0
 60135  1  0  0  0
 60136  1  0  0  0
 61137  1  0  0  0
 61138  1  0  0  0
 61139  1  0  0  0
 62140  1  0  0  0
 62141  1  0  0  0
 62142  1  0  0  0
 63 65  1  0  0  0
 63143  1  0  0  0
 63144  1  0  0  0
 63145  1  0  0  0
 64146  1  0  0  0
 65147  1  0  0  0
 68 83  1  0  0  0
 71 72  2  0  0  0
 71 75  1  0  0  0
 71 88  1  0  0  0
 72 84  1  0  0  0
 72 85  1  0  0  0
 73 84  2  0  0  0
 73 86  1  0  0  0
 73 88  1  0  0  0
 74 79  1  0  0  0
 74 81  1  0  0  0
 74 87  2  0  0  0
 75148  1  0  0  0
 75149  1  0  0  0
 75150  1  0  0  0
 76151  1  0  0  0
 76152  1  0  0  0
 76153  1  0  0  0
 76 82  1  0  0  0
 77 82  1  0  0  0
 77154  1  0  0  0
 77155  1  0  0  0
 77156  1  0  0  0
 78157  1  0  0  0
 78158  1  0  0  0
 78159  1  0  0  0
 78 83  1  0  0  0
 79 83  1  0  0  0
 79160  1  0  0  0
 79161  1  0  0  0
 80 82  1  0  0  0
 80162  1  0  0  0
 80163  1  0  0  0
 80 81  1  0  0  0
 81 85  1  0  0  0
 81164  1  0  0  0
 82165  1  0  0  0
 83166  1  0  0  0
 85167  1  0  0  0
 86168  1  0  0  0
M  ISO  4   1 100  68 101  83 101  86 100
M  END
> <chiral flag>
0

> <version>
0

> <s_m_source_file>
/data/baiqing/PycharmProjects/Reinvent-master-3.2/result/LINK_invent/BTK/process_docking_weight1_custom_product_contain_oxygen_bond_distance_aromatic_linkinvent_7_9_3/rearranged_h_0182.sdf

> <i_m_source_file_index>
27

> <r_mmod_Potential_Energy-OPLS-2005>
-118.408668518066

> <r_mmod_Stretch_Energy-OPLS-2005>
48.6449546813965

> <r_mmod_Bend_Energy-OPLS-2005>
122.523574829102

> <r_mmod_Torsional_Energy-OPLS-2005>
264.432647705078

> <r_mmod_Improper_Torsional_Energy-OPLS-2005>
11.7864322662354

> <r_mmod_Van_der_Waal_Energy-OPLS-2005>
129.670806884766

> <r_mmod_Electrostatic_Energy-OPLS-2005>
-502.921051025391

> <r_mmod_Solvation_Energy-OPLS-2005>
-215.974624633789

> <b_mmod_Minimization_Converged-OPLS-2005>
0

> <r_mmod_RMS_Derivative-OPLS-2005>
1.83212399482727

$$$$
27
                    3D
 Structure written by MMmdl.
156164  0  0  1  0            999 V2000
  -30.6549  -14.5583   20.4761 C   0  0  0  0  0  0
  -30.4414  -12.3203   19.4621 C   0  0  0  0  0  0
  -29.5116  -12.3993   18.2293 C   0  0  0  0  0  0
  -28.0271  -12.3080   18.6389 C   0  0  0  0  0  0
  -27.6587  -13.2000   19.8556 C   0  0  2  0  0  0
  -28.6976  -13.0501   20.9905 C   0  0  0  0  0  0
  -25.2606  -13.8157   20.5654 C   0  0  0  0  0  0
  -24.1833  -13.0464   20.9177 C   0  0  0  0  0  0
  -24.6369  -11.6918   20.8750 C   0  0  0  0  0  0
  -23.9046  -10.4299   21.0411 C   0  0  0  0  0  0
  -24.3613   -9.4210   21.9182 C   0  0  0  0  0  0
  -23.6283   -8.2244   22.0751 C   0  0  0  0  0  0
  -22.4259   -8.0292   21.3551 C   0  0  0  0  0  0
  -21.9892   -9.0269   20.4662 C   0  0  0  0  0  0
  -22.7224  -10.2142   20.3060 C   0  0  0  0  0  0
  -21.6857   -6.0740   22.5273 C   0  0  0  0  0  0
  -21.4025   -6.5644   23.8210 C   0  0  0  0  0  0
  -21.3642   -5.6786   24.9168 C   0  0  0  0  0  0
  -21.6034   -4.3053   24.7217 C   0  0  0  0  0  0
  -21.8820   -3.8148   23.4340 C   0  0  0  0  0  0
  -21.9194   -4.6969   22.3394 C   0  0  0  0  0  0
  -22.7862  -13.5271   21.1835 C   0  0  0  0  0  0
  -22.1667   -4.2155   21.0971 F   0  0  0  0  0  0
  -21.5613   -3.4536   25.7730 F   0  0  0  0  0  0
  -30.0247  -13.3507   20.4294 N   0  0  0  0  0  0
  -26.3012  -12.9305   20.3278 N   0  0  0  0  0  0
  -25.9295  -11.6480   20.5770 N   0  0  0  0  0  0
  -22.0490  -12.8282   22.0397 N   0  0  0  0  0  0
  -25.4387  -15.1855   20.4013 N   0  0  0  0  0  0
  -31.8206  -14.7083   20.0940 O   0  0  0  0  0  0
  -21.6638   -6.8883   21.4229 O   0  0  0  0  0  0
  -22.3553  -14.5584   20.6683 O   0  0  0  0  0  0
  -24.6148  -31.8650   23.2076 C   0  0  0  0  0  0
  -25.9045  -32.4792   23.8369 C   0  0  1  0  0  0
  -27.2301  -27.4167   20.0953 C   0  0  0  0  0  0
  -25.5887  -33.8595   24.2293 N   0  0  0  0  0  0
  -23.4021  -30.4907   21.5461 C   0  0  2  0  0  0
  -24.8459  -28.9488   20.1110 C   0  0  0  0  0  0
  -22.7402  -29.4656   22.4945 C   0  0  0  0  0  0
  -18.0270  -28.1383   22.8485 C   0  0  0  0  0  0
  -24.1482  -36.7321   23.2640 C   0  0  0  0  0  0
  -25.9322  -30.8234   21.3640 C   0  0  0  0  0  0
  -26.0040  -29.4569   20.7100 C   0  0  0  0  0  0
  -27.1935  -28.6949   20.7013 C   0  0  0  0  0  0
  -26.0507  -26.9194   19.4951 C   0  0  0  0  0  0
  -24.8642  -27.6806   19.5036 C   0  0  0  0  0  0
  -23.6111  -29.8214   20.1596 C   0  0  0  0  0  0
  -25.4099  -36.3095   24.0331 C   0  0  1  0  0  0
  -20.5858  -28.3666   23.1302 C   0  0  2  0  0  0
  -20.6751  -26.9399   22.5411 C   0  0  0  0  0  0
  -19.5733  -26.6387   21.5206 C   0  0  0  0  0  0
  -18.1913  -26.7928   22.1624 C   0  0  0  0  0  0
  -19.1521  -28.8841   23.2896 C   0  0  0  0  0  0
  -18.9455  -30.1441   23.8910 C   0  0  0  0  0  0
  -17.6462  -30.6589   24.0569 C   0  0  0  0  0  0
  -25.9029  -34.9462   23.5108 C   0  0  0  0  0  0
  -16.5350  -29.9100   23.6321 C   0  0  0  0  0  0
  -16.7259  -28.6521   23.0335 C   0  0  0  0  0  0
  -26.4462  -31.6599   25.0723 C   0  0  0  0  0  0
  -25.3745  -31.3746   26.1494 C   0  0  0  0  0  0
  -27.0280  -30.3023   24.6133 C   0  0  0  0  0  0
  -27.6017  -32.4347   25.7492 C   0  0  0  0  0  0
  -27.5575  -37.1806   24.8454 C   0  0  0  0  0  0
  -21.4123  -29.3039   22.3703 N   0  0  0  0  0  0
  -26.4273  -37.3786   23.9414 N   0  0  0  0  0  0
  -24.6681  -31.0753   22.0974 N   0  0  0  0  0  0
  -23.4176  -28.8197   23.2986 O   0  0  0  0  0  0
  -28.4214  -26.7183   20.1369 O   0  0  0  0  0  0
  -26.5600  -34.8917   22.4676 O   0  0  0  0  0  0
  -23.5346  -32.1391   23.7488 O   0  0  0  0  0  0
  -29.2791  -17.8459   17.8781 C   0  0  0  0  0  0
  -29.2579  -19.1053   18.4879 C   0  0  0  0  0  0
  -29.5078  -16.7057   18.6588 C   0  0  0  0  0  0
  -29.4485  -19.1956   19.8902 C   0  0  0  0  0  0
  -29.7338  -16.8325   20.0514 C   0  0  0  0  0  0
  -28.6844  -21.5477   20.1776 C   0  0  0  0  0  0
  -30.2388  -23.0480   18.9148 C   0  0  0  0  0  0
  -28.2858  -24.1806   20.2594 C   0  0  0  0  0  0
  -28.6066  -25.4752   19.4412 C   0  0  0  0  0  0
  -29.3060  -22.9745   20.1491 C   0  0  1  0  0  0
  -29.6911  -18.0712   20.6405 N   0  0  0  0  0  0
  -29.5140  -20.5123   20.4517 N   0  0  0  0  0  0
  -29.8826  -15.6213   20.8154 N   0  0  0  0  0  0
  -27.4769  -21.3894   19.9741 O   0  0  0  0  0  0
  -29.0913  -20.2028   17.7084 F   0  0  0  0  0  0
  -29.4803  -15.5022   18.0513 F   0  0  0  0  0  0
  -31.4832  -12.4320   19.1538 H   0  0  0  0  0  0
  -30.3771  -11.3362   19.9281 H   0  0  0  0  0  0
  -29.7488  -11.5835   17.5464 H   0  0  0  0  0  0
  -29.6994  -13.3023   17.6563 H   0  0  0  0  0  0
  -27.8305  -11.2632   18.8838 H   0  0  0  0  0  0
  -27.3839  -12.5429   17.7899 H   0  0  0  0  0  0
  -27.6877  -14.2312   19.5044 H   0  0  0  0  0  0
  -28.6833  -12.0358   21.3903 H   0  0  0  0  0  0
  -28.4515  -13.7022   21.8294 H   0  0  0  0  0  0
  -25.2767   -9.5689   22.4748 H   0  0  0  0  0  0
  -24.0012   -7.4624   22.7441 H   0  0  0  0  0  0
  -21.0838   -8.8800   19.8956 H   0  0  0  0  0  0
  -22.3702  -10.9691   19.6168 H   0  0  0  0  0  0
  -21.2046   -7.6153   23.9726 H   0  0  0  0  0  0
  -21.1448   -6.0510   25.9067 H   0  0  0  0  0  0
  -22.0617   -2.7616   23.2834 H   0  0  0  0  0  0
  -22.4124  -11.9980   22.4826 H   0  0  0  0  0  0
  -21.1098  -13.1305   22.2573 H   0  0  0  0  0  0
  -24.6779  -15.8488   20.5039 H   0  0  0  0  0  0
  -26.2821  -15.6069   20.0376 H   0  0  0  0  0  0
  -26.7109  -32.5483   23.1126 H   0  0  0  0  0  0
  -25.0022  -33.9739   25.0426 H   0  0  0  0  0  0
  -22.6912  -31.3079   21.4067 H   0  0  0  0  0  0
  -23.3724  -35.9671   23.3294 H   0  0  0  0  0  0
  -24.3582  -36.8954   22.2058 H   0  0  0  0  0  0
  -23.7255  -37.6528   23.6669 H   0  0  0  0  0  0
  -26.0518  -31.5890   20.5958 H   0  0  0  0  0  0
  -26.8180  -30.8717   21.9862 H   0  0  0  0  0  0
  -28.0902  -29.0810   21.1652 H   0  0  0  0  0  0
  -26.0239  -25.9447   19.0306 H   0  0  0  0  0  0
  -23.9694  -27.2830   19.0454 H   0  0  0  0  0  0
  -23.7239  -30.5963   19.4004 H   0  0  0  0  0  0
  -22.7316  -29.2477   19.8619 H   0  0  0  0  0  0
  -25.1275  -36.1939   25.0820 H   0  0  0  0  0  0
  -20.9961  -28.3249   24.1419 H   0  0  0  0  0  0
  -20.5643  -26.2279   23.3601 H   0  0  0  0  0  0
  -21.6623  -26.7428   22.1211 H   0  0  0  0  0  0
  -19.6887  -25.6302   21.1225 H   0  0  0  0  0  0
  -19.6671  -27.3203   20.6739 H   0  0  0  0  0  0
  -17.4169  -26.6657   21.4039 H   0  0  0  0  0  0
  -18.0332  -26.0077   22.9033 H   0  0  0  0  0  0
  -19.7933  -30.7251   24.2284 H   0  0  0  0  0  0
  -17.5022  -31.6268   24.5180 H   0  0  0  0  0  0
  -15.5350  -30.3017   23.7636 H   0  0  0  0  0  0
  -15.8654  -28.0860   22.7025 H   0  0  0  0  0  0
  -24.5881  -30.7108   25.7880 H   0  0  0  0  0  0
  -24.8984  -32.2926   26.4950 H   0  0  0  0  0  0
  -25.8123  -30.8928   27.0245 H   0  0  0  0  0  0
  -26.2825  -29.6812   24.1144 H   0  0  0  0  0  0
  -27.3966  -29.7237   25.4614 H   0  0  0  0  0  0
  -27.8704  -30.4302   23.9330 H   0  0  0  0  0  0
  -27.2573  -33.3602   26.2114 H   0  0  0  0  0  0
  -28.3797  -32.6988   25.0324 H   0  0  0  0  0  0
  -28.0712  -31.8465   26.5382 H   0  0  0  0  0  0
  -28.2574  -38.0118   24.7493 H   0  0  0  0  0  0
  -28.1077  -36.2645   24.6259 H   0  0  0  0  0  0
  -27.2303  -37.1447   25.8858 H   0  0  0  0  0  0
  -20.9270  -29.8795   21.6959 H   0  0  0  0  0  0
  -26.0154  -38.2850   24.1436 H   0  0  0  0  0  0
  -29.1243  -17.7556   16.8138 H   0  0  0  0  0  0
  -30.7973  -22.1253   18.7490 H   0  0  0  0  0  0
  -30.9954  -23.8230   19.0336 H   0  0  0  0  0  0
  -29.6779  -23.2474   18.0013 H   0  0  0  0  0  0
  -27.2706  -23.8724   20.0040 H   0  0  0  0  0  0
  -28.2193  -24.4555   21.3130 H   0  0  0  0  0  0
  -28.1122  -25.4629   18.4686 H   0  0  0  0  0  0
  -29.6668  -25.5155   19.2064 H   0  0  0  0  0  0
  -29.9545  -23.0381   21.0243 H   0  0  0  0  0  0
  -30.4100  -20.7553   20.8465 H   0  0  0  0  0  0
  -29.0670  -15.3818   21.3540 H   0  0  0  0  0  0
  1 25  1  0  0  0
  1 30  2  0  0  0
  1 83  1  0  0  0
  2  3  1  0  0  0
  2 25  1  0  0  0
  2 87  1  0  0  0
  2 88  1  0  0  0
  3  4  1  0  0  0
  3 89  1  0  0  0
  3 90  1  0  0  0
  4  5  1  0  0  0
  4 91  1  0  0  0
  4 92  1  0  0  0
  5  6  1  0  0  0
  5 26  1  0  0  0
  5 93  1  0  0  0
  6 25  1  0  0  0
  6 94  1  0  0  0
  6 95  1  0  0  0
  7  8  2  0  0  0
  7 26  1  0  0  0
  7 29  1  0  0  0
  8  9  1  0  0  0
  8 22  1  0  0  0
  9 10  1  0  0  0
  9 27  2  0  0  0
 10 11  2  0  0  0
 10 15  1  0  0  0
 11 12  1  0  0  0
 11 96  1  0  0  0
 12 13  2  0  0  0
 12 97  1  0  0  0
 13 14  1  0  0  0
 13 31  1  0  0  0
 14 15  2  0  0  0
 14 98  1  0  0  0
 15 99  1  0  0  0
 16 17  2  0  0  0
 16 21  1  0  0  0
 16 31  1  0  0  0
 17 18  1  0  0  0
 17100  1  0  0  0
 18 19  2  0  0  0
 18101  1  0  0  0
 19 20  1  0  0  0
 19 24  1  0  0  0
 20 21  2  0  0  0
 20102  1  0  0  0
 21 23  1  0  0  0
 22 28  1  0  0  0
 22 32  2  0  0  0
 26 27  1  0  0  0
 28103  1  0  0  0
 28104  1  0  0  0
 29105  1  0  0  0
 29106  1  0  0  0
 33 34  1  0  0  0
 33 66  1  0  0  0
 33 70  2  0  0  0
 34 36  1  0  0  0
 34 59  1  0  0  0
 34107  1  0  0  0
 35 44  2  0  0  0
 35 45  1  0  0  0
 35 68  1  0  0  0
 36 56  1  0  0  0
 36108  1  0  0  0
 37 39  1  0  0  0
 37 47  1  0  0  0
 37 66  1  0  0  0
 37109  1  0  0  0
 38 43  2  0  0  0
 38 46  1  0  0  0
 38 47  1  0  0  0
 39 64  1  0  0  0
 39 67  2  0  0  0
 40 52  1  0  0  0
 40 53  2  0  0  0
 40 58  1  0  0  0
 41110  1  0  0  0
 41111  1  0  0  0
 41112  1  0  0  0
 41 48  1  0  0  0
 42 43  1  0  0  0
 42 66  1  0  0  0
 42113  1  0  0  0
 42114  1  0  0  0
 43 44  1  0  0  0
 44115  1  0  0  0
 45 46  2  0  0  0
 45116  1  0  0  0
 46117  1  0  0  0
 47118  1  0  0  0
 47119  1  0  0  0
 48 56  1  0  0  0
 48 65  1  0  0  0
 48120  1  0  0  0
 49 50  1  0  0  0
 49 53  1  0  0  0
 49 64  1  0  0  0
 49121  1  0  0  0
 50 51  1  0  0  0
 50122  1  0  0  0
 50123  1  0  0  0
 51 52  1  0  0  0
 51124  1  0  0  0
 51125  1  0  0  0
 52126  1  0  0  0
 52127  1  0  0  0
 53 54  1  0  0  0
 54 55  2  0  0  0
 54128  1  0  0  0
 55 57  1  0  0  0
 55129  1  0  0  0
 56 69  2  0  0  0
 57 58  2  0  0  0
 57130  1  0  0  0
 58131  1  0  0  0
 59 60  1  0  0  0
 59 61  1  0  0  0
 59 62  1  0  0  0
 60132  1  0  0  0
 60133  1  0  0  0
 60134  1  0  0  0
 61135  1  0  0  0
 61136  1  0  0  0
 61137  1  0  0  0
 62138  1  0  0  0
 62139  1  0  0  0
 62140  1  0  0  0
 63 65  1  0  0  0
 63141  1  0  0  0
 63142  1  0  0  0
 63143  1  0  0  0
 64144  1  0  0  0
 65145  1  0  0  0
 68 79  1  0  0  0
 71 72  2  0  0  0
 71 73  1  0  0  0
 71146  1  0  0  0
 72 74  1  0  0  0
 72 85  1  0  0  0
 73 75  2  0  0  0
 73 86  1  0  0  0
 74 81  2  0  0  0
 74 82  1  0  0  0
 75 81  1  0  0  0
 75 83  1  0  0  0
 76 80  1  0  0  0
 76 82  1  0  0  0
 76 84  2  0  0  0
 77147  1  0  0  0
 77148  1  0  0  0
 77149  1  0  0  0
 77 80  1  0  0  0
 78 79  1  0  0  0
 78 80  1  0  0  0
 78150  1  0  0  0
 78151  1  0  0  0
 79152  1  0  0  0
 79153  1  0  0  0
 80154  1  0  0  0
 82155  1  0  0  0
 83156  1  0  0  0
M  ISO  4   1 100  68 101  79 101  83 100
M  END
> <chiral flag>
0

> <version>
0

> <s_m_source_file>
/data/baiqing/PycharmProjects/Reinvent-master-3.2/result/LINK_invent/BTK/process_docking_weight1_custom_product_contain_oxygen_bond_distance_aromatic_linkinvent_7_9_3/rearranged_h_0182.sdf

> <i_m_source_file_index>
28

> <r_mmod_Potential_Energy-OPLS-2005>
-127.891036987305

> <r_mmod_Stretch_Energy-OPLS-2005>
49.4711265563965

> <r_mmod_Bend_Energy-OPLS-2005>
119.783493041992

> <r_mmod_Torsional_Energy-OPLS-2005>
305.894622802734

> <r_mmod_Improper_Torsional_Energy-OPLS-2005>
7.64188003540039

> <r_mmod_Van_der_Waal_Energy-OPLS-2005>
165.89225769043

> <r_mmod_Electrostatic_Energy-OPLS-2005>
-566.553894042969

> <r_mmod_Solvation_Energy-OPLS-2005>
-236.266647338867

> <b_mmod_Minimization_Converged-OPLS-2005>
0

> <r_mmod_RMS_Derivative-OPLS-2005>
2.4116485118866

$$$$
28
                    3D
 Structure written by MMmdl.
150158  0  0  1  0            999 V2000
  -29.7448  -17.0647   20.2507 C   0  0  0  0  0  0
  -30.2378  -14.1741   19.5170 C   0  0  0  0  0  0
  -29.5789  -13.1523   18.4645 C   0  0  0  0  0  0
  -28.3038  -12.4820   18.9751 C   0  0  0  0  0  0
  -27.5749  -13.5175   19.8344 C   0  0  2  0  0  0
  -28.4640  -14.3939   20.8337 C   0  0  0  0  0  0
  -25.2086  -13.8651   20.6020 C   0  0  0  0  0  0
  -24.1681  -13.0511   20.9360 C   0  0  0  0  0  0
  -24.6677  -11.7124   20.8718 C   0  0  0  0  0  0
  -23.9392  -10.4361   21.0292 C   0  0  0  0  0  0
  -24.3824   -9.4257   21.9122 C   0  0  0  0  0  0
  -23.6416   -8.2325   22.0741 C   0  0  0  0  0  0
  -22.4387   -8.0362   21.3544 C   0  0  0  0  0  0
  -22.0088   -9.0351   20.4628 C   0  0  0  0  0  0
  -22.7505  -10.2190   20.2993 C   0  0  0  0  0  0
  -21.6898   -6.0790   22.5276 C   0  0  0  0  0  0
  -21.4048   -6.5672   23.8215 C   0  0  0  0  0  0
  -21.3670   -5.6811   24.9168 C   0  0  0  0  0  0
  -21.6042   -4.3073   24.7210 C   0  0  0  0  0  0
  -21.8814   -3.8178   23.4325 C   0  0  0  0  0  0
  -21.9206   -4.7008   22.3389 C   0  0  0  0  0  0
  -22.7622  -13.5046   21.1936 C   0  0  0  0  0  0
  -22.1666   -4.2190   21.0966 F   0  0  0  0  0  0
  -21.5620   -3.4548   25.7716 F   0  0  0  0  0  0
  -29.3810  -15.4455   20.1143 N   0  0  0  0  0  0
  -26.2898  -13.0464   20.3648 N   0  0  0  0  0  0
  -25.9737  -11.7279   20.5664 N   0  0  0  0  0  0
  -22.0355  -12.7968   22.0491 N   0  0  0  0  0  0
  -25.3239  -15.2423   20.4396 N   0  0  0  0  0  0
  -30.9965  -16.7657   20.2489 O   0  0  0  0  0  0
  -21.6708   -6.8970   21.4254 O   0  0  0  0  0  0
  -22.3211  -14.5312   20.6770 O   0  0  0  0  0  0
  -24.7799  -31.6742   23.0723 C   0  0  0  0  0  0
  -25.9865  -32.3886   23.7642 C   0  0  1  0  0  0
  -27.3001  -25.7149   20.2794 C   0  0  0  0  0  0
  -25.6010  -33.7769   24.1394 N   0  0  0  0  0  0
  -23.6515  -30.2264   21.4511 C   0  0  2  0  0  0
  -25.1244  -28.3576   20.1521 C   0  0  0  0  0  0
  -22.8193  -29.3634   22.4473 C   0  0  0  0  0  0
  -18.0398  -28.1475   22.8401 C   0  0  0  0  0  0
  -24.1494  -36.6907   23.2681 C   0  0  0  0  0  0
  -26.2574  -30.0749   21.4932 C   0  0  0  0  0  0
  -26.3207  -28.5276   20.8585 C   0  0  0  0  0  0
  -27.3371  -27.2728   20.8750 C   0  0  0  0  0  0
  -26.0741  -26.0177   19.5118 C   0  0  0  0  0  0
  -25.0985  -27.1271   19.4525 C   0  0  0  0  0  0
  -23.9602  -29.4254   20.1337 C   0  0  0  0  0  0
  -25.4177  -36.2561   24.0217 C   0  0  1  0  0  0
  -20.6077  -28.3861   23.0969 C   0  0  2  0  0  0
  -20.6806  -26.9429   22.5431 C   0  0  0  0  0  0
  -19.5804  -26.6332   21.5232 C   0  0  0  0  0  0
  -18.1984  -26.7982   22.1600 C   0  0  0  0  0  0
  -19.1689  -28.9017   23.2633 C   0  0  0  0  0  0
  -18.9580  -30.1576   23.8721 C   0  0  0  0  0  0
  -17.6560  -30.6629   24.0529 C   0  0  0  0  0  0
  -25.9210  -34.8972   23.4726 C   0  0  0  0  0  0
  -16.5442  -29.9096   23.6375 C   0  0  0  0  0  0
  -16.7373  -28.6527   23.0380 C   0  0  0  0  0  0
  -26.4746  -31.6373   25.0663 C   0  0  0  0  0  0
  -25.3561  -31.3942   26.1088 C   0  0  0  0  0  0
  -27.0852  -30.2640   24.7256 C   0  0  0  0  0  0
  -27.5999  -32.4488   25.7516 C   0  0  0  0  0  0
  -27.5529  -37.1601   24.8466 C   0  0  0  0  0  0
  -21.4759  -29.2891   22.3182 N   0  0  0  0  0  0
  -26.4224  -37.3428   23.9408 N   0  0  0  0  0  0
  -24.9336  -30.7154   22.0579 N   0  0  0  0  0  0
  -23.4150  -28.7427   23.3293 O   0  0  0  0  0  0
  -28.0484  -23.9622   20.2726 O   0  0  0  0  0  0
  -26.6005  -34.8748   22.4451 O   0  0  0  0  0  0
  -23.6614  -32.0275   23.5022 O   0  0  0  0  0  0
  -27.8214  -22.0210   18.9591 C   0  0  0  0  0  0
  -29.4845  -24.8746   19.0961 C   0  0  0  0  0  0
  -28.7312  -21.0013   20.2166 C   0  0  0  0  0  0
  -30.0564  -24.1398   20.8364 C   0  0  0  0  0  0
  -28.1371  -23.7474   18.1929 C   0  0  0  0  0  0
  -29.4930  -22.3515   21.2412 C   0  0  0  0  0  0
  -29.9928  -22.8002   19.0314 C   0  0  0  0  0  0
  -30.6119  -24.8973   18.2252 C   0  0  0  0  0  0
  -30.8878  -23.4867   18.2512 C   0  0  0  0  0  0
  -30.8805  -24.8460   21.7224 N   0  0  0  0  0  0
  -28.9882  -18.8153   20.2096 N   0  0  0  0  0  0
  -31.1787  -25.8253   17.6387 O   0  0  0  0  0  0
  -31.9231  -22.9722   17.5675 O   0  0  0  0  0  0
  -27.5658  -24.1136   17.0198 F   0  0  0  0  0  0
  -30.0097  -21.8999   22.4094 F   0  0  0  0  0  0
  -31.0838  -14.6137   18.9875 H   0  0  0  0  0  0
  -30.7256  -13.6187   20.3214 H   0  0  0  0  0  0
  -30.3045  -12.3960   18.1623 H   0  0  0  0  0  0
  -29.3369  -13.7116   17.5598 H   0  0  0  0  0  0
  -28.5683  -11.6214   19.5906 H   0  0  0  0  0  0
  -27.6841  -12.1174   18.1547 H   0  0  0  0  0  0
  -27.2740  -14.2455   19.0788 H   0  0  0  0  0  0
  -28.9905  -13.7678   21.5570 H   0  0  0  0  0  0
  -27.7995  -14.9883   21.4597 H   0  0  0  0  0  0
  -25.2951   -9.5708   22.4734 H   0  0  0  0  0  0
  -24.0084   -7.4732   22.7501 H   0  0  0  0  0  0
  -21.1007   -8.8917   19.8941 H   0  0  0  0  0  0
  -22.3966  -10.9727   19.6098 H   0  0  0  0  0  0
  -21.2057   -7.6182   23.9733 H   0  0  0  0  0  0
  -21.1490   -6.0534   25.9073 H   0  0  0  0  0  0
  -22.0578   -2.7639   23.2813 H   0  0  0  0  0  0
  -22.4080  -11.9692   22.4904 H   0  0  0  0  0  0
  -21.0925  -13.0865   22.2667 H   0  0  0  0  0  0
  -24.5305  -15.8664   20.5384 H   0  0  0  0  0  0
  -26.1629  -15.7097   20.1223 H   0  0  0  0  0  0
  -26.8099  -32.4229   23.0489 H   0  0  0  0  0  0
  -24.9885  -33.8639   24.9368 H   0  0  0  0  0  0
  -23.0377  -31.0856   21.1727 H   0  0  0  0  0  0
  -23.3793  -35.9192   23.3210 H   0  0  0  0  0  0
  -24.3527  -36.8761   22.2123 H   0  0  0  0  0  0
  -23.7226  -37.5999   23.6926 H   0  0  0  0  0  0
  -26.5603  -30.7326   20.6776 H   0  0  0  0  0  0
  -27.0764  -30.1647   22.1912 H   0  0  0  0  0  0
  -28.2065  -27.4532   21.4914 H   0  0  0  0  0  0
  -25.7571  -25.1765   18.9124 H   0  0  0  0  0  0
  -24.2341  -26.9539   18.8260 H   0  0  0  0  0  0
  -24.2086  -30.1415   19.3496 H   0  0  0  0  0  0
  -23.0494  -28.9343   19.7878 H   0  0  0  0  0  0
  -25.1434  -36.1188   25.0702 H   0  0  0  0  0  0
  -21.0113  -28.3559   24.1116 H   0  0  0  0  0  0
  -20.5573  -26.2515   23.3780 H   0  0  0  0  0  0
  -21.6659  -26.7211   22.1314 H   0  0  0  0  0  0
  -19.6939  -25.6197   21.1372 H   0  0  0  0  0  0
  -19.6787  -27.3050   20.6693 H   0  0  0  0  0  0
  -17.4265  -26.6738   21.3990 H   0  0  0  0  0  0
  -18.0325  -26.0166   22.9028 H   0  0  0  0  0  0
  -19.8059  -30.7429   24.2020 H   0  0  0  0  0  0
  -17.5111  -31.6289   24.5170 H   0  0  0  0  0  0
  -15.5438  -30.2948   23.7801 H   0  0  0  0  0  0
  -15.8772  -28.0793   22.7192 H   0  0  0  0  0  0
  -24.5835  -30.7217   25.7342 H   0  0  0  0  0  0
  -24.8669  -32.3238   26.4007 H   0  0  0  0  0  0
  -25.7512  -30.9422   27.0194 H   0  0  0  0  0  0
  -26.3718  -29.5904   24.2508 H   0  0  0  0  0  0
  -27.4155  -29.7536   25.6313 H   0  0  0  0  0  0
  -27.9731  -30.3592   24.1008 H   0  0  0  0  0  0
  -27.2409  -33.3974   26.1518 H   0  0  0  0  0  0
  -28.4076  -32.6754   25.0544 H   0  0  0  0  0  0
  -28.0375  -31.9033   26.5887 H   0  0  0  0  0  0
  -28.2456  -37.9974   24.7509 H   0  0  0  0  0  0
  -28.1110  -36.2480   24.6296 H   0  0  0  0  0  0
  -27.2241  -37.1216   25.8866 H   0  0  0  0  0  0
  -21.0315  -29.8377   21.5950 H   0  0  0  0  0  0
  -25.9966  -38.2433   24.1434 H   0  0  0  0  0  0
  -27.1742  -21.4277   18.3309 H   0  0  0  0  0  0
  -30.2871  -21.7627   18.9955 H   0  0  0  0  0  0
  -31.3899  -25.6675   21.4156 H   0  0  0  0  0  0
  -31.3233  -24.3414   22.4842 H   0  0  0  0  0  0
  -28.0454  -18.5027   20.0179 H   0  0  0  0  0  0
  -31.9357  -22.0360   17.7152 H   0  0  0  0  0  0
  1 25  1  0  0  0
  1 30  2  0  0  0
  1 81  1  0  0  0
  2  3  1  0  0  0
  2 25  1  0  0  0
  2 86  1  0  0  0
  2 87  1  0  0  0
  3  4  1  0  0  0
  3 88  1  0  0  0
  3 89  1  0  0  0
  4  5  1  0  0  0
  4 90  1  0  0  0
  4 91  1  0  0  0
  5  6  1  0  0  0
  5 26  1  0  0  0
  5 92  1  0  0  0
  6 25  1  0  0  0
  6 93  1  0  0  0
  6 94  1  0  0  0
  7  8  2  0  0  0
  7 26  1  0  0  0
  7 29  1  0  0  0
  8  9  1  0  0  0
  8 22  1  0  0  0
  9 10  1  0  0  0
  9 27  2  0  0  0
 10 11  2  0  0  0
 10 15  1  0  0  0
 11 12  1  0  0  0
 11 95  1  0  0  0
 12 13  2  0  0  0
 12 96  1  0  0  0
 13 14  1  0  0  0
 13 31  1  0  0  0
 14 15  2  0  0  0
 14 97  1  0  0  0
 15 98  1  0  0  0
 16 17  2  0  0  0
 16 21  1  0  0  0
 16 31  1  0  0  0
 17 18  1  0  0  0
 17 99  1  0  0  0
 18 19  2  0  0  0
 18100  1  0  0  0
 19 20  1  0  0  0
 19 24  1  0  0  0
 20 21  2  0  0  0
 20101  1  0  0  0
 21 23  1  0  0  0
 22 28  1  0  0  0
 22 32  2  0  0  0
 26 27  1  0  0  0
 28102  1  0  0  0
 28103  1  0  0  0
 29104  1  0  0  0
 29105  1  0  0  0
 33 34  1  0  0  0
 33 66  1  0  0  0
 33 70  2  0  0  0
 34 36  1  0  0  0
 34 59  1  0  0  0
 34106  1  0  0  0
 35 44  2  0  0  0
 35 45  1  0  0  0
 35 68  1  0  0  0
 36 56  1  0  0  0
 36107  1  0  0  0
 37 39  1  0  0  0
 37 47  1  0  0  0
 37 66  1  0  0  0
 37108  1  0  0  0
 38 43  2  0  0  0
 38 46  1  0  0  0
 38 47  1  0  0  0
 39 64  1  0  0  0
 39 67  2  0  0  0
 40 52  1  0  0  0
 40 53  2  0  0  0
 40 58  1  0  0  0
 41109  1  0  0  0
 41110  1  0  0  0
 41111  1  0  0  0
 41 48  1  0  0  0
 42 43  1  0  0  0
 42 66  1  0  0  0
 42112  1  0  0  0
 42113  1  0  0  0
 43 44  1  0  0  0
 44114  1  0  0  0
 45 46  2  0  0  0
 45115  1  0  0  0
 46116  1  0  0  0
 47117  1  0  0  0
 47118  1  0  0  0
 48 56  1  0  0  0
 48 65  1  0  0  0
 48119  1  0  0  0
 49 50  1  0  0  0
 49 53  1  0  0  0
 49 64  1  0  0  0
 49120  1  0  0  0
 50 51  1  0  0  0
 50121  1  0  0  0
 50122  1  0  0  0
 51 52  1  0  0  0
 51123  1  0  0  0
 51124  1  0  0  0
 52125  1  0  0  0
 52126  1  0  0  0
 53 54  1  0  0  0
 54 55  2  0  0  0
 54127  1  0  0  0
 55 57  1  0  0  0
 55128  1  0  0  0
 56 69  2  0  0  0
 57 58  2  0  0  0
 57129  1  0  0  0
 58130  1  0  0  0
 59 60  1  0  0  0
 59 61  1  0  0  0
 59 62  1  0  0  0
 60131  1  0  0  0
 60132  1  0  0  0
 60133  1  0  0  0
 61134  1  0  0  0
 61135  1  0  0  0
 61136  1  0  0  0
 62137  1  0  0  0
 62138  1  0  0  0
 62139  1  0  0  0
 63 65  1  0  0  0
 63140  1  0  0  0
 63141  1  0  0  0
 63142  1  0  0  0
 64143  1  0  0  0
 65144  1  0  0  0
 68 77  1  0  0  0
 71 73  2  0  0  0
 71 75  1  0  0  0
 71145  1  0  0  0
 72 74  1  0  0  0
 72 75  2  0  0  0
 72 78  1  0  0  0
 73 76  1  0  0  0
 73 81  1  0  0  0
 74 76  2  0  0  0
 74 80  1  0  0  0
 75 84  1  0  0  0
 76 85  1  0  0  0
 77 79  2  0  0  0
 77146  1  0  0  0
 78 79  1  0  0  0
 78 82  2  0  0  0
 79 83  1  0  0  0
 80147  1  0  0  0
 80148  1  0  0  0
 81149  1  0  0  0
 83150  1  0  0  0
M  ISO  4   1 100  68 101  77 101  81 100
M  END
> <chiral flag>
0

> <version>
0

> <s_m_source_file>
/data/baiqing/PycharmProjects/Reinvent-master-3.2/result/LINK_invent/BTK/process_docking_weight1_custom_product_contain_oxygen_bond_distance_aromatic_linkinvent_7_9_3/rearranged_h_0182.sdf

> <i_m_source_file_index>
29

> <r_mmod_Potential_Energy-OPLS-2005>
16607.978515625

> <r_mmod_Stretch_Energy-OPLS-2005>
8786.4794921875

> <r_mmod_Bend_Energy-OPLS-2005>
1158.73266601562

> <r_mmod_Torsional_Energy-OPLS-2005>
427.115631103516

> <r_mmod_Improper_Torsional_Energy-OPLS-2005>
37.3335266113281

> <r_mmod_Van_der_Waal_Energy-OPLS-2005>
2313.1767578125

> <r_mmod_Electrostatic_Energy-OPLS-2005>
-247.2314453125

> <r_mmod_Solvation_Energy-OPLS-2005>
-256.985443115234

> <b_mmod_Minimization_Converged-OPLS-2005>
0

> <r_mmod_RMS_Derivative-OPLS-2005>
0.498702943325043

$$$$
29
                    3D
 Structure written by MMmdl.
151159  0  0  1  0            999 V2000
  -30.5824  -14.6762   20.5086 C   0  0  0  0  0  0
  -30.4521  -12.4206   19.4466 C   0  0  0  0  0  0
  -29.5157  -12.5337   18.2209 C   0  0  0  0  0  0
  -28.0353  -12.3677   18.6259 C   0  0  0  0  0  0
  -27.6589  -13.2168   19.8705 C   0  0  2  0  0  0
  -28.7068  -13.0459   20.9950 C   0  0  0  0  0  0
  -25.2581  -13.8153   20.5688 C   0  0  0  0  0  0
  -24.1834  -13.0426   20.9150 C   0  0  0  0  0  0
  -24.6394  -11.6895   20.8700 C   0  0  0  0  0  0
  -23.9058  -10.4282   21.0370 C   0  0  0  0  0  0
  -24.3610   -9.4203   21.9154 C   0  0  0  0  0  0
  -23.6290   -8.2241   22.0748 C   0  0  0  0  0  0
  -22.4268   -8.0271   21.3543 C   0  0  0  0  0  0
  -21.9899   -9.0237   20.4647 C   0  0  0  0  0  0
  -22.7221  -10.2117   20.3033 C   0  0  0  0  0  0
  -21.6851   -6.0729   22.5268 C   0  0  0  0  0  0
  -21.4030   -6.5639   23.8206 C   0  0  0  0  0  0
  -21.3666   -5.6787   24.9163 C   0  0  0  0  0  0
  -21.6034   -4.3050   24.7207 C   0  0  0  0  0  0
  -21.8821   -3.8137   23.4333 C   0  0  0  0  0  0
  -21.9204   -4.6954   22.3390 C   0  0  0  0  0  0
  -22.7857  -13.5228   21.1797 C   0  0  0  0  0  0
  -22.1657   -4.2140   21.0969 F   0  0  0  0  0  0
  -21.5620   -3.4538   25.7734 F   0  0  0  0  0  0
  -30.0173  -13.4249   20.4406 N   0  0  0  0  0  0
  -26.3011  -12.9344   20.3335 N   0  0  0  0  0  0
  -25.9335  -11.6492   20.5744 N   0  0  0  0  0  0
  -22.0511  -12.8242   22.0377 N   0  0  0  0  0  0
  -25.4300  -15.1887   20.4173 N   0  0  0  0  0  0
  -31.7171  -14.8860   20.0637 O   0  0  0  0  0  0
  -21.6627   -6.8872   21.4235 O   0  0  0  0  0  0
  -22.3555  -14.5538   20.6643 O   0  0  0  0  0  0
  -24.6279  -31.8563   23.1983 C   0  0  0  0  0  0
  -25.9125  -32.4748   23.8303 C   0  0  1  0  0  0
  -27.2336  -27.3035   20.1044 C   0  0  0  0  0  0
  -25.5930  -33.8555   24.2233 N   0  0  0  0  0  0
  -23.4212  -30.4779   21.5403 C   0  0  2  0  0  0
  -24.8675  -28.9250   20.1065 C   0  0  0  0  0  0
  -22.7453  -29.4620   22.4918 C   0  0  0  0  0  0
  -18.0291  -28.1379   22.8493 C   0  0  0  0  0  0
  -24.1481  -36.7283   23.2643 C   0  0  0  0  0  0
  -25.9626  -30.7823   21.3690 C   0  0  0  0  0  0
  -26.0363  -29.4094   20.7054 C   0  0  0  0  0  0
  -27.2160  -28.6078   20.6957 C   0  0  0  0  0  0
  -26.0388  -26.8683   19.4905 C   0  0  0  0  0  0
  -24.8724  -27.6616   19.4902 C   0  0  0  0  0  0
  -23.6327  -29.8043   20.1572 C   0  0  0  0  0  0
  -25.4113  -36.3065   24.0324 C   0  0  1  0  0  0
  -20.5889  -28.3687   23.1278 C   0  0  2  0  0  0
  -20.6769  -26.9412   22.5405 C   0  0  0  0  0  0
  -19.5744  -26.6378   21.5203 C   0  0  0  0  0  0
  -18.1932  -26.7929   22.1624 C   0  0  0  0  0  0
  -19.1545  -28.8850   23.2889 C   0  0  0  0  0  0
  -18.9467  -30.1447   23.8904 C   0  0  0  0  0  0
  -17.6468  -30.6587   24.0561 C   0  0  0  0  0  0
  -25.9051  -34.9436   23.5085 C   0  0  0  0  0  0
  -16.5360  -29.9082   23.6326 C   0  0  0  0  0  0
  -16.7276  -28.6498   23.0359 C   0  0  0  0  0  0
  -26.4500  -31.6588   25.0704 C   0  0  0  0  0  0
  -25.3719  -31.3754   26.1427 C   0  0  0  0  0  0
  -27.0368  -30.3000   24.6218 C   0  0  0  0  0  0
  -27.6040  -32.4348   25.7484 C   0  0  0  0  0  0
  -27.5572  -37.1791   24.8465 C   0  0  0  0  0  0
  -21.4177  -29.3045   22.3661 N   0  0  0  0  0  0
  -26.4279  -37.3768   23.9414 N   0  0  0  0  0  0
  -24.6893  -31.0548   22.0932 N   0  0  0  0  0  0
  -23.4176  -28.8188   23.3030 O   0  0  0  0  0  0
  -28.3713  -26.4804   20.1942 O   0  0  0  0  0  0
  -26.5627  -34.8922   22.4651 O   0  0  0  0  0  0
  -23.5433  -32.1385   23.7293 O   0  0  0  0  0  0
  -29.5799  -17.9282   22.0076 C   0  0  0  0  0  0
  -29.2855  -19.3097   21.6853 C   0  0  0  0  0  0
  -29.7458  -17.0634   20.9392 C   0  0  0  0  0  0
  -29.1687  -19.5679   20.3413 C   0  0  0  0  0  0
  -28.1638  -23.8463   20.2493 C   0  0  0  0  0  0
  -30.0188  -25.1733   19.0197 C   0  0  0  0  0  0
  -28.5504  -25.1893   19.4746 C   0  0  2  0  0  0
  -29.7856  -15.6701   21.0287 N   0  0  0  0  0  0
  -28.9903  -22.6680   20.1502 N   0  0  0  0  0  0
  -27.1152  -23.8140   20.9001 O   0  0  0  0  0  0
  -27.0234  -20.9898   19.6943 O   0  0  0  0  0  0
  -29.0060  -21.0391   18.1180 O   0  0  0  0  0  0
  -29.5720  -18.0574   19.4666 S   0  0  0  0  0  0
  -28.4798  -21.0883   19.4947 S   0  0  0  0  0  0
  -31.4901  -12.5685   19.1436 H   0  0  0  0  0  0
  -30.4068  -11.4174   19.8727 H   0  0  0  0  0  0
  -29.7871  -11.7920   17.4679 H   0  0  0  0  0  0
  -29.6553  -13.5081   17.7513 H   0  0  0  0  0  0
  -27.8639  -11.3110   18.8298 H   0  0  0  0  0  0
  -27.3856  -12.6213   17.7869 H   0  0  0  0  0  0
  -27.6831  -14.2597   19.5546 H   0  0  0  0  0  0
  -28.7330  -12.0084   21.3372 H   0  0  0  0  0  0
  -28.4481  -13.6374   21.8743 H   0  0  0  0  0  0
  -25.2758   -9.5689   22.4717 H   0  0  0  0  0  0
  -24.0003   -7.4648   22.7466 H   0  0  0  0  0  0
  -21.0817   -8.8728   19.8969 H   0  0  0  0  0  0
  -22.3647  -10.9638   19.6142 H   0  0  0  0  0  0
  -21.2029   -7.6148   23.9711 H   0  0  0  0  0  0
  -21.1491   -6.0509   25.9074 H   0  0  0  0  0  0
  -22.0606   -2.7603   23.2810 H   0  0  0  0  0  0
  -22.4165  -11.9919   22.4766 H   0  0  0  0  0  0
  -21.1129  -13.1267   22.2604 H   0  0  0  0  0  0
  -24.6618  -15.8408   20.5332 H   0  0  0  0  0  0
  -26.2847  -15.6347   20.1093 H   0  0  0  0  0  0
  -26.7207  -32.5397   23.1056 H   0  0  0  0  0  0
  -25.0037  -33.9679   25.0351 H   0  0  0  0  0  0
  -22.7189  -31.3016   21.3941 H   0  0  0  0  0  0
  -23.3733  -35.9621   23.3301 H   0  0  0  0  0  0
  -24.3568  -36.8906   22.2059 H   0  0  0  0  0  0
  -23.7236  -37.6485   23.6673 H   0  0  0  0  0  0
  -26.1012  -31.5495   20.6065 H   0  0  0  0  0  0
  -26.8396  -30.8238   22.0040 H   0  0  0  0  0  0
  -28.1145  -28.9784   21.1674 H   0  0  0  0  0  0
  -25.9685  -25.8917   19.0372 H   0  0  0  0  0  0
  -23.9732  -27.2813   19.0243 H   0  0  0  0  0  0
  -23.7443  -30.5777   19.3963 H   0  0  0  0  0  0
  -22.7522  -29.2288   19.8612 H   0  0  0  0  0  0
  -25.1288  -36.1904   25.0817 H   0  0  0  0  0  0
  -20.9998  -28.3267   24.1390 H   0  0  0  0  0  0
  -20.5643  -26.2305   23.3609 H   0  0  0  0  0  0
  -21.6641  -26.7421   22.1218 H   0  0  0  0  0  0
  -19.6903  -25.6280   21.1247 H   0  0  0  0  0  0
  -19.6681  -27.3170   20.6721 H   0  0  0  0  0  0
  -17.4196  -26.6674   21.4034 H   0  0  0  0  0  0
  -18.0350  -26.0065   22.9018 H   0  0  0  0  0  0
  -19.7940  -30.7263   24.2277 H   0  0  0  0  0  0
  -17.5022  -31.6268   24.5155 H   0  0  0  0  0  0
  -15.5359  -30.2987   23.7640 H   0  0  0  0  0  0
  -15.8682  -28.0807   22.7079 H   0  0  0  0  0  0
  -24.5862  -30.7156   25.7735 H   0  0  0  0  0  0
  -24.8962  -32.2938   26.4866 H   0  0  0  0  0  0
  -25.8014  -30.8893   27.0190 H   0  0  0  0  0  0
  -26.2966  -29.6725   24.1246 H   0  0  0  0  0  0
  -27.4035  -29.7304   25.4762 H   0  0  0  0  0  0
  -27.8836  -30.4259   23.9476 H   0  0  0  0  0  0
  -27.2622  -33.3634   26.2065 H   0  0  0  0  0  0
  -28.3845  -32.6935   25.0323 H   0  0  0  0  0  0
  -28.0724  -31.8489   26.5402 H   0  0  0  0  0  0
  -28.2591  -38.0087   24.7510 H   0  0  0  0  0  0
  -28.1068  -36.2617   24.6284 H   0  0  0  0  0  0
  -27.2301  -37.1430   25.8872 H   0  0  0  0  0  0
  -20.9351  -29.8749   21.6852 H   0  0  0  0  0  0
  -26.0156  -38.2840   24.1402 H   0  0  0  0  0  0
  -29.5962  -17.6104   23.0408 H   0  0  0  0  0  0
  -29.0795  -20.0388   22.4581 H   0  0  0  0  0  0
  -30.2273  -24.3329   18.3574 H   0  0  0  0  0  0
  -30.7017  -25.1206   19.8678 H   0  0  0  0  0  0
  -30.2557  -26.0807   18.4634 H   0  0  0  0  0  0
  -27.9555  -25.2015   18.5618 H   0  0  0  0  0  0
  -29.0048  -15.2782   21.5332 H   0  0  0  0  0  0
  -29.9478  -22.8122   19.8362 H   0  0  0  0  0  0
  1 25  1  0  0  0
  1 30  2  0  0  0
  1 78  1  0  0  0
  2  3  1  0  0  0
  2 25  1  0  0  0
  2 85  1  0  0  0
  2 86  1  0  0  0
  3  4  1  0  0  0
  3 87  1  0  0  0
  3 88  1  0  0  0
  4  5  1  0  0  0
  4 89  1  0  0  0
  4 90  1  0  0  0
  5  6  1  0  0  0
  5 26  1  0  0  0
  5 91  1  0  0  0
  6 25  1  0  0  0
  6 92  1  0  0  0
  6 93  1  0  0  0
  7  8  2  0  0  0
  7 26  1  0  0  0
  7 29  1  0  0  0
  8  9  1  0  0  0
  8 22  1  0  0  0
  9 10  1  0  0  0
  9 27  2  0  0  0
 10 11  2  0  0  0
 10 15  1  0  0  0
 11 12  1  0  0  0
 11 94  1  0  0  0
 12 13  2  0  0  0
 12 95  1  0  0  0
 13 14  1  0  0  0
 13 31  1  0  0  0
 14 15  2  0  0  0
 14 96  1  0  0  0
 15 97  1  0  0  0
 16 17  2  0  0  0
 16 21  1  0  0  0
 16 31  1  0  0  0
 17 18  1  0  0  0
 17 98  1  0  0  0
 18 19  2  0  0  0
 18 99  1  0  0  0
 19 20  1  0  0  0
 19 24  1  0  0  0
 20 21  2  0  0  0
 20100  1  0  0  0
 21 23  1  0  0  0
 22 28  1  0  0  0
 22 32  2  0  0  0
 26 27  1  0  0  0
 28101  1  0  0  0
 28102  1  0  0  0
 29103  1  0  0  0
 29104  1  0  0  0
 33 34  1  0  0  0
 33 66  1  0  0  0
 33 70  2  0  0  0
 34 36  1  0  0  0
 34 59  1  0  0  0
 34105  1  0  0  0
 35 44  2  0  0  0
 35 45  1  0  0  0
 35 68  1  0  0  0
 36 56  1  0  0  0
 36106  1  0  0  0
 37 39  1  0  0  0
 37 47  1  0  0  0
 37 66  1  0  0  0
 37107  1  0  0  0
 38 43  2  0  0  0
 38 46  1  0  0  0
 38 47  1  0  0  0
 39 64  1  0  0  0
 39 67  2  0  0  0
 40 52  1  0  0  0
 40 53  2  0  0  0
 40 58  1  0  0  0
 41108  1  0  0  0
 41109  1  0  0  0
 41110  1  0  0  0
 41 48  1  0  0  0
 42 43  1  0  0  0
 42 66  1  0  0  0
 42111  1  0  0  0
 42112  1  0  0  0
 43 44  1  0  0  0
 44113  1  0  0  0
 45 46  2  0  0  0
 45114  1  0  0  0
 46115  1  0  0  0
 47116  1  0  0  0
 47117  1  0  0  0
 48 56  1  0  0  0
 48 65  1  0  0  0
 48118  1  0  0  0
 49 50  1  0  0  0
 49 53  1  0  0  0
 49 64  1  0  0  0
 49119  1  0  0  0
 50 51  1  0  0  0
 50120  1  0  0  0
 50121  1  0  0  0
 51 52  1  0  0  0
 51122  1  0  0  0
 51123  1  0  0  0
 52124  1  0  0  0
 52125  1  0  0  0
 53 54  1  0  0  0
 54 55  2  0  0  0
 54126  1  0  0  0
 55 57  1  0  0  0
 55127  1  0  0  0
 56 69  2  0  0  0
 57 58  2  0  0  0
 57128  1  0  0  0
 58129  1  0  0  0
 59 60  1  0  0  0
 59 61  1  0  0  0
 59 62  1  0  0  0
 60130  1  0  0  0
 60131  1  0  0  0
 60132  1  0  0  0
 61133  1  0  0  0
 61134  1  0  0  0
 61135  1  0  0  0
 62136  1  0  0  0
 62137  1  0  0  0
 62138  1  0  0  0
 63 65  1  0  0  0
 63139  1  0  0  0
 63140  1  0  0  0
 63141  1  0  0  0
 64142  1  0  0  0
 65143  1  0  0  0
 68 77  1  0  0  0
 71 72  1  0  0  0
 71 73  2  0  0  0
 71144  1  0  0  0
 72 74  2  0  0  0
 72145  1  0  0  0
 73 78  1  0  0  0
 73 83  1  0  0  0
 74 83  1  0  0  0
 74 84  1  0  0  0
 75 77  1  0  0  0
 75 79  1  0  0  0
 75 80  2  0  0  0
 76146  1  0  0  0
 76147  1  0  0  0
 76148  1  0  0  0
 76 77  1  0  0  0
 77149  1  0  0  0
 78150  1  0  0  0
 79151  1  0  0  0
 79 84  1  0  0  0
 81 84  2  0  0  0
 82 84  2  0  0  0
M  ISO  4   1 100  68 101  77 101  78 100
M  END
> <chiral flag>
0

> <version>
0

> <s_m_source_file>
/data/baiqing/PycharmProjects/Reinvent-master-3.2/result/LINK_invent/BTK/process_docking_weight1_custom_product_contain_oxygen_bond_distance_aromatic_linkinvent_7_9_3/rearranged_h_0182.sdf

> <i_m_source_file_index>
30

> <r_mmod_Potential_Energy-OPLS-2005>
-108.829551696777

> <r_mmod_Stretch_Energy-OPLS-2005>
88.6136322021484

> <r_mmod_Bend_Energy-OPLS-2005>
181.288696289062

> <r_mmod_Torsional_Energy-OPLS-2005>
267.382568359375

> <r_mmod_Improper_Torsional_Energy-OPLS-2005>
8.48017978668213

> <r_mmod_Van_der_Waal_Energy-OPLS-2005>
108.854019165039

> <r_mmod_Electrostatic_Energy-OPLS-2005>
-549.148620605469

> <r_mmod_Solvation_Energy-OPLS-2005>
-271.911254882812

> <b_mmod_Minimization_Converged-OPLS-2005>
0

> <r_mmod_RMS_Derivative-OPLS-2005>
2.90837717056274

$$$$
30
                    3D
 Structure written by MMmdl.
153161  0  0  1  0            999 V2000
  -30.7185  -14.4832   20.5021 C   0  0  0  0  0  0
  -30.4128  -12.2794   19.4486 C   0  0  0  0  0  0
  -29.4934  -12.4584   18.2235 C   0  0  0  0  0  0
  -28.0214  -12.3185   18.6518 C   0  0  0  0  0  0
  -27.6645  -13.2026   19.8776 C   0  0  2  0  0  0
  -28.7114  -13.0287   21.0038 C   0  0  0  0  0  0
  -25.2677  -13.8192   20.5823 C   0  0  0  0  0  0
  -24.1892  -13.0488   20.9214 C   0  0  0  0  0  0
  -24.6404  -11.6933   20.8759 C   0  0  0  0  0  0
  -23.9033  -10.4333   21.0429 C   0  0  0  0  0  0
  -24.3585   -9.4243   21.9197 C   0  0  0  0  0  0
  -23.6285   -8.2271   22.0756 C   0  0  0  0  0  0
  -22.4267   -8.0302   21.3564 C   0  0  0  0  0  0
  -21.9893   -9.0275   20.4665 C   0  0  0  0  0  0
  -22.7202  -10.2174   20.3091 C   0  0  0  0  0  0
  -21.6861   -6.0744   22.5274 C   0  0  0  0  0  0
  -21.4007   -6.5647   23.8210 C   0  0  0  0  0  0
  -21.3663   -5.6804   24.9174 C   0  0  0  0  0  0
  -21.6047   -4.3078   24.7225 C   0  0  0  0  0  0
  -21.8813   -3.8164   23.4351 C   0  0  0  0  0  0
  -21.9189   -4.6969   22.3398 C   0  0  0  0  0  0
  -22.7921  -13.5298   21.1828 C   0  0  0  0  0  0
  -22.1666   -4.2166   21.0997 F   0  0  0  0  0  0
  -21.5619   -3.4558   25.7733 F   0  0  0  0  0  0
  -30.0332  -13.3069   20.4324 N   0  0  0  0  0  0
  -26.3059  -12.9339   20.3468 N   0  0  0  0  0  0
  -25.9346  -11.6519   20.5876 N   0  0  0  0  0  0
  -22.0534  -12.8319   22.0406 N   0  0  0  0  0  0
  -25.4468  -15.1879   20.4273 N   0  0  0  0  0  0
  -31.8787  -14.5745   20.0983 O   0  0  0  0  0  0
  -21.6647   -6.8889   21.4250 O   0  0  0  0  0  0
  -22.3637  -14.5603   20.6662 O   0  0  0  0  0  0
  -24.6159  -31.8655   23.2145 C   0  0  0  0  0  0
  -25.9026  -32.4826   23.8446 C   0  0  1  0  0  0
  -27.2321  -27.4116   20.0936 C   0  0  0  0  0  0
  -25.5874  -33.8624   24.2384 N   0  0  0  0  0  0
  -23.4044  -30.4912   21.5566 C   0  0  2  0  0  0
  -24.8545  -28.9643   20.1121 C   0  0  0  0  0  0
  -22.7433  -29.4624   22.4986 C   0  0  0  0  0  0
  -18.0248  -28.1322   22.8488 C   0  0  0  0  0  0
  -24.1470  -36.7313   23.2640 C   0  0  0  0  0  0
  -25.9415  -30.8266   21.3731 C   0  0  0  0  0  0
  -26.0202  -29.4658   20.7053 C   0  0  0  0  0  0
  -27.2163  -28.7019   20.6830 C   0  0  0  0  0  0
  -26.0433  -26.9431   19.4803 C   0  0  0  0  0  0
  -24.8641  -27.7051   19.4955 C   0  0  0  0  0  0
  -23.6171  -29.8324   20.1684 C   0  0  0  0  0  0
  -25.4091  -36.3113   24.0348 C   0  0  1  0  0  0
  -20.5859  -28.3601   23.1294 C   0  0  2  0  0  0
  -20.6713  -26.9321   22.5391 C   0  0  0  0  0  0
  -19.5704  -26.6343   21.5167 C   0  0  0  0  0  0
  -18.1892  -26.7863   22.1614 C   0  0  0  0  0  0
  -19.1504  -28.8765   23.2888 C   0  0  0  0  0  0
  -18.9444  -30.1383   23.8889 C   0  0  0  0  0  0
  -17.6445  -30.6532   24.0530 C   0  0  0  0  0  0
  -25.9027  -34.9489   23.5165 C   0  0  0  0  0  0
  -16.5332  -29.9024   23.6318 C   0  0  0  0  0  0
  -16.7242  -28.6430   23.0367 C   0  0  0  0  0  0
  -26.4458  -31.6615   25.0787 C   0  0  0  0  0  0
  -25.3737  -31.3720   26.1553 C   0  0  0  0  0  0
  -27.0289  -30.3046   24.6184 C   0  0  0  0  0  0
  -27.6060  -32.4314   25.7518 C   0  0  0  0  0  0
  -27.5574  -37.1801   24.8471 C   0  0  0  0  0  0
  -21.4145  -29.2999   22.3746 N   0  0  0  0  0  0
  -26.4283  -37.3798   23.9411 N   0  0  0  0  0  0
  -24.6712  -31.0761   22.1067 N   0  0  0  0  0  0
  -23.4206  -28.8114   23.2983 O   0  0  0  0  0  0
  -28.3759  -26.6239   20.1407 O   0  0  0  0  0  0
  -26.5593  -34.8921   22.4738 O   0  0  0  0  0  0
  -23.5353  -32.1390   23.7543 O   0  0  0  0  0  0
  -31.3612  -19.1551   20.1919 C   0  0  0  0  0  0
  -29.4708  -17.9989   21.0198 C   0  0  0  0  0  0
  -30.0964  -19.2673   20.7004 C   0  0  0  0  0  0
  -30.2871  -16.9090   20.7200 C   0  0  0  0  0  0
  -28.9450  -22.8957   20.9911 C   0  0  0  0  0  0
  -29.6396  -21.6978   20.2726 C   0  0  0  0  0  0
  -29.3498  -24.3231   20.5630 C   0  0  0  0  0  0
  -28.1563  -25.1939   20.1013 C   0  0  0  0  0  0
  -28.0563  -17.8948   21.5737 C   0  0  0  0  0  0
  -29.5011  -20.5453   20.9614 N   0  0  0  0  0  0
  -30.0032  -15.5659   20.8836 N   0  0  0  0  0  0
  -28.1264  -22.7096   21.9000 O   0  0  0  0  0  0
  -30.2075  -21.8042   19.1761 O   0  0  0  0  0  0
  -27.8488  -16.7450   22.2147 F   0  0  0  0  0  0
  -27.7826  -18.8888   22.4272 F   0  0  0  0  0  0
  -27.1660  -17.9517   20.5811 F   0  0  0  0  0  0
  -31.8254  -17.4978   20.0608 S   0  0  0  0  0  0
  -31.4621  -12.3242   19.1545 H   0  0  0  0  0  0
  -30.2789  -11.2861   19.8847 H   0  0  0  0  0  0
  -29.7307  -11.7069   17.4702 H   0  0  0  0  0  0
  -29.6567  -13.4330   17.7611 H   0  0  0  0  0  0
  -27.8691  -11.2692   18.9141 H   0  0  0  0  0  0
  -27.3471  -12.5252   17.8193 H   0  0  0  0  0  0
  -27.7014  -14.2383   19.5372 H   0  0  0  0  0  0
  -28.6954  -12.0082   21.3936 H   0  0  0  0  0  0
  -28.4938  -13.6701   21.8573 H   0  0  0  0  0  0
  -25.2725   -9.5741   22.4784 H   0  0  0  0  0  0
  -23.9993   -7.4684   22.7482 H   0  0  0  0  0  0
  -21.0801   -8.8810   19.8980 H   0  0  0  0  0  0
  -22.3647  -10.9723   19.6229 H   0  0  0  0  0  0
  -21.2017   -7.6164   23.9725 H   0  0  0  0  0  0
  -21.1479   -6.0542   25.9080 H   0  0  0  0  0  0
  -22.0586   -2.7633   23.2856 H   0  0  0  0  0  0
  -22.4095  -11.9934   22.4745 H   0  0  0  0  0  0
  -21.1190  -13.1430   22.2648 H   0  0  0  0  0  0
  -24.7079  -15.8576   20.5994 H   0  0  0  0  0  0
  -26.3189  -15.6204   20.1622 H   0  0  0  0  0  0
  -26.7112  -32.5532   23.1237 H   0  0  0  0  0  0
  -24.9973  -33.9817   25.0475 H   0  0  0  0  0  0
  -22.6906  -31.3074   21.4216 H   0  0  0  0  0  0
  -23.3740  -35.9644   23.3322 H   0  0  0  0  0  0
  -24.3562  -36.8905   22.2057 H   0  0  0  0  0  0
  -23.7227  -37.6522   23.6633 H   0  0  0  0  0  0
  -26.0739  -31.6065   20.6185 H   0  0  0  0  0  0
  -26.8221  -30.8657   22.0047 H   0  0  0  0  0  0
  -28.1165  -29.0893   21.1418 H   0  0  0  0  0  0
  -26.0019  -25.9844   18.9863 H   0  0  0  0  0  0
  -23.9720  -27.3169   19.0309 H   0  0  0  0  0  0
  -23.7227  -30.6135   19.4118 H   0  0  0  0  0  0
  -22.7396  -29.2526   19.8723 H   0  0  0  0  0  0
  -25.1269  -36.2001   25.0843 H   0  0  0  0  0  0
  -20.9953  -28.3118   24.1419 H   0  0  0  0  0  0
  -20.5501  -26.2202   23.3577 H   0  0  0  0  0  0
  -21.6587  -26.7271   22.1244 H   0  0  0  0  0  0
  -19.6839  -25.6260   21.1161 H   0  0  0  0  0  0
  -19.6637  -27.3175   20.6715 H   0  0  0  0  0  0
  -17.4141  -26.6594   21.4042 H   0  0  0  0  0  0
  -18.0318  -25.9987   22.9005 H   0  0  0  0  0  0
  -19.7928  -30.7179   24.2282 H   0  0  0  0  0  0
  -17.5007  -31.6237   24.5102 H   0  0  0  0  0  0
  -15.5332  -30.2930   23.7633 H   0  0  0  0  0  0
  -15.8654  -28.0736   22.7131 H   0  0  0  0  0  0
  -24.5883  -30.7098   25.7893 H   0  0  0  0  0  0
  -24.8969  -32.2885   26.5042 H   0  0  0  0  0  0
  -25.8101  -30.8851   27.0290 H   0  0  0  0  0  0
  -26.2861  -29.6820   24.1189 H   0  0  0  0  0  0
  -27.3995  -29.7268   25.4666 H   0  0  0  0  0  0
  -27.8722  -30.4364   23.9398 H   0  0  0  0  0  0
  -27.2707  -33.3597   26.2151 H   0  0  0  0  0  0
  -28.3819  -32.6897   25.0300 H   0  0  0  0  0  0
  -28.0775  -31.8399   26.5380 H   0  0  0  0  0  0
  -28.2610  -38.0079   24.7500 H   0  0  0  0  0  0
  -28.1048  -36.2619   24.6312 H   0  0  0  0  0  0
  -27.2290  -37.1467   25.8872 H   0  0  0  0  0  0
  -20.9272  -29.8841   21.7102 H   0  0  0  0  0  0
  -26.0188  -38.2872   24.1428 H   0  0  0  0  0  0
  -32.0621  -19.9357   19.9059 H   0  0  0  0  0  0
  -30.0935  -24.2691   19.7711 H   0  0  0  0  0  0
  -29.8395  -24.7724   21.4259 H   0  0  0  0  0  0
  -27.2927  -24.9424   20.7190 H   0  0  0  0  0  0
  -27.9158  -24.8967   19.0789 H   0  0  0  0  0  0
  -28.8697  -20.6165   21.7521 H   0  0  0  0  0  0
  -29.0889  -15.3362   21.2396 H   0  0  0  0  0  0
  1 25  1  0  0  0
  1 30  2  0  0  0
  1 81  1  0  0  0
  2  3  1  0  0  0
  2 25  1  0  0  0
  2 88  1  0  0  0
  2 89  1  0  0  0
  3  4  1  0  0  0
  3 90  1  0  0  0
  3 91  1  0  0  0
  4  5  1  0  0  0
  4 92  1  0  0  0
  4 93  1  0  0  0
  5  6  1  0  0  0
  5 26  1  0  0  0
  5 94  1  0  0  0
  6 25  1  0  0  0
  6 95  1  0  0  0
  6 96  1  0  0  0
  7  8  2  0  0  0
  7 26  1  0  0  0
  7 29  1  0  0  0
  8  9  1  0  0  0
  8 22  1  0  0  0
  9 10  1  0  0  0
  9 27  2  0  0  0
 10 11  2  0  0  0
 10 15  1  0  0  0
 11 12  1  0  0  0
 11 97  1  0  0  0
 12 13  2  0  0  0
 12 98  1  0  0  0
 13 14  1  0  0  0
 13 31  1  0  0  0
 14 15  2  0  0  0
 14 99  1  0  0  0
 15100  1  0  0  0
 16 17  2  0  0  0
 16 21  1  0  0  0
 16 31  1  0  0  0
 17 18  1  0  0  0
 17101  1  0  0  0
 18 19  2  0  0  0
 18102  1  0  0  0
 19 20  1  0  0  0
 19 24  1  0  0  0
 20 21  2  0  0  0
 20103  1  0  0  0
 21 23  1  0  0  0
 22 28  1  0  0  0
 22 32  2  0  0  0
 26 27  1  0  0  0
 28104  1  0  0  0
 28105  1  0  0  0
 29106  1  0  0  0
 29107  1  0  0  0
 33 34  1  0  0  0
 33 66  1  0  0  0
 33 70  2  0  0  0
 34 36  1  0  0  0
 34 59  1  0  0  0
 34108  1  0  0  0
 35 44  2  0  0  0
 35 45  1  0  0  0
 35 68  1  0  0  0
 36 56  1  0  0  0
 36109  1  0  0  0
 37 39  1  0  0  0
 37 47  1  0  0  0
 37 66  1  0  0  0
 37110  1  0  0  0
 38 43  2  0  0  0
 38 46  1  0  0  0
 38 47  1  0  0  0
 39 64  1  0  0  0
 39 67  2  0  0  0
 40 52  1  0  0  0
 40 53  2  0  0  0
 40 58  1  0  0  0
 41111  1  0  0  0
 41112  1  0  0  0
 41113  1  0  0  0
 41 48  1  0  0  0
 42 43  1  0  0  0
 42 66  1  0  0  0
 42114  1  0  0  0
 42115  1  0  0  0
 43 44  1  0  0  0
 44116  1  0  0  0
 45 46  2  0  0  0
 45117  1  0  0  0
 46118  1  0  0  0
 47119  1  0  0  0
 47120  1  0  0  0
 48 56  1  0  0  0
 48 65  1  0  0  0
 48121  1  0  0  0
 49 50  1  0  0  0
 49 53  1  0  0  0
 49 64  1  0  0  0
 49122  1  0  0  0
 50 51  1  0  0  0
 50123  1  0  0  0
 50124  1  0  0  0
 51 52  1  0  0  0
 51125  1  0  0  0
 51126  1  0  0  0
 52127  1  0  0  0
 52128  1  0  0  0
 53 54  1  0  0  0
 54 55  2  0  0  0
 54129  1  0  0  0
 55 57  1  0  0  0
 55130  1  0  0  0
 56 69  2  0  0  0
 57 58  2  0  0  0
 57131  1  0  0  0
 58132  1  0  0  0
 59 60  1  0  0  0
 59 61  1  0  0  0
 59 62  1  0  0  0
 60133  1  0  0  0
 60134  1  0  0  0
 60135  1  0  0  0
 61136  1  0  0  0
 61137  1  0  0  0
 61138  1  0  0  0
 62139  1  0  0  0
 62140  1  0  0  0
 62141  1  0  0  0
 63 65  1  0  0  0
 63142  1  0  0  0
 63143  1  0  0  0
 63144  1  0  0  0
 64145  1  0  0  0
 65146  1  0  0  0
 68 78  1  0  0  0
 71 73  2  0  0  0
 71 87  1  0  0  0
 71147  1  0  0  0
 72 73  1  0  0  0
 72 74  2  0  0  0
 72 79  1  0  0  0
 73 80  1  0  0  0
 74 81  1  0  0  0
 74 87  1  0  0  0
 75 76  1  0  0  0
 75 77  1  0  0  0
 75 82  2  0  0  0
 76 80  1  0  0  0
 76 83  2  0  0  0
 77 78  1  0  0  0
 77148  1  0  0  0
 77149  1  0  0  0
 78150  1  0  0  0
 78151  1  0  0  0
 79 84  1  0  0  0
 79 85  1  0  0  0
 79 86  1  0  0  0
 80152  1  0  0  0
 81153  1  0  0  0
M  ISO  4   1 100  68 101  78 101  81 100
M  END
> <chiral flag>
0

> <version>
0

> <s_m_source_file>
/data/baiqing/PycharmProjects/Reinvent-master-3.2/result/LINK_invent/BTK/process_docking_weight1_custom_product_contain_oxygen_bond_distance_aromatic_linkinvent_7_9_3/rearranged_h_0182.sdf

> <i_m_source_file_index>
31

> <r_mmod_Potential_Energy-OPLS-2005>
54.634521484375

> <r_mmod_Stretch_Energy-OPLS-2005>
46.1216430664062

> <r_mmod_Bend_Energy-OPLS-2005>
110.526145935059

> <r_mmod_Torsional_Energy-OPLS-2005>
225.27912902832

> <r_mmod_Improper_Torsional_Energy-OPLS-2005>
4.09579563140869

> <r_mmod_Van_der_Waal_Energy-OPLS-2005>
147.823440551758

> <r_mmod_Electrostatic_Energy-OPLS-2005>
-273.203582763672

> <r_mmod_Solvation_Energy-OPLS-2005>
-227.513702392578

> <b_mmod_Minimization_Converged-OPLS-2005>
0

> <r_mmod_RMS_Derivative-OPLS-2005>
8.96187114715576

$$$$
31
                    3D
 Structure written by MMmdl.
149157  0  0  1  0            999 V2000
  -30.5567  -14.7760   20.4565 C   0  0  0  0  0  0
  -30.4472  -12.4757   19.4708 C   0  0  0  0  0  0
  -29.5172  -12.5183   18.2354 C   0  0  0  0  0  0
  -28.0416  -12.3349   18.6453 C   0  0  0  0  0  0
  -27.6441  -13.2264   19.8515 C   0  0  2  0  0  0
  -28.6879  -13.1394   20.9870 C   0  0  0  0  0  0
  -25.2525  -13.8182   20.5687 C   0  0  0  0  0  0
  -24.1811  -13.0438   20.9197 C   0  0  0  0  0  0
  -24.6385  -11.6906   20.8720 C   0  0  0  0  0  0
  -23.9056  -10.4293   21.0392 C   0  0  0  0  0  0
  -24.3610   -9.4211   21.9168 C   0  0  0  0  0  0
  -23.6287   -8.2243   22.0743 C   0  0  0  0  0  0
  -22.4267   -8.0279   21.3536 C   0  0  0  0  0  0
  -21.9900   -9.0251   20.4637 C   0  0  0  0  0  0
  -22.7227  -10.2131   20.3046 C   0  0  0  0  0  0
  -21.6852   -6.0729   22.5272 C   0  0  0  0  0  0
  -21.4016   -6.5636   23.8206 C   0  0  0  0  0  0
  -21.3663   -5.6790   24.9166 C   0  0  0  0  0  0
  -21.6046   -4.3054   24.7220 C   0  0  0  0  0  0
  -21.8822   -3.8143   23.4344 C   0  0  0  0  0  0
  -21.9197   -4.6958   22.3397 C   0  0  0  0  0  0
  -22.7832  -13.5226   21.1860 C   0  0  0  0  0  0
  -22.1664   -4.2148   21.0974 F   0  0  0  0  0  0
  -21.5629   -3.4536   25.7733 F   0  0  0  0  0  0
  -29.9895  -13.5188   20.4175 N   0  0  0  0  0  0
  -26.2938  -12.9370   20.3248 N   0  0  0  0  0  0
  -25.9314  -11.6521   20.5705 N   0  0  0  0  0  0
  -22.0477  -12.8221   22.0426 N   0  0  0  0  0  0
  -25.4261  -15.1905   20.4134 N   0  0  0  0  0  0
  -31.7271  -14.9367   20.0937 O   0  0  0  0  0  0
  -21.6636   -6.8871   21.4232 O   0  0  0  0  0  0
  -22.3510  -14.5525   20.6702 O   0  0  0  0  0  0
  -24.6326  -31.8519   23.1950 C   0  0  0  0  0  0
  -25.9142  -32.4730   23.8310 C   0  0  1  0  0  0
  -27.2275  -27.2441   20.1256 C   0  0  0  0  0  0
  -25.5926  -33.8536   24.2230 N   0  0  0  0  0  0
  -23.4305  -30.4719   21.5389 C   0  0  2  0  0  0
  -24.8777  -28.9130   20.1071 C   0  0  0  0  0  0
  -22.7506  -29.4583   22.4906 C   0  0  0  0  0  0
  -18.0291  -28.1401   22.8478 C   0  0  0  0  0  0
  -24.1491  -36.7282   23.2640 C   0  0  0  0  0  0
  -25.9758  -30.7590   21.3768 C   0  0  0  0  0  0
  -26.0471  -29.3792   20.7185 C   0  0  0  0  0  0
  -27.2187  -28.5558   20.7176 C   0  0  0  0  0  0
  -26.0293  -26.8415   19.4945 C   0  0  0  0  0  0
  -24.8753  -27.6539   19.4853 C   0  0  0  0  0  0
  -23.6489  -29.8020   20.1556 C   0  0  0  0  0  0
  -25.4116  -36.3056   24.0319 C   0  0  1  0  0  0
  -20.5895  -28.3711   23.1268 C   0  0  2  0  0  0
  -20.6781  -26.9426   22.5416 C   0  0  0  0  0  0
  -19.5760  -26.6392   21.5215 C   0  0  0  0  0  0
  -18.1937  -26.7942   22.1622 C   0  0  0  0  0  0
  -19.1544  -28.8873   23.2867 C   0  0  0  0  0  0
  -18.9466  -30.1472   23.8887 C   0  0  0  0  0  0
  -17.6464  -30.6596   24.0566 C   0  0  0  0  0  0
  -25.9056  -34.9425   23.5080 C   0  0  0  0  0  0
  -16.5355  -29.9095   23.6333 C   0  0  0  0  0  0
  -16.7276  -28.6517   23.0347 C   0  0  0  0  0  0
  -26.4500  -31.6575   25.0715 C   0  0  0  0  0  0
  -25.3714  -31.3736   26.1431 C   0  0  0  0  0  0
  -27.0356  -30.2989   24.6231 C   0  0  0  0  0  0
  -27.6042  -32.4330   25.7492 C   0  0  0  0  0  0
  -27.5579  -37.1792   24.8460 C   0  0  0  0  0  0
  -21.4213  -29.3042   22.3648 N   0  0  0  0  0  0
  -26.4288  -37.3760   23.9405 N   0  0  0  0  0  0
  -24.6987  -31.0470   22.0930 N   0  0  0  0  0  0
  -23.4190  -28.8135   23.3030 O   0  0  0  0  0  0
  -28.3491  -26.3815   20.2168 O   0  0  0  0  0  0
  -26.5639  -34.8910   22.4658 O   0  0  0  0  0  0
  -23.5472  -32.1357   23.7233 O   0  0  0  0  0  0
  -30.5701  -18.0698   19.8257 C   0  0  0  0  0  0
  -29.7509  -17.2374   20.5783 C   0  0  0  0  0  0
  -29.1982  -19.8344   20.5828 C   0  0  0  0  0  0
  -28.6071  -21.2432   21.0110 C   0  0  0  0  0  0
  -28.3696  -23.7327   20.6381 C   0  0  0  0  0  0
  -29.8315  -24.9874   18.9318 C   0  0  0  0  0  0
  -28.4623  -24.9879   19.6297 C   0  0  2  0  0  0
  -30.2608  -19.4741   19.8303 N   0  0  0  0  0  0
  -29.7154  -15.8376   20.7691 N   0  0  0  0  0  0
  -28.7802  -22.4318   20.3001 N   0  0  0  0  0  0
  -27.9348  -21.2222   22.0495 O   0  0  0  0  0  0
  -27.8968  -23.9957   21.7501 O   0  0  0  0  0  0
  -28.5431  -18.3217   21.3321 S   0  0  0  0  0  0
  -31.4832  -12.6309   19.1647 H   0  0  0  0  0  0
  -30.4194  -11.4935   19.9447 H   0  0  0  0  0  0
  -29.8043  -11.7475   17.5187 H   0  0  0  0  0  0
  -29.6350  -13.4723   17.7184 H   0  0  0  0  0  0
  -27.8983  -11.2841   18.9002 H   0  0  0  0  0  0
  -27.3860  -12.5325   17.7966 H   0  0  0  0  0  0
  -27.6428  -14.2512   19.4791 H   0  0  0  0  0  0
  -28.7302  -12.1292   21.3964 H   0  0  0  0  0  0
  -28.4114  -13.7894   21.8189 H   0  0  0  0  0  0
  -25.2762   -9.5691   22.4728 H   0  0  0  0  0  0
  -24.0012   -7.4630   22.7452 H   0  0  0  0  0  0
  -21.0835   -8.8759   19.8931 H   0  0  0  0  0  0
  -22.3686  -10.9661   19.6147 H   0  0  0  0  0  0
  -21.2010   -7.6140   23.9709 H   0  0  0  0  0  0
  -21.1479   -6.0512   25.9067 H   0  0  0  0  0  0
  -22.0601   -2.7603   23.2835 H   0  0  0  0  0  0
  -22.4112  -11.9909   22.4848 H   0  0  0  0  0  0
  -21.1072  -13.1205   22.2584 H   0  0  0  0  0  0
  -24.6616  -15.8468   20.5315 H   0  0  0  0  0  0
  -26.2721  -15.6285   20.0719 H   0  0  0  0  0  0
  -26.7203  -32.5375   23.1048 H   0  0  0  0  0  0
  -25.0049  -33.9668   25.0357 H   0  0  0  0  0  0
  -22.7288  -31.2951   21.3901 H   0  0  0  0  0  0
  -23.3745  -35.9623   23.3296 H   0  0  0  0  0  0
  -24.3584  -36.8919   22.2057 H   0  0  0  0  0  0
  -23.7256  -37.6482   23.6678 H   0  0  0  0  0  0
  -26.1173  -31.5187   20.6071 H   0  0  0  0  0  0
  -26.8517  -30.8080   22.0123 H   0  0  0  0  0  0
  -28.1135  -28.9058   21.2129 H   0  0  0  0  0  0
  -25.9391  -25.8735   19.0290 H   0  0  0  0  0  0
  -23.9772  -27.2899   19.0051 H   0  0  0  0  0  0
  -23.7720  -30.5765   19.3978 H   0  0  0  0  0  0
  -22.7679  -29.2350   19.8505 H   0  0  0  0  0  0
  -25.1302  -36.1893   25.0811 H   0  0  0  0  0  0
  -20.9979  -28.3296   24.1391 H   0  0  0  0  0  0
  -20.5690  -26.2315   23.3621 H   0  0  0  0  0  0
  -21.6649  -26.7459   22.1207 H   0  0  0  0  0  0
  -19.6922  -25.6299   21.1258 H   0  0  0  0  0  0
  -19.6703  -27.3190   20.6735 H   0  0  0  0  0  0
  -17.4208  -26.6682   21.4026 H   0  0  0  0  0  0
  -18.0339  -26.0094   22.9029 H   0  0  0  0  0  0
  -19.7943  -30.7295   24.2250 H   0  0  0  0  0  0
  -17.5020  -31.6272   24.5178 H   0  0  0  0  0  0
  -15.5357  -30.2994   23.7670 H   0  0  0  0  0  0
  -15.8677  -28.0838   22.7060 H   0  0  0  0  0  0
  -24.5896  -30.7075   25.7766 H   0  0  0  0  0  0
  -24.8895  -32.2906   26.4834 H   0  0  0  0  0  0
  -25.8025  -30.8935   27.0226 H   0  0  0  0  0  0
  -26.2949  -29.6725   24.1244 H   0  0  0  0  0  0
  -27.4008  -29.7269   25.4773 H   0  0  0  0  0  0
  -27.8840  -30.4255   23.9501 H   0  0  0  0  0  0
  -27.2636  -33.3638   26.2047 H   0  0  0  0  0  0
  -28.3862  -32.6882   25.0325 H   0  0  0  0  0  0
  -28.0701  -31.8474   26.5431 H   0  0  0  0  0  0
  -28.2578  -38.0104   24.7513 H   0  0  0  0  0  0
  -28.1090  -36.2634   24.6271 H   0  0  0  0  0  0
  -27.2300  -37.1422   25.8863 H   0  0  0  0  0  0
  -20.9406  -29.8741   21.6828 H   0  0  0  0  0  0
  -26.0159  -38.2829   24.1414 H   0  0  0  0  0  0
  -31.4105  -17.7487   19.2252 H   0  0  0  0  0  0
  -29.9166  -25.8307   18.2466 H   0  0  0  0  0  0
  -29.9907  -24.0824   18.3453 H   0  0  0  0  0  0
  -30.6431  -25.0677   19.6566 H   0  0  0  0  0  0
  -27.7189  -24.8280   18.8518 H   0  0  0  0  0  0
  -28.8398  -15.5088   21.1473 H   0  0  0  0  0  0
  -29.2458  -22.3176   19.4144 H   0  0  0  0  0  0
  1 25  1  0  0  0
  1 30  2  0  0  0
  1 79  1  0  0  0
  2  3  1  0  0  0
  2 25  1  0  0  0
  2 84  1  0  0  0
  2 85  1  0  0  0
  3  4  1  0  0  0
  3 86  1  0  0  0
  3 87  1  0  0  0
  4  5  1  0  0  0
  4 88  1  0  0  0
  4 89  1  0  0  0
  5  6  1  0  0  0
  5 26  1  0  0  0
  5 90  1  0  0  0
  6 25  1  0  0  0
  6 91  1  0  0  0
  6 92  1  0  0  0
  7  8  2  0  0  0
  7 26  1  0  0  0
  7 29  1  0  0  0
  8  9  1  0  0  0
  8 22  1  0  0  0
  9 10  1  0  0  0
  9 27  2  0  0  0
 10 11  2  0  0  0
 10 15  1  0  0  0
 11 12  1  0  0  0
 11 93  1  0  0  0
 12 13  2  0  0  0
 12 94  1  0  0  0
 13 14  1  0  0  0
 13 31  1  0  0  0
 14 15  2  0  0  0
 14 95  1  0  0  0
 15 96  1  0  0  0
 16 17  2  0  0  0
 16 21  1  0  0  0
 16 31  1  0  0  0
 17 18  1  0  0  0
 17 97  1  0  0  0
 18 19  2  0  0  0
 18 98  1  0  0  0
 19 20  1  0  0  0
 19 24  1  0  0  0
 20 21  2  0  0  0
 20 99  1  0  0  0
 21 23  1  0  0  0
 22 28  1  0  0  0
 22 32  2  0  0  0
 26 27  1  0  0  0
 28100  1  0  0  0
 28101  1  0  0  0
 29102  1  0  0  0
 29103  1  0  0  0
 33 34  1  0  0  0
 33 66  1  0  0  0
 33 70  2  0  0  0
 34 36  1  0  0  0
 34 59  1  0  0  0
 34104  1  0  0  0
 35 44  2  0  0  0
 35 45  1  0  0  0
 35 68  1  0  0  0
 36 56  1  0  0  0
 36105  1  0  0  0
 37 39  1  0  0  0
 37 47  1  0  0  0
 37 66  1  0  0  0
 37106  1  0  0  0
 38 43  2  0  0  0
 38 46  1  0  0  0
 38 47  1  0  0  0
 39 64  1  0  0  0
 39 67  2  0  0  0
 40 52  1  0  0  0
 40 53  2  0  0  0
 40 58  1  0  0  0
 41107  1  0  0  0
 41108  1  0  0  0
 41109  1  0  0  0
 41 48  1  0  0  0
 42 43  1  0  0  0
 42 66  1  0  0  0
 42110  1  0  0  0
 42111  1  0  0  0
 43 44  1  0  0  0
 44112  1  0  0  0
 45 46  2  0  0  0
 45113  1  0  0  0
 46114  1  0  0  0
 47115  1  0  0  0
 47116  1  0  0  0
 48 56  1  0  0  0
 48 65  1  0  0  0
 48117  1  0  0  0
 49 50  1  0  0  0
 49 53  1  0  0  0
 49 64  1  0  0  0
 49118  1  0  0  0
 50 51  1  0  0  0
 50119  1  0  0  0
 50120  1  0  0  0
 51 52  1  0  0  0
 51121  1  0  0  0
 51122  1  0  0  0
 52123  1  0  0  0
 52124  1  0  0  0
 53 54  1  0  0  0
 54 55  2  0  0  0
 54125  1  0  0  0
 55 57  1  0  0  0
 55126  1  0  0  0
 56 69  2  0  0  0
 57 58  2  0  0  0
 57127  1  0  0  0
 58128  1  0  0  0
 59 60  1  0  0  0
 59 61  1  0  0  0
 59 62  1  0  0  0
 60129  1  0  0  0
 60130  1  0  0  0
 60131  1  0  0  0
 61132  1  0  0  0
 61133  1  0  0  0
 61134  1  0  0  0
 62135  1  0  0  0
 62136  1  0  0  0
 62137  1  0  0  0
 63 65  1  0  0  0
 63138  1  0  0  0
 63139  1  0  0  0
 63140  1  0  0  0
 64141  1  0  0  0
 65142  1  0  0  0
 68 77  1  0  0  0
 71 72  2  0  0  0
 71 78  1  0  0  0
 71143  1  0  0  0
 72 79  1  0  0  0
 72 83  1  0  0  0
 73 74  1  0  0  0
 73 78  2  0  0  0
 73 83  1  0  0  0
 74 80  1  0  0  0
 74 81  2  0  0  0
 75 77  1  0  0  0
 75 80  1  0  0  0
 75 82  2  0  0  0
 76144  1  0  0  0
 76145  1  0  0  0
 76146  1  0  0  0
 76 77  1  0  0  0
 77147  1  0  0  0
 79148  1  0  0  0
 80149  1  0  0  0
M  ISO  4   1 100  68 101  77 101  79 100
M  END
> <chiral flag>
0

> <version>
0

> <s_m_source_file>
/data/baiqing/PycharmProjects/Reinvent-master-3.2/result/LINK_invent/BTK/process_docking_weight1_custom_product_contain_oxygen_bond_distance_aromatic_linkinvent_7_9_3/rearranged_h_0182.sdf

> <i_m_source_file_index>
32

> <r_mmod_Potential_Energy-OPLS-2005>
26.7991733551025

> <r_mmod_Stretch_Energy-OPLS-2005>
128.912017822266

> <r_mmod_Bend_Energy-OPLS-2005>
196.486587524414

> <r_mmod_Torsional_Energy-OPLS-2005>
234.530410766602

> <r_mmod_Improper_Torsional_Energy-OPLS-2005>
4.17393207550049

> <r_mmod_Van_der_Waal_Energy-OPLS-2005>
120.008117675781

> <r_mmod_Electrostatic_Energy-OPLS-2005>
-469.989044189453

> <r_mmod_Solvation_Energy-OPLS-2005>
-283.524261474609

> <b_mmod_Minimization_Converged-OPLS-2005>
0

> <r_mmod_RMS_Derivative-OPLS-2005>
1.3684903383255

$$$$
32
                    3D
 Structure written by MMmdl.
155163  0  0  1  0            999 V2000
  -30.6277  -14.6502   20.5325 C   0  0  0  0  0  0
  -30.4459  -12.4064   19.4483 C   0  0  0  0  0  0
  -29.5079  -12.5071   18.2238 C   0  0  0  0  0  0
  -28.0326  -12.3402   18.6370 C   0  0  0  0  0  0
  -27.6551  -13.2100   19.8646 C   0  0  2  0  0  0
  -28.7018  -13.0560   20.9933 C   0  0  0  0  0  0
  -25.2581  -13.8146   20.5686 C   0  0  0  0  0  0
  -24.1842  -13.0426   20.9200 C   0  0  0  0  0  0
  -24.6400  -11.6892   20.8751 C   0  0  0  0  0  0
  -23.9060  -10.4282   21.0424 C   0  0  0  0  0  0
  -24.3617   -9.4193   21.9190 C   0  0  0  0  0  0
  -23.6294   -8.2227   22.0757 C   0  0  0  0  0  0
  -22.4279   -8.0273   21.3541 C   0  0  0  0  0  0
  -21.9910   -9.0244   20.4644 C   0  0  0  0  0  0
  -22.7240  -10.2125   20.3063 C   0  0  0  0  0  0
  -21.6846   -6.0740   22.5282 C   0  0  0  0  0  0
  -21.4009   -6.5645   23.8217 C   0  0  0  0  0  0
  -21.3656   -5.6790   24.9177 C   0  0  0  0  0  0
  -21.6052   -4.3053   24.7227 C   0  0  0  0  0  0
  -21.8823   -3.8147   23.4348 C   0  0  0  0  0  0
  -21.9196   -4.6966   22.3406 C   0  0  0  0  0  0
  -22.7871  -13.5237   21.1848 C   0  0  0  0  0  0
  -22.1664   -4.2158   21.0983 F   0  0  0  0  0  0
  -21.5628   -3.4533   25.7733 F   0  0  0  0  0  0
  -30.0202  -13.4174   20.4410 N   0  0  0  0  0  0
  -26.2997  -12.9314   20.3309 N   0  0  0  0  0  0
  -25.9331  -11.6474   20.5760 N   0  0  0  0  0  0
  -22.0496  -12.8229   22.0388 N   0  0  0  0  0  0
  -25.4288  -15.1868   20.4098 N   0  0  0  0  0  0
  -31.7691  -14.8245   20.0764 O   0  0  0  0  0  0
  -21.6638   -6.8880   21.4244 O   0  0  0  0  0  0
  -22.3568  -14.5551   20.6695 O   0  0  0  0  0  0
  -24.6263  -31.8607   23.2033 C   0  0  0  0  0  0
  -25.9112  -32.4781   23.8365 C   0  0  1  0  0  0
  -27.2252  -27.3119   20.1127 C   0  0  0  0  0  0
  -25.5938  -33.8588   24.2295 N   0  0  0  0  0  0
  -23.4205  -30.4843   21.5464 C   0  0  2  0  0  0
  -24.8670  -28.9426   20.1091 C   0  0  0  0  0  0
  -22.7480  -29.4622   22.4934 C   0  0  0  0  0  0
  -18.0289  -28.1388   22.8490 C   0  0  0  0  0  0
  -24.1492  -36.7286   23.2632 C   0  0  0  0  0  0
  -25.9621  -30.7876   21.3774 C   0  0  0  0  0  0
  -26.0344  -29.4138   20.7212 C   0  0  0  0  0  0
  -27.2124  -28.6083   20.7195 C   0  0  0  0  0  0
  -26.0339  -26.9067   19.4618 C   0  0  0  0  0  0
  -24.8689  -27.6942   19.4724 C   0  0  0  0  0  0
  -23.6348  -29.8228   20.1603 C   0  0  0  0  0  0
  -25.4114  -36.3088   24.0336 C   0  0  1  0  0  0
  -20.5889  -28.3702   23.1274 C   0  0  2  0  0  0
  -20.6780  -26.9422   22.5411 C   0  0  0  0  0  0
  -19.5749  -26.6392   21.5216 C   0  0  0  0  0  0
  -18.1929  -26.7931   22.1624 C   0  0  0  0  0  0
  -19.1543  -28.8863   23.2873 C   0  0  0  0  0  0
  -18.9460  -30.1464   23.8885 C   0  0  0  0  0  0
  -17.6461  -30.6590   24.0562 C   0  0  0  0  0  0
  -25.9061  -34.9461   23.5117 C   0  0  0  0  0  0
  -16.5357  -29.9084   23.6330 C   0  0  0  0  0  0
  -16.7276  -28.6498   23.0360 C   0  0  0  0  0  0
  -26.4501  -31.6577   25.0722 C   0  0  0  0  0  0
  -25.3741  -31.3710   26.1448 C   0  0  0  0  0  0
  -27.0339  -30.3000   24.6168 C   0  0  0  0  0  0
  -27.6062  -32.4304   25.7496 C   0  0  0  0  0  0
  -27.5595  -37.1777   24.8451 C   0  0  0  0  0  0
  -21.4198  -29.3053   22.3673 N   0  0  0  0  0  0
  -26.4278  -37.3793   23.9438 N   0  0  0  0  0  0
  -24.6884  -31.0619   22.0985 N   0  0  0  0  0  0
  -23.4201  -28.8162   23.3011 O   0  0  0  0  0  0
  -28.3454  -26.4617   20.1914 O   0  0  0  0  0  0
  -26.5632  -34.8926   22.4686 O   0  0  0  0  0  0
  -23.5426  -32.1411   23.7351 O   0  0  0  0  0  0
  -29.0238  -17.8862   21.8187 C   0  0  0  0  0  0
  -30.4826  -19.2616   19.9261 C   0  0  0  0  0  0
  -28.9350  -19.3080   21.7618 C   0  0  0  0  0  0
  -29.6605  -20.0432   20.7886 C   0  0  0  0  0  0
  -29.8583  -17.1330   20.9421 C   0  0  0  0  0  0
  -29.0869  -23.9639   20.4794 C   0  0  0  0  0  0
  -28.8630  -22.3914   20.1492 C   0  0  0  0  0  0
  -28.7100  -25.1261   18.2137 C   0  0  0  0  0  0
  -28.2624  -25.0638   19.6846 C   0  0  2  0  0  0
  -30.5530  -17.8889   20.0306 N   0  3  0  0  0  0
  -28.1544  -19.9947   22.6971 N   0  0  0  0  0  0
  -29.6753  -21.5075   20.8040 N   0  0  0  0  0  0
  -29.8576  -15.6628   21.0495 N   0  0  0  0  0  0
  -29.8938  -24.3076   21.3524 O   0  0  0  0  0  0
  -28.0066  -22.0138   19.3430 O   0  0  0  0  0  0
  -31.4826  -12.5432   19.1359 H   0  0  0  0  0  0
  -30.3992  -11.4067   19.8851 H   0  0  0  0  0  0
  -29.7717  -11.7517   17.4820 H   0  0  0  0  0  0
  -29.6424  -13.4720   17.7316 H   0  0  0  0  0  0
  -27.8710  -11.2864   18.8670 H   0  0  0  0  0  0
  -27.3774  -12.5705   17.7963 H   0  0  0  0  0  0
  -27.6727  -14.2449   19.5245 H   0  0  0  0  0  0
  -28.7187  -12.0257   21.3512 H   0  0  0  0  0  0
  -28.4311  -13.6571   21.8623 H   0  0  0  0  0  0
  -25.2770   -9.5666   22.4753 H   0  0  0  0  0  0
  -24.0008   -7.4618   22.7478 H   0  0  0  0  0  0
  -21.0842   -8.8773   19.8943 H   0  0  0  0  0  0
  -22.3710  -10.9672   19.6173 H   0  0  0  0  0  0
  -21.1992   -7.6151   23.9725 H   0  0  0  0  0  0
  -21.1476   -6.0518   25.9084 H   0  0  0  0  0  0
  -22.0607   -2.7611   23.2845 H   0  0  0  0  0  0
  -22.4110  -11.9904   22.4785 H   0  0  0  0  0  0
  -21.1106  -13.1261   22.2559 H   0  0  0  0  0  0
  -24.6468  -15.8261   20.5045 H   0  0  0  0  0  0
  -26.2433  -15.6242   20.0012 H   0  0  0  0  0  0
  -26.7175  -32.5444   23.1107 H   0  0  0  0  0  0
  -25.0085  -33.9750   25.0440 H   0  0  0  0  0  0
  -22.7134  -31.3046   21.4050 H   0  0  0  0  0  0
  -23.3779  -35.9582   23.3241 H   0  0  0  0  0  0
  -24.3593  -36.8965   22.2054 H   0  0  0  0  0  0
  -23.7200  -37.6457   23.6684 H   0  0  0  0  0  0
  -26.0975  -31.5479   20.6062 H   0  0  0  0  0  0
  -26.8421  -30.8371   22.0075 H   0  0  0  0  0  0
  -28.1048  -28.9643   21.2151 H   0  0  0  0  0  0
  -25.9569  -25.9700   18.9340 H   0  0  0  0  0  0
  -23.9776  -27.3331   18.9786 H   0  0  0  0  0  0
  -23.7523  -30.6005   19.4050 H   0  0  0  0  0  0
  -22.7550  -29.2519   19.8571 H   0  0  0  0  0  0
  -25.1274  -36.1942   25.0823 H   0  0  0  0  0  0
  -20.9980  -28.3287   24.1393 H   0  0  0  0  0  0
  -20.5696  -26.2312   23.3616 H   0  0  0  0  0  0
  -21.6645  -26.7455   22.1201 H   0  0  0  0  0  0
  -19.6917  -25.6307   21.1234 H   0  0  0  0  0  0
  -19.6682  -27.3209   20.6751 H   0  0  0  0  0  0
  -17.4206  -26.6698   21.4019 H   0  0  0  0  0  0
  -18.0313  -26.0074   22.9014 H   0  0  0  0  0  0
  -19.7939  -30.7285   24.2249 H   0  0  0  0  0  0
  -17.5015  -31.6267   24.5168 H   0  0  0  0  0  0
  -15.5355  -30.2983   23.7653 H   0  0  0  0  0  0
  -15.8679  -28.0809   22.7084 H   0  0  0  0  0  0
  -24.5925  -30.7045   25.7781 H   0  0  0  0  0  0
  -24.8913  -32.2867   26.4865 H   0  0  0  0  0  0
  -25.8070  -30.8898   27.0228 H   0  0  0  0  0  0
  -26.2906  -29.6749   24.1194 H   0  0  0  0  0  0
  -27.4046  -29.7250   25.4668 H   0  0  0  0  0  0
  -27.8780  -30.4285   23.9386 H   0  0  0  0  0  0
  -27.2679  -33.3608   26.2070 H   0  0  0  0  0  0
  -28.3874  -32.6855   25.0323 H   0  0  0  0  0  0
  -28.0722  -31.8424   26.5415 H   0  0  0  0  0  0
  -28.2541  -38.0147   24.7618 H   0  0  0  0  0  0
  -28.1170  -36.2687   24.6123 H   0  0  0  0  0  0
  -27.2335  -37.1241   25.8854 H   0  0  0  0  0  0
  -20.9383  -29.8771   21.6874 H   0  0  0  0  0  0
  -26.0160  -38.2850   24.1514 H   0  0  0  0  0  0
  -28.4515  -17.3642   22.5708 H   0  0  0  0  0  0
  -31.1130  -19.7086   19.1675 H   0  0  0  0  0  0
  -28.1132  -25.8393   17.6463 H   0  0  0  0  0  0
  -28.6123  -24.1587   17.7213 H   0  0  0  0  0  0
  -29.7519  -25.4396   18.1383 H   0  0  0  0  0  0
  -27.2395  -24.6980   19.7455 H   0  0  0  0  0  0
  -31.1771  -17.4021   19.3758 H   0  0  0  0  0  0
  -27.3884  -19.4878   23.1225 H   0  0  0  0  0  0
  -27.8955  -20.9376   22.4401 H   0  0  0  0  0  0
  -30.2951  -21.9370   21.4779 H   0  0  0  0  0  0
  -29.0550  -15.2878   21.5231 H   0  0  0  0  0  0
  1 25  1  0  0  0
  1 30  2  0  0  0
  1 83  1  0  0  0
  2  3  1  0  0  0
  2 25  1  0  0  0
  2 86  1  0  0  0
  2 87  1  0  0  0
  3  4  1  0  0  0
  3 88  1  0  0  0
  3 89  1  0  0  0
  4  5  1  0  0  0
  4 90  1  0  0  0
  4 91  1  0  0  0
  5  6  1  0  0  0
  5 26  1  0  0  0
  5 92  1  0  0  0
  6 25  1  0  0  0
  6 93  1  0  0  0
  6 94  1  0  0  0
  7  8  2  0  0  0
  7 26  1  0  0  0
  7 29  1  0  0  0
  8  9  1  0  0  0
  8 22  1  0  0  0
  9 10  1  0  0  0
  9 27  2  0  0  0
 10 11  2  0  0  0
 10 15  1  0  0  0
 11 12  1  0  0  0
 11 95  1  0  0  0
 12 13  2  0  0  0
 12 96  1  0  0  0
 13 14  1  0  0  0
 13 31  1  0  0  0
 14 15  2  0  0  0
 14 97  1  0  0  0
 15 98  1  0  0  0
 16 17  2  0  0  0
 16 21  1  0  0  0
 16 31  1  0  0  0
 17 18  1  0  0  0
 17 99  1  0  0  0
 18 19  2  0  0  0
 18100  1  0  0  0
 19 20  1  0  0  0
 19 24  1  0  0  0
 20 21  2  0  0  0
 20101  1  0  0  0
 21 23  1  0  0  0
 22 28  1  0  0  0
 22 32  2  0  0  0
 26 27  1  0  0  0
 28102  1  0  0  0
 28103  1  0  0  0
 29104  1  0  0  0
 29105  1  0  0  0
 33 34  1  0  0  0
 33 66  1  0  0  0
 33 70  2  0  0  0
 34 36  1  0  0  0
 34 59  1  0  0  0
 34106  1  0  0  0
 35 44  2  0  0  0
 35 45  1  0  0  0
 35 68  1  0  0  0
 36 56  1  0  0  0
 36107  1  0  0  0
 37 39  1  0  0  0
 37 47  1  0  0  0
 37 66  1  0  0  0
 37108  1  0  0  0
 38 43  2  0  0  0
 38 46  1  0  0  0
 38 47  1  0  0  0
 39 64  1  0  0  0
 39 67  2  0  0  0
 40 52  1  0  0  0
 40 53  2  0  0  0
 40 58  1  0  0  0
 41109  1  0  0  0
 41110  1  0  0  0
 41111  1  0  0  0
 41 48  1  0  0  0
 42 43  1  0  0  0
 42 66  1  0  0  0
 42112  1  0  0  0
 42113  1  0  0  0
 43 44  1  0  0  0
 44114  1  0  0  0
 45 46  2  0  0  0
 45115  1  0  0  0
 46116  1  0  0  0
 47117  1  0  0  0
 47118  1  0  0  0
 48 56  1  0  0  0
 48 65  1  0  0  0
 48119  1  0  0  0
 49 50  1  0  0  0
 49 53  1  0  0  0
 49 64  1  0  0  0
 49120  1  0  0  0
 50 51  1  0  0  0
 50121  1  0  0  0
 50122  1  0  0  0
 51 52  1  0  0  0
 51123  1  0  0  0
 51124  1  0  0  0
 52125  1  0  0  0
 52126  1  0  0  0
 53 54  1  0  0  0
 54 55  2  0  0  0
 54127  1  0  0  0
 55 57  1  0  0  0
 55128  1  0  0  0
 56 69  2  0  0  0
 57 58  2  0  0  0
 57129  1  0  0  0
 58130  1  0  0  0
 59 60  1  0  0  0
 59 61  1  0  0  0
 59 62  1  0  0  0
 60131  1  0  0  0
 60132  1  0  0  0
 60133  1  0  0  0
 61134  1  0  0  0
 61135  1  0  0  0
 61136  1  0  0  0
 62137  1  0  0  0
 62138  1  0  0  0
 62139  1  0  0  0
 63 65  1  0  0  0
 63140  1  0  0  0
 63141  1  0  0  0
 63142  1  0  0  0
 64143  1  0  0  0
 65144  1  0  0  0
 68 79  1  0  0  0
 71 73  2  0  0  0
 71 75  1  0  0  0
 71145  1  0  0  0
 72 74  2  0  0  0
 72 80  1  0  0  0
 72146  1  0  0  0
 73 74  1  0  0  0
 73 81  1  0  0  0
 74 82  1  0  0  0
 75 80  2  0  0  0
 75 83  1  0  0  0
 76 77  1  0  0  0
 76 79  1  0  0  0
 76 84  2  0  0  0
 77 82  1  0  0  0
 77 85  2  0  0  0
 78147  1  0  0  0
 78148  1  0  0  0
 78149  1  0  0  0
 78 79  1  0  0  0
 79150  1  0  0  0
 80151  1  0  0  0
 81152  1  0  0  0
 81153  1  0  0  0
 82154  1  0  0  0
 83155  1  0  0  0
M  CHG  1  80   1
M  ISO  4   1 100  68 101  79 101  83 100
M  END
> <chiral flag>
0

> <version>
0

> <s_m_source_file>
/data/baiqing/PycharmProjects/Reinvent-master-3.2/result/LINK_invent/BTK/process_docking_weight1_custom_product_contain_oxygen_bond_distance_aromatic_linkinvent_7_9_3/rearranged_h_0182.sdf

> <i_m_source_file_index>
33

> <r_mmod_Potential_Energy-OPLS-2005>
31.1843433380127

> <r_mmod_Stretch_Energy-OPLS-2005>
92.2460556030273

> <r_mmod_Bend_Energy-OPLS-2005>
147.999313354492

> <r_mmod_Torsional_Energy-OPLS-2005>
246.401184082031

> <r_mmod_Improper_Torsional_Energy-OPLS-2005>
8.27084159851074

> <r_mmod_Van_der_Waal_Energy-OPLS-2005>
143.683166503906

> <r_mmod_Electrostatic_Energy-OPLS-2005>
-182.881698608398

> <r_mmod_Solvation_Energy-OPLS-2005>
-475.249206542969

> <b_mmod_Minimization_Converged-OPLS-2005>
0

> <r_mmod_RMS_Derivative-OPLS-2005>
1.74815654754639

$$$$
33
                    3D
 Structure written by MMmdl.
151159  0  0  1  0            999 V2000
  -30.6060  -14.7753   20.4806 C   0  0  0  0  0  0
  -30.4413  -12.4783   19.4955 C   0  0  0  0  0  0
  -29.5241  -12.5273   18.2521 C   0  0  0  0  0  0
  -28.0447  -12.3573   18.6496 C   0  0  0  0  0  0
  -27.6494  -13.2409   19.8621 C   0  0  2  0  0  0
  -28.6906  -13.1658   21.0026 C   0  0  0  0  0  0
  -25.2534  -13.8232   20.5705 C   0  0  0  0  0  0
  -24.1820  -13.0460   20.9209 C   0  0  0  0  0  0
  -24.6422  -11.6940   20.8737 C   0  0  0  0  0  0
  -23.9100  -10.4317   21.0414 C   0  0  0  0  0  0
  -24.3651   -9.4228   21.9187 C   0  0  0  0  0  0
  -23.6327   -8.2254   22.0758 C   0  0  0  0  0  0
  -22.4299   -8.0304   21.3550 C   0  0  0  0  0  0
  -21.9939   -9.0280   20.4645 C   0  0  0  0  0  0
  -22.7275  -10.2156   20.3061 C   0  0  0  0  0  0
  -21.6859   -6.0750   22.5285 C   0  0  0  0  0  0
  -21.4016   -6.5651   23.8221 C   0  0  0  0  0  0
  -21.3657   -5.6799   24.9180 C   0  0  0  0  0  0
  -21.6047   -4.3061   24.7226 C   0  0  0  0  0  0
  -21.8825   -3.8159   23.4349 C   0  0  0  0  0  0
  -21.9203   -4.6978   22.3406 C   0  0  0  0  0  0
  -22.7837  -13.5235   21.1859 C   0  0  0  0  0  0
  -22.1671   -4.2170   21.0975 F   0  0  0  0  0  0
  -21.5630   -3.4537   25.7734 F   0  0  0  0  0  0
  -29.9979  -13.5344   20.4398 N   0  0  0  0  0  0
  -26.2981  -12.9444   20.3315 N   0  0  0  0  0  0
  -25.9359  -11.6577   20.5743 N   0  0  0  0  0  0
  -22.0471  -12.8209   22.0398 N   0  0  0  0  0  0
  -25.4270  -15.1953   20.4166 N   0  0  0  0  0  0
  -31.7564  -14.8939   20.0458 O   0  0  0  0  0  0
  -21.6658   -6.8897   21.4245 O   0  0  0  0  0  0
  -22.3509  -14.5541   20.6724 O   0  0  0  0  0  0
  -24.6350  -31.8530   23.2006 C   0  0  0  0  0  0
  -25.9175  -32.4721   23.8349 C   0  0  1  0  0  0
  -27.1955  -27.1905   20.1414 C   0  0  0  0  0  0
  -25.5967  -33.8529   24.2259 N   0  0  0  0  0  0
  -23.4334  -30.4776   21.5470 C   0  0  2  0  0  0
  -24.8809  -28.9285   20.1118 C   0  0  0  0  0  0
  -22.7525  -29.4583   22.4936 C   0  0  0  0  0  0
  -18.0292  -28.1376   22.8476 C   0  0  0  0  0  0
  -24.1505  -36.7250   23.2640 C   0  0  0  0  0  0
  -25.9893  -30.7343   21.4048 C   0  0  0  0  0  0
  -26.0539  -29.3535   20.7496 C   0  0  0  0  0  0
  -27.2106  -28.4946   20.7656 C   0  0  0  0  0  0
  -26.0308  -26.9149   19.3928 C   0  0  0  0  0  0
  -24.8807  -27.7172   19.4166 C   0  0  0  0  0  0
  -23.6539  -29.8196   20.1621 C   0  0  0  0  0  0
  -25.4124  -36.3043   24.0333 C   0  0  1  0  0  0
  -20.5895  -28.3695   23.1261 C   0  0  2  0  0  0
  -20.6767  -26.9415   22.5401 C   0  0  0  0  0  0
  -19.5746  -26.6378   21.5195 C   0  0  0  0  0  0
  -18.1930  -26.7916   22.1615 C   0  0  0  0  0  0
  -19.1548  -28.8851   23.2853 C   0  0  0  0  0  0
  -18.9466  -30.1450   23.8871 C   0  0  0  0  0  0
  -17.6462  -30.6580   24.0538 C   0  0  0  0  0  0
  -25.9073  -34.9414   23.5095 C   0  0  0  0  0  0
  -16.5351  -29.9070   23.6331 C   0  0  0  0  0  0
  -16.7275  -28.6487   23.0357 C   0  0  0  0  0  0
  -26.4499  -31.6543   25.0758 C   0  0  0  0  0  0
  -25.3695  -31.3737   26.1478 C   0  0  0  0  0  0
  -27.0361  -30.2943   24.6327 C   0  0  0  0  0  0
  -27.6050  -32.4295   25.7514 C   0  0  0  0  0  0
  -27.5580  -37.1784   24.8465 C   0  0  0  0  0  0
  -21.4228  -29.3036   22.3665 N   0  0  0  0  0  0
  -26.4284  -37.3750   23.9421 N   0  0  0  0  0  0
  -24.7050  -31.0437   22.1032 N   0  0  0  0  0  0
  -23.4216  -28.8130   23.3048 O   0  0  0  0  0  0
  -28.2339  -26.2033   20.1991 O   0  0  0  0  0  0
  -26.5649  -34.8888   22.4669 O   0  0  0  0  0  0
  -23.5490  -32.1401   23.7254 O   0  0  0  0  0  0
  -29.6197  -19.6989   20.4102 C   0  0  0  0  0  0
  -29.4779  -19.3768   19.0648 C   0  0  0  0  0  0
  -29.8590  -17.2787   20.4248 C   0  0  0  0  0  0
  -29.7584  -21.1835   20.9830 C   0  0  0  0  0  0
  -29.1255  -23.6510   20.7290 C   0  0  0  0  0  0
  -26.8179  -24.0182   19.6448 C   0  0  0  0  0  0
  -27.9138  -24.7130   20.4936 C   0  0  2  0  0  0
  -29.8086  -18.4520   21.1539 N   0  0  0  0  0  0
  -29.2945  -20.2112   17.9640 N   0  0  0  0  0  0
  -29.8993  -15.8816   20.9415 N   0  0  0  0  0  0
  -29.0020  -22.2638   20.5098 N   0  0  0  0  0  0
  -30.5692  -21.3534   21.9021 O   0  0  0  0  0  0
  -30.1792  -24.1333   21.1580 O   0  0  0  0  0  0
  -29.6278  -17.6451   18.7218 S   0  0  0  0  0  0
  -31.4818  -12.6067   19.1933 H   0  0  0  0  0  0
  -30.3945  -11.5011   19.9768 H   0  0  0  0  0  0
  -29.8139  -11.7523   17.5420 H   0  0  0  0  0  0
  -29.6577  -13.4803   17.7366 H   0  0  0  0  0  0
  -27.8846  -11.3049   18.8865 H   0  0  0  0  0  0
  -27.4006  -12.5806   17.7990 H   0  0  0  0  0  0
  -27.6456  -14.2685   19.4975 H   0  0  0  0  0  0
  -28.7277  -12.1619   21.4282 H   0  0  0  0  0  0
  -28.4113  -13.8328   21.8186 H   0  0  0  0  0  0
  -25.2804   -9.5686   22.4755 H   0  0  0  0  0  0
  -24.0045   -7.4638   22.7466 H   0  0  0  0  0  0
  -21.0882   -8.8818   19.8933 H   0  0  0  0  0  0
  -22.3773  -10.9704   19.6165 H   0  0  0  0  0  0
  -21.1999   -7.6159   23.9732 H   0  0  0  0  0  0
  -21.1468   -6.0519   25.9083 H   0  0  0  0  0  0
  -22.0601   -2.7626   23.2846 H   0  0  0  0  0  0
  -22.4107  -11.9893   22.4802 H   0  0  0  0  0  0
  -21.1075  -13.1206   22.2575 H   0  0  0  0  0  0
  -24.6673  -15.8560   20.5409 H   0  0  0  0  0  0
  -26.2803  -15.6352   20.0951 H   0  0  0  0  0  0
  -26.7238  -32.5342   23.1072 H   0  0  0  0  0  0
  -25.0071  -33.9666   25.0384 H   0  0  0  0  0  0
  -22.7292  -31.3002   21.4042 H   0  0  0  0  0  0
  -23.3769  -35.9573   23.3280 H   0  0  0  0  0  0
  -24.3582  -36.8898   22.2050 H   0  0  0  0  0  0
  -23.7253  -37.6448   23.6673 H   0  0  0  0  0  0
  -26.1519  -31.4886   20.6340 H   0  0  0  0  0  0
  -26.8561  -30.7718   22.0512 H   0  0  0  0  0  0
  -28.0941  -28.8086   21.3015 H   0  0  0  0  0  0
  -25.9728  -26.0720   18.7309 H   0  0  0  0  0  0
  -24.0074  -27.4123   18.8554 H   0  0  0  0  0  0
  -23.7765  -30.5992   19.4102 H   0  0  0  0  0  0
  -22.7713  -29.2540   19.8551 H   0  0  0  0  0  0
  -25.1298  -36.1864   25.0818 H   0  0  0  0  0  0
  -20.9949  -28.3266   24.1397 H   0  0  0  0  0  0
  -20.5638  -26.2308   23.3610 H   0  0  0  0  0  0
  -21.6642  -26.7427   22.1207 H   0  0  0  0  0  0
  -19.6908  -25.6288   21.1234 H   0  0  0  0  0  0
  -19.6671  -27.3177   20.6715 H   0  0  0  0  0  0
  -17.4188  -26.6650   21.4030 H   0  0  0  0  0  0
  -18.0342  -26.0059   22.9011 H   0  0  0  0  0  0
  -19.7941  -30.7265   24.2244 H   0  0  0  0  0  0
  -17.5015  -31.6262   24.5134 H   0  0  0  0  0  0
  -15.5350  -30.2947   23.7679 H   0  0  0  0  0  0
  -15.8676  -28.0780   22.7099 H   0  0  0  0  0  0
  -24.5844  -30.7108   25.7819 H   0  0  0  0  0  0
  -24.8900  -32.2919   26.4885 H   0  0  0  0  0  0
  -25.7967  -30.8919   27.0285 H   0  0  0  0  0  0
  -26.2987  -29.6680   24.1298 H   0  0  0  0  0  0
  -27.3938  -29.7215   25.4892 H   0  0  0  0  0  0
  -27.8911  -30.4174   23.9679 H   0  0  0  0  0  0
  -27.2644  -33.3590   26.2087 H   0  0  0  0  0  0
  -28.3847  -32.6876   25.0334 H   0  0  0  0  0  0
  -28.0740  -31.8432   26.5430 H   0  0  0  0  0  0
  -28.2590  -38.0093   24.7522 H   0  0  0  0  0  0
  -28.1092  -36.2622   24.6269 H   0  0  0  0  0  0
  -27.2303  -37.1404   25.8873 H   0  0  0  0  0  0
  -20.9434  -29.8753   21.6853 H   0  0  0  0  0  0
  -26.0155  -38.2827   24.1404 H   0  0  0  0  0  0
  -25.8246  -24.3771   19.9122 H   0  0  0  0  0  0
  -26.7262  -22.9502   19.8290 H   0  0  0  0  0  0
  -26.9898  -24.1482   18.5764 H   0  0  0  0  0  0
  -27.4854  -24.7706   21.4958 H   0  0  0  0  0  0
  -29.5435  -21.1958   17.9660 H   0  0  0  0  0  0
  -29.3808  -19.8157   17.0321 H   0  0  0  0  0  0
  -29.0991  -15.6345   21.5020 H   0  0  0  0  0  0
  -28.2206  -21.9795   19.9411 H   0  0  0  0  0  0
  1 25  1  0  0  0
  1 30  2  0  0  0
  1 80  1  0  0  0
  2  3  1  0  0  0
  2 25  1  0  0  0
  2 85  1  0  0  0
  2 86  1  0  0  0
  3  4  1  0  0  0
  3 87  1  0  0  0
  3 88  1  0  0  0
  4  5  1  0  0  0
  4 89  1  0  0  0
  4 90  1  0  0  0
  5  6  1  0  0  0
  5 26  1  0  0  0
  5 91  1  0  0  0
  6 25  1  0  0  0
  6 92  1  0  0  0
  6 93  1  0  0  0
  7  8  2  0  0  0
  7 26  1  0  0  0
  7 29  1  0  0  0
  8  9  1  0  0  0
  8 22  1  0  0  0
  9 10  1  0  0  0
  9 27  2  0  0  0
 10 11  2  0  0  0
 10 15  1  0  0  0
 11 12  1  0  0  0
 11 94  1  0  0  0
 12 13  2  0  0  0
 12 95  1  0  0  0
 13 14  1  0  0  0
 13 31  1  0  0  0
 14 15  2  0  0  0
 14 96  1  0  0  0
 15 97  1  0  0  0
 16 17  2  0  0  0
 16 21  1  0  0  0
 16 31  1  0  0  0
 17 18  1  0  0  0
 17 98  1  0  0  0
 18 19  2  0  0  0
 18 99  1  0  0  0
 19 20  1  0  0  0
 19 24  1  0  0  0
 20 21  2  0  0  0
 20100  1  0  0  0
 21 23  1  0  0  0
 22 28  1  0  0  0
 22 32  2  0  0  0
 26 27  1  0  0  0
 28101  1  0  0  0
 28102  1  0  0  0
 29103  1  0  0  0
 29104  1  0  0  0
 33 34  1  0  0  0
 33 66  1  0  0  0
 33 70  2  0  0  0
 34 36  1  0  0  0
 34 59  1  0  0  0
 34105  1  0  0  0
 35 44  2  0  0  0
 35 45  1  0  0  0
 35 68  1  0  0  0
 36 56  1  0  0  0
 36106  1  0  0  0
 37 39  1  0  0  0
 37 47  1  0  0  0
 37 66  1  0  0  0
 37107  1  0  0  0
 38 43  2  0  0  0
 38 46  1  0  0  0
 38 47  1  0  0  0
 39 64  1  0  0  0
 39 67  2  0  0  0
 40 52  1  0  0  0
 40 53  2  0  0  0
 40 58  1  0  0  0
 41108  1  0  0  0
 41109  1  0  0  0
 41110  1  0  0  0
 41 48  1  0  0  0
 42 43  1  0  0  0
 42 66  1  0  0  0
 42111  1  0  0  0
 42112  1  0  0  0
 43 44  1  0  0  0
 44113  1  0  0  0
 45 46  2  0  0  0
 45114  1  0  0  0
 46115  1  0  0  0
 47116  1  0  0  0
 47117  1  0  0  0
 48 56  1  0  0  0
 48 65  1  0  0  0
 48118  1  0  0  0
 49 50  1  0  0  0
 49 53  1  0  0  0
 49 64  1  0  0  0
 49119  1  0  0  0
 50 51  1  0  0  0
 50120  1  0  0  0
 50121  1  0  0  0
 51 52  1  0  0  0
 51122  1  0  0  0
 51123  1  0  0  0
 52124  1  0  0  0
 52125  1  0  0  0
 53 54  1  0  0  0
 54 55  2  0  0  0
 54126  1  0  0  0
 55 57  1  0  0  0
 55127  1  0  0  0
 56 69  2  0  0  0
 57 58  2  0  0  0
 57128  1  0  0  0
 58129  1  0  0  0
 59 60  1  0  0  0
 59 61  1  0  0  0
 59 62  1  0  0  0
 60130  1  0  0  0
 60131  1  0  0  0
 60132  1  0  0  0
 61133  1  0  0  0
 61134  1  0  0  0
 61135  1  0  0  0
 62136  1  0  0  0
 62137  1  0  0  0
 62138  1  0  0  0
 63 65  1  0  0  0
 63139  1  0  0  0
 63140  1  0  0  0
 63141  1  0  0  0
 64142  1  0  0  0
 65143  1  0  0  0
 68 77  1  0  0  0
 71 72  2  0  0  0
 71 74  1  0  0  0
 71 78  1  0  0  0
 72 79  1  0  0  0
 72 84  1  0  0  0
 73 78  2  0  0  0
 73 80  1  0  0  0
 73 84  1  0  0  0
 74 81  1  0  0  0
 74 82  2  0  0  0
 75 77  1  0  0  0
 75 81  1  0  0  0
 75 83  2  0  0  0
 76144  1  0  0  0
 76145  1  0  0  0
 76146  1  0  0  0
 76 77  1  0  0  0
 77147  1  0  0  0
 79148  1  0  0  0
 79149  1  0  0  0
 80150  1  0  0  0
 81151  1  0  0  0
M  ISO  4   1 100  68 101  77 101  80 100
M  END
> <chiral flag>
0

> <version>
0

> <s_m_source_file>
/data/baiqing/PycharmProjects/Reinvent-master-3.2/result/LINK_invent/BTK/process_docking_weight1_custom_product_contain_oxygen_bond_distance_aromatic_linkinvent_7_9_3/rearranged_h_0182.sdf

> <i_m_source_file_index>
34

> <r_mmod_Potential_Energy-OPLS-2005>
236.541046142578

> <r_mmod_Stretch_Energy-OPLS-2005>
166.480682373047

> <r_mmod_Bend_Energy-OPLS-2005>
200.916915893555

> <r_mmod_Torsional_Energy-OPLS-2005>
279.357177734375

> <r_mmod_Improper_Torsional_Energy-OPLS-2005>
7.25567960739136

> <r_mmod_Van_der_Waal_Energy-OPLS-2005>
131.920837402344

> <r_mmod_Electrostatic_Energy-OPLS-2005>
-366.843078613281

> <r_mmod_Solvation_Energy-OPLS-2005>
-302.647644042969

> <b_mmod_Minimization_Converged-OPLS-2005>
0

> <r_mmod_RMS_Derivative-OPLS-2005>
2.88612604141235

$$$$
34
                    3D
 Structure written by MMmdl.
152160  0  0  1  0            999 V2000
  -30.6089  -14.7484   20.4534 C   0  0  0  0  0  0
  -30.4418  -12.4589   19.4586 C   0  0  0  0  0  0
  -29.5112  -12.5003   18.2264 C   0  0  0  0  0  0
  -28.0383  -12.3216   18.6464 C   0  0  0  0  0  0
  -27.6418  -13.2264   19.8435 C   0  0  2  0  0  0
  -28.6919  -13.1687   20.9748 C   0  0  0  0  0  0
  -25.2514  -13.8178   20.5670 C   0  0  0  0  0  0
  -24.1808  -13.0430   20.9201 C   0  0  0  0  0  0
  -24.6390  -11.6911   20.8739 C   0  0  0  0  0  0
  -23.9059  -10.4293   21.0394 C   0  0  0  0  0  0
  -24.3609   -9.4213   21.9177 C   0  0  0  0  0  0
  -23.6293   -8.2238   22.0746 C   0  0  0  0  0  0
  -22.4274   -8.0270   21.3536 C   0  0  0  0  0  0
  -21.9899   -9.0245   20.4641 C   0  0  0  0  0  0
  -22.7221  -10.2132   20.3055 C   0  0  0  0  0  0
  -21.6855   -6.0725   22.5277 C   0  0  0  0  0  0
  -21.4020   -6.5631   23.8211 C   0  0  0  0  0  0
  -21.3659   -5.6782   24.9171 C   0  0  0  0  0  0
  -21.6049   -4.3049   24.7222 C   0  0  0  0  0  0
  -21.8818   -3.8136   23.4346 C   0  0  0  0  0  0
  -21.9195   -4.6950   22.3401 C   0  0  0  0  0  0
  -22.7831  -13.5214   21.1867 C   0  0  0  0  0  0
  -22.1661   -4.2134   21.0979 F   0  0  0  0  0  0
  -21.5627   -3.4537   25.7738 F   0  0  0  0  0  0
  -29.9889  -13.5210   20.3819 N   0  0  0  0  0  0
  -26.2941  -12.9376   20.3252 N   0  0  0  0  0  0
  -25.9321  -11.6530   20.5729 N   0  0  0  0  0  0
  -22.0470  -12.8222   22.0434 N   0  0  0  0  0  0
  -25.4174  -15.1900   20.4073 N   0  0  0  0  0  0
  -31.8168  -14.8423   20.2158 O   0  0  0  0  0  0
  -21.6640   -6.8867   21.4237 O   0  0  0  0  0  0
  -22.3522  -14.5517   20.6701 O   0  0  0  0  0  0
  -24.6334  -31.8551   23.2002 C   0  0  0  0  0  0
  -25.9155  -32.4750   23.8344 C   0  0  1  0  0  0
  -27.2224  -27.2571   20.1168 C   0  0  0  0  0  0
  -25.5944  -33.8556   24.2260 N   0  0  0  0  0  0
  -23.4298  -30.4800   21.5454 C   0  0  2  0  0  0
  -24.8742  -28.9287   20.1129 C   0  0  0  0  0  0
  -22.7520  -29.4604   22.4931 C   0  0  0  0  0  0
  -18.0285  -28.1394   22.8488 C   0  0  0  0  0  0
  -24.1494  -36.7283   23.2643 C   0  0  0  0  0  0
  -25.9779  -30.7665   21.3812 C   0  0  0  0  0  0
  -26.0494  -29.3906   20.7181 C   0  0  0  0  0  0
  -27.2245  -28.5695   20.7060 C   0  0  0  0  0  0
  -26.0091  -26.8607   19.5059 C   0  0  0  0  0  0
  -24.8593  -27.6707   19.4973 C   0  0  0  0  0  0
  -23.6482  -29.8190   20.1602 C   0  0  0  0  0  0
  -25.4117  -36.3068   24.0331 C   0  0  1  0  0  0
  -20.5893  -28.3709   23.1279 C   0  0  2  0  0  0
  -20.6787  -26.9430   22.5414 C   0  0  0  0  0  0
  -19.5751  -26.6391   21.5230 C   0  0  0  0  0  0
  -18.1931  -26.7932   22.1634 C   0  0  0  0  0  0
  -19.1540  -28.8869   23.2873 C   0  0  0  0  0  0
  -18.9457  -30.1471   23.8887 C   0  0  0  0  0  0
  -17.6456  -30.6595   24.0566 C   0  0  0  0  0  0
  -25.9065  -34.9438   23.5097 C   0  0  0  0  0  0
  -16.5347  -29.9093   23.6327 C   0  0  0  0  0  0
  -16.7274  -28.6511   23.0350 C   0  0  0  0  0  0
  -26.4512  -31.6574   25.0733 C   0  0  0  0  0  0
  -25.3728  -31.3723   26.1450 C   0  0  0  0  0  0
  -27.0366  -30.2988   24.6237 C   0  0  0  0  0  0
  -27.6068  -32.4319   25.7493 C   0  0  0  0  0  0
  -27.5577  -37.1796   24.8459 C   0  0  0  0  0  0
  -21.4225  -29.3050   22.3677 N   0  0  0  0  0  0
  -26.4284  -37.3774   23.9410 N   0  0  0  0  0  0
  -24.7001  -31.0515   22.0987 N   0  0  0  0  0  0
  -23.4218  -28.8150   23.3042 O   0  0  0  0  0  0
  -28.3330  -26.3702   20.1655 O   0  0  0  0  0  0
  -26.5645  -34.8922   22.4673 O   0  0  0  0  0  0
  -23.5478  -32.1383   23.7296 O   0  0  0  0  0  0
  -29.7600  -19.6897   20.4826 C   0  0  0  0  0  0
  -30.8201  -19.6146   21.3790 C   0  0  0  0  0  0
  -30.0905  -17.3072   20.6513 C   0  0  0  0  0  0
  -29.2102  -20.9883   19.8704 C   0  0  0  0  0  0
  -28.7777  -22.2895   20.7545 C   0  0  0  0  0  0
  -28.2402  -24.7582   18.3108 C   0  0  0  0  0  0
  -29.2147  -23.8049   20.4498 C   0  0  0  0  0  0
  -28.1817  -24.8990   19.8462 C   0  0  1  0  0  0
  -29.3676  -18.3390   20.1067 N   0  0  0  0  0  0
  -31.5600  -20.6315   21.9873 N   0  0  0  0  0  0
  -29.7930  -15.8691   20.4786 N   0  0  0  0  0  0
  -28.9949  -21.0840   18.6540 O   0  0  0  0  0  0
  -28.0383  -22.1028   21.7291 O   0  0  0  0  0  0
  -31.3392  -17.9526   21.7095 S   0  0  0  0  0  0
  -31.4804  -12.5961   19.1506 H   0  0  0  0  0  0
  -30.3978  -11.4839   19.9466 H   0  0  0  0  0  0
  -29.7927  -11.7233   17.5146 H   0  0  0  0  0  0
  -29.6316  -13.4510   17.7044 H   0  0  0  0  0  0
  -27.9004  -11.2746   18.9172 H   0  0  0  0  0  0
  -27.3771  -12.5031   17.7982 H   0  0  0  0  0  0
  -27.6306  -14.2439   19.4543 H   0  0  0  0  0  0
  -28.7327  -12.1739   21.4207 H   0  0  0  0  0  0
  -28.4315  -13.8587   21.7796 H   0  0  0  0  0  0
  -25.2756   -9.5693   22.4749 H   0  0  0  0  0  0
  -24.0003   -7.4633   22.7472 H   0  0  0  0  0  0
  -21.0819   -8.8757   19.8966 H   0  0  0  0  0  0
  -22.3660  -10.9663   19.6164 H   0  0  0  0  0  0
  -21.2017   -7.6142   23.9711 H   0  0  0  0  0  0
  -21.1481   -6.0514   25.9075 H   0  0  0  0  0  0
  -22.0601   -2.7598   23.2848 H   0  0  0  0  0  0
  -22.4075  -11.9892   22.4854 H   0  0  0  0  0  0
  -21.1087  -13.1255   22.2624 H   0  0  0  0  0  0
  -24.6418  -15.8343   20.5154 H   0  0  0  0  0  0
  -26.2478  -15.6371   20.0421 H   0  0  0  0  0  0
  -26.7225  -32.5397   23.1086 H   0  0  0  0  0  0
  -25.0056  -33.9685   25.0382 H   0  0  0  0  0  0
  -22.7262  -31.3033   21.4018 H   0  0  0  0  0  0
  -23.3760  -35.9610   23.3295 H   0  0  0  0  0  0
  -24.3587  -36.8919   22.2058 H   0  0  0  0  0  0
  -23.7250  -37.6483   23.6678 H   0  0  0  0  0  0
  -26.1201  -31.5322   20.6177 H   0  0  0  0  0  0
  -26.8542  -30.8099   22.0163 H   0  0  0  0  0  0
  -28.1251  -28.9218   21.1887 H   0  0  0  0  0  0
  -25.8987  -25.8956   19.0392 H   0  0  0  0  0  0
  -23.9572  -27.3063   19.0258 H   0  0  0  0  0  0
  -23.7824  -30.5988   19.4099 H   0  0  0  0  0  0
  -22.7645  -29.2602   19.8467 H   0  0  0  0  0  0
  -25.1303  -36.1908   25.0824 H   0  0  0  0  0  0
  -20.9961  -28.3288   24.1411 H   0  0  0  0  0  0
  -20.5716  -26.2322   23.3624 H   0  0  0  0  0  0
  -21.6655  -26.7486   22.1190 H   0  0  0  0  0  0
  -19.6926  -25.6304   21.1259 H   0  0  0  0  0  0
  -19.6677  -27.3206   20.6765 H   0  0  0  0  0  0
  -17.4209  -26.6686   21.4029 H   0  0  0  0  0  0
  -18.0316  -26.0071   22.9023 H   0  0  0  0  0  0
  -19.7935  -30.7293   24.2251 H   0  0  0  0  0  0
  -17.5012  -31.6266   24.5182 H   0  0  0  0  0  0
  -15.5354  -30.2997   23.7654 H   0  0  0  0  0  0
  -15.8670  -28.0839   22.7061 H   0  0  0  0  0  0
  -24.5885  -30.7101   25.7767 H   0  0  0  0  0  0
  -24.8937  -32.2886   26.4906 H   0  0  0  0  0  0
  -25.8028  -30.8860   27.0214 H   0  0  0  0  0  0
  -26.2956  -29.6718   24.1261 H   0  0  0  0  0  0
  -27.4040  -29.7276   25.4775 H   0  0  0  0  0  0
  -27.8843  -30.4265   23.9499 H   0  0  0  0  0  0
  -27.2681  -33.3621   26.2074 H   0  0  0  0  0  0
  -28.3861  -32.6880   25.0297 H   0  0  0  0  0  0
  -28.0761  -31.8441   26.5394 H   0  0  0  0  0  0
  -28.2593  -38.0098   24.7524 H   0  0  0  0  0  0
  -28.1076  -36.2633   24.6257 H   0  0  0  0  0  0
  -27.2300  -37.1417   25.8864 H   0  0  0  0  0  0
  -20.9435  -29.8753   21.6846 H   0  0  0  0  0  0
  -26.0159  -38.2845   24.1415 H   0  0  0  0  0  0
  -27.9878  -23.7442   18.0001 H   0  0  0  0  0  0
  -29.2442  -24.9727   17.9444 H   0  0  0  0  0  0
  -27.5695  -25.4333   17.7834 H   0  0  0  0  0  0
  -30.1164  -23.7774   19.8394 H   0  0  0  0  0  0
  -29.5465  -24.1869   21.4146 H   0  0  0  0  0  0
  -27.1989  -24.5879   20.2017 H   0  0  0  0  0  0
  -31.5302  -21.6220   21.7680 H   0  0  0  0  0  0
  -32.3500  -20.4143   22.5910 H   0  0  0  0  0  0
  -28.8140  -15.6586   20.3858 H   0  0  0  0  0  0
  1 25  1  0  0  0
  1 30  2  0  0  0
  1 81  1  0  0  0
  2  3  1  0  0  0
  2 25  1  0  0  0
  2 85  1  0  0  0
  2 86  1  0  0  0
  3  4  1  0  0  0
  3 87  1  0  0  0
  3 88  1  0  0  0
  4  5  1  0  0  0
  4 89  1  0  0  0
  4 90  1  0  0  0
  5  6  1  0  0  0
  5 26  1  0  0  0
  5 91  1  0  0  0
  6 25  1  0  0  0
  6 92  1  0  0  0
  6 93  1  0  0  0
  7  8  2  0  0  0
  7 26  1  0  0  0
  7 29  1  0  0  0
  8  9  1  0  0  0
  8 22  1  0  0  0
  9 10  1  0  0  0
  9 27  2  0  0  0
 10 11  2  0  0  0
 10 15  1  0  0  0
 11 12  1  0  0  0
 11 94  1  0  0  0
 12 13  2  0  0  0
 12 95  1  0  0  0
 13 14  1  0  0  0
 13 31  1  0  0  0
 14 15  2  0  0  0
 14 96  1  0  0  0
 15 97  1  0  0  0
 16 17  2  0  0  0
 16 21  1  0  0  0
 16 31  1  0  0  0
 17 18  1  0  0  0
 17 98  1  0  0  0
 18 19  2  0  0  0
 18 99  1  0  0  0
 19 20  1  0  0  0
 19 24  1  0  0  0
 20 21  2  0  0  0
 20100  1  0  0  0
 21 23  1  0  0  0
 22 28  1  0  0  0
 22 32  2  0  0  0
 26 27  1  0  0  0
 28101  1  0  0  0
 28102  1  0  0  0
 29103  1  0  0  0
 29104  1  0  0  0
 33 34  1  0  0  0
 33 66  1  0  0  0
 33 70  2  0  0  0
 34 36  1  0  0  0
 34 59  1  0  0  0
 34105  1  0  0  0
 35 44  2  0  0  0
 35 45  1  0  0  0
 35 68  1  0  0  0
 36 56  1  0  0  0
 36106  1  0  0  0
 37 39  1  0  0  0
 37 47  1  0  0  0
 37 66  1  0  0  0
 37107  1  0  0  0
 38 43  2  0  0  0
 38 46  1  0  0  0
 38 47  1  0  0  0
 39 64  1  0  0  0
 39 67  2  0  0  0
 40 52  1  0  0  0
 40 53  2  0  0  0
 40 58  1  0  0  0
 41108  1  0  0  0
 41109  1  0  0  0
 41110  1  0  0  0
 41 48  1  0  0  0
 42 43  1  0  0  0
 42 66  1  0  0  0
 42111  1  0  0  0
 42112  1  0  0  0
 43 44  1  0  0  0
 44113  1  0  0  0
 45 46  2  0  0  0
 45114  1  0  0  0
 46115  1  0  0  0
 47116  1  0  0  0
 47117  1  0  0  0
 48 56  1  0  0  0
 48 65  1  0  0  0
 48118  1  0  0  0
 49 50  1  0  0  0
 49 53  1  0  0  0
 49 64  1  0  0  0
 49119  1  0  0  0
 50 51  1  0  0  0
 50120  1  0  0  0
 50121  1  0  0  0
 51 52  1  0  0  0
 51122  1  0  0  0
 51123  1  0  0  0
 52124  1  0  0  0
 52125  1  0  0  0
 53 54  1  0  0  0
 54 55  2  0  0  0
 54126  1  0  0  0
 55 57  1  0  0  0
 55127  1  0  0  0
 56 69  2  0  0  0
 57 58  2  0  0  0
 57128  1  0  0  0
 58129  1  0  0  0
 59 60  1  0  0  0
 59 61  1  0  0  0
 59 62  1  0  0  0
 60130  1  0  0  0
 60131  1  0  0  0
 60132  1  0  0  0
 61133  1  0  0  0
 61134  1  0  0  0
 61135  1  0  0  0
 62136  1  0  0  0
 62137  1  0  0  0
 62138  1  0  0  0
 63 65  1  0  0  0
 63139  1  0  0  0
 63140  1  0  0  0
 63141  1  0  0  0
 64142  1  0  0  0
 65143  1  0  0  0
 68 78  1  0  0  0
 71 72  2  0  0  0
 71 74  1  0  0  0
 71 79  1  0  0  0
 72 80  1  0  0  0
 72 84  1  0  0  0
 73 79  2  0  0  0
 73 81  1  0  0  0
 73 84  1  0  0  0
 74 75  1  0  0  0
 74 82  2  0  0  0
 75 77  1  0  0  0
 75 83  2  0  0  0
 76144  1  0  0  0
 76145  1  0  0  0
 76146  1  0  0  0
 76 78  1  0  0  0
 77 78  1  0  0  0
 77147  1  0  0  0
 77148  1  0  0  0
 78149  1  0  0  0
 80150  1  0  0  0
 80151  1  0  0  0
 81152  1  0  0  0
M  ISO  4   1 100  68 101  78 101  81 100
M  END
> <chiral flag>
0

> <version>
0

> <s_m_source_file>
/data/baiqing/PycharmProjects/Reinvent-master-3.2/result/LINK_invent/BTK/process_docking_weight1_custom_product_contain_oxygen_bond_distance_aromatic_linkinvent_7_9_3/rearranged_h_0182.sdf

> <i_m_source_file_index>
35

> <r_mmod_Potential_Energy-OPLS-2005>
284.297729492188

> <r_mmod_Stretch_Energy-OPLS-2005>
128.11247253418

> <r_mmod_Bend_Energy-OPLS-2005>
173.878890991211

> <r_mmod_Torsional_Energy-OPLS-2005>
232.19026184082

> <r_mmod_Improper_Torsional_Energy-OPLS-2005>
9.50851154327393

> <r_mmod_Van_der_Waal_Energy-OPLS-2005>
113.817245483398

> <r_mmod_Electrostatic_Energy-OPLS-2005>
-217.775100708008

> <r_mmod_Solvation_Energy-OPLS-2005>
-243.795135498047

> <b_mmod_Minimization_Converged-OPLS-2005>
0

> <r_mmod_RMS_Derivative-OPLS-2005>
1.56699562072754

$$$$
35
                    3D
 Structure written by MMmdl.
149157  0  0  1  0            999 V2000
  -30.5804  -14.8243   20.4365 C   0  0  0  0  0  0
  -30.4363  -12.4991   19.5023 C   0  0  0  0  0  0
  -29.5209  -12.5162   18.2564 C   0  0  0  0  0  0
  -28.0482  -12.3273   18.6646 C   0  0  0  0  0  0
  -27.6403  -13.2394   19.8514 C   0  0  2  0  0  0
  -28.6792  -13.2058   20.9948 C   0  0  0  0  0  0
  -25.2494  -13.8210   20.5699 C   0  0  0  0  0  0
  -24.1793  -13.0448   20.9213 C   0  0  0  0  0  0
  -24.6390  -11.6927   20.8741 C   0  0  0  0  0  0
  -23.9069  -10.4298   21.0401 C   0  0  0  0  0  0
  -24.3619   -9.4214   21.9180 C   0  0  0  0  0  0
  -23.6296   -8.2248   22.0749 C   0  0  0  0  0  0
  -22.4278   -8.0281   21.3541 C   0  0  0  0  0  0
  -21.9910   -9.0255   20.4646 C   0  0  0  0  0  0
  -22.7237  -10.2137   20.3055 C   0  0  0  0  0  0
  -21.6854   -6.0733   22.5278 C   0  0  0  0  0  0
  -21.4014   -6.5635   23.8211 C   0  0  0  0  0  0
  -21.3663   -5.6790   24.9174 C   0  0  0  0  0  0
  -21.6046   -4.3053   24.7224 C   0  0  0  0  0  0
  -21.8818   -3.8143   23.4346 C   0  0  0  0  0  0
  -21.9194   -4.6961   22.3403 C   0  0  0  0  0  0
  -22.7815  -13.5230   21.1875 C   0  0  0  0  0  0
  -22.1663   -4.2148   21.0980 F   0  0  0  0  0  0
  -21.5631   -3.4536   25.7737 F   0  0  0  0  0  0
  -29.9797  -13.5754   20.4212 N   0  0  0  0  0  0
  -26.2924  -12.9431   20.3269 N   0  0  0  0  0  0
  -25.9324  -11.6568   20.5742 N   0  0  0  0  0  0
  -22.0461  -12.8216   22.0428 N   0  0  0  0  0  0
  -25.4181  -15.1932   20.4123 N   0  0  0  0  0  0
  -31.7624  -14.9084   20.0828 O   0  0  0  0  0  0
  -21.6644   -6.8877   21.4239 O   0  0  0  0  0  0
  -22.3503  -14.5540   20.6724 O   0  0  0  0  0  0
  -24.6371  -31.8507   23.1965 C   0  0  0  0  0  0
  -25.9175  -32.4728   23.8320 C   0  0  1  0  0  0
  -27.2109  -27.1942   20.1361 C   0  0  0  0  0  0
  -25.5950  -33.8534   24.2236 N   0  0  0  0  0  0
  -23.4373  -30.4740   21.5406 C   0  0  2  0  0  0
  -24.8852  -28.9167   20.1086 C   0  0  0  0  0  0
  -22.7535  -29.4579   22.4883 C   0  0  0  0  0  0
  -18.0300  -28.1392   22.8480 C   0  0  0  0  0  0
  -24.1495  -36.7274   23.2639 C   0  0  0  0  0  0
  -25.9898  -30.7377   21.3934 C   0  0  0  0  0  0
  -26.0577  -29.3551   20.7364 C   0  0  0  0  0  0
  -27.2184  -28.5035   20.7482 C   0  0  0  0  0  0
  -26.0241  -26.8656   19.4390 C   0  0  0  0  0  0
  -24.8772  -27.6817   19.4483 C   0  0  0  0  0  0
  -23.6607  -29.8122   20.1560 C   0  0  0  0  0  0
  -25.4121  -36.3055   24.0321 C   0  0  1  0  0  0
  -20.5908  -28.3714   23.1249 C   0  0  2  0  0  0
  -20.6788  -26.9424   22.5406 C   0  0  0  0  0  0
  -19.5762  -26.6382   21.5213 C   0  0  0  0  0  0
  -18.1942  -26.7932   22.1624 C   0  0  0  0  0  0
  -19.1555  -28.8870   23.2859 C   0  0  0  0  0  0
  -18.9473  -30.1466   23.8886 C   0  0  0  0  0  0
  -17.6471  -30.6591   24.0562 C   0  0  0  0  0  0
  -25.9066  -34.9424   23.5081 C   0  0  0  0  0  0
  -16.5362  -29.9086   23.6332 C   0  0  0  0  0  0
  -16.7285  -28.6504   23.0353 C   0  0  0  0  0  0
  -26.4518  -31.6574   25.0736 C   0  0  0  0  0  0
  -25.3719  -31.3750   26.1442 C   0  0  0  0  0  0
  -27.0373  -30.2973   24.6287 C   0  0  0  0  0  0
  -27.6063  -32.4328   25.7512 C   0  0  0  0  0  0
  -27.5580  -37.1792   24.8461 C   0  0  0  0  0  0
  -21.4234  -29.3049   22.3626 N   0  0  0  0  0  0
  -26.4291  -37.3760   23.9406 N   0  0  0  0  0  0
  -24.7072  -31.0409   22.0984 N   0  0  0  0  0  0
  -23.4204  -28.8113   23.3003 O   0  0  0  0  0  0
  -28.2749  -26.2378   20.2026 O   0  0  0  0  0  0
  -26.5641  -34.8909   22.4655 O   0  0  0  0  0  0
  -23.5505  -32.1369   23.7212 O   0  0  0  0  0  0
  -29.5148  -18.4290   17.9090 C   0  0  0  0  0  0
  -29.3814  -19.6833   18.5295 C   0  0  0  0  0  0
  -29.6879  -17.2537   18.6603 C   0  0  0  0  0  0
  -29.3981  -19.7893   19.9408 C   0  0  0  0  0  0
  -29.7536  -17.3119   20.0721 C   0  0  0  0  0  0
  -28.0361  -24.8061   20.1346 C   0  0  0  0  0  0
  -28.8907  -23.7128   20.3358 C   0  0  0  0  0  0
  -28.4677  -22.2545   20.1230 C   0  0  0  0  0  0
  -29.5955  -18.5889   20.6726 N   0  0  0  0  0  0
  -29.3390  -21.2058   20.4498 N   0  0  0  0  0  0
  -29.8306  -15.9695   20.7471 N   0  0  0  0  0  0
  -27.3441  -21.9805   19.6931 O   0  0  0  0  0  0
  -30.1570  -23.9451   20.7073 O   0  0  0  0  0  0
  -29.2741  -20.7839   17.7432 F   0  0  0  0  0  0
  -29.7471  -16.0691   18.0028 F   0  0  0  0  0  0
  -31.4771  -12.6262   19.2004 H   0  0  0  0  0  0
  -30.3907  -11.5301   20.0017 H   0  0  0  0  0  0
  -29.8184  -11.7332   17.5574 H   0  0  0  0  0  0
  -29.6368  -13.4619   17.7253 H   0  0  0  0  0  0
  -27.9173  -11.2807   18.9420 H   0  0  0  0  0  0
  -27.3933  -12.4992   17.8097 H   0  0  0  0  0  0
  -27.6266  -14.2546   19.4535 H   0  0  0  0  0  0
  -28.7256  -12.2154   21.4499 H   0  0  0  0  0  0
  -28.3949  -13.8940   21.7919 H   0  0  0  0  0  0
  -25.2761   -9.5694   22.4757 H   0  0  0  0  0  0
  -24.0009   -7.4638   22.7465 H   0  0  0  0  0  0
  -21.0842   -8.8772   19.8951 H   0  0  0  0  0  0
  -22.3690  -10.9673   19.6166 H   0  0  0  0  0  0
  -21.2002   -7.6142   23.9715 H   0  0  0  0  0  0
  -21.1490   -6.0519   25.9077 H   0  0  0  0  0  0
  -22.0594   -2.7605   23.2849 H   0  0  0  0  0  0
  -22.4083  -11.9886   22.4829 H   0  0  0  0  0  0
  -21.1078  -13.1235   22.2635 H   0  0  0  0  0  0
  -24.6457  -15.8426   20.5135 H   0  0  0  0  0  0
  -26.2579  -15.6302   20.0554 H   0  0  0  0  0  0
  -26.7234  -32.5353   23.1047 H   0  0  0  0  0  0
  -25.0084  -33.9659   25.0373 H   0  0  0  0  0  0
  -22.7373  -31.2991   21.3927 H   0  0  0  0  0  0
  -23.3759  -35.9605   23.3293 H   0  0  0  0  0  0
  -24.3586  -36.8909   22.2055 H   0  0  0  0  0  0
  -23.7249  -37.6470   23.6676 H   0  0  0  0  0  0
  -26.1421  -31.4934   20.6217 H   0  0  0  0  0  0
  -26.8626  -30.7849   22.0328 H   0  0  0  0  0  0
  -28.1084  -28.8272   21.2691 H   0  0  0  0  0  0
  -25.9423  -25.9489   18.8768 H   0  0  0  0  0  0
  -23.9883  -27.3506   18.9290 H   0  0  0  0  0  0
  -23.7947  -30.5908   19.4043 H   0  0  0  0  0  0
  -22.7768  -29.2531   19.8441 H   0  0  0  0  0  0
  -25.1306  -36.1895   25.0814 H   0  0  0  0  0  0
  -20.9999  -28.3300   24.1371 H   0  0  0  0  0  0
  -20.5688  -26.2326   23.3618 H   0  0  0  0  0  0
  -21.6656  -26.7441   22.1201 H   0  0  0  0  0  0
  -19.6926  -25.6288   21.1253 H   0  0  0  0  0  0
  -19.6697  -27.3184   20.6735 H   0  0  0  0  0  0
  -17.4211  -26.6676   21.4027 H   0  0  0  0  0  0
  -18.0342  -26.0078   22.9025 H   0  0  0  0  0  0
  -19.7947  -30.7285   24.2252 H   0  0  0  0  0  0
  -17.5024  -31.6269   24.5166 H   0  0  0  0  0  0
  -15.5363  -30.2985   23.7660 H   0  0  0  0  0  0
  -15.8684  -28.0818   22.7079 H   0  0  0  0  0  0
  -24.5902  -30.7090   25.7769 H   0  0  0  0  0  0
  -24.8903  -32.2928   26.4826 H   0  0  0  0  0  0
  -25.8014  -30.8953   27.0246 H   0  0  0  0  0  0
  -26.2976  -29.6706   24.1292 H   0  0  0  0  0  0
  -27.3993  -29.7261   25.4846 H   0  0  0  0  0  0
  -27.8888  -30.4217   23.9593 H   0  0  0  0  0  0
  -27.2666  -33.3639   26.2061 H   0  0  0  0  0  0
  -28.3887  -32.6868   25.0347 H   0  0  0  0  0  0
  -28.0718  -31.8472   26.5451 H   0  0  0  0  0  0
  -28.2589  -38.0097   24.7514 H   0  0  0  0  0  0
  -28.1085  -36.2627   24.6281 H   0  0  0  0  0  0
  -27.2298  -37.1432   25.8864 H   0  0  0  0  0  0
  -20.9432  -29.8773   21.6821 H   0  0  0  0  0  0
  -26.0165  -38.2831   24.1410 H   0  0  0  0  0  0
  -29.4809  -18.3667   16.8318 H   0  0  0  0  0  0
  -27.0163  -24.5769   19.8744 H   0  0  0  0  0  0
  -30.1515  -21.5042   20.9672 H   0  0  0  0  0  0
  -29.0148  -15.7654   21.3006 H   0  0  0  0  0  0
  -30.2555  -24.8867   20.7745 H   0  0  0  0  0  0
  1 25  1  0  0  0
  1 30  2  0  0  0
  1 81  1  0  0  0
  2  3  1  0  0  0
  2 25  1  0  0  0
  2 86  1  0  0  0
  2 87  1  0  0  0
  3  4  1  0  0  0
  3 88  1  0  0  0
  3 89  1  0  0  0
  4  5  1  0  0  0
  4 90  1  0  0  0
  4 91  1  0  0  0
  5  6  1  0  0  0
  5 26  1  0  0  0
  5 92  1  0  0  0
  6 25  1  0  0  0
  6 93  1  0  0  0
  6 94  1  0  0  0
  7  8  2  0  0  0
  7 26  1  0  0  0
  7 29  1  0  0  0
  8  9  1  0  0  0
  8 22  1  0  0  0
  9 10  1  0  0  0
  9 27  2  0  0  0
 10 11  2  0  0  0
 10 15  1  0  0  0
 11 12  1  0  0  0
 11 95  1  0  0  0
 12 13  2  0  0  0
 12 96  1  0  0  0
 13 14  1  0  0  0
 13 31  1  0  0  0
 14 15  2  0  0  0
 14 97  1  0  0  0
 15 98  1  0  0  0
 16 17  2  0  0  0
 16 21  1  0  0  0
 16 31  1  0  0  0
 17 18  1  0  0  0
 17 99  1  0  0  0
 18 19  2  0  0  0
 18100  1  0  0  0
 19 20  1  0  0  0
 19 24  1  0  0  0
 20 21  2  0  0  0
 20101  1  0  0  0
 21 23  1  0  0  0
 22 28  1  0  0  0
 22 32  2  0  0  0
 26 27  1  0  0  0
 28102  1  0  0  0
 28103  1  0  0  0
 29104  1  0  0  0
 29105  1  0  0  0
 33 34  1  0  0  0
 33 66  1  0  0  0
 33 70  2  0  0  0
 34 36  1  0  0  0
 34 59  1  0  0  0
 34106  1  0  0  0
 35 44  2  0  0  0
 35 45  1  0  0  0
 35 68  1  0  0  0
 36 56  1  0  0  0
 36107  1  0  0  0
 37 39  1  0  0  0
 37 47  1  0  0  0
 37 66  1  0  0  0
 37108  1  0  0  0
 38 43  2  0  0  0
 38 46  1  0  0  0
 38 47  1  0  0  0
 39 64  1  0  0  0
 39 67  2  0  0  0
 40 52  1  0  0  0
 40 53  2  0  0  0
 40 58  1  0  0  0
 41109  1  0  0  0
 41110  1  0  0  0
 41111  1  0  0  0
 41 48  1  0  0  0
 42 43  1  0  0  0
 42 66  1  0  0  0
 42112  1  0  0  0
 42113  1  0  0  0
 43 44  1  0  0  0
 44114  1  0  0  0
 45 46  2  0  0  0
 45115  1  0  0  0
 46116  1  0  0  0
 47117  1  0  0  0
 47118  1  0  0  0
 48 56  1  0  0  0
 48 65  1  0  0  0
 48119  1  0  0  0
 49 50  1  0  0  0
 49 53  1  0  0  0
 49 64  1  0  0  0
 49120  1  0  0  0
 50 51  1  0  0  0
 50121  1  0  0  0
 50122  1  0  0  0
 51 52  1  0  0  0
 51123  1  0  0  0
 51124  1  0  0  0
 52125  1  0  0  0
 52126  1  0  0  0
 53 54  1  0  0  0
 54 55  2  0  0  0
 54127  1  0  0  0
 55 57  1  0  0  0
 55128  1  0  0  0
 56 69  2  0  0  0
 57 58  2  0  0  0
 57129  1  0  0  0
 58130  1  0  0  0
 59 60  1  0  0  0
 59 61  1  0  0  0
 59 62  1  0  0  0
 60131  1  0  0  0
 60132  1  0  0  0
 60133  1  0  0  0
 61134  1  0  0  0
 61135  1  0  0  0
 61136  1  0  0  0
 62137  1  0  0  0
 62138  1  0  0  0
 62139  1  0  0  0
 63 65  1  0  0  0
 63140  1  0  0  0
 63141  1  0  0  0
 63142  1  0  0  0
 64143  1  0  0  0
 65144  1  0  0  0
 68 76  1  0  0  0
 71 72  2  0  0  0
 71 73  1  0  0  0
 71145  1  0  0  0
 72 74  1  0  0  0
 72 84  1  0  0  0
 73 75  2  0  0  0
 73 85  1  0  0  0
 74 79  2  0  0  0
 74 80  1  0  0  0
 75 79  1  0  0  0
 75 81  1  0  0  0
 76 77  2  0  0  0
 76146  1  0  0  0
 77 78  1  0  0  0
 77 83  1  0  0  0
 78 80  1  0  0  0
 78 82  2  0  0  0
 80147  1  0  0  0
 81148  1  0  0  0
 83149  1  0  0  0
M  ISO  4   1 100  68 101  76 101  81 100
M  END
> <chiral flag>
0

> <version>
0

> <s_m_source_file>
/data/baiqing/PycharmProjects/Reinvent-master-3.2/result/LINK_invent/BTK/process_docking_weight1_custom_product_contain_oxygen_bond_distance_aromatic_linkinvent_7_9_3/rearranged_h_0182.sdf

> <i_m_source_file_index>
36

> <r_mmod_Potential_Energy-OPLS-2005>
87.3721389770508

> <r_mmod_Stretch_Energy-OPLS-2005>
168.093368530273

> <r_mmod_Bend_Energy-OPLS-2005>
175.201919555664

> <r_mmod_Torsional_Energy-OPLS-2005>
263.465301513672

> <r_mmod_Improper_Torsional_Energy-OPLS-2005>
5.59091567993164

> <r_mmod_Van_der_Waal_Energy-OPLS-2005>
148.49365234375

> <r_mmod_Electrostatic_Energy-OPLS-2005>
-567.465393066406

> <r_mmod_Solvation_Energy-OPLS-2005>
-234.733413696289

> <b_mmod_Minimization_Converged-OPLS-2005>
0

> <r_mmod_RMS_Derivative-OPLS-2005>
0.639286518096924

$$$$
36
                    3D
 Structure written by MMmdl.
148156  0  0  1  0            999 V2000
  -30.5976  -14.8016   20.4352 C   0  0  0  0  0  0
  -30.4378  -12.4827   19.4928 C   0  0  0  0  0  0
  -29.5179  -12.5038   18.2508 C   0  0  0  0  0  0
  -28.0468  -12.3166   18.6657 C   0  0  0  0  0  0
  -27.6430  -13.2343   19.8497 C   0  0  2  0  0  0
  -28.6862  -13.2017   20.9899 C   0  0  0  0  0  0
  -25.2524  -13.8209   20.5698 C   0  0  0  0  0  0
  -24.1816  -13.0448   20.9209 C   0  0  0  0  0  0
  -24.6411  -11.6929   20.8752 C   0  0  0  0  0  0
  -23.9085  -10.4300   21.0410 C   0  0  0  0  0  0
  -24.3633   -9.4209   21.9184 C   0  0  0  0  0  0
  -23.6303   -8.2244   22.0749 C   0  0  0  0  0  0
  -22.4282   -8.0287   21.3542 C   0  0  0  0  0  0
  -21.9925   -9.0260   20.4643 C   0  0  0  0  0  0
  -22.7256  -10.2140   20.3054 C   0  0  0  0  0  0
  -21.6852   -6.0747   22.5280 C   0  0  0  0  0  0
  -21.4015   -6.5649   23.8211 C   0  0  0  0  0  0
  -21.3655   -5.6798   24.9173 C   0  0  0  0  0  0
  -21.6039   -4.3060   24.7226 C   0  0  0  0  0  0
  -21.8817   -3.8153   23.4345 C   0  0  0  0  0  0
  -21.9197   -4.6972   22.3403 C   0  0  0  0  0  0
  -22.7834  -13.5223   21.1868 C   0  0  0  0  0  0
  -22.1662   -4.2158   21.0977 F   0  0  0  0  0  0
  -21.5627   -3.4543   25.7738 F   0  0  0  0  0  0
  -29.9882  -13.5602   20.4113 N   0  0  0  0  0  0
  -26.2952  -12.9414   20.3286 N   0  0  0  0  0  0
  -25.9338  -11.6553   20.5759 N   0  0  0  0  0  0
  -22.0491  -12.8199   22.0428 N   0  0  0  0  0  0
  -25.4254  -15.1928   20.4103 N   0  0  0  0  0  0
  -31.7776  -14.8902   20.0792 O   0  0  0  0  0  0
  -21.6641   -6.8888   21.4237 O   0  0  0  0  0  0
  -22.3503  -14.5526   20.6719 O   0  0  0  0  0  0
  -24.6348  -31.8516   23.1952 C   0  0  0  0  0  0
  -25.9154  -32.4737   23.8307 C   0  0  1  0  0  0
  -27.2230  -27.2207   20.1262 C   0  0  0  0  0  0
  -25.5934  -33.8542   24.2220 N   0  0  0  0  0  0
  -23.4341  -30.4736   21.5388 C   0  0  2  0  0  0
  -24.8824  -28.9165   20.1079 C   0  0  0  0  0  0
  -22.7520  -29.4587   22.4896 C   0  0  0  0  0  0
  -18.0290  -28.1393   22.8486 C   0  0  0  0  0  0
  -24.1488  -36.7274   23.2640 C   0  0  0  0  0  0
  -25.9843  -30.7494   21.3842 C   0  0  0  0  0  0
  -26.0545  -29.3694   20.7241 C   0  0  0  0  0  0
  -27.2225  -28.5332   20.7250 C   0  0  0  0  0  0
  -26.0260  -26.8538   19.4674 C   0  0  0  0  0  0
  -24.8765  -27.6686   19.4681 C   0  0  0  0  0  0
  -23.6540  -29.8065   20.1555 C   0  0  0  0  0  0
  -25.4117  -36.3059   24.0315 C   0  0  1  0  0  0
  -20.5896  -28.3706   23.1260 C   0  0  2  0  0  0
  -20.6779  -26.9421   22.5404 C   0  0  0  0  0  0
  -19.5751  -26.6383   21.5217 C   0  0  0  0  0  0
  -18.1933  -26.7936   22.1627 C   0  0  0  0  0  0
  -19.1544  -28.8866   23.2870 C   0  0  0  0  0  0
  -18.9468  -30.1470   23.8896 C   0  0  0  0  0  0
  -17.6468  -30.6597   24.0565 C   0  0  0  0  0  0
  -25.9062  -34.9434   23.5072 C   0  0  0  0  0  0
  -16.5357  -29.9093   23.6341 C   0  0  0  0  0  0
  -16.7276  -28.6510   23.0368 C   0  0  0  0  0  0
  -26.4496  -31.6599   25.0727 C   0  0  0  0  0  0
  -25.3692  -31.3794   26.1438 C   0  0  0  0  0  0
  -27.0342  -30.2997   24.6271 C   0  0  0  0  0  0
  -27.6039  -32.4359   25.7499 C   0  0  0  0  0  0
  -27.5573  -37.1792   24.8466 C   0  0  0  0  0  0
  -21.4220  -29.3049   22.3644 N   0  0  0  0  0  0
  -26.4288  -37.3759   23.9402 N   0  0  0  0  0  0
  -24.7036  -31.0436   22.0954 N   0  0  0  0  0  0
  -23.4201  -28.8121   23.3005 O   0  0  0  0  0  0
  -28.3159  -26.3100   20.2209 O   0  0  0  0  0  0
  -26.5640  -34.8919   22.4646 O   0  0  0  0  0  0
  -23.5483  -32.1355   23.7219 O   0  0  0  0  0  0
  -30.3657  -19.1942   19.1513 C   0  0  0  0  0  0
  -30.5900  -17.7702   19.2222 C   0  0  0  0  0  0
  -29.6418  -19.6127   20.2431 C   0  0  0  0  0  0
  -29.9712  -17.2978   20.3504 C   0  0  0  0  0  0
  -29.1378  -22.2255   20.0635 C   0  0  0  0  0  0
  -29.1972  -20.9802   20.7096 C   0  0  0  0  0  0
  -28.7960  -23.6538   20.6209 C   0  0  0  0  0  0
  -28.2607  -24.8741   19.7043 C   0  0  0  0  0  0
  -29.8362  -15.9386   20.7271 N   0  0  0  0  0  0
  -28.9491  -23.9078   21.8206 O   0  0  0  0  0  0
  -29.3719  -18.4222   20.9814 O   0  0  0  0  0  0
  -28.8548  -20.9091   22.0027 O   0  0  0  0  0  0
  -31.4787  -12.6049   19.1885 H   0  0  0  0  0  0
  -30.3888  -11.5141   19.9931 H   0  0  0  0  0  0
  -29.8097  -11.7186   17.5521 H   0  0  0  0  0  0
  -29.6349  -13.4480   17.7180 H   0  0  0  0  0  0
  -27.9190  -11.2721   18.9528 H   0  0  0  0  0  0
  -27.3856  -12.4785   17.8137 H   0  0  0  0  0  0
  -27.6298  -14.2478   19.4478 H   0  0  0  0  0  0
  -28.7297  -12.2148   21.4514 H   0  0  0  0  0  0
  -28.4076  -13.8961   21.7837 H   0  0  0  0  0  0
  -25.2783   -9.5683   22.4758 H   0  0  0  0  0  0
  -24.0018   -7.4632   22.7462 H   0  0  0  0  0  0
  -21.0862   -8.8778   19.8944 H   0  0  0  0  0  0
  -22.3716  -10.9682   19.6159 H   0  0  0  0  0  0
  -21.2000   -7.6155   23.9719 H   0  0  0  0  0  0
  -21.1474   -6.0530   25.9081 H   0  0  0  0  0  0
  -22.0598   -2.7621   23.2842 H   0  0  0  0  0  0
  -22.4122  -11.9866   22.4815 H   0  0  0  0  0  0
  -21.1094  -13.1188   22.2628 H   0  0  0  0  0  0
  -24.6606  -15.8511   20.5145 H   0  0  0  0  0  0
  -26.2741  -15.6261   20.0684 H   0  0  0  0  0  0
  -26.7217  -32.5367   23.1041 H   0  0  0  0  0  0
  -25.0074  -33.9675   25.0361 H   0  0  0  0  0  0
  -22.7329  -31.2968   21.3892 H   0  0  0  0  0  0
  -23.3746  -35.9617   23.3331 H   0  0  0  0  0  0
  -24.3566  -36.8866   22.2050 H   0  0  0  0  0  0
  -23.7261  -37.6486   23.6651 H   0  0  0  0  0  0
  -26.1319  -31.5093   20.6154 H   0  0  0  0  0  0
  -26.8591  -30.7957   22.0214 H   0  0  0  0  0  0
  -28.1171  -28.8734   21.2274 H   0  0  0  0  0  0
  -25.9246  -25.9152   18.9493 H   0  0  0  0  0  0
  -23.9829  -27.3190   18.9702 H   0  0  0  0  0  0
  -23.7771  -30.5822   19.3988 H   0  0  0  0  0  0
  -22.7728  -29.2387   19.8509 H   0  0  0  0  0  0
  -25.1307  -36.1898   25.0808 H   0  0  0  0  0  0
  -20.9992  -28.3292   24.1378 H   0  0  0  0  0  0
  -20.5688  -26.2318   23.3613 H   0  0  0  0  0  0
  -21.6643  -26.7445   22.1193 H   0  0  0  0  0  0
  -19.6917  -25.6294   21.1254 H   0  0  0  0  0  0
  -19.6691  -27.3188   20.6749 H   0  0  0  0  0  0
  -17.4198  -26.6686   21.4034 H   0  0  0  0  0  0
  -18.0333  -26.0078   22.9025 H   0  0  0  0  0  0
  -19.7946  -30.7286   24.2262 H   0  0  0  0  0  0
  -17.5022  -31.6283   24.5158 H   0  0  0  0  0  0
  -15.5361  -30.2997   23.7674 H   0  0  0  0  0  0
  -15.8672  -28.0826   22.7100 H   0  0  0  0  0  0
  -24.5860  -30.7146   25.7769 H   0  0  0  0  0  0
  -24.8896  -32.2988   26.4810 H   0  0  0  0  0  0
  -25.7978  -30.9002   27.0250 H   0  0  0  0  0  0
  -26.2942  -29.6741   24.1259 H   0  0  0  0  0  0
  -27.3946  -29.7269   25.4828 H   0  0  0  0  0  0
  -27.8858  -30.4230   23.9574 H   0  0  0  0  0  0
  -27.2639  -33.3686   26.2008 H   0  0  0  0  0  0
  -28.3881  -32.6877   25.0348 H   0  0  0  0  0  0
  -28.0667  -31.8530   26.5469 H   0  0  0  0  0  0
  -28.2601  -38.0078   24.7495 H   0  0  0  0  0  0
  -28.1055  -36.2607   24.6317 H   0  0  0  0  0  0
  -27.2286  -37.1475   25.8867 H   0  0  0  0  0  0
  -20.9412  -29.8759   21.6831 H   0  0  0  0  0  0
  -26.0166  -38.2830   24.1398 H   0  0  0  0  0  0
  -30.7251  -19.8552   18.3750 H   0  0  0  0  0  0
  -31.1253  -17.1681   18.5000 H   0  0  0  0  0  0
  -29.3948  -22.2237   19.0144 H   0  0  0  0  0  0
  -27.2479  -24.5802   19.4510 H   0  0  0  0  0  0
  -28.8179  -24.8465   18.7678 H   0  0  0  0  0  0
  -28.9669  -15.7258   21.1912 H   0  0  0  0  0  0
  -28.9612  -20.0013   22.2634 H   0  0  0  0  0  0
  1 25  1  0  0  0
  1 30  2  0  0  0
  1 79  1  0  0  0
  2  3  1  0  0  0
  2 25  1  0  0  0
  2 83  1  0  0  0
  2 84  1  0  0  0
  3  4  1  0  0  0
  3 85  1  0  0  0
  3 86  1  0  0  0
  4  5  1  0  0  0
  4 87  1  0  0  0
  4 88  1  0  0  0
  5  6  1  0  0  0
  5 26  1  0  0  0
  5 89  1  0  0  0
  6 25  1  0  0  0
  6 90  1  0  0  0
  6 91  1  0  0  0
  7  8  2  0  0  0
  7 26  1  0  0  0
  7 29  1  0  0  0
  8  9  1  0  0  0
  8 22  1  0  0  0
  9 10  1  0  0  0
  9 27  2  0  0  0
 10 11  2  0  0  0
 10 15  1  0  0  0
 11 12  1  0  0  0
 11 92  1  0  0  0
 12 13  2  0  0  0
 12 93  1  0  0  0
 13 14  1  0  0  0
 13 31  1  0  0  0
 14 15  2  0  0  0
 14 94  1  0  0  0
 15 95  1  0  0  0
 16 17  2  0  0  0
 16 21  1  0  0  0
 16 31  1  0  0  0
 17 18  1  0  0  0
 17 96  1  0  0  0
 18 19  2  0  0  0
 18 97  1  0  0  0
 19 20  1  0  0  0
 19 24  1  0  0  0
 20 21  2  0  0  0
 20 98  1  0  0  0
 21 23  1  0  0  0
 22 28  1  0  0  0
 22 32  2  0  0  0
 26 27  1  0  0  0
 28 99  1  0  0  0
 28100  1  0  0  0
 29101  1  0  0  0
 29102  1  0  0  0
 33 34  1  0  0  0
 33 66  1  0  0  0
 33 70  2  0  0  0
 34 36  1  0  0  0
 34 59  1  0  0  0
 34103  1  0  0  0
 35 44  2  0  0  0
 35 45  1  0  0  0
 35 68  1  0  0  0
 36 56  1  0  0  0
 36104  1  0  0  0
 37 39  1  0  0  0
 37 47  1  0  0  0
 37 66  1  0  0  0
 37105  1  0  0  0
 38 43  2  0  0  0
 38 46  1  0  0  0
 38 47  1  0  0  0
 39 64  1  0  0  0
 39 67  2  0  0  0
 40 52  1  0  0  0
 40 53  2  0  0  0
 40 58  1  0  0  0
 41106  1  0  0  0
 41107  1  0  0  0
 41108  1  0  0  0
 41 48  1  0  0  0
 42 43  1  0  0  0
 42 66  1  0  0  0
 42109  1  0  0  0
 42110  1  0  0  0
 43 44  1  0  0  0
 44111  1  0  0  0
 45 46  2  0  0  0
 45112  1  0  0  0
 46113  1  0  0  0
 47114  1  0  0  0
 47115  1  0  0  0
 48 56  1  0  0  0
 48 65  1  0  0  0
 48116  1  0  0  0
 49 50  1  0  0  0
 49 53  1  0  0  0
 49 64  1  0  0  0
 49117  1  0  0  0
 50 51  1  0  0  0
 50118  1  0  0  0
 50119  1  0  0  0
 51 52  1  0  0  0
 51120  1  0  0  0
 51121  1  0  0  0
 52122  1  0  0  0
 52123  1  0  0  0
 53 54  1  0  0  0
 54 55  2  0  0  0
 54124  1  0  0  0
 55 57  1  0  0  0
 55125  1  0  0  0
 56 69  2  0  0  0
 57 58  2  0  0  0
 57126  1  0  0  0
 58127  1  0  0  0
 59 60  1  0  0  0
 59 61  1  0  0  0
 59 62  1  0  0  0
 60128  1  0  0  0
 60129  1  0  0  0
 60130  1  0  0  0
 61131  1  0  0  0
 61132  1  0  0  0
 61133  1  0  0  0
 62134  1  0  0  0
 62135  1  0  0  0
 62136  1  0  0  0
 63 65  1  0  0  0
 63137  1  0  0  0
 63138  1  0  0  0
 63139  1  0  0  0
 64140  1  0  0  0
 65141  1  0  0  0
 68 78  1  0  0  0
 71 72  1  0  0  0
 71 73  2  0  0  0
 71142  1  0  0  0
 72 74  2  0  0  0
 72143  1  0  0  0
 73 76  1  0  0  0
 73 81  1  0  0  0
 74 79  1  0  0  0
 74 81  1  0  0  0
 75 76  2  0  0  0
 75 77  1  0  0  0
 75144  1  0  0  0
 76 82  1  0  0  0
 77 78  1  0  0  0
 77 80  2  0  0  0
 78145  1  0  0  0
 78146  1  0  0  0
 79147  1  0  0  0
 82148  1  0  0  0
M  ISO  4   1 100  68 101  78 101  79 100
M  END
> <chiral flag>
0

> <version>
0

> <s_m_source_file>
/data/baiqing/PycharmProjects/Reinvent-master-3.2/result/LINK_invent/BTK/process_docking_weight1_custom_product_contain_oxygen_bond_distance_aromatic_linkinvent_7_9_3/rearranged_h_0182.sdf

> <i_m_source_file_index>
37

> <r_mmod_Potential_Energy-OPLS-2005>
177.41194152832

> <r_mmod_Stretch_Energy-OPLS-2005>
148.751953125

> <r_mmod_Bend_Energy-OPLS-2005>
183.192306518555

> <r_mmod_Torsional_Energy-OPLS-2005>
219.886306762695

> <r_mmod_Improper_Torsional_Energy-OPLS-2005>
4.07481527328491

> <r_mmod_Van_der_Waal_Energy-OPLS-2005>
120.592529296875

> <r_mmod_Electrostatic_Energy-OPLS-2005>
-356.112182617188

> <r_mmod_Solvation_Energy-OPLS-2005>
-254.568771362305

> <b_mmod_Minimization_Converged-OPLS-2005>
0

> <r_mmod_RMS_Derivative-OPLS-2005>
1.63914358615875

$$$$
37
                    3D
 Structure written by MMmdl.
153161  0  0  1  0            999 V2000
  -30.7163  -14.5036   20.4787 C   0  0  0  0  0  0
  -30.4253  -12.2981   19.4340 C   0  0  0  0  0  0
  -29.4994  -12.4888   18.2146 C   0  0  0  0  0  0
  -28.0185  -12.3704   18.6235 C   0  0  0  0  0  0
  -27.6647  -13.2232   19.8725 C   0  0  2  0  0  0
  -28.7156  -13.0432   20.9905 C   0  0  0  0  0  0
  -25.2587  -13.8170   20.5737 C   0  0  0  0  0  0
  -24.1853  -13.0378   20.9157 C   0  0  0  0  0  0
  -24.6449  -11.6874   20.8684 C   0  0  0  0  0  0
  -23.9108  -10.4250   21.0356 C   0  0  0  0  0  0
  -24.3635   -9.4157   21.9138 C   0  0  0  0  0  0
  -23.6304   -8.2193   22.0700 C   0  0  0  0  0  0
  -22.4270   -8.0235   21.3526 C   0  0  0  0  0  0
  -21.9894   -9.0225   20.4661 C   0  0  0  0  0  0
  -22.7229  -10.2106   20.3061 C   0  0  0  0  0  0
  -21.6830   -6.0731   22.5266 C   0  0  0  0  0  0
  -21.4014   -6.5641   23.8200 C   0  0  0  0  0  0
  -21.3668   -5.6784   24.9157 C   0  0  0  0  0  0
  -21.6043   -4.3053   24.7196 C   0  0  0  0  0  0
  -21.8818   -3.8147   23.4314 C   0  0  0  0  0  0
  -21.9183   -4.6971   22.3382 C   0  0  0  0  0  0
  -22.7847  -13.5134   21.1770 C   0  0  0  0  0  0
  -22.1651   -4.2176   21.0945 F   0  0  0  0  0  0
  -21.5638   -3.4532   25.7696 F   0  0  0  0  0  0
  -30.0465  -13.3176   20.4272 N   0  0  0  0  0  0
  -26.3083  -12.9402   20.3419 N   0  0  0  0  0  0
  -25.9393  -11.6539   20.5785 N   0  0  0  0  0  0
  -22.0537  -12.8136   22.0346 N   0  0  0  0  0  0
  -25.4214  -15.1898   20.4271 N   0  0  0  0  0  0
  -31.9005  -14.5494   20.1300 O   0  0  0  0  0  0
  -21.6586   -6.8869   21.4234 O   0  0  0  0  0  0
  -22.3481  -14.5373   20.6542 O   0  0  0  0  0  0
  -24.6102  -31.8678   23.2134 C   0  0  0  0  0  0
  -25.9003  -32.4812   23.8451 C   0  0  1  0  0  0
  -27.2307  -27.4488   20.1021 C   0  0  0  0  0  0
  -25.5836  -33.8607   24.2372 N   0  0  0  0  0  0
  -23.4003  -30.4901   21.5565 C   0  0  2  0  0  0
  -24.8496  -28.9647   20.1127 C   0  0  0  0  0  0
  -22.7402  -29.4645   22.5036 C   0  0  0  0  0  0
  -18.0261  -28.1384   22.8498 C   0  0  0  0  0  0
  -24.1494  -36.7311   23.2654 C   0  0  0  0  0  0
  -25.9269  -30.8391   21.3676 C   0  0  0  0  0  0
  -26.0084  -29.4756   20.7148 C   0  0  0  0  0  0
  -27.2045  -28.7242   20.7107 C   0  0  0  0  0  0
  -26.0681  -26.9592   19.4756 C   0  0  0  0  0  0
  -24.8738  -27.7039   19.4919 C   0  0  0  0  0  0
  -23.6069  -29.8245   20.1694 C   0  0  0  0  0  0
  -25.4106  -36.3107   24.0366 C   0  0  1  0  0  0
  -20.5856  -28.3647   23.1343 C   0  0  2  0  0  0
  -20.6746  -26.9379   22.5433 C   0  0  0  0  0  0
  -19.5737  -26.6380   21.5227 C   0  0  0  0  0  0
  -18.1914  -26.7915   22.1637 C   0  0  0  0  0  0
  -19.1517  -28.8834   23.2903 C   0  0  0  0  0  0
  -18.9441  -30.1430   23.8917 C   0  0  0  0  0  0
  -17.6450  -30.6581   24.0567 C   0  0  0  0  0  0
  -25.9026  -34.9458   23.5175 C   0  0  0  0  0  0
  -16.5340  -29.9088   23.6317 C   0  0  0  0  0  0
  -16.7249  -28.6508   23.0341 C   0  0  0  0  0  0
  -26.4454  -31.6570   25.0760 C   0  0  0  0  0  0
  -25.3725  -31.3647   26.1515 C   0  0  0  0  0  0
  -27.0299  -30.3022   24.6088 C   0  0  0  0  0  0
  -27.6065  -32.4266   25.7475 C   0  0  0  0  0  0
  -27.5576  -37.1817   24.8476 C   0  0  0  0  0  0
  -21.4143  -29.3000   22.3734 N   0  0  0  0  0  0
  -26.4292  -37.3782   23.9428 N   0  0  0  0  0  0
  -24.6638  -31.0793   22.1044 N   0  0  0  0  0  0
  -23.4181  -28.8198   23.3075 O   0  0  0  0  0  0
  -28.3606  -26.6624   20.1119 O   0  0  0  0  0  0
  -26.5617  -34.8908   22.4752 O   0  0  0  0  0  0
  -23.5286  -32.1414   23.7522 O   0  0  0  0  0  0
  -29.8626  -18.1223   20.4967 C   0  0  0  0  0  0
  -28.6044  -18.5888   20.1586 C   0  0  0  0  0  0
  -29.6077  -20.5858   20.6298 C   0  0  0  0  0  0
  -30.4698  -16.7842   20.5203 C   0  0  0  0  0  0
  -29.2657  -24.4538   20.6825 C   0  0  0  0  0  0
  -27.1579  -25.3104   21.9172 C   0  0  0  0  0  0
  -28.8239  -23.0404   21.1385 C   0  0  0  0  0  0
  -28.4737  -25.6926   21.1862 C   0  0  2  0  0  0
  -28.4640  -19.9804   20.2919 N   0  0  0  0  0  0
  -29.9200  -15.6336   20.7327 N   0  0  0  0  0  0
  -27.5187  -17.8454   19.6791 N   0  0  0  0  0  0
  -29.7630  -21.9561   20.8369 N   0  0  0  0  0  0
  -30.2617  -24.5918   19.9617 O   0  0  0  0  0  0
  -30.9349  -19.4607   20.8565 S   0  0  0  0  0  0
  -31.4674  -12.3718   19.1175 H   0  0  0  0  0  0
  -30.3138  -11.2972   19.8563 H   0  0  0  0  0  0
  -29.7323  -11.7481   17.4476 H   0  0  0  0  0  0
  -29.6841  -13.4645   17.7657 H   0  0  0  0  0  0
  -27.8179  -11.3176   18.8247 H   0  0  0  0  0  0
  -27.3767  -12.6518   17.7872 H   0  0  0  0  0  0
  -27.6985  -14.2691   19.5664 H   0  0  0  0  0  0
  -28.6872  -12.0274   21.3854 H   0  0  0  0  0  0
  -28.5042  -13.6977   21.8351 H   0  0  0  0  0  0
  -25.2794   -9.5585   22.4695 H   0  0  0  0  0  0
  -24.0013   -7.4550   22.7361 H   0  0  0  0  0  0
  -21.0813   -8.8763   19.8982 H   0  0  0  0  0  0
  -22.3640  -10.9627   19.6179 H   0  0  0  0  0  0
  -21.2004   -7.6138   23.9741 H   0  0  0  0  0  0
  -21.1512   -6.0482   25.9067 H   0  0  0  0  0  0
  -22.0612   -2.7618   23.2751 H   0  0  0  0  0  0
  -22.4178  -11.9874   22.4822 H   0  0  0  0  0  0
  -21.1053  -13.0988   22.2335 H   0  0  0  0  0  0
  -24.6562  -15.8407   20.5674 H   0  0  0  0  0  0
  -26.3057  -15.6553   20.2552 H   0  0  0  0  0  0
  -26.7073  -32.5559   23.1229 H   0  0  0  0  0  0
  -24.9912  -33.9761   25.0465 H   0  0  0  0  0  0
  -22.6893  -31.3084   21.4186 H   0  0  0  0  0  0
  -23.3741  -35.9651   23.3320 H   0  0  0  0  0  0
  -24.3602  -36.8897   22.2062 H   0  0  0  0  0  0
  -23.7257  -37.6536   23.6636 H   0  0  0  0  0  0
  -26.0400  -31.6076   20.6013 H   0  0  0  0  0  0
  -26.8133  -30.8898   21.9854 H   0  0  0  0  0  0
  -28.0983  -29.1089   21.1812 H   0  0  0  0  0  0
  -26.0844  -25.9912   18.9980 H   0  0  0  0  0  0
  -23.9822  -27.3084   19.0272 H   0  0  0  0  0  0
  -23.7061  -30.6026   19.4119 H   0  0  0  0  0  0
  -22.7334  -29.2392   19.8757 H   0  0  0  0  0  0
  -25.1261  -36.1981   25.0849 H   0  0  0  0  0  0
  -20.9929  -28.3197   24.1477 H   0  0  0  0  0  0
  -20.5652  -26.2239   23.3605 H   0  0  0  0  0  0
  -21.6619  -26.7401   22.1240 H   0  0  0  0  0  0
  -19.6895  -25.6303   21.1225 H   0  0  0  0  0  0
  -19.6698  -27.3219   20.6791 H   0  0  0  0  0  0
  -17.4169  -26.6652   21.4040 H   0  0  0  0  0  0
  -18.0312  -26.0058   22.9046 H   0  0  0  0  0  0
  -19.7915  -30.7230   24.2316 H   0  0  0  0  0  0
  -17.5001  -31.6269   24.5158 H   0  0  0  0  0  0
  -15.5338  -30.3002   23.7624 H   0  0  0  0  0  0
  -15.8652  -28.0825   22.7073 H   0  0  0  0  0  0
  -24.5904  -30.6976   25.7863 H   0  0  0  0  0  0
  -24.8897  -32.2782   26.4969 H   0  0  0  0  0  0
  -25.8051  -30.8833   27.0295 H   0  0  0  0  0  0
  -26.2845  -29.6788   24.1108 H   0  0  0  0  0  0
  -27.4091  -29.7214   25.4519 H   0  0  0  0  0  0
  -27.8680  -30.4409   23.9247 H   0  0  0  0  0  0
  -27.2725  -33.3564   26.2089 H   0  0  0  0  0  0
  -28.3812  -32.6789   25.0224 H   0  0  0  0  0  0
  -28.0803  -31.8379   26.5336 H   0  0  0  0  0  0
  -28.2613  -38.0092   24.7446 H   0  0  0  0  0  0
  -28.1047  -36.2605   24.6365 H   0  0  0  0  0  0
  -27.2291  -37.1547   25.8883 H   0  0  0  0  0  0
  -20.9297  -29.8690   21.6939 H   0  0  0  0  0  0
  -26.0186  -38.2875   24.1372 H   0  0  0  0  0  0
  -31.5420  -16.8560   20.3103 H   0  0  0  0  0  0
  -27.3516  -24.6816   22.7854 H   0  0  0  0  0  0
  -26.4677  -24.7739   21.2654 H   0  0  0  0  0  0
  -26.6419  -26.1862   22.3064 H   0  0  0  0  0  0
  -27.8500  -22.8193   20.6979 H   0  0  0  0  0  0
  -28.6938  -23.0664   22.2209 H   0  0  0  0  0  0
  -29.1126  -26.1614   21.9356 H   0  0  0  0  0  0
  -27.7366  -16.9666   19.2261 H   0  0  0  0  0  0
  -26.7881  -18.3609   19.1997 H   0  0  0  0  0  0
  -30.7275  -22.2274   21.0086 H   0  0  0  0  0  0
  1 25  1  0  0  0
  1 30  2  0  0  0
  1 80  1  0  0  0
  2  3  1  0  0  0
  2 25  1  0  0  0
  2 85  1  0  0  0
  2 86  1  0  0  0
  3  4  1  0  0  0
  3 87  1  0  0  0
  3 88  1  0  0  0
  4  5  1  0  0  0
  4 89  1  0  0  0
  4 90  1  0  0  0
  5  6  1  0  0  0
  5 26  1  0  0  0
  5 91  1  0  0  0
  6 25  1  0  0  0
  6 92  1  0  0  0
  6 93  1  0  0  0
  7  8  2  0  0  0
  7 26  1  0  0  0
  7 29  1  0  0  0
  8  9  1  0  0  0
  8 22  1  0  0  0
  9 10  1  0  0  0
  9 27  2  0  0  0
 10 11  2  0  0  0
 10 15  1  0  0  0
 11 12  1  0  0  0
 11 94  1  0  0  0
 12 13  2  0  0  0
 12 95  1  0  0  0
 13 14  1  0  0  0
 13 31  1  0  0  0
 14 15  2  0  0  0
 14 96  1  0  0  0
 15 97  1  0  0  0
 16 17  2  0  0  0
 16 21  1  0  0  0
 16 31  1  0  0  0
 17 18  1  0  0  0
 17 98  1  0  0  0
 18 19  2  0  0  0
 18 99  1  0  0  0
 19 20  1  0  0  0
 19 24  1  0  0  0
 20 21  2  0  0  0
 20100  1  0  0  0
 21 23  1  0  0  0
 22 28  1  0  0  0
 22 32  2  0  0  0
 26 27  1  0  0  0
 28101  1  0  0  0
 28102  1  0  0  0
 29103  1  0  0  0
 29104  1  0  0  0
 33 34  1  0  0  0
 33 66  1  0  0  0
 33 70  2  0  0  0
 34 36  1  0  0  0
 34 59  1  0  0  0
 34105  1  0  0  0
 35 44  2  0  0  0
 35 45  1  0  0  0
 35 68  1  0  0  0
 36 56  1  0  0  0
 36106  1  0  0  0
 37 39  1  0  0  0
 37 47  1  0  0  0
 37 66  1  0  0  0
 37107  1  0  0  0
 38 43  2  0  0  0
 38 46  1  0  0  0
 38 47  1  0  0  0
 39 64  1  0  0  0
 39 67  2  0  0  0
 40 52  1  0  0  0
 40 53  2  0  0  0
 40 58  1  0  0  0
 41108  1  0  0  0
 41109  1  0  0  0
 41110  1  0  0  0
 41 48  1  0  0  0
 42 43  1  0  0  0
 42 66  1  0  0  0
 42111  1  0  0  0
 42112  1  0  0  0
 43 44  1  0  0  0
 44113  1  0  0  0
 45 46  2  0  0  0
 45114  1  0  0  0
 46115  1  0  0  0
 47116  1  0  0  0
 47117  1  0  0  0
 48 56  1  0  0  0
 48 65  1  0  0  0
 48118  1  0  0  0
 49 50  1  0  0  0
 49 53  1  0  0  0
 49 64  1  0  0  0
 49119  1  0  0  0
 50 51  1  0  0  0
 50120  1  0  0  0
 50121  1  0  0  0
 51 52  1  0  0  0
 51122  1  0  0  0
 51123  1  0  0  0
 52124  1  0  0  0
 52125  1  0  0  0
 53 54  1  0  0  0
 54 55  2  0  0  0
 54126  1  0  0  0
 55 57  1  0  0  0
 55127  1  0  0  0
 56 69  2  0  0  0
 57 58  2  0  0  0
 57128  1  0  0  0
 58129  1  0  0  0
 59 60  1  0  0  0
 59 61  1  0  0  0
 59 62  1  0  0  0
 60130  1  0  0  0
 60131  1  0  0  0
 60132  1  0  0  0
 61133  1  0  0  0
 61134  1  0  0  0
 61135  1  0  0  0
 62136  1  0  0  0
 62137  1  0  0  0
 62138  1  0  0  0
 63 65  1  0  0  0
 63139  1  0  0  0
 63140  1  0  0  0
 63141  1  0  0  0
 64142  1  0  0  0
 65143  1  0  0  0
 68 78  1  0  0  0
 71 72  2  0  0  0
 71 74  1  0  0  0
 71 84  1  0  0  0
 72 79  1  0  0  0
 72 81  1  0  0  0
 73 79  2  0  0  0
 73 82  1  0  0  0
 73 84  1  0  0  0
 74 80  2  0  0  0
 74144  1  0  0  0
 75 77  1  0  0  0
 75 78  1  0  0  0
 75 83  2  0  0  0
 76145  1  0  0  0
 76146  1  0  0  0
 76147  1  0  0  0
 76 78  1  0  0  0
 77 82  1  0  0  0
 77148  1  0  0  0
 77149  1  0  0  0
 78150  1  0  0  0
 81151  1  0  0  0
 81152  1  0  0  0
 82153  1  0  0  0
M  ISO  4   1 100  68 101  78 101  80 100
M  END
> <chiral flag>
0

> <version>
0

> <s_m_source_file>
/data/baiqing/PycharmProjects/Reinvent-master-3.2/result/LINK_invent/BTK/process_docking_weight1_custom_product_contain_oxygen_bond_distance_aromatic_linkinvent_7_9_3/rearranged_h_0182.sdf

> <i_m_source_file_index>
38

> <r_mmod_Potential_Energy-OPLS-2005>
-48.6856422424316

> <r_mmod_Stretch_Energy-OPLS-2005>
41.8058090209961

> <r_mmod_Bend_Energy-OPLS-2005>
106.255012512207

> <r_mmod_Torsional_Energy-OPLS-2005>
212.169372558594

> <r_mmod_Improper_Torsional_Energy-OPLS-2005>
9.66926574707031

> <r_mmod_Van_der_Waal_Energy-OPLS-2005>
144.139801025391

> <r_mmod_Electrostatic_Energy-OPLS-2005>
-356.489959716797

> <r_mmod_Solvation_Energy-OPLS-2005>
-226.540924072266

> <b_mmod_Minimization_Converged-OPLS-2005>
0

> <r_mmod_RMS_Derivative-OPLS-2005>
4.79008531570435

$$$$
38
                    3D
 Structure written by MMmdl.
151159  0  0  1  0            999 V2000
  -30.7234  -14.7448   20.5255 C   0  0  0  0  0  0
  -30.4195  -12.4827   19.4884 C   0  0  0  0  0  0
  -29.4976  -12.4663   18.2527 C   0  0  0  0  0  0
  -28.0480  -12.2176   18.6938 C   0  0  0  0  0  0
  -27.6263  -13.1847   19.8191 C   0  0  2  0  0  0
  -28.6699  -13.2644   20.9662 C   0  0  0  0  0  0
  -25.2483  -13.8044   20.5688 C   0  0  0  0  0  0
  -24.1776  -13.0335   20.9268 C   0  0  0  0  0  0
  -24.6343  -11.6822   20.8797 C   0  0  0  0  0  0
  -23.9031  -10.4237   21.0448 C   0  0  0  0  0  0
  -24.3597   -9.4155   21.9207 C   0  0  0  0  0  0
  -23.6277   -8.2202   22.0750 C   0  0  0  0  0  0
  -22.4265   -8.0252   21.3534 C   0  0  0  0  0  0
  -21.9905   -9.0224   20.4640 C   0  0  0  0  0  0
  -22.7222  -10.2104   20.3064 C   0  0  0  0  0  0
  -21.6818   -6.0726   22.5289 C   0  0  0  0  0  0
  -21.3989   -6.5644   23.8226 C   0  0  0  0  0  0
  -21.3640   -5.6788   24.9191 C   0  0  0  0  0  0
  -21.6057   -4.3057   24.7243 C   0  0  0  0  0  0
  -21.8806   -3.8141   23.4369 C   0  0  0  0  0  0
  -21.9181   -4.6954   22.3421 C   0  0  0  0  0  0
  -22.7836  -13.5179   21.1929 C   0  0  0  0  0  0
  -22.1649   -4.2129   21.0999 F   0  0  0  0  0  0
  -21.5643   -3.4555   25.7769 F   0  0  0  0  0  0
  -29.9836  -13.5830   20.3911 N   0  0  0  0  0  0
  -26.2854  -12.9160   20.3193 N   0  0  0  0  0  0
  -25.9249  -11.6373   20.5809 N   0  0  0  0  0  0
  -22.0465  -12.8187   22.0482 N   0  0  0  0  0  0
  -25.4048  -15.1767   20.4054 N   0  0  0  0  0  0
  -31.8677  -14.7733   20.0710 O   0  0  0  0  0  0
  -21.6598   -6.8859   21.4249 O   0  0  0  0  0  0
  -22.3571  -14.5508   20.6781 O   0  0  0  0  0  0
  -24.6317  -31.8577   23.2015 C   0  0  0  0  0  0
  -25.9135  -32.4778   23.8353 C   0  0  1  0  0  0
  -27.2094  -27.2657   20.1278 C   0  0  0  0  0  0
  -25.5934  -33.8577   24.2285 N   0  0  0  0  0  0
  -23.4279  -30.4827   21.5456 C   0  0  2  0  0  0
  -24.8734  -28.9368   20.1106 C   0  0  0  0  0  0
  -22.7491  -29.4635   22.4907 C   0  0  0  0  0  0
  -18.0313  -28.1388   22.8478 C   0  0  0  0  0  0
  -24.1496  -36.7283   23.2647 C   0  0  0  0  0  0
  -25.9768  -30.7701   21.3853 C   0  0  0  0  0  0
  -26.0462  -29.3967   20.7218 C   0  0  0  0  0  0
  -27.2196  -28.5733   20.7213 C   0  0  0  0  0  0
  -26.0137  -26.8835   19.4742 C   0  0  0  0  0  0
  -24.8618  -27.6868   19.4760 C   0  0  0  0  0  0
  -23.6462  -29.8244   20.1595 C   0  0  0  0  0  0
  -25.4129  -36.3101   24.0337 C   0  0  1  0  0  0
  -20.5918  -28.3745   23.1280 C   0  0  2  0  0  0
  -20.6811  -26.9438   22.5483 C   0  0  0  0  0  0
  -19.5834  -26.6399   21.5225 C   0  0  0  0  0  0
  -18.2005  -26.7926   22.1623 C   0  0  0  0  0  0
  -19.1552  -28.8882   23.2874 C   0  0  0  0  0  0
  -18.9451  -30.1478   23.8898 C   0  0  0  0  0  0
  -17.6442  -30.6590   24.0569 C   0  0  0  0  0  0
  -25.9054  -34.9460   23.5122 C   0  0  0  0  0  0
  -16.5353  -29.9067   23.6332 C   0  0  0  0  0  0
  -16.7282  -28.6487   23.0342 C   0  0  0  0  0  0
  -26.4501  -31.6599   25.0743 C   0  0  0  0  0  0
  -25.3701  -31.3738   26.1449 C   0  0  0  0  0  0
  -27.0360  -30.3016   24.6249 C   0  0  0  0  0  0
  -27.6069  -32.4330   25.7499 C   0  0  0  0  0  0
  -27.5589  -37.1803   24.8475 C   0  0  0  0  0  0
  -21.4215  -29.3058   22.3618 N   0  0  0  0  0  0
  -26.4301  -37.3797   23.9422 N   0  0  0  0  0  0
  -24.6975  -31.0529   22.0999 N   0  0  0  0  0  0
  -23.4175  -28.8191   23.3023 O   0  0  0  0  0  0
  -28.2840  -26.3458   20.2052 O   0  0  0  0  0  0
  -26.5632  -34.8924   22.4690 O   0  0  0  0  0  0
  -23.5455  -32.1400   23.7302 O   0  0  0  0  0  0
  -28.2840  -16.8330   20.1224 C   0  0  0  0  0  0
  -29.0099  -19.4645   20.5489 C   0  0  0  0  0  0
  -29.5348  -17.0736   20.7037 C   0  0  0  0  0  0
  -27.7461  -19.0782   19.9949 C   0  0  0  0  0  0
  -29.4133  -20.9716   20.7926 C   0  0  0  0  0  0
  -28.9511  -23.7458   20.4693 C   0  0  0  0  0  0
  -28.5376  -22.2059   20.2420 C   0  0  0  0  0  0
  -27.9664  -24.8954   19.9554 C   0  0  0  0  0  0
  -27.4110  -17.7928   19.7677 N   0  0  0  0  0  0
  -29.8762  -18.4157   20.9079 N   0  0  0  0  0  0
  -26.6902  -19.9182   19.6636 N   0  0  0  0  0  0
  -30.2772  -15.8876   21.1760 N   0  0  0  0  0  0
  -30.4426  -21.2212   21.4336 O   0  0  0  0  0  0
  -30.0095  -24.0630   21.0259 O   0  0  0  0  0  0
  -31.4570  -12.5747   19.1645 H   0  0  0  0  0  0
  -30.3700  -11.5318   20.0207 H   0  0  0  0  0  0
  -29.8101  -11.6840   17.5594 H   0  0  0  0  0  0
  -29.5697  -13.4126   17.7145 H   0  0  0  0  0  0
  -27.9800  -11.1920   19.0570 H   0  0  0  0  0  0
  -27.3679  -12.2850   17.8415 H   0  0  0  0  0  0
  -27.5604  -14.1155   19.2739 H   0  0  0  0  0  0
  -28.7233  -12.3218   21.5128 H   0  0  0  0  0  0
  -28.3726  -14.0261   21.6867 H   0  0  0  0  0  0
  -25.2728   -9.5654   22.4802 H   0  0  0  0  0  0
  -23.9967   -7.4593   22.7481 H   0  0  0  0  0  0
  -21.0829   -8.8773   19.8959 H   0  0  0  0  0  0
  -22.3689  -10.9672   19.6201 H   0  0  0  0  0  0
  -21.1966   -7.6144   23.9731 H   0  0  0  0  0  0
  -21.1469   -6.0525   25.9088 H   0  0  0  0  0  0
  -22.0598   -2.7603   23.2889 H   0  0  0  0  0  0
  -22.4034  -11.9792   22.4806 H   0  0  0  0  0  0
  -21.1110  -13.1265   22.2669 H   0  0  0  0  0  0
  -24.6240  -15.8113   20.5255 H   0  0  0  0  0  0
  -26.2247  -15.6394   20.0351 H   0  0  0  0  0  0
  -26.7205  -32.5409   23.1091 H   0  0  0  0  0  0
  -25.0081  -33.9737   25.0433 H   0  0  0  0  0  0
  -22.7271  -31.3086   21.4038 H   0  0  0  0  0  0
  -23.3765  -35.9601   23.3325 H   0  0  0  0  0  0
  -24.3574  -36.8873   22.2050 H   0  0  0  0  0  0
  -23.7220  -37.6484   23.6640 H   0  0  0  0  0  0
  -26.1260  -31.5345   20.6214 H   0  0  0  0  0  0
  -26.8504  -30.8098   22.0221 H   0  0  0  0  0  0
  -28.1155  -28.9207   21.2195 H   0  0  0  0  0  0
  -25.9248  -25.9386   18.9584 H   0  0  0  0  0  0
  -23.9642  -27.3303   18.9904 H   0  0  0  0  0  0
  -23.7732  -30.6048   19.4076 H   0  0  0  0  0  0
  -22.7643  -29.2623   19.8511 H   0  0  0  0  0  0
  -25.1303  -36.1971   25.0821 H   0  0  0  0  0  0
  -21.0022  -28.3378   24.1385 H   0  0  0  0  0  0
  -20.5613  -26.2371   23.3713 H   0  0  0  0  0  0
  -21.6713  -26.7431   22.1379 H   0  0  0  0  0  0
  -19.7003  -25.6320   21.1260 H   0  0  0  0  0  0
  -19.6781  -27.3210   20.6747 H   0  0  0  0  0  0
  -17.4284  -26.6663   21.4022 H   0  0  0  0  0  0
  -18.0388  -26.0082   22.9047 H   0  0  0  0  0  0
  -19.7918  -30.7325   24.2254 H   0  0  0  0  0  0
  -17.5004  -31.6249   24.5195 H   0  0  0  0  0  0
  -15.5357  -30.2957   23.7693 H   0  0  0  0  0  0
  -15.8707  -28.0790   22.7036 H   0  0  0  0  0  0
  -24.5882  -30.7105   25.7752 H   0  0  0  0  0  0
  -24.8867  -32.2883   26.4884 H   0  0  0  0  0  0
  -25.7968  -30.8887   27.0234 H   0  0  0  0  0  0
  -26.2949  -29.6759   24.1263 H   0  0  0  0  0  0
  -27.4035  -29.7319   25.4802 H   0  0  0  0  0  0
  -27.8848  -30.4335   23.9532 H   0  0  0  0  0  0
  -27.2721  -33.3648   26.2088 H   0  0  0  0  0  0
  -28.3856  -32.6861   25.0284 H   0  0  0  0  0  0
  -28.0783  -31.8439   26.5385 H   0  0  0  0  0  0
  -28.2638  -38.0079   24.7516 H   0  0  0  0  0  0
  -28.1054  -36.2602   24.6315 H   0  0  0  0  0  0
  -27.2298  -37.1487   25.8879 H   0  0  0  0  0  0
  -20.9420  -29.8680   21.6699 H   0  0  0  0  0  0
  -26.0195  -38.2887   24.1359 H   0  0  0  0  0  0
  -27.9280  -15.8389   20.0367 H   0  0  0  0  0  0
  -27.5461  -22.1093   20.6816 H   0  0  0  0  0  0
  -28.4161  -22.0587   19.1684 H   0  0  0  0  0  0
  -26.9975  -24.6728   20.4058 H   0  0  0  0  0  0
  -27.8463  -24.7599   18.8791 H   0  0  0  0  0  0
  -26.4938  -20.6968   20.2834 H   0  0  0  0  0  0
  -25.8380  -19.4335   19.3991 H   0  0  0  0  0  0
  -31.0718  -16.2150   21.7034 H   0  0  0  0  0  0
  1 25  1  0  0  0
  1 30  2  0  0  0
  1 82  1  0  0  0
  2  3  1  0  0  0
  2 25  1  0  0  0
  2 85  1  0  0  0
  2 86  1  0  0  0
  3  4  1  0  0  0
  3 87  1  0  0  0
  3 88  1  0  0  0
  4  5  1  0  0  0
  4 89  1  0  0  0
  4 90  1  0  0  0
  5  6  1  0  0  0
  5 26  1  0  0  0
  5 91  1  0  0  0
  6 25  1  0  0  0
  6 92  1  0  0  0
  6 93  1  0  0  0
  7  8  2  0  0  0
  7 26  1  0  0  0
  7 29  1  0  0  0
  8  9  1  0  0  0
  8 22  1  0  0  0
  9 10  1  0  0  0
  9 27  2  0  0  0
 10 11  2  0  0  0
 10 15  1  0  0  0
 11 12  1  0  0  0
 11 94  1  0  0  0
 12 13  2  0  0  0
 12 95  1  0  0  0
 13 14  1  0  0  0
 13 31  1  0  0  0
 14 15  2  0  0  0
 14 96  1  0  0  0
 15 97  1  0  0  0
 16 17  2  0  0  0
 16 21  1  0  0  0
 16 31  1  0  0  0
 17 18  1  0  0  0
 17 98  1  0  0  0
 18 19  2  0  0  0
 18 99  1  0  0  0
 19 20  1  0  0  0
 19 24  1  0  0  0
 20 21  2  0  0  0
 20100  1  0  0  0
 21 23  1  0  0  0
 22 28  1  0  0  0
 22 32  2  0  0  0
 26 27  1  0  0  0
 28101  1  0  0  0
 28102  1  0  0  0
 29103  1  0  0  0
 29104  1  0  0  0
 33 34  1  0  0  0
 33 66  1  0  0  0
 33 70  2  0  0  0
 34 36  1  0  0  0
 34 59  1  0  0  0
 34105  1  0  0  0
 35 44  2  0  0  0
 35 45  1  0  0  0
 35 68  1  0  0  0
 36 56  1  0  0  0
 36106  1  0  0  0
 37 39  1  0  0  0
 37 47  1  0  0  0
 37 66  1  0  0  0
 37107  1  0  0  0
 38 43  2  0  0  0
 38 46  1  0  0  0
 38 47  1  0  0  0
 39 64  1  0  0  0
 39 67  2  0  0  0
 40 52  1  0  0  0
 40 53  2  0  0  0
 40 58  1  0  0  0
 41108  1  0  0  0
 41109  1  0  0  0
 41110  1  0  0  0
 41 48  1  0  0  0
 42 43  1  0  0  0
 42 66  1  0  0  0
 42111  1  0  0  0
 42112  1  0  0  0
 43 44  1  0  0  0
 44113  1  0  0  0
 45 46  2  0  0  0
 45114  1  0  0  0
 46115  1  0  0  0
 47116  1  0  0  0
 47117  1  0  0  0
 48 56  1  0  0  0
 48 65  1  0  0  0
 48118  1  0  0  0
 49 50  1  0  0  0
 49 53  1  0  0  0
 49 64  1  0  0  0
 49119  1  0  0  0
 50 51  1  0  0  0
 50120  1  0  0  0
 50121  1  0  0  0
 51 52  1  0  0  0
 51122  1  0  0  0
 51123  1  0  0  0
 52124  1  0  0  0
 52125  1  0  0  0
 53 54  1  0  0  0
 54 55  2  0  0  0
 54126  1  0  0  0
 55 57  1  0  0  0
 55127  1  0  0  0
 56 69  2  0  0  0
 57 58  2  0  0  0
 57128  1  0  0  0
 58129  1  0  0  0
 59 60  1  0  0  0
 59 61  1  0  0  0
 59 62  1  0  0  0
 60130  1  0  0  0
 60131  1  0  0  0
 60132  1  0  0  0
 61133  1  0  0  0
 61134  1  0  0  0
 61135  1  0  0  0
 62136  1  0  0  0
 62137  1  0  0  0
 62138  1  0  0  0
 63 65  1  0  0  0
 63139  1  0  0  0
 63140  1  0  0  0
 63141  1  0  0  0
 64142  1  0  0  0
 65143  1  0  0  0
 68 78  1  0  0  0
 71 73  2  0  0  0
 71 79  1  0  0  0
 71144  1  0  0  0
 72 74  1  0  0  0
 72 75  1  0  0  0
 72 80  2  0  0  0
 73 80  1  0  0  0
 73 82  1  0  0  0
 74 79  2  0  0  0
 74 81  1  0  0  0
 75 77  1  0  0  0
 75 83  2  0  0  0
 76 77  1  0  0  0
 76 78  1  0  0  0
 76 84  2  0  0  0
 77145  1  0  0  0
 77146  1  0  0  0
 78147  1  0  0  0
 78148  1  0  0  0
 81149  1  0  0  0
 81150  1  0  0  0
 82151  1  0  0  0
M  ISO  4   1 100  68 101  78 101  82 100
M  END
> <chiral flag>
0

> <version>
0

> <s_m_source_file>
/data/baiqing/PycharmProjects/Reinvent-master-3.2/result/LINK_invent/BTK/process_docking_weight1_custom_product_contain_oxygen_bond_distance_aromatic_linkinvent_7_9_3/rearranged_h_0182.sdf

> <i_m_source_file_index>
39

> <r_mmod_Potential_Energy-OPLS-2005>
261.759826660156

> <r_mmod_Stretch_Energy-OPLS-2005>
134.600875854492

> <r_mmod_Bend_Energy-OPLS-2005>
213.017639160156

> <r_mmod_Torsional_Energy-OPLS-2005>
276.217956542969

> <r_mmod_Improper_Torsional_Energy-OPLS-2005>
11.4732904434204

> <r_mmod_Van_der_Waal_Energy-OPLS-2005>
155.495590209961

> <r_mmod_Electrostatic_Energy-OPLS-2005>
-359.219116210938

> <r_mmod_Solvation_Energy-OPLS-2005>
-267.722045898438

> <b_mmod_Minimization_Converged-OPLS-2005>
0

> <r_mmod_RMS_Derivative-OPLS-2005>
4.0400767326355

$$$$
39
                    3D
 Structure written by MMmdl.
150158  0  0  1  0            999 V2000
  -30.5764  -14.7888   20.4444 C   0  0  0  0  0  0
  -30.4398  -12.4761   19.4873 C   0  0  0  0  0  0
  -29.5213  -12.5240   18.2442 C   0  0  0  0  0  0
  -28.0460  -12.3385   18.6516 C   0  0  0  0  0  0
  -27.6457  -13.2345   19.8541 C   0  0  2  0  0  0
  -28.6871  -13.1679   20.9935 C   0  0  0  0  0  0
  -25.2523  -13.8200   20.5669 C   0  0  0  0  0  0
  -24.1819  -13.0449   20.9197 C   0  0  0  0  0  0
  -24.6404  -11.6923   20.8730 C   0  0  0  0  0  0
  -23.9077  -10.4302   21.0402 C   0  0  0  0  0  0
  -24.3626   -9.4220   21.9186 C   0  0  0  0  0  0
  -23.6303   -8.2254   22.0757 C   0  0  0  0  0  0
  -22.4288   -8.0285   21.3543 C   0  0  0  0  0  0
  -21.9918   -9.0258   20.4648 C   0  0  0  0  0  0
  -22.7245  -10.2139   20.3051 C   0  0  0  0  0  0
  -21.6854   -6.0737   22.5282 C   0  0  0  0  0  0
  -21.4008   -6.5637   23.8214 C   0  0  0  0  0  0
  -21.3663   -5.6789   24.9175 C   0  0  0  0  0  0
  -21.6055   -4.3053   24.7223 C   0  0  0  0  0  0
  -21.8823   -3.8141   23.4344 C   0  0  0  0  0  0
  -21.9192   -4.6961   22.3401 C   0  0  0  0  0  0
  -22.7839  -13.5235   21.1845 C   0  0  0  0  0  0
  -22.1663   -4.2142   21.0978 F   0  0  0  0  0  0
  -21.5638   -3.4536   25.7737 F   0  0  0  0  0  0
  -29.9895  -13.5374   20.4227 N   0  0  0  0  0  0
  -26.2957  -12.9411   20.3260 N   0  0  0  0  0  0
  -25.9339  -11.6554   20.5733 N   0  0  0  0  0  0
  -22.0474  -12.8237   22.0401 N   0  0  0  0  0  0
  -25.4201  -15.1925   20.4059 N   0  0  0  0  0  0
  -31.7509  -14.9077   20.0822 O   0  0  0  0  0  0
  -21.6652   -6.8882   21.4241 O   0  0  0  0  0  0
  -22.3536  -14.5546   20.6686 O   0  0  0  0  0  0
  -24.6343  -31.8516   23.1943 C   0  0  0  0  0  0
  -25.9153  -32.4736   23.8308 C   0  0  1  0  0  0
  -27.2285  -27.2284   20.1258 C   0  0  0  0  0  0
  -25.5937  -33.8541   24.2233 N   0  0  0  0  0  0
  -23.4339  -30.4714   21.5380 C   0  0  2  0  0  0
  -24.8831  -28.9101   20.1083 C   0  0  0  0  0  0
  -22.7527  -29.4578   22.4892 C   0  0  0  0  0  0
  -18.0303  -28.1396   22.8495 C   0  0  0  0  0  0
  -24.1489  -36.7271   23.2637 C   0  0  0  0  0  0
  -25.9820  -30.7515   21.3799 C   0  0  0  0  0  0
  -26.0544  -29.3713   20.7207 C   0  0  0  0  0  0
  -27.2252  -28.5420   20.7199 C   0  0  0  0  0  0
  -26.0288  -26.8388   19.4894 C   0  0  0  0  0  0
  -24.8769  -27.6531   19.4827 C   0  0  0  0  0  0
  -23.6542  -29.8001   20.1560 C   0  0  0  0  0  0
  -25.4118  -36.3058   24.0323 C   0  0  1  0  0  0
  -20.5907  -28.3719   23.1261 C   0  0  2  0  0  0
  -20.6787  -26.9426   22.5414 C   0  0  0  0  0  0
  -19.5755  -26.6386   21.5228 C   0  0  0  0  0  0
  -18.1939  -26.7939   22.1634 C   0  0  0  0  0  0
  -19.1558  -28.8874   23.2874 C   0  0  0  0  0  0
  -18.9470  -30.1471   23.8898 C   0  0  0  0  0  0
  -17.6466  -30.6595   24.0562 C   0  0  0  0  0  0
  -25.9069  -34.9429   23.5087 C   0  0  0  0  0  0
  -16.5357  -29.9090   23.6331 C   0  0  0  0  0  0
  -16.7285  -28.6501   23.0364 C   0  0  0  0  0  0
  -26.4508  -31.6574   25.0715 C   0  0  0  0  0  0
  -25.3706  -31.3747   26.1418 C   0  0  0  0  0  0
  -27.0356  -30.2981   24.6229 C   0  0  0  0  0  0
  -27.6056  -32.4321   25.7494 C   0  0  0  0  0  0
  -27.5584  -37.1785   24.8459 C   0  0  0  0  0  0
  -21.4231  -29.3049   22.3639 N   0  0  0  0  0  0
  -26.4290  -37.3765   23.9406 N   0  0  0  0  0  0
  -24.7026  -31.0446   22.0934 N   0  0  0  0  0  0
  -23.4206  -28.8123   23.3009 O   0  0  0  0  0  0
  -28.3240  -26.3253   20.2193 O   0  0  0  0  0  0
  -26.5646  -34.8912   22.4659 O   0  0  0  0  0  0
  -23.5480  -32.1360   23.7212 O   0  0  0  0  0  0
  -30.2364  -17.9200   19.2543 C   0  0  0  0  0  0
  -30.0259  -19.3684   19.2307 C   0  0  0  0  0  0
  -29.8250  -17.2758   20.4159 C   0  0  0  0  0  0
  -29.4314  -19.9701   20.3253 C   0  0  0  0  0  0
  -28.2955  -24.9579   19.7704 C   0  0  0  0  0  0
  -28.7599  -23.8097   20.4201 C   0  0  0  0  0  0
  -28.7889  -22.4128   19.8032 C   0  0  0  0  0  0
  -30.8295  -17.1994   18.0785 C   0  0  0  0  0  0
  -29.1673  -21.3373   20.6062 N   0  0  0  0  0  0
  -29.7816  -15.8959   20.7540 N   0  0  0  0  0  0
  -28.4731  -22.2153   18.6290 O   0  0  0  0  0  0
  -29.2375  -23.9394   21.6661 O   0  0  0  0  0  0
  -30.4252  -20.0688   18.1934 F   0  0  0  0  0  0
  -29.1504  -18.5938   21.4515 S   0  0  0  0  0  0
  -31.4816  -12.6042   19.1897 H   0  0  0  0  0  0
  -30.3880  -11.4972   19.9671 H   0  0  0  0  0  0
  -29.8138  -11.7546   17.5278 H   0  0  0  0  0  0
  -29.6449  -13.4798   17.7335 H   0  0  0  0  0  0
  -27.9086  -11.2887   18.9145 H   0  0  0  0  0  0
  -27.3906  -12.5277   17.8006 H   0  0  0  0  0  0
  -27.6407  -14.2573   19.4767 H   0  0  0  0  0  0
  -28.7303  -12.1667   21.4251 H   0  0  0  0  0  0
  -28.4105  -13.8370   21.8092 H   0  0  0  0  0  0
  -25.2768   -9.5704   22.4759 H   0  0  0  0  0  0
  -24.0017   -7.4652   22.7484 H   0  0  0  0  0  0
  -21.0847   -8.8773   19.8963 H   0  0  0  0  0  0
  -22.3697  -10.9678   19.6157 H   0  0  0  0  0  0
  -21.1990   -7.6143   23.9713 H   0  0  0  0  0  0
  -21.1489   -6.0515   25.9081 H   0  0  0  0  0  0
  -22.0598   -2.7601   23.2838 H   0  0  0  0  0  0
  -22.4071  -11.9894   22.4801 H   0  0  0  0  0  0
  -21.1099  -13.1281   22.2592 H   0  0  0  0  0  0
  -24.6473  -15.8417   20.5061 H   0  0  0  0  0  0
  -26.2594  -15.6303   20.0480 H   0  0  0  0  0  0
  -26.7218  -32.5372   23.1039 H   0  0  0  0  0  0
  -25.0064  -33.9673   25.0363 H   0  0  0  0  0  0
  -22.7317  -31.2945   21.3880 H   0  0  0  0  0  0
  -23.3767  -35.9592   23.3289 H   0  0  0  0  0  0
  -24.3573  -36.8909   22.2051 H   0  0  0  0  0  0
  -23.7230  -37.6459   23.6674 H   0  0  0  0  0  0
  -26.1264  -31.5094   20.6088 H   0  0  0  0  0  0
  -26.8575  -30.8009   22.0160 H   0  0  0  0  0  0
  -28.1198  -28.8869   21.2186 H   0  0  0  0  0  0
  -25.9464  -25.8700   19.0208 H   0  0  0  0  0  0
  -23.9767  -27.2921   19.0033 H   0  0  0  0  0  0
  -23.7783  -30.5737   19.3976 H   0  0  0  0  0  0
  -22.7726  -29.2320   19.8529 H   0  0  0  0  0  0
  -25.1302  -36.1899   25.0817 H   0  0  0  0  0  0
  -21.0011  -28.3308   24.1380 H   0  0  0  0  0  0
  -20.5703  -26.2333   23.3633 H   0  0  0  0  0  0
  -21.6648  -26.7452   22.1190 H   0  0  0  0  0  0
  -19.6913  -25.6296   21.1264 H   0  0  0  0  0  0
  -19.6690  -27.3192   20.6755 H   0  0  0  0  0  0
  -17.4215  -26.6710   21.4028 H   0  0  0  0  0  0
  -18.0319  -26.0079   22.9025 H   0  0  0  0  0  0
  -19.7943  -30.7291   24.2268 H   0  0  0  0  0  0
  -17.5016  -31.6277   24.5158 H   0  0  0  0  0  0
  -15.5356  -30.2988   23.7652 H   0  0  0  0  0  0
  -15.8687  -28.0810   22.7086 H   0  0  0  0  0  0
  -24.5877  -30.7113   25.7721 H   0  0  0  0  0  0
  -24.8904  -32.2934   26.4803 H   0  0  0  0  0  0
  -25.7985  -30.8928   27.0216 H   0  0  0  0  0  0
  -26.2947  -29.6724   24.1238 H   0  0  0  0  0  0
  -27.4003  -29.7249   25.4763 H   0  0  0  0  0  0
  -27.8844  -30.4238   23.9505 H   0  0  0  0  0  0
  -27.2657  -33.3623   26.2058 H   0  0  0  0  0  0
  -28.3875  -32.6878   25.0332 H   0  0  0  0  0  0
  -28.0721  -31.8460   26.5421 H   0  0  0  0  0  0
  -28.2578  -38.0101   24.7537 H   0  0  0  0  0  0
  -28.1106  -36.2638   24.6254 H   0  0  0  0  0  0
  -27.2310  -37.1387   25.8862 H   0  0  0  0  0  0
  -20.9434  -29.8756   21.6818 H   0  0  0  0  0  0
  -26.0169  -38.2836   24.1425 H   0  0  0  0  0  0
  -27.8936  -24.8901   18.7683 H   0  0  0  0  0  0
  -30.7505  -17.7878   17.1645 H   0  0  0  0  0  0
  -30.3260  -16.2505   17.8914 H   0  0  0  0  0  0
  -31.8868  -16.9895   18.2397 H   0  0  0  0  0  0
  -29.2661  -21.6054   21.5759 H   0  0  0  0  0  0
  -28.9461  -15.6294   21.2532 H   0  0  0  0  0  0
  -29.1567  -24.8567   21.8953 H   0  0  0  0  0  0
  1 25  1  0  0  0
  1 30  2  0  0  0
  1 80  1  0  0  0
  2  3  1  0  0  0
  2 25  1  0  0  0
  2 85  1  0  0  0
  2 86  1  0  0  0
  3  4  1  0  0  0
  3 87  1  0  0  0
  3 88  1  0  0  0
  4  5  1  0  0  0
  4 89  1  0  0  0
  4 90  1  0  0  0
  5  6  1  0  0  0
  5 26  1  0  0  0
  5 91  1  0  0  0
  6 25  1  0  0  0
  6 92  1  0  0  0
  6 93  1  0  0  0
  7  8  2  0  0  0
  7 26  1  0  0  0
  7 29  1  0  0  0
  8  9  1  0  0  0
  8 22  1  0  0  0
  9 10  1  0  0  0
  9 27  2  0  0  0
 10 11  2  0  0  0
 10 15  1  0  0  0
 11 12  1  0  0  0
 11 94  1  0  0  0
 12 13  2  0  0  0
 12 95  1  0  0  0
 13 14  1  0  0  0
 13 31  1  0  0  0
 14 15  2  0  0  0
 14 96  1  0  0  0
 15 97  1  0  0  0
 16 17  2  0  0  0
 16 21  1  0  0  0
 16 31  1  0  0  0
 17 18  1  0  0  0
 17 98  1  0  0  0
 18 19  2  0  0  0
 18 99  1  0  0  0
 19 20  1  0  0  0
 19 24  1  0  0  0
 20 21  2  0  0  0
 20100  1  0  0  0
 21 23  1  0  0  0
 22 28  1  0  0  0
 22 32  2  0  0  0
 26 27  1  0  0  0
 28101  1  0  0  0
 28102  1  0  0  0
 29103  1  0  0  0
 29104  1  0  0  0
 33 34  1  0  0  0
 33 66  1  0  0  0
 33 70  2  0  0  0
 34 36  1  0  0  0
 34 59  1  0  0  0
 34105  1  0  0  0
 35 44  2  0  0  0
 35 45  1  0  0  0
 35 68  1  0  0  0
 36 56  1  0  0  0
 36106  1  0  0  0
 37 39  1  0  0  0
 37 47  1  0  0  0
 37 66  1  0  0  0
 37107  1  0  0  0
 38 43  2  0  0  0
 38 46  1  0  0  0
 38 47  1  0  0  0
 39 64  1  0  0  0
 39 67  2  0  0  0
 40 52  1  0  0  0
 40 53  2  0  0  0
 40 58  1  0  0  0
 41108  1  0  0  0
 41109  1  0  0  0
 41110  1  0  0  0
 41 48  1  0  0  0
 42 43  1  0  0  0
 42 66  1  0  0  0
 42111  1  0  0  0
 42112  1  0  0  0
 43 44  1  0  0  0
 44113  1  0  0  0
 45 46  2  0  0  0
 45114  1  0  0  0
 46115  1  0  0  0
 47116  1  0  0  0
 47117  1  0  0  0
 48 56  1  0  0  0
 48 65  1  0  0  0
 48118  1  0  0  0
 49 50  1  0  0  0
 49 53  1  0  0  0
 49 64  1  0  0  0
 49119  1  0  0  0
 50 51  1  0  0  0
 50120  1  0  0  0
 50121  1  0  0  0
 51 52  1  0  0  0
 51122  1  0  0  0
 51123  1  0  0  0
 52124  1  0  0  0
 52125  1  0  0  0
 53 54  1  0  0  0
 54 55  2  0  0  0
 54126  1  0  0  0
 55 57  1  0  0  0
 55127  1  0  0  0
 56 69  2  0  0  0
 57 58  2  0  0  0
 57128  1  0  0  0
 58129  1  0  0  0
 59 60  1  0  0  0
 59 61  1  0  0  0
 59 62  1  0  0  0
 60130  1  0  0  0
 60131  1  0  0  0
 60132  1  0  0  0
 61133  1  0  0  0
 61134  1  0  0  0
 61135  1  0  0  0
 62136  1  0  0  0
 62137  1  0  0  0
 62138  1  0  0  0
 63 65  1  0  0  0
 63139  1  0  0  0
 63140  1  0  0  0
 63141  1  0  0  0
 64142  1  0  0  0
 65143  1  0  0  0
 68 75  1  0  0  0
 71 72  1  0  0  0
 71 73  2  0  0  0
 71 78  1  0  0  0
 72 74  2  0  0  0
 72 83  1  0  0  0
 73 80  1  0  0  0
 73 84  1  0  0  0
 74 79  1  0  0  0
 74 84  1  0  0  0
 75 76  2  0  0  0
 75144  1  0  0  0
 76 77  1  0  0  0
 76 82  1  0  0  0
 77 79  1  0  0  0
 77 81  2  0  0  0
 78145  1  0  0  0
 78146  1  0  0  0
 78147  1  0  0  0
 79148  1  0  0  0
 80149  1  0  0  0
 82150  1  0  0  0
M  ISO  4   1 100  68 101  75 101  80 100
M  END
> <chiral flag>
0

> <version>
0

> <s_m_source_file>
/data/baiqing/PycharmProjects/Reinvent-master-3.2/result/LINK_invent/BTK/process_docking_weight1_custom_product_contain_oxygen_bond_distance_aromatic_linkinvent_7_9_3/rearranged_h_0182.sdf

> <i_m_source_file_index>
40

> <r_mmod_Potential_Energy-OPLS-2005>
112.156387329102

> <r_mmod_Stretch_Energy-OPLS-2005>
129.24641418457

> <r_mmod_Bend_Energy-OPLS-2005>
178.590179443359

> <r_mmod_Torsional_Energy-OPLS-2005>
234.424301147461

> <r_mmod_Improper_Torsional_Energy-OPLS-2005>
4.3088231086731

> <r_mmod_Van_der_Waal_Energy-OPLS-2005>
116.633766174316

> <r_mmod_Electrostatic_Energy-OPLS-2005>
-431.986114501953

> <r_mmod_Solvation_Energy-OPLS-2005>
-224.16130065918

> <b_mmod_Minimization_Converged-OPLS-2005>
0

> <r_mmod_RMS_Derivative-OPLS-2005>
1.4606157541275

$$$$
40
                    3D
 Structure written by MMmdl.
149157  0  0  1  0            999 V2000
  -30.6862  -14.5583   20.4742 C   0  0  0  0  0  0
  -30.4154  -12.3330   19.4592 C   0  0  0  0  0  0
  -29.5021  -12.4839   18.2254 C   0  0  0  0  0  0
  -28.0235  -12.3399   18.6353 C   0  0  0  0  0  0
  -27.6505  -13.2162   19.8628 C   0  0  2  0  0  0
  -28.6939  -13.0845   20.9959 C   0  0  0  0  0  0
  -25.2527  -13.8164   20.5694 C   0  0  0  0  0  0
  -24.1801  -13.0429   20.9209 C   0  0  0  0  0  0
  -24.6370  -11.6902   20.8771 C   0  0  0  0  0  0
  -23.9040  -10.4274   21.0411 C   0  0  0  0  0  0
  -24.3599   -9.4186   21.9181 C   0  0  0  0  0  0
  -23.6269   -8.2223   22.0743 C   0  0  0  0  0  0
  -22.4246   -8.0263   21.3539 C   0  0  0  0  0  0
  -21.9894   -9.0237   20.4644 C   0  0  0  0  0  0
  -22.7220  -10.2111   20.3054 C   0  0  0  0  0  0
  -21.6824   -6.0741   22.5294 C   0  0  0  0  0  0
  -21.4007   -6.5642   23.8226 C   0  0  0  0  0  0
  -21.3660   -5.6793   24.9185 C   0  0  0  0  0  0
  -21.6040   -4.3062   24.7234 C   0  0  0  0  0  0
  -21.8803   -3.8159   23.4347 C   0  0  0  0  0  0
  -21.9171   -4.6976   22.3408 C   0  0  0  0  0  0
  -22.7821  -13.5230   21.1868 C   0  0  0  0  0  0
  -22.1641   -4.2169   21.0988 F   0  0  0  0  0  0
  -21.5629   -3.4547   25.7746 F   0  0  0  0  0  0
  -30.0146  -13.3720   20.4249 N   0  0  0  0  0  0
  -26.2959  -12.9355   20.3327 N   0  0  0  0  0  0
  -25.9300  -11.6513   20.5778 N   0  0  0  0  0  0
  -22.0457  -12.8236   22.0430 N   0  0  0  0  0  0
  -25.4213  -15.1880   20.4091 N   0  0  0  0  0  0
  -31.8787  -14.6206   20.1651 O   0  0  0  0  0  0
  -21.6599   -6.8874   21.4245 O   0  0  0  0  0  0
  -22.3512  -14.5535   20.6707 O   0  0  0  0  0  0
  -24.6186  -31.8647   23.2044 C   0  0  0  0  0  0
  -25.9067  -32.4794   23.8359 C   0  0  1  0  0  0
  -27.2259  -27.3956   20.1079 C   0  0  0  0  0  0
  -25.5909  -33.8591   24.2296 N   0  0  0  0  0  0
  -23.4080  -30.4872   21.5464 C   0  0  2  0  0  0
  -24.8535  -28.9449   20.1150 C   0  0  0  0  0  0
  -22.7431  -29.4651   22.4963 C   0  0  0  0  0  0
  -18.0280  -28.1375   22.8487 C   0  0  0  0  0  0
  -24.1490  -36.7307   23.2636 C   0  0  0  0  0  0
  -25.9399  -30.8197   21.3615 C   0  0  0  0  0  0
  -26.0173  -29.4507   20.7089 C   0  0  0  0  0  0
  -27.2109  -28.6860   20.6951 C   0  0  0  0  0  0
  -26.0472  -26.9105   19.5069 C   0  0  0  0  0  0
  -24.8651  -27.6763   19.5079 C   0  0  0  0  0  0
  -23.6177  -29.8164   20.1624 C   0  0  0  0  0  0
  -25.4107  -36.3090   24.0334 C   0  0  1  0  0  0
  -20.5867  -28.3672   23.1301 C   0  0  2  0  0  0
  -20.6767  -26.9399   22.5412 C   0  0  0  0  0  0
  -19.5747  -26.6380   21.5206 C   0  0  0  0  0  0
  -18.1925  -26.7922   22.1614 C   0  0  0  0  0  0
  -19.1527  -28.8841   23.2894 C   0  0  0  0  0  0
  -18.9461  -30.1446   23.8903 C   0  0  0  0  0  0
  -17.6462  -30.6578   24.0563 C   0  0  0  0  0  0
  -25.9043  -34.9458   23.5115 C   0  0  0  0  0  0
  -16.5351  -29.9079   23.6328 C   0  0  0  0  0  0
  -16.7267  -28.6498   23.0345 C   0  0  0  0  0  0
  -26.4482  -31.6584   25.0701 C   0  0  0  0  0  0
  -25.3750  -31.3702   26.1459 C   0  0  0  0  0  0
  -27.0315  -30.3021   24.6095 C   0  0  0  0  0  0
  -27.6048  -32.4315   25.7473 C   0  0  0  0  0  0
  -27.5589  -37.1785   24.8451 C   0  0  0  0  0  0
  -21.4153  -29.3039   22.3706 N   0  0  0  0  0  0
  -26.4277  -37.3788   23.9431 N   0  0  0  0  0  0
  -24.6743  -31.0724   22.0961 N   0  0  0  0  0  0
  -23.4181  -28.8198   23.3027 O   0  0  0  0  0  0
  -28.3613  -26.6051   20.1089 O   0  0  0  0  0  0
  -26.5609  -34.8921   22.4677 O   0  0  0  0  0  0
  -23.5374  -32.1413   23.7423 O   0  0  0  0  0  0
  -30.1623  -19.2918   19.8435 C   0  0  0  0  0  0
  -31.1379  -18.9558   18.9464 C   0  0  0  0  0  0
  -30.2670  -16.9991   20.1412 C   0  0  0  0  0  0
  -29.1974  -22.9858   20.2660 C   0  0  0  0  0  0
  -28.8757  -21.4409   20.4323 C   0  0  0  0  0  0
  -28.0470  -24.0262   20.1572 C   0  0  0  0  0  0
  -28.2793  -25.3891   20.9019 C   0  0  0  0  0  0
  -29.6409  -18.1517   20.5267 N   0  0  0  0  0  0
  -29.9029  -20.6952   19.9778 N   0  0  0  0  0  0
  -29.9550  -15.6898   20.6783 N   0  0  0  0  0  0
  -30.3715  -23.3690   20.1752 O   0  0  0  0  0  0
  -27.8253  -21.0027   20.9139 O   0  0  0  0  0  0
  -31.8055  -19.8576   18.1850 F   0  0  0  0  0  0
  -31.4683  -17.2629   18.8552 S   0  0  0  0  0  0
  -31.4635  -12.4093   19.1665 H   0  0  0  0  0  0
  -30.3069  -11.3431   19.9037 H   0  0  0  0  0  0
  -29.7562  -11.7344   17.4754 H   0  0  0  0  0  0
  -29.6664  -13.4554   17.7559 H   0  0  0  0  0  0
  -27.8519  -11.2877   18.8676 H   0  0  0  0  0  0
  -27.3717  -12.5740   17.7934 H   0  0  0  0  0  0
  -27.6674  -14.2500   19.5184 H   0  0  0  0  0  0
  -28.6819  -12.0771   21.4139 H   0  0  0  0  0  0
  -28.4609  -13.7588   21.8215 H   0  0  0  0  0  0
  -25.2738   -9.5647   22.4761 H   0  0  0  0  0  0
  -23.9979   -7.4604   22.7450 H   0  0  0  0  0  0
  -21.0833   -8.8758   19.8948 H   0  0  0  0  0  0
  -22.3692  -10.9654   19.6163 H   0  0  0  0  0  0
  -21.2020   -7.6146   23.9750 H   0  0  0  0  0  0
  -21.1501   -6.0518   25.9079 H   0  0  0  0  0  0
  -22.0594   -2.7628   23.2846 H   0  0  0  0  0  0
  -22.4064  -11.9893   22.4809 H   0  0  0  0  0  0
  -21.1073  -13.1266   22.2627 H   0  0  0  0  0  0
  -24.6547  -15.8411   20.5285 H   0  0  0  0  0  0
  -26.2676  -15.6339   20.0774 H   0  0  0  0  0  0
  -26.7136  -32.5492   23.1119 H   0  0  0  0  0  0
  -25.0065  -33.9753   25.0447 H   0  0  0  0  0  0
  -22.6992  -31.3050   21.4022 H   0  0  0  0  0  0
  -23.3755  -35.9630   23.3253 H   0  0  0  0  0  0
  -24.3607  -36.8973   22.2062 H   0  0  0  0  0  0
  -23.7222  -37.6487   23.6688 H   0  0  0  0  0  0
  -26.0577  -31.5830   20.5909 H   0  0  0  0  0  0
  -26.8264  -30.8723   21.9821 H   0  0  0  0  0  0
  -28.1113  -29.0716   21.1525 H   0  0  0  0  0  0
  -26.0415  -25.9356   19.0399 H   0  0  0  0  0  0
  -23.9719  -27.2806   19.0443 H   0  0  0  0  0  0
  -23.7289  -30.5897   19.4010 H   0  0  0  0  0  0
  -22.7401  -29.2390   19.8650 H   0  0  0  0  0  0
  -25.1274  -36.1936   25.0821 H   0  0  0  0  0  0
  -20.9966  -28.3240   24.1417 H   0  0  0  0  0  0
  -20.5657  -26.2285   23.3605 H   0  0  0  0  0  0
  -21.6642  -26.7432   22.1206 H   0  0  0  0  0  0
  -19.6909  -25.6293   21.1231 H   0  0  0  0  0  0
  -19.6684  -27.3200   20.6741 H   0  0  0  0  0  0
  -17.4195  -26.6682   21.4011 H   0  0  0  0  0  0
  -18.0317  -26.0055   22.8997 H   0  0  0  0  0  0
  -19.7939  -30.7262   24.2263 H   0  0  0  0  0  0
  -17.5017  -31.6264   24.5158 H   0  0  0  0  0  0
  -15.5347  -30.2983   23.7650 H   0  0  0  0  0  0
  -15.8670  -28.0822   22.7047 H   0  0  0  0  0  0
  -24.5913  -30.7054   25.7815 H   0  0  0  0  0  0
  -24.8957  -32.2859   26.4928 H   0  0  0  0  0  0
  -25.8105  -30.8864   27.0209 H   0  0  0  0  0  0
  -26.2858  -29.6770   24.1166 H   0  0  0  0  0  0
  -27.4102  -29.7271   25.4556 H   0  0  0  0  0  0
  -27.8687  -30.4338   23.9236 H   0  0  0  0  0  0
  -27.2654  -33.3606   26.2071 H   0  0  0  0  0  0
  -28.3849  -32.6889   25.0294 H   0  0  0  0  0  0
  -28.0727  -31.8427   26.5377 H   0  0  0  0  0  0
  -28.2544  -38.0147   24.7581 H   0  0  0  0  0  0
  -28.1145  -36.2676   24.6151 H   0  0  0  0  0  0
  -27.2332  -37.1286   25.8860 H   0  0  0  0  0  0
  -20.9313  -29.8775   21.6939 H   0  0  0  0  0  0
  -26.0154  -38.2849   24.1479 H   0  0  0  0  0  0
  -27.1377  -23.5631   20.5394 H   0  0  0  0  0  0
  -27.8651  -24.2155   19.1004 H   0  0  0  0  0  0
  -29.2047  -25.3423   21.4788 H   0  0  0  0  0  0
  -27.5027  -25.5008   21.6614 H   0  0  0  0  0  0
  -30.6245  -21.2799   19.5726 H   0  0  0  0  0  0
  -29.0338  -15.5728   21.0689 H   0  0  0  0  0  0
  1 25  1  0  0  0
  1 30  2  0  0  0
  1 80  1  0  0  0
  2  3  1  0  0  0
  2 25  1  0  0  0
  2 85  1  0  0  0
  2 86  1  0  0  0
  3  4  1  0  0  0
  3 87  1  0  0  0
  3 88  1  0  0  0
  4  5  1  0  0  0
  4 89  1  0  0  0
  4 90  1  0  0  0
  5  6  1  0  0  0
  5 26  1  0  0  0
  5 91  1  0  0  0
  6 25  1  0  0  0
  6 92  1  0  0  0
  6 93  1  0  0  0
  7  8  2  0  0  0
  7 26  1  0  0  0
  7 29  1  0  0  0
  8  9  1  0  0  0
  8 22  1  0  0  0
  9 10  1  0  0  0
  9 27  2  0  0  0
 10 11  2  0  0  0
 10 15  1  0  0  0
 11 12  1  0  0  0
 11 94  1  0  0  0
 12 13  2  0  0  0
 12 95  1  0  0  0
 13 14  1  0  0  0
 13 31  1  0  0  0
 14 15  2  0  0  0
 14 96  1  0  0  0
 15 97  1  0  0  0
 16 17  2  0  0  0
 16 21  1  0  0  0
 16 31  1  0  0  0
 17 18  1  0  0  0
 17 98  1  0  0  0
 18 19  2  0  0  0
 18 99  1  0  0  0
 19 20  1  0  0  0
 19 24  1  0  0  0
 20 21  2  0  0  0
 20100  1  0  0  0
 21 23  1  0  0  0
 22 28  1  0  0  0
 22 32  2  0  0  0
 26 27  1  0  0  0
 28101  1  0  0  0
 28102  1  0  0  0
 29103  1  0  0  0
 29104  1  0  0  0
 33 34  1  0  0  0
 33 66  1  0  0  0
 33 70  2  0  0  0
 34 36  1  0  0  0
 34 59  1  0  0  0
 34105  1  0  0  0
 35 44  2  0  0  0
 35 45  1  0  0  0
 35 68  1  0  0  0
 36 56  1  0  0  0
 36106  1  0  0  0
 37 39  1  0  0  0
 37 47  1  0  0  0
 37 66  1  0  0  0
 37107  1  0  0  0
 38 43  2  0  0  0
 38 46  1  0  0  0
 38 47  1  0  0  0
 39 64  1  0  0  0
 39 67  2  0  0  0
 40 52  1  0  0  0
 40 53  2  0  0  0
 40 58  1  0  0  0
 41108  1  0  0  0
 41109  1  0  0  0
 41110  1  0  0  0
 41 48  1  0  0  0
 42 43  1  0  0  0
 42 66  1  0  0  0
 42111  1  0  0  0
 42112  1  0  0  0
 43 44  1  0  0  0
 44113  1  0  0  0
 45 46  2  0  0  0
 45114  1  0  0  0
 46115  1  0  0  0
 47116  1  0  0  0
 47117  1  0  0  0
 48 56  1  0  0  0
 48 65  1  0  0  0
 48118  1  0  0  0
 49 50  1  0  0  0
 49 53  1  0  0  0
 49 64  1  0  0  0
 49119  1  0  0  0
 50 51  1  0  0  0
 50120  1  0  0  0
 50121  1  0  0  0
 51 52  1  0  0  0
 51122  1  0  0  0
 51123  1  0  0  0
 52124  1  0  0  0
 52125  1  0  0  0
 53 54  1  0  0  0
 54 55  2  0  0  0
 54126  1  0  0  0
 55 57  1  0  0  0
 55127  1  0  0  0
 56 69  2  0  0  0
 57 58  2  0  0  0
 57128  1  0  0  0
 58129  1  0  0  0
 59 60  1  0  0  0
 59 61  1  0  0  0
 59 62  1  0  0  0
 60130  1  0  0  0
 60131  1  0  0  0
 60132  1  0  0  0
 61133  1  0  0  0
 61134  1  0  0  0
 61135  1  0  0  0
 62136  1  0  0  0
 62137  1  0  0  0
 62138  1  0  0  0
 63 65  1  0  0  0
 63139  1  0  0  0
 63140  1  0  0  0
 63141  1  0  0  0
 64142  1  0  0  0
 65143  1  0  0  0
 68 77  1  0  0  0
 71 72  2  0  0  0
 71 78  1  0  0  0
 71 79  1  0  0  0
 72 83  1  0  0  0
 72 84  1  0  0  0
 73 78  2  0  0  0
 73 80  1  0  0  0
 73 84  1  0  0  0
 74 75  1  0  0  0
 74 76  1  0  0  0
 74 81  2  0  0  0
 75 79  1  0  0  0
 75 82  2  0  0  0
 76 77  1  0  0  0
 76144  1  0  0  0
 76145  1  0  0  0
 77146  1  0  0  0
 77147  1  0  0  0
 79148  1  0  0  0
 80149  1  0  0  0
M  ISO  4   1 100  68 101  77 101  80 100
M  END
> <chiral flag>
0

> <version>
0

> <s_m_source_file>
/data/baiqing/PycharmProjects/Reinvent-master-3.2/result/LINK_invent/BTK/process_docking_weight1_custom_product_contain_oxygen_bond_distance_aromatic_linkinvent_7_9_3/rearranged_h_0182.sdf

> <i_m_source_file_index>
41

> <r_mmod_Potential_Energy-OPLS-2005>
-94.8807907104492

> <r_mmod_Stretch_Energy-OPLS-2005>
52.2286911010742

> <r_mmod_Bend_Energy-OPLS-2005>
138.473648071289

> <r_mmod_Torsional_Energy-OPLS-2005>
243.809997558594

> <r_mmod_Improper_Torsional_Energy-OPLS-2005>
5.2423267364502

> <r_mmod_Van_der_Waal_Energy-OPLS-2005>
129.456771850586

> <r_mmod_Electrostatic_Energy-OPLS-2005>
-459.126098632812

> <r_mmod_Solvation_Energy-OPLS-2005>
-234.151214599609

> <b_mmod_Minimization_Converged-OPLS-2005>
0

> <r_mmod_RMS_Derivative-OPLS-2005>
1.82073104381561

$$$$
41
                    3D
 Structure written by MMmdl.
150158  0  0  1  0            999 V2000
  -30.5970  -14.7528   20.4522 C   0  0  0  0  0  0
  -30.4237  -12.4549   19.4920 C   0  0  0  0  0  0
  -29.5157  -12.5355   18.2451 C   0  0  0  0  0  0
  -28.0377  -12.3604   18.6406 C   0  0  0  0  0  0
  -27.6402  -13.2423   19.8540 C   0  0  2  0  0  0
  -28.6768  -13.1655   20.9965 C   0  0  0  0  0  0
  -25.2473  -13.8212   20.5647 C   0  0  0  0  0  0
  -24.1767  -13.0437   20.9167 C   0  0  0  0  0  0
  -24.6383  -11.6919   20.8719 C   0  0  0  0  0  0
  -23.9057  -10.4291   21.0376 C   0  0  0  0  0  0
  -24.3600   -9.4209   21.9160 C   0  0  0  0  0  0
  -23.6279   -8.2246   22.0738 C   0  0  0  0  0  0
  -22.4264   -8.0267   21.3523 C   0  0  0  0  0  0
  -21.9901   -9.0231   20.4627 C   0  0  0  0  0  0
  -22.7215  -10.2119   20.3032 C   0  0  0  0  0  0
  -21.6867   -6.0711   22.5268 C   0  0  0  0  0  0
  -21.4019   -6.5622   23.8193 C   0  0  0  0  0  0
  -21.3673   -5.6785   24.9167 C   0  0  0  0  0  0
  -21.6061   -4.3041   24.7220 C   0  0  0  0  0  0
  -21.8826   -3.8125   23.4341 C   0  0  0  0  0  0
  -21.9194   -4.6937   22.3392 C   0  0  0  0  0  0
  -22.7786  -13.5196   21.1860 C   0  0  0  0  0  0
  -22.1658   -4.2116   21.0978 F   0  0  0  0  0  0
  -21.5643   -3.4535   25.7736 F   0  0  0  0  0  0
  -29.9879  -13.5145   20.4340 N   0  0  0  0  0  0
  -26.2908  -12.9439   20.3261 N   0  0  0  0  0  0
  -25.9311  -11.6566   20.5723 N   0  0  0  0  0  0
  -22.0452  -12.8164   22.0416 N   0  0  0  0  0  0
  -25.4211  -15.1931   20.4008 N   0  0  0  0  0  0
  -31.7627  -14.8572   20.0557 O   0  0  0  0  0  0
  -21.6649   -6.8842   21.4224 O   0  0  0  0  0  0
  -22.3437  -14.5484   20.6699 O   0  0  0  0  0  0
  -24.6326  -31.8545   23.1966 C   0  0  0  0  0  0
  -25.9141  -32.4755   23.8320 C   0  0  1  0  0  0
  -27.2132  -27.2451   20.1132 C   0  0  0  0  0  0
  -25.5933  -33.8557   24.2262 N   0  0  0  0  0  0
  -23.4300  -30.4761   21.5419 C   0  0  2  0  0  0
  -24.8773  -28.9263   20.1050 C   0  0  0  0  0  0
  -22.7509  -29.4591   22.4920 C   0  0  0  0  0  0
  -18.0292  -28.1377   22.8490 C   0  0  0  0  0  0
  -24.1499  -36.7296   23.2638 C   0  0  0  0  0  0
  -25.9770  -30.7622   21.3762 C   0  0  0  0  0  0
  -26.0497  -29.3811   20.7213 C   0  0  0  0  0  0
  -27.2204  -28.5511   20.7205 C   0  0  0  0  0  0
  -26.0204  -26.8753   19.4532 C   0  0  0  0  0  0
  -24.8709  -27.6842   19.4574 C   0  0  0  0  0  0
  -23.6469  -29.8118   20.1573 C   0  0  0  0  0  0
  -25.4124  -36.3086   24.0337 C   0  0  1  0  0  0
  -20.5884  -28.3692   23.1296 C   0  0  2  0  0  0
  -20.6773  -26.9410   22.5414 C   0  0  0  0  0  0
  -19.5750  -26.6390   21.5216 C   0  0  0  0  0  0
  -18.1935  -26.7931   22.1615 C   0  0  0  0  0  0
  -19.1532  -28.8857   23.2889 C   0  0  0  0  0  0
  -18.9448  -30.1455   23.8920 C   0  0  0  0  0  0
  -17.6439  -30.6585   24.0562 C   0  0  0  0  0  0
  -25.9054  -34.9450   23.5111 C   0  0  0  0  0  0
  -16.5342  -29.9074   23.6317 C   0  0  0  0  0  0
  -16.7275  -28.6484   23.0365 C   0  0  0  0  0  0
  -26.4511  -31.6551   25.0685 C   0  0  0  0  0  0
  -25.3725  -31.3665   26.1385 C   0  0  0  0  0  0
  -27.0323  -30.2975   24.6103 C   0  0  0  0  0  0
  -27.6069  -32.4262   25.7470 C   0  0  0  0  0  0
  -27.5605  -37.1802   24.8473 C   0  0  0  0  0  0
  -21.4209  -29.3043   22.3689 N   0  0  0  0  0  0
  -26.4311  -37.3778   23.9414 N   0  0  0  0  0  0
  -24.6995  -31.0489   22.0955 N   0  0  0  0  0  0
  -23.4215  -28.8124   23.3009 O   0  0  0  0  0  0
  -28.2931  -26.3247   20.1762 O   0  0  0  0  0  0
  -26.5621  -34.8937   22.4672 O   0  0  0  0  0  0
  -23.5469  -32.1373   23.7248 O   0  0  0  0  0  0
  -30.0466  -19.2930   18.7645 C   0  0  0  0  0  0
  -29.5163  -19.6039   20.0069 C   0  0  0  0  0  0
  -29.9051  -17.2439   20.2418 C   0  0  0  0  0  0
  -28.7829  -22.1385   19.7827 C   0  0  0  0  0  0
  -30.3491  -20.1816   17.5992 C   0  0  0  0  0  0
  -28.0512  -24.8582   19.8680 C   0  0  0  0  0  0
  -29.0030  -23.6311   20.3623 C   0  0  0  0  0  0
  -29.4420  -18.4050   20.8254 N   0  0  0  0  0  0
  -29.2406  -21.0039   20.4498 N   0  0  0  0  0  0
  -29.8578  -15.8729   20.8075 N   0  0  0  0  0  0
  -28.1733  -22.0268   18.7146 O   0  0  0  0  0  0
  -28.9235  -23.5618   21.6904 F   0  0  0  0  0  0
  -30.2535  -23.9728   20.0442 F   0  0  0  0  0  0
  -30.4618  -17.5829   18.6075 S   0  0  0  0  0  0
  -31.4709  -12.5594   19.2036 H   0  0  0  0  0  0
  -30.3398  -11.4740   19.9640 H   0  0  0  0  0  0
  -29.8046  -11.7806   17.5133 H   0  0  0  0  0  0
  -29.6531  -13.5016   17.7577 H   0  0  0  0  0  0
  -27.8851  -11.3077   18.8791 H   0  0  0  0  0  0
  -27.3921  -12.5806   17.7898 H   0  0  0  0  0  0
  -27.6365  -14.2687   19.4860 H   0  0  0  0  0  0
  -28.6965  -12.1660   21.4337 H   0  0  0  0  0  0
  -28.3992  -13.8436   21.8041 H   0  0  0  0  0  0
  -25.2757   -9.5686   22.4708 H   0  0  0  0  0  0
  -23.9991   -7.4649   22.7466 H   0  0  0  0  0  0
  -21.0835   -8.8727   19.8923 H   0  0  0  0  0  0
  -22.3671  -10.9628   19.6124 H   0  0  0  0  0  0
  -21.2007   -7.6122   23.9669 H   0  0  0  0  0  0
  -21.1505   -6.0527   25.9064 H   0  0  0  0  0  0
  -22.0594   -2.7575   23.2863 H   0  0  0  0  0  0
  -22.4103  -11.9851   22.4825 H   0  0  0  0  0  0
  -21.1045  -13.1139   22.2604 H   0  0  0  0  0  0
  -24.6560  -15.8554   20.4739 H   0  0  0  0  0  0
  -26.2714  -15.6124   20.0490 H   0  0  0  0  0  0
  -26.7201  -32.5423   23.1051 H   0  0  0  0  0  0
  -25.0090  -33.9696   25.0420 H   0  0  0  0  0  0
  -22.7268  -31.2985   21.3953 H   0  0  0  0  0  0
  -23.3773  -35.9610   23.3279 H   0  0  0  0  0  0
  -24.3604  -36.8926   22.2055 H   0  0  0  0  0  0
  -23.7226  -37.6488   23.6660 H   0  0  0  0  0  0
  -26.1040  -31.5170   20.5988 H   0  0  0  0  0  0
  -26.8608  -30.8265   21.9993 H   0  0  0  0  0  0
  -28.1144  -28.8879   21.2267 H   0  0  0  0  0  0
  -25.9387  -25.9332   18.9308 H   0  0  0  0  0  0
  -23.9803  -27.3378   18.9510 H   0  0  0  0  0  0
  -23.7665  -30.5875   19.4000 H   0  0  0  0  0  0
  -22.7658  -29.2396   19.8572 H   0  0  0  0  0  0
  -25.1297  -36.1947   25.0828 H   0  0  0  0  0  0
  -20.9978  -28.3256   24.1418 H   0  0  0  0  0  0
  -20.5679  -26.2295   23.3610 H   0  0  0  0  0  0
  -21.6651  -26.7443   22.1213 H   0  0  0  0  0  0
  -19.6920  -25.6308   21.1250 H   0  0  0  0  0  0
  -19.6709  -27.3201   20.6754 H   0  0  0  0  0  0
  -17.4214  -26.6703   21.4011 H   0  0  0  0  0  0
  -18.0314  -26.0063   22.8995 H   0  0  0  0  0  0
  -19.7910  -30.7261   24.2328 H   0  0  0  0  0  0
  -17.4982  -31.6273   24.5135 H   0  0  0  0  0  0
  -15.5331  -30.2973   23.7643 H   0  0  0  0  0  0
  -15.8672  -28.0801   22.7084 H   0  0  0  0  0  0
  -24.5970  -30.6943   25.7709 H   0  0  0  0  0  0
  -24.8840  -32.2804   26.4769 H   0  0  0  0  0  0
  -25.8054  -30.8892   27.0184 H   0  0  0  0  0  0
  -26.2864  -29.6734   24.1171 H   0  0  0  0  0  0
  -27.4078  -29.7215   25.4569 H   0  0  0  0  0  0
  -27.8726  -30.4265   23.9275 H   0  0  0  0  0  0
  -27.2707  -33.3580   26.2029 H   0  0  0  0  0  0
  -28.3912  -32.6768   25.0316 H   0  0  0  0  0  0
  -28.0695  -31.8372   26.5395 H   0  0  0  0  0  0
  -28.2600  -38.0121   24.7526 H   0  0  0  0  0  0
  -28.1123  -36.2647   24.6278 H   0  0  0  0  0  0
  -27.2328  -37.1428   25.8878 H   0  0  0  0  0  0
  -20.9380  -29.8799   21.6930 H   0  0  0  0  0  0
  -26.0204  -38.2867   24.1368 H   0  0  0  0  0  0
  -30.7450  -21.1473   17.9120 H   0  0  0  0  0  0
  -29.4531  -20.3492   17.0024 H   0  0  0  0  0  0
  -31.0909  -19.7262   16.9441 H   0  0  0  0  0  0
  -27.0645  -24.5992   20.2514 H   0  0  0  0  0  0
  -27.9732  -24.7871   18.7821 H   0  0  0  0  0  0
  -29.4950  -21.1884   21.4107 H   0  0  0  0  0  0
  -29.0529  -15.6822   21.3840 H   0  0  0  0  0  0
  1 25  1  0  0  0
  1 30  2  0  0  0
  1 80  1  0  0  0
  2  3  1  0  0  0
  2 25  1  0  0  0
  2 85  1  0  0  0
  2 86  1  0  0  0
  3  4  1  0  0  0
  3 87  1  0  0  0
  3 88  1  0  0  0
  4  5  1  0  0  0
  4 89  1  0  0  0
  4 90  1  0  0  0
  5  6  1  0  0  0
  5 26  1  0  0  0
  5 91  1  0  0  0
  6 25  1  0  0  0
  6 92  1  0  0  0
  6 93  1  0  0  0
  7  8  2  0  0  0
  7 26  1  0  0  0
  7 29  1  0  0  0
  8  9  1  0  0  0
  8 22  1  0  0  0
  9 10  1  0  0  0
  9 27  2  0  0  0
 10 11  2  0  0  0
 10 15  1  0  0  0
 11 12  1  0  0  0
 11 94  1  0  0  0
 12 13  2  0  0  0
 12 95  1  0  0  0
 13 14  1  0  0  0
 13 31  1  0  0  0
 14 15  2  0  0  0
 14 96  1  0  0  0
 15 97  1  0  0  0
 16 17  2  0  0  0
 16 21  1  0  0  0
 16 31  1  0  0  0
 17 18  1  0  0  0
 17 98  1  0  0  0
 18 19  2  0  0  0
 18 99  1  0  0  0
 19 20  1  0  0  0
 19 24  1  0  0  0
 20 21  2  0  0  0
 20100  1  0  0  0
 21 23  1  0  0  0
 22 28  1  0  0  0
 22 32  2  0  0  0
 26 27  1  0  0  0
 28101  1  0  0  0
 28102  1  0  0  0
 29103  1  0  0  0
 29104  1  0  0  0
 33 34  1  0  0  0
 33 66  1  0  0  0
 33 70  2  0  0  0
 34 36  1  0  0  0
 34 59  1  0  0  0
 34105  1  0  0  0
 35 44  2  0  0  0
 35 45  1  0  0  0
 35 68  1  0  0  0
 36 56  1  0  0  0
 36106  1  0  0  0
 37 39  1  0  0  0
 37 47  1  0  0  0
 37 66  1  0  0  0
 37107  1  0  0  0
 38 43  2  0  0  0
 38 46  1  0  0  0
 38 47  1  0  0  0
 39 64  1  0  0  0
 39 67  2  0  0  0
 40 52  1  0  0  0
 40 53  2  0  0  0
 40 58  1  0  0  0
 41108  1  0  0  0
 41109  1  0  0  0
 41110  1  0  0  0
 41 48  1  0  0  0
 42 43  1  0  0  0
 42 66  1  0  0  0
 42111  1  0  0  0
 42112  1  0  0  0
 43 44  1  0  0  0
 44113  1  0  0  0
 45 46  2  0  0  0
 45114  1  0  0  0
 46115  1  0  0  0
 47116  1  0  0  0
 47117  1  0  0  0
 48 56  1  0  0  0
 48 65  1  0  0  0
 48118  1  0  0  0
 49 50  1  0  0  0
 49 53  1  0  0  0
 49 64  1  0  0  0
 49119  1  0  0  0
 50 51  1  0  0  0
 50120  1  0  0  0
 50121  1  0  0  0
 51 52  1  0  0  0
 51122  1  0  0  0
 51123  1  0  0  0
 52124  1  0  0  0
 52125  1  0  0  0
 53 54  1  0  0  0
 54 55  2  0  0  0
 54126  1  0  0  0
 55 57  1  0  0  0
 55127  1  0  0  0
 56 69  2  0  0  0
 57 58  2  0  0  0
 57128  1  0  0  0
 58129  1  0  0  0
 59 60  1  0  0  0
 59 61  1  0  0  0
 59 62  1  0  0  0
 60130  1  0  0  0
 60131  1  0  0  0
 60132  1  0  0  0
 61133  1  0  0  0
 61134  1  0  0  0
 61135  1  0  0  0
 62136  1  0  0  0
 62137  1  0  0  0
 62138  1  0  0  0
 63 65  1  0  0  0
 63139  1  0  0  0
 63140  1  0  0  0
 63141  1  0  0  0
 64142  1  0  0  0
 65143  1  0  0  0
 68 76  1  0  0  0
 71 72  2  0  0  0
 71 75  1  0  0  0
 71 84  1  0  0  0
 72 78  1  0  0  0
 72 79  1  0  0  0
 73 78  2  0  0  0
 73 80  1  0  0  0
 73 84  1  0  0  0
 74 77  1  0  0  0
 74 79  1  0  0  0
 74 81  2  0  0  0
 75144  1  0  0  0
 75145  1  0  0  0
 75146  1  0  0  0
 76 77  1  0  0  0
 76147  1  0  0  0
 76148  1  0  0  0
 77 82  1  0  0  0
 77 83  1  0  0  0
 79149  1  0  0  0
 80150  1  0  0  0
M  ISO  4   1 100  68 101  76 101  80 100
M  END
> <chiral flag>
0

> <version>
0

> <s_m_source_file>
/data/baiqing/PycharmProjects/Reinvent-master-3.2/result/LINK_invent/BTK/process_docking_weight1_custom_product_contain_oxygen_bond_distance_aromatic_linkinvent_7_9_3/rearranged_h_0182.sdf

> <i_m_source_file_index>
42

> <r_mmod_Potential_Energy-OPLS-2005>
116.364105224609

> <r_mmod_Stretch_Energy-OPLS-2005>
130.84602355957

> <r_mmod_Bend_Energy-OPLS-2005>
169.212585449219

> <r_mmod_Torsional_Energy-OPLS-2005>
241.835464477539

> <r_mmod_Improper_Torsional_Energy-OPLS-2005>
4.53641319274902

> <r_mmod_Van_der_Waal_Energy-OPLS-2005>
121.887718200684

> <r_mmod_Electrostatic_Energy-OPLS-2005>
-421.999298095703

> <r_mmod_Solvation_Energy-OPLS-2005>
-222.212341308594

> <b_mmod_Minimization_Converged-OPLS-2005>
0

> <r_mmod_RMS_Derivative-OPLS-2005>
3.04751896858215

$$$$
42
                    3D
 Structure written by MMmdl.
153161  0  0  1  0            999 V2000
  -30.5927  -14.6790   20.5140 C   0  0  0  0  0  0
  -30.4494  -12.4251   19.4485 C   0  0  0  0  0  0
  -29.5068  -12.5193   18.2258 C   0  0  0  0  0  0
  -28.0304  -12.3458   18.6405 C   0  0  0  0  0  0
  -27.6490  -13.2136   19.8692 C   0  0  2  0  0  0
  -28.7009  -13.0600   20.9928 C   0  0  0  0  0  0
  -25.2431  -13.8044   20.5758 C   0  0  0  0  0  0
  -24.1749  -13.0300   20.9237 C   0  0  0  0  0  0
  -24.6369  -11.6811   20.8769 C   0  0  0  0  0  0
  -23.9055  -10.4212   21.0410 C   0  0  0  0  0  0
  -24.3607   -9.4134   21.9190 C   0  0  0  0  0  0
  -23.6264   -8.2191   22.0758 C   0  0  0  0  0  0
  -22.4245   -8.0248   21.3550 C   0  0  0  0  0  0
  -21.9880   -9.0220   20.4652 C   0  0  0  0  0  0
  -22.7228  -10.2080   20.3051 C   0  0  0  0  0  0
  -21.6832   -6.0713   22.5286 C   0  0  0  0  0  0
  -21.4001   -6.5625   23.8222 C   0  0  0  0  0  0
  -21.3654   -5.6781   24.9188 C   0  0  0  0  0  0
  -21.6045   -4.3044   24.7229 C   0  0  0  0  0  0
  -21.8821   -3.8127   23.4350 C   0  0  0  0  0  0
  -21.9181   -4.6942   22.3404 C   0  0  0  0  0  0
  -22.7779  -13.5124   21.1872 C   0  0  0  0  0  0
  -22.1657   -4.2133   21.0979 F   0  0  0  0  0  0
  -21.5618   -3.4527   25.7738 F   0  0  0  0  0  0
  -30.0134  -13.4347   20.4340 N   0  0  0  0  0  0
  -26.2946  -12.9305   20.3381 N   0  0  0  0  0  0
  -25.9309  -11.6447   20.5791 N   0  0  0  0  0  0
  -22.0425  -12.8164   22.0464 N   0  0  0  0  0  0
  -25.3787  -15.1765   20.4274 N   0  0  0  0  0  0
  -31.7386  -14.8908   20.1087 O   0  0  0  0  0  0
  -21.6607   -6.8856   21.4249 O   0  0  0  0  0  0
  -22.3483  -14.5417   20.6684 O   0  0  0  0  0  0
  -24.6250  -31.8587   23.1982 C   0  0  0  0  0  0
  -25.9093  -32.4772   23.8330 C   0  0  1  0  0  0
  -27.2394  -27.3132   20.1295 C   0  0  0  0  0  0
  -25.5910  -33.8574   24.2255 N   0  0  0  0  0  0
  -23.4200  -30.4774   21.5389 C   0  0  2  0  0  0
  -24.8706  -28.9254   20.1076 C   0  0  0  0  0  0
  -22.7477  -29.4602   22.4911 C   0  0  0  0  0  0
  -18.0304  -28.1397   22.8484 C   0  0  0  0  0  0
  -24.1486  -36.7290   23.2633 C   0  0  0  0  0  0
  -25.9584  -30.7871   21.3689 C   0  0  0  0  0  0
  -26.0337  -29.4114   20.7160 C   0  0  0  0  0  0
  -27.2142  -28.6155   20.7175 C   0  0  0  0  0  0
  -26.0521  -26.8687   19.5051 C   0  0  0  0  0  0
  -24.8822  -27.6595   19.4950 C   0  0  0  0  0  0
  -23.6372  -29.8063   20.1555 C   0  0  0  0  0  0
  -25.4111  -36.3073   24.0322 C   0  0  1  0  0  0
  -20.5894  -28.3690   23.1282 C   0  0  2  0  0  0
  -20.6782  -26.9411   22.5412 C   0  0  0  0  0  0
  -19.5761  -26.6381   21.5218 C   0  0  0  0  0  0
  -18.1943  -26.7936   22.1629 C   0  0  0  0  0  0
  -19.1550  -28.8861   23.2879 C   0  0  0  0  0  0
  -18.9469  -30.1469   23.8899 C   0  0  0  0  0  0
  -17.6465  -30.6585   24.0575 C   0  0  0  0  0  0
  -25.9048  -34.9445   23.5091 C   0  0  0  0  0  0
  -16.5362  -29.9083   23.6330 C   0  0  0  0  0  0
  -16.7289  -28.6505   23.0336 C   0  0  0  0  0  0
  -26.4494  -31.6590   25.0703 C   0  0  0  0  0  0
  -25.3731  -31.3742   26.1439 C   0  0  0  0  0  0
  -27.0339  -30.3010   24.6154 C   0  0  0  0  0  0
  -27.6046  -32.4336   25.7483 C   0  0  0  0  0  0
  -27.5582  -37.1795   24.8467 C   0  0  0  0  0  0
  -21.4184  -29.3029   22.3653 N   0  0  0  0  0  0
  -26.4293  -37.3762   23.9408 N   0  0  0  0  0  0
  -24.6862  -31.0589   22.0931 N   0  0  0  0  0  0
  -23.4195  -28.8161   23.3006 O   0  0  0  0  0  0
  -28.3916  -26.5177   20.2214 O   0  0  0  0  0  0
  -26.5625  -34.8907   22.4663 O   0  0  0  0  0  0
  -23.5413  -32.1407   23.7298 O   0  0  0  0  0  0
  -30.5491  -18.1599   20.9768 C   0  0  0  0  0  0
  -29.6297  -17.1132   20.6779 C   0  0  0  0  0  0
  -28.3699  -17.5691   20.2333 C   0  0  0  0  0  0
  -28.0381  -18.9464   20.1898 C   0  0  0  0  0  0
  -28.9990  -19.9147   20.5460 C   0  0  0  0  0  0
  -28.4277  -23.9080   20.5595 C   0  0  0  0  0  0
  -30.0549  -22.5465   19.0232 C   0  0  0  0  0  0
  -28.5474  -25.1756   19.6064 C   0  0  0  0  0  0
  -29.3137  -22.5645   20.3706 C   0  0  2  0  0  0
  -30.2544  -19.5116   20.9048 N   0  0  0  0  0  0
  -29.7628  -15.6734   20.9588 N   0  0  0  0  0  0
  -28.5621  -21.2840   20.5668 N   0  0  0  0  0  0
  -27.6013  -23.9597   21.4759 O   0  0  0  0  0  0
  -27.4458  -16.6539   19.8734 F   0  0  0  0  0  0
  -26.7872  -19.3403   19.8337 F   0  0  0  0  0  0
  -31.4832  -12.5813   19.1383 H   0  0  0  0  0  0
  -30.4167  -11.4269   19.8880 H   0  0  0  0  0  0
  -29.7772  -11.7686   17.4826 H   0  0  0  0  0  0
  -29.6367  -13.4881   17.7404 H   0  0  0  0  0  0
  -27.8751  -11.2915   18.8726 H   0  0  0  0  0  0
  -27.3724  -12.5705   17.7998 H   0  0  0  0  0  0
  -27.6605  -14.2470   19.5282 H   0  0  0  0  0  0
  -28.7252  -12.0252   21.3414 H   0  0  0  0  0  0
  -28.4354  -13.6568   21.8672 H   0  0  0  0  0  0
  -25.2759   -9.5588   22.4768 H   0  0  0  0  0  0
  -23.9950   -7.4575   22.7479 H   0  0  0  0  0  0
  -21.0802   -8.8738   19.8981 H   0  0  0  0  0  0
  -22.3692  -10.9619   19.6149 H   0  0  0  0  0  0
  -21.2001   -7.6137   23.9715 H   0  0  0  0  0  0
  -21.1481   -6.0518   25.9093 H   0  0  0  0  0  0
  -22.0604   -2.7587   23.2858 H   0  0  0  0  0  0
  -22.4018  -11.9845   22.4905 H   0  0  0  0  0  0
  -21.1049  -13.1217   22.2660 H   0  0  0  0  0  0
  -24.5770  -15.7916   20.5100 H   0  0  0  0  0  0
  -26.2146  -15.6653   20.1163 H   0  0  0  0  0  0
  -26.7154  -32.5443   23.1076 H   0  0  0  0  0  0
  -25.0092  -33.9739   25.0421 H   0  0  0  0  0  0
  -22.7128  -31.2966   21.3921 H   0  0  0  0  0  0
  -23.3741  -35.9635   23.3311 H   0  0  0  0  0  0
  -24.3569  -36.8905   22.2046 H   0  0  0  0  0  0
  -23.7248  -37.6493   23.6660 H   0  0  0  0  0  0
  -26.0862  -31.5470   20.5966 H   0  0  0  0  0  0
  -26.8396  -30.8410   21.9972 H   0  0  0  0  0  0
  -28.1050  -28.9862   21.2045 H   0  0  0  0  0  0
  -25.9962  -25.8930   19.0467 H   0  0  0  0  0  0
  -23.9869  -27.2777   19.0232 H   0  0  0  0  0  0
  -23.7551  -30.5821   19.3986 H   0  0  0  0  0  0
  -22.7585  -29.2344   19.8520 H   0  0  0  0  0  0
  -25.1283  -36.1928   25.0815 H   0  0  0  0  0  0
  -21.0011  -28.3276   24.1395 H   0  0  0  0  0  0
  -20.5685  -26.2303   23.3613 H   0  0  0  0  0  0
  -21.6646  -26.7432   22.1198 H   0  0  0  0  0  0
  -19.6909  -25.6289   21.1251 H   0  0  0  0  0  0
  -19.6695  -27.3192   20.6748 H   0  0  0  0  0  0
  -17.4202  -26.6692   21.4040 H   0  0  0  0  0  0
  -18.0340  -26.0089   22.9037 H   0  0  0  0  0  0
  -19.7944  -30.7296   24.2250 H   0  0  0  0  0  0
  -17.5013  -31.6261   24.5188 H   0  0  0  0  0  0
  -15.5357  -30.2980   23.7650 H   0  0  0  0  0  0
  -15.8697  -28.0833   22.7026 H   0  0  0  0  0  0
  -24.5884  -30.7120   25.7766 H   0  0  0  0  0  0
  -24.8964  -32.2931   26.4864 H   0  0  0  0  0  0
  -25.8057  -30.8909   27.0209 H   0  0  0  0  0  0
  -26.2914  -29.6754   24.1190 H   0  0  0  0  0  0
  -27.4056  -29.7263   25.4645 H   0  0  0  0  0  0
  -27.8769  -30.4293   23.9362 H   0  0  0  0  0  0
  -27.2640  -33.3629   26.2062 H   0  0  0  0  0  0
  -28.3863  -32.6918   25.0327 H   0  0  0  0  0  0
  -28.0714  -31.8473   26.5408 H   0  0  0  0  0  0
  -28.2588  -38.0099   24.7491 H   0  0  0  0  0  0
  -28.1085  -36.2621   24.6313 H   0  0  0  0  0  0
  -27.2304  -37.1465   25.8872 H   0  0  0  0  0  0
  -20.9369  -29.8747   21.6860 H   0  0  0  0  0  0
  -26.0175  -38.2840   24.1399 H   0  0  0  0  0  0
  -31.5317  -17.9158   21.3553 H   0  0  0  0  0  0
  -30.7361  -23.3910   18.9302 H   0  0  0  0  0  0
  -29.3621  -22.5675   18.1821 H   0  0  0  0  0  0
  -30.6682  -21.6508   18.9253 H   0  0  0  0  0  0
  -27.8770  -25.0446   18.7588 H   0  0  0  0  0  0
  -29.5477  -25.1717   19.1760 H   0  0  0  0  0  0
  -30.0723  -22.5811   21.1554 H   0  0  0  0  0  0
  -28.8866  -15.2631   21.2426 H   0  0  0  0  0  0
  -27.5570  -21.3769   20.4489 H   0  0  0  0  0  0
  1 25  1  0  0  0
  1 30  2  0  0  0
  1 81  1  0  0  0
  2  3  1  0  0  0
  2 25  1  0  0  0
  2 86  1  0  0  0
  2 87  1  0  0  0
  3  4  1  0  0  0
  3 88  1  0  0  0
  3 89  1  0  0  0
  4  5  1  0  0  0
  4 90  1  0  0  0
  4 91  1  0  0  0
  5  6  1  0  0  0
  5 26  1  0  0  0
  5 92  1  0  0  0
  6 25  1  0  0  0
  6 93  1  0  0  0
  6 94  1  0  0  0
  7  8  2  0  0  0
  7 26  1  0  0  0
  7 29  1  0  0  0
  8  9  1  0  0  0
  8 22  1  0  0  0
  9 10  1  0  0  0
  9 27  2  0  0  0
 10 11  2  0  0  0
 10 15  1  0  0  0
 11 12  1  0  0  0
 11 95  1  0  0  0
 12 13  2  0  0  0
 12 96  1  0  0  0
 13 14  1  0  0  0
 13 31  1  0  0  0
 14 15  2  0  0  0
 14 97  1  0  0  0
 15 98  1  0  0  0
 16 17  2  0  0  0
 16 21  1  0  0  0
 16 31  1  0  0  0
 17 18  1  0  0  0
 17 99  1  0  0  0
 18 19  2  0  0  0
 18100  1  0  0  0
 19 20  1  0  0  0
 19 24  1  0  0  0
 20 21  2  0  0  0
 20101  1  0  0  0
 21 23  1  0  0  0
 22 28  1  0  0  0
 22 32  2  0  0  0
 26 27  1  0  0  0
 28102  1  0  0  0
 28103  1  0  0  0
 29104  1  0  0  0
 29105  1  0  0  0
 33 34  1  0  0  0
 33 66  1  0  0  0
 33 70  2  0  0  0
 34 36  1  0  0  0
 34 59  1  0  0  0
 34106  1  0  0  0
 35 44  2  0  0  0
 35 45  1  0  0  0
 35 68  1  0  0  0
 36 56  1  0  0  0
 36107  1  0  0  0
 37 39  1  0  0  0
 37 47  1  0  0  0
 37 66  1  0  0  0
 37108  1  0  0  0
 38 43  2  0  0  0
 38 46  1  0  0  0
 38 47  1  0  0  0
 39 64  1  0  0  0
 39 67  2  0  0  0
 40 52  1  0  0  0
 40 53  2  0  0  0
 40 58  1  0  0  0
 41109  1  0  0  0
 41110  1  0  0  0
 41111  1  0  0  0
 41 48  1  0  0  0
 42 43  1  0  0  0
 42 66  1  0  0  0
 42112  1  0  0  0
 42113  1  0  0  0
 43 44  1  0  0  0
 44114  1  0  0  0
 45 46  2  0  0  0
 45115  1  0  0  0
 46116  1  0  0  0
 47117  1  0  0  0
 47118  1  0  0  0
 48 56  1  0  0  0
 48 65  1  0  0  0
 48119  1  0  0  0
 49 50  1  0  0  0
 49 53  1  0  0  0
 49 64  1  0  0  0
 49120  1  0  0  0
 50 51  1  0  0  0
 50121  1  0  0  0
 50122  1  0  0  0
 51 52  1  0  0  0
 51123  1  0  0  0
 51124  1  0  0  0
 52125  1  0  0  0
 52126  1  0  0  0
 53 54  1  0  0  0
 54 55  2  0  0  0
 54127  1  0  0  0
 55 57  1  0  0  0
 55128  1  0  0  0
 56 69  2  0  0  0
 57 58  2  0  0  0
 57129  1  0  0  0
 58130  1  0  0  0
 59 60  1  0  0  0
 59 61  1  0  0  0
 59 62  1  0  0  0
 60131  1  0  0  0
 60132  1  0  0  0
 60133  1  0  0  0
 61134  1  0  0  0
 61135  1  0  0  0
 61136  1  0  0  0
 62137  1  0  0  0
 62138  1  0  0  0
 62139  1  0  0  0
 63 65  1  0  0  0
 63140  1  0  0  0
 63141  1  0  0  0
 63142  1  0  0  0
 64143  1  0  0  0
 65144  1  0  0  0
 68 78  1  0  0  0
 71 72  2  0  0  0
 71 80  1  0  0  0
 71145  1  0  0  0
 72 73  1  0  0  0
 72 81  1  0  0  0
 73 74  2  0  0  0
 73 84  1  0  0  0
 74 75  1  0  0  0
 74 85  1  0  0  0
 75 80  2  0  0  0
 75 82  1  0  0  0
 76 78  1  0  0  0
 76 79  1  0  0  0
 76 83  2  0  0  0
 77146  1  0  0  0
 77147  1  0  0  0
 77148  1  0  0  0
 77 79  1  0  0  0
 78149  1  0  0  0
 78150  1  0  0  0
 79 82  1  0  0  0
 79151  1  0  0  0
 81152  1  0  0  0
 82153  1  0  0  0
M  ISO  4   1 100  68 101  78 101  81 100
M  END
> <chiral flag>
0

> <version>
0

> <s_m_source_file>
/data/baiqing/PycharmProjects/Reinvent-master-3.2/result/LINK_invent/BTK/process_docking_weight1_custom_product_contain_oxygen_bond_distance_aromatic_linkinvent_7_9_3/rearranged_h_0182.sdf

> <i_m_source_file_index>
43

> <r_mmod_Potential_Energy-OPLS-2005>
-63.2541961669922

> <r_mmod_Stretch_Energy-OPLS-2005>
88.3608551025391

> <r_mmod_Bend_Energy-OPLS-2005>
187.181701660156

> <r_mmod_Torsional_Energy-OPLS-2005>
230.782516479492

> <r_mmod_Improper_Torsional_Energy-OPLS-2005>
6.85228729248047

> <r_mmod_Van_der_Waal_Energy-OPLS-2005>
143.257797241211

> <r_mmod_Electrostatic_Energy-OPLS-2005>
-541.412109375

> <r_mmod_Solvation_Energy-OPLS-2005>
-235.213302612305

> <b_mmod_Minimization_Converged-OPLS-2005>
0

> <r_mmod_RMS_Derivative-OPLS-2005>
2.35194110870361

$$$$
43
                    3D
 Structure written by MMmdl.
153161  0  0  1  0            999 V2000
  -30.6304  -14.7925   20.4237 C   0  0  0  0  0  0
  -30.4182  -12.4816   19.4868 C   0  0  0  0  0  0
  -29.5072  -12.5047   18.2418 C   0  0  0  0  0  0
  -28.0351  -12.3244   18.6545 C   0  0  0  0  0  0
  -27.6323  -13.2420   19.8408 C   0  0  2  0  0  0
  -28.6761  -13.2305   20.9788 C   0  0  0  0  0  0
  -25.2475  -13.8216   20.5705 C   0  0  0  0  0  0
  -24.1783  -13.0445   20.9216 C   0  0  0  0  0  0
  -24.6389  -11.6929   20.8748 C   0  0  0  0  0  0
  -23.9073  -10.4301   21.0403 C   0  0  0  0  0  0
  -24.3626   -9.4217   21.9183 C   0  0  0  0  0  0
  -23.6303   -8.2250   22.0753 C   0  0  0  0  0  0
  -22.4283   -8.0284   21.3544 C   0  0  0  0  0  0
  -21.9916   -9.0254   20.4644 C   0  0  0  0  0  0
  -22.7243  -10.2139   20.3056 C   0  0  0  0  0  0
  -21.6855   -6.0738   22.5280 C   0  0  0  0  0  0
  -21.4015   -6.5643   23.8212 C   0  0  0  0  0  0
  -21.3662   -5.6796   24.9176 C   0  0  0  0  0  0
  -21.6043   -4.3057   24.7225 C   0  0  0  0  0  0
  -21.8820   -3.8150   23.4344 C   0  0  0  0  0  0
  -21.9193   -4.6967   22.3401 C   0  0  0  0  0  0
  -22.7804  -13.5220   21.1870 C   0  0  0  0  0  0
  -22.1664   -4.2154   21.0976 F   0  0  0  0  0  0
  -21.5628   -3.4541   25.7735 F   0  0  0  0  0  0
  -29.9700  -13.5785   20.3830 N   0  0  0  0  0  0
  -26.2895  -12.9440   20.3254 N   0  0  0  0  0  0
  -25.9320  -11.6572   20.5743 N   0  0  0  0  0  0
  -22.0460  -12.8207   22.0426 N   0  0  0  0  0  0
  -25.4151  -15.1943   20.4127 N   0  0  0  0  0  0
  -31.8372  -14.7759   20.1643 O   0  0  0  0  0  0
  -21.6646   -6.8881   21.4241 O   0  0  0  0  0  0
  -22.3485  -14.5525   20.6716 O   0  0  0  0  0  0
  -24.6357  -31.8508   23.1948 C   0  0  0  0  0  0
  -25.9173  -32.4731   23.8292 C   0  0  1  0  0  0
  -27.2186  -27.2294   20.1219 C   0  0  0  0  0  0
  -25.5969  -33.8538   24.2223 N   0  0  0  0  0  0
  -23.4318  -30.4734   21.5391 C   0  0  2  0  0  0
  -24.8754  -28.9115   20.1081 C   0  0  0  0  0  0
  -22.7511  -29.4579   22.4887 C   0  0  0  0  0  0
  -18.0288  -28.1382   22.8471 C   0  0  0  0  0  0
  -24.1495  -36.7271   23.2635 C   0  0  0  0  0  0
  -25.9804  -30.7538   21.3761 C   0  0  0  0  0  0
  -26.0492  -29.3747   20.7136 C   0  0  0  0  0  0
  -27.2189  -28.5472   20.7058 C   0  0  0  0  0  0
  -26.0079  -26.8246   19.5206 C   0  0  0  0  0  0
  -24.8606  -27.6449   19.5024 C   0  0  0  0  0  0
  -23.6500  -29.8055   20.1550 C   0  0  0  0  0  0
  -25.4132  -36.3061   24.0314 C   0  0  1  0  0  0
  -20.5893  -28.3708   23.1251 C   0  0  2  0  0  0
  -20.6784  -26.9424   22.5398 C   0  0  0  0  0  0
  -19.5766  -26.6375   21.5204 C   0  0  0  0  0  0
  -18.1938  -26.7922   22.1607 C   0  0  0  0  0  0
  -19.1543  -28.8864   23.2847 C   0  0  0  0  0  0
  -18.9467  -30.1461   23.8872 C   0  0  0  0  0  0
  -17.6473  -30.6587   24.0561 C   0  0  0  0  0  0
  -25.9076  -34.9430   23.5072 C   0  0  0  0  0  0
  -16.5358  -29.9091   23.6332 C   0  0  0  0  0  0
  -16.7273  -28.6501   23.0356 C   0  0  0  0  0  0
  -26.4522  -31.6581   25.0708 C   0  0  0  0  0  0
  -25.3731  -31.3768   26.1423 C   0  0  0  0  0  0
  -27.0379  -30.2985   24.6242 C   0  0  0  0  0  0
  -27.6058  -32.4346   25.7490 C   0  0  0  0  0  0
  -27.5582  -37.1805   24.8457 C   0  0  0  0  0  0
  -21.4213  -29.3048   22.3633 N   0  0  0  0  0  0
  -26.4297  -37.3772   23.9403 N   0  0  0  0  0  0
  -24.7022  -31.0445   22.0935 N   0  0  0  0  0  0
  -23.4185  -28.8113   23.3001 O   0  0  0  0  0  0
  -28.3414  -26.3650   20.2067 O   0  0  0  0  0  0
  -26.5630  -34.8915   22.4632 O   0  0  0  0  0  0
  -23.5503  -32.1341   23.7237 O   0  0  0  0  0  0
  -27.9655  -20.4926   21.2706 C   0  0  0  0  0  0
  -29.7646  -19.9354   19.8892 C   0  0  0  0  0  0
  -28.8684  -21.0079   20.3715 C   0  0  0  0  0  0
  -29.5599  -18.6427   20.4431 C   0  0  0  0  0  0
  -30.3915  -17.3087   20.3806 C   0  0  0  0  0  0
  -28.2824  -23.6218   20.3350 C   0  0  0  0  0  0
  -30.8547  -20.2240   18.8944 C   0  0  0  0  0  0
  -28.1105  -24.9412   18.0768 C   0  0  0  0  0  0
  -28.5611  -25.0105   19.5480 C   0  0  2  0  0  0
  -28.9236  -22.4428   19.9374 N   0  0  0  0  0  0
  -29.9138  -15.9980   20.5363 N   0  0  0  0  0  0
  -31.5876  -17.5034   20.1419 O   0  0  0  0  0  0
  -27.4997  -23.6350   21.2887 O   0  0  0  0  0  0
  -28.2031  -18.7554   21.5493 S   0  0  0  0  0  0
  -31.4614  -12.5822   19.1830 H   0  0  0  0  0  0
  -30.3527  -11.5194   19.9972 H   0  0  0  0  0  0
  -29.7983  -11.7193   17.5434 H   0  0  0  0  0  0
  -29.6306  -13.4497   17.7102 H   0  0  0  0  0  0
  -27.8998  -11.2782   18.9320 H   0  0  0  0  0  0
  -27.3780  -12.4988   17.8021 H   0  0  0  0  0  0
  -27.6104  -14.2535   19.4342 H   0  0  0  0  0  0
  -28.7219  -12.2526   21.4598 H   0  0  0  0  0  0
  -28.4048  -13.9464   21.7569 H   0  0  0  0  0  0
  -25.2771   -9.5697   22.4758 H   0  0  0  0  0  0
  -24.0015   -7.4639   22.7472 H   0  0  0  0  0  0
  -21.0847   -8.8766   19.8945 H   0  0  0  0  0  0
  -22.3692  -10.9675   19.6166 H   0  0  0  0  0  0
  -21.2009   -7.6152   23.9718 H   0  0  0  0  0  0
  -21.1480   -6.0526   25.9077 H   0  0  0  0  0  0
  -22.0596   -2.7613   23.2842 H   0  0  0  0  0  0
  -22.4085  -11.9875   22.4819 H   0  0  0  0  0  0
  -21.1072  -13.1219   22.2627 H   0  0  0  0  0  0
  -24.6449  -15.8451   20.5216 H   0  0  0  0  0  0
  -26.2566  -15.6352   20.0651 H   0  0  0  0  0  0
  -26.7238  -32.5368   23.1019 H   0  0  0  0  0  0
  -25.0162  -33.9671   25.0404 H   0  0  0  0  0  0
  -22.7311  -31.2978   21.3936 H   0  0  0  0  0  0
  -23.3773  -35.9587   23.3288 H   0  0  0  0  0  0
  -24.3550  -36.8900   22.2041 H   0  0  0  0  0  0
  -23.7233  -37.6465   23.6668 H   0  0  0  0  0  0
  -26.1259  -31.5150   20.6087 H   0  0  0  0  0  0
  -26.8561  -30.8003   22.0127 H   0  0  0  0  0  0
  -28.1204  -28.8993   21.1875 H   0  0  0  0  0  0
  -25.9028  -25.8363   19.1084 H   0  0  0  0  0  0
  -23.9530  -27.2755   19.0449 H   0  0  0  0  0  0
  -23.7783  -30.5824   19.4008 H   0  0  0  0  0  0
  -22.7662  -29.2443   19.8488 H   0  0  0  0  0  0
  -25.1320  -36.1887   25.0806 H   0  0  0  0  0  0
  -20.9982  -28.3300   24.1374 H   0  0  0  0  0  0
  -20.5696  -26.2322   23.3608 H   0  0  0  0  0  0
  -21.6653  -26.7447   22.1201 H   0  0  0  0  0  0
  -19.6933  -25.6285   21.1245 H   0  0  0  0  0  0
  -19.6710  -27.3172   20.6729 H   0  0  0  0  0  0
  -17.4218  -26.6660   21.4005 H   0  0  0  0  0  0
  -18.0344  -26.0058   22.9003 H   0  0  0  0  0  0
  -19.7952  -30.7277   24.2225 H   0  0  0  0  0  0
  -17.5037  -31.6267   24.5171 H   0  0  0  0  0  0
  -15.5368  -30.2998   23.7674 H   0  0  0  0  0  0
  -15.8661  -28.0824   22.7096 H   0  0  0  0  0  0
  -24.5892  -30.7131   25.7755 H   0  0  0  0  0  0
  -24.8953  -32.2965   26.4819 H   0  0  0  0  0  0
  -25.8028  -30.8953   27.0214 H   0  0  0  0  0  0
  -26.2973  -29.6723   24.1256 H   0  0  0  0  0  0
  -27.4015  -29.7265   25.4788 H   0  0  0  0  0  0
  -27.8862  -30.4232   23.9513 H   0  0  0  0  0  0
  -27.2641  -33.3661   26.2013 H   0  0  0  0  0  0
  -28.3893  -32.6885   25.0343 H   0  0  0  0  0  0
  -28.0692  -31.8511   26.5453 H   0  0  0  0  0  0
  -28.2618  -38.0094   24.7525 H   0  0  0  0  0  0
  -28.1074  -36.2631   24.6286 H   0  0  0  0  0  0
  -27.2276  -37.1435   25.8853 H   0  0  0  0  0  0
  -20.9407  -29.8760   21.6824 H   0  0  0  0  0  0
  -26.0163  -38.2834   24.1436 H   0  0  0  0  0  0
  -27.1756  -21.0138   21.7982 H   0  0  0  0  0  0
  -30.6068  -21.0661   18.2488 H   0  0  0  0  0  0
  -31.0416  -19.3735   18.2386 H   0  0  0  0  0  0
  -31.7914  -20.4623   19.3979 H   0  0  0  0  0  0
  -27.1099  -24.5233   17.9716 H   0  0  0  0  0  0
  -28.7747  -24.2961   17.5016 H   0  0  0  0  0  0
  -28.1282  -25.9232   17.6045 H   0  0  0  0  0  0
  -29.6503  -25.0135   19.4873 H   0  0  0  0  0  0
  -29.5684  -22.6092   19.1775 H   0  0  0  0  0  0
  -28.9268  -15.9165   20.7086 H   0  0  0  0  0  0
  1 25  1  0  0  0
  1 30  2  0  0  0
  1 81  1  0  0  0
  2  3  1  0  0  0
  2 25  1  0  0  0
  2 85  1  0  0  0
  2 86  1  0  0  0
  3  4  1  0  0  0
  3 87  1  0  0  0
  3 88  1  0  0  0
  4  5  1  0  0  0
  4 89  1  0  0  0
  4 90  1  0  0  0
  5  6  1  0  0  0
  5 26  1  0  0  0
  5 91  1  0  0  0
  6 25  1  0  0  0
  6 92  1  0  0  0
  6 93  1  0  0  0
  7  8  2  0  0  0
  7 26  1  0  0  0
  7 29  1  0  0  0
  8  9  1  0  0  0
  8 22  1  0  0  0
  9 10  1  0  0  0
  9 27  2  0  0  0
 10 11  2  0  0  0
 10 15  1  0  0  0
 11 12  1  0  0  0
 11 94  1  0  0  0
 12 13  2  0  0  0
 12 95  1  0  0  0
 13 14  1  0  0  0
 13 31  1  0  0  0
 14 15  2  0  0  0
 14 96  1  0  0  0
 15 97  1  0  0  0
 16 17  2  0  0  0
 16 21  1  0  0  0
 16 31  1  0  0  0
 17 18  1  0  0  0
 17 98  1  0  0  0
 18 19  2  0  0  0
 18 99  1  0  0  0
 19 20  1  0  0  0
 19 24  1  0  0  0
 20 21  2  0  0  0
 20100  1  0  0  0
 21 23  1  0  0  0
 22 28  1  0  0  0
 22 32  2  0  0  0
 26 27  1  0  0  0
 28101  1  0  0  0
 28102  1  0  0  0
 29103  1  0  0  0
 29104  1  0  0  0
 33 34  1  0  0  0
 33 66  1  0  0  0
 33 70  2  0  0  0
 34 36  1  0  0  0
 34 59  1  0  0  0
 34105  1  0  0  0
 35 44  2  0  0  0
 35 45  1  0  0  0
 35 68  1  0  0  0
 36 56  1  0  0  0
 36106  1  0  0  0
 37 39  1  0  0  0
 37 47  1  0  0  0
 37 66  1  0  0  0
 37107  1  0  0  0
 38 43  2  0  0  0
 38 46  1  0  0  0
 38 47  1  0  0  0
 39 64  1  0  0  0
 39 67  2  0  0  0
 40 52  1  0  0  0
 40 53  2  0  0  0
 40 58  1  0  0  0
 41108  1  0  0  0
 41109  1  0  0  0
 41110  1  0  0  0
 41 48  1  0  0  0
 42 43  1  0  0  0
 42 66  1  0  0  0
 42111  1  0  0  0
 42112  1  0  0  0
 43 44  1  0  0  0
 44113  1  0  0  0
 45 46  2  0  0  0
 45114  1  0  0  0
 46115  1  0  0  0
 47116  1  0  0  0
 47117  1  0  0  0
 48 56  1  0  0  0
 48 65  1  0  0  0
 48118  1  0  0  0
 49 50  1  0  0  0
 49 53  1  0  0  0
 49 64  1  0  0  0
 49119  1  0  0  0
 50 51  1  0  0  0
 50120  1  0  0  0
 50121  1  0  0  0
 51 52  1  0  0  0
 51122  1  0  0  0
 51123  1  0  0  0
 52124  1  0  0  0
 52125  1  0  0  0
 53 54  1  0  0  0
 54 55  2  0  0  0
 54126  1  0  0  0
 55 57  1  0  0  0
 55127  1  0  0  0
 56 69  2  0  0  0
 57 58  2  0  0  0
 57128  1  0  0  0
 58129  1  0  0  0
 59 60  1  0  0  0
 59 61  1  0  0  0
 59 62  1  0  0  0
 60130  1  0  0  0
 60131  1  0  0  0
 60132  1  0  0  0
 61133  1  0  0  0
 61134  1  0  0  0
 61135  1  0  0  0
 62136  1  0  0  0
 62137  1  0  0  0
 62138  1  0  0  0
 63 65  1  0  0  0
 63139  1  0  0  0
 63140  1  0  0  0
 63141  1  0  0  0
 64142  1  0  0  0
 65143  1  0  0  0
 68 79  1  0  0  0
 71 73  2  0  0  0
 71 84  1  0  0  0
 71144  1  0  0  0
 72 73  1  0  0  0
 72 74  2  0  0  0
 72 77  1  0  0  0
 73 80  1  0  0  0
 74 75  1  0  0  0
 74 84  1  0  0  0
 75 81  1  0  0  0
 75 82  2  0  0  0
 76 79  1  0  0  0
 76 80  1  0  0  0
 76 83  2  0  0  0
 77145  1  0  0  0
 77146  1  0  0  0
 77147  1  0  0  0
 78148  1  0  0  0
 78149  1  0  0  0
 78150  1  0  0  0
 78 79  1  0  0  0
 79151  1  0  0  0
 80152  1  0  0  0
 81153  1  0  0  0
M  ISO  4   1 100  68 101  79 101  81 100
M  END
> <chiral flag>
0

> <version>
0

> <s_m_source_file>
/data/baiqing/PycharmProjects/Reinvent-master-3.2/result/LINK_invent/BTK/process_docking_weight1_custom_product_contain_oxygen_bond_distance_aromatic_linkinvent_7_9_3/rearranged_h_0182.sdf

> <i_m_source_file_index>
44

> <r_mmod_Potential_Energy-OPLS-2005>
148.561737060547

> <r_mmod_Stretch_Energy-OPLS-2005>
146.72004699707

> <r_mmod_Bend_Energy-OPLS-2005>
224.398315429688

> <r_mmod_Torsional_Energy-OPLS-2005>
237.920333862305

> <r_mmod_Improper_Torsional_Energy-OPLS-2005>
5.47379159927368

> <r_mmod_Van_der_Waal_Energy-OPLS-2005>
120.978355407715

> <r_mmod_Electrostatic_Energy-OPLS-2005>
-440.567291259766

> <r_mmod_Solvation_Energy-OPLS-2005>
-251.412887573242

> <b_mmod_Minimization_Converged-OPLS-2005>
0

> <r_mmod_RMS_Derivative-OPLS-2005>
1.4061154127121

$$$$
44
                    3D
 Structure written by MMmdl.
151159  0  0  1  0            999 V2000
  -30.5824  -14.8047   20.4464 C   0  0  0  0  0  0
  -30.4422  -12.4952   19.4724 C   0  0  0  0  0  0
  -29.5150  -12.5067   18.2368 C   0  0  0  0  0  0
  -28.0444  -12.3148   18.6553 C   0  0  0  0  0  0
  -27.6384  -13.2281   19.8422 C   0  0  2  0  0  0
  -28.6853  -13.1900   20.9767 C   0  0  0  0  0  0
  -25.2505  -13.8179   20.5683 C   0  0  0  0  0  0
  -24.1799  -13.0431   20.9208 C   0  0  0  0  0  0
  -24.6388  -11.6912   20.8745 C   0  0  0  0  0  0
  -23.9066  -10.4293   21.0413 C   0  0  0  0  0  0
  -24.3618   -9.4202   21.9190 C   0  0  0  0  0  0
  -23.6287   -8.2236   22.0760 C   0  0  0  0  0  0
  -22.4267   -8.0279   21.3544 C   0  0  0  0  0  0
  -21.9909   -9.0256   20.4649 C   0  0  0  0  0  0
  -22.7240  -10.2134   20.3057 C   0  0  0  0  0  0
  -21.6852   -6.0730   22.5276 C   0  0  0  0  0  0
  -21.4016   -6.5639   23.8208 C   0  0  0  0  0  0
  -21.3655   -5.6793   24.9173 C   0  0  0  0  0  0
  -21.6038   -4.3052   24.7228 C   0  0  0  0  0  0
  -21.8819   -3.8145   23.4350 C   0  0  0  0  0  0
  -21.9192   -4.6959   22.3404 C   0  0  0  0  0  0
  -22.7820  -13.5223   21.1866 C   0  0  0  0  0  0
  -22.1655   -4.2145   21.0981 F   0  0  0  0  0  0
  -21.5632   -3.4533   25.7739 F   0  0  0  0  0  0
  -29.9775  -13.5643   20.3878 N   0  0  0  0  0  0
  -26.2915  -12.9372   20.3243 N   0  0  0  0  0  0
  -25.9310  -11.6523   20.5743 N   0  0  0  0  0  0
  -22.0455  -12.8217   22.0418 N   0  0  0  0  0  0
  -25.4188  -15.1907   20.4099 N   0  0  0  0  0  0
  -31.7871  -14.8977   20.1864 O   0  0  0  0  0  0
  -21.6631   -6.8868   21.4232 O   0  0  0  0  0  0
  -22.3510  -14.5534   20.6717 O   0  0  0  0  0  0
  -24.6325  -31.8508   23.1937 C   0  0  0  0  0  0
  -25.9127  -32.4732   23.8294 C   0  0  1  0  0  0
  -27.2277  -27.2324   20.1495 C   0  0  0  0  0  0
  -25.5904  -33.8532   24.2222 N   0  0  0  0  0  0
  -23.4326  -30.4704   21.5366 C   0  0  2  0  0  0
  -24.8807  -28.8995   20.1196 C   0  0  0  0  0  0
  -22.7505  -29.4582   22.4892 C   0  0  0  0  0  0
  -18.0278  -28.1385   22.8488 C   0  0  0  0  0  0
  -24.1486  -36.7272   23.2642 C   0  0  0  0  0  0
  -25.9787  -30.7559   21.3736 C   0  0  0  0  0  0
  -26.0519  -29.3701   20.7266 C   0  0  0  0  0  0
  -27.2300  -28.5526   20.7228 C   0  0  0  0  0  0
  -26.0330  -26.8242   19.5235 C   0  0  0  0  0  0
  -24.8747  -27.6342   19.5080 C   0  0  0  0  0  0
  -23.6547  -29.7953   20.1567 C   0  0  0  0  0  0
  -25.4112  -36.3046   24.0332 C   0  0  1  0  0  0
  -20.5894  -28.3693   23.1276 C   0  0  2  0  0  0
  -20.6773  -26.9410   22.5415 C   0  0  0  0  0  0
  -19.5760  -26.6381   21.5208 C   0  0  0  0  0  0
  -18.1929  -26.7925   22.1612 C   0  0  0  0  0  0
  -19.1539  -28.8847   23.2871 C   0  0  0  0  0  0
  -18.9481  -30.1459   23.8879 C   0  0  0  0  0  0
  -17.6485  -30.6596   24.0561 C   0  0  0  0  0  0
  -25.9057  -34.9422   23.5082 C   0  0  0  0  0  0
  -16.5362  -29.9114   23.6330 C   0  0  0  0  0  0
  -16.7267  -28.6525   23.0342 C   0  0  0  0  0  0
  -26.4493  -31.6563   25.0699 C   0  0  0  0  0  0
  -25.3709  -31.3751   26.1414 C   0  0  0  0  0  0
  -27.0332  -30.2982   24.6167 C   0  0  0  0  0  0
  -27.6028  -32.4317   25.7480 C   0  0  0  0  0  0
  -27.5579  -37.1787   24.8463 C   0  0  0  0  0  0
  -21.4206  -29.3055   22.3663 N   0  0  0  0  0  0
  -26.4277  -37.3759   23.9434 N   0  0  0  0  0  0
  -24.7009  -31.0458   22.0912 N   0  0  0  0  0  0
  -23.4189  -28.8105   23.2989 O   0  0  0  0  0  0
  -28.3460  -26.3586   20.1225 O   0  0  0  0  0  0
  -26.5649  -34.8912   22.4671 O   0  0  0  0  0  0
  -23.5468  -32.1304   23.7241 O   0  0  0  0  0  0
  -29.6553  -19.7666   20.4420 C   0  0  0  0  0  0
  -30.9452  -19.7277   20.9094 C   0  0  0  0  0  0
  -30.0511  -17.3977   20.5745 C   0  0  0  0  0  0
  -28.8998  -21.0333   19.9587 C   0  0  0  0  0  0
  -28.3573  -23.6295   19.9453 C   0  0  0  0  0  0
  -27.3694  -24.9286   21.9671 C   0  0  0  0  0  0
  -28.3880  -24.9982   20.8120 C   0  0  2  0  0  0
  -29.1582  -18.4086   20.2445 N   0  0  0  0  0  0
  -29.7613  -15.9328   20.5294 N   0  0  0  0  0  0
  -28.9890  -22.3501   20.4661 N   0  0  0  0  0  0
  -28.0933  -20.7891   18.9108 N   0  3  0  0  0  0
  -27.7664  -23.6094   18.8581 O   0  0  0  0  0  0
  -31.7061  -20.8286   21.1298 F   0  0  0  0  0  0
  -31.5878  -18.0993   21.1332 S   0  0  0  0  0  0
  -31.4777  -12.6446   19.1602 H   0  0  0  0  0  0
  -30.4156  -11.5266   19.9732 H   0  0  0  0  0  0
  -29.8128  -11.7239   17.5378 H   0  0  0  0  0  0
  -29.6235  -13.4506   17.7006 H   0  0  0  0  0  0
  -27.9212  -11.2685   18.9400 H   0  0  0  0  0  0
  -27.3830  -12.4769   17.8038 H   0  0  0  0  0  0
  -27.6210  -14.2416   19.4421 H   0  0  0  0  0  0
  -28.7407  -12.1963   21.4249 H   0  0  0  0  0  0
  -28.4083  -13.8736   21.7808 H   0  0  0  0  0  0
  -25.2766   -9.5672   22.4756 H   0  0  0  0  0  0
  -23.9995   -7.4627   22.7482 H   0  0  0  0  0  0
  -21.0836   -8.8767   19.8958 H   0  0  0  0  0  0
  -22.3697  -10.9665   19.6158 H   0  0  0  0  0  0
  -21.2003   -7.6145   23.9712 H   0  0  0  0  0  0
  -21.1476   -6.0523   25.9080 H   0  0  0  0  0  0
  -22.0603   -2.7603   23.2851 H   0  0  0  0  0  0
  -22.4069  -11.9882   22.4810 H   0  0  0  0  0  0
  -21.1072  -13.1241   22.2605 H   0  0  0  0  0  0
  -24.6490  -15.8410   20.5285 H   0  0  0  0  0  0
  -26.2564  -15.6351   20.0586 H   0  0  0  0  0  0
  -26.7184  -32.5361   23.1023 H   0  0  0  0  0  0
  -25.0024  -33.9660   25.0352 H   0  0  0  0  0  0
  -22.7315  -31.2941   21.3851 H   0  0  0  0  0  0
  -23.3747  -35.9599   23.3276 H   0  0  0  0  0  0
  -24.3589  -36.8913   22.2057 H   0  0  0  0  0  0
  -23.7221  -37.6461   23.6691 H   0  0  0  0  0  0
  -26.1170  -31.5063   20.5938 H   0  0  0  0  0  0
  -26.8594  -30.8114   22.0023 H   0  0  0  0  0  0
  -28.1324  -28.9197   21.1921 H   0  0  0  0  0  0
  -25.9896  -25.8514   19.0537 H   0  0  0  0  0  0
  -23.9760  -27.2661   19.0319 H   0  0  0  0  0  0
  -23.7939  -30.5685   19.3996 H   0  0  0  0  0  0
  -22.7692  -29.2364   19.8460 H   0  0  0  0  0  0
  -25.1291  -36.1872   25.0821 H   0  0  0  0  0  0
  -20.9985  -28.3246   24.1397 H   0  0  0  0  0  0
  -20.5662  -26.2286   23.3614 H   0  0  0  0  0  0
  -21.6639  -26.7423   22.1215 H   0  0  0  0  0  0
  -19.6940  -25.6297   21.1230 H   0  0  0  0  0  0
  -19.6710  -27.3193   20.6741 H   0  0  0  0  0  0
  -17.4208  -26.6648   21.4009 H   0  0  0  0  0  0
  -18.0341  -26.0090   22.9022 H   0  0  0  0  0  0
  -19.7967  -30.7277   24.2223 H   0  0  0  0  0  0
  -17.5057  -31.6268   24.5185 H   0  0  0  0  0  0
  -15.5382  -30.3024   23.7688 H   0  0  0  0  0  0
  -15.8648  -28.0869   22.7056 H   0  0  0  0  0  0
  -24.5895  -30.7072   25.7779 H   0  0  0  0  0  0
  -24.8896  -32.2932   26.4793 H   0  0  0  0  0  0
  -25.8023  -30.8986   27.0218 H   0  0  0  0  0  0
  -26.2912  -29.6731   24.1183 H   0  0  0  0  0  0
  -27.4011  -29.7238   25.4677 H   0  0  0  0  0  0
  -27.8772  -30.4278   23.9393 H   0  0  0  0  0  0
  -27.2617  -33.3629   26.2014 H   0  0  0  0  0  0
  -28.3854  -32.6840   25.0318 H   0  0  0  0  0  0
  -28.0647  -31.8457   26.5429 H   0  0  0  0  0  0
  -28.2560  -38.0124   24.7555 H   0  0  0  0  0  0
  -28.1103  -36.2653   24.6213 H   0  0  0  0  0  0
  -27.2317  -37.1322   25.8869 H   0  0  0  0  0  0
  -20.9383  -29.8794   21.6882 H   0  0  0  0  0  0
  -26.0132  -38.2811   24.1484 H   0  0  0  0  0  0
  -27.4767  -24.0035   22.5355 H   0  0  0  0  0  0
  -26.3425  -24.9707   21.6056 H   0  0  0  0  0  0
  -27.5124  -25.7546   22.6631 H   0  0  0  0  0  0
  -29.3737  -24.9868   21.2774 H   0  0  0  0  0  0
  -28.7817  -15.7070   20.5613 H   0  0  0  0  0  0
  -29.5307  -22.3842   21.3149 H   0  0  0  0  0  0
  -28.0264  -19.8405   18.5715 H   0  0  0  0  0  0
  -27.5997  -21.5344   18.4378 H   0  0  0  0  0  0
  1 25  1  0  0  0
  1 30  2  0  0  0
  1 79  1  0  0  0
  2  3  1  0  0  0
  2 25  1  0  0  0
  2 85  1  0  0  0
  2 86  1  0  0  0
  3  4  1  0  0  0
  3 87  1  0  0  0
  3 88  1  0  0  0
  4  5  1  0  0  0
  4 89  1  0  0  0
  4 90  1  0  0  0
  5  6  1  0  0  0
  5 26  1  0  0  0
  5 91  1  0  0  0
  6 25  1  0  0  0
  6 92  1  0  0  0
  6 93  1  0  0  0
  7  8  2  0  0  0
  7 26  1  0  0  0
  7 29  1  0  0  0
  8  9  1  0  0  0
  8 22  1  0  0  0
  9 10  1  0  0  0
  9 27  2  0  0  0
 10 11  2  0  0  0
 10 15  1  0  0  0
 11 12  1  0  0  0
 11 94  1  0  0  0
 12 13  2  0  0  0
 12 95  1  0  0  0
 13 14  1  0  0  0
 13 31  1  0  0  0
 14 15  2  0  0  0
 14 96  1  0  0  0
 15 97  1  0  0  0
 16 17  2  0  0  0
 16 21  1  0  0  0
 16 31  1  0  0  0
 17 18  1  0  0  0
 17 98  1  0  0  0
 18 19  2  0  0  0
 18 99  1  0  0  0
 19 20  1  0  0  0
 19 24  1  0  0  0
 20 21  2  0  0  0
 20100  1  0  0  0
 21 23  1  0  0  0
 22 28  1  0  0  0
 22 32  2  0  0  0
 26 27  1  0  0  0
 28101  1  0  0  0
 28102  1  0  0  0
 29103  1  0  0  0
 29104  1  0  0  0
 33 34  1  0  0  0
 33 66  1  0  0  0
 33 70  2  0  0  0
 34 36  1  0  0  0
 34 59  1  0  0  0
 34105  1  0  0  0
 35 44  2  0  0  0
 35 45  1  0  0  0
 35 68  1  0  0  0
 36 56  1  0  0  0
 36106  1  0  0  0
 37 39  1  0  0  0
 37 47  1  0  0  0
 37 66  1  0  0  0
 37107  1  0  0  0
 38 43  2  0  0  0
 38 46  1  0  0  0
 38 47  1  0  0  0
 39 64  1  0  0  0
 39 67  2  0  0  0
 40 52  1  0  0  0
 40 53  2  0  0  0
 40 58  1  0  0  0
 41108  1  0  0  0
 41109  1  0  0  0
 41110  1  0  0  0
 41 48  1  0  0  0
 42 43  1  0  0  0
 42 66  1  0  0  0
 42111  1  0  0  0
 42112  1  0  0  0
 43 44  1  0  0  0
 44113  1  0  0  0
 45 46  2  0  0  0
 45114  1  0  0  0
 46115  1  0  0  0
 47116  1  0  0  0
 47117  1  0  0  0
 48 56  1  0  0  0
 48 65  1  0  0  0
 48118  1  0  0  0
 49 50  1  0  0  0
 49 53  1  0  0  0
 49 64  1  0  0  0
 49119  1  0  0  0
 50 51  1  0  0  0
 50120  1  0  0  0
 50121  1  0  0  0
 51 52  1  0  0  0
 51122  1  0  0  0
 51123  1  0  0  0
 52124  1  0  0  0
 52125  1  0  0  0
 53 54  1  0  0  0
 54 55  2  0  0  0
 54126  1  0  0  0
 55 57  1  0  0  0
 55127  1  0  0  0
 56 69  2  0  0  0
 57 58  2  0  0  0
 57128  1  0  0  0
 58129  1  0  0  0
 59 60  1  0  0  0
 59 61  1  0  0  0
 59 62  1  0  0  0
 60130  1  0  0  0
 60131  1  0  0  0
 60132  1  0  0  0
 61133  1  0  0  0
 61134  1  0  0  0
 61135  1  0  0  0
 62136  1  0  0  0
 62137  1  0  0  0
 62138  1  0  0  0
 63 65  1  0  0  0
 63139  1  0  0  0
 63140  1  0  0  0
 63141  1  0  0  0
 64142  1  0  0  0
 65143  1  0  0  0
 68 77  1  0  0  0
 71 72  2  0  0  0
 71 74  1  0  0  0
 71 78  1  0  0  0
 72 83  1  0  0  0
 72 84  1  0  0  0
 73 78  2  0  0  0
 73 79  1  0  0  0
 73 84  1  0  0  0
 74 80  1  0  0  0
 74 81  2  0  0  0
 75 77  1  0  0  0
 75 80  1  0  0  0
 75 82  2  0  0  0
 76144  1  0  0  0
 76145  1  0  0  0
 76146  1  0  0  0
 76 77  1  0  0  0
 77147  1  0  0  0
 79148  1  0  0  0
 80149  1  0  0  0
 81150  1  0  0  0
 81151  1  0  0  0
M  CHG  1  81   1
M  ISO  4   1 100  68 101  77 101  79 100
M  END
> <chiral flag>
0

> <version>
0

> <s_m_source_file>
/data/baiqing/PycharmProjects/Reinvent-master-3.2/result/LINK_invent/BTK/process_docking_weight1_custom_product_contain_oxygen_bond_distance_aromatic_linkinvent_7_9_3/rearranged_h_0182.sdf

> <i_m_source_file_index>
45

> <r_mmod_Potential_Energy-OPLS-2005>
-80.5452499389648

> <r_mmod_Stretch_Energy-OPLS-2005>
150.100234985352

> <r_mmod_Bend_Energy-OPLS-2005>
200.442733764648

> <r_mmod_Torsional_Energy-OPLS-2005>
235.861541748047

> <r_mmod_Improper_Torsional_Energy-OPLS-2005>
7.60300016403198

> <r_mmod_Van_der_Waal_Energy-OPLS-2005>
115.275062561035

> <r_mmod_Electrostatic_Energy-OPLS-2005>
-412.591888427734

> <r_mmod_Solvation_Energy-OPLS-2005>
-482.539215087891

> <b_mmod_Minimization_Converged-OPLS-2005>
0

> <r_mmod_RMS_Derivative-OPLS-2005>
2.65991711616516

$$$$
45
                    3D
 Structure written by MMmdl.
154162  0  0  1  0            999 V2000
  -30.4953  -14.9965   20.3928 C   0  0  0  0  0  0
  -30.4528  -12.6159   19.4947 C   0  0  0  0  0  0
  -29.5261  -12.5385   18.2572 C   0  0  0  0  0  0
  -28.0594  -12.3169   18.6779 C   0  0  0  0  0  0
  -27.6302  -13.2497   19.8414 C   0  0  2  0  0  0
  -28.6785  -13.2784   20.9743 C   0  0  0  0  0  0
  -25.2430  -13.8168   20.5769 C   0  0  0  0  0  0
  -24.1742  -13.0373   20.9186 C   0  0  0  0  0  0
  -24.6393  -11.6880   20.8721 C   0  0  0  0  0  0
  -23.9081  -10.4258   21.0385 C   0  0  0  0  0  0
  -24.3625   -9.4185   21.9175 C   0  0  0  0  0  0
  -23.6292   -8.2227   22.0753 C   0  0  0  0  0  0
  -22.4273   -8.0269   21.3544 C   0  0  0  0  0  0
  -21.9910   -9.0238   20.4642 C   0  0  0  0  0  0
  -22.7248  -10.2109   20.3041 C   0  0  0  0  0  0
  -21.6849   -6.0730   22.5282 C   0  0  0  0  0  0
  -21.4011   -6.5634   23.8215 C   0  0  0  0  0  0
  -21.3659   -5.6788   24.9178 C   0  0  0  0  0  0
  -21.6045   -4.3051   24.7229 C   0  0  0  0  0  0
  -21.8819   -3.8142   23.4350 C   0  0  0  0  0  0
  -21.9190   -4.6958   22.3405 C   0  0  0  0  0  0
  -22.7766  -13.5151   21.1861 C   0  0  0  0  0  0
  -22.1661   -4.2144   21.0982 F   0  0  0  0  0  0
  -21.5630   -3.4535   25.7743 F   0  0  0  0  0  0
  -29.9494  -13.7104   20.3731 N   0  0  0  0  0  0
  -26.2899  -12.9442   20.3304 N   0  0  0  0  0  0
  -25.9340  -11.6557   20.5742 N   0  0  0  0  0  0
  -22.0428  -12.8152   22.0434 N   0  0  0  0  0  0
  -25.3940  -15.1917   20.4412 N   0  0  0  0  0  0
  -31.6972  -15.1128   20.1320 O   0  0  0  0  0  0
  -21.6632   -6.8872   21.4245 O   0  0  0  0  0  0
  -22.3449  -14.5465   20.6724 O   0  0  0  0  0  0
  -24.6466  -31.8390   23.1831 C   0  0  0  0  0  0
  -25.9220  -32.4667   23.8236 C   0  0  1  0  0  0
  -27.2301  -27.1009   20.1377 C   0  0  0  0  0  0
  -25.5949  -33.8474   24.2151 N   0  0  0  0  0  0
  -23.4519  -30.4559   21.5292 C   0  0  2  0  0  0
  -24.9022  -28.8748   20.1048 C   0  0  0  0  0  0
  -22.7581  -29.4520   22.4840 C   0  0  0  0  0  0
  -18.0305  -28.1398   22.8475 C   0  0  0  0  0  0
  -24.1491  -36.7243   23.2644 C   0  0  0  0  0  0
  -26.0099  -30.7001   21.3866 C   0  0  0  0  0  0
  -26.0791  -29.3087   20.7248 C   0  0  0  0  0  0
  -27.2349  -28.4364   20.7261 C   0  0  0  0  0  0
  -26.0155  -26.7688   19.4985 C   0  0  0  0  0  0
  -24.8850  -27.6187   19.4784 C   0  0  0  0  0  0
  -23.6791  -29.7800   20.1497 C   0  0  0  0  0  0
  -25.4127  -36.3015   24.0310 C   0  0  1  0  0  0
  -20.5920  -28.3726   23.1229 C   0  0  2  0  0  0
  -20.6787  -26.9426   22.5406 C   0  0  0  0  0  0
  -19.5762  -26.6380   21.5213 C   0  0  0  0  0  0
  -18.1943  -26.7934   22.1623 C   0  0  0  0  0  0
  -19.1562  -28.8880   23.2843 C   0  0  0  0  0  0
  -18.9479  -30.1475   23.8870 C   0  0  0  0  0  0
  -17.6475  -30.6594   24.0558 C   0  0  0  0  0  0
  -25.9080  -34.9393   23.5046 C   0  0  0  0  0  0
  -16.5366  -29.9087   23.6339 C   0  0  0  0  0  0
  -16.7289  -28.6505   23.0359 C   0  0  0  0  0  0
  -26.4528  -31.6555   25.0699 C   0  0  0  0  0  0
  -25.3700  -31.3757   26.1387 C   0  0  0  0  0  0
  -27.0405  -30.2947   24.6316 C   0  0  0  0  0  0
  -27.6047  -32.4334   25.7490 C   0  0  0  0  0  0
  -27.5575  -37.1779   24.8466 C   0  0  0  0  0  0
  -21.4269  -29.3042   22.3594 N   0  0  0  0  0  0
  -26.4286  -37.3735   23.9407 N   0  0  0  0  0  0
  -24.7228  -31.0211   22.0877 N   0  0  0  0  0  0
  -23.4208  -28.8080   23.3013 O   0  0  0  0  0  0
  -28.3080  -26.1355   20.2773 O   0  0  0  0  0  0
  -26.5679  -34.8902   22.4633 O   0  0  0  0  0  0
  -23.5577  -32.1282   23.7033 O   0  0  0  0  0  0
  -30.6970  -18.6228   20.3860 C   0  0  0  0  0  0
  -29.6314  -17.6651   20.3698 C   0  0  0  0  0  0
  -28.4148  -18.4063   20.2531 C   0  0  0  0  0  0
  -29.3171  -20.6195   20.2389 C   0  0  0  0  0  0
  -28.4265  -23.2375   20.3141 C   0  0  0  0  0  0
  -30.1538  -24.9342   19.4347 C   0  0  0  0  0  0
  -28.0325  -24.6681   18.1795 C   0  0  0  0  0  0
  -28.6326  -24.7452   19.5970 C   0  0  0  0  0  0
  -30.5348  -20.0128   20.3002 N   0  0  0  0  0  0
  -28.2529  -19.7823   20.2134 N   0  0  0  0  0  0
  -27.2455  -17.6775   20.1203 N   0  0  0  0  0  0
  -29.6240  -16.1189   20.4968 N   0  0  0  0  0  0
  -29.2339  -22.0930   20.0073 N   0  0  0  0  0  0
  -27.5107  -23.1431   21.1361 O   0  0  0  0  0  0
  -31.4815  -12.7959   19.1787 H   0  0  0  0  0  0
  -30.4666  -11.6657   20.0313 H   0  0  0  0  0  0
  -29.8508  -11.7393   17.5895 H   0  0  0  0  0  0
  -29.6049  -13.4649   17.6860 H   0  0  0  0  0  0
  -27.9615  -11.2758   18.9882 H   0  0  0  0  0  0
  -27.3946  -12.4425   17.8225 H   0  0  0  0  0  0
  -27.5849  -14.2508   19.4117 H   0  0  0  0  0  0
  -28.7764  -12.2986   21.4440 H   0  0  0  0  0  0
  -28.3742  -13.9684   21.7632 H   0  0  0  0  0  0
  -25.2772   -9.5663   22.4750 H   0  0  0  0  0  0
  -23.9996   -7.4621   22.7478 H   0  0  0  0  0  0
  -21.0839   -8.8758   19.8953 H   0  0  0  0  0  0
  -22.3709  -10.9644   19.6145 H   0  0  0  0  0  0
  -21.2003   -7.6143   23.9717 H   0  0  0  0  0  0
  -21.1482   -6.0518   25.9080 H   0  0  0  0  0  0
  -22.0599   -2.7605   23.2851 H   0  0  0  0  0  0
  -22.4052  -11.9814   22.4818 H   0  0  0  0  0  0
  -21.1052  -13.1183   22.2656 H   0  0  0  0  0  0
  -24.6138  -15.8155   20.6142 H   0  0  0  0  0  0
  -26.2652  -15.6980   20.3457 H   0  0  0  0  0  0
  -26.7282  -32.5255   23.0955 H   0  0  0  0  0  0
  -25.0056  -33.9577   25.0271 H   0  0  0  0  0  0
  -22.7566  -31.2830   21.3712 H   0  0  0  0  0  0
  -23.3761  -35.9566   23.3292 H   0  0  0  0  0  0
  -24.3573  -36.8895   22.2062 H   0  0  0  0  0  0
  -23.7240  -37.6429   23.6698 H   0  0  0  0  0  0
  -26.1717  -31.4537   20.6148 H   0  0  0  0  0  0
  -26.8776  -30.7491   22.0327 H   0  0  0  0  0  0
  -28.1286  -28.7628   21.2385 H   0  0  0  0  0  0
  -25.8808  -25.7963   19.0612 H   0  0  0  0  0  0
  -23.9801  -27.2729   18.9975 H   0  0  0  0  0  0
  -23.8159  -30.5520   19.3916 H   0  0  0  0  0  0
  -22.7934  -29.2220   19.8410 H   0  0  0  0  0  0
  -25.1320  -36.1833   25.0803 H   0  0  0  0  0  0
  -21.0011  -28.3321   24.1351 H   0  0  0  0  0  0
  -20.5677  -26.2341   23.3629 H   0  0  0  0  0  0
  -21.6654  -26.7427   22.1208 H   0  0  0  0  0  0
  -19.6924  -25.6284   21.1261 H   0  0  0  0  0  0
  -19.6699  -27.3175   20.6730 H   0  0  0  0  0  0
  -17.4213  -26.6677   21.4028 H   0  0  0  0  0  0
  -18.0343  -26.0083   22.9027 H   0  0  0  0  0  0
  -19.7954  -30.7298   24.2229 H   0  0  0  0  0  0
  -17.5029  -31.6272   24.5163 H   0  0  0  0  0  0
  -15.5366  -30.2981   23.7678 H   0  0  0  0  0  0
  -15.8689  -28.0816   22.7091 H   0  0  0  0  0  0
  -24.5886  -30.7101   25.7702 H   0  0  0  0  0  0
  -24.8882  -32.2943   26.4744 H   0  0  0  0  0  0
  -25.7971  -30.8970   27.0208 H   0  0  0  0  0  0
  -26.3034  -29.6654   24.1316 H   0  0  0  0  0  0
  -27.3994  -29.7266   25.4908 H   0  0  0  0  0  0
  -27.8949  -30.4172   23.9657 H   0  0  0  0  0  0
  -27.2629  -33.3657   26.1997 H   0  0  0  0  0  0
  -28.3893  -32.6860   25.0346 H   0  0  0  0  0  0
  -28.0675  -31.8508   26.5464 H   0  0  0  0  0  0
  -28.2585  -38.0082   24.7514 H   0  0  0  0  0  0
  -28.1079  -36.2612   24.6294 H   0  0  0  0  0  0
  -27.2292  -37.1426   25.8869 H   0  0  0  0  0  0
  -20.9488  -29.8742   21.6756 H   0  0  0  0  0  0
  -26.0148  -38.2801   24.1409 H   0  0  0  0  0  0
  -31.7174  -18.2788   20.4691 H   0  0  0  0  0  0
  -30.6232  -24.1260   18.8735 H   0  0  0  0  0  0
  -30.6476  -24.9927   20.4055 H   0  0  0  0  0  0
  -30.3785  -25.8584   18.9013 H   0  0  0  0  0  0
  -28.5976  -23.9798   17.5502 H   0  0  0  0  0  0
  -28.0412  -25.6380   17.6826 H   0  0  0  0  0  0
  -27.0133  -24.2849   18.1874 H   0  0  0  0  0  0
  -27.3454  -16.9724   19.4044 H   0  0  0  0  0  0
  -26.4526  -18.2670   19.9060 H   0  0  0  0  0  0
  -28.6833  -15.7904   20.6592 H   0  0  0  0  0  0
  -30.0211  -22.3934   19.4551 H   0  0  0  0  0  0
  1 25  1  0  0  0
  1 30  2  0  0  0
  1 82  1  0  0  0
  2  3  1  0  0  0
  2 25  1  0  0  0
  2 85  1  0  0  0
  2 86  1  0  0  0
  3  4  1  0  0  0
  3 87  1  0  0  0
  3 88  1  0  0  0
  4  5  1  0  0  0
  4 89  1  0  0  0
  4 90  1  0  0  0
  5  6  1  0  0  0
  5 26  1  0  0  0
  5 91  1  0  0  0
  6 25  1  0  0  0
  6 92  1  0  0  0
  6 93  1  0  0  0
  7  8  2  0  0  0
  7 26  1  0  0  0
  7 29  1  0  0  0
  8  9  1  0  0  0
  8 22  1  0  0  0
  9 10  1  0  0  0
  9 27  2  0  0  0
 10 11  2  0  0  0
 10 15  1  0  0  0
 11 12  1  0  0  0
 11 94  1  0  0  0
 12 13  2  0  0  0
 12 95  1  0  0  0
 13 14  1  0  0  0
 13 31  1  0  0  0
 14 15  2  0  0  0
 14 96  1  0  0  0
 15 97  1  0  0  0
 16 17  2  0  0  0
 16 21  1  0  0  0
 16 31  1  0  0  0
 17 18  1  0  0  0
 17 98  1  0  0  0
 18 19  2  0  0  0
 18 99  1  0  0  0
 19 20  1  0  0  0
 19 24  1  0  0  0
 20 21  2  0  0  0
 20100  1  0  0  0
 21 23  1  0  0  0
 22 28  1  0  0  0
 22 32  2  0  0  0
 26 27  1  0  0  0
 28101  1  0  0  0
 28102  1  0  0  0
 29103  1  0  0  0
 29104  1  0  0  0
 33 34  1  0  0  0
 33 66  1  0  0  0
 33 70  2  0  0  0
 34 36  1  0  0  0
 34 59  1  0  0  0
 34105  1  0  0  0
 35 44  2  0  0  0
 35 45  1  0  0  0
 35 68  1  0  0  0
 36 56  1  0  0  0
 36106  1  0  0  0
 37 39  1  0  0  0
 37 47  1  0  0  0
 37 66  1  0  0  0
 37107  1  0  0  0
 38 43  2  0  0  0
 38 46  1  0  0  0
 38 47  1  0  0  0
 39 64  1  0  0  0
 39 67  2  0  0  0
 40 52  1  0  0  0
 40 53  2  0  0  0
 40 58  1  0  0  0
 41108  1  0  0  0
 41109  1  0  0  0
 41110  1  0  0  0
 41 48  1  0  0  0
 42 43  1  0  0  0
 42 66  1  0  0  0
 42111  1  0  0  0
 42112  1  0  0  0
 43 44  1  0  0  0
 44113  1  0  0  0
 45 46  2  0  0  0
 45114  1  0  0  0
 46115  1  0  0  0
 47116  1  0  0  0
 47117  1  0  0  0
 48 56  1  0  0  0
 48 65  1  0  0  0
 48118  1  0  0  0
 49 50  1  0  0  0
 49 53  1  0  0  0
 49 64  1  0  0  0
 49119  1  0  0  0
 50 51  1  0  0  0
 50120  1  0  0  0
 50121  1  0  0  0
 51 52  1  0  0  0
 51122  1  0  0  0
 51123  1  0  0  0
 52124  1  0  0  0
 52125  1  0  0  0
 53 54  1  0  0  0
 54 55  2  0  0  0
 54126  1  0  0  0
 55 57  1  0  0  0
 55127  1  0  0  0
 56 69  2  0  0  0
 57 58  2  0  0  0
 57128  1  0  0  0
 58129  1  0  0  0
 59 60  1  0  0  0
 59 61  1  0  0  0
 59 62  1  0  0  0
 60130  1  0  0  0
 60131  1  0  0  0
 60132  1  0  0  0
 61133  1  0  0  0
 61134  1  0  0  0
 61135  1  0  0  0
 62136  1  0  0  0
 62137  1  0  0  0
 62138  1  0  0  0
 63 65  1  0  0  0
 63139  1  0  0  0
 63140  1  0  0  0
 63141  1  0  0  0
 64142  1  0  0  0
 65143  1  0  0  0
 68 78  1  0  0  0
 71 72  2  0  0  0
 71 79  1  0  0  0
 71144  1  0  0  0
 72 73  1  0  0  0
 72 82  1  0  0  0
 73 80  2  0  0  0
 73 81  1  0  0  0
 74 79  2  0  0  0
 74 80  1  0  0  0
 74 83  1  0  0  0
 75 78  1  0  0  0
 75 83  1  0  0  0
 75 84  2  0  0  0
 76145  1  0  0  0
 76146  1  0  0  0
 76147  1  0  0  0
 76 78  1  0  0  0
 77 78  1  0  0  0
 77148  1  0  0  0
 77149  1  0  0  0
 77150  1  0  0  0
 81151  1  0  0  0
 81152  1  0  0  0
 82153  1  0  0  0
 83154  1  0  0  0
M  ISO  4   1 100  68 101  78 101  82 100
M  END
> <chiral flag>
0

> <version>
0

> <s_m_source_file>
/data/baiqing/PycharmProjects/Reinvent-master-3.2/result/LINK_invent/BTK/process_docking_weight1_custom_product_contain_oxygen_bond_distance_aromatic_linkinvent_7_9_3/rearranged_h_0182.sdf

> <i_m_source_file_index>
46

> <r_mmod_Potential_Energy-OPLS-2005>
-104.313217163086

> <r_mmod_Stretch_Energy-OPLS-2005>
261.85205078125

> <r_mmod_Bend_Energy-OPLS-2005>
338.851440429688

> <r_mmod_Torsional_Energy-OPLS-2005>
258.380126953125

> <r_mmod_Improper_Torsional_Energy-OPLS-2005>
12.1278600692749

> <r_mmod_Van_der_Waal_Energy-OPLS-2005>
135.408798217773

> <r_mmod_Electrostatic_Energy-OPLS-2005>
-1077.00280761719

> <r_mmod_Solvation_Energy-OPLS-2005>
-261.224517822266

> <b_mmod_Minimization_Converged-OPLS-2005>
0

> <r_mmod_RMS_Derivative-OPLS-2005>
0.432803124189377

$$$$
46
                    3D
 Structure written by MMmdl.
152160  0  0  1  0            999 V2000
  -30.5761  -14.8308   20.4245 C   0  0  0  0  0  0
  -30.4366  -12.5036   19.4942 C   0  0  0  0  0  0
  -29.5187  -12.5126   18.2498 C   0  0  0  0  0  0
  -28.0478  -12.3179   18.6620 C   0  0  0  0  0  0
  -27.6372  -13.2320   19.8459 C   0  0  2  0  0  0
  -28.6762  -13.1990   20.9886 C   0  0  0  0  0  0
  -25.2484  -13.8177   20.5677 C   0  0  0  0  0  0
  -24.1783  -13.0429   20.9227 C   0  0  0  0  0  0
  -24.6367  -11.6905   20.8749 C   0  0  0  0  0  0
  -23.9046  -10.4292   21.0410 C   0  0  0  0  0  0
  -24.3605   -9.4209   21.9186 C   0  0  0  0  0  0
  -23.6286   -8.2236   22.0747 C   0  0  0  0  0  0
  -22.4259   -8.0282   21.3550 C   0  0  0  0  0  0
  -21.9895   -9.0251   20.4652 C   0  0  0  0  0  0
  -22.7218  -10.2131   20.3064 C   0  0  0  0  0  0
  -21.6858   -6.0732   22.5277 C   0  0  0  0  0  0
  -21.4018   -6.5629   23.8205 C   0  0  0  0  0  0
  -21.3660   -5.6784   24.9168 C   0  0  0  0  0  0
  -21.6035   -4.3046   24.7223 C   0  0  0  0  0  0
  -21.8821   -3.8143   23.4347 C   0  0  0  0  0  0
  -21.9193   -4.6957   22.3405 C   0  0  0  0  0  0
  -22.7808  -13.5233   21.1875 C   0  0  0  0  0  0
  -22.1662   -4.2147   21.0980 F   0  0  0  0  0  0
  -21.5630   -3.4531   25.7742 F   0  0  0  0  0  0
  -29.9742  -13.5798   20.4131 N   0  0  0  0  0  0
  -26.2898  -12.9381   20.3218 N   0  0  0  0  0  0
  -25.9291  -11.6534   20.5715 N   0  0  0  0  0  0
  -22.0431  -12.8250   22.0423 N   0  0  0  0  0  0
  -25.4186  -15.1900   20.4092 N   0  0  0  0  0  0
  -31.7646  -14.9019   20.0755 O   0  0  0  0  0  0
  -21.6625   -6.8870   21.4238 O   0  0  0  0  0  0
  -22.3514  -14.5553   20.6724 O   0  0  0  0  0  0
  -24.6386  -31.8497   23.1946 C   0  0  0  0  0  0
  -25.9177  -32.4716   23.8321 C   0  0  1  0  0  0
  -27.2206  -27.2067   20.1210 C   0  0  0  0  0  0
  -25.5947  -33.8523   24.2251 N   0  0  0  0  0  0
  -23.4400  -30.4739   21.5358 C   0  0  2  0  0  0
  -24.8869  -28.9124   20.1068 C   0  0  0  0  0  0
  -22.7542  -29.4582   22.4842 C   0  0  0  0  0  0
  -18.0308  -28.1394   22.8476 C   0  0  0  0  0  0
  -24.1503  -36.7282   23.2635 C   0  0  0  0  0  0
  -25.9917  -30.7416   21.3864 C   0  0  0  0  0  0
  -26.0605  -29.3606   20.7252 C   0  0  0  0  0  0
  -27.2253  -28.5186   20.7245 C   0  0  0  0  0  0
  -26.0170  -26.8412   19.4746 C   0  0  0  0  0  0
  -24.8730  -27.6631   19.4723 C   0  0  0  0  0  0
  -23.6638  -29.8083   20.1526 C   0  0  0  0  0  0
  -25.4114  -36.3052   24.0337 C   0  0  1  0  0  0
  -20.5921  -28.3723   23.1235 C   0  0  2  0  0  0
  -20.6792  -26.9429   22.5403 C   0  0  0  0  0  0
  -19.5766  -26.6387   21.5211 C   0  0  0  0  0  0
  -18.1946  -26.7935   22.1616 C   0  0  0  0  0  0
  -19.1565  -28.8871   23.2858 C   0  0  0  0  0  0
  -18.9479  -30.1461   23.8895 C   0  0  0  0  0  0
  -17.6476  -30.6585   24.0566 C   0  0  0  0  0  0
  -25.9053  -34.9419   23.5096 C   0  0  0  0  0  0
  -16.5368  -29.9086   23.6320 C   0  0  0  0  0  0
  -16.7294  -28.6504   23.0342 C   0  0  0  0  0  0
  -26.4523  -31.6551   25.0730 C   0  0  0  0  0  0
  -25.3737  -31.3729   26.1455 C   0  0  0  0  0  0
  -27.0359  -30.2944   24.6268 C   0  0  0  0  0  0
  -27.6085  -32.4288   25.7484 C   0  0  0  0  0  0
  -27.5600  -37.1767   24.8437 C   0  0  0  0  0  0
  -21.4239  -29.3073   22.3604 N   0  0  0  0  0  0
  -26.4278  -37.3764   23.9429 N   0  0  0  0  0  0
  -24.7093  -31.0414   22.0942 N   0  0  0  0  0  0
  -23.4206  -28.8108   23.2958 O   0  0  0  0  0  0
  -28.2993  -26.2752   20.2050 O   0  0  0  0  0  0
  -26.5629  -34.8904   22.4666 O   0  0  0  0  0  0
  -23.5511  -32.1343   23.7197 O   0  0  0  0  0  0
  -29.5055  -19.6648   18.3691 C   0  0  0  0  0  0
  -29.7783  -18.4193   17.7719 C   0  0  0  0  0  0
  -29.9020  -17.2539   18.5586 C   0  0  0  0  0  0
  -29.3366  -19.8086   19.7679 C   0  0  0  0  0  0
  -29.7678  -17.3076   19.9675 C   0  0  0  0  0  0
  -28.2077  -24.9014   19.7649 C   0  0  0  0  0  0
  -28.7078  -23.7242   20.3402 C   0  0  0  0  0  0
  -28.5614  -22.3447   19.6986 C   0  0  0  0  0  0
  -29.4785  -18.6006   20.4993 N   0  3  0  0  0  0
  -29.9129  -18.3198   16.3811 N   0  0  0  0  0  0
  -29.0988  -21.1993   20.3159 N   0  0  0  0  0  0
  -29.8197  -15.9877   20.6945 N   0  0  0  0  0  0
  -27.9393  -22.2203   18.6409 O   0  0  0  0  0  0
  -29.3637  -23.8004   21.5071 O   0  0  0  0  0  0
  -30.1050  -16.0698   17.9270 F   0  0  0  0  0  0
  -31.4755  -12.6366   19.1881 H   0  0  0  0  0  0
  -30.4020  -11.5335   19.9936 H   0  0  0  0  0  0
  -29.8176  -11.7274   17.5542 H   0  0  0  0  0  0
  -29.6309  -13.4545   17.7107 H   0  0  0  0  0  0
  -27.9190  -11.2726   18.9463 H   0  0  0  0  0  0
  -27.3915  -12.4829   17.8080 H   0  0  0  0  0  0
  -27.6200  -14.2445   19.4414 H   0  0  0  0  0  0
  -28.7273  -12.2030   21.4340 H   0  0  0  0  0  0
  -28.3852  -13.8742   21.7937 H   0  0  0  0  0  0
  -25.2745   -9.5694   22.4769 H   0  0  0  0  0  0
  -24.0002   -7.4625   22.7455 H   0  0  0  0  0  0
  -21.0829   -8.8779   19.8959 H   0  0  0  0  0  0
  -22.3671  -10.9678   19.6192 H   0  0  0  0  0  0
  -21.2007   -7.6137   23.9718 H   0  0  0  0  0  0
  -21.1479   -6.0505   25.9072 H   0  0  0  0  0  0
  -22.0602   -2.7607   23.2843 H   0  0  0  0  0  0
  -22.4016  -11.9922   22.4851 H   0  0  0  0  0  0
  -21.1058  -13.1315   22.2601 H   0  0  0  0  0  0
  -24.6381  -15.8315   20.5040 H   0  0  0  0  0  0
  -26.2266  -15.6223   19.9836 H   0  0  0  0  0  0
  -26.7235  -32.5352   23.1046 H   0  0  0  0  0  0
  -25.0086  -33.9640   25.0394 H   0  0  0  0  0  0
  -22.7421  -31.3002   21.3851 H   0  0  0  0  0  0
  -23.3783  -35.9589   23.3209 H   0  0  0  0  0  0
  -24.3627  -36.8991   22.2069 H   0  0  0  0  0  0
  -23.7225  -37.6445   23.6714 H   0  0  0  0  0  0
  -26.1437  -31.4992   20.6165 H   0  0  0  0  0  0
  -26.8642  -30.7880   22.0261 H   0  0  0  0  0  0
  -28.1214  -28.8489   21.2327 H   0  0  0  0  0  0
  -25.9117  -25.8854   18.9873 H   0  0  0  0  0  0
  -23.9733  -27.3147   18.9844 H   0  0  0  0  0  0
  -23.8018  -30.5851   19.4000 H   0  0  0  0  0  0
  -22.7794  -29.2501   19.8392 H   0  0  0  0  0  0
  -25.1285  -36.1885   25.0826 H   0  0  0  0  0  0
  -21.0033  -28.3329   24.1349 H   0  0  0  0  0  0
  -20.5680  -26.2345   23.3625 H   0  0  0  0  0  0
  -21.6659  -26.7425   22.1212 H   0  0  0  0  0  0
  -19.6924  -25.6297   21.1250 H   0  0  0  0  0  0
  -19.6696  -27.3192   20.6738 H   0  0  0  0  0  0
  -17.4215  -26.6691   21.4022 H   0  0  0  0  0  0
  -18.0334  -26.0084   22.9013 H   0  0  0  0  0  0
  -19.7948  -30.7283   24.2273 H   0  0  0  0  0  0
  -17.5020  -31.6264   24.5173 H   0  0  0  0  0  0
  -15.5366  -30.2983   23.7634 H   0  0  0  0  0  0
  -15.8695  -28.0820   22.7046 H   0  0  0  0  0  0
  -24.5888  -30.7103   25.7793 H   0  0  0  0  0  0
  -24.8963  -32.2906   26.4893 H   0  0  0  0  0  0
  -25.8049  -30.8888   27.0225 H   0  0  0  0  0  0
  -26.2943  -29.6670   24.1308 H   0  0  0  0  0  0
  -27.4009  -29.7241   25.4819 H   0  0  0  0  0  0
  -27.8849  -30.4176   23.9543 H   0  0  0  0  0  0
  -27.2707  -33.3586   26.2070 H   0  0  0  0  0  0
  -28.3878  -32.6839   25.0291 H   0  0  0  0  0  0
  -28.0775  -31.8406   26.5379 H   0  0  0  0  0  0
  -28.2525  -38.0155   24.7597 H   0  0  0  0  0  0
  -28.1187  -36.2689   24.6096 H   0  0  0  0  0  0
  -27.2347  -37.1220   25.8842 H   0  0  0  0  0  0
  -20.9424  -29.8813   21.6817 H   0  0  0  0  0  0
  -26.0151  -38.2821   24.1487 H   0  0  0  0  0  0
  -29.4254  -20.5239   17.7215 H   0  0  0  0  0  0
  -27.6950  -24.8380   18.8153 H   0  0  0  0  0  0
  -29.3573  -18.6598   21.5146 H   0  0  0  0  0  0
  -30.3231  -19.1159   15.9097 H   0  0  0  0  0  0
  -30.3233  -17.4454   16.0759 H   0  0  0  0  0  0
  -29.4486  -21.3793   21.2467 H   0  0  0  0  0  0
  -29.0047  -15.8059   21.2509 H   0  0  0  0  0  0
  -29.3724  -24.7162   21.7568 H   0  0  0  0  0  0
  1 25  1  0  0  0
  1 30  2  0  0  0
  1 82  1  0  0  0
  2  3  1  0  0  0
  2 25  1  0  0  0
  2 86  1  0  0  0
  2 87  1  0  0  0
  3  4  1  0  0  0
  3 88  1  0  0  0
  3 89  1  0  0  0
  4  5  1  0  0  0
  4 90  1  0  0  0
  4 91  1  0  0  0
  5  6  1  0  0  0
  5 26  1  0  0  0
  5 92  1  0  0  0
  6 25  1  0  0  0
  6 93  1  0  0  0
  6 94  1  0  0  0
  7  8  2  0  0  0
  7 26  1  0  0  0
  7 29  1  0  0  0
  8  9  1  0  0  0
  8 22  1  0  0  0
  9 10  1  0  0  0
  9 27  2  0  0  0
 10 11  2  0  0  0
 10 15  1  0  0  0
 11 12  1  0  0  0
 11 95  1  0  0  0
 12 13  2  0  0  0
 12 96  1  0  0  0
 13 14  1  0  0  0
 13 31  1  0  0  0
 14 15  2  0  0  0
 14 97  1  0  0  0
 15 98  1  0  0  0
 16 17  2  0  0  0
 16 21  1  0  0  0
 16 31  1  0  0  0
 17 18  1  0  0  0
 17 99  1  0  0  0
 18 19  2  0  0  0
 18100  1  0  0  0
 19 20  1  0  0  0
 19 24  1  0  0  0
 20 21  2  0  0  0
 20101  1  0  0  0
 21 23  1  0  0  0
 22 28  1  0  0  0
 22 32  2  0  0  0
 26 27  1  0  0  0
 28102  1  0  0  0
 28103  1  0  0  0
 29104  1  0  0  0
 29105  1  0  0  0
 33 34  1  0  0  0
 33 66  1  0  0  0
 33 70  2  0  0  0
 34 36  1  0  0  0
 34 59  1  0  0  0
 34106  1  0  0  0
 35 44  2  0  0  0
 35 45  1  0  0  0
 35 68  1  0  0  0
 36 56  1  0  0  0
 36107  1  0  0  0
 37 39  1  0  0  0
 37 47  1  0  0  0
 37 66  1  0  0  0
 37108  1  0  0  0
 38 43  2  0  0  0
 38 46  1  0  0  0
 38 47  1  0  0  0
 39 64  1  0  0  0
 39 67  2  0  0  0
 40 52  1  0  0  0
 40 53  2  0  0  0
 40 58  1  0  0  0
 41109  1  0  0  0
 41110  1  0  0  0
 41111  1  0  0  0
 41 48  1  0  0  0
 42 43  1  0  0  0
 42 66  1  0  0  0
 42112  1  0  0  0
 42113  1  0  0  0
 43 44  1  0  0  0
 44114  1  0  0  0
 45 46  2  0  0  0
 45115  1  0  0  0
 46116  1  0  0  0
 47117  1  0  0  0
 47118  1  0  0  0
 48 56  1  0  0  0
 48 65  1  0  0  0
 48119  1  0  0  0
 49 50  1  0  0  0
 49 53  1  0  0  0
 49 64  1  0  0  0
 49120  1  0  0  0
 50 51  1  0  0  0
 50121  1  0  0  0
 50122  1  0  0  0
 51 52  1  0  0  0
 51123  1  0  0  0
 51124  1  0  0  0
 52125  1  0  0  0
 52126  1  0  0  0
 53 54  1  0  0  0
 54 55  2  0  0  0
 54127  1  0  0  0
 55 57  1  0  0  0
 55128  1  0  0  0
 56 69  2  0  0  0
 57 58  2  0  0  0
 57129  1  0  0  0
 58130  1  0  0  0
 59 60  1  0  0  0
 59 61  1  0  0  0
 59 62  1  0  0  0
 60131  1  0  0  0
 60132  1  0  0  0
 60133  1  0  0  0
 61134  1  0  0  0
 61135  1  0  0  0
 61136  1  0  0  0
 62137  1  0  0  0
 62138  1  0  0  0
 62139  1  0  0  0
 63 65  1  0  0  0
 63140  1  0  0  0
 63141  1  0  0  0
 63142  1  0  0  0
 64143  1  0  0  0
 65144  1  0  0  0
 68 76  1  0  0  0
 71 72  2  0  0  0
 71 74  1  0  0  0
 71145  1  0  0  0
 72 73  1  0  0  0
 72 80  1  0  0  0
 73 75  2  0  0  0
 73 85  1  0  0  0
 74 79  2  0  0  0
 74 81  1  0  0  0
 75 79  1  0  0  0
 75 82  1  0  0  0
 76 77  2  0  0  0
 76146  1  0  0  0
 77 78  1  0  0  0
 77 84  1  0  0  0
 78 81  1  0  0  0
 78 83  2  0  0  0
 79147  1  0  0  0
 80148  1  0  0  0
 80149  1  0  0  0
 81150  1  0  0  0
 82151  1  0  0  0
 84152  1  0  0  0
M  CHG  1  79   1
M  ISO  4   1 100  68 101  76 101  82 100
M  END
> <chiral flag>
0

> <version>
0

> <s_m_source_file>
/data/baiqing/PycharmProjects/Reinvent-master-3.2/result/LINK_invent/BTK/process_docking_weight1_custom_product_contain_oxygen_bond_distance_aromatic_linkinvent_7_9_3/rearranged_h_0182.sdf

> <i_m_source_file_index>
47

> <r_mmod_Potential_Energy-OPLS-2005>
171.956924438477

> <r_mmod_Stretch_Energy-OPLS-2005>
171.358596801758

> <r_mmod_Bend_Energy-OPLS-2005>
176.661819458008

> <r_mmod_Torsional_Energy-OPLS-2005>
251.252243041992

> <r_mmod_Improper_Torsional_Energy-OPLS-2005>
10.3306655883789

> <r_mmod_Van_der_Waal_Energy-OPLS-2005>
148.749160766602

> <r_mmod_Electrostatic_Energy-OPLS-2005>
-254.268310546875

> <r_mmod_Solvation_Energy-OPLS-2005>
-456.587799072266

> <b_mmod_Minimization_Converged-OPLS-2005>
0

> <r_mmod_RMS_Derivative-OPLS-2005>
2.09561324119568

$$$$
47
                    3D
 Structure written by MMmdl.
158166  0  0  1  0            999 V2000
  -30.7056  -14.4493   20.5419 C   0  0  0  0  0  0
  -30.4128  -12.2709   19.4354 C   0  0  0  0  0  0
  -29.4971  -12.4868   18.2149 C   0  0  0  0  0  0
  -28.0146  -12.3601   18.6222 C   0  0  0  0  0  0
  -27.6640  -13.2013   19.8813 C   0  0  2  0  0  0
  -28.7054  -12.9889   21.0032 C   0  0  0  0  0  0
  -25.2635  -13.8121   20.5685 C   0  0  0  0  0  0
  -24.1873  -13.0430   20.9147 C   0  0  0  0  0  0
  -24.6413  -11.6891   20.8743 C   0  0  0  0  0  0
  -23.9066  -10.4292   21.0408 C   0  0  0  0  0  0
  -24.3615   -9.4204   21.9184 C   0  0  0  0  0  0
  -23.6275   -8.2247   22.0758 C   0  0  0  0  0  0
  -22.4261   -8.0285   21.3538 C   0  0  0  0  0  0
  -21.9901   -9.0265   20.4641 C   0  0  0  0  0  0
  -22.7232  -10.2143   20.3058 C   0  0  0  0  0  0
  -21.6858   -6.0733   22.5262 C   0  0  0  0  0  0
  -21.4034   -6.5647   23.8195 C   0  0  0  0  0  0
  -21.3657   -5.6801   24.9155 C   0  0  0  0  0  0
  -21.6039   -4.3060   24.7213 C   0  0  0  0  0  0
  -21.8815   -3.8145   23.4337 C   0  0  0  0  0  0
  -21.9189   -4.6960   22.3388 C   0  0  0  0  0  0
  -22.7908  -13.5255   21.1777 C   0  0  0  0  0  0
  -22.1659   -4.2158   21.0965 F   0  0  0  0  0  0
  -21.5614   -3.4533   25.7719 F   0  0  0  0  0  0
  -30.0342  -13.2708   20.4454 N   0  0  0  0  0  0
  -26.3066  -12.9294   20.3427 N   0  0  0  0  0  0
  -25.9344  -11.6449   20.5816 N   0  0  0  0  0  0
  -22.0560  -12.8275   22.0361 N   0  0  0  0  0  0
  -25.4349  -15.1850   20.4095 N   0  0  0  0  0  0
  -31.8526  -14.5750   20.1045 O   0  0  0  0  0  0
  -21.6625   -6.8882   21.4228 O   0  0  0  0  0  0
  -22.3614  -14.5565   20.6610 O   0  0  0  0  0  0
  -24.6062  -31.8677   23.2132 C   0  0  0  0  0  0
  -25.8960  -32.4820   23.8386 C   0  0  1  0  0  0
  -27.2404  -27.4692   20.0950 C   0  0  0  0  0  0
  -25.5802  -33.8622   24.2285 N   0  0  0  0  0  0
  -23.3908  -30.4944   21.5523 C   0  0  2  0  0  0
  -24.8392  -28.9688   20.1148 C   0  0  0  0  0  0
  -22.7340  -29.4684   22.5011 C   0  0  0  0  0  0
  -18.0220  -28.1364   22.8472 C   0  0  0  0  0  0
  -24.1559  -36.7348   23.2664 C   0  0  0  0  0  0
  -25.9141  -30.8541   21.3541 C   0  0  0  0  0  0
  -25.9954  -29.4878   20.7081 C   0  0  0  0  0  0
  -27.1937  -28.7406   20.7048 C   0  0  0  0  0  0
  -26.0592  -26.9567   19.5047 C   0  0  0  0  0  0
  -24.8651  -27.6991   19.5120 C   0  0  0  0  0  0
  -23.5937  -29.8251   20.1675 C   0  0  0  0  0  0
  -25.4154  -36.3112   24.0369 C   0  0  1  0  0  0
  -20.5821  -28.3673   23.1340 C   0  0  2  0  0  0
  -20.6741  -26.9423   22.5420 C   0  0  0  0  0  0
  -19.5731  -26.6383   21.5218 C   0  0  0  0  0  0
  -18.1897  -26.7898   22.1627 C   0  0  0  0  0  0
  -19.1475  -28.8827   23.2900 C   0  0  0  0  0  0
  -18.9413  -30.1435   23.8927 C   0  0  0  0  0  0
  -17.6426  -30.6567   24.0571 C   0  0  0  0  0  0
  -25.9029  -34.9479   23.5130 C   0  0  0  0  0  0
  -16.5320  -29.9092   23.6321 C   0  0  0  0  0  0
  -16.7229  -28.6501   23.0338 C   0  0  0  0  0  0
  -26.4462  -31.6597   25.0678 C   0  0  0  0  0  0
  -25.3747  -31.3620   26.1431 C   0  0  0  0  0  0
  -27.0275  -30.3061   24.5933 C   0  0  0  0  0  0
  -27.6045  -32.4389   25.7387 C   0  0  0  0  0  0
  -27.5613  -37.1861   24.8519 C   0  0  0  0  0  0
  -21.4080  -29.3045   22.3744 N   0  0  0  0  0  0
  -26.4338  -37.3803   23.9429 N   0  0  0  0  0  0
  -24.6546  -31.0862   22.0978 N   0  0  0  0  0  0
  -23.4131  -28.8240   23.3024 O   0  0  0  0  0  0
  -28.4418  -26.7889   20.1210 O   0  0  0  0  0  0
  -26.5645  -34.8952   22.4731 O   0  0  0  0  0  0
  -23.5282  -32.1391   23.7596 O   0  0  0  0  0  0
  -28.8215  -19.0618   19.9232 C   0  0  0  0  0  0
  -29.7866  -18.2686   20.4961 C   0  0  0  0  0  0
  -29.6768  -20.5721   21.4257 C   0  0  0  0  0  0
  -29.9114  -22.8844   21.6594 C   0  0  0  0  0  0
  -29.4845  -23.3513   20.2714 C   0  0  0  0  0  0
  -30.4058  -24.0109   22.5489 C   0  0  0  0  0  0
  -27.3278  -24.4268   21.3377 C   0  0  0  0  0  0
  -30.2581  -16.9117   20.0598 C   0  0  0  0  0  0
  -30.0048  -15.7345   21.0406 C   0  0  0  0  0  0
  -28.6006  -25.5961   19.3508 C   0  0  0  0  0  0
  -28.2561  -24.2772   20.0990 C   0  0  1  0  0  0
  -28.7526  -20.3454   20.4818 N   0  0  0  0  0  0
  -29.9951  -21.6914   22.1248 N   0  0  0  0  0  0
  -30.1000  -22.9783   19.2651 O   0  0  0  0  0  0
  -30.5932  -19.1111   21.7907 S   0  0  0  0  0  0
  -31.4644  -12.3325   19.1474 H   0  0  0  0  0  0
  -30.2744  -11.2656   19.8368 H   0  0  0  0  0  0
  -29.7305  -11.7574   17.4386 H   0  0  0  0  0  0
  -29.6840  -13.4700   17.7796 H   0  0  0  0  0  0
  -27.8218  -11.3036   18.8184 H   0  0  0  0  0  0
  -27.3628  -12.6303   17.7895 H   0  0  0  0  0  0
  -27.7060  -14.2499   19.5856 H   0  0  0  0  0  0
  -28.6747  -11.9572   21.3597 H   0  0  0  0  0  0
  -28.4845  -13.5989   21.8793 H   0  0  0  0  0  0
  -25.2769   -9.5676   22.4747 H   0  0  0  0  0  0
  -23.9958   -7.4665   22.7520 H   0  0  0  0  0  0
  -21.0804   -8.8792   19.8984 H   0  0  0  0  0  0
  -22.3669  -10.9682   19.6176 H   0  0  0  0  0  0
  -21.2056   -7.6162   23.9705 H   0  0  0  0  0  0
  -21.1479   -6.0530   25.9065 H   0  0  0  0  0  0
  -22.0596   -2.7607   23.2820 H   0  0  0  0  0  0
  -22.4152  -11.9920   22.4730 H   0  0  0  0  0  0
  -21.1204  -13.1347   22.2594 H   0  0  0  0  0  0
  -24.6694  -15.8393   20.5291 H   0  0  0  0  0  0
  -26.2929  -15.6274   20.1075 H   0  0  0  0  0  0
  -26.7005  -32.5563   23.1119 H   0  0  0  0  0  0
  -24.9728  -33.9749   25.0267 H   0  0  0  0  0  0
  -22.6759  -31.3087   21.4168 H   0  0  0  0  0  0
  -23.3811  -35.9686   23.3337 H   0  0  0  0  0  0
  -24.3700  -36.8942   22.2082 H   0  0  0  0  0  0
  -23.7382  -37.6588   23.6673 H   0  0  0  0  0  0
  -26.0054  -31.6214   20.5830 H   0  0  0  0  0  0
  -26.8107  -30.9220   21.9567 H   0  0  0  0  0  0
  -28.0837  -29.1377   21.1738 H   0  0  0  0  0  0
  -26.0284  -25.9776   19.0478 H   0  0  0  0  0  0
  -23.9763  -27.2888   19.0556 H   0  0  0  0  0  0
  -23.6786  -30.5940   19.3985 H   0  0  0  0  0  0
  -22.7218  -29.2282   19.8912 H   0  0  0  0  0  0
  -25.1302  -36.1938   25.0860 H   0  0  0  0  0  0
  -20.9923  -28.3255   24.1463 H   0  0  0  0  0  0
  -20.5665  -26.2289   23.3595 H   0  0  0  0  0  0
  -21.6607  -26.7469   22.1201 H   0  0  0  0  0  0
  -19.6937  -25.6308   21.1227 H   0  0  0  0  0  0
  -19.6681  -27.3207   20.6755 H   0  0  0  0  0  0
  -17.4175  -26.6607   21.4024 H   0  0  0  0  0  0
  -18.0330  -26.0037   22.9030 H   0  0  0  0  0  0
  -19.7899  -30.7209   24.2346 H   0  0  0  0  0  0
  -17.4991  -31.6252   24.5172 H   0  0  0  0  0  0
  -15.5339  -30.3014   23.7603 H   0  0  0  0  0  0
  -15.8615  -28.0829   22.7077 H   0  0  0  0  0  0
  -24.6126  -30.6680   25.7827 H   0  0  0  0  0  0
  -24.8625  -32.2651   26.4772 H   0  0  0  0  0  0
  -25.8168  -30.8967   27.0257 H   0  0  0  0  0  0
  -27.8733  -30.4469   23.9166 H   0  0  0  0  0  0
  -26.2874  -29.6950   24.0777 H   0  0  0  0  0  0
  -27.3886  -29.7114   25.4339 H   0  0  0  0  0  0
  -27.2677  -33.3724   26.1838 H   0  0  0  0  0  0
  -28.3782  -32.6914   25.0146 H   0  0  0  0  0  0
  -28.0793  -31.8634   26.5365 H   0  0  0  0  0  0
  -28.2636  -38.0153   24.7533 H   0  0  0  0  0  0
  -28.1115  -36.2692   24.6358 H   0  0  0  0  0  0
  -27.2348  -37.1506   25.8930 H   0  0  0  0  0  0
  -20.9244  -29.8741   21.6961 H   0  0  0  0  0  0
  -26.0204  -38.2890   24.1360 H   0  0  0  0  0  0
  -28.1800  -18.8184   19.0877 H   0  0  0  0  0  0
  -29.8122  -24.9173   22.4382 H   0  0  0  0  0  0
  -31.4293  -24.2637   22.2756 H   0  0  0  0  0  0
  -30.3916  -23.7188   23.5993 H   0  0  0  0  0  0
  -27.6469  -25.2267   22.0039 H   0  0  0  0  0  0
  -27.2593  -23.5168   21.9359 H   0  0  0  0  0  0
  -26.3087  -24.6588   21.0335 H   0  0  0  0  0  0
  -31.3271  -16.9990   19.8601 H   0  0  0  0  0  0
  -29.8153  -16.6613   19.0943 H   0  0  0  0  0  0
  -28.9311  -15.6114   21.1638 H   0  0  0  0  0  0
  -30.4068  -15.9736   22.0251 H   0  0  0  0  0  0
  -28.0662  -25.6580   18.4039 H   0  0  0  0  0  0
  -29.6482  -25.5919   19.0462 H   0  0  0  0  0  0
  -27.6601  -23.7069   19.3853 H   0  0  0  0  0  0
  1 25  1  0  0  0
  1 30  2  0  0  0
  1 79  1  0  0  0
  2  3  1  0  0  0
  2 25  1  0  0  0
  2 86  1  0  0  0
  2 87  1  0  0  0
  3  4  1  0  0  0
  3 88  1  0  0  0
  3 89  1  0  0  0
  4  5  1  0  0  0
  4 90  1  0  0  0
  4 91  1  0  0  0
  5  6  1  0  0  0
  5 26  1  0  0  0
  5 92  1  0  0  0
  6 25  1  0  0  0
  6 93  1  0  0  0
  6 94  1  0  0  0
  7  8  2  0  0  0
  7 26  1  0  0  0
  7 29  1  0  0  0
  8  9  1  0  0  0
  8 22  1  0  0  0
  9 10  1  0  0  0
  9 27  2  0  0  0
 10 11  2  0  0  0
 10 15  1  0  0  0
 11 12  1  0  0  0
 11 95  1  0  0  0
 12 13  2  0  0  0
 12 96  1  0  0  0
 13 14  1  0  0  0
 13 31  1  0  0  0
 14 15  2  0  0  0
 14 97  1  0  0  0
 15 98  1  0  0  0
 16 17  2  0  0  0
 16 21  1  0  0  0
 16 31  1  0  0  0
 17 18  1  0  0  0
 17 99  1  0  0  0
 18 19  2  0  0  0
 18100  1  0  0  0
 19 20  1  0  0  0
 19 24  1  0  0  0
 20 21  2  0  0  0
 20101  1  0  0  0
 21 23  1  0  0  0
 22 28  1  0  0  0
 22 32  2  0  0  0
 26 27  1  0  0  0
 28102  1  0  0  0
 28103  1  0  0  0
 29104  1  0  0  0
 29105  1  0  0  0
 33 34  1  0  0  0
 33 66  1  0  0  0
 33 70  2  0  0  0
 34 36  1  0  0  0
 34 59  1  0  0  0
 34106  1  0  0  0
 35 44  2  0  0  0
 35 45  1  0  0  0
 35 68  1  0  0  0
 36 56  1  0  0  0
 36107  1  0  0  0
 37 39  1  0  0  0
 37 47  1  0  0  0
 37 66  1  0  0  0
 37108  1  0  0  0
 38 43  2  0  0  0
 38 46  1  0  0  0
 38 47  1  0  0  0
 39 64  1  0  0  0
 39 67  2  0  0  0
 40 52  1  0  0  0
 40 53  2  0  0  0
 40 58  1  0  0  0
 41109  1  0  0  0
 41110  1  0  0  0
 41111  1  0  0  0
 41 48  1  0  0  0
 42 43  1  0  0  0
 42 66  1  0  0  0
 42112  1  0  0  0
 42113  1  0  0  0
 43 44  1  0  0  0
 44114  1  0  0  0
 45 46  2  0  0  0
 45115  1  0  0  0
 46116  1  0  0  0
 47117  1  0  0  0
 47118  1  0  0  0
 48 56  1  0  0  0
 48 65  1  0  0  0
 48119  1  0  0  0
 49 50  1  0  0  0
 49 53  1  0  0  0
 49 64  1  0  0  0
 49120  1  0  0  0
 50 51  1  0  0  0
 50121  1  0  0  0
 50122  1  0  0  0
 51 52  1  0  0  0
 51123  1  0  0  0
 51124  1  0  0  0
 52125  1  0  0  0
 52126  1  0  0  0
 53 54  1  0  0  0
 54 55  2  0  0  0
 54127  1  0  0  0
 55 57  1  0  0  0
 55128  1  0  0  0
 56 69  2  0  0  0
 57 58  2  0  0  0
 57129  1  0  0  0
 58130  1  0  0  0
 59 60  1  0  0  0
 59 61  1  0  0  0
 59 62  1  0  0  0
 60131  1  0  0  0
 60132  1  0  0  0
 60133  1  0  0  0
 61134  1  0  0  0
 61135  1  0  0  0
 61136  1  0  0  0
 62137  1  0  0  0
 62138  1  0  0  0
 62139  1  0  0  0
 63 65  1  0  0  0
 63140  1  0  0  0
 63141  1  0  0  0
 63142  1  0  0  0
 64143  1  0  0  0
 65144  1  0  0  0
 68 80  1  0  0  0
 71 72  2  0  0  0
 71 82  1  0  0  0
 71145  1  0  0  0
 72 78  1  0  0  0
 72 85  1  0  0  0
 73 82  2  0  0  0
 73 83  1  0  0  0
 73 85  1  0  0  0
 74 75  1  0  0  0
 74 76  1  0  0  0
 74 83  2  0  0  0
 75 81  1  0  0  0
 75 84  2  0  0  0
 76146  1  0  0  0
 76147  1  0  0  0
 76148  1  0  0  0
 77149  1  0  0  0
 77150  1  0  0  0
 77151  1  0  0  0
 77 81  1  0  0  0
 78 79  1  0  0  0
 78152  1  0  0  0
 78153  1  0  0  0
 79154  1  0  0  0
 79155  1  0  0  0
 80 81  1  0  0  0
 80156  1  0  0  0
 80157  1  0  0  0
 81158  1  0  0  0
M  ISO  4   1 100  68 101  79 100  80 101
M  END
> <chiral flag>
0

> <version>
0

> <s_m_source_file>
/data/baiqing/PycharmProjects/Reinvent-master-3.2/result/LINK_invent/BTK/process_docking_weight1_custom_product_contain_oxygen_bond_distance_aromatic_linkinvent_7_9_3/rearranged_h_0182.sdf

> <i_m_source_file_index>
48

> <r_mmod_Potential_Energy-OPLS-2005>
-19.9962348937988

> <r_mmod_Stretch_Energy-OPLS-2005>
36.1724243164062

> <r_mmod_Bend_Energy-OPLS-2005>
131.377532958984

> <r_mmod_Torsional_Energy-OPLS-2005>
209.709381103516

> <r_mmod_Improper_Torsional_Energy-OPLS-2005>
4.4708251953125

> <r_mmod_Van_der_Waal_Energy-OPLS-2005>
144.459777832031

> <r_mmod_Electrostatic_Energy-OPLS-2005>
-348.445373535156

> <r_mmod_Solvation_Energy-OPLS-2005>
-210.414352416992

> <b_mmod_Minimization_Converged-OPLS-2005>
0

> <r_mmod_RMS_Derivative-OPLS-2005>
4.83111333847046

$$$$
48
                    3D
 Structure written by MMmdl.
153161  0  0  1  0            999 V2000
  -30.7036  -14.4483   20.4388 C   0  0  0  0  0  0
  -30.4095  -12.2478   19.4245 C   0  0  0  0  0  0
  -29.4738  -12.4077   18.2052 C   0  0  0  0  0  0
  -27.9965  -12.3180   18.6242 C   0  0  0  0  0  0
  -27.6533  -13.1946   19.8589 C   0  0  2  0  0  0
  -28.7019  -13.0199   20.9822 C   0  0  0  0  0  0
  -25.2597  -13.8164   20.5742 C   0  0  0  0  0  0
  -24.1839  -13.0455   20.9244 C   0  0  0  0  0  0
  -24.6365  -11.6913   20.8805 C   0  0  0  0  0  0
  -23.9046  -10.4290   21.0444 C   0  0  0  0  0  0
  -24.3602   -9.4192   21.9210 C   0  0  0  0  0  0
  -23.6288   -8.2221   22.0752 C   0  0  0  0  0  0
  -22.4271   -8.0275   21.3538 C   0  0  0  0  0  0
  -21.9913   -9.0250   20.4648 C   0  0  0  0  0  0
  -22.7225  -10.2137   20.3078 C   0  0  0  0  0  0
  -21.6835   -6.0748   22.5292 C   0  0  0  0  0  0
  -21.4003   -6.5643   23.8229 C   0  0  0  0  0  0
  -21.3654   -5.6789   24.9189 C   0  0  0  0  0  0
  -21.6037   -4.3050   24.7231 C   0  0  0  0  0  0
  -21.8817   -3.8154   23.4349 C   0  0  0  0  0  0
  -21.9180   -4.6979   22.3408 C   0  0  0  0  0  0
  -22.7858  -13.5267   21.1874 C   0  0  0  0  0  0
  -22.1673   -4.2171   21.0987 F   0  0  0  0  0  0
  -21.5605   -3.4536   25.7741 F   0  0  0  0  0  0
  -30.0342  -13.2690   20.4110 N   0  0  0  0  0  0
  -26.2993  -12.9296   20.3366 N   0  0  0  0  0  0
  -25.9291  -11.6472   20.5827 N   0  0  0  0  0  0
  -22.0450  -12.8289   22.0416 N   0  0  0  0  0  0
  -25.4343  -15.1888   20.4172 N   0  0  0  0  0  0
  -31.9024  -14.5633   20.1700 O   0  0  0  0  0  0
  -21.6615   -6.8888   21.4247 O   0  0  0  0  0  0
  -22.3572  -14.5574   20.6690 O   0  0  0  0  0  0
  -24.6095  -31.8717   23.2128 C   0  0  0  0  0  0
  -25.9008  -32.4839   23.8416 C   0  0  1  0  0  0
  -27.2338  -27.4702   20.0912 C   0  0  0  0  0  0
  -25.5878  -33.8633   24.2357 N   0  0  0  0  0  0
  -23.3947  -30.4954   21.5527 C   0  0  2  0  0  0
  -24.8409  -28.9671   20.1131 C   0  0  0  0  0  0
  -22.7383  -29.4669   22.5007 C   0  0  0  0  0  0
  -18.0263  -28.1367   22.8494 C   0  0  0  0  0  0
  -24.1486  -36.7325   23.2641 C   0  0  0  0  0  0
  -25.9186  -30.8504   21.3579 C   0  0  0  0  0  0
  -25.9975  -29.4869   20.7068 C   0  0  0  0  0  0
  -27.1966  -28.7461   20.6903 C   0  0  0  0  0  0
  -26.0640  -26.9625   19.4803 C   0  0  0  0  0  0
  -24.8679  -27.7044   19.4955 C   0  0  0  0  0  0
  -23.5995  -29.8279   20.1661 C   0  0  0  0  0  0
  -25.4104  -36.3123   24.0346 C   0  0  1  0  0  0
  -20.5852  -28.3646   23.1329 C   0  0  2  0  0  0
  -20.6751  -26.9386   22.5416 C   0  0  0  0  0  0
  -19.5730  -26.6383   21.5209 C   0  0  0  0  0  0
  -18.1913  -26.7917   22.1631 C   0  0  0  0  0  0
  -19.1512  -28.8821   23.2913 C   0  0  0  0  0  0
  -18.9447  -30.1432   23.8920 C   0  0  0  0  0  0
  -17.6450  -30.6581   24.0564 C   0  0  0  0  0  0
  -25.9022  -34.9484   23.5150 C   0  0  0  0  0  0
  -16.5337  -29.9086   23.6320 C   0  0  0  0  0  0
  -16.7253  -28.6498   23.0345 C   0  0  0  0  0  0
  -26.4462  -31.6590   25.0712 C   0  0  0  0  0  0
  -25.3747  -31.3678   26.1475 C   0  0  0  0  0  0
  -27.0275  -30.3042   24.6034 C   0  0  0  0  0  0
  -27.6068  -32.4282   25.7455 C   0  0  0  0  0  0
  -27.5574  -37.1828   24.8480 C   0  0  0  0  0  0
  -21.4113  -29.3028   22.3749 N   0  0  0  0  0  0
  -26.4307  -37.3793   23.9394 N   0  0  0  0  0  0
  -24.6594  -31.0851   22.1006 N   0  0  0  0  0  0
  -23.4180  -28.8212   23.3029 O   0  0  0  0  0  0
  -28.4223  -26.7806   20.1067 O   0  0  0  0  0  0
  -26.5584  -34.8930   22.4714 O   0  0  0  0  0  0
  -23.5304  -32.1443   23.7559 O   0  0  0  0  0  0
  -29.9921  -16.5983   19.5579 C   0  0  0  0  0  0
  -30.3615  -16.4514   18.2355 C   0  0  0  0  0  0
  -29.7452  -18.7212   18.7944 C   0  0  0  0  0  0
  -29.3348  -20.9591   17.8931 C   0  0  0  0  0  0
  -29.7146  -22.4222   18.0848 C   0  0  0  0  0  0
  -28.8570  -23.1419   19.1355 C   0  0  0  0  0  0
  -28.3637  -25.3648   20.2681 C   0  0  0  0  0  0
  -28.9720  -24.6711   19.0419 C   0  0  0  0  0  0
  -29.6280  -17.9190   19.8690 N   0  0  0  0  0  0
  -29.9180  -15.5330   20.4977 N   0  0  0  0  0  0
  -29.5772  -20.1186   18.9114 N   0  0  0  0  0  0
  -28.8109  -20.6113   16.8321 O   0  0  0  0  0  0
  -30.7551  -15.3035   17.6400 F   0  0  0  0  0  0
  -28.3441  -25.0733   17.9353 F   0  0  0  0  0  0
  -30.2592  -25.0146   18.9660 F   0  0  0  0  0  0
  -30.2641  -17.9073   17.3132 S   0  0  0  0  0  0
  -31.4529  -12.3272   19.1133 H   0  0  0  0  0  0
  -30.3009  -11.2527   19.8591 H   0  0  0  0  0  0
  -29.6931  -11.6351   17.4668 H   0  0  0  0  0  0
  -29.6424  -13.3524   17.6991 H   0  0  0  0  0  0
  -27.7873  -11.2707   18.8444 H   0  0  0  0  0  0
  -27.3505  -12.5820   17.7850 H   0  0  0  0  0  0
  -27.6849  -14.2295   19.5209 H   0  0  0  0  0  0
  -28.6570  -12.0087   21.3903 H   0  0  0  0  0  0
  -28.4920  -13.6893   21.8177 H   0  0  0  0  0  0
  -25.2737   -9.5670   22.4810 H   0  0  0  0  0  0
  -23.9993   -7.4604   22.7479 H   0  0  0  0  0  0
  -21.0840   -8.8771   19.8970 H   0  0  0  0  0  0
  -22.3677  -10.9693   19.6205 H   0  0  0  0  0  0
  -21.2005   -7.6148   23.9754 H   0  0  0  0  0  0
  -21.1484   -6.0509   25.9096 H   0  0  0  0  0  0
  -22.0606   -2.7621   23.2837 H   0  0  0  0  0  0
  -22.4008  -11.9928   22.4814 H   0  0  0  0  0  0
  -21.1093  -13.1387   22.2584 H   0  0  0  0  0  0
  -24.6634  -15.8394   20.5275 H   0  0  0  0  0  0
  -26.2819  -15.6362   20.0929 H   0  0  0  0  0  0
  -26.7074  -32.5575   23.1185 H   0  0  0  0  0  0
  -25.0028  -33.9803   25.0498 H   0  0  0  0  0  0
  -22.6808  -31.3107   21.4171 H   0  0  0  0  0  0
  -23.3723  -35.9691   23.3372 H   0  0  0  0  0  0
  -24.3568  -36.8861   22.2042 H   0  0  0  0  0  0
  -23.7276  -37.6572   23.6598 H   0  0  0  0  0  0
  -26.0222  -31.6186   20.5908 H   0  0  0  0  0  0
  -26.8099  -30.9075   21.9696 H   0  0  0  0  0  0
  -28.0926  -29.1468   21.1445 H   0  0  0  0  0  0
  -26.0705  -26.0076   18.9755 H   0  0  0  0  0  0
  -23.9816  -27.3058   19.0220 H   0  0  0  0  0  0
  -23.6992  -30.6039   19.4062 H   0  0  0  0  0  0
  -22.7247  -29.2435   19.8744 H   0  0  0  0  0  0
  -25.1285  -36.2017   25.0841 H   0  0  0  0  0  0
  -20.9941  -28.3201   24.1450 H   0  0  0  0  0  0
  -20.5649  -26.2249   23.3594 H   0  0  0  0  0  0
  -21.6623  -26.7429   22.1211 H   0  0  0  0  0  0
  -19.6892  -25.6302   21.1219 H   0  0  0  0  0  0
  -19.6669  -27.3209   20.6751 H   0  0  0  0  0  0
  -17.4176  -26.6647   21.4043 H   0  0  0  0  0  0
  -18.0331  -26.0054   22.9026 H   0  0  0  0  0  0
  -19.7920  -30.7239   24.2301 H   0  0  0  0  0  0
  -17.5005  -31.6265   24.5156 H   0  0  0  0  0  0
  -15.5342  -30.2999   23.7625 H   0  0  0  0  0  0
  -15.8650  -28.0828   22.7050 H   0  0  0  0  0  0
  -24.5897  -30.7054   25.7805 H   0  0  0  0  0  0
  -24.8964  -32.2828   26.4980 H   0  0  0  0  0  0
  -25.8113  -30.8793   27.0195 H   0  0  0  0  0  0
  -26.2789  -29.6806   24.1127 H   0  0  0  0  0  0
  -27.4115  -29.7272   25.4459 H   0  0  0  0  0  0
  -27.8600  -30.4386   23.9120 H   0  0  0  0  0  0
  -27.2719  -33.3568   26.2095 H   0  0  0  0  0  0
  -28.3839  -32.6856   25.0241 H   0  0  0  0  0  0
  -28.0774  -31.8351   26.5309 H   0  0  0  0  0  0
  -28.2659  -38.0059   24.7441 H   0  0  0  0  0  0
  -28.1005  -36.2590   24.6420 H   0  0  0  0  0  0
  -27.2278  -37.1621   25.8883 H   0  0  0  0  0  0
  -20.9257  -29.8763   21.6993 H   0  0  0  0  0  0
  -26.0213  -38.2893   24.1334 H   0  0  0  0  0  0
  -29.6165  -22.9248   17.1228 H   0  0  0  0  0  0
  -30.7711  -22.4834   18.3479 H   0  0  0  0  0  0
  -29.1715  -22.8144   20.1270 H   0  0  0  0  0  0
  -27.8085  -22.8548   19.0392 H   0  0  0  0  0  0
  -28.9487  -25.1148   21.1551 H   0  0  0  0  0  0
  -27.3618  -24.9869   20.4744 H   0  0  0  0  0  0
  -29.0193  -15.4064   20.9348 H   0  0  0  0  0  0
  -29.8089  -20.5167   19.8090 H   0  0  0  0  0  0
  1 25  1  0  0  0
  1 30  2  0  0  0
  1 80  1  0  0  0
  2  3  1  0  0  0
  2 25  1  0  0  0
  2 87  1  0  0  0
  2 88  1  0  0  0
  3  4  1  0  0  0
  3 89  1  0  0  0
  3 90  1  0  0  0
  4  5  1  0  0  0
  4 91  1  0  0  0
  4 92  1  0  0  0
  5  6  1  0  0  0
  5 26  1  0  0  0
  5 93  1  0  0  0
  6 25  1  0  0  0
  6 94  1  0  0  0
  6 95  1  0  0  0
  7  8  2  0  0  0
  7 26  1  0  0  0
  7 29  1  0  0  0
  8  9  1  0  0  0
  8 22  1  0  0  0
  9 10  1  0  0  0
  9 27  2  0  0  0
 10 11  2  0  0  0
 10 15  1  0  0  0
 11 12  1  0  0  0
 11 96  1  0  0  0
 12 13  2  0  0  0
 12 97  1  0  0  0
 13 14  1  0  0  0
 13 31  1  0  0  0
 14 15  2  0  0  0
 14 98  1  0  0  0
 15 99  1  0  0  0
 16 17  2  0  0  0
 16 21  1  0  0  0
 16 31  1  0  0  0
 17 18  1  0  0  0
 17100  1  0  0  0
 18 19  2  0  0  0
 18101  1  0  0  0
 19 20  1  0  0  0
 19 24  1  0  0  0
 20 21  2  0  0  0
 20102  1  0  0  0
 21 23  1  0  0  0
 22 28  1  0  0  0
 22 32  2  0  0  0
 26 27  1  0  0  0
 28103  1  0  0  0
 28104  1  0  0  0
 29105  1  0  0  0
 29106  1  0  0  0
 33 34  1  0  0  0
 33 66  1  0  0  0
 33 70  2  0  0  0
 34 36  1  0  0  0
 34 59  1  0  0  0
 34107  1  0  0  0
 35 44  2  0  0  0
 35 45  1  0  0  0
 35 68  1  0  0  0
 36 56  1  0  0  0
 36108  1  0  0  0
 37 39  1  0  0  0
 37 47  1  0  0  0
 37 66  1  0  0  0
 37109  1  0  0  0
 38 43  2  0  0  0
 38 46  1  0  0  0
 38 47  1  0  0  0
 39 64  1  0  0  0
 39 67  2  0  0  0
 40 52  1  0  0  0
 40 53  2  0  0  0
 40 58  1  0  0  0
 41110  1  0  0  0
 41111  1  0  0  0
 41112  1  0  0  0
 41 48  1  0  0  0
 42 43  1  0  0  0
 42 66  1  0  0  0
 42113  1  0  0  0
 42114  1  0  0  0
 43 44  1  0  0  0
 44115  1  0  0  0
 45 46  2  0  0  0
 45116  1  0  0  0
 46117  1  0  0  0
 47118  1  0  0  0
 47119  1  0  0  0
 48 56  1  0  0  0
 48 65  1  0  0  0
 48120  1  0  0  0
 49 50  1  0  0  0
 49 53  1  0  0  0
 49 64  1  0  0  0
 49121  1  0  0  0
 50 51  1  0  0  0
 50122  1  0  0  0
 50123  1  0  0  0
 51 52  1  0  0  0
 51124  1  0  0  0
 51125  1  0  0  0
 52126  1  0  0  0
 52127  1  0  0  0
 53 54  1  0  0  0
 54 55  2  0  0  0
 54128  1  0  0  0
 55 57  1  0  0  0
 55129  1  0  0  0
 56 69  2  0  0  0
 57 58  2  0  0  0
 57130  1  0  0  0
 58131  1  0  0  0
 59 60  1  0  0  0
 59 61  1  0  0  0
 59 62  1  0  0  0
 60132  1  0  0  0
 60133  1  0  0  0
 60134  1  0  0  0
 61135  1  0  0  0
 61136  1  0  0  0
 61137  1  0  0  0
 62138  1  0  0  0
 62139  1  0  0  0
 62140  1  0  0  0
 63 65  1  0  0  0
 63141  1  0  0  0
 63142  1  0  0  0
 63143  1  0  0  0
 64144  1  0  0  0
 65145  1  0  0  0
 68 77  1  0  0  0
 71 72  2  0  0  0
 71 79  1  0  0  0
 71 80  1  0  0  0
 72 83  1  0  0  0
 72 86  1  0  0  0
 73 79  2  0  0  0
 73 81  1  0  0  0
 73 86  1  0  0  0
 74 75  1  0  0  0
 74 81  1  0  0  0
 74 82  2  0  0  0
 75 76  1  0  0  0
 75146  1  0  0  0
 75147  1  0  0  0
 76 78  1  0  0  0
 76148  1  0  0  0
 76149  1  0  0  0
 77 78  1  0  0  0
 77150  1  0  0  0
 77151  1  0  0  0
 78 84  1  0  0  0
 78 85  1  0  0  0
 80152  1  0  0  0
 81153  1  0  0  0
M  ISO  4   1 100  68 101  77 101  80 100
M  END
> <chiral flag>
0

> <version>
0

> <s_m_source_file>
/data/baiqing/PycharmProjects/Reinvent-master-3.2/result/LINK_invent/BTK/process_docking_weight1_custom_product_contain_oxygen_bond_distance_aromatic_linkinvent_7_9_3/rearranged_h_0182.sdf

> <i_m_source_file_index>
49

> <r_mmod_Potential_Energy-OPLS-2005>
-138.369689941406

> <r_mmod_Stretch_Energy-OPLS-2005>
30.6181621551514

> <r_mmod_Bend_Energy-OPLS-2005>
96.1232604980469

> <r_mmod_Torsional_Energy-OPLS-2005>
277.951934814453

> <r_mmod_Improper_Torsional_Energy-OPLS-2005>
9.33592796325684

> <r_mmod_Van_der_Waal_Energy-OPLS-2005>
142.040267944336

> <r_mmod_Electrostatic_Energy-OPLS-2005>
-476.998809814453

> <r_mmod_Solvation_Energy-OPLS-2005>
-238.252975463867

> <b_mmod_Minimization_Converged-OPLS-2005>
0

> <r_mmod_RMS_Derivative-OPLS-2005>
2.22996044158936

$$$$
49
                    3D
 Structure written by MMmdl.
152160  0  0  1  0            999 V2000
  -30.6099  -14.7162   20.4271 C   0  0  0  0  0  0
  -30.4494  -12.4165   19.4447 C   0  0  0  0  0  0
  -29.5116  -12.4867   18.2150 C   0  0  0  0  0  0
  -28.0297  -12.3430   18.6252 C   0  0  0  0  0  0
  -27.6568  -13.2231   19.8496 C   0  0  2  0  0  0
  -28.7173  -13.1022   20.9702 C   0  0  0  0  0  0
  -25.2605  -13.8188   20.5710 C   0  0  0  0  0  0
  -24.1893  -13.0453   20.9190 C   0  0  0  0  0  0
  -24.6449  -11.6907   20.8729 C   0  0  0  0  0  0
  -23.9116  -10.4276   21.0370 C   0  0  0  0  0  0
  -24.3668   -9.4184   21.9138 C   0  0  0  0  0  0
  -23.6316   -8.2244   22.0769 C   0  0  0  0  0  0
  -22.4281   -8.0295   21.3590 C   0  0  0  0  0  0
  -21.9927   -9.0248   20.4668 C   0  0  0  0  0  0
  -22.7291  -10.2104   20.3025 C   0  0  0  0  0  0
  -21.6836   -6.0729   22.5270 C   0  0  0  0  0  0
  -21.4000   -6.5629   23.8209 C   0  0  0  0  0  0
  -21.3652   -5.6789   24.9173 C   0  0  0  0  0  0
  -21.6052   -4.3055   24.7225 C   0  0  0  0  0  0
  -21.8825   -3.8147   23.4349 C   0  0  0  0  0  0
  -21.9192   -4.6956   22.3402 C   0  0  0  0  0  0
  -22.7894  -13.5220   21.1821 C   0  0  0  0  0  0
  -22.1662   -4.2143   21.0983 F   0  0  0  0  0  0
  -21.5628   -3.4548   25.7738 F   0  0  0  0  0  0
  -30.0199  -13.4682   20.3933 N   0  0  0  0  0  0
  -26.3053  -12.9381   20.3301 N   0  0  0  0  0  0
  -25.9382  -11.6520   20.5753 N   0  0  0  0  0  0
  -22.0544  -12.8195   22.0367 N   0  0  0  0  0  0
  -25.4241  -15.1928   20.4121 N   0  0  0  0  0  0
  -31.7881  -14.8505   20.0785 O   0  0  0  0  0  0
  -21.6650   -6.8899   21.4259 O   0  0  0  0  0  0
  -22.3541  -14.5493   20.6625 O   0  0  0  0  0  0
  -24.6245  -31.8496   23.1941 C   0  0  0  0  0  0
  -25.9001  -32.4773   23.8383 C   0  0  1  0  0  0
  -27.2457  -27.2877   20.1018 C   0  0  0  0  0  0
  -25.5731  -33.8595   24.2236 N   0  0  0  0  0  0
  -23.4247  -30.4627   21.5304 C   0  0  2  0  0  0
  -24.8875  -28.9233   20.0942 C   0  0  0  0  0  0
  -22.7479  -29.4455   22.4797 C   0  0  0  0  0  0
  -18.0228  -28.1347   22.8379 C   0  0  0  0  0  0
  -24.1470  -36.7275   23.2656 C   0  0  0  0  0  0
  -25.9704  -30.7798   21.3667 C   0  0  0  0  0  0
  -26.0515  -29.4018   20.7072 C   0  0  0  0  0  0
  -27.2289  -28.5893   20.7026 C   0  0  0  0  0  0
  -26.0574  -26.8721   19.4593 C   0  0  0  0  0  0
  -24.8915  -27.6662   19.4642 C   0  0  0  0  0  0
  -23.6466  -29.7923   20.1470 C   0  0  0  0  0  0
  -25.4096  -36.3107   24.0371 C   0  0  1  0  0  0
  -20.5875  -28.3581   23.1242 C   0  0  2  0  0  0
  -20.6675  -26.9280   22.5373 C   0  0  0  0  0  0
  -19.5685  -26.6304   21.5119 C   0  0  0  0  0  0
  -18.1873  -26.7862   22.1580 C   0  0  0  0  0  0
  -19.1501  -28.8775   23.2807 C   0  0  0  0  0  0
  -18.9459  -30.1394   23.8806 C   0  0  0  0  0  0
  -17.6476  -30.6546   24.0512 C   0  0  0  0  0  0
  -25.9002  -34.9483   23.5152 C   0  0  0  0  0  0
  -16.5340  -29.9042   23.6355 C   0  0  0  0  0  0
  -16.7225  -28.6491   23.0308 C   0  0  0  0  0  0
  -26.4357  -31.6655   25.0806 C   0  0  0  0  0  0
  -25.3532  -31.3852   26.1507 C   0  0  0  0  0  0
  -27.0248  -30.3117   24.6290 C   0  0  0  0  0  0
  -27.5943  -32.4409   25.7511 C   0  0  0  0  0  0
  -27.5564  -37.1791   24.8478 C   0  0  0  0  0  0
  -21.4183  -29.2938   22.3647 N   0  0  0  0  0  0
  -26.4280  -37.3785   23.9416 N   0  0  0  0  0  0
  -24.6915  -31.0497   22.0873 N   0  0  0  0  0  0
  -23.4239  -28.7948   23.2808 O   0  0  0  0  0  0
  -28.3830  -26.4552   20.1886 O   0  0  0  0  0  0
  -26.5667  -34.8966   22.4785 O   0  0  0  0  0  0
  -23.5387  -32.1281   23.7210 O   0  0  0  0  0  0
  -29.4819  -19.8403   20.3690 C   0  0  0  0  0  0
  -30.4476  -19.3173   19.4972 C   0  0  0  0  0  0
  -29.8645  -17.2538   20.4774 C   0  0  0  0  0  0
  -28.9887  -21.2379   20.8590 C   0  0  0  0  0  0
  -28.4983  -25.0530   19.6575 C   0  0  0  0  0  0
  -28.2148  -23.7227   20.5426 C   0  0  1  0  0  0
  -26.6837  -23.5087   20.6883 C   0  0  0  0  0  0
  -30.6575  -17.9026   19.5964 N   0  0  0  0  0  0
  -31.2530  -20.0205   18.5702 N   0  0  0  0  0  0
  -29.7883  -15.7901   20.7157 N   0  0  0  0  0  0
  -28.8625  -22.3908   20.1001 N   0  0  0  0  0  0
  -28.6798  -21.3022   22.0506 O   0  0  0  0  0  0
  -26.3661  -22.5526   21.5575 F   0  0  0  0  0  0
  -26.0904  -24.6085   21.1375 F   0  0  0  0  0  0
  -26.1654  -23.1891   19.4999 F   0  0  0  0  0  0
  -28.7906  -18.4482   21.2691 S   0  0  0  0  0  0
  -31.4898  -12.5354   19.1347 H   0  0  0  0  0  0
  -30.4014  -11.4348   19.9176 H   0  0  0  0  0  0
  -29.7728  -11.7102   17.4923 H   0  0  0  0  0  0
  -29.6615  -13.4402   17.7092 H   0  0  0  0  0  0
  -27.8347  -11.2903   18.8480 H   0  0  0  0  0  0
  -27.3875  -12.5881   17.7803 H   0  0  0  0  0  0
  -27.6629  -14.2531   19.4915 H   0  0  0  0  0  0
  -28.7562  -12.0810   21.3378 H   0  0  0  0  0  0
  -28.4742  -13.7206   21.8322 H   0  0  0  0  0  0
  -25.2811   -9.5619   22.4725 H   0  0  0  0  0  0
  -23.9975   -7.4634   22.7497 H   0  0  0  0  0  0
  -21.0851   -8.8788   19.8985 H   0  0  0  0  0  0
  -22.3760  -10.9643   19.6134 H   0  0  0  0  0  0
  -21.1985   -7.6135   23.9712 H   0  0  0  0  0  0
  -21.1467   -6.0519   25.9082 H   0  0  0  0  0  0
  -22.0616   -2.7607   23.2851 H   0  0  0  0  0  0
  -22.4155  -11.9846   22.4756 H   0  0  0  0  0  0
  -21.1181  -13.1229   22.2622 H   0  0  0  0  0  0
  -24.6510  -15.8340   20.5498 H   0  0  0  0  0  0
  -26.2426  -15.6413   20.0234 H   0  0  0  0  0  0
  -26.7068  -32.5446   23.1158 H   0  0  0  0  0  0
  -24.9738  -33.9703   25.0287 H   0  0  0  0  0  0
  -22.7195  -31.2834   21.3742 H   0  0  0  0  0  0
  -23.3760  -35.9560   23.3349 H   0  0  0  0  0  0
  -24.3521  -36.8890   22.2045 H   0  0  0  0  0  0
  -23.7219  -37.6498   23.6659 H   0  0  0  0  0  0
  -26.0966  -31.5337   20.5898 H   0  0  0  0  0  0
  -26.8580  -30.8434   21.9886 H   0  0  0  0  0  0
  -28.1232  -28.9384   21.1994 H   0  0  0  0  0  0
  -25.9946  -25.9045   18.9840 H   0  0  0  0  0  0
  -23.9950  -27.2943   18.9837 H   0  0  0  0  0  0
  -23.7500  -30.5690   19.3900 H   0  0  0  0  0  0
  -22.7767  -29.2035   19.8468 H   0  0  0  0  0  0
  -25.1270  -36.1951   25.0860 H   0  0  0  0  0  0
  -20.9933  -28.3082   24.1384 H   0  0  0  0  0  0
  -20.5374  -26.2127   23.3527 H   0  0  0  0  0  0
  -21.6542  -26.7101   22.1276 H   0  0  0  0  0  0
  -19.6817  -25.6189   21.1181 H   0  0  0  0  0  0
  -19.6761  -27.3064   20.6623 H   0  0  0  0  0  0
  -17.4106  -26.6469   21.4075 H   0  0  0  0  0  0
  -18.0374  -26.0053   22.9053 H   0  0  0  0  0  0
  -19.7951  -30.7183   24.2151 H   0  0  0  0  0  0
  -17.5060  -31.6232   24.5092 H   0  0  0  0  0  0
  -15.5354  -30.2960   23.7717 H   0  0  0  0  0  0
  -15.8598  -28.0836   22.7063 H   0  0  0  0  0  0
  -24.5788  -30.7051   25.7907 H   0  0  0  0  0  0
  -24.8544  -32.2999   26.4737 H   0  0  0  0  0  0
  -25.7820  -30.9287   27.0431 H   0  0  0  0  0  0
  -26.2917  -29.6895   24.1151 H   0  0  0  0  0  0
  -27.3739  -29.7351   25.4850 H   0  0  0  0  0  0
  -27.8798  -30.4453   23.9670 H   0  0  0  0  0  0
  -27.2625  -33.3817   26.1921 H   0  0  0  0  0  0
  -28.3793  -32.6790   25.0311 H   0  0  0  0  0  0
  -28.0518  -31.8616   26.5533 H   0  0  0  0  0  0
  -28.2572  -38.0105   24.7535 H   0  0  0  0  0  0
  -28.1103  -36.2644   24.6300 H   0  0  0  0  0  0
  -27.2284  -37.1403   25.8890 H   0  0  0  0  0  0
  -20.9294  -29.8947   21.7181 H   0  0  0  0  0  0
  -26.0200  -38.2857   24.1508 H   0  0  0  0  0  0
  -27.9917  -24.9770   18.6994 H   0  0  0  0  0  0
  -29.5514  -24.9947   19.3772 H   0  0  0  0  0  0
  -28.5999  -23.9510   21.5375 H   0  0  0  0  0  0
  -31.0882  -20.9847   18.2930 H   0  0  0  0  0  0
  -32.0229  -19.5885   18.0543 H   0  0  0  0  0  0
  -28.8993  -15.4996   21.0958 H   0  0  0  0  0  0
  -29.1439  -22.3473   19.1318 H   0  0  0  0  0  0
  1 25  1  0  0  0
  1 30  2  0  0  0
  1 80  1  0  0  0
  2  3  1  0  0  0
  2 25  1  0  0  0
  2 87  1  0  0  0
  2 88  1  0  0  0
  3  4  1  0  0  0
  3 89  1  0  0  0
  3 90  1  0  0  0
  4  5  1  0  0  0
  4 91  1  0  0  0
  4 92  1  0  0  0
  5  6  1  0  0  0
  5 26  1  0  0  0
  5 93  1  0  0  0
  6 25  1  0  0  0
  6 94  1  0  0  0
  6 95  1  0  0  0
  7  8  2  0  0  0
  7 26  1  0  0  0
  7 29  1  0  0  0
  8  9  1  0  0  0
  8 22  1  0  0  0
  9 10  1  0  0  0
  9 27  2  0  0  0
 10 11  2  0  0  0
 10 15  1  0  0  0
 11 12  1  0  0  0
 11 96  1  0  0  0
 12 13  2  0  0  0
 12 97  1  0  0  0
 13 14  1  0  0  0
 13 31  1  0  0  0
 14 15  2  0  0  0
 14 98  1  0  0  0
 15 99  1  0  0  0
 16 17  2  0  0  0
 16 21  1  0  0  0
 16 31  1  0  0  0
 17 18  1  0  0  0
 17100  1  0  0  0
 18 19  2  0  0  0
 18101  1  0  0  0
 19 20  1  0  0  0
 19 24  1  0  0  0
 20 21  2  0  0  0
 20102  1  0  0  0
 21 23  1  0  0  0
 22 28  1  0  0  0
 22 32  2  0  0  0
 26 27  1  0  0  0
 28103  1  0  0  0
 28104  1  0  0  0
 29105  1  0  0  0
 29106  1  0  0  0
 33 34  1  0  0  0
 33 66  1  0  0  0
 33 70  2  0  0  0
 34 36  1  0  0  0
 34 59  1  0  0  0
 34107  1  0  0  0
 35 44  2  0  0  0
 35 45  1  0  0  0
 35 68  1  0  0  0
 36 56  1  0  0  0
 36108  1  0  0  0
 37 39  1  0  0  0
 37 47  1  0  0  0
 37 66  1  0  0  0
 37109  1  0  0  0
 38 43  2  0  0  0
 38 46  1  0  0  0
 38 47  1  0  0  0
 39 64  1  0  0  0
 39 67  2  0  0  0
 40 52  1  0  0  0
 40 53  2  0  0  0
 40 58  1  0  0  0
 41110  1  0  0  0
 41111  1  0  0  0
 41112  1  0  0  0
 41 48  1  0  0  0
 42 43  1  0  0  0
 42 66  1  0  0  0
 42113  1  0  0  0
 42114  1  0  0  0
 43 44  1  0  0  0
 44115  1  0  0  0
 45 46  2  0  0  0
 45116  1  0  0  0
 46117  1  0  0  0
 47118  1  0  0  0
 47119  1  0  0  0
 48 56  1  0  0  0
 48 65  1  0  0  0
 48120  1  0  0  0
 49 50  1  0  0  0
 49 53  1  0  0  0
 49 64  1  0  0  0
 49121  1  0  0  0
 50 51  1  0  0  0
 50122  1  0  0  0
 50123  1  0  0  0
 51 52  1  0  0  0
 51124  1  0  0  0
 51125  1  0  0  0
 52126  1  0  0  0
 52127  1  0  0  0
 53 54  1  0  0  0
 54 55  2  0  0  0
 54128  1  0  0  0
 55 57  1  0  0  0
 55129  1  0  0  0
 56 69  2  0  0  0
 57 58  2  0  0  0
 57130  1  0  0  0
 58131  1  0  0  0
 59 60  1  0  0  0
 59 61  1  0  0  0
 59 62  1  0  0  0
 60132  1  0  0  0
 60133  1  0  0  0
 60134  1  0  0  0
 61135  1  0  0  0
 61136  1  0  0  0
 61137  1  0  0  0
 62138  1  0  0  0
 62139  1  0  0  0
 62140  1  0  0  0
 63 65  1  0  0  0
 63141  1  0  0  0
 63142  1  0  0  0
 63143  1  0  0  0
 64144  1  0  0  0
 65145  1  0  0  0
 68 75  1  0  0  0
 71 72  2  0  0  0
 71 74  1  0  0  0
 71 86  1  0  0  0
 72 78  1  0  0  0
 72 79  1  0  0  0
 73 78  2  0  0  0
 73 80  1  0  0  0
 73 86  1  0  0  0
 74 81  1  0  0  0
 74 82  2  0  0  0
 75146  1  0  0  0
 75147  1  0  0  0
 75 76  1  0  0  0
 76 77  1  0  0  0
 76 81  1  0  0  0
 76148  1  0  0  0
 77 83  1  0  0  0
 77 84  1  0  0  0
 77 85  1  0  0  0
 79149  1  0  0  0
 79150  1  0  0  0
 80151  1  0  0  0
 81152  1  0  0  0
M  ISO  4   1 100  68 101  75 101  80 100
M  END
> <chiral flag>
0

> <version>
0

> <s_m_source_file>
/data/baiqing/PycharmProjects/Reinvent-master-3.2/result/LINK_invent/BTK/process_docking_weight1_custom_product_contain_oxygen_bond_distance_aromatic_linkinvent_7_9_3/rearranged_h_0182.sdf

> <i_m_source_file_index>
50

> <r_mmod_Potential_Energy-OPLS-2005>
-9.16425895690918

> <r_mmod_Stretch_Energy-OPLS-2005>
121.974838256836

> <r_mmod_Bend_Energy-OPLS-2005>
208.311004638672

> <r_mmod_Torsional_Energy-OPLS-2005>
226.901748657227

> <r_mmod_Improper_Torsional_Energy-OPLS-2005>
4.45175361633301

> <r_mmod_Van_der_Waal_Energy-OPLS-2005>
117.063018798828

> <r_mmod_Electrostatic_Energy-OPLS-2005>
-494.231414794922

> <r_mmod_Solvation_Energy-OPLS-2005>
-262.765502929688

> <b_mmod_Minimization_Converged-OPLS-2005>
0

> <r_mmod_RMS_Derivative-OPLS-2005>
9.19940948486328

$$$$
50
                    3D
 Structure written by MMmdl.
151159  0  0  1  0            999 V2000
  -30.5615  -14.7672   20.4591 C   0  0  0  0  0  0
  -30.4485  -12.4670   19.4702 C   0  0  0  0  0  0
  -29.5183  -12.5022   18.2361 C   0  0  0  0  0  0
  -28.0443  -12.3165   18.6501 C   0  0  0  0  0  0
  -27.6431  -13.2197   19.8458 C   0  0  2  0  0  0
  -28.6874  -13.1424   20.9819 C   0  0  0  0  0  0
  -25.2524  -13.8169   20.5673 C   0  0  0  0  0  0
  -24.1805  -13.0432   20.9201 C   0  0  0  0  0  0
  -24.6381  -11.6906   20.8736 C   0  0  0  0  0  0
  -23.9059  -10.4290   21.0415 C   0  0  0  0  0  0
  -24.3614   -9.4201   21.9185 C   0  0  0  0  0  0
  -23.6288   -8.2239   22.0754 C   0  0  0  0  0  0
  -22.4268   -8.0277   21.3550 C   0  0  0  0  0  0
  -21.9901   -9.0253   20.4657 C   0  0  0  0  0  0
  -22.7231  -10.2134   20.3063 C   0  0  0  0  0  0
  -21.6853   -6.0726   22.5280 C   0  0  0  0  0  0
  -21.4017   -6.5631   23.8213 C   0  0  0  0  0  0
  -21.3658   -5.6779   24.9167 C   0  0  0  0  0  0
  -21.6043   -4.3046   24.7219 C   0  0  0  0  0  0
  -21.8821   -3.8142   23.4343 C   0  0  0  0  0  0
  -21.9190   -4.6953   22.3398 C   0  0  0  0  0  0
  -22.7832  -13.5242   21.1855 C   0  0  0  0  0  0
  -22.1663   -4.2145   21.0971 F   0  0  0  0  0  0
  -21.5622   -3.4527   25.7733 F   0  0  0  0  0  0
  -29.9878  -13.5146   20.4071 N   0  0  0  0  0  0
  -26.2933  -12.9350   20.3231 N   0  0  0  0  0  0
  -25.9302  -11.6514   20.5730 N   0  0  0  0  0  0
  -22.0463  -12.8257   22.0414 N   0  0  0  0  0  0
  -25.4209  -15.1894   20.4079 N   0  0  0  0  0  0
  -31.7528  -14.9123   20.1657 O   0  0  0  0  0  0
  -21.6634   -6.8876   21.4246 O   0  0  0  0  0  0
  -22.3534  -14.5535   20.6666 O   0  0  0  0  0  0
  -24.6305  -31.8546   23.1942 C   0  0  0  0  0  0
  -25.9137  -32.4739   23.8304 C   0  0  1  0  0  0
  -27.2192  -27.2572   20.1448 C   0  0  0  0  0  0
  -25.5938  -33.8544   24.2234 N   0  0  0  0  0  0
  -23.4269  -30.4743   21.5378 C   0  0  2  0  0  0
  -24.8745  -28.9119   20.1128 C   0  0  0  0  0  0
  -22.7510  -29.4589   22.4895 C   0  0  0  0  0  0
  -18.0296  -28.1397   22.8486 C   0  0  0  0  0  0
  -24.1486  -36.7282   23.2626 C   0  0  0  0  0  0
  -25.9713  -30.7666   21.3731 C   0  0  0  0  0  0
  -26.0441  -29.3860   20.7212 C   0  0  0  0  0  0
  -27.2216  -28.5728   20.7197 C   0  0  0  0  0  0
  -26.0305  -26.8425   19.5132 C   0  0  0  0  0  0
  -24.8723  -27.6491   19.4970 C   0  0  0  0  0  0
  -23.6457  -29.8012   20.1555 C   0  0  0  0  0  0
  -25.4119  -36.3061   24.0313 C   0  0  1  0  0  0
  -20.5903  -28.3705   23.1267 C   0  0  2  0  0  0
  -20.6789  -26.9422   22.5407 C   0  0  0  0  0  0
  -19.5760  -26.6387   21.5213 C   0  0  0  0  0  0
  -18.1939  -26.7933   22.1627 C   0  0  0  0  0  0
  -19.1552  -28.8868   23.2863 C   0  0  0  0  0  0
  -18.9467  -30.1471   23.8870 C   0  0  0  0  0  0
  -17.6466  -30.6587   24.0574 C   0  0  0  0  0  0
  -25.9071  -34.9429   23.5081 C   0  0  0  0  0  0
  -16.5361  -29.9092   23.6334 C   0  0  0  0  0  0
  -16.7280  -28.6520   23.0335 C   0  0  0  0  0  0
  -26.4504  -31.6570   25.0699 C   0  0  0  0  0  0
  -25.3724  -31.3752   26.1425 C   0  0  0  0  0  0
  -27.0344  -30.2977   24.6197 C   0  0  0  0  0  0
  -27.6053  -32.4312   25.7474 C   0  0  0  0  0  0
  -27.5576  -37.1795   24.8467 C   0  0  0  0  0  0
  -21.4217  -29.3044   22.3652 N   0  0  0  0  0  0
  -26.4289  -37.3767   23.9400 N   0  0  0  0  0  0
  -24.6951  -31.0509   22.0918 N   0  0  0  0  0  0
  -23.4208  -28.8135   23.3001 O   0  0  0  0  0  0
  -28.3352  -26.3922   20.1393 O   0  0  0  0  0  0
  -26.5649  -34.8916   22.4653 O   0  0  0  0  0  0
  -23.5457  -32.1373   23.7242 O   0  0  0  0  0  0
  -29.2954  -19.8841   20.2613 C   0  0  0  0  0  0
  -30.4059  -19.5112   21.0163 C   0  0  0  0  0  0
  -29.7668  -17.3103   20.5054 C   0  0  0  0  0  0
  -28.6776  -21.2117   19.7014 C   0  0  0  0  0  0
  -28.3202  -23.7158   19.8454 C   0  0  0  0  0  0
  -27.2721  -24.8941   21.8958 C   0  0  0  0  0  0
  -28.3277  -25.0203   20.7812 C   0  0  2  0  0  0
  -30.6417  -18.1062   21.1517 N   0  0  0  0  0  0
  -31.3124  -20.3754   21.6360 N   0  0  0  0  0  0
  -29.6813  -15.8311   20.6140 N   0  0  0  0  0  0
  -28.7588  -22.4667   20.3081 N   0  0  0  0  0  0
  -28.0586  -21.0827   18.6381 O   0  0  0  0  0  0
  -27.8970  -23.8837   18.6960 O   0  0  0  0  0  0
  -28.5450  -18.3524   19.6960 S   0  0  0  0  0  0
  -31.4863  -12.6188   19.1683 H   0  0  0  0  0  0
  -30.4178  -11.4903   19.9535 H   0  0  0  0  0  0
  -29.8075  -11.7238   17.5279 H   0  0  0  0  0  0
  -29.6343  -13.4507   17.7099 H   0  0  0  0  0  0
  -27.9108  -11.2695   18.9248 H   0  0  0  0  0  0
  -27.3849  -12.4936   17.7997 H   0  0  0  0  0  0
  -27.6363  -14.2387   19.4593 H   0  0  0  0  0  0
  -28.7302  -12.1351   21.3995 H   0  0  0  0  0  0
  -28.4157  -13.7992   21.8100 H   0  0  0  0  0  0
  -25.2765   -9.5664   22.4747 H   0  0  0  0  0  0
  -23.9994   -7.4626   22.7466 H   0  0  0  0  0  0
  -21.0828   -8.8776   19.8971 H   0  0  0  0  0  0
  -22.3697  -10.9664   19.6166 H   0  0  0  0  0  0
  -21.2018   -7.6143   23.9720 H   0  0  0  0  0  0
  -21.1479   -6.0505   25.9073 H   0  0  0  0  0  0
  -22.0605   -2.7606   23.2835 H   0  0  0  0  0  0
  -22.4092  -11.9950   22.4843 H   0  0  0  0  0  0
  -21.1087  -13.1309   22.2608 H   0  0  0  0  0  0
  -24.6399  -15.8301   20.5054 H   0  0  0  0  0  0
  -26.2399  -15.6287   20.0092 H   0  0  0  0  0  0
  -26.7195  -32.5397   23.1038 H   0  0  0  0  0  0
  -25.0101  -33.9689   25.0390 H   0  0  0  0  0  0
  -22.7218  -31.2941   21.3876 H   0  0  0  0  0  0
  -23.3742  -35.9622   23.3309 H   0  0  0  0  0  0
  -24.3560  -36.8896   22.2037 H   0  0  0  0  0  0
  -23.7257  -37.6491   23.6655 H   0  0  0  0  0  0
  -26.1078  -31.5222   20.5981 H   0  0  0  0  0  0
  -26.8478  -30.8192   22.0056 H   0  0  0  0  0  0
  -28.1240  -28.9369   21.1921 H   0  0  0  0  0  0
  -25.9928  -25.8713   19.0405 H   0  0  0  0  0  0
  -23.9787  -27.2829   19.0102 H   0  0  0  0  0  0
  -23.7705  -30.5722   19.3947 H   0  0  0  0  0  0
  -22.7645  -29.2328   19.8525 H   0  0  0  0  0  0
  -25.1294  -36.1901   25.0802 H   0  0  0  0  0  0
  -20.9998  -28.3290   24.1384 H   0  0  0  0  0  0
  -20.5702  -26.2313   23.3614 H   0  0  0  0  0  0
  -21.6656  -26.7451   22.1189 H   0  0  0  0  0  0
  -19.6930  -25.6295   21.1241 H   0  0  0  0  0  0
  -19.6694  -27.3202   20.6742 H   0  0  0  0  0  0
  -17.4215  -26.6668   21.4029 H   0  0  0  0  0  0
  -18.0346  -26.0076   22.9022 H   0  0  0  0  0  0
  -19.7940  -30.7304   24.2212 H   0  0  0  0  0  0
  -17.5018  -31.6256   24.5191 H   0  0  0  0  0  0
  -15.5362  -30.2986   23.7664 H   0  0  0  0  0  0
  -15.8681  -28.0843   22.7032 H   0  0  0  0  0  0
  -24.5873  -30.7128   25.7763 H   0  0  0  0  0  0
  -24.8949  -32.2943   26.4835 H   0  0  0  0  0  0
  -25.8030  -30.8932   27.0212 H   0  0  0  0  0  0
  -26.2935  -29.6718   24.1214 H   0  0  0  0  0  0
  -27.4007  -29.7244   25.4726 H   0  0  0  0  0  0
  -27.8818  -30.4228   23.9453 H   0  0  0  0  0  0
  -27.2652  -33.3603   26.2060 H   0  0  0  0  0  0
  -28.3864  -32.6894   25.0309 H   0  0  0  0  0  0
  -28.0732  -31.8442   26.5386 H   0  0  0  0  0  0
  -28.2608  -38.0077   24.7490 H   0  0  0  0  0  0
  -28.1052  -36.2608   24.6317 H   0  0  0  0  0  0
  -27.2291  -37.1480   25.8870 H   0  0  0  0  0  0
  -20.9411  -29.8759   21.6843 H   0  0  0  0  0  0
  -26.0163  -38.2838   24.1404 H   0  0  0  0  0  0
  -27.3939  -23.9617   22.4490 H   0  0  0  0  0  0
  -26.2564  -24.9035   21.4997 H   0  0  0  0  0  0
  -27.3619  -25.7083   22.6145 H   0  0  0  0  0  0
  -29.2959  -24.9706   21.2805 H   0  0  0  0  0  0
  -31.3732  -21.3479   21.3561 H   0  0  0  0  0  0
  -32.1848  -20.0007   21.9961 H   0  0  0  0  0  0
  -28.7340  -15.5032   20.6943 H   0  0  0  0  0  0
  -29.1597  -22.4701   21.2332 H   0  0  0  0  0  0
  1 25  1  0  0  0
  1 30  2  0  0  0
  1 80  1  0  0  0
  2  3  1  0  0  0
  2 25  1  0  0  0
  2 85  1  0  0  0
  2 86  1  0  0  0
  3  4  1  0  0  0
  3 87  1  0  0  0
  3 88  1  0  0  0
  4  5  1  0  0  0
  4 89  1  0  0  0
  4 90  1  0  0  0
  5  6  1  0  0  0
  5 26  1  0  0  0
  5 91  1  0  0  0
  6 25  1  0  0  0
  6 92  1  0  0  0
  6 93  1  0  0  0
  7  8  2  0  0  0
  7 26  1  0  0  0
  7 29  1  0  0  0
  8  9  1  0  0  0
  8 22  1  0  0  0
  9 10  1  0  0  0
  9 27  2  0  0  0
 10 11  2  0  0  0
 10 15  1  0  0  0
 11 12  1  0  0  0
 11 94  1  0  0  0
 12 13  2  0  0  0
 12 95  1  0  0  0
 13 14  1  0  0  0
 13 31  1  0  0  0
 14 15  2  0  0  0
 14 96  1  0  0  0
 15 97  1  0  0  0
 16 17  2  0  0  0
 16 21  1  0  0  0
 16 31  1  0  0  0
 17 18  1  0  0  0
 17 98  1  0  0  0
 18 19  2  0  0  0
 18 99  1  0  0  0
 19 20  1  0  0  0
 19 24  1  0  0  0
 20 21  2  0  0  0
 20100  1  0  0  0
 21 23  1  0  0  0
 22 28  1  0  0  0
 22 32  2  0  0  0
 26 27  1  0  0  0
 28101  1  0  0  0
 28102  1  0  0  0
 29103  1  0  0  0
 29104  1  0  0  0
 33 34  1  0  0  0
 33 66  1  0  0  0
 33 70  2  0  0  0
 34 36  1  0  0  0
 34 59  1  0  0  0
 34105  1  0  0  0
 35 44  2  0  0  0
 35 45  1  0  0  0
 35 68  1  0  0  0
 36 56  1  0  0  0
 36106  1  0  0  0
 37 39  1  0  0  0
 37 47  1  0  0  0
 37 66  1  0  0  0
 37107  1  0  0  0
 38 43  2  0  0  0
 38 46  1  0  0  0
 38 47  1  0  0  0
 39 64  1  0  0  0
 39 67  2  0  0  0
 40 52  1  0  0  0
 40 53  2  0  0  0
 40 58  1  0  0  0
 41108  1  0  0  0
 41109  1  0  0  0
 41110  1  0  0  0
 41 48  1  0  0  0
 42 43  1  0  0  0
 42 66  1  0  0  0
 42111  1  0  0  0
 42112  1  0  0  0
 43 44  1  0  0  0
 44113  1  0  0  0
 45 46  2  0  0  0
 45114  1  0  0  0
 46115  1  0  0  0
 47116  1  0  0  0
 47117  1  0  0  0
 48 56  1  0  0  0
 48 65  1  0  0  0
 48118  1  0  0  0
 49 50  1  0  0  0
 49 53  1  0  0  0
 49 64  1  0  0  0
 49119  1  0  0  0
 50 51  1  0  0  0
 50120  1  0  0  0
 50121  1  0  0  0
 51 52  1  0  0  0
 51122  1  0  0  0
 51123  1  0  0  0
 52124  1  0  0  0
 52125  1  0  0  0
 53 54  1  0  0  0
 54 55  2  0  0  0
 54126  1  0  0  0
 55 57  1  0  0  0
 55127  1  0  0  0
 56 69  2  0  0  0
 57 58  2  0  0  0
 57128  1  0  0  0
 58129  1  0  0  0
 59 60  1  0  0  0
 59 61  1  0  0  0
 59 62  1  0  0  0
 60130  1  0  0  0
 60131  1  0  0  0
 60132  1  0  0  0
 61133  1  0  0  0
 61134  1  0  0  0
 61135  1  0  0  0
 62136  1  0  0  0
 62137  1  0  0  0
 62138  1  0  0  0
 63 65  1  0  0  0
 63139  1  0  0  0
 63140  1  0  0  0
 63141  1  0  0  0
 64142  1  0  0  0
 65143  1  0  0  0
 68 77  1  0  0  0
 71 72  2  0  0  0
 71 74  1  0  0  0
 71 84  1  0  0  0
 72 78  1  0  0  0
 72 79  1  0  0  0
 73 78  2  0  0  0
 73 80  1  0  0  0
 73 84  1  0  0  0
 74 81  1  0  0  0
 74 82  2  0  0  0
 75 77  1  0  0  0
 75 81  1  0  0  0
 75 83  2  0  0  0
 76144  1  0  0  0
 76145  1  0  0  0
 76146  1  0  0  0
 76 77  1  0  0  0
 77147  1  0  0  0
 79148  1  0  0  0
 79149  1  0  0  0
 80150  1  0  0  0
 81151  1  0  0  0
M  ISO  4   1 100  68 101  77 101  80 100
M  END
> <chiral flag>
0

> <version>
0

> <s_m_source_file>
/data/baiqing/PycharmProjects/Reinvent-master-3.2/result/LINK_invent/BTK/process_docking_weight1_custom_product_contain_oxygen_bond_distance_aromatic_linkinvent_7_9_3/rearranged_h_0182.sdf

> <i_m_source_file_index>
51

> <r_mmod_Potential_Energy-OPLS-2005>
0.92359185218811

> <r_mmod_Stretch_Energy-OPLS-2005>
122.040390014648

> <r_mmod_Bend_Energy-OPLS-2005>
191.870864868164

> <r_mmod_Torsional_Energy-OPLS-2005>
262.6708984375

> <r_mmod_Improper_Torsional_Energy-OPLS-2005>
9.37110996246338

> <r_mmod_Van_der_Waal_Energy-OPLS-2005>
114.513618469238

> <r_mmod_Electrostatic_Energy-OPLS-2005>
-488.959045410156

> <r_mmod_Solvation_Energy-OPLS-2005>
-300.169403076172

> <b_mmod_Minimization_Converged-OPLS-2005>
0

> <r_mmod_RMS_Derivative-OPLS-2005>
2.16533184051514

$$$$
51
                    3D
 Structure written by MMmdl.
159167  0  0  1  0            999 V2000
  -30.7062  -14.6128   20.5594 C   0  0  0  0  0  0
  -30.4433  -12.4081   19.4499 C   0  0  0  0  0  0
  -29.5063  -12.4968   18.2289 C   0  0  0  0  0  0
  -28.0323  -12.3277   18.6502 C   0  0  0  0  0  0
  -27.6542  -13.2252   19.8572 C   0  0  2  0  0  0
  -28.7001  -13.1111   20.9838 C   0  0  0  0  0  0
  -25.2559  -13.8213   20.5735 C   0  0  0  0  0  0
  -24.1851  -13.0513   20.9290 C   0  0  0  0  0  0
  -24.6423  -11.6950   20.8824 C   0  0  0  0  0  0
  -23.9097  -10.4311   21.0410 C   0  0  0  0  0  0
  -24.3608   -9.4241   21.9224 C   0  0  0  0  0  0
  -23.6289   -8.2271   22.0783 C   0  0  0  0  0  0
  -22.4255   -8.0330   21.3600 C   0  0  0  0  0  0
  -21.9912   -9.0319   20.4696 C   0  0  0  0  0  0
  -22.7250  -10.2179   20.3106 C   0  0  0  0  0  0
  -21.6836   -6.0756   22.5304 C   0  0  0  0  0  0
  -21.3988   -6.5669   23.8244 C   0  0  0  0  0  0
  -21.3657   -5.6819   24.9219 C   0  0  0  0  0  0
  -21.6034   -4.3077   24.7242 C   0  0  0  0  0  0
  -21.8807   -3.8184   23.4354 C   0  0  0  0  0  0
  -21.9176   -4.6992   22.3413 C   0  0  0  0  0  0
  -22.7856  -13.5311   21.1911 C   0  0  0  0  0  0
  -22.1667   -4.2201   21.0977 F   0  0  0  0  0  0
  -21.5628   -3.4536   25.7725 F   0  0  0  0  0  0
  -30.0197  -13.4365   20.4158 N   0  0  0  0  0  0
  -26.2997  -12.9423   20.3303 N   0  0  0  0  0  0
  -25.9343  -11.6579   20.5764 N   0  0  0  0  0  0
  -22.0366  -12.8370   22.0375 N   0  0  0  0  0  0
  -25.4355  -15.1929   20.4174 N   0  0  0  0  0  0
  -31.8743  -14.7338   20.1767 O   0  0  0  0  0  0
  -21.6661   -6.8894   21.4264 O   0  0  0  0  0  0
  -22.3580  -14.5632   20.6708 O   0  0  0  0  0  0
  -24.6254  -31.8570   23.2206 C   0  0  0  0  0  0
  -25.9130  -32.4739   23.8483 C   0  0  1  0  0  0
  -27.1833  -27.3335   20.1151 C   0  0  0  0  0  0
  -25.5948  -33.8553   24.2345 N   0  0  0  0  0  0
  -23.4074  -30.4960   21.5620 C   0  0  2  0  0  0
  -24.8403  -28.9478   20.1236 C   0  0  0  0  0  0
  -22.7403  -29.4652   22.5042 C   0  0  0  0  0  0
  -18.0263  -28.1376   22.8535 C   0  0  0  0  0  0
  -24.1416  -36.7245   23.2655 C   0  0  0  0  0  0
  -25.9494  -30.8014   21.3775 C   0  0  0  0  0  0
  -26.0142  -29.4336   20.7127 C   0  0  0  0  0  0
  -27.1969  -28.6359   20.6969 C   0  0  0  0  0  0
  -25.9898  -26.8899   19.5171 C   0  0  0  0  0  0
  -24.8224  -27.6747   19.5329 C   0  0  0  0  0  0
  -23.6135  -29.8342   20.1776 C   0  0  0  0  0  0
  -25.4048  -36.3025   24.0316 C   0  0  1  0  0  0
  -20.5849  -28.3644   23.1320 C   0  0  2  0  0  0
  -20.6681  -26.9365   22.5428 C   0  0  0  0  0  0
  -19.5640  -26.6380   21.5212 C   0  0  0  0  0  0
  -18.1846  -26.7914   22.1656 C   0  0  0  0  0  0
  -19.1521  -28.8824   23.2909 C   0  0  0  0  0  0
  -18.9446  -30.1454   23.8894 C   0  0  0  0  0  0
  -17.6455  -30.6584   24.0586 C   0  0  0  0  0  0
  -25.9047  -34.9398   23.5108 C   0  0  0  0  0  0
  -16.5339  -29.9103   23.6371 C   0  0  0  0  0  0
  -16.7256  -28.6512   23.0386 C   0  0  0  0  0  0
  -26.4537  -31.6601   25.0881 C   0  0  0  0  0  0
  -25.3848  -31.3815   26.1708 C   0  0  0  0  0  0
  -27.0390  -30.2993   24.6381 C   0  0  0  0  0  0
  -27.6020  -32.4440   25.7686 C   0  0  0  0  0  0
  -27.5500  -37.1782   24.8485 C   0  0  0  0  0  0
  -21.4143  -29.3006   22.3703 N   0  0  0  0  0  0
  -26.4210  -37.3743   23.9429 N   0  0  0  0  0  0
  -24.6793  -31.0641   22.1104 N   0  0  0  0  0  0
  -23.4149  -28.8158   23.3042 O   0  0  0  0  0  0
  -28.2897  -26.4934   20.0862 O   0  0  0  0  0  0
  -26.5611  -34.8869   22.4686 O   0  0  0  0  0  0
  -23.5426  -32.1357   23.7546 O   0  0  0  0  0  0
  -31.4619  -20.3575   20.1031 C   0  0  0  0  0  0
  -31.7491  -19.0385   20.6107 C   0  0  0  0  0  0
  -30.6200  -18.2939   20.9008 C   0  0  0  0  0  0
  -30.1295  -20.7130   20.0754 C   0  0  0  0  0  0
  -28.5127  -24.0880   19.7580 C   0  0  0  0  0  0
  -28.1960  -25.1670   20.5540 C   0  0  0  0  0  0
  -28.5954  -22.6782   20.2464 C   0  0  0  0  0  0
  -33.1573  -18.5743   20.8913 C   0  0  0  0  0  0
  -26.3504  -24.9091   22.3873 C   0  0  0  0  0  0
  -30.5674  -16.9376   21.6491 C   0  0  0  0  0  0
  -27.8472  -25.0876   22.0480 C   0  0  0  0  0  0
  -29.6357  -21.9585   19.7181 N   0  0  0  0  0  0
  -30.0225  -15.6893   21.0337 N   0  0  0  0  0  0
  -27.8118  -22.1724   21.0544 O   0  0  0  0  0  0
  -28.7556  -24.3009   18.4513 O   0  0  0  0  0  0
  -29.1914  -19.2947   20.5833 S   0  0  0  0  0  0
  -31.4786  -12.5439   19.1313 H   0  0  0  0  0  0
  -30.4085  -11.4219   19.9168 H   0  0  0  0  0  0
  -29.7783  -11.7332   17.4995 H   0  0  0  0  0  0
  -29.6391  -13.4563   17.7249 H   0  0  0  0  0  0
  -27.8936  -11.2803   18.9254 H   0  0  0  0  0  0
  -27.3729  -12.5195   17.8039 H   0  0  0  0  0  0
  -27.6653  -14.2540   19.4952 H   0  0  0  0  0  0
  -28.7082  -12.0986   21.3903 H   0  0  0  0  0  0
  -28.4419  -13.7599   21.8200 H   0  0  0  0  0  0
  -25.2694   -9.5716   22.4878 H   0  0  0  0  0  0
  -24.0003   -7.4619   22.7446 H   0  0  0  0  0  0
  -21.0877   -8.8847   19.8941 H   0  0  0  0  0  0
  -22.3729  -10.9759   19.6257 H   0  0  0  0  0  0
  -21.1973   -7.6155   23.9786 H   0  0  0  0  0  0
  -21.1498   -6.0520   25.9126 H   0  0  0  0  0  0
  -22.0560   -2.7634   23.2835 H   0  0  0  0  0  0
  -22.3895  -12.0096   22.4941 H   0  0  0  0  0  0
  -21.1006  -13.1543   22.2428 H   0  0  0  0  0  0
  -24.6727  -15.8552   20.5156 H   0  0  0  0  0  0
  -26.2900  -15.6108   20.0717 H   0  0  0  0  0  0
  -26.7191  -32.5356   23.1234 H   0  0  0  0  0  0
  -25.0026  -33.9710   25.0429 H   0  0  0  0  0  0
  -22.6984  -31.3186   21.4325 H   0  0  0  0  0  0
  -23.3652  -35.9621   23.3385 H   0  0  0  0  0  0
  -24.3481  -36.8811   22.2058 H   0  0  0  0  0  0
  -23.7199  -37.6468   23.6668 H   0  0  0  0  0  0
  -26.0727  -31.5746   20.6187 H   0  0  0  0  0  0
  -26.8343  -30.8433   22.0019 H   0  0  0  0  0  0
  -28.1056  -29.0101   21.1446 H   0  0  0  0  0  0
  -25.9535  -25.9116   19.0614 H   0  0  0  0  0  0
  -23.9049  -27.2781   19.1123 H   0  0  0  0  0  0
  -23.7380  -30.6189   19.4349 H   0  0  0  0  0  0
  -22.7250  -29.2857   19.8645 H   0  0  0  0  0  0
  -25.1218  -36.1861   25.0805 H   0  0  0  0  0  0
  -20.9956  -28.3184   24.1421 H   0  0  0  0  0  0
  -20.5456  -26.2252   23.3613 H   0  0  0  0  0  0
  -21.6555  -26.7284   22.1263 H   0  0  0  0  0  0
  -19.6757  -25.6298   21.1201 H   0  0  0  0  0  0
  -19.6562  -27.3208   20.6752 H   0  0  0  0  0  0
  -17.4079  -26.6721   21.4092 H   0  0  0  0  0  0
  -18.0277  -26.0050   22.9046 H   0  0  0  0  0  0
  -19.7920  -30.7297   24.2198 H   0  0  0  0  0  0
  -17.5007  -31.6267   24.5166 H   0  0  0  0  0  0
  -15.5329  -30.2990   23.7678 H   0  0  0  0  0  0
  -15.8661  -28.0822   22.7108 H   0  0  0  0  0  0
  -24.5962  -30.7131   25.8261 H   0  0  0  0  0  0
  -24.9140  -32.3014   26.5187 H   0  0  0  0  0  0
  -25.8307  -30.9100   27.0474 H   0  0  0  0  0  0
  -26.3029  -29.6830   24.1187 H   0  0  0  0  0  0
  -27.3795  -29.7182   25.4978 H   0  0  0  0  0  0
  -27.9033  -30.4272   23.9846 H   0  0  0  0  0  0
  -27.2481  -33.3687   26.2276 H   0  0  0  0  0  0
  -28.3863  -32.7112   25.0601 H   0  0  0  0  0  0
  -28.0669  -31.8622   26.5656 H   0  0  0  0  0  0
  -28.2579  -38.0021   24.7400 H   0  0  0  0  0  0
  -28.0907  -36.2518   24.6431 H   0  0  0  0  0  0
  -27.2227  -37.1603   25.8909 H   0  0  0  0  0  0
  -20.9272  -29.8718   21.6949 H   0  0  0  0  0  0
  -26.0041  -38.2780   24.1549 H   0  0  0  0  0  0
  -32.2747  -21.0268   19.8376 H   0  0  0  0  0  0
  -33.2699  -17.5019   20.7422 H   0  0  0  0  0  0
  -33.4406  -18.7830   21.9242 H   0  0  0  0  0  0
  -33.8957  -19.0682   20.2632 H   0  0  0  0  0  0
  -26.2111  -24.9090   23.4700 H   0  0  0  0  0  0
  -25.9371  -23.9677   22.0198 H   0  0  0  0  0  0
  -25.7387  -25.7342   22.0215 H   0  0  0  0  0  0
  -29.9676  -17.1119   22.5400 H   0  0  0  0  0  0
  -31.5477  -16.7040   22.0684 H   0  0  0  0  0  0
  -28.2207  -25.9766   22.5532 H   0  0  0  0  0  0
  -28.3911  -24.2595   22.4981 H   0  0  0  0  0  0
  -30.2296  -22.4941   19.0959 H   0  0  0  0  0  0
  -29.0490  -15.5139   21.2241 H   0  0  0  0  0  0
  -28.5492  -23.4947   17.9927 H   0  0  0  0  0  0
  1 25  1  0  0  0
  1 30  2  0  0  0
  1 83  1  0  0  0
  2  3  1  0  0  0
  2 25  1  0  0  0
  2 87  1  0  0  0
  2 88  1  0  0  0
  3  4  1  0  0  0
  3 89  1  0  0  0
  3 90  1  0  0  0
  4  5  1  0  0  0
  4 91  1  0  0  0
  4 92  1  0  0  0
  5  6  1  0  0  0
  5 26  1  0  0  0
  5 93  1  0  0  0
  6 25  1  0  0  0
  6 94  1  0  0  0
  6 95  1  0  0  0
  7  8  2  0  0  0
  7 26  1  0  0  0
  7 29  1  0  0  0
  8  9  1  0  0  0
  8 22  1  0  0  0
  9 10  1  0  0  0
  9 27  2  0  0  0
 10 11  2  0  0  0
 10 15  1  0  0  0
 11 12  1  0  0  0
 11 96  1  0  0  0
 12 13  2  0  0  0
 12 97  1  0  0  0
 13 14  1  0  0  0
 13 31  1  0  0  0
 14 15  2  0  0  0
 14 98  1  0  0  0
 15 99  1  0  0  0
 16 17  2  0  0  0
 16 21  1  0  0  0
 16 31  1  0  0  0
 17 18  1  0  0  0
 17100  1  0  0  0
 18 19  2  0  0  0
 18101  1  0  0  0
 19 20  1  0  0  0
 19 24  1  0  0  0
 20 21  2  0  0  0
 20102  1  0  0  0
 21 23  1  0  0  0
 22 28  1  0  0  0
 22 32  2  0  0  0
 26 27  1  0  0  0
 28103  1  0  0  0
 28104  1  0  0  0
 29105  1  0  0  0
 29106  1  0  0  0
 33 34  1  0  0  0
 33 66  1  0  0  0
 33 70  2  0  0  0
 34 36  1  0  0  0
 34 59  1  0  0  0
 34107  1  0  0  0
 35 44  2  0  0  0
 35 45  1  0  0  0
 35 68  1  0  0  0
 36 56  1  0  0  0
 36108  1  0  0  0
 37 39  1  0  0  0
 37 47  1  0  0  0
 37 66  1  0  0  0
 37109  1  0  0  0
 38 43  2  0  0  0
 38 46  1  0  0  0
 38 47  1  0  0  0
 39 64  1  0  0  0
 39 67  2  0  0  0
 40 52  1  0  0  0
 40 53  2  0  0  0
 40 58  1  0  0  0
 41110  1  0  0  0
 41111  1  0  0  0
 41112  1  0  0  0
 41 48  1  0  0  0
 42 43  1  0  0  0
 42 66  1  0  0  0
 42113  1  0  0  0
 42114  1  0  0  0
 43 44  1  0  0  0
 44115  1  0  0  0
 45 46  2  0  0  0
 45116  1  0  0  0
 46117  1  0  0  0
 47118  1  0  0  0
 47119  1  0  0  0
 48 56  1  0  0  0
 48 65  1  0  0  0
 48120  1  0  0  0
 49 50  1  0  0  0
 49 53  1  0  0  0
 49 64  1  0  0  0
 49121  1  0  0  0
 50 51  1  0  0  0
 50122  1  0  0  0
 50123  1  0  0  0
 51 52  1  0  0  0
 51124  1  0  0  0
 51125  1  0  0  0
 52126  1  0  0  0
 52127  1  0  0  0
 53 54  1  0  0  0
 54 55  2  0  0  0
 54128  1  0  0  0
 55 57  1  0  0  0
 55129  1  0  0  0
 56 69  2  0  0  0
 57 58  2  0  0  0
 57130  1  0  0  0
 58131  1  0  0  0
 59 60  1  0  0  0
 59 61  1  0  0  0
 59 62  1  0  0  0
 60132  1  0  0  0
 60133  1  0  0  0
 60134  1  0  0  0
 61135  1  0  0  0
 61136  1  0  0  0
 61137  1  0  0  0
 62138  1  0  0  0
 62139  1  0  0  0
 62140  1  0  0  0
 63 65  1  0  0  0
 63141  1  0  0  0
 63142  1  0  0  0
 63143  1  0  0  0
 64144  1  0  0  0
 65145  1  0  0  0
 68 76  1  0  0  0
 71 72  1  0  0  0
 71 74  2  0  0  0
 71146  1  0  0  0
 72 73  2  0  0  0
 72 78  1  0  0  0
 73 80  1  0  0  0
 73 86  1  0  0  0
 74 82  1  0  0  0
 74 86  1  0  0  0
 75 76  2  0  0  0
 75 77  1  0  0  0
 75 85  1  0  0  0
 76 81  1  0  0  0
 77 82  1  0  0  0
 77 84  2  0  0  0
 78147  1  0  0  0
 78148  1  0  0  0
 78149  1  0  0  0
 79 81  1  0  0  0
 79150  1  0  0  0
 79151  1  0  0  0
 79152  1  0  0  0
 80 83  1  0  0  0
 80153  1  0  0  0
 80154  1  0  0  0
 81155  1  0  0  0
 81156  1  0  0  0
 82157  1  0  0  0
 83158  1  0  0  0
 85159  1  0  0  0
M  ISO  4   1 100  68 101  76 101  83 100
M  END
> <chiral flag>
0

> <version>
0

> <s_m_source_file>
/data/baiqing/PycharmProjects/Reinvent-master-3.2/result/LINK_invent/BTK/process_docking_weight1_custom_product_contain_oxygen_bond_distance_aromatic_linkinvent_7_9_3/rearranged_h_0182.sdf

> <i_m_source_file_index>
52

> <r_mmod_Potential_Energy-OPLS-2005>
-27.0994701385498

> <r_mmod_Stretch_Energy-OPLS-2005>
66.3829727172852

> <r_mmod_Bend_Energy-OPLS-2005>
138.531448364258

> <r_mmod_Torsional_Energy-OPLS-2005>
248.36003112793

> <r_mmod_Improper_Torsional_Energy-OPLS-2005>
6.78030490875244

> <r_mmod_Van_der_Waal_Energy-OPLS-2005>
116.47435760498

> <r_mmod_Electrostatic_Energy-OPLS-2005>
-415.691040039062

> <r_mmod_Solvation_Energy-OPLS-2005>
-233.481628417969

> <b_mmod_Minimization_Converged-OPLS-2005>
0

> <r_mmod_RMS_Derivative-OPLS-2005>
9.48865032196045

$$$$
52
                    3D
 Structure written by MMmdl.
149157  0  0  1  0            999 V2000
  -30.5470  -14.8986   20.4410 C   0  0  0  0  0  0
  -30.4429  -12.5576   19.4899 C   0  0  0  0  0  0
  -29.5189  -12.5218   18.2509 C   0  0  0  0  0  0
  -28.0511  -12.3101   18.6705 C   0  0  0  0  0  0
  -27.6311  -13.2383   19.8402 C   0  0  2  0  0  0
  -28.6750  -13.2412   20.9770 C   0  0  0  0  0  0
  -25.2466  -13.8199   20.5711 C   0  0  0  0  0  0
  -24.1768  -13.0434   20.9228 C   0  0  0  0  0  0
  -24.6375  -11.6912   20.8756 C   0  0  0  0  0  0
  -23.9055  -10.4291   21.0409 C   0  0  0  0  0  0
  -24.3610   -9.4204   21.9182 C   0  0  0  0  0  0
  -23.6290   -8.2237   22.0750 C   0  0  0  0  0  0
  -22.4272   -8.0273   21.3542 C   0  0  0  0  0  0
  -21.9905   -9.0242   20.4640 C   0  0  0  0  0  0
  -22.7231  -10.2126   20.3052 C   0  0  0  0  0  0
  -21.6850   -6.0727   22.5278 C   0  0  0  0  0  0
  -21.4016   -6.5635   23.8210 C   0  0  0  0  0  0
  -21.3661   -5.6791   24.9173 C   0  0  0  0  0  0
  -21.6049   -4.3052   24.7229 C   0  0  0  0  0  0
  -21.8815   -3.8141   23.4349 C   0  0  0  0  0  0
  -21.9194   -4.6956   22.3406 C   0  0  0  0  0  0
  -22.7794  -13.5207   21.1886 C   0  0  0  0  0  0
  -22.1660   -4.2140   21.0982 F   0  0  0  0  0  0
  -21.5631   -3.4538   25.7741 F   0  0  0  0  0  0
  -29.9556  -13.6432   20.3807 N   0  0  0  0  0  0
  -26.2876  -12.9409   20.3245 N   0  0  0  0  0  0
  -25.9302  -11.6546   20.5735 N   0  0  0  0  0  0
  -22.0439  -12.8198   22.0441 N   0  0  0  0  0  0
  -25.4139  -15.1928   20.4153 N   0  0  0  0  0  0
  -31.7573  -14.9771   20.2013 O   0  0  0  0  0  0
  -21.6638   -6.8867   21.4236 O   0  0  0  0  0  0
  -22.3478  -14.5514   20.6728 O   0  0  0  0  0  0
  -24.6416  -31.8463   23.1908 C   0  0  0  0  0  0
  -25.9190  -32.4713   23.8286 C   0  0  1  0  0  0
  -27.2207  -27.1690   20.1350 C   0  0  0  0  0  0
  -25.5941  -33.8514   24.2206 N   0  0  0  0  0  0
  -23.4439  -30.4687   21.5357 C   0  0  2  0  0  0
  -24.8912  -28.9032   20.1121 C   0  0  0  0  0  0
  -22.7556  -29.4562   22.4859 C   0  0  0  0  0  0
  -18.0301  -28.1411   22.8482 C   0  0  0  0  0  0
  -24.1475  -36.7258   23.2643 C   0  0  0  0  0  0
  -25.9983  -30.7320   21.3831 C   0  0  0  0  0  0
  -26.0715  -29.3471   20.7226 C   0  0  0  0  0  0
  -27.2370  -28.4955   20.7199 C   0  0  0  0  0  0
  -25.9961  -26.8057   19.5276 C   0  0  0  0  0  0
  -24.8631  -27.6422   19.5029 C   0  0  0  0  0  0
  -23.6681  -29.8030   20.1538 C   0  0  0  0  0  0
  -25.4111  -36.3036   24.0315 C   0  0  1  0  0  0
  -20.5914  -28.3719   23.1242 C   0  0  2  0  0  0
  -20.6780  -26.9420   22.5411 C   0  0  0  0  0  0
  -19.5749  -26.6392   21.5218 C   0  0  0  0  0  0
  -18.1932  -26.7951   22.1628 C   0  0  0  0  0  0
  -19.1559  -28.8883   23.2860 C   0  0  0  0  0  0
  -18.9477  -30.1481   23.8881 C   0  0  0  0  0  0
  -17.6477  -30.6604   24.0568 C   0  0  0  0  0  0
  -25.9063  -34.9409   23.5066 C   0  0  0  0  0  0
  -16.5367  -29.9102   23.6348 C   0  0  0  0  0  0
  -16.7284  -28.6523   23.0362 C   0  0  0  0  0  0
  -26.4520  -31.6577   25.0716 C   0  0  0  0  0  0
  -25.3726  -31.3770   26.1433 C   0  0  0  0  0  0
  -27.0379  -30.2972   24.6286 C   0  0  0  0  0  0
  -27.6040  -32.4348   25.7519 C   0  0  0  0  0  0
  -27.5567  -37.1782   24.8469 C   0  0  0  0  0  0
  -21.4247  -29.3056   22.3615 N   0  0  0  0  0  0
  -26.4276  -37.3751   23.9413 N   0  0  0  0  0  0
  -24.7145  -31.0356   22.0917 N   0  0  0  0  0  0
  -23.4206  -28.8099   23.2990 O   0  0  0  0  0  0
  -28.2701  -26.1794   20.2048 O   0  0  0  0  0  0
  -26.5655  -34.8903   22.4644 O   0  0  0  0  0  0
  -23.5540  -32.1313   23.7152 O   0  0  0  0  0  0
  -30.7493  -19.9059   21.1489 C   0  0  0  0  0  0
  -29.5453  -19.9549   20.4836 C   0  0  0  0  0  0
  -29.9763  -17.5362   20.5967 C   0  0  0  0  0  0
  -28.6322  -23.6671   19.3342 C   0  0  0  0  0  0
  -28.3888  -25.0789   19.2670 C   0  0  0  0  0  0
  -29.0000  -22.6291   20.4087 C   0  0  0  0  0  0
  -28.2922  -25.6825   17.8560 C   0  0  0  0  0  0
  -29.1279  -18.5726   20.1988 N   0  0  0  0  0  0
  -28.9071  -21.2592   20.0330 N   0  0  0  0  0  0
  -29.7225  -16.0458   20.4947 N   0  0  0  0  0  0
  -29.3909  -22.9439   21.5342 O   0  0  0  0  0  0
  -28.6082  -23.0663   18.1302 O   0  0  0  0  0  0
  -31.3883  -18.2598   21.3768 S   0  0  0  0  0  0
  -31.4766  -12.7202   19.1807 H   0  0  0  0  0  0
  -30.4327  -11.5992   20.0112 H   0  0  0  0  0  0
  -29.8308  -11.7307   17.5680 H   0  0  0  0  0  0
  -29.6097  -13.4588   17.6988 H   0  0  0  0  0  0
  -27.9454  -11.2678   18.9746 H   0  0  0  0  0  0
  -27.3857  -12.4462   17.8169 H   0  0  0  0  0  0
  -27.6007  -14.2431   19.4187 H   0  0  0  0  0  0
  -28.7498  -12.2576   21.4430 H   0  0  0  0  0  0
  -28.3811  -13.9352   21.7664 H   0  0  0  0  0  0
  -25.2749   -9.5685   22.4759 H   0  0  0  0  0  0
  -24.0002   -7.4624   22.7466 H   0  0  0  0  0  0
  -21.0838   -8.8752   19.8942 H   0  0  0  0  0  0
  -22.3680  -10.9660   19.6162 H   0  0  0  0  0  0
  -21.2003   -7.6141   23.9710 H   0  0  0  0  0  0
  -21.1491   -6.0522   25.9076 H   0  0  0  0  0  0
  -22.0594   -2.7602   23.2852 H   0  0  0  0  0  0
  -22.4069  -11.9871   22.4847 H   0  0  0  0  0  0
  -21.1043  -13.1199   22.2629 H   0  0  0  0  0  0
  -24.6436  -15.8423   20.5295 H   0  0  0  0  0  0
  -26.2534  -15.6385   20.0705 H   0  0  0  0  0  0
  -26.7261  -32.5322   23.1021 H   0  0  0  0  0  0
  -25.0040  -33.9632   25.0321 H   0  0  0  0  0  0
  -22.7464  -31.2957   21.3855 H   0  0  0  0  0  0
  -23.3739  -35.9590   23.3310 H   0  0  0  0  0  0
  -24.3567  -36.8891   22.2062 H   0  0  0  0  0  0
  -23.7231  -37.6450   23.6685 H   0  0  0  0  0  0
  -26.1498  -31.4890   20.6126 H   0  0  0  0  0  0
  -26.8696  -30.7797   22.0246 H   0  0  0  0  0  0
  -28.1363  -28.8315   21.2163 H   0  0  0  0  0  0
  -25.8826  -25.8221   19.0968 H   0  0  0  0  0  0
  -23.9529  -27.2869   19.0393 H   0  0  0  0  0  0
  -23.8082  -30.5799   19.4013 H   0  0  0  0  0  0
  -22.7824  -29.2474   19.8407 H   0  0  0  0  0  0
  -25.1301  -36.1857   25.0810 H   0  0  0  0  0  0
  -21.0014  -28.3303   24.1359 H   0  0  0  0  0  0
  -20.5651  -26.2333   23.3628 H   0  0  0  0  0  0
  -21.6646  -26.7414   22.1215 H   0  0  0  0  0  0
  -19.6901  -25.6298   21.1254 H   0  0  0  0  0  0
  -19.6688  -27.3201   20.6742 H   0  0  0  0  0  0
  -17.4196  -26.6692   21.4034 H   0  0  0  0  0  0
  -18.0328  -26.0101   22.9032 H   0  0  0  0  0  0
  -19.7955  -30.7303   24.2237 H   0  0  0  0  0  0
  -17.5032  -31.6278   24.5183 H   0  0  0  0  0  0
  -15.5367  -30.2999   23.7689 H   0  0  0  0  0  0
  -15.8684  -28.0844   22.7085 H   0  0  0  0  0  0
  -24.5894  -30.7130   25.7778 H   0  0  0  0  0  0
  -24.8931  -32.2950   26.4828 H   0  0  0  0  0  0
  -25.8020  -30.8973   27.0236 H   0  0  0  0  0  0
  -26.2989  -29.6711   24.1273 H   0  0  0  0  0  0
  -27.3975  -29.7263   25.4858 H   0  0  0  0  0  0
  -27.8904  -30.4213   23.9607 H   0  0  0  0  0  0
  -27.2615  -33.3670   26.2033 H   0  0  0  0  0  0
  -28.3892  -32.6881   25.0386 H   0  0  0  0  0  0
  -28.0658  -31.8518   26.5500 H   0  0  0  0  0  0
  -28.2584  -38.0077   24.7509 H   0  0  0  0  0  0
  -28.1053  -36.2604   24.6295 H   0  0  0  0  0  0
  -27.2286  -37.1445   25.8872 H   0  0  0  0  0  0
  -20.9445  -29.8790   21.6824 H   0  0  0  0  0  0
  -26.0136  -38.2812   24.1436 H   0  0  0  0  0  0
  -31.3393  -20.7462   21.4897 H   0  0  0  0  0  0
  -29.1558  -25.3874   17.2572 H   0  0  0  0  0  0
  -28.2925  -26.7718   17.8488 H   0  0  0  0  0  0
  -27.3928  -25.3395   17.3448 H   0  0  0  0  0  0
  -28.2826  -21.1344   19.2492 H   0  0  0  0  0  0
  -28.7435  -15.8158   20.4817 H   0  0  0  0  0  0
  -29.0956  -22.2570   18.2174 H   0  0  0  0  0  0
  1 25  1  0  0  0
  1 30  2  0  0  0
  1 80  1  0  0  0
  2  3  1  0  0  0
  2 25  1  0  0  0
  2 84  1  0  0  0
  2 85  1  0  0  0
  3  4  1  0  0  0
  3 86  1  0  0  0
  3 87  1  0  0  0
  4  5  1  0  0  0
  4 88  1  0  0  0
  4 89  1  0  0  0
  5  6  1  0  0  0
  5 26  1  0  0  0
  5 90  1  0  0  0
  6 25  1  0  0  0
  6 91  1  0  0  0
  6 92  1  0  0  0
  7  8  2  0  0  0
  7 26  1  0  0  0
  7 29  1  0  0  0
  8  9  1  0  0  0
  8 22  1  0  0  0
  9 10  1  0  0  0
  9 27  2  0  0  0
 10 11  2  0  0  0
 10 15  1  0  0  0
 11 12  1  0  0  0
 11 93  1  0  0  0
 12 13  2  0  0  0
 12 94  1  0  0  0
 13 14  1  0  0  0
 13 31  1  0  0  0
 14 15  2  0  0  0
 14 95  1  0  0  0
 15 96  1  0  0  0
 16 17  2  0  0  0
 16 21  1  0  0  0
 16 31  1  0  0  0
 17 18  1  0  0  0
 17 97  1  0  0  0
 18 19  2  0  0  0
 18 98  1  0  0  0
 19 20  1  0  0  0
 19 24  1  0  0  0
 20 21  2  0  0  0
 20 99  1  0  0  0
 21 23  1  0  0  0
 22 28  1  0  0  0
 22 32  2  0  0  0
 26 27  1  0  0  0
 28100  1  0  0  0
 28101  1  0  0  0
 29102  1  0  0  0
 29103  1  0  0  0
 33 34  1  0  0  0
 33 66  1  0  0  0
 33 70  2  0  0  0
 34 36  1  0  0  0
 34 59  1  0  0  0
 34104  1  0  0  0
 35 44  2  0  0  0
 35 45  1  0  0  0
 35 68  1  0  0  0
 36 56  1  0  0  0
 36105  1  0  0  0
 37 39  1  0  0  0
 37 47  1  0  0  0
 37 66  1  0  0  0
 37106  1  0  0  0
 38 43  2  0  0  0
 38 46  1  0  0  0
 38 47  1  0  0  0
 39 64  1  0  0  0
 39 67  2  0  0  0
 40 52  1  0  0  0
 40 53  2  0  0  0
 40 58  1  0  0  0
 41107  1  0  0  0
 41108  1  0  0  0
 41109  1  0  0  0
 41 48  1  0  0  0
 42 43  1  0  0  0
 42 66  1  0  0  0
 42110  1  0  0  0
 42111  1  0  0  0
 43 44  1  0  0  0
 44112  1  0  0  0
 45 46  2  0  0  0
 45113  1  0  0  0
 46114  1  0  0  0
 47115  1  0  0  0
 47116  1  0  0  0
 48 56  1  0  0  0
 48 65  1  0  0  0
 48117  1  0  0  0
 49 50  1  0  0  0
 49 53  1  0  0  0
 49 64  1  0  0  0
 49118  1  0  0  0
 50 51  1  0  0  0
 50119  1  0  0  0
 50120  1  0  0  0
 51 52  1  0  0  0
 51121  1  0  0  0
 51122  1  0  0  0
 52123  1  0  0  0
 52124  1  0  0  0
 53 54  1  0  0  0
 54 55  2  0  0  0
 54125  1  0  0  0
 55 57  1  0  0  0
 55126  1  0  0  0
 56 69  2  0  0  0
 57 58  2  0  0  0
 57127  1  0  0  0
 58128  1  0  0  0
 59 60  1  0  0  0
 59 61  1  0  0  0
 59 62  1  0  0  0
 60129  1  0  0  0
 60130  1  0  0  0
 60131  1  0  0  0
 61132  1  0  0  0
 61133  1  0  0  0
 61134  1  0  0  0
 62135  1  0  0  0
 62136  1  0  0  0
 62137  1  0  0  0
 63 65  1  0  0  0
 63138  1  0  0  0
 63139  1  0  0  0
 63140  1  0  0  0
 64141  1  0  0  0
 65142  1  0  0  0
 68 75  1  0  0  0
 71 72  2  0  0  0
 71 83  1  0  0  0
 71143  1  0  0  0
 72 78  1  0  0  0
 72 79  1  0  0  0
 73 78  2  0  0  0
 73 80  1  0  0  0
 73 83  1  0  0  0
 74 75  2  0  0  0
 74 76  1  0  0  0
 74 82  1  0  0  0
 75 77  1  0  0  0
 76 79  1  0  0  0
 76 81  2  0  0  0
 77144  1  0  0  0
 77145  1  0  0  0
 77146  1  0  0  0
 79147  1  0  0  0
 80148  1  0  0  0
 82149  1  0  0  0
M  ISO  4   1 100  68 101  75 101  80 100
M  END
> <chiral flag>
0

> <version>
0

> <s_m_source_file>
/data/baiqing/PycharmProjects/Reinvent-master-3.2/result/LINK_invent/BTK/process_docking_weight1_custom_product_contain_oxygen_bond_distance_aromatic_linkinvent_7_9_3/rearranged_h_0182.sdf

> <i_m_source_file_index>
53

> <r_mmod_Potential_Energy-OPLS-2005>
323.873474121094

> <r_mmod_Stretch_Energy-OPLS-2005>
198.14111328125

> <r_mmod_Bend_Energy-OPLS-2005>
264.822021484375

> <r_mmod_Torsional_Energy-OPLS-2005>
244.390975952148

> <r_mmod_Improper_Torsional_Energy-OPLS-2005>
8.25030899047852

> <r_mmod_Van_der_Waal_Energy-OPLS-2005>
135.651596069336

> <r_mmod_Electrostatic_Energy-OPLS-2005>
-449.021270751953

> <r_mmod_Solvation_Energy-OPLS-2005>
-244.566024780273

> <b_mmod_Minimization_Converged-OPLS-2005>
0

> <r_mmod_RMS_Derivative-OPLS-2005>
1.51005375385284

$$$$
53
                    3D
 Structure written by MMmdl.
154162  0  0  1  0            999 V2000
  -30.7117  -14.4394   20.6063 C   0  0  0  0  0  0
  -30.4231  -12.2967   19.4130 C   0  0  0  0  0  0
  -29.4925  -12.5131   18.2018 C   0  0  0  0  0  0
  -28.0137  -12.3730   18.6138 C   0  0  0  0  0  0
  -27.6645  -13.2022   19.8785 C   0  0  2  0  0  0
  -28.7043  -12.9566   20.9952 C   0  0  0  0  0  0
  -25.2603  -13.8152   20.5678 C   0  0  0  0  0  0
  -24.1845  -13.0437   20.9170 C   0  0  0  0  0  0
  -24.6389  -11.6902   20.8727 C   0  0  0  0  0  0
  -23.9055  -10.4290   21.0402 C   0  0  0  0  0  0
  -24.3612   -9.4208   21.9180 C   0  0  0  0  0  0
  -23.6290   -8.2243   22.0753 C   0  0  0  0  0  0
  -22.4270   -8.0279   21.3546 C   0  0  0  0  0  0
  -21.9904   -9.0250   20.4647 C   0  0  0  0  0  0
  -22.7229  -10.2131   20.3053 C   0  0  0  0  0  0
  -21.6852   -6.0736   22.5278 C   0  0  0  0  0  0
  -21.4011   -6.5639   23.8212 C   0  0  0  0  0  0
  -21.3660   -5.6791   24.9173 C   0  0  0  0  0  0
  -21.6045   -4.3055   24.7224 C   0  0  0  0  0  0
  -21.8819   -3.8147   23.4345 C   0  0  0  0  0  0
  -21.9193   -4.6964   22.3401 C   0  0  0  0  0  0
  -22.7870  -13.5245   21.1837 C   0  0  0  0  0  0
  -22.1663   -4.2151   21.0979 F   0  0  0  0  0  0
  -21.5631   -3.4538   25.7735 F   0  0  0  0  0  0
  -30.0403  -13.2651   20.4522 N   0  0  0  0  0  0
  -26.3035  -12.9313   20.3370 N   0  0  0  0  0  0
  -25.9315  -11.6477   20.5758 N   0  0  0  0  0  0
  -22.0506  -12.8241   22.0396 N   0  0  0  0  0  0
  -25.4346  -15.1869   20.4099 N   0  0  0  0  0  0
  -31.8155  -14.6396   20.0878 O   0  0  0  0  0  0
  -21.6638   -6.8876   21.4241 O   0  0  0  0  0  0
  -22.3562  -14.5554   20.6689 O   0  0  0  0  0  0
  -24.6125  -31.8690   23.2112 C   0  0  0  0  0  0
  -25.9028  -32.4827   23.8402 C   0  0  1  0  0  0
  -27.2389  -27.4564   20.0962 C   0  0  0  0  0  0
  -25.5898  -33.8627   24.2339 N   0  0  0  0  0  0
  -23.4004  -30.4908   21.5505 C   0  0  2  0  0  0
  -24.8498  -28.9552   20.1180 C   0  0  0  0  0  0
  -22.7396  -29.4663   22.5002 C   0  0  0  0  0  0
  -18.0267  -28.1373   22.8494 C   0  0  0  0  0  0
  -24.1486  -36.7316   23.2638 C   0  0  0  0  0  0
  -25.9263  -30.8403   21.3617 C   0  0  0  0  0  0
  -26.0071  -29.4741   20.7137 C   0  0  0  0  0  0
  -27.2074  -28.7304   20.7031 C   0  0  0  0  0  0
  -26.0711  -26.9427   19.4985 C   0  0  0  0  0  0
  -24.8749  -27.6867   19.5091 C   0  0  0  0  0  0
  -23.6093  -29.8190   20.1663 C   0  0  0  0  0  0
  -25.4105  -36.3117   24.0344 C   0  0  1  0  0  0
  -20.5856  -28.3657   23.1327 C   0  0  2  0  0  0
  -20.6757  -26.9396   22.5421 C   0  0  0  0  0  0
  -19.5739  -26.6383   21.5212 C   0  0  0  0  0  0
  -18.1915  -26.7923   22.1618 C   0  0  0  0  0  0
  -19.1516  -28.8831   23.2908 C   0  0  0  0  0  0
  -18.9447  -30.1439   23.8915 C   0  0  0  0  0  0
  -17.6448  -30.6582   24.0564 C   0  0  0  0  0  0
  -25.9031  -34.9481   23.5137 C   0  0  0  0  0  0
  -16.5339  -29.9082   23.6328 C   0  0  0  0  0  0
  -16.7255  -28.6501   23.0348 C   0  0  0  0  0  0
  -26.4469  -31.6595   25.0718 C   0  0  0  0  0  0
  -25.3749  -31.3688   26.1475 C   0  0  0  0  0  0
  -27.0291  -30.3039   24.6073 C   0  0  0  0  0  0
  -27.6059  -32.4304   25.7472 C   0  0  0  0  0  0
  -27.5584  -37.1809   24.8463 C   0  0  0  0  0  0
  -21.4127  -29.3029   22.3738 N   0  0  0  0  0  0
  -26.4292  -37.3800   23.9413 N   0  0  0  0  0  0
  -24.6643  -31.0804   22.1002 N   0  0  0  0  0  0
  -23.4178  -28.8208   23.3040 O   0  0  0  0  0  0
  -28.3927  -26.7154   20.0641 O   0  0  0  0  0  0
  -26.5585  -34.8929   22.4692 O   0  0  0  0  0  0
  -23.5323  -32.1433   23.7519 O   0  0  0  0  0  0
  -31.3750  -18.7724   21.2602 C   0  0  0  0  0  0
  -30.2520  -19.1815   21.9473 C   0  0  0  0  0  0
  -30.2832  -16.7743   21.4231 C   0  0  0  0  0  0
  -28.7874  -24.3573   20.6542 C   0  0  0  0  0  0
  -32.5558  -19.5993   20.8474 C   0  0  0  0  0  0
  -29.1116  -23.3133   21.7294 C   0  0  0  0  0  0
  -28.5045  -25.7872   21.1499 C   0  0  0  0  0  0
  -29.3978  -21.8867   21.2014 C   0  0  0  0  0  0
  -31.3786  -17.3984   20.9714 N   0  0  0  0  0  0
  -30.0382  -15.3787   21.2959 N   0  0  0  0  0  0
  -28.7549  -24.0569   19.4552 O   0  0  0  0  0  0
  -28.7250  -20.6750   23.4924 O   0  0  0  0  0  0
  -31.1449  -21.3423   23.1594 O   0  0  0  0  0  0
  -29.1395  -17.8572   22.2071 S   0  0  0  0  0  0
  -29.8894  -20.8115   22.5996 S   0  0  0  0  0  0
  -31.4676  -12.3951   19.1108 H   0  0  0  0  0  0
  -30.3228  -11.2800   19.7955 H   0  0  0  0  0  0
  -29.7293  -11.7982   17.4126 H   0  0  0  0  0  0
  -29.6631  -13.5041   17.7777 H   0  0  0  0  0  0
  -27.8196  -11.3159   18.7985 H   0  0  0  0  0  0
  -27.3637  -12.6592   17.7860 H   0  0  0  0  0  0
  -27.7161  -14.2537   19.5956 H   0  0  0  0  0  0
  -28.6767  -11.9125   21.3106 H   0  0  0  0  0  0
  -28.4582  -13.5285   21.8907 H   0  0  0  0  0  0
  -25.2761   -9.5689   22.4747 H   0  0  0  0  0  0
  -24.0003   -7.4638   22.7471 H   0  0  0  0  0  0
  -21.0835   -8.8765   19.8954 H   0  0  0  0  0  0
  -22.3686  -10.9668   19.6160 H   0  0  0  0  0  0
  -21.1997   -7.6148   23.9716 H   0  0  0  0  0  0
  -21.1484   -6.0521   25.9076 H   0  0  0  0  0  0
  -22.0598   -2.7609   23.2840 H   0  0  0  0  0  0
  -22.4110  -11.9898   22.4786 H   0  0  0  0  0  0
  -21.1127  -13.1279   22.2596 H   0  0  0  0  0  0
  -24.6686  -15.8433   20.5157 H   0  0  0  0  0  0
  -26.2866  -15.6247   20.0826 H   0  0  0  0  0  0
  -26.7105  -32.5550   23.1176 H   0  0  0  0  0  0
  -25.0068  -33.9794   25.0497 H   0  0  0  0  0  0
  -22.6885  -31.3069   21.4103 H   0  0  0  0  0  0
  -23.3749  -35.9649   23.3306 H   0  0  0  0  0  0
  -24.3587  -36.8920   22.2053 H   0  0  0  0  0  0
  -23.7237  -37.6525   23.6643 H   0  0  0  0  0  0
  -26.0341  -31.6050   20.5913 H   0  0  0  0  0  0
  -26.8160  -30.8980   21.9769 H   0  0  0  0  0  0
  -28.1041  -29.1288   21.1573 H   0  0  0  0  0  0
  -26.0911  -25.9707   19.0253 H   0  0  0  0  0  0
  -23.9859  -27.2816   19.0458 H   0  0  0  0  0  0
  -23.7145  -30.5920   19.4040 H   0  0  0  0  0  0
  -22.7347  -29.2353   19.8729 H   0  0  0  0  0  0
  -25.1282  -36.1987   25.0837 H   0  0  0  0  0  0
  -20.9945  -28.3216   24.1448 H   0  0  0  0  0  0
  -20.5654  -26.2262   23.3604 H   0  0  0  0  0  0
  -21.6630  -26.7441   22.1215 H   0  0  0  0  0  0
  -19.6898  -25.6298   21.1232 H   0  0  0  0  0  0
  -19.6684  -27.3203   20.6752 H   0  0  0  0  0  0
  -17.4190  -26.6684   21.4012 H   0  0  0  0  0  0
  -18.0305  -26.0056   22.9002 H   0  0  0  0  0  0
  -19.7922  -30.7251   24.2290 H   0  0  0  0  0  0
  -17.5004  -31.6265   24.5156 H   0  0  0  0  0  0
  -15.5342  -30.2990   23.7644 H   0  0  0  0  0  0
  -15.8654  -28.0826   22.7053 H   0  0  0  0  0  0
  -24.5928  -30.7027   25.7816 H   0  0  0  0  0  0
  -24.8933  -32.2835   26.4941 H   0  0  0  0  0  0
  -25.8118  -30.8851   27.0221 H   0  0  0  0  0  0
  -26.2819  -29.6798   24.1155 H   0  0  0  0  0  0
  -27.4098  -29.7276   25.4516 H   0  0  0  0  0  0
  -27.8641  -30.4359   23.9188 H   0  0  0  0  0  0
  -27.2692  -33.3593   26.2084 H   0  0  0  0  0  0
  -28.3850  -32.6875   25.0283 H   0  0  0  0  0  0
  -28.0747  -31.8401   26.5355 H   0  0  0  0  0  0
  -28.2605  -38.0106   24.7525 H   0  0  0  0  0  0
  -28.1082  -36.2642   24.6270 H   0  0  0  0  0  0
  -27.2310  -37.1433   25.8868 H   0  0  0  0  0  0
  -20.9281  -29.8748   21.6962 H   0  0  0  0  0  0
  -26.0186  -38.2880   24.1421 H   0  0  0  0  0  0
  -32.2517  -20.5709   20.4598 H   0  0  0  0  0  0
  -33.1377  -19.1102   20.0655 H   0  0  0  0  0  0
  -33.2241  -19.7760   21.6905 H   0  0  0  0  0  0
  -28.2839  -23.2851   22.4386 H   0  0  0  0  0  0
  -29.9773  -23.6745   22.2855 H   0  0  0  0  0  0
  -29.3200  -26.1036   21.8005 H   0  0  0  0  0  0
  -27.5984  -25.7705   21.7580 H   0  0  0  0  0  0
  -30.2052  -21.8856   20.4728 H   0  0  0  0  0  0
  -28.5209  -21.4468   20.7301 H   0  0  0  0  0  0
  -29.1670  -15.0602   21.6890 H   0  0  0  0  0  0
  1 25  1  0  0  0
  1 30  2  0  0  0
  1 80  1  0  0  0
  2  3  1  0  0  0
  2 25  1  0  0  0
  2 86  1  0  0  0
  2 87  1  0  0  0
  3  4  1  0  0  0
  3 88  1  0  0  0
  3 89  1  0  0  0
  4  5  1  0  0  0
  4 90  1  0  0  0
  4 91  1  0  0  0
  5  6  1  0  0  0
  5 26  1  0  0  0
  5 92  1  0  0  0
  6 25  1  0  0  0
  6 93  1  0  0  0
  6 94  1  0  0  0
  7  8  2  0  0  0
  7 26  1  0  0  0
  7 29  1  0  0  0
  8  9  1  0  0  0
  8 22  1  0  0  0
  9 10  1  0  0  0
  9 27  2  0  0  0
 10 11  2  0  0  0
 10 15  1  0  0  0
 11 12  1  0  0  0
 11 95  1  0  0  0
 12 13  2  0  0  0
 12 96  1  0  0  0
 13 14  1  0  0  0
 13 31  1  0  0  0
 14 15  2  0  0  0
 14 97  1  0  0  0
 15 98  1  0  0  0
 16 17  2  0  0  0
 16 21  1  0  0  0
 16 31  1  0  0  0
 17 18  1  0  0  0
 17 99  1  0  0  0
 18 19  2  0  0  0
 18100  1  0  0  0
 19 20  1  0  0  0
 19 24  1  0  0  0
 20 21  2  0  0  0
 20101  1  0  0  0
 21 23  1  0  0  0
 22 28  1  0  0  0
 22 32  2  0  0  0
 26 27  1  0  0  0
 28102  1  0  0  0
 28103  1  0  0  0
 29104  1  0  0  0
 29105  1  0  0  0
 33 34  1  0  0  0
 33 66  1  0  0  0
 33 70  2  0  0  0
 34 36  1  0  0  0
 34 59  1  0  0  0
 34106  1  0  0  0
 35 44  2  0  0  0
 35 45  1  0  0  0
 35 68  1  0  0  0
 36 56  1  0  0  0
 36107  1  0  0  0
 37 39  1  0  0  0
 37 47  1  0  0  0
 37 66  1  0  0  0
 37108  1  0  0  0
 38 43  2  0  0  0
 38 46  1  0  0  0
 38 47  1  0  0  0
 39 64  1  0  0  0
 39 67  2  0  0  0
 40 52  1  0  0  0
 40 53  2  0  0  0
 40 58  1  0  0  0
 41109  1  0  0  0
 41110  1  0  0  0
 41111  1  0  0  0
 41 48  1  0  0  0
 42 43  1  0  0  0
 42 66  1  0  0  0
 42112  1  0  0  0
 42113  1  0  0  0
 43 44  1  0  0  0
 44114  1  0  0  0
 45 46  2  0  0  0
 45115  1  0  0  0
 46116  1  0  0  0
 47117  1  0  0  0
 47118  1  0  0  0
 48 56  1  0  0  0
 48 65  1  0  0  0
 48119  1  0  0  0
 49 50  1  0  0  0
 49 53  1  0  0  0
 49 64  1  0  0  0
 49120  1  0  0  0
 50 51  1  0  0  0
 50121  1  0  0  0
 50122  1  0  0  0
 51 52  1  0  0  0
 51123  1  0  0  0
 51124  1  0  0  0
 52125  1  0  0  0
 52126  1  0  0  0
 53 54  1  0  0  0
 54 55  2  0  0  0
 54127  1  0  0  0
 55 57  1  0  0  0
 55128  1  0  0  0
 56 69  2  0  0  0
 57 58  2  0  0  0
 57129  1  0  0  0
 58130  1  0  0  0
 59 60  1  0  0  0
 59 61  1  0  0  0
 59 62  1  0  0  0
 60131  1  0  0  0
 60132  1  0  0  0
 60133  1  0  0  0
 61134  1  0  0  0
 61135  1  0  0  0
 61136  1  0  0  0
 62137  1  0  0  0
 62138  1  0  0  0
 62139  1  0  0  0
 63 65  1  0  0  0
 63140  1  0  0  0
 63141  1  0  0  0
 63142  1  0  0  0
 64143  1  0  0  0
 65144  1  0  0  0
 68 77  1  0  0  0
 71 72  2  0  0  0
 71 75  1  0  0  0
 71 79  1  0  0  0
 72 84  1  0  0  0
 72 85  1  0  0  0
 73 79  2  0  0  0
 73 80  1  0  0  0
 73 84  1  0  0  0
 74 76  1  0  0  0
 74 77  1  0  0  0
 74 81  2  0  0  0
 75145  1  0  0  0
 75146  1  0  0  0
 75147  1  0  0  0
 76 78  1  0  0  0
 76148  1  0  0  0
 76149  1  0  0  0
 77150  1  0  0  0
 77151  1  0  0  0
 78152  1  0  0  0
 78153  1  0  0  0
 78 85  1  0  0  0
 80154  1  0  0  0
 82 85  2  0  0  0
 83 85  2  0  0  0
M  ISO  4   1 100  68 101  77 101  80 100
M  END
> <chiral flag>
0

> <version>
0

> <s_m_source_file>
/data/baiqing/PycharmProjects/Reinvent-master-3.2/result/LINK_invent/BTK/process_docking_weight1_custom_product_contain_oxygen_bond_distance_aromatic_linkinvent_7_9_3/rearranged_h_0182.sdf

> <i_m_source_file_index>
54

> <r_mmod_Potential_Energy-OPLS-2005>
-345.883148193359

> <r_mmod_Stretch_Energy-OPLS-2005>
32.6524047851562

> <r_mmod_Bend_Energy-OPLS-2005>
94.6738204956055

> <r_mmod_Torsional_Energy-OPLS-2005>
219.356033325195

> <r_mmod_Improper_Torsional_Energy-OPLS-2005>
2.59858012199402

> <r_mmod_Van_der_Waal_Energy-OPLS-2005>
119.759605407715

> <r_mmod_Electrostatic_Energy-OPLS-2005>
-543.893005371094

> <r_mmod_Solvation_Energy-OPLS-2005>
-279.728332519531

> <b_mmod_Minimization_Converged-OPLS-2005>
0

> <r_mmod_RMS_Derivative-OPLS-2005>
0.57308441400528

$$$$
54
                    3D
 Structure written by MMmdl.
154162  0  0  1  0            999 V2000
  -30.7085  -14.4708   20.5191 C   0  0  0  0  0  0
  -30.4161  -12.2879   19.4431 C   0  0  0  0  0  0
  -29.5027  -12.4911   18.2165 C   0  0  0  0  0  0
  -28.0207  -12.3626   18.6205 C   0  0  0  0  0  0
  -27.6600  -13.2123   19.8697 C   0  0  2  0  0  0
  -28.6992  -13.0213   20.9998 C   0  0  0  0  0  0
  -25.2584  -13.8181   20.5668 C   0  0  0  0  0  0
  -24.1844  -13.0458   20.9177 C   0  0  0  0  0  0
  -24.6400  -11.6925   20.8744 C   0  0  0  0  0  0
  -23.9080  -10.4301   21.0431 C   0  0  0  0  0  0
  -24.3625   -9.4210   21.9197 C   0  0  0  0  0  0
  -23.6285   -8.2254   22.0770 C   0  0  0  0  0  0
  -22.4272   -8.0295   21.3555 C   0  0  0  0  0  0
  -21.9914   -9.0283   20.4662 C   0  0  0  0  0  0
  -22.7261  -10.2146   20.3071 C   0  0  0  0  0  0
  -21.6847   -6.0740   22.5281 C   0  0  0  0  0  0
  -21.4017   -6.5645   23.8208 C   0  0  0  0  0  0
  -21.3662   -5.6798   24.9171 C   0  0  0  0  0  0
  -21.6043   -4.3062   24.7224 C   0  0  0  0  0  0
  -21.8822   -3.8149   23.4343 C   0  0  0  0  0  0
  -21.9187   -4.6965   22.3398 C   0  0  0  0  0  0
  -22.7861  -13.5262   21.1832 C   0  0  0  0  0  0
  -22.1658   -4.2159   21.0971 F   0  0  0  0  0  0
  -21.5631   -3.4538   25.7733 F   0  0  0  0  0  0
  -30.0343  -13.2937   20.4462 N   0  0  0  0  0  0
  -26.3012  -12.9355   20.3318 N   0  0  0  0  0  0
  -25.9318  -11.6515   20.5739 N   0  0  0  0  0  0
  -22.0488  -12.8264   22.0387 N   0  0  0  0  0  0
  -25.4302  -15.1903   20.4095 N   0  0  0  0  0  0
  -31.8721  -14.5932   20.1250 O   0  0  0  0  0  0
  -21.6633   -6.8894   21.4251 O   0  0  0  0  0  0
  -22.3561  -14.5571   20.6678 O   0  0  0  0  0  0
  -24.6191  -31.8701   23.2108 C   0  0  0  0  0  0
  -25.9076  -32.4816   23.8412 C   0  0  1  0  0  0
  -27.2198  -27.4086   20.0866 C   0  0  0  0  0  0
  -25.5939  -33.8619   24.2351 N   0  0  0  0  0  0
  -23.4064  -30.4972   21.5526 C   0  0  2  0  0  0
  -24.8494  -28.9727   20.1086 C   0  0  0  0  0  0
  -22.7427  -29.4681   22.4978 C   0  0  0  0  0  0
  -18.0273  -28.1379   22.8509 C   0  0  0  0  0  0
  -24.1479  -36.7291   23.2638 C   0  0  0  0  0  0
  -25.9421  -30.8237   21.3724 C   0  0  0  0  0  0
  -26.0153  -29.4619   20.7091 C   0  0  0  0  0  0
  -27.2051  -28.6888   20.6942 C   0  0  0  0  0  0
  -26.0320  -26.9609   19.4560 C   0  0  0  0  0  0
  -24.8545  -27.7228   19.4767 C   0  0  0  0  0  0
  -23.6136  -29.8410   20.1641 C   0  0  0  0  0  0
  -25.4097  -36.3088   24.0341 C   0  0  1  0  0  0
  -20.5868  -28.3680   23.1302 C   0  0  2  0  0  0
  -20.6747  -26.9411   22.5406 C   0  0  0  0  0  0
  -19.5717  -26.6392   21.5203 C   0  0  0  0  0  0
  -18.1910  -26.7935   22.1637 C   0  0  0  0  0  0
  -19.1522  -28.8844   23.2909 C   0  0  0  0  0  0
  -18.9457  -30.1449   23.8921 C   0  0  0  0  0  0
  -17.6454  -30.6591   24.0564 C   0  0  0  0  0  0
  -25.9039  -34.9457   23.5128 C   0  0  0  0  0  0
  -16.5345  -29.9093   23.6321 C   0  0  0  0  0  0
  -16.7262  -28.6500   23.0368 C   0  0  0  0  0  0
  -26.4491  -31.6594   25.0750 C   0  0  0  0  0  0
  -25.3765  -31.3705   26.1506 C   0  0  0  0  0  0
  -27.0321  -30.3014   24.6157 C   0  0  0  0  0  0
  -27.6067  -32.4328   25.7519 C   0  0  0  0  0  0
  -27.5561  -37.1797   24.8477 C   0  0  0  0  0  0
  -21.4157  -29.3048   22.3707 N   0  0  0  0  0  0
  -26.4276  -37.3770   23.9420 N   0  0  0  0  0  0
  -24.6739  -31.0776   22.1018 N   0  0  0  0  0  0
  -23.4197  -28.8202   23.3011 O   0  0  0  0  0  0
  -28.3539  -26.6075   20.1396 O   0  0  0  0  0  0
  -26.5597  -34.8908   22.4685 O   0  0  0  0  0  0
  -23.5375  -32.1488   23.7474 O   0  0  0  0  0  0
  -30.7785  -17.1689   19.1837 C   0  0  0  0  0  0
  -30.7031  -18.5549   18.8692 C   0  0  0  0  0  0
  -30.1317  -16.8067   20.3463 C   0  0  0  0  0  0
  -30.0149  -19.2895   19.7939 C   0  0  0  0  0  0
  -28.6886  -22.7304   20.5543 C   0  0  0  0  0  0
  -29.1705  -24.2073   20.5642 C   0  0  0  0  0  0
  -28.1018  -25.1861   20.0121 C   0  0  0  0  0  0
  -29.6479  -21.5446   20.8807 C   0  0  2  0  0  0
  -31.0400  -21.9762   21.4217 C   0  0  0  0  0  0
  -29.9805  -15.5508   20.8717 N   0  0  0  0  0  0
  -29.7687  -20.6668   19.7059 N   0  0  0  0  0  0
  -27.5103  -22.4898   20.2637 O   0  0  0  0  0  0
  -31.7438  -22.6117   20.4824 F   0  0  0  0  0  0
  -31.7273  -20.8975   21.8026 F   0  0  0  0  0  0
  -30.9187  -22.7754   22.4819 F   0  0  0  0  0  0
  -29.4228  -18.2425   21.0781 S   0  0  0  0  0  0
  -31.4659  -12.3567   19.1521 H   0  0  0  0  0  0
  -30.2881  -11.2866   19.8566 H   0  0  0  0  0  0
  -29.7462  -11.7623   17.4420 H   0  0  0  0  0  0
  -29.6798  -13.4752   17.7783 H   0  0  0  0  0  0
  -27.8259  -11.3081   18.8184 H   0  0  0  0  0  0
  -27.3803  -12.6409   17.7831 H   0  0  0  0  0  0
  -27.6975  -14.2564   19.5575 H   0  0  0  0  0  0
  -28.6653  -11.9999   21.3817 H   0  0  0  0  0  0
  -28.4714  -13.6653   21.8506 H   0  0  0  0  0  0
  -25.2786   -9.5666   22.4763 H   0  0  0  0  0  0
  -23.9998   -7.4640   22.7484 H   0  0  0  0  0  0
  -21.0850   -8.8820   19.8951 H   0  0  0  0  0  0
  -22.3761  -10.9691   19.6172 H   0  0  0  0  0  0
  -21.2015   -7.6149   23.9725 H   0  0  0  0  0  0
  -21.1485   -6.0517   25.9075 H   0  0  0  0  0  0
  -22.0594   -2.7611   23.2835 H   0  0  0  0  0  0
  -22.4078  -11.9919   22.4780 H   0  0  0  0  0  0
  -21.1108  -13.1307   22.2577 H   0  0  0  0  0  0
  -24.6683  -15.8488   20.5294 H   0  0  0  0  0  0
  -26.2821  -15.6276   20.0821 H   0  0  0  0  0  0
  -26.7157  -32.5509   23.1183 H   0  0  0  0  0  0
  -25.0083  -33.9815   25.0490 H   0  0  0  0  0  0
  -22.6942  -31.3135   21.4175 H   0  0  0  0  0  0
  -23.3724  -35.9640   23.3329 H   0  0  0  0  0  0
  -24.3550  -36.8878   22.2038 H   0  0  0  0  0  0
  -23.7250  -37.6512   23.6639 H   0  0  0  0  0  0
  -26.0681  -31.5951   20.6119 H   0  0  0  0  0  0
  -26.8237  -30.8643   21.9990 H   0  0  0  0  0  0
  -28.1027  -29.0590   21.1694 H   0  0  0  0  0  0
  -25.9777  -26.0128   18.9424 H   0  0  0  0  0  0
  -23.9618  -27.3457   18.9956 H   0  0  0  0  0  0
  -23.7214  -30.6220   19.4120 H   0  0  0  0  0  0
  -22.7360  -29.2673   19.8630 H   0  0  0  0  0  0
  -25.1253  -36.1944   25.0830 H   0  0  0  0  0  0
  -20.9972  -28.3245   24.1419 H   0  0  0  0  0  0
  -20.5614  -26.2299   23.3606 H   0  0  0  0  0  0
  -21.6618  -26.7422   22.1207 H   0  0  0  0  0  0
  -19.6864  -25.6305   21.1227 H   0  0  0  0  0  0
  -19.6632  -27.3212   20.6740 H   0  0  0  0  0  0
  -17.4160  -26.6694   21.4061 H   0  0  0  0  0  0
  -18.0318  -26.0072   22.9029 H   0  0  0  0  0  0
  -19.7927  -30.7257   24.2312 H   0  0  0  0  0  0
  -17.5007  -31.6277   24.5161 H   0  0  0  0  0  0
  -15.5347  -30.2999   23.7624 H   0  0  0  0  0  0
  -15.8669  -28.0808   22.7094 H   0  0  0  0  0  0
  -24.5945  -30.7041   25.7845 H   0  0  0  0  0  0
  -24.8962  -32.2867   26.4951 H   0  0  0  0  0  0
  -25.8134  -30.8884   27.0261 H   0  0  0  0  0  0
  -26.2872  -29.6786   24.1190 H   0  0  0  0  0  0
  -27.4024  -29.7234   25.4632 H   0  0  0  0  0  0
  -27.8739  -30.4269   23.9347 H   0  0  0  0  0  0
  -27.2662  -33.3608   26.2118 H   0  0  0  0  0  0
  -28.3862  -32.6936   25.0353 H   0  0  0  0  0  0
  -28.0754  -31.8460   26.5425 H   0  0  0  0  0  0
  -28.2590  -38.0073   24.7469 H   0  0  0  0  0  0
  -28.1036  -36.2603   24.6353 H   0  0  0  0  0  0
  -27.2290  -37.1506   25.8884 H   0  0  0  0  0  0
  -20.9318  -29.8791   21.6945 H   0  0  0  0  0  0
  -26.0160  -38.2845   24.1417 H   0  0  0  0  0  0
  -31.2960  -16.4900   18.5204 H   0  0  0  0  0  0
  -31.1573  -18.9511   17.9726 H   0  0  0  0  0  0
  -30.0906  -24.2972   19.9894 H   0  0  0  0  0  0
  -29.4009  -24.4766   21.5929 H   0  0  0  0  0  0
  -27.1774  -24.9561   20.5447 H   0  0  0  0  0  0
  -27.9370  -24.9561   18.9584 H   0  0  0  0  0  0
  -29.1686  -20.9753   21.6776 H   0  0  0  0  0  0
  -29.1172  -15.3657   21.3610 H   0  0  0  0  0  0
  -30.1149  -21.1512   18.8848 H   0  0  0  0  0  0
  1 25  1  0  0  0
  1 30  2  0  0  0
  1 80  1  0  0  0
  2  3  1  0  0  0
  2 25  1  0  0  0
  2 87  1  0  0  0
  2 88  1  0  0  0
  3  4  1  0  0  0
  3 89  1  0  0  0
  3 90  1  0  0  0
  4  5  1  0  0  0
  4 91  1  0  0  0
  4 92  1  0  0  0
  5  6  1  0  0  0
  5 26  1  0  0  0
  5 93  1  0  0  0
  6 25  1  0  0  0
  6 94  1  0  0  0
  6 95  1  0  0  0
  7  8  2  0  0  0
  7 26  1  0  0  0
  7 29  1  0  0  0
  8  9  1  0  0  0
  8 22  1  0  0  0
  9 10  1  0  0  0
  9 27  2  0  0  0
 10 11  2  0  0  0
 10 15  1  0  0  0
 11 12  1  0  0  0
 11 96  1  0  0  0
 12 13  2  0  0  0
 12 97  1  0  0  0
 13 14  1  0  0  0
 13 31  1  0  0  0
 14 15  2  0  0  0
 14 98  1  0  0  0
 15 99  1  0  0  0
 16 17  2  0  0  0
 16 21  1  0  0  0
 16 31  1  0  0  0
 17 18  1  0  0  0
 17100  1  0  0  0
 18 19  2  0  0  0
 18101  1  0  0  0
 19 20  1  0  0  0
 19 24  1  0  0  0
 20 21  2  0  0  0
 20102  1  0  0  0
 21 23  1  0  0  0
 22 28  1  0  0  0
 22 32  2  0  0  0
 26 27  1  0  0  0
 28103  1  0  0  0
 28104  1  0  0  0
 29105  1  0  0  0
 29106  1  0  0  0
 33 34  1  0  0  0
 33 66  1  0  0  0
 33 70  2  0  0  0
 34 36  1  0  0  0
 34 59  1  0  0  0
 34107  1  0  0  0
 35 44  2  0  0  0
 35 45  1  0  0  0
 35 68  1  0  0  0
 36 56  1  0  0  0
 36108  1  0  0  0
 37 39  1  0  0  0
 37 47  1  0  0  0
 37 66  1  0  0  0
 37109  1  0  0  0
 38 43  2  0  0  0
 38 46  1  0  0  0
 38 47  1  0  0  0
 39 64  1  0  0  0
 39 67  2  0  0  0
 40 52  1  0  0  0
 40 53  2  0  0  0
 40 58  1  0  0  0
 41110  1  0  0  0
 41111  1  0  0  0
 41112  1  0  0  0
 41 48  1  0  0  0
 42 43  1  0  0  0
 42 66  1  0  0  0
 42113  1  0  0  0
 42114  1  0  0  0
 43 44  1  0  0  0
 44115  1  0  0  0
 45 46  2  0  0  0
 45116  1  0  0  0
 46117  1  0  0  0
 47118  1  0  0  0
 47119  1  0  0  0
 48 56  1  0  0  0
 48 65  1  0  0  0
 48120  1  0  0  0
 49 50  1  0  0  0
 49 53  1  0  0  0
 49 64  1  0  0  0
 49121  1  0  0  0
 50 51  1  0  0  0
 50122  1  0  0  0
 50123  1  0  0  0
 51 52  1  0  0  0
 51124  1  0  0  0
 51125  1  0  0  0
 52126  1  0  0  0
 52127  1  0  0  0
 53 54  1  0  0  0
 54 55  2  0  0  0
 54128  1  0  0  0
 55 57  1  0  0  0
 55129  1  0  0  0
 56 69  2  0  0  0
 57 58  2  0  0  0
 57130  1  0  0  0
 58131  1  0  0  0
 59 60  1  0  0  0
 59 61  1  0  0  0
 59 62  1  0  0  0
 60132  1  0  0  0
 60133  1  0  0  0
 60134  1  0  0  0
 61135  1  0  0  0
 61136  1  0  0  0
 61137  1  0  0  0
 62138  1  0  0  0
 62139  1  0  0  0
 62140  1  0  0  0
 63 65  1  0  0  0
 63141  1  0  0  0
 63142  1  0  0  0
 63143  1  0  0  0
 64144  1  0  0  0
 65145  1  0  0  0
 68 77  1  0  0  0
 71 72  1  0  0  0
 71 73  2  0  0  0
 71146  1  0  0  0
 72 74  2  0  0  0
 72147  1  0  0  0
 73 80  1  0  0  0
 73 86  1  0  0  0
 74 81  1  0  0  0
 74 86  1  0  0  0
 75 76  1  0  0  0
 75 78  1  0  0  0
 75 82  2  0  0  0
 76 77  1  0  0  0
 76148  1  0  0  0
 76149  1  0  0  0
 77150  1  0  0  0
 77151  1  0  0  0
 78 79  1  0  0  0
 78 81  1  0  0  0
 78152  1  0  0  0
 79 83  1  0  0  0
 79 84  1  0  0  0
 79 85  1  0  0  0
 80153  1  0  0  0
 81154  1  0  0  0
M  ISO  4   1 100  68 101  77 101  80 100
M  END
> <chiral flag>
0

> <version>
0

> <s_m_source_file>
/data/baiqing/PycharmProjects/Reinvent-master-3.2/result/LINK_invent/BTK/process_docking_weight1_custom_product_contain_oxygen_bond_distance_aromatic_linkinvent_7_9_3/rearranged_h_0182.sdf

> <i_m_source_file_index>
55

> <r_mmod_Potential_Energy-OPLS-2005>
1.55877900123596

> <r_mmod_Stretch_Energy-OPLS-2005>
40.9502754211426

> <r_mmod_Bend_Energy-OPLS-2005>
110.377746582031

> <r_mmod_Torsional_Energy-OPLS-2005>
214.675308227539

> <r_mmod_Improper_Torsional_Energy-OPLS-2005>
7.13372993469238

> <r_mmod_Van_der_Waal_Energy-OPLS-2005>
148.325546264648

> <r_mmod_Electrostatic_Energy-OPLS-2005>
-317.825073242188

> <r_mmod_Solvation_Energy-OPLS-2005>
-222.495208740234

> <b_mmod_Minimization_Converged-OPLS-2005>
0

> <r_mmod_RMS_Derivative-OPLS-2005>
2.52242660522461

$$$$
55
                    3D
 Structure written by MMmdl.
153161  0  0  1  0            999 V2000
  -30.6359  -14.7662   20.4304 C   0  0  0  0  0  0
  -30.4258  -12.4693   19.4740 C   0  0  0  0  0  0
  -29.5111  -12.5061   18.2305 C   0  0  0  0  0  0
  -28.0338  -12.3515   18.6395 C   0  0  0  0  0  0
  -27.6383  -13.2474   19.8463 C   0  0  2  0  0  0
  -28.6877  -13.1957   20.9788 C   0  0  0  0  0  0
  -25.2494  -13.8239   20.5716 C   0  0  0  0  0  0
  -24.1804  -13.0456   20.9222 C   0  0  0  0  0  0
  -24.6404  -11.6950   20.8760 C   0  0  0  0  0  0
  -23.9080  -10.4314   21.0402 C   0  0  0  0  0  0
  -24.3635   -9.4217   21.9174 C   0  0  0  0  0  0
  -23.6326   -8.2253   22.0742 C   0  0  0  0  0  0
  -22.4313   -8.0273   21.3516 C   0  0  0  0  0  0
  -21.9939   -9.0249   20.4637 C   0  0  0  0  0  0
  -22.7267  -10.2142   20.3057 C   0  0  0  0  0  0
  -21.6864   -6.0736   22.5264 C   0  0  0  0  0  0
  -21.4031   -6.5645   23.8201 C   0  0  0  0  0  0
  -21.3681   -5.6794   24.9161 C   0  0  0  0  0  0
  -21.6049   -4.3044   24.7198 C   0  0  0  0  0  0
  -21.8825   -3.8141   23.4316 C   0  0  0  0  0  0
  -21.9193   -4.6966   22.3373 C   0  0  0  0  0  0
  -22.7820  -13.5204   21.1859 C   0  0  0  0  0  0
  -22.1650   -4.2149   21.0952 F   0  0  0  0  0  0
  -21.5633   -3.4531   25.7708 F   0  0  0  0  0  0
  -29.9821  -13.5499   20.3871 N   0  0  0  0  0  0
  -26.2936  -12.9469   20.3292 N   0  0  0  0  0  0
  -25.9338  -11.6599   20.5758 N   0  0  0  0  0  0
  -22.0454  -12.8250   22.0444 N   0  0  0  0  0  0
  -25.4150  -15.1970   20.4166 N   0  0  0  0  0  0
  -31.8456  -14.7705   20.1915 O   0  0  0  0  0  0
  -21.6664   -6.8879   21.4228 O   0  0  0  0  0  0
  -22.3508  -14.5470   20.6626 O   0  0  0  0  0  0
  -24.6322  -31.8540   23.1969 C   0  0  0  0  0  0
  -25.9140  -32.4737   23.8323 C   0  0  1  0  0  0
  -27.2239  -27.2597   20.1345 C   0  0  0  0  0  0
  -25.5946  -33.8542   24.2262 N   0  0  0  0  0  0
  -23.4313  -30.4740   21.5390 C   0  0  2  0  0  0
  -24.8785  -28.9158   20.1118 C   0  0  0  0  0  0
  -22.7526  -29.4573   22.4888 C   0  0  0  0  0  0
  -18.0307  -28.1374   22.8474 C   0  0  0  0  0  0
  -24.1486  -36.7280   23.2638 C   0  0  0  0  0  0
  -25.9764  -30.7621   21.3789 C   0  0  0  0  0  0
  -26.0505  -29.3852   20.7221 C   0  0  0  0  0  0
  -27.2298  -28.5721   20.7167 C   0  0  0  0  0  0
  -26.0325  -26.8522   19.5011 C   0  0  0  0  0  0
  -24.8760  -27.6568   19.4884 C   0  0  0  0  0  0
  -23.6517  -29.8075   20.1552 C   0  0  0  0  0  0
  -25.4106  -36.3066   24.0338 C   0  0  1  0  0  0
  -20.5902  -28.3691   23.1263 C   0  0  2  0  0  0
  -20.6786  -26.9407   22.5397 C   0  0  0  0  0  0
  -19.5756  -26.6366   21.5212 C   0  0  0  0  0  0
  -18.1946  -26.7918   22.1621 C   0  0  0  0  0  0
  -19.1559  -28.8853   23.2855 C   0  0  0  0  0  0
  -18.9465  -30.1454   23.8876 C   0  0  0  0  0  0
  -17.6460  -30.6577   24.0559 C   0  0  0  0  0  0
  -25.9049  -34.9435   23.5101 C   0  0  0  0  0  0
  -16.5353  -29.9063   23.6335 C   0  0  0  0  0  0
  -16.7288  -28.6482   23.0352 C   0  0  0  0  0  0
  -26.4495  -31.6563   25.0728 C   0  0  0  0  0  0
  -25.3709  -31.3738   26.1451 C   0  0  0  0  0  0
  -27.0350  -30.2980   24.6235 C   0  0  0  0  0  0
  -27.6049  -32.4305   25.7509 C   0  0  0  0  0  0
  -27.5585  -37.1792   24.8463 C   0  0  0  0  0  0
  -21.4224  -29.3035   22.3651 N   0  0  0  0  0  0
  -26.4289  -37.3760   23.9425 N   0  0  0  0  0  0
  -24.6990  -31.0488   22.0951 N   0  0  0  0  0  0
  -23.4238  -28.8141   23.3002 O   0  0  0  0  0  0
  -28.3134  -26.3625   20.1360 O   0  0  0  0  0  0
  -26.5611  -34.8914   22.4662 O   0  0  0  0  0  0
  -23.5466  -32.1376   23.7260 O   0  0  0  0  0  0
  -31.4691  -17.6598   19.5917 C   0  0  0  0  0  0
  -31.8522  -18.9655   19.2448 C   0  0  0  0  0  0
  -31.0045  -20.0555   19.5064 C   0  0  0  0  0  0
  -30.2352  -17.3873   20.2266 C   0  0  0  0  0  0
  -29.7592  -19.8189   20.1248 C   0  0  0  0  0  0
  -28.6873  -23.6791   20.0077 C   0  0  0  0  0  0
  -30.3734  -22.5079   21.6124 C   0  0  0  0  0  0
  -28.0904  -24.9924   20.7233 C   0  0  0  0  0  0
  -29.0331  -22.3304   20.8685 C   0  0  2  0  0  0
  -29.4007  -18.4997   20.4562 N   0  0  0  0  0  0
  -29.9003  -15.9553   20.5417 N   0  0  0  0  0  0
  -28.8278  -20.9260   20.2885 N   0  0  0  0  0  0
  -28.8648  -23.7054   18.7852 O   0  0  0  0  0  0
  -33.0369  -19.1631   18.6146 F   0  0  0  0  0  0
  -31.3721  -21.2926   19.0893 F   0  0  0  0  0  0
  -31.4674  -12.5872   19.1698 H   0  0  0  0  0  0
  -30.3686  -11.5003   19.9737 H   0  0  0  0  0  0
  -29.7971  -11.7176   17.5302 H   0  0  0  0  0  0
  -29.6556  -13.4510   17.7021 H   0  0  0  0  0  0
  -27.8788  -11.3021   18.8931 H   0  0  0  0  0  0
  -27.3859  -12.5579   17.7856 H   0  0  0  0  0  0
  -27.6233  -14.2727   19.4727 H   0  0  0  0  0  0
  -28.7321  -12.1986   21.4190 H   0  0  0  0  0  0
  -28.4277  -13.8810   21.7875 H   0  0  0  0  0  0
  -25.2767   -9.5718   22.4752 H   0  0  0  0  0  0
  -24.0029   -7.4663   22.7491 H   0  0  0  0  0  0
  -21.0846   -8.8784   19.8963 H   0  0  0  0  0  0
  -22.3702  -10.9677   19.6174 H   0  0  0  0  0  0
  -21.2037   -7.6168   23.9699 H   0  0  0  0  0  0
  -21.1507   -6.0524   25.9068 H   0  0  0  0  0  0
  -22.0586   -2.7602   23.2805 H   0  0  0  0  0  0
  -22.4071  -11.9969   22.4934 H   0  0  0  0  0  0
  -21.1018  -13.1246   22.2520 H   0  0  0  0  0  0
  -24.6513  -15.8499   20.5566 H   0  0  0  0  0  0
  -26.2608  -15.6419   20.0840 H   0  0  0  0  0  0
  -26.7221  -32.5390   23.1068 H   0  0  0  0  0  0
  -25.0130  -33.9671   25.0441 H   0  0  0  0  0  0
  -22.7280  -31.2964   21.3922 H   0  0  0  0  0  0
  -23.3754  -35.9602   23.3268 H   0  0  0  0  0  0
  -24.3580  -36.8930   22.2060 H   0  0  0  0  0  0
  -23.7225  -37.6469   23.6673 H   0  0  0  0  0  0
  -26.1227  -31.5202   20.6091 H   0  0  0  0  0  0
  -26.8527  -30.8088   22.0149 H   0  0  0  0  0  0
  -28.1286  -28.9317   21.1976 H   0  0  0  0  0  0
  -25.9919  -25.8864   19.0161 H   0  0  0  0  0  0
  -23.9814  -27.2932   19.0024 H   0  0  0  0  0  0
  -23.7887  -30.5872   19.4044 H   0  0  0  0  0  0
  -22.7694  -29.2469   19.8445 H   0  0  0  0  0  0
  -25.1282  -36.1897   25.0826 H   0  0  0  0  0  0
  -20.9996  -28.3248   24.1382 H   0  0  0  0  0  0
  -20.5680  -26.2305   23.3601 H   0  0  0  0  0  0
  -21.6652  -26.7417   22.1194 H   0  0  0  0  0  0
  -19.6916  -25.6275   21.1258 H   0  0  0  0  0  0
  -19.6692  -27.3156   20.6738 H   0  0  0  0  0  0
  -17.4215  -26.6674   21.4019 H   0  0  0  0  0  0
  -18.0326  -26.0058   22.9014 H   0  0  0  0  0  0
  -19.7939  -30.7280   24.2230 H   0  0  0  0  0  0
  -17.5010  -31.6255   24.5156 H   0  0  0  0  0  0
  -15.5353  -30.2949   23.7665 H   0  0  0  0  0  0
  -15.8695  -28.0798   22.7060 H   0  0  0  0  0  0
  -24.5853  -30.7123   25.7784 H   0  0  0  0  0  0
  -24.8935  -32.2922   26.4885 H   0  0  0  0  0  0
  -25.8007  -30.8899   27.0234 H   0  0  0  0  0  0
  -26.2956  -29.6715   24.1241 H   0  0  0  0  0  0
  -27.4010  -29.7247   25.4763 H   0  0  0  0  0  0
  -27.8839  -30.4253   23.9518 H   0  0  0  0  0  0
  -27.2650  -33.3592   26.2113 H   0  0  0  0  0  0
  -28.3855  -32.6886   25.0338 H   0  0  0  0  0  0
  -28.0733  -31.8416   26.5411 H   0  0  0  0  0  0
  -28.2571  -38.0121   24.7534 H   0  0  0  0  0  0
  -28.1115  -36.2650   24.6237 H   0  0  0  0  0  0
  -27.2326  -37.1389   25.8873 H   0  0  0  0  0  0
  -20.9423  -29.8752   21.6848 H   0  0  0  0  0  0
  -26.0160  -38.2838   24.1403 H   0  0  0  0  0  0
  -32.1657  -16.8884   19.3143 H   0  0  0  0  0  0
  -30.3341  -23.3476   22.3078 H   0  0  0  0  0  0
  -31.2015  -22.7143   20.9344 H   0  0  0  0  0  0
  -30.6217  -21.6288   22.2050 H   0  0  0  0  0  0
  -28.4957  -25.0200   21.7336 H   0  0  0  0  0  0
  -27.0216  -24.8228   20.8480 H   0  0  0  0  0  0
  -28.2950  -22.3356   21.6716 H   0  0  0  0  0  0
  -28.9361  -15.8071   20.7899 H   0  0  0  0  0  0
  -27.8671  -20.6232   20.3848 H   0  0  0  0  0  0
  1 25  1  0  0  0
  1 30  2  0  0  0
  1 81  1  0  0  0
  2  3  1  0  0  0
  2 25  1  0  0  0
  2 86  1  0  0  0
  2 87  1  0  0  0
  3  4  1  0  0  0
  3 88  1  0  0  0
  3 89  1  0  0  0
  4  5  1  0  0  0
  4 90  1  0  0  0
  4 91  1  0  0  0
  5  6  1  0  0  0
  5 26  1  0  0  0
  5 92  1  0  0  0
  6 25  1  0  0  0
  6 93  1  0  0  0
  6 94  1  0  0  0
  7  8  2  0  0  0
  7 26  1  0  0  0
  7 29  1  0  0  0
  8  9  1  0  0  0
  8 22  1  0  0  0
  9 10  1  0  0  0
  9 27  2  0  0  0
 10 11  2  0  0  0
 10 15  1  0  0  0
 11 12  1  0  0  0
 11 95  1  0  0  0
 12 13  2  0  0  0
 12 96  1  0  0  0
 13 14  1  0  0  0
 13 31  1  0  0  0
 14 15  2  0  0  0
 14 97  1  0  0  0
 15 98  1  0  0  0
 16 17  2  0  0  0
 16 21  1  0  0  0
 16 31  1  0  0  0
 17 18  1  0  0  0
 17 99  1  0  0  0
 18 19  2  0  0  0
 18100  1  0  0  0
 19 20  1  0  0  0
 19 24  1  0  0  0
 20 21  2  0  0  0
 20101  1  0  0  0
 21 23  1  0  0  0
 22 28  1  0  0  0
 22 32  2  0  0  0
 26 27  1  0  0  0
 28102  1  0  0  0
 28103  1  0  0  0
 29104  1  0  0  0
 29105  1  0  0  0
 33 34  1  0  0  0
 33 66  1  0  0  0
 33 70  2  0  0  0
 34 36  1  0  0  0
 34 59  1  0  0  0
 34106  1  0  0  0
 35 44  2  0  0  0
 35 45  1  0  0  0
 35 68  1  0  0  0
 36 56  1  0  0  0
 36107  1  0  0  0
 37 39  1  0  0  0
 37 47  1  0  0  0
 37 66  1  0  0  0
 37108  1  0  0  0
 38 43  2  0  0  0
 38 46  1  0  0  0
 38 47  1  0  0  0
 39 64  1  0  0  0
 39 67  2  0  0  0
 40 52  1  0  0  0
 40 53  2  0  0  0
 40 58  1  0  0  0
 41109  1  0  0  0
 41110  1  0  0  0
 41111  1  0  0  0
 41 48  1  0  0  0
 42 43  1  0  0  0
 42 66  1  0  0  0
 42112  1  0  0  0
 42113  1  0  0  0
 43 44  1  0  0  0
 44114  1  0  0  0
 45 46  2  0  0  0
 45115  1  0  0  0
 46116  1  0  0  0
 47117  1  0  0  0
 47118  1  0  0  0
 48 56  1  0  0  0
 48 65  1  0  0  0
 48119  1  0  0  0
 49 50  1  0  0  0
 49 53  1  0  0  0
 49 64  1  0  0  0
 49120  1  0  0  0
 50 51  1  0  0  0
 50121  1  0  0  0
 50122  1  0  0  0
 51 52  1  0  0  0
 51123  1  0  0  0
 51124  1  0  0  0
 52125  1  0  0  0
 52126  1  0  0  0
 53 54  1  0  0  0
 54 55  2  0  0  0
 54127  1  0  0  0
 55 57  1  0  0  0
 55128  1  0  0  0
 56 69  2  0  0  0
 57 58  2  0  0  0
 57129  1  0  0  0
 58130  1  0  0  0
 59 60  1  0  0  0
 59 61  1  0  0  0
 59 62  1  0  0  0
 60131  1  0  0  0
 60132  1  0  0  0
 60133  1  0  0  0
 61134  1  0  0  0
 61135  1  0  0  0
 61136  1  0  0  0
 62137  1  0  0  0
 62138  1  0  0  0
 62139  1  0  0  0
 63 65  1  0  0  0
 63140  1  0  0  0
 63141  1  0  0  0
 63142  1  0  0  0
 64143  1  0  0  0
 65144  1  0  0  0
 68 78  1  0  0  0
 71 72  2  0  0  0
 71 74  1  0  0  0
 71145  1  0  0  0
 72 73  1  0  0  0
 72 84  1  0  0  0
 73 75  2  0  0  0
 73 85  1  0  0  0
 74 80  2  0  0  0
 74 81  1  0  0  0
 75 80  1  0  0  0
 75 82  1  0  0  0
 76 78  1  0  0  0
 76 79  1  0  0  0
 76 83  2  0  0  0
 77146  1  0  0  0
 77147  1  0  0  0
 77148  1  0  0  0
 77 79  1  0  0  0
 78149  1  0  0  0
 78150  1  0  0  0
 79 82  1  0  0  0
 79151  1  0  0  0
 81152  1  0  0  0
 82153  1  0  0  0
M  ISO  4   1 100  68 101  78 101  81 100
M  END
> <chiral flag>
0

> <version>
0

> <s_m_source_file>
/data/baiqing/PycharmProjects/Reinvent-master-3.2/result/LINK_invent/BTK/process_docking_weight1_custom_product_contain_oxygen_bond_distance_aromatic_linkinvent_7_9_3/rearranged_h_0182.sdf

> <i_m_source_file_index>
56

> <r_mmod_Potential_Energy-OPLS-2005>
122.713569641113

> <r_mmod_Stretch_Energy-OPLS-2005>
144.690368652344

> <r_mmod_Bend_Energy-OPLS-2005>
194.317474365234

> <r_mmod_Torsional_Energy-OPLS-2005>
249.315460205078

> <r_mmod_Improper_Torsional_Energy-OPLS-2005>
6.5766429901123

> <r_mmod_Van_der_Waal_Energy-OPLS-2005>
141.548843383789

> <r_mmod_Electrostatic_Energy-OPLS-2005>
-456.860626220703

> <r_mmod_Solvation_Energy-OPLS-2005>
-248.202178955078

> <b_mmod_Minimization_Converged-OPLS-2005>
0

> <r_mmod_RMS_Derivative-OPLS-2005>
3.91496348381042

$$$$
56
                    3D
 Structure written by MMmdl.
162170  0  0  1  0            999 V2000
  -30.6160  -14.7790   20.4349 C   0  0  0  0  0  0
  -30.4322  -12.4722   19.4968 C   0  0  0  0  0  0
  -29.5221  -12.5318   18.2503 C   0  0  0  0  0  0
  -28.0471  -12.3512   18.6507 C   0  0  0  0  0  0
  -27.6444  -13.2446   19.8542 C   0  0  2  0  0  0
  -28.6840  -13.2060   20.9979 C   0  0  0  0  0  0
  -25.2511  -13.8241   20.5685 C   0  0  0  0  0  0
  -24.1823  -13.0448   20.9191 C   0  0  0  0  0  0
  -24.6427  -11.6959   20.8718 C   0  0  0  0  0  0
  -23.9093  -10.4318   21.0399 C   0  0  0  0  0  0
  -24.3646   -9.4237   21.9180 C   0  0  0  0  0  0
  -23.6315   -8.2271   22.0755 C   0  0  0  0  0  0
  -22.4290   -8.0303   21.3552 C   0  0  0  0  0  0
  -21.9940   -9.0272   20.4639 C   0  0  0  0  0  0
  -22.7267  -10.2147   20.3052 C   0  0  0  0  0  0
  -21.6862   -6.0740   22.5279 C   0  0  0  0  0  0
  -21.4025   -6.5647   23.8218 C   0  0  0  0  0  0
  -21.3669   -5.6803   24.9170 C   0  0  0  0  0  0
  -21.6039   -4.3066   24.7218 C   0  0  0  0  0  0
  -21.8821   -3.8146   23.4353 C   0  0  0  0  0  0
  -21.9211   -4.6966   22.3397 C   0  0  0  0  0  0
  -22.7845  -13.5230   21.1847 C   0  0  0  0  0  0
  -22.1671   -4.2156   21.0975 F   0  0  0  0  0  0
  -21.5628   -3.4547   25.7729 F   0  0  0  0  0  0
  -29.9924  -13.5451   20.4262 N   0  0  0  0  0  0
  -26.2947  -12.9478   20.3274 N   0  0  0  0  0  0
  -25.9357  -11.6595   20.5715 N   0  0  0  0  0  0
  -22.0498  -12.8195   22.0398 N   0  0  0  0  0  0
  -25.4144  -15.1971   20.4133 N   0  0  0  0  0  0
  -31.7939  -14.8493   20.0726 O   0  0  0  0  0  0
  -21.6662   -6.8894   21.4249 O   0  0  0  0  0  0
  -22.3514  -14.5529   20.6725 O   0  0  0  0  0  0
  -24.6352  -31.8517   23.1944 C   0  0  0  0  0  0
  -25.9162  -32.4734   23.8310 C   0  0  1  0  0  0
  -27.2433  -27.2462   20.1270 C   0  0  0  0  0  0
  -25.5961  -33.8535   24.2255 N   0  0  0  0  0  0
  -23.4355  -30.4701   21.5348 C   0  0  2  0  0  0
  -24.8871  -28.9026   20.1131 C   0  0  0  0  0  0
  -22.7541  -29.4572   22.4880 C   0  0  0  0  0  0
  -18.0305  -28.1390   22.8470 C   0  0  0  0  0  0
  -24.1488  -36.7294   23.2627 C   0  0  0  0  0  0
  -25.9807  -30.7563   21.3759 C   0  0  0  0  0  0
  -26.0549  -29.3733   20.7253 C   0  0  0  0  0  0
  -27.2289  -28.5543   20.7264 C   0  0  0  0  0  0
  -26.0467  -26.8389   19.4945 C   0  0  0  0  0  0
  -24.8879  -27.6423   19.4914 C   0  0  0  0  0  0
  -23.6602  -29.7931   20.1542 C   0  0  0  0  0  0
  -25.4110  -36.3074   24.0323 C   0  0  1  0  0  0
  -20.5911  -28.3710   23.1259 C   0  0  2  0  0  0
  -20.6800  -26.9427   22.5397 C   0  0  0  0  0  0
  -19.5763  -26.6391   21.5212 C   0  0  0  0  0  0
  -18.1944  -26.7937   22.1615 C   0  0  0  0  0  0
  -19.1552  -28.8862   23.2864 C   0  0  0  0  0  0
  -18.9475  -30.1463   23.8900 C   0  0  0  0  0  0
  -17.6473  -30.6593   24.0555 C   0  0  0  0  0  0
  -25.9061  -34.9431   23.5099 C   0  0  0  0  0  0
  -16.5370  -29.9092   23.6322 C   0  0  0  0  0  0
  -16.7289  -28.6506   23.0342 C   0  0  0  0  0  0
  -26.4514  -31.6563   25.0703 C   0  0  0  0  0  0
  -25.3734  -31.3719   26.1419 C   0  0  0  0  0  0
  -27.0360  -30.2980   24.6169 C   0  0  0  0  0  0
  -27.6067  -32.4280   25.7513 C   0  0  0  0  0  0
  -27.5590  -37.1807   24.8467 C   0  0  0  0  0  0
  -21.4236  -29.3057   22.3653 N   0  0  0  0  0  0
  -26.4300  -37.3770   23.9404 N   0  0  0  0  0  0
  -24.7035  -31.0455   22.0926 N   0  0  0  0  0  0
  -23.4223  -28.8116   23.2994 O   0  0  0  0  0  0
  -28.3671  -26.3856   20.2342 O   0  0  0  0  0  0
  -26.5606  -34.8918   22.4654 O   0  0  0  0  0  0
  -23.5492  -32.1355   23.7212 O   0  0  0  0  0  0
  -29.7289  -18.2282   17.7524 C   0  0  0  0  0  0
  -29.9766  -17.1332   18.5877 C   0  0  0  0  0  0
  -29.3282  -19.4767   18.2745 C   0  0  0  0  0  0
  -29.8253  -17.2351   19.9791 C   0  0  0  0  0  0
  -29.3018  -19.6613   19.6973 C   0  0  0  0  0  0
  -29.3748  -22.2908   19.9906 C   0  0  0  0  0  0
  -27.3010  -20.1533   16.9490 C   0  0  0  0  0  0
  -29.5705  -20.6447   15.9481 C   0  0  0  0  0  0
  -29.7403  -25.2682   18.6814 C   0  0  0  0  0  0
  -28.6667  -23.6587   20.5101 C   0  0  0  0  0  0
  -28.7677  -20.4959   17.2585 C   0  0  0  0  0  0
  -28.5292  -25.0242   19.5991 C   0  0  1  0  0  0
  -29.5034  -18.5088   20.4860 N   0  0  0  0  0  0
  -28.9023  -20.9997   20.2491 N   0  0  0  0  0  0
  -29.8848  -15.9367   20.7133 N   0  0  0  0  0  0
  -30.4440  -22.4129   19.3904 O   0  0  0  0  0  0
  -31.4744  -12.5837   19.1932 H   0  0  0  0  0  0
  -30.3670  -11.4937   19.9760 H   0  0  0  0  0  0
  -29.8111  -11.7716   17.5236 H   0  0  0  0  0  0
  -29.6507  -13.4934   17.7518 H   0  0  0  0  0  0
  -27.8993  -11.3019   18.9009 H   0  0  0  0  0  0
  -27.4002  -12.5530   17.7963 H   0  0  0  0  0  0
  -27.6332  -14.2642   19.4669 H   0  0  0  0  0  0
  -28.7124  -12.2288   21.4799 H   0  0  0  0  0  0
  -28.4071  -13.9182   21.7763 H   0  0  0  0  0  0
  -25.2809   -9.5715   22.4734 H   0  0  0  0  0  0
  -24.0031   -7.4674   22.7500 H   0  0  0  0  0  0
  -21.0865   -8.8797   19.8948 H   0  0  0  0  0  0
  -22.3744  -10.9682   19.6148 H   0  0  0  0  0  0
  -21.2018   -7.6162   23.9713 H   0  0  0  0  0  0
  -21.1480   -6.0531   25.9074 H   0  0  0  0  0  0
  -22.0591   -2.7614   23.2841 H   0  0  0  0  0  0
  -22.4120  -11.9852   22.4779 H   0  0  0  0  0  0
  -21.1107  -13.1185   22.2597 H   0  0  0  0  0  0
  -24.6379  -15.8403   20.5183 H   0  0  0  0  0  0
  -26.2559  -15.6485   20.0773 H   0  0  0  0  0  0
  -26.7234  -32.5386   23.1055 H   0  0  0  0  0  0
  -25.0200  -33.9670   25.0462 H   0  0  0  0  0  0
  -22.7340  -31.2919   21.3755 H   0  0  0  0  0  0
  -23.3760  -35.9625   23.3284 H   0  0  0  0  0  0
  -24.3601  -36.8927   22.2056 H   0  0  0  0  0  0
  -23.7248  -37.6489   23.6656 H   0  0  0  0  0  0
  -26.1114  -31.5047   20.5928 H   0  0  0  0  0  0
  -26.8634  -30.8214   22.0015 H   0  0  0  0  0  0
  -28.1205  -28.9004   21.2321 H   0  0  0  0  0  0
  -25.9557  -25.8715   19.0280 H   0  0  0  0  0  0
  -23.9899  -27.2649   19.0207 H   0  0  0  0  0  0
  -23.8023  -30.5622   19.3950 H   0  0  0  0  0  0
  -22.7790  -29.2295   19.8403 H   0  0  0  0  0  0
  -25.1289  -36.1940   25.0818 H   0  0  0  0  0  0
  -21.0001  -28.3299   24.1372 H   0  0  0  0  0  0
  -20.5701  -26.2322   23.3611 H   0  0  0  0  0  0
  -21.6659  -26.7446   22.1181 H   0  0  0  0  0  0
  -19.6943  -25.6292   21.1244 H   0  0  0  0  0  0
  -19.6712  -27.3186   20.6726 H   0  0  0  0  0  0
  -17.4221  -26.6682   21.4021 H   0  0  0  0  0  0
  -18.0344  -26.0076   22.9007 H   0  0  0  0  0  0
  -19.7947  -30.7278   24.2278 H   0  0  0  0  0  0
  -17.5020  -31.6259   24.5181 H   0  0  0  0  0  0
  -15.5360  -30.2995   23.7638 H   0  0  0  0  0  0
  -15.8688  -28.0833   22.7046 H   0  0  0  0  0  0
  -24.5918  -30.7051   25.7764 H   0  0  0  0  0  0
  -24.8898  -32.2884   26.4801 H   0  0  0  0  0  0
  -25.8037  -30.8943   27.0233 H   0  0  0  0  0  0
  -26.2932  -29.6725   24.1189 H   0  0  0  0  0  0
  -27.4075  -29.7229   25.4669 H   0  0  0  0  0  0
  -27.8804  -30.4267   23.9388 H   0  0  0  0  0  0
  -27.2675  -33.3583   26.2084 H   0  0  0  0  0  0
  -28.3912  -32.6828   25.0375 H   0  0  0  0  0  0
  -28.0693  -31.8394   26.5451 H   0  0  0  0  0  0
  -28.2582  -38.0120   24.7506 H   0  0  0  0  0  0
  -28.1107  -36.2650   24.6291 H   0  0  0  0  0  0
  -27.2312  -37.1456   25.8869 H   0  0  0  0  0  0
  -20.9458  -29.8834   21.6881 H   0  0  0  0  0  0
  -26.0190  -38.2858   24.1374 H   0  0  0  0  0  0
  -29.7700  -18.0583   16.6865 H   0  0  0  0  0  0
  -30.1997  -16.1858   18.1216 H   0  0  0  0  0  0
  -26.6971  -20.1328   17.8583 H   0  0  0  0  0  0
  -27.2156  -19.1699   16.4845 H   0  0  0  0  0  0
  -26.8559  -20.8820   16.2694 H   0  0  0  0  0  0
  -30.6087  -20.9295   16.1264 H   0  0  0  0  0  0
  -29.1248  -21.4348   15.3403 H   0  0  0  0  0  0
  -29.5708  -19.7448   15.3337 H   0  0  0  0  0  0
  -29.8725  -24.4582   17.9647 H   0  0  0  0  0  0
  -30.6591  -25.3679   19.2597 H   0  0  0  0  0  0
  -29.6174  -26.1830   18.0971 H   0  0  0  0  0  0
  -29.2197  -23.9432   21.4057 H   0  0  0  0  0  0
  -27.6711  -23.4039   20.8748 H   0  0  0  0  0  0
  -28.7662  -21.4958   17.6681 H   0  0  0  0  0  0
  -27.7053  -24.8288   18.9215 H   0  0  0  0  0  0
  -28.1663  -20.9600   20.9386 H   0  0  0  0  0  0
  -29.1212  -15.7960   21.3554 H   0  0  0  0  0  0
  1 25  1  0  0  0
  1 30  2  0  0  0
  1 85  1  0  0  0
  2  3  1  0  0  0
  2 25  1  0  0  0
  2 87  1  0  0  0
  2 88  1  0  0  0
  3  4  1  0  0  0
  3 89  1  0  0  0
  3 90  1  0  0  0
  4  5  1  0  0  0
  4 91  1  0  0  0
  4 92  1  0  0  0
  5  6  1  0  0  0
  5 26  1  0  0  0
  5 93  1  0  0  0
  6 25  1  0  0  0
  6 94  1  0  0  0
  6 95  1  0  0  0
  7  8  2  0  0  0
  7 26  1  0  0  0
  7 29  1  0  0  0
  8  9  1  0  0  0
  8 22  1  0  0  0
  9 10  1  0  0  0
  9 27  2  0  0  0
 10 11  2  0  0  0
 10 15  1  0  0  0
 11 12  1  0  0  0
 11 96  1  0  0  0
 12 13  2  0  0  0
 12 97  1  0  0  0
 13 14  1  0  0  0
 13 31  1  0  0  0
 14 15  2  0  0  0
 14 98  1  0  0  0
 15 99  1  0  0  0
 16 17  2  0  0  0
 16 21  1  0  0  0
 16 31  1  0  0  0
 17 18  1  0  0  0
 17100  1  0  0  0
 18 19  2  0  0  0
 18101  1  0  0  0
 19 20  1  0  0  0
 19 24  1  0  0  0
 20 21  2  0  0  0
 20102  1  0  0  0
 21 23  1  0  0  0
 22 28  1  0  0  0
 22 32  2  0  0  0
 26 27  1  0  0  0
 28103  1  0  0  0
 28104  1  0  0  0
 29105  1  0  0  0
 29106  1  0  0  0
 33 34  1  0  0  0
 33 66  1  0  0  0
 33 70  2  0  0  0
 34 36  1  0  0  0
 34 59  1  0  0  0
 34107  1  0  0  0
 35 44  2  0  0  0
 35 45  1  0  0  0
 35 68  1  0  0  0
 36 56  1  0  0  0
 36108  1  0  0  0
 37 39  1  0  0  0
 37 47  1  0  0  0
 37 66  1  0  0  0
 37109  1  0  0  0
 38 43  2  0  0  0
 38 46  1  0  0  0
 38 47  1  0  0  0
 39 64  1  0  0  0
 39 67  2  0  0  0
 40 52  1  0  0  0
 40 53  2  0  0  0
 40 58  1  0  0  0
 41110  1  0  0  0
 41111  1  0  0  0
 41112  1  0  0  0
 41 48  1  0  0  0
 42 43  1  0  0  0
 42 66  1  0  0  0
 42113  1  0  0  0
 42114  1  0  0  0
 43 44  1  0  0  0
 44115  1  0  0  0
 45 46  2  0  0  0
 45116  1  0  0  0
 46117  1  0  0  0
 47118  1  0  0  0
 47119  1  0  0  0
 48 56  1  0  0  0
 48 65  1  0  0  0
 48120  1  0  0  0
 49 50  1  0  0  0
 49 53  1  0  0  0
 49 64  1  0  0  0
 49121  1  0  0  0
 50 51  1  0  0  0
 50122  1  0  0  0
 50123  1  0  0  0
 51 52  1  0  0  0
 51124  1  0  0  0
 51125  1  0  0  0
 52126  1  0  0  0
 52127  1  0  0  0
 53 54  1  0  0  0
 54 55  2  0  0  0
 54128  1  0  0  0
 55 57  1  0  0  0
 55129  1  0  0  0
 56 69  2  0  0  0
 57 58  2  0  0  0
 57130  1  0  0  0
 58131  1  0  0  0
 59 60  1  0  0  0
 59 61  1  0  0  0
 59 62  1  0  0  0
 60132  1  0  0  0
 60133  1  0  0  0
 60134  1  0  0  0
 61135  1  0  0  0
 61136  1  0  0  0
 61137  1  0  0  0
 62138  1  0  0  0
 62139  1  0  0  0
 62140  1  0  0  0
 63 65  1  0  0  0
 63141  1  0  0  0
 63142  1  0  0  0
 63143  1  0  0  0
 64144  1  0  0  0
 65145  1  0  0  0
 68 82  1  0  0  0
 71 72  2  0  0  0
 71 73  1  0  0  0
 71146  1  0  0  0
 72 74  1  0  0  0
 72147  1  0  0  0
 73 75  2  0  0  0
 73 81  1  0  0  0
 74 83  2  0  0  0
 74 85  1  0  0  0
 75 83  1  0  0  0
 75 84  1  0  0  0
 76 80  1  0  0  0
 76 84  1  0  0  0
 76 86  2  0  0  0
 77148  1  0  0  0
 77149  1  0  0  0
 77150  1  0  0  0
 77 81  1  0  0  0
 78 81  1  0  0  0
 78151  1  0  0  0
 78152  1  0  0  0
 78153  1  0  0  0
 79154  1  0  0  0
 79155  1  0  0  0
 79156  1  0  0  0
 79 82  1  0  0  0
 80 82  1  0  0  0
 80157  1  0  0  0
 80158  1  0  0  0
 81159  1  0  0  0
 82160  1  0  0  0
 84161  1  0  0  0
 85162  1  0  0  0
M  ISO  4   1 100  68 101  82 101  85 100
M  END
> <chiral flag>
0

> <version>
0

> <s_m_source_file>
/data/baiqing/PycharmProjects/Reinvent-master-3.2/result/LINK_invent/BTK/process_docking_weight1_custom_product_contain_oxygen_bond_distance_aromatic_linkinvent_7_9_3/rearranged_h_0182.sdf

> <i_m_source_file_index>
57

> <r_mmod_Potential_Energy-OPLS-2005>
118.289939880371

> <r_mmod_Stretch_Energy-OPLS-2005>
157.717712402344

> <r_mmod_Bend_Energy-OPLS-2005>
206.174468994141

> <r_mmod_Torsional_Energy-OPLS-2005>
265.880523681641

> <r_mmod_Improper_Torsional_Energy-OPLS-2005>
6.58664226531982

> <r_mmod_Van_der_Waal_Energy-OPLS-2005>
143.812133789062

> <r_mmod_Electrostatic_Energy-OPLS-2005>
-516.720825195312

> <r_mmod_Solvation_Energy-OPLS-2005>
-241.948486328125

> <b_mmod_Minimization_Converged-OPLS-2005>
0

> <r_mmod_RMS_Derivative-OPLS-2005>
4.43623065948486

$$$$
57
                    3D
 Structure written by MMmdl.
153161  0  0  1  0            999 V2000
  -30.6155  -14.6395   20.5005 C   0  0  0  0  0  0
  -30.4458  -12.3898   19.4511 C   0  0  0  0  0  0
  -29.5101  -12.5001   18.2257 C   0  0  0  0  0  0
  -28.0313  -12.3418   18.6395 C   0  0  0  0  0  0
  -27.6556  -13.2129   19.8676 C   0  0  2  0  0  0
  -28.7039  -13.0592   20.9932 C   0  0  0  0  0  0
  -25.2551  -13.8128   20.5706 C   0  0  0  0  0  0
  -24.1810  -13.0393   20.9164 C   0  0  0  0  0  0
  -24.6396  -11.6878   20.8727 C   0  0  0  0  0  0
  -23.9062  -10.4271   21.0398 C   0  0  0  0  0  0
  -24.3614   -9.4191   21.9180 C   0  0  0  0  0  0
  -23.6286   -8.2225   22.0757 C   0  0  0  0  0  0
  -22.4263   -8.0270   21.3543 C   0  0  0  0  0  0
  -21.9894   -9.0246   20.4640 C   0  0  0  0  0  0
  -22.7232  -10.2122   20.3049 C   0  0  0  0  0  0
  -21.6845   -6.0731   22.5291 C   0  0  0  0  0  0
  -21.4009   -6.5639   23.8224 C   0  0  0  0  0  0
  -21.3656   -5.6793   24.9182 C   0  0  0  0  0  0
  -21.6043   -4.3055   24.7231 C   0  0  0  0  0  0
  -21.8810   -3.8141   23.4354 C   0  0  0  0  0  0
  -21.9188   -4.6957   22.3410 C   0  0  0  0  0  0
  -22.7835  -13.5200   21.1844 C   0  0  0  0  0  0
  -22.1657   -4.2146   21.0985 F   0  0  0  0  0  0
  -21.5628   -3.4541   25.7741 F   0  0  0  0  0  0
  -30.0206  -13.4067   20.4305 N   0  0  0  0  0  0
  -26.3007  -12.9326   20.3363 N   0  0  0  0  0  0
  -25.9330  -11.6476   20.5758 N   0  0  0  0  0  0
  -22.0475  -12.8209   22.0412 N   0  0  0  0  0  0
  -25.4165  -15.1856   20.4230 N   0  0  0  0  0  0
  -31.7750  -14.8301   20.1232 O   0  0  0  0  0  0
  -21.6621   -6.8876   21.4251 O   0  0  0  0  0  0
  -22.3514  -14.5512   20.6705 O   0  0  0  0  0  0
  -24.6266  -31.8590   23.2036 C   0  0  0  0  0  0
  -25.9109  -32.4774   23.8366 C   0  0  1  0  0  0
  -27.2265  -27.3123   20.1021 C   0  0  0  0  0  0
  -25.5918  -33.8577   24.2275 N   0  0  0  0  0  0
  -23.4206  -30.4842   21.5473 C   0  0  2  0  0  0
  -24.8664  -28.9416   20.1118 C   0  0  0  0  0  0
  -22.7476  -29.4614   22.4937 C   0  0  0  0  0  0
  -18.0288  -28.1384   22.8479 C   0  0  0  0  0  0
  -24.1479  -36.7290   23.2641 C   0  0  0  0  0  0
  -25.9649  -30.7831   21.3820 C   0  0  0  0  0  0
  -26.0366  -29.4116   20.7205 C   0  0  0  0  0  0
  -27.2156  -28.6070   20.7107 C   0  0  0  0  0  0
  -26.0273  -26.9036   19.4671 C   0  0  0  0  0  0
  -24.8643  -27.6926   19.4781 C   0  0  0  0  0  0
  -23.6355  -29.8226   20.1618 C   0  0  0  0  0  0
  -25.4108  -36.3080   24.0326 C   0  0  1  0  0  0
  -20.5885  -28.3684   23.1278 C   0  0  2  0  0  0
  -20.6771  -26.9407   22.5405 C   0  0  0  0  0  0
  -19.5751  -26.6384   21.5203 C   0  0  0  0  0  0
  -18.1930  -26.7924   22.1623 C   0  0  0  0  0  0
  -19.1538  -28.8854   23.2876 C   0  0  0  0  0  0
  -18.9464  -30.1457   23.8897 C   0  0  0  0  0  0
  -17.6464  -30.6587   24.0562 C   0  0  0  0  0  0
  -25.9049  -34.9448   23.5100 C   0  0  0  0  0  0
  -16.5354  -29.9081   23.6336 C   0  0  0  0  0  0
  -16.7276  -28.6504   23.0350 C   0  0  0  0  0  0
  -26.4499  -31.6598   25.0745 C   0  0  0  0  0  0
  -25.3733  -31.3741   26.1473 C   0  0  0  0  0  0
  -27.0357  -30.3014   24.6236 C   0  0  0  0  0  0
  -27.6052  -32.4353   25.7507 C   0  0  0  0  0  0
  -27.5569  -37.1800   24.8471 C   0  0  0  0  0  0
  -21.4191  -29.3037   22.3674 N   0  0  0  0  0  0
  -26.4285  -37.3773   23.9407 N   0  0  0  0  0  0
  -24.6892  -31.0591   22.0998 N   0  0  0  0  0  0
  -23.4194  -28.8151   23.3015 O   0  0  0  0  0  0
  -28.3553  -26.4671   20.1546 O   0  0  0  0  0  0
  -26.5628  -34.8914   22.4672 O   0  0  0  0  0  0
  -23.5425  -32.1396   23.7355 O   0  0  0  0  0  0
  -28.6046  -19.2508   20.5854 C   0  0  0  0  0  0
  -31.0011  -17.9160   20.5556 C   0  0  0  0  0  0
  -29.8409  -17.1140   20.6716 C   0  0  0  0  0  0
  -28.6290  -17.8370   20.6755 C   0  0  0  0  0  0
  -29.8066  -19.9929   20.4930 C   0  0  0  0  0  0
  -28.8735  -22.4110   20.2187 C   0  0  0  0  0  0
  -28.4857  -25.0210   18.2073 C   0  0  0  0  0  0
  -29.1889  -23.9532   20.4424 C   0  0  0  0  0  0
  -28.2552  -25.0424   19.7315 C   0  0  1  0  0  0
  -30.9771  -19.2868   20.4809 N   0  0  0  0  0  0
  -29.7771  -15.6631   20.8353 N   0  0  0  0  0  0
  -29.8287  -21.4599   20.4911 N   0  0  0  0  0  0
  -27.7576  -22.1026   19.7924 O   0  0  0  0  0  0
  -27.4624  -17.1552   20.7782 F   0  0  0  0  0  0
  -31.4863  -12.5226   19.1472 H   0  0  0  0  0  0
  -30.3880  -11.3941   19.8936 H   0  0  0  0  0  0
  -29.7719  -11.7446   17.4841 H   0  0  0  0  0  0
  -29.6527  -13.4653   17.7379 H   0  0  0  0  0  0
  -27.8665  -11.2896   18.8741 H   0  0  0  0  0  0
  -27.3757  -12.5721   17.7990 H   0  0  0  0  0  0
  -27.6709  -14.2481   19.5273 H   0  0  0  0  0  0
  -28.7143  -12.0335   21.3650 H   0  0  0  0  0  0
  -28.4520  -13.6813   21.8541 H   0  0  0  0  0  0
  -25.2756   -9.5657   22.4763 H   0  0  0  0  0  0
  -23.9984   -7.4612   22.7479 H   0  0  0  0  0  0
  -21.0821   -8.8776   19.8958 H   0  0  0  0  0  0
  -22.3695  -10.9667   19.6166 H   0  0  0  0  0  0
  -21.2007   -7.6146   23.9728 H   0  0  0  0  0  0
  -21.1487   -6.0521   25.9092 H   0  0  0  0  0  0
  -22.0589   -2.7604   23.2856 H   0  0  0  0  0  0
  -22.4093  -11.9888   22.4823 H   0  0  0  0  0  0
  -21.1108  -13.1271   22.2624 H   0  0  0  0  0  0
  -24.6488  -15.8292   20.5811 H   0  0  0  0  0  0
  -26.2865  -15.6660   20.2275 H   0  0  0  0  0  0
  -26.7172  -32.5443   23.1110 H   0  0  0  0  0  0
  -25.0051  -33.9736   25.0408 H   0  0  0  0  0  0
  -22.7158  -31.3056   21.4062 H   0  0  0  0  0  0
  -23.3738  -35.9627   23.3322 H   0  0  0  0  0  0
  -24.3565  -36.8897   22.2052 H   0  0  0  0  0  0
  -23.7244  -37.6498   23.6660 H   0  0  0  0  0  0
  -26.1078  -31.5473   20.6167 H   0  0  0  0  0  0
  -26.8404  -30.8239   22.0181 H   0  0  0  0  0  0
  -28.1121  -28.9628   21.1995 H   0  0  0  0  0  0
  -25.9465  -25.9610   18.9486 H   0  0  0  0  0  0
  -23.9695  -27.3299   18.9909 H   0  0  0  0  0  0
  -23.7550  -30.6001   19.4063 H   0  0  0  0  0  0
  -22.7554  -29.2524   19.8593 H   0  0  0  0  0  0
  -25.1286  -36.1926   25.0818 H   0  0  0  0  0  0
  -20.9992  -28.3260   24.1393 H   0  0  0  0  0  0
  -20.5659  -26.2298   23.3606 H   0  0  0  0  0  0
  -21.6640  -26.7424   22.1209 H   0  0  0  0  0  0
  -19.6911  -25.6293   21.1237 H   0  0  0  0  0  0
  -19.6683  -27.3193   20.6730 H   0  0  0  0  0  0
  -17.4192  -26.6661   21.4036 H   0  0  0  0  0  0
  -18.0344  -26.0070   22.9026 H   0  0  0  0  0  0
  -19.7942  -30.7270   24.2263 H   0  0  0  0  0  0
  -17.5020  -31.6269   24.5159 H   0  0  0  0  0  0
  -15.5356  -30.2983   23.7666 H   0  0  0  0  0  0
  -15.8675  -28.0829   22.7058 H   0  0  0  0  0  0
  -24.5895  -30.7108   25.7798 H   0  0  0  0  0  0
  -24.8947  -32.2912   26.4915 H   0  0  0  0  0  0
  -25.8052  -30.8900   27.0240 H   0  0  0  0  0  0
  -26.2947  -29.6760   24.1243 H   0  0  0  0  0  0
  -27.4019  -29.7281   25.4765 H   0  0  0  0  0  0
  -27.8830  -30.4292   23.9497 H   0  0  0  0  0  0
  -27.2648  -33.3649   26.2079 H   0  0  0  0  0  0
  -28.3846  -32.6928   25.0325 H   0  0  0  0  0  0
  -28.0739  -31.8498   26.5426 H   0  0  0  0  0  0
  -28.2599  -38.0082   24.7492 H   0  0  0  0  0  0
  -28.1049  -36.2614   24.6319 H   0  0  0  0  0  0
  -27.2294  -37.1475   25.8878 H   0  0  0  0  0  0
  -20.9370  -29.8761   21.6885 H   0  0  0  0  0  0
  -26.0166  -38.2846   24.1401 H   0  0  0  0  0  0
  -27.6466  -19.7463   20.6161 H   0  0  0  0  0  0
  -31.9829  -17.4665   20.5541 H   0  0  0  0  0  0
  -27.8574  -25.7400   17.6827 H   0  0  0  0  0  0
  -28.2706  -24.0397   17.7847 H   0  0  0  0  0  0
  -29.5212  -25.2643   17.9683 H   0  0  0  0  0  0
  -30.2278  -24.1372   20.1701 H   0  0  0  0  0  0
  -29.1354  -24.1188   21.5181 H   0  0  0  0  0  0
  -27.2473  -24.6929   19.9497 H   0  0  0  0  0  0
  -28.8575  -15.3333   21.0913 H   0  0  0  0  0  0
  -30.7286  -21.8472   20.7360 H   0  0  0  0  0  0
  1 25  1  0  0  0
  1 30  2  0  0  0
  1 81  1  0  0  0
  2  3  1  0  0  0
  2 25  1  0  0  0
  2 85  1  0  0  0
  2 86  1  0  0  0
  3  4  1  0  0  0
  3 87  1  0  0  0
  3 88  1  0  0  0
  4  5  1  0  0  0
  4 89  1  0  0  0
  4 90  1  0  0  0
  5  6  1  0  0  0
  5 26  1  0  0  0
  5 91  1  0  0  0
  6 25  1  0  0  0
  6 92  1  0  0  0
  6 93  1  0  0  0
  7  8  2  0  0  0
  7 26  1  0  0  0
  7 29  1  0  0  0
  8  9  1  0  0  0
  8 22  1  0  0  0
  9 10  1  0  0  0
  9 27  2  0  0  0
 10 11  2  0  0  0
 10 15  1  0  0  0
 11 12  1  0  0  0
 11 94  1  0  0  0
 12 13  2  0  0  0
 12 95  1  0  0  0
 13 14  1  0  0  0
 13 31  1  0  0  0
 14 15  2  0  0  0
 14 96  1  0  0  0
 15 97  1  0  0  0
 16 17  2  0  0  0
 16 21  1  0  0  0
 16 31  1  0  0  0
 17 18  1  0  0  0
 17 98  1  0  0  0
 18 19  2  0  0  0
 18 99  1  0  0  0
 19 20  1  0  0  0
 19 24  1  0  0  0
 20 21  2  0  0  0
 20100  1  0  0  0
 21 23  1  0  0  0
 22 28  1  0  0  0
 22 32  2  0  0  0
 26 27  1  0  0  0
 28101  1  0  0  0
 28102  1  0  0  0
 29103  1  0  0  0
 29104  1  0  0  0
 33 34  1  0  0  0
 33 66  1  0  0  0
 33 70  2  0  0  0
 34 36  1  0  0  0
 34 59  1  0  0  0
 34105  1  0  0  0
 35 44  2  0  0  0
 35 45  1  0  0  0
 35 68  1  0  0  0
 36 56  1  0  0  0
 36106  1  0  0  0
 37 39  1  0  0  0
 37 47  1  0  0  0
 37 66  1  0  0  0
 37107  1  0  0  0
 38 43  2  0  0  0
 38 46  1  0  0  0
 38 47  1  0  0  0
 39 64  1  0  0  0
 39 67  2  0  0  0
 40 52  1  0  0  0
 40 53  2  0  0  0
 40 58  1  0  0  0
 41108  1  0  0  0
 41109  1  0  0  0
 41110  1  0  0  0
 41 48  1  0  0  0
 42 43  1  0  0  0
 42 66  1  0  0  0
 42111  1  0  0  0
 42112  1  0  0  0
 43 44  1  0  0  0
 44113  1  0  0  0
 45 46  2  0  0  0
 45114  1  0  0  0
 46115  1  0  0  0
 47116  1  0  0  0
 47117  1  0  0  0
 48 56  1  0  0  0
 48 65  1  0  0  0
 48118  1  0  0  0
 49 50  1  0  0  0
 49 53  1  0  0  0
 49 64  1  0  0  0
 49119  1  0  0  0
 50 51  1  0  0  0
 50120  1  0  0  0
 50121  1  0  0  0
 51 52  1  0  0  0
 51122  1  0  0  0
 51123  1  0  0  0
 52124  1  0  0  0
 52125  1  0  0  0
 53 54  1  0  0  0
 54 55  2  0  0  0
 54126  1  0  0  0
 55 57  1  0  0  0
 55127  1  0  0  0
 56 69  2  0  0  0
 57 58  2  0  0  0
 57128  1  0  0  0
 58129  1  0  0  0
 59 60  1  0  0  0
 59 61  1  0  0  0
 59 62  1  0  0  0
 60130  1  0  0  0
 60131  1  0  0  0
 60132  1  0  0  0
 61133  1  0  0  0
 61134  1  0  0  0
 61135  1  0  0  0
 62136  1  0  0  0
 62137  1  0  0  0
 62138  1  0  0  0
 63 65  1  0  0  0
 63139  1  0  0  0
 63140  1  0  0  0
 63141  1  0  0  0
 64142  1  0  0  0
 65143  1  0  0  0
 68 79  1  0  0  0
 71 74  2  0  0  0
 71 75  1  0  0  0
 71144  1  0  0  0
 72 73  2  0  0  0
 72 80  1  0  0  0
 72145  1  0  0  0
 73 74  1  0  0  0
 73 81  1  0  0  0
 74 84  1  0  0  0
 75 80  2  0  0  0
 75 82  1  0  0  0
 76 78  1  0  0  0
 76 82  1  0  0  0
 76 83  2  0  0  0
 77146  1  0  0  0
 77147  1  0  0  0
 77148  1  0  0  0
 77 79  1  0  0  0
 78 79  1  0  0  0
 78149  1  0  0  0
 78150  1  0  0  0
 79151  1  0  0  0
 81152  1  0  0  0
 82153  1  0  0  0
M  ISO  4   1 100  68 101  79 101  81 100
M  END
> <chiral flag>
0

> <version>
0

> <s_m_source_file>
/data/baiqing/PycharmProjects/Reinvent-master-3.2/result/LINK_invent/BTK/process_docking_weight1_custom_product_contain_oxygen_bond_distance_aromatic_linkinvent_7_9_3/rearranged_h_0182.sdf

> <i_m_source_file_index>
58

> <r_mmod_Potential_Energy-OPLS-2005>
-241.240615844727

> <r_mmod_Stretch_Energy-OPLS-2005>
81.3766403198242

> <r_mmod_Bend_Energy-OPLS-2005>
152.049850463867

> <r_mmod_Torsional_Energy-OPLS-2005>
208.356323242188

> <r_mmod_Improper_Torsional_Energy-OPLS-2005>
4.72360706329346

> <r_mmod_Van_der_Waal_Energy-OPLS-2005>
152.030899047852

> <r_mmod_Electrostatic_Energy-OPLS-2005>
-665.829223632812

> <r_mmod_Solvation_Energy-OPLS-2005>
-224.085494995117

> <b_mmod_Minimization_Converged-OPLS-2005>
0

> <r_mmod_RMS_Derivative-OPLS-2005>
1.54812228679657

$$$$
58
                    3D
 Structure written by MMmdl.
153161  0  0  1  0            999 V2000
  -30.7201  -14.5004   20.5593 C   0  0  0  0  0  0
  -30.4144  -12.3243   19.4341 C   0  0  0  0  0  0
  -29.4941  -12.5003   18.2107 C   0  0  0  0  0  0
  -28.0159  -12.3602   18.6226 C   0  0  0  0  0  0
  -27.6553  -13.2166   19.8666 C   0  0  2  0  0  0
  -28.6977  -13.0428   20.9941 C   0  0  0  0  0  0
  -25.2538  -13.8162   20.5640 C   0  0  0  0  0  0
  -24.1819  -13.0430   20.9190 C   0  0  0  0  0  0
  -24.6394  -11.6905   20.8741 C   0  0  0  0  0  0
  -23.9062  -10.4290   21.0407 C   0  0  0  0  0  0
  -24.3614   -9.4209   21.9186 C   0  0  0  0  0  0
  -23.6296   -8.2242   22.0752 C   0  0  0  0  0  0
  -22.4280   -8.0278   21.3545 C   0  0  0  0  0  0
  -21.9913   -9.0249   20.4646 C   0  0  0  0  0  0
  -22.7235  -10.2131   20.3053 C   0  0  0  0  0  0
  -21.6850   -6.0738   22.5280 C   0  0  0  0  0  0
  -21.4013   -6.5640   23.8215 C   0  0  0  0  0  0
  -21.3659   -5.6792   24.9176 C   0  0  0  0  0  0
  -21.6044   -4.3056   24.7226 C   0  0  0  0  0  0
  -21.8819   -3.8151   23.4344 C   0  0  0  0  0  0
  -21.9193   -4.6967   22.3402 C   0  0  0  0  0  0
  -22.7840  -13.5223   21.1850 C   0  0  0  0  0  0
  -22.1668   -4.2156   21.0980 F   0  0  0  0  0  0
  -21.5624   -3.4536   25.7737 F   0  0  0  0  0  0
  -30.0236  -13.3367   20.4306 N   0  0  0  0  0  0
  -26.2992  -12.9359   20.3328 N   0  0  0  0  0  0
  -25.9326  -11.6512   20.5768 N   0  0  0  0  0  0
  -22.0471  -12.8209   22.0390 N   0  0  0  0  0  0
  -25.4205  -15.1861   20.3941 N   0  0  0  0  0  0
  -31.8605  -14.6304   20.1076 O   0  0  0  0  0  0
  -21.6639   -6.8880   21.4243 O   0  0  0  0  0  0
  -22.3526  -14.5532   20.6697 O   0  0  0  0  0  0
  -24.6171  -31.8675   23.2093 C   0  0  0  0  0  0
  -25.9062  -32.4816   23.8386 C   0  0  1  0  0  0
  -27.2240  -27.4133   20.1012 C   0  0  0  0  0  0
  -25.5915  -33.8614   24.2323 N   0  0  0  0  0  0
  -23.4056  -30.4928   21.5497 C   0  0  2  0  0  0
  -24.8520  -28.9597   20.1108 C   0  0  0  0  0  0
  -22.7419  -29.4662   22.4976 C   0  0  0  0  0  0
  -18.0276  -28.1382   22.8484 C   0  0  0  0  0  0
  -24.1487  -36.7304   23.2631 C   0  0  0  0  0  0
  -25.9372  -30.8279   21.3651 C   0  0  0  0  0  0
  -26.0149  -29.4613   20.7106 C   0  0  0  0  0  0
  -27.2075  -28.6955   20.7031 C   0  0  0  0  0  0
  -26.0469  -26.9382   19.4837 C   0  0  0  0  0  0
  -24.8636  -27.6984   19.4925 C   0  0  0  0  0  0
  -23.6149  -29.8283   20.1632 C   0  0  0  0  0  0
  -25.4103  -36.3104   24.0339 C   0  0  1  0  0  0
  -20.5867  -28.3666   23.1322 C   0  0  2  0  0  0
  -20.6763  -26.9400   22.5429 C   0  0  0  0  0  0
  -19.5754  -26.6399   21.5209 C   0  0  0  0  0  0
  -18.1926  -26.7937   22.1603 C   0  0  0  0  0  0
  -19.1523  -28.8839   23.2902 C   0  0  0  0  0  0
  -18.9451  -30.1445   23.8914 C   0  0  0  0  0  0
  -17.6453  -30.6582   24.0568 C   0  0  0  0  0  0
  -25.9039  -34.9472   23.5126 C   0  0  0  0  0  0
  -16.5342  -29.9084   23.6329 C   0  0  0  0  0  0
  -16.7265  -28.6505   23.0342 C   0  0  0  0  0  0
  -26.4486  -31.6595   25.0719 C   0  0  0  0  0  0
  -25.3756  -31.3727   26.1477 C   0  0  0  0  0  0
  -27.0292  -30.3026   24.6102 C   0  0  0  0  0  0
  -27.6080  -32.4301   25.7465 C   0  0  0  0  0  0
  -27.5599  -37.1788   24.8439 C   0  0  0  0  0  0
  -21.4144  -29.3035   22.3721 N   0  0  0  0  0  0
  -26.4278  -37.3803   23.9433 N   0  0  0  0  0  0
  -24.6715  -31.0765   22.0998 N   0  0  0  0  0  0
  -23.4184  -28.8203   23.3022 O   0  0  0  0  0  0
  -28.3432  -26.6028   20.1257 O   0  0  0  0  0  0
  -26.5591  -34.8929   22.4682 O   0  0  0  0  0  0
  -23.5359  -32.1434   23.7481 O   0  0  0  0  0  0
  -28.2615  -19.8129   21.3809 C   0  0  0  0  0  0
  -28.6211  -18.4445   21.6367 C   0  0  0  0  0  0
  -29.8811  -18.1297   21.1814 C   0  0  0  0  0  0
  -29.2316  -20.5662   20.7549 C   0  0  0  0  0  0
  -28.1418  -25.3301   20.6386 C   0  0  0  0  0  0
  -28.8147  -24.2164   20.2589 C   0  0  0  0  0  0
  -28.4812  -22.9110   20.8627 C   0  0  0  0  0  0
  -27.7241  -17.4892   22.3646 C   0  0  0  0  0  0
  -30.7099  -16.8679   21.3634 C   0  0  0  0  0  0
  -29.2461  -21.8925   20.4045 N   0  0  0  0  0  0
  -30.0724  -15.5577   21.0973 N   0  0  0  0  0  0
  -27.5948  -22.7452   21.7054 O   0  0  0  0  0  0
  -29.7764  -24.3037   19.3261 O   0  0  0  0  0  0
  -30.5992  -19.5303   20.4006 S   0  0  0  0  0  0
  -31.4604  -12.4073   19.1339 H   0  0  0  0  0  0
  -30.3056  -11.3237   19.8549 H   0  0  0  0  0  0
  -29.7411  -11.7648   17.4436 H   0  0  0  0  0  0
  -29.6625  -13.4798   17.7596 H   0  0  0  0  0  0
  -27.8312  -11.3060   18.8339 H   0  0  0  0  0  0
  -27.3658  -12.6193   17.7866 H   0  0  0  0  0  0
  -27.6876  -14.2585   19.5467 H   0  0  0  0  0  0
  -28.6793  -12.0219   21.3784 H   0  0  0  0  0  0
  -28.4587  -13.6840   21.8440 H   0  0  0  0  0  0
  -25.2762   -9.5692   22.4757 H   0  0  0  0  0  0
  -24.0014   -7.4631   22.7464 H   0  0  0  0  0  0
  -21.0849   -8.8764   19.8949 H   0  0  0  0  0  0
  -22.3696  -10.9665   19.6156 H   0  0  0  0  0  0
  -21.2006   -7.6150   23.9718 H   0  0  0  0  0  0
  -21.1478   -6.0522   25.9079 H   0  0  0  0  0  0
  -22.0594   -2.7614   23.2838 H   0  0  0  0  0  0
  -22.4070  -11.9853   22.4764 H   0  0  0  0  0  0
  -21.1081  -13.1233   22.2572 H   0  0  0  0  0  0
  -24.6459  -15.8354   20.4799 H   0  0  0  0  0  0
  -26.2563  -15.6136   20.0167 H   0  0  0  0  0  0
  -26.7132  -32.5530   23.1146 H   0  0  0  0  0  0
  -25.0092  -33.9772   25.0485 H   0  0  0  0  0  0
  -22.6948  -31.3105   21.4119 H   0  0  0  0  0  0
  -23.3773  -35.9607   23.3241 H   0  0  0  0  0  0
  -24.3609  -36.8968   22.2058 H   0  0  0  0  0  0
  -23.7195  -37.6479   23.6666 H   0  0  0  0  0  0
  -26.0527  -31.5945   20.5973 H   0  0  0  0  0  0
  -26.8240  -30.8803   21.9845 H   0  0  0  0  0  0
  -28.1034  -29.0716   21.1768 H   0  0  0  0  0  0
  -26.0405  -25.9677   19.0080 H   0  0  0  0  0  0
  -23.9701  -27.3083   19.0249 H   0  0  0  0  0  0
  -23.7226  -30.6046   19.4044 H   0  0  0  0  0  0
  -22.7382  -29.2492   19.8675 H   0  0  0  0  0  0
  -25.1265  -36.1958   25.0829 H   0  0  0  0  0  0
  -20.9967  -28.3235   24.1437 H   0  0  0  0  0  0
  -20.5660  -26.2264   23.3611 H   0  0  0  0  0  0
  -21.6636  -26.7447   22.1233 H   0  0  0  0  0  0
  -19.6918  -25.6320   21.1218 H   0  0  0  0  0  0
  -19.6714  -27.3225   20.6752 H   0  0  0  0  0  0
  -17.4213  -26.6711   21.3984 H   0  0  0  0  0  0
  -18.0308  -26.0068   22.8984 H   0  0  0  0  0  0
  -19.7927  -30.7253   24.2293 H   0  0  0  0  0  0
  -17.5011  -31.6265   24.5169 H   0  0  0  0  0  0
  -15.5343  -30.2984   23.7657 H   0  0  0  0  0  0
  -15.8666  -28.0834   22.7035 H   0  0  0  0  0  0
  -24.5922  -30.7069   25.7836 H   0  0  0  0  0  0
  -24.8950  -32.2893   26.4912 H   0  0  0  0  0  0
  -25.8122  -30.8919   27.0240 H   0  0  0  0  0  0
  -26.2821  -29.6805   24.1160 H   0  0  0  0  0  0
  -27.4050  -29.7252   25.4559 H   0  0  0  0  0  0
  -27.8671  -30.4320   23.9246 H   0  0  0  0  0  0
  -27.2730  -33.3620   26.2029 H   0  0  0  0  0  0
  -28.3890  -32.6825   25.0279 H   0  0  0  0  0  0
  -28.0740  -31.8423   26.5384 H   0  0  0  0  0  0
  -28.2546  -38.0156   24.7593 H   0  0  0  0  0  0
  -28.1158  -36.2695   24.6096 H   0  0  0  0  0  0
  -27.2352  -37.1252   25.8847 H   0  0  0  0  0  0
  -20.9293  -29.8745   21.6948 H   0  0  0  0  0  0
  -26.0161  -38.2864   24.1504 H   0  0  0  0  0  0
  -27.3016  -20.1985   21.6943 H   0  0  0  0  0  0
  -27.3630  -25.3125   21.3921 H   0  0  0  0  0  0
  -26.9668  -18.0137   22.9475 H   0  0  0  0  0  0
  -28.2815  -16.8581   23.0573 H   0  0  0  0  0  0
  -27.2009  -16.8357   21.6690 H   0  0  0  0  0  0
  -31.0665  -16.8408   22.3937 H   0  0  0  0  0  0
  -31.6137  -16.9758   20.7616 H   0  0  0  0  0  0
  -29.9637  -22.1906   19.7553 H   0  0  0  0  0  0
  -29.1234  -15.4197   21.4062 H   0  0  0  0  0  0
  -29.8247  -25.2165   19.0711 H   0  0  0  0  0  0
  1 25  1  0  0  0
  1 30  2  0  0  0
  1 81  1  0  0  0
  2  3  1  0  0  0
  2 25  1  0  0  0
  2 85  1  0  0  0
  2 86  1  0  0  0
  3  4  1  0  0  0
  3 87  1  0  0  0
  3 88  1  0  0  0
  4  5  1  0  0  0
  4 89  1  0  0  0
  4 90  1  0  0  0
  5  6  1  0  0  0
  5 26  1  0  0  0
  5 91  1  0  0  0
  6 25  1  0  0  0
  6 92  1  0  0  0
  6 93  1  0  0  0
  7  8  2  0  0  0
  7 26  1  0  0  0
  7 29  1  0  0  0
  8  9  1  0  0  0
  8 22  1  0  0  0
  9 10  1  0  0  0
  9 27  2  0  0  0
 10 11  2  0  0  0
 10 15  1  0  0  0
 11 12  1  0  0  0
 11 94  1  0  0  0
 12 13  2  0  0  0
 12 95  1  0  0  0
 13 14  1  0  0  0
 13 31  1  0  0  0
 14 15  2  0  0  0
 14 96  1  0  0  0
 15 97  1  0  0  0
 16 17  2  0  0  0
 16 21  1  0  0  0
 16 31  1  0  0  0
 17 18  1  0  0  0
 17 98  1  0  0  0
 18 19  2  0  0  0
 18 99  1  0  0  0
 19 20  1  0  0  0
 19 24  1  0  0  0
 20 21  2  0  0  0
 20100  1  0  0  0
 21 23  1  0  0  0
 22 28  1  0  0  0
 22 32  2  0  0  0
 26 27  1  0  0  0
 28101  1  0  0  0
 28102  1  0  0  0
 29103  1  0  0  0
 29104  1  0  0  0
 33 34  1  0  0  0
 33 66  1  0  0  0
 33 70  2  0  0  0
 34 36  1  0  0  0
 34 59  1  0  0  0
 34105  1  0  0  0
 35 44  2  0  0  0
 35 45  1  0  0  0
 35 68  1  0  0  0
 36 56  1  0  0  0
 36106  1  0  0  0
 37 39  1  0  0  0
 37 47  1  0  0  0
 37 66  1  0  0  0
 37107  1  0  0  0
 38 43  2  0  0  0
 38 46  1  0  0  0
 38 47  1  0  0  0
 39 64  1  0  0  0
 39 67  2  0  0  0
 40 52  1  0  0  0
 40 53  2  0  0  0
 40 58  1  0  0  0
 41108  1  0  0  0
 41109  1  0  0  0
 41110  1  0  0  0
 41 48  1  0  0  0
 42 43  1  0  0  0
 42 66  1  0  0  0
 42111  1  0  0  0
 42112  1  0  0  0
 43 44  1  0  0  0
 44113  1  0  0  0
 45 46  2  0  0  0
 45114  1  0  0  0
 46115  1  0  0  0
 47116  1  0  0  0
 47117  1  0  0  0
 48 56  1  0  0  0
 48 65  1  0  0  0
 48118  1  0  0  0
 49 50  1  0  0  0
 49 53  1  0  0  0
 49 64  1  0  0  0
 49119  1  0  0  0
 50 51  1  0  0  0
 50120  1  0  0  0
 50121  1  0  0  0
 51 52  1  0  0  0
 51122  1  0  0  0
 51123  1  0  0  0
 52124  1  0  0  0
 52125  1  0  0  0
 53 54  1  0  0  0
 54 55  2  0  0  0
 54126  1  0  0  0
 55 57  1  0  0  0
 55127  1  0  0  0
 56 69  2  0  0  0
 57 58  2  0  0  0
 57128  1  0  0  0
 58129  1  0  0  0
 59 60  1  0  0  0
 59 61  1  0  0  0
 59 62  1  0  0  0
 60130  1  0  0  0
 60131  1  0  0  0
 60132  1  0  0  0
 61133  1  0  0  0
 61134  1  0  0  0
 61135  1  0  0  0
 62136  1  0  0  0
 62137  1  0  0  0
 62138  1  0  0  0
 63 65  1  0  0  0
 63139  1  0  0  0
 63140  1  0  0  0
 63141  1  0  0  0
 64142  1  0  0  0
 65143  1  0  0  0
 68 75  1  0  0  0
 71 72  1  0  0  0
 71 74  2  0  0  0
 71144  1  0  0  0
 72 73  2  0  0  0
 72 78  1  0  0  0
 73 79  1  0  0  0
 73 84  1  0  0  0
 74 80  1  0  0  0
 74 84  1  0  0  0
 75 76  2  0  0  0
 75145  1  0  0  0
 76 77  1  0  0  0
 76 83  1  0  0  0
 77 80  1  0  0  0
 77 82  2  0  0  0
 78146  1  0  0  0
 78147  1  0  0  0
 78148  1  0  0  0
 79 81  1  0  0  0
 79149  1  0  0  0
 79150  1  0  0  0
 80151  1  0  0  0
 81152  1  0  0  0
 83153  1  0  0  0
M  ISO  4   1 100  68 101  75 101  81 100
M  END
> <chiral flag>
0

> <version>
0

> <s_m_source_file>
/data/baiqing/PycharmProjects/Reinvent-master-3.2/result/LINK_invent/BTK/process_docking_weight1_custom_product_contain_oxygen_bond_distance_aromatic_linkinvent_7_9_3/rearranged_h_0182.sdf

> <i_m_source_file_index>
59

> <r_mmod_Potential_Energy-OPLS-2005>
-175.815765380859

> <r_mmod_Stretch_Energy-OPLS-2005>
40.2806167602539

> <r_mmod_Bend_Energy-OPLS-2005>
107.742904663086

> <r_mmod_Torsional_Energy-OPLS-2005>
199.692886352539

> <r_mmod_Improper_Torsional_Energy-OPLS-2005>
3.29087972640991

> <r_mmod_Van_der_Waal_Energy-OPLS-2005>
136.253967285156

> <r_mmod_Electrostatic_Energy-OPLS-2005>
-465.778594970703

> <r_mmod_Solvation_Energy-OPLS-2005>
-216.889373779297

> <b_mmod_Minimization_Converged-OPLS-2005>
0

> <r_mmod_RMS_Derivative-OPLS-2005>
0.993036031723022

$$$$
59
                    3D
 Structure written by MMmdl.
153161  0  0  1  0            999 V2000
  -30.5842  -14.7983   20.4333 C   0  0  0  0  0  0
  -30.4355  -12.4841   19.4868 C   0  0  0  0  0  0
  -29.5159  -12.5149   18.2448 C   0  0  0  0  0  0
  -28.0424  -12.3299   18.6558 C   0  0  0  0  0  0
  -27.6388  -13.2366   19.8490 C   0  0  2  0  0  0
  -28.6811  -13.1913   20.9873 C   0  0  0  0  0  0
  -25.2500  -13.8204   20.5702 C   0  0  0  0  0  0
  -24.1798  -13.0439   20.9212 C   0  0  0  0  0  0
  -24.6394  -11.6917   20.8742 C   0  0  0  0  0  0
  -23.9074  -10.4289   21.0395 C   0  0  0  0  0  0
  -24.3627   -9.4207   21.9172 C   0  0  0  0  0  0
  -23.6305   -8.2241   22.0747 C   0  0  0  0  0  0
  -22.4285   -8.0275   21.3544 C   0  0  0  0  0  0
  -21.9917   -9.0243   20.4643 C   0  0  0  0  0  0
  -22.7240  -10.2126   20.3050 C   0  0  0  0  0  0
  -21.6856   -6.0737   22.5285 C   0  0  0  0  0  0
  -21.4010   -6.5640   23.8219 C   0  0  0  0  0  0
  -21.3662   -5.6791   24.9179 C   0  0  0  0  0  0
  -21.6045   -4.3055   24.7229 C   0  0  0  0  0  0
  -21.8817   -3.8149   23.4349 C   0  0  0  0  0  0
  -21.9191   -4.6964   22.3403 C   0  0  0  0  0  0
  -22.7815  -13.5209   21.1874 C   0  0  0  0  0  0
  -22.1660   -4.2150   21.0976 F   0  0  0  0  0  0
  -21.5633   -3.4539   25.7741 F   0  0  0  0  0  0
  -29.9787  -13.5564   20.4057 N   0  0  0  0  0  0
  -26.2926  -12.9416   20.3270 N   0  0  0  0  0  0
  -25.9328  -11.6551   20.5742 N   0  0  0  0  0  0
  -22.0460  -12.8201   22.0434 N   0  0  0  0  0  0
  -25.4166  -15.1934   20.4129 N   0  0  0  0  0  0
  -31.7837  -14.8722   20.1523 O   0  0  0  0  0  0
  -21.6646   -6.8876   21.4245 O   0  0  0  0  0  0
  -22.3491  -14.5506   20.6712 O   0  0  0  0  0  0
  -24.6351  -31.8520   23.1958 C   0  0  0  0  0  0
  -25.9162  -32.4736   23.8313 C   0  0  1  0  0  0
  -27.2171  -27.2256   20.1425 C   0  0  0  0  0  0
  -25.5945  -33.8540   24.2235 N   0  0  0  0  0  0
  -23.4337  -30.4735   21.5398 C   0  0  2  0  0  0
  -24.8814  -28.9120   20.1128 C   0  0  0  0  0  0
  -22.7521  -29.4590   22.4902 C   0  0  0  0  0  0
  -18.0289  -28.1393   22.8480 C   0  0  0  0  0  0
  -24.1488  -36.7272   23.2635 C   0  0  0  0  0  0
  -25.9820  -30.7531   21.3816 C   0  0  0  0  0  0
  -26.0540  -29.3707   20.7275 C   0  0  0  0  0  0
  -27.2254  -28.5402   20.7312 C   0  0  0  0  0  0
  -26.0246  -26.8448   19.4916 C   0  0  0  0  0  0
  -24.8730  -27.6576   19.4828 C   0  0  0  0  0  0
  -23.6551  -29.8054   20.1570 C   0  0  0  0  0  0
  -25.4116  -36.3060   24.0322 C   0  0  1  0  0  0
  -20.5895  -28.3713   23.1261 C   0  0  2  0  0  0
  -20.6780  -26.9425   22.5411 C   0  0  0  0  0  0
  -19.5759  -26.6389   21.5215 C   0  0  0  0  0  0
  -18.1935  -26.7936   22.1617 C   0  0  0  0  0  0
  -19.1542  -28.8871   23.2863 C   0  0  0  0  0  0
  -18.9464  -30.1467   23.8889 C   0  0  0  0  0  0
  -17.6465  -30.6595   24.0564 C   0  0  0  0  0  0
  -25.9068  -34.9432   23.5085 C   0  0  0  0  0  0
  -16.5356  -29.9094   23.6332 C   0  0  0  0  0  0
  -16.7276  -28.6510   23.0355 C   0  0  0  0  0  0
  -26.4512  -31.6570   25.0718 C   0  0  0  0  0  0
  -25.3724  -31.3756   26.1437 C   0  0  0  0  0  0
  -27.0339  -30.2965   24.6245 C   0  0  0  0  0  0
  -27.6070  -32.4306   25.7486 C   0  0  0  0  0  0
  -27.5592  -37.1774   24.8450 C   0  0  0  0  0  0
  -21.4226  -29.3048   22.3644 N   0  0  0  0  0  0
  -26.4277  -37.3775   23.9433 N   0  0  0  0  0  0
  -24.7027  -31.0454   22.0950 N   0  0  0  0  0  0
  -23.4201  -28.8135   23.3021 O   0  0  0  0  0  0
  -28.2938  -26.2987   20.1611 O   0  0  0  0  0  0
  -26.5652  -34.8918   22.4661 O   0  0  0  0  0  0
  -23.5495  -32.1353   23.7238 O   0  0  0  0  0  0
  -30.5752  -19.3703   19.1527 C   0  0  0  0  0  0
  -30.6629  -17.9111   19.2427 C   0  0  0  0  0  0
  -29.7040  -20.0112   20.0217 C   0  0  0  0  0  0
  -29.9336  -17.3133   20.2647 C   0  0  0  0  0  0
  -28.0621  -24.8998   20.4225 C   0  0  0  0  0  0
  -28.8879  -23.8100   20.1391 C   0  0  0  0  0  0
  -28.5867  -22.3468   20.4708 C   0  0  0  0  0  0
  -31.3713  -20.1433   18.1293 C   0  0  0  0  0  0
  -31.4798  -17.1298   18.2460 C   0  0  0  0  0  0
  -29.5256  -21.4210   20.0380 N   0  0  0  0  0  0
  -29.7913  -15.9407   20.6174 N   0  0  0  0  0  0
  -27.5808  -21.9798   21.0807 O   0  0  0  0  0  0
  -30.0501  -24.0659   19.5198 O   0  0  0  0  0  0
  -29.0142  -18.6839   21.0260 S   0  0  0  0  0  0
  -31.4766  -12.6135   19.1855 H   0  0  0  0  0  0
  -30.3889  -11.5121   19.9799 H   0  0  0  0  0  0
  -29.8086  -11.7381   17.5375 H   0  0  0  0  0  0
  -29.6346  -13.4660   17.7229 H   0  0  0  0  0  0
  -27.9079  -11.2821   18.9259 H   0  0  0  0  0  0
  -27.3855  -12.5083   17.8035 H   0  0  0  0  0  0
  -27.6262  -14.2549   19.4594 H   0  0  0  0  0  0
  -28.7250  -12.1980   21.4359 H   0  0  0  0  0  0
  -28.4069  -13.8773   21.7905 H   0  0  0  0  0  0
  -25.2764   -9.5697   22.4753 H   0  0  0  0  0  0
  -24.0016   -7.4636   22.7466 H   0  0  0  0  0  0
  -21.0850   -8.8755   19.8952 H   0  0  0  0  0  0
  -22.3680  -10.9667   19.6170 H   0  0  0  0  0  0
  -21.1999   -7.6148   23.9726 H   0  0  0  0  0  0
  -21.1490   -6.0518   25.9080 H   0  0  0  0  0  0
  -22.0597   -2.7613   23.2847 H   0  0  0  0  0  0
  -22.4068  -11.9870   22.4844 H   0  0  0  0  0  0
  -21.1070  -13.1222   22.2621 H   0  0  0  0  0  0
  -24.6447  -15.8422   20.5232 H   0  0  0  0  0  0
  -26.2590  -15.6382   20.0725 H   0  0  0  0  0  0
  -26.7231  -32.5370   23.1051 H   0  0  0  0  0  0
  -25.0077  -33.9669   25.0370 H   0  0  0  0  0  0
  -22.7326  -31.2970   21.3915 H   0  0  0  0  0  0
  -23.3772  -35.9578   23.3248 H   0  0  0  0  0  0
  -24.3590  -36.8950   22.2059 H   0  0  0  0  0  0
  -23.7204  -37.6441   23.6693 H   0  0  0  0  0  0
  -26.1256  -31.5100   20.6091 H   0  0  0  0  0  0
  -26.8580  -30.8037   22.0167 H   0  0  0  0  0  0
  -28.1233  -28.8872   21.2230 H   0  0  0  0  0  0
  -25.9706  -25.8828   19.0020 H   0  0  0  0  0  0
  -23.9774  -27.3018   18.9920 H   0  0  0  0  0  0
  -23.7870  -30.5811   19.4018 H   0  0  0  0  0  0
  -22.7712  -29.2443   19.8477 H   0  0  0  0  0  0
  -25.1291  -36.1893   25.0812 H   0  0  0  0  0  0
  -20.9980  -28.3300   24.1386 H   0  0  0  0  0  0
  -20.5679  -26.2329   23.3627 H   0  0  0  0  0  0
  -21.6654  -26.7448   22.1211 H   0  0  0  0  0  0
  -19.6930  -25.6297   21.1253 H   0  0  0  0  0  0
  -19.6702  -27.3195   20.6744 H   0  0  0  0  0  0
  -17.4212  -26.6681   21.4016 H   0  0  0  0  0  0
  -18.0330  -26.0077   22.9009 H   0  0  0  0  0  0
  -19.7940  -30.7282   24.2261 H   0  0  0  0  0  0
  -17.5019  -31.6274   24.5165 H   0  0  0  0  0  0
  -15.5356  -30.2998   23.7664 H   0  0  0  0  0  0
  -15.8669  -28.0830   22.7083 H   0  0  0  0  0  0
  -24.5896  -30.7104   25.7776 H   0  0  0  0  0  0
  -24.8922  -32.2939   26.4826 H   0  0  0  0  0  0
  -25.8028  -30.8957   27.0234 H   0  0  0  0  0  0
  -26.2921  -29.6713   24.1259 H   0  0  0  0  0  0
  -27.3969  -29.7240   25.4792 H   0  0  0  0  0  0
  -27.8832  -30.4199   23.9522 H   0  0  0  0  0  0
  -27.2694  -33.3631   26.2020 H   0  0  0  0  0  0
  -28.3902  -32.6815   25.0320 H   0  0  0  0  0  0
  -28.0704  -31.8445   26.5432 H   0  0  0  0  0  0
  -28.2551  -38.0128   24.7588 H   0  0  0  0  0  0
  -28.1143  -36.2668   24.6146 H   0  0  0  0  0  0
  -27.2333  -37.1269   25.8852 H   0  0  0  0  0  0
  -20.9429  -29.8757   21.6825 H   0  0  0  0  0  0
  -26.0147  -38.2831   24.1498 H   0  0  0  0  0  0
  -27.1103  -24.7494   20.9161 H   0  0  0  0  0  0
  -32.3716  -19.7291   18.0032 H   0  0  0  0  0  0
  -31.5159  -21.1884   18.4002 H   0  0  0  0  0  0
  -30.8813  -20.1241   17.1554 H   0  0  0  0  0  0
  -31.5896  -17.6510   17.2961 H   0  0  0  0  0  0
  -31.0121  -16.1783   17.9968 H   0  0  0  0  0  0
  -32.4825  -16.9307   18.6241 H   0  0  0  0  0  0
  -30.2479  -21.9213   19.5357 H   0  0  0  0  0  0
  -28.8931  -15.7154   21.0180 H   0  0  0  0  0  0
  -30.0858  -25.0051   19.3865 H   0  0  0  0  0  0
  1 25  1  0  0  0
  1 30  2  0  0  0
  1 81  1  0  0  0
  2  3  1  0  0  0
  2 25  1  0  0  0
  2 85  1  0  0  0
  2 86  1  0  0  0
  3  4  1  0  0  0
  3 87  1  0  0  0
  3 88  1  0  0  0
  4  5  1  0  0  0
  4 89  1  0  0  0
  4 90  1  0  0  0
  5  6  1  0  0  0
  5 26  1  0  0  0
  5 91  1  0  0  0
  6 25  1  0  0  0
  6 92  1  0  0  0
  6 93  1  0  0  0
  7  8  2  0  0  0
  7 26  1  0  0  0
  7 29  1  0  0  0
  8  9  1  0  0  0
  8 22  1  0  0  0
  9 10  1  0  0  0
  9 27  2  0  0  0
 10 11  2  0  0  0
 10 15  1  0  0  0
 11 12  1  0  0  0
 11 94  1  0  0  0
 12 13  2  0  0  0
 12 95  1  0  0  0
 13 14  1  0  0  0
 13 31  1  0  0  0
 14 15  2  0  0  0
 14 96  1  0  0  0
 15 97  1  0  0  0
 16 17  2  0  0  0
 16 21  1  0  0  0
 16 31  1  0  0  0
 17 18  1  0  0  0
 17 98  1  0  0  0
 18 19  2  0  0  0
 18 99  1  0  0  0
 19 20  1  0  0  0
 19 24  1  0  0  0
 20 21  2  0  0  0
 20100  1  0  0  0
 21 23  1  0  0  0
 22 28  1  0  0  0
 22 32  2  0  0  0
 26 27  1  0  0  0
 28101  1  0  0  0
 28102  1  0  0  0
 29103  1  0  0  0
 29104  1  0  0  0
 33 34  1  0  0  0
 33 66  1  0  0  0
 33 70  2  0  0  0
 34 36  1  0  0  0
 34 59  1  0  0  0
 34105  1  0  0  0
 35 44  2  0  0  0
 35 45  1  0  0  0
 35 68  1  0  0  0
 36 56  1  0  0  0
 36106  1  0  0  0
 37 39  1  0  0  0
 37 47  1  0  0  0
 37 66  1  0  0  0
 37107  1  0  0  0
 38 43  2  0  0  0
 38 46  1  0  0  0
 38 47  1  0  0  0
 39 64  1  0  0  0
 39 67  2  0  0  0
 40 52  1  0  0  0
 40 53  2  0  0  0
 40 58  1  0  0  0
 41108  1  0  0  0
 41109  1  0  0  0
 41110  1  0  0  0
 41 48  1  0  0  0
 42 43  1  0  0  0
 42 66  1  0  0  0
 42111  1  0  0  0
 42112  1  0  0  0
 43 44  1  0  0  0
 44113  1  0  0  0
 45 46  2  0  0  0
 45114  1  0  0  0
 46115  1  0  0  0
 47116  1  0  0  0
 47117  1  0  0  0
 48 56  1  0  0  0
 48 65  1  0  0  0
 48118  1  0  0  0
 49 50  1  0  0  0
 49 53  1  0  0  0
 49 64  1  0  0  0
 49119  1  0  0  0
 50 51  1  0  0  0
 50120  1  0  0  0
 50121  1  0  0  0
 51 52  1  0  0  0
 51122  1  0  0  0
 51123  1  0  0  0
 52124  1  0  0  0
 52125  1  0  0  0
 53 54  1  0  0  0
 54 55  2  0  0  0
 54126  1  0  0  0
 55 57  1  0  0  0
 55127  1  0  0  0
 56 69  2  0  0  0
 57 58  2  0  0  0
 57128  1  0  0  0
 58129  1  0  0  0
 59 60  1  0  0  0
 59 61  1  0  0  0
 59 62  1  0  0  0
 60130  1  0  0  0
 60131  1  0  0  0
 60132  1  0  0  0
 61133  1  0  0  0
 61134  1  0  0  0
 61135  1  0  0  0
 62136  1  0  0  0
 62137  1  0  0  0
 62138  1  0  0  0
 63 65  1  0  0  0
 63139  1  0  0  0
 63140  1  0  0  0
 63141  1  0  0  0
 64142  1  0  0  0
 65143  1  0  0  0
 68 75  1  0  0  0
 71 72  1  0  0  0
 71 73  2  0  0  0
 71 78  1  0  0  0
 72 74  2  0  0  0
 72 79  1  0  0  0
 73 80  1  0  0  0
 73 84  1  0  0  0
 74 81  1  0  0  0
 74 84  1  0  0  0
 75 76  2  0  0  0
 75144  1  0  0  0
 76 77  1  0  0  0
 76 83  1  0  0  0
 77 80  1  0  0  0
 77 82  2  0  0  0
 78145  1  0  0  0
 78146  1  0  0  0
 78147  1  0  0  0
 79148  1  0  0  0
 79149  1  0  0  0
 79150  1  0  0  0
 80151  1  0  0  0
 81152  1  0  0  0
 83153  1  0  0  0
M  ISO  4   1 100  68 101  75 101  81 100
M  END
> <chiral flag>
0

> <version>
0

> <s_m_source_file>
/data/baiqing/PycharmProjects/Reinvent-master-3.2/result/LINK_invent/BTK/process_docking_weight1_custom_product_contain_oxygen_bond_distance_aromatic_linkinvent_7_9_3/rearranged_h_0182.sdf

> <i_m_source_file_index>
60

> <r_mmod_Potential_Energy-OPLS-2005>
119.041542053223

> <r_mmod_Stretch_Energy-OPLS-2005>
132.506576538086

> <r_mmod_Bend_Energy-OPLS-2005>
202.732604980469

> <r_mmod_Torsional_Energy-OPLS-2005>
215.03254699707

> <r_mmod_Improper_Torsional_Energy-OPLS-2005>
4.04400205612183

> <r_mmod_Van_der_Waal_Energy-OPLS-2005>
123.692657470703

> <r_mmod_Electrostatic_Energy-OPLS-2005>
-447.559417724609

> <r_mmod_Solvation_Energy-OPLS-2005>
-220.829727172852

> <b_mmod_Minimization_Converged-OPLS-2005>
0

> <r_mmod_RMS_Derivative-OPLS-2005>
0.938981533050537

$$$$
60
                    3D
 Structure written by MMmdl.
154162  0  0  1  0            999 V2000
  -30.6722  -14.7412   20.4313 C   0  0  0  0  0  0
  -30.4383  -12.4414   19.4719 C   0  0  0  0  0  0
  -29.5188  -12.5224   18.2334 C   0  0  0  0  0  0
  -28.0407  -12.3558   18.6430 C   0  0  0  0  0  0
  -27.6540  -13.2386   19.8606 C   0  0  2  0  0  0
  -28.7122  -13.1888   20.9905 C   0  0  0  0  0  0
  -25.2561  -13.8170   20.5694 C   0  0  0  0  0  0
  -24.1908  -13.0423   20.9263 C   0  0  0  0  0  0
  -24.6491  -11.6895   20.8808 C   0  0  0  0  0  0
  -23.9165  -10.4306   21.0411 C   0  0  0  0  0  0
  -24.3701   -9.4209   21.9182 C   0  0  0  0  0  0
  -23.6320   -8.2279   22.0777 C   0  0  0  0  0  0
  -22.4322   -8.0302   21.3509 C   0  0  0  0  0  0
  -21.9970   -9.0311   20.4634 C   0  0  0  0  0  0
  -22.7351  -10.2143   20.3027 C   0  0  0  0  0  0
  -21.6864   -6.0768   22.5305 C   0  0  0  0  0  0
  -21.4054   -6.5669   23.8233 C   0  0  0  0  0  0
  -21.3657   -5.6788   24.9168 C   0  0  0  0  0  0
  -21.6050   -4.3056   24.7195 C   0  0  0  0  0  0
  -21.8811   -3.8151   23.4325 C   0  0  0  0  0  0
  -21.9210   -4.7006   22.3431 C   0  0  0  0  0  0
  -22.7910  -13.5210   21.1842 C   0  0  0  0  0  0
  -22.1640   -4.2186   21.0970 F   0  0  0  0  0  0
  -21.5625   -3.4535   25.7714 F   0  0  0  0  0  0
  -30.0226  -13.5193   20.3995 N   0  0  0  0  0  0
  -26.3056  -12.9420   20.3394 N   0  0  0  0  0  0
  -25.9436  -11.6536   20.5828 N   0  0  0  0  0  0
  -22.0512  -12.8195   22.0323 N   0  0  0  0  0  0
  -25.4160  -15.1917   20.3948 N   0  0  0  0  0  0
  -31.8441  -14.8242   20.0633 O   0  0  0  0  0  0
  -21.6641   -6.8908   21.4242 O   0  0  0  0  0  0
  -22.3640  -14.5521   20.6635 O   0  0  0  0  0  0
  -24.6309  -31.8490   23.1885 C   0  0  0  0  0  0
  -25.9117  -32.4721   23.8266 C   0  0  1  0  0  0
  -27.2696  -27.2780   20.1176 C   0  0  0  0  0  0
  -25.5945  -33.8533   24.2201 N   0  0  0  0  0  0
  -23.4287  -30.4630   21.5320 C   0  0  2  0  0  0
  -24.8853  -28.8943   20.1068 C   0  0  0  0  0  0
  -22.7495  -29.4549   22.4919 C   0  0  0  0  0  0
  -18.0320  -28.1331   22.8493 C   0  0  0  0  0  0
  -24.1514  -36.7289   23.2631 C   0  0  0  0  0  0
  -25.9690  -30.7682   21.3633 C   0  0  0  0  0  0
  -26.0496  -29.3855   20.7098 C   0  0  0  0  0  0
  -27.2339  -28.5850   20.7059 C   0  0  0  0  0  0
  -26.0844  -26.8400   19.4886 C   0  0  0  0  0  0
  -24.9091  -27.6293   19.4848 C   0  0  0  0  0  0
  -23.6420  -29.7671   20.1586 C   0  0  0  0  0  0
  -25.4134  -36.3060   24.0315 C   0  0  1  0  0  0
  -20.5900  -28.3662   23.1305 C   0  0  2  0  0  0
  -20.6788  -26.9383   22.5418 C   0  0  0  0  0  0
  -19.5770  -26.6356   21.5232 C   0  0  0  0  0  0
  -18.1954  -26.7891   22.1623 C   0  0  0  0  0  0
  -19.1555  -28.8834   23.2872 C   0  0  0  0  0  0
  -18.9453  -30.1434   23.8882 C   0  0  0  0  0  0
  -17.6452  -30.6544   24.0550 C   0  0  0  0  0  0
  -25.9062  -34.9433   23.5060 C   0  0  0  0  0  0
  -16.5349  -29.9026   23.6325 C   0  0  0  0  0  0
  -16.7287  -28.6422   23.0360 C   0  0  0  0  0  0
  -26.4492  -31.6558   25.0666 C   0  0  0  0  0  0
  -25.3708  -31.3681   26.1380 C   0  0  0  0  0  0
  -27.0312  -30.2965   24.6136 C   0  0  0  0  0  0
  -27.6035  -32.4292   25.7455 C   0  0  0  0  0  0
  -27.5589  -37.1777   24.8432 C   0  0  0  0  0  0
  -21.4197  -29.3024   22.3707 N   0  0  0  0  0  0
  -26.4286  -37.3767   23.9398 N   0  0  0  0  0  0
  -24.6946  -31.0475   22.0840 N   0  0  0  0  0  0
  -23.4205  -28.8135   23.3036 O   0  0  0  0  0  0
  -28.4265  -26.4713   20.2322 O   0  0  0  0  0  0
  -26.5642  -34.8905   22.4635 O   0  0  0  0  0  0
  -23.5457  -32.1360   23.7166 O   0  0  0  0  0  0
  -29.7403  -19.9233   20.5414 C   0  0  0  0  0  0
  -30.9754  -19.4666   20.0736 C   0  0  0  0  0  0
  -30.0766  -17.3322   20.5320 C   0  0  0  0  0  0
  -29.1533  -21.2898   20.8798 C   0  0  0  0  0  0
  -28.6221  -23.8372   20.5477 C   0  0  0  0  0  0
  -32.1480  -20.3189   19.6468 C   0  0  0  0  0  0
  -30.1577  -25.3566   19.0920 C   0  0  0  0  0  0
  -28.7119  -25.1363   19.6001 C   0  0  2  0  0  0
  -31.1430  -18.0331   20.0801 N   0  0  0  0  0  0
  -29.9257  -15.8655   20.7275 N   0  0  0  0  0  0
  -29.2304  -22.4999   20.1575 N   0  0  0  0  0  0
  -28.4525  -21.2807   22.0390 N   0  3  0  0  0  0
  -28.0112  -23.9346   21.6230 O   0  0  0  0  0  0
  -28.7673  -18.4758   20.9338 S   0  0  0  0  0  0
  -31.4876  -12.5242   19.1757 H   0  0  0  0  0  0
  -30.3376  -11.4678   19.9572 H   0  0  0  0  0  0
  -29.7902  -11.7566   17.5048 H   0  0  0  0  0  0
  -29.6626  -13.4804   17.7299 H   0  0  0  0  0  0
  -27.8719  -11.3056   18.8850 H   0  0  0  0  0  0
  -27.3953  -12.5849   17.7949 H   0  0  0  0  0  0
  -27.6355  -14.2637   19.4891 H   0  0  0  0  0  0
  -28.7422  -12.2055   21.4670 H   0  0  0  0  0  0
  -28.4631  -13.8935   21.7862 H   0  0  0  0  0  0
  -25.2855   -9.5673   22.4736 H   0  0  0  0  0  0
  -24.0056   -7.4645   22.7461 H   0  0  0  0  0  0
  -21.0938   -8.8821   19.8918 H   0  0  0  0  0  0
  -22.3863  -10.9657   19.6125 H   0  0  0  0  0  0
  -21.2056   -7.6181   23.9758 H   0  0  0  0  0  0
  -21.1495   -6.0493   25.9037 H   0  0  0  0  0  0
  -22.0608   -2.7614   23.2800 H   0  0  0  0  0  0
  -22.4131  -11.9885   22.4797 H   0  0  0  0  0  0
  -21.1105  -13.1197   22.2420 H   0  0  0  0  0  0
  -24.6173  -15.8184   20.4368 H   0  0  0  0  0  0
  -26.1967  -15.5886   19.8924 H   0  0  0  0  0  0
  -26.7179  -32.5339   23.0992 H   0  0  0  0  0  0
  -25.0086  -33.9669   25.0352 H   0  0  0  0  0  0
  -22.7259  -31.2801   21.3717 H   0  0  0  0  0  0
  -23.3775  -35.9619   23.3267 H   0  0  0  0  0  0
  -24.3613  -36.8964   22.2054 H   0  0  0  0  0  0
  -23.7285  -37.6490   23.6682 H   0  0  0  0  0  0
  -26.1005  -31.5258   20.5901 H   0  0  0  0  0  0
  -26.8472  -30.8276   21.9916 H   0  0  0  0  0  0
  -28.1255  -28.9608   21.1886 H   0  0  0  0  0  0
  -26.0424  -25.8668   19.0277 H   0  0  0  0  0  0
  -24.0156  -27.2439   19.0104 H   0  0  0  0  0  0
  -23.7344  -30.5246   19.3800 H   0  0  0  0  0  0
  -22.7701  -29.1714   19.8754 H   0  0  0  0  0  0
  -25.1329  -36.1885   25.0803 H   0  0  0  0  0  0
  -21.0003  -28.3237   24.1415 H   0  0  0  0  0  0
  -20.5734  -26.2274   23.3613 H   0  0  0  0  0  0
  -21.6665  -26.7383   22.1210 H   0  0  0  0  0  0
  -19.6942  -25.6270   21.1265 H   0  0  0  0  0  0
  -19.6715  -27.3163   20.6767 H   0  0  0  0  0  0
  -17.4228  -26.6678   21.3989 H   0  0  0  0  0  0
  -18.0285  -25.9996   22.8963 H   0  0  0  0  0  0
  -19.7930  -30.7274   24.2235 H   0  0  0  0  0  0
  -17.4969  -31.6224   24.5137 H   0  0  0  0  0  0
  -15.5322  -30.2884   23.7656 H   0  0  0  0  0  0
  -15.8698  -28.0709   22.7099 H   0  0  0  0  0  0
  -24.5847  -30.7104   25.7657 H   0  0  0  0  0  0
  -24.8949  -32.2844   26.4865 H   0  0  0  0  0  0
  -25.8022  -30.8766   27.0102 H   0  0  0  0  0  0
  -26.2861  -29.6713   24.1192 H   0  0  0  0  0  0
  -27.4040  -29.7233   25.4634 H   0  0  0  0  0  0
  -27.8731  -30.4246   23.9328 H   0  0  0  0  0  0
  -27.2625  -33.3549   26.2086 H   0  0  0  0  0  0
  -28.3820  -32.6920   25.0286 H   0  0  0  0  0  0
  -28.0728  -31.8384   26.5325 H   0  0  0  0  0  0
  -28.2537  -38.0127   24.7549 H   0  0  0  0  0  0
  -28.1172  -36.2673   24.6190 H   0  0  0  0  0  0
  -27.2312  -37.1336   25.8825 H   0  0  0  0  0  0
  -20.9415  -29.8714   21.6857 H   0  0  0  0  0  0
  -26.0173  -38.2850   24.1382 H   0  0  0  0  0  0
  -31.8360  -21.1772   19.0481 H   0  0  0  0  0  0
  -32.8680  -19.7610   19.0436 H   0  0  0  0  0  0
  -32.6937  -20.7113   20.5110 H   0  0  0  0  0  0
  -30.6981  -24.4346   18.8847 H   0  0  0  0  0  0
  -30.7475  -25.9118   19.8241 H   0  0  0  0  0  0
  -30.1453  -25.9434   18.1746 H   0  0  0  0  0  0
  -28.0627  -24.9567   18.7446 H   0  0  0  0  0  0
  -29.0193  -15.6137   21.0825 H   0  0  0  0  0  0
  -29.7368  -22.4122   19.2880 H   0  0  0  0  0  0
  -28.3586  -20.4630   22.6205 H   0  0  0  0  0  0
  -27.9840  -22.1297   22.3503 H   0  0  0  0  0  0
  1 25  1  0  0  0
  1 30  2  0  0  0
  1 80  1  0  0  0
  2  3  1  0  0  0
  2 25  1  0  0  0
  2 85  1  0  0  0
  2 86  1  0  0  0
  3  4  1  0  0  0
  3 87  1  0  0  0
  3 88  1  0  0  0
  4  5  1  0  0  0
  4 89  1  0  0  0
  4 90  1  0  0  0
  5  6  1  0  0  0
  5 26  1  0  0  0
  5 91  1  0  0  0
  6 25  1  0  0  0
  6 92  1  0  0  0
  6 93  1  0  0  0
  7  8  2  0  0  0
  7 26  1  0  0  0
  7 29  1  0  0  0
  8  9  1  0  0  0
  8 22  1  0  0  0
  9 10  1  0  0  0
  9 27  2  0  0  0
 10 11  2  0  0  0
 10 15  1  0  0  0
 11 12  1  0  0  0
 11 94  1  0  0  0
 12 13  2  0  0  0
 12 95  1  0  0  0
 13 14  1  0  0  0
 13 31  1  0  0  0
 14 15  2  0  0  0
 14 96  1  0  0  0
 15 97  1  0  0  0
 16 17  2  0  0  0
 16 21  1  0  0  0
 16 31  1  0  0  0
 17 18  1  0  0  0
 17 98  1  0  0  0
 18 19  2  0  0  0
 18 99  1  0  0  0
 19 20  1  0  0  0
 19 24  1  0  0  0
 20 21  2  0  0  0
 20100  1  0  0  0
 21 23  1  0  0  0
 22 28  1  0  0  0
 22 32  2  0  0  0
 26 27  1  0  0  0
 28101  1  0  0  0
 28102  1  0  0  0
 29103  1  0  0  0
 29104  1  0  0  0
 33 34  1  0  0  0
 33 66  1  0  0  0
 33 70  2  0  0  0
 34 36  1  0  0  0
 34 59  1  0  0  0
 34105  1  0  0  0
 35 44  2  0  0  0
 35 45  1  0  0  0
 35 68  1  0  0  0
 36 56  1  0  0  0
 36106  1  0  0  0
 37 39  1  0  0  0
 37 47  1  0  0  0
 37 66  1  0  0  0
 37107  1  0  0  0
 38 43  2  0  0  0
 38 46  1  0  0  0
 38 47  1  0  0  0
 39 64  1  0  0  0
 39 67  2  0  0  0
 40 52  1  0  0  0
 40 53  2  0  0  0
 40 58  1  0  0  0
 41108  1  0  0  0
 41109  1  0  0  0
 41110  1  0  0  0
 41 48  1  0  0  0
 42 43  1  0  0  0
 42 66  1  0  0  0
 42111  1  0  0  0
 42112  1  0  0  0
 43 44  1  0  0  0
 44113  1  0  0  0
 45 46  2  0  0  0
 45114  1  0  0  0
 46115  1  0  0  0
 47116  1  0  0  0
 47117  1  0  0  0
 48 56  1  0  0  0
 48 65  1  0  0  0
 48118  1  0  0  0
 49 50  1  0  0  0
 49 53  1  0  0  0
 49 64  1  0  0  0
 49119  1  0  0  0
 50 51  1  0  0  0
 50120  1  0  0  0
 50121  1  0  0  0
 51 52  1  0  0  0
 51122  1  0  0  0
 51123  1  0  0  0
 52124  1  0  0  0
 52125  1  0  0  0
 53 54  1  0  0  0
 54 55  2  0  0  0
 54126  1  0  0  0
 55 57  1  0  0  0
 55127  1  0  0  0
 56 69  2  0  0  0
 57 58  2  0  0  0
 57128  1  0  0  0
 58129  1  0  0  0
 59 60  1  0  0  0
 59 61  1  0  0  0
 59 62  1  0  0  0
 60130  1  0  0  0
 60131  1  0  0  0
 60132  1  0  0  0
 61133  1  0  0  0
 61134  1  0  0  0
 61135  1  0  0  0
 62136  1  0  0  0
 62137  1  0  0  0
 62138  1  0  0  0
 63 65  1  0  0  0
 63139  1  0  0  0
 63140  1  0  0  0
 63141  1  0  0  0
 64142  1  0  0  0
 65143  1  0  0  0
 68 78  1  0  0  0
 71 72  2  0  0  0
 71 74  1  0  0  0
 71 84  1  0  0  0
 72 76  1  0  0  0
 72 79  1  0  0  0
 73 79  2  0  0  0
 73 80  1  0  0  0
 73 84  1  0  0  0
 74 81  1  0  0  0
 74 82  2  0  0  0
 75 78  1  0  0  0
 75 81  1  0  0  0
 75 83  2  0  0  0
 76144  1  0  0  0
 76145  1  0  0  0
 76146  1  0  0  0
 77147  1  0  0  0
 77148  1  0  0  0
 77149  1  0  0  0
 77 78  1  0  0  0
 78150  1  0  0  0
 80151  1  0  0  0
 81152  1  0  0  0
 82153  1  0  0  0
 82154  1  0  0  0
M  CHG  1  82   1
M  ISO  4   1 100  68 101  78 101  80 100
M  END
> <chiral flag>
0

> <version>
0

> <s_m_source_file>
/data/baiqing/PycharmProjects/Reinvent-master-3.2/result/LINK_invent/BTK/process_docking_weight1_custom_product_contain_oxygen_bond_distance_aromatic_linkinvent_7_9_3/rearranged_h_0182.sdf

> <i_m_source_file_index>
61

> <r_mmod_Potential_Energy-OPLS-2005>
-81.219612121582

> <r_mmod_Stretch_Energy-OPLS-2005>
130.16569519043

> <r_mmod_Bend_Energy-OPLS-2005>
209.23486328125

> <r_mmod_Torsional_Energy-OPLS-2005>
210.729797363281

> <r_mmod_Improper_Torsional_Energy-OPLS-2005>
5.45480680465698

> <r_mmod_Van_der_Waal_Energy-OPLS-2005>
121.970573425293

> <r_mmod_Electrostatic_Energy-OPLS-2005>
-329.436309814453

> <r_mmod_Solvation_Energy-OPLS-2005>
-507.714294433594

> <b_mmod_Minimization_Converged-OPLS-2005>
0

> <r_mmod_RMS_Derivative-OPLS-2005>
9.38836097717285

$$$$
61
                    3D
 Structure written by MMmdl.
155163  0  0  1  0            999 V2000
  -30.5821  -14.7663   20.4503 C   0  0  0  0  0  0
  -30.4471  -12.4722   19.4468 C   0  0  0  0  0  0
  -29.5079  -12.5039   18.2204 C   0  0  0  0  0  0
  -28.0346  -12.3228   18.6429 C   0  0  0  0  0  0
  -27.6400  -13.2244   19.8425 C   0  0  2  0  0  0
  -28.6937  -13.1559   20.9671 C   0  0  0  0  0  0
  -25.2517  -13.8180   20.5673 C   0  0  0  0  0  0
  -24.1802  -13.0430   20.9221 C   0  0  0  0  0  0
  -24.6390  -11.6914   20.8769 C   0  0  0  0  0  0
  -23.9064  -10.4290   21.0423 C   0  0  0  0  0  0
  -24.3613   -9.4201   21.9192 C   0  0  0  0  0  0
  -23.6285   -8.2232   22.0759 C   0  0  0  0  0  0
  -22.4267   -8.0275   21.3540 C   0  0  0  0  0  0
  -21.9901   -9.0256   20.4648 C   0  0  0  0  0  0
  -22.7238  -10.2140   20.3066 C   0  0  0  0  0  0
  -21.6848   -6.0733   22.5281 C   0  0  0  0  0  0
  -21.4008   -6.5638   23.8212 C   0  0  0  0  0  0
  -21.3659   -5.6796   24.9175 C   0  0  0  0  0  0
  -21.6043   -4.3054   24.7227 C   0  0  0  0  0  0
  -21.8820   -3.8149   23.4344 C   0  0  0  0  0  0
  -21.9189   -4.6963   22.3401 C   0  0  0  0  0  0
  -22.7821  -13.5218   21.1886 C   0  0  0  0  0  0
  -22.1660   -4.2149   21.0977 F   0  0  0  0  0  0
  -21.5634   -3.4537   25.7735 F   0  0  0  0  0  0
  -29.9847  -13.5275   20.3719 N   0  0  0  0  0  0
  -26.2940  -12.9369   20.3257 N   0  0  0  0  0  0
  -25.9320  -11.6528   20.5772 N   0  0  0  0  0  0
  -22.0450  -12.8221   22.0453 N   0  0  0  0  0  0
  -25.4151  -15.1897   20.4020 N   0  0  0  0  0  0
  -31.7937  -14.8793   20.2337 O   0  0  0  0  0  0
  -21.6632   -6.8875   21.4236 O   0  0  0  0  0  0
  -22.3503  -14.5515   20.6731 O   0  0  0  0  0  0
  -24.6356  -31.8541   23.1993 C   0  0  0  0  0  0
  -25.9174  -32.4743   23.8326 C   0  0  1  0  0  0
  -27.1983  -27.2314   20.1211 C   0  0  0  0  0  0
  -25.5945  -33.8545   24.2232 N   0  0  0  0  0  0
  -23.4319  -30.4816   21.5452 C   0  0  2  0  0  0
  -24.8740  -28.9318   20.1084 C   0  0  0  0  0  0
  -22.7528  -29.4600   22.4899 C   0  0  0  0  0  0
  -18.0308  -28.1392   22.8491 C   0  0  0  0  0  0
  -24.1480  -36.7281   23.2636 C   0  0  0  0  0  0
  -25.9816  -30.7558   21.3865 C   0  0  0  0  0  0
  -26.0512  -29.3796   20.7221 C   0  0  0  0  0  0
  -27.2190  -28.5430   20.7167 C   0  0  0  0  0  0
  -25.9966  -26.8712   19.4681 C   0  0  0  0  0  0
  -24.8551  -27.6885   19.4655 C   0  0  0  0  0  0
  -23.6488  -29.8262   20.1590 C   0  0  0  0  0  0
  -25.4121  -36.3067   24.0315 C   0  0  1  0  0  0
  -20.5916  -28.3699   23.1267 C   0  0  2  0  0  0
  -20.6790  -26.9417   22.5413 C   0  0  0  0  0  0
  -19.5760  -26.6396   21.5225 C   0  0  0  0  0  0
  -18.1945  -26.7938   22.1638 C   0  0  0  0  0  0
  -19.1560  -28.8873   23.2864 C   0  0  0  0  0  0
  -18.9472  -30.1469   23.8888 C   0  0  0  0  0  0
  -17.6469  -30.6588   24.0573 C   0  0  0  0  0  0
  -25.9076  -34.9433   23.5085 C   0  0  0  0  0  0
  -16.5366  -29.9090   23.6331 C   0  0  0  0  0  0
  -16.7290  -28.6513   23.0356 C   0  0  0  0  0  0
  -26.4513  -31.6585   25.0728 C   0  0  0  0  0  0
  -25.3718  -31.3761   26.1430 C   0  0  0  0  0  0
  -27.0370  -30.2993   24.6263 C   0  0  0  0  0  0
  -27.6060  -32.4328   25.7504 C   0  0  0  0  0  0
  -27.5569  -37.1799   24.8462 C   0  0  0  0  0  0
  -21.4234  -29.3041   22.3640 N   0  0  0  0  0  0
  -26.4286  -37.3770   23.9411 N   0  0  0  0  0  0
  -24.7030  -31.0478   22.0991 N   0  0  0  0  0  0
  -23.4202  -28.8140   23.3006 O   0  0  0  0  0  0
  -28.2553  -26.2821   20.1859 O   0  0  0  0  0  0
  -26.5633  -34.8922   22.4659 O   0  0  0  0  0  0
  -23.5497  -32.1401   23.7263 O   0  0  0  0  0  0
  -29.4137  -18.5049   23.0219 C   0  0  0  0  0  0
  -29.3347  -19.6947   22.2829 C   0  0  0  0  0  0
  -29.6090  -17.2666   22.3751 C   0  0  0  0  0  0
  -29.4648  -19.6639   20.8875 C   0  0  0  0  0  0
  -29.7584  -17.2236   20.9627 C   0  0  0  0  0  0
  -28.9227  -23.6244   20.2804 C   0  0  0  0  0  0
  -27.8537  -24.8204   20.1191 C   0  0  0  0  0  0
  -28.4554  -22.0553   20.4826 C   0  0  1  0  0  0
  -27.1470  -21.7643   19.7039 C   0  0  0  0  0  0
  -29.6750  -18.4356   20.2569 N   0  0  0  0  0  0
  -29.5776  -16.1055   23.1574 N   0  0  0  0  0  0
  -29.7256  -15.8593   20.3857 N   0  0  0  0  0  0
  -29.4359  -20.9229   20.1766 N   0  0  0  0  0  0
  -30.1221  -23.9202   20.2694 O   0  0  0  0  0  0
  -26.7335  -20.5177   19.9386 F   0  0  0  0  0  0
  -27.3675  -21.8934   18.3955 F   0  0  0  0  0  0
  -26.1548  -22.5819   20.0510 F   0  0  0  0  0  0
  -31.4796  -12.6299   19.1297 H   0  0  0  0  0  0
  -30.4221  -11.4961   19.9339 H   0  0  0  0  0  0
  -29.7892  -11.7267   17.5085 H   0  0  0  0  0  0
  -29.6202  -13.4539   17.6945 H   0  0  0  0  0  0
  -27.8954  -11.2755   18.9106 H   0  0  0  0  0  0
  -27.3703  -12.5102   17.7968 H   0  0  0  0  0  0
  -27.6272  -14.2423   19.4553 H   0  0  0  0  0  0
  -28.7448  -12.1538   21.3966 H   0  0  0  0  0  0
  -28.4280  -13.8270   21.7846 H   0  0  0  0  0  0
  -25.2758   -9.5675   22.4768 H   0  0  0  0  0  0
  -24.0001   -7.4618   22.7470 H   0  0  0  0  0  0
  -21.0835   -8.8772   19.8944 H   0  0  0  0  0  0
  -22.3692  -10.9678   19.6176 H   0  0  0  0  0  0
  -21.1995   -7.6145   23.9718 H   0  0  0  0  0  0
  -21.1482   -6.0519   25.9078 H   0  0  0  0  0  0
  -22.0598   -2.7611   23.2843 H   0  0  0  0  0  0
  -22.4055  -11.9880   22.4848 H   0  0  0  0  0  0
  -21.1062  -13.1248   22.2651 H   0  0  0  0  0  0
  -24.6342  -15.8307   20.4953 H   0  0  0  0  0  0
  -26.2392  -15.6318   20.0181 H   0  0  0  0  0  0
  -26.7231  -32.5356   23.1058 H   0  0  0  0  0  0
  -25.0066  -33.9684   25.0340 H   0  0  0  0  0  0
  -22.7293  -31.3063   21.4071 H   0  0  0  0  0  0
  -23.3740  -35.9605   23.3303 H   0  0  0  0  0  0
  -24.3569  -36.8926   22.2054 H   0  0  0  0  0  0
  -23.7265  -37.6486   23.6674 H   0  0  0  0  0  0
  -26.1309  -31.5149   20.6180 H   0  0  0  0  0  0
  -26.8557  -30.7987   22.0234 H   0  0  0  0  0  0
  -28.1166  -28.8790   21.2184 H   0  0  0  0  0  0
  -25.8876  -25.9310   18.9523 H   0  0  0  0  0  0
  -23.9573  -27.3466   18.9702 H   0  0  0  0  0  0
  -23.7816  -30.6091   19.4127 H   0  0  0  0  0  0
  -22.7621  -29.2713   19.8460 H   0  0  0  0  0  0
  -25.1311  -36.1892   25.0797 H   0  0  0  0  0  0
  -20.9997  -28.3292   24.1395 H   0  0  0  0  0  0
  -20.5740  -26.2309   23.3621 H   0  0  0  0  0  0
  -21.6655  -26.7478   22.1184 H   0  0  0  0  0  0
  -19.6928  -25.6307   21.1260 H   0  0  0  0  0  0
  -19.6700  -27.3188   20.6738 H   0  0  0  0  0  0
  -17.4219  -26.6690   21.4025 H   0  0  0  0  0  0
  -18.0332  -26.0065   22.9024 H   0  0  0  0  0  0
  -19.7950  -30.7286   24.2237 H   0  0  0  0  0  0
  -17.5037  -31.6271   24.5171 H   0  0  0  0  0  0
  -15.5367  -30.2998   23.7667 H   0  0  0  0  0  0
  -15.8693  -28.0843   22.7060 H   0  0  0  0  0  0
  -24.5894  -30.7102   25.7755 H   0  0  0  0  0  0
  -24.8870  -32.2917   26.4796 H   0  0  0  0  0  0
  -25.7991  -30.8977   27.0251 H   0  0  0  0  0  0
  -26.2958  -29.6725   24.1265 H   0  0  0  0  0  0
  -27.4019  -29.7278   25.4805 H   0  0  0  0  0  0
  -27.8851  -30.4262   23.9533 H   0  0  0  0  0  0
  -27.2684  -33.3674   26.2010 H   0  0  0  0  0  0
  -28.3894  -32.6839   25.0333 H   0  0  0  0  0  0
  -28.0690  -31.8499   26.5482 H   0  0  0  0  0  0
  -28.2587  -38.0093   24.7508 H   0  0  0  0  0  0
  -28.1086  -36.2632   24.6289 H   0  0  0  0  0  0
  -27.2289  -37.1427   25.8867 H   0  0  0  0  0  0
  -20.9416  -29.8755   21.6842 H   0  0  0  0  0  0
  -26.0159  -38.2835   24.1423 H   0  0  0  0  0  0
  -29.2945  -18.5481   24.0943 H   0  0  0  0  0  0
  -29.1946  -20.6217   22.8164 H   0  0  0  0  0  0
  -27.0640  -24.6626   20.8558 H   0  0  0  0  0  0
  -27.4182  -24.6423   19.1379 H   0  0  0  0  0  0
  -28.1940  -21.9650   21.5350 H   0  0  0  0  0  0
  -29.3104  -16.2271   24.1302 H   0  0  0  0  0  0
  -29.1185  -15.2959   22.7579 H   0  0  0  0  0  0
  -28.7835  -15.5587   20.2108 H   0  0  0  0  0  0
  -29.6097  -20.8409   19.1818 H   0  0  0  0  0  0
  1 25  1  0  0  0
  1 30  2  0  0  0
  1 82  1  0  0  0
  2  3  1  0  0  0
  2 25  1  0  0  0
  2 88  1  0  0  0
  2 89  1  0  0  0
  3  4  1  0  0  0
  3 90  1  0  0  0
  3 91  1  0  0  0
  4  5  1  0  0  0
  4 92  1  0  0  0
  4 93  1  0  0  0
  5  6  1  0  0  0
  5 26  1  0  0  0
  5 94  1  0  0  0
  6 25  1  0  0  0
  6 95  1  0  0  0
  6 96  1  0  0  0
  7  8  2  0  0  0
  7 26  1  0  0  0
  7 29  1  0  0  0
  8  9  1  0  0  0
  8 22  1  0  0  0
  9 10  1  0  0  0
  9 27  2  0  0  0
 10 11  2  0  0  0
 10 15  1  0  0  0
 11 12  1  0  0  0
 11 97  1  0  0  0
 12 13  2  0  0  0
 12 98  1  0  0  0
 13 14  1  0  0  0
 13 31  1  0  0  0
 14 15  2  0  0  0
 14 99  1  0  0  0
 15100  1  0  0  0
 16 17  2  0  0  0
 16 21  1  0  0  0
 16 31  1  0  0  0
 17 18  1  0  0  0
 17101  1  0  0  0
 18 19  2  0  0  0
 18102  1  0  0  0
 19 20  1  0  0  0
 19 24  1  0  0  0
 20 21  2  0  0  0
 20103  1  0  0  0
 21 23  1  0  0  0
 22 28  1  0  0  0
 22 32  2  0  0  0
 26 27  1  0  0  0
 28104  1  0  0  0
 28105  1  0  0  0
 29106  1  0  0  0
 29107  1  0  0  0
 33 34  1  0  0  0
 33 66  1  0  0  0
 33 70  2  0  0  0
 34 36  1  0  0  0
 34 59  1  0  0  0
 34108  1  0  0  0
 35 44  2  0  0  0
 35 45  1  0  0  0
 35 68  1  0  0  0
 36 56  1  0  0  0
 36109  1  0  0  0
 37 39  1  0  0  0
 37 47  1  0  0  0
 37 66  1  0  0  0
 37110  1  0  0  0
 38 43  2  0  0  0
 38 46  1  0  0  0
 38 47  1  0  0  0
 39 64  1  0  0  0
 39 67  2  0  0  0
 40 52  1  0  0  0
 40 53  2  0  0  0
 40 58  1  0  0  0
 41111  1  0  0  0
 41112  1  0  0  0
 41113  1  0  0  0
 41 48  1  0  0  0
 42 43  1  0  0  0
 42 66  1  0  0  0
 42114  1  0  0  0
 42115  1  0  0  0
 43 44  1  0  0  0
 44116  1  0  0  0
 45 46  2  0  0  0
 45117  1  0  0  0
 46118  1  0  0  0
 47119  1  0  0  0
 47120  1  0  0  0
 48 56  1  0  0  0
 48 65  1  0  0  0
 48121  1  0  0  0
 49 50  1  0  0  0
 49 53  1  0  0  0
 49 64  1  0  0  0
 49122  1  0  0  0
 50 51  1  0  0  0
 50123  1  0  0  0
 50124  1  0  0  0
 51 52  1  0  0  0
 51125  1  0  0  0
 51126  1  0  0  0
 52127  1  0  0  0
 52128  1  0  0  0
 53 54  1  0  0  0
 54 55  2  0  0  0
 54129  1  0  0  0
 55 57  1  0  0  0
 55130  1  0  0  0
 56 69  2  0  0  0
 57 58  2  0  0  0
 57131  1  0  0  0
 58132  1  0  0  0
 59 60  1  0  0  0
 59 61  1  0  0  0
 59 62  1  0  0  0
 60133  1  0  0  0
 60134  1  0  0  0
 60135  1  0  0  0
 61136  1  0  0  0
 61137  1  0  0  0
 61138  1  0  0  0
 62139  1  0  0  0
 62140  1  0  0  0
 62141  1  0  0  0
 63 65  1  0  0  0
 63142  1  0  0  0
 63143  1  0  0  0
 63144  1  0  0  0
 64145  1  0  0  0
 65146  1  0  0  0
 68 77  1  0  0  0
 71 72  2  0  0  0
 71 73  1  0  0  0
 71147  1  0  0  0
 72 74  1  0  0  0
 72148  1  0  0  0
 73 75  2  0  0  0
 73 81  1  0  0  0
 74 80  2  0  0  0
 74 83  1  0  0  0
 75 80  1  0  0  0
 75 82  1  0  0  0
 76 77  1  0  0  0
 76 78  1  0  0  0
 76 84  2  0  0  0
 77149  1  0  0  0
 77150  1  0  0  0
 78 79  1  0  0  0
 78 83  1  0  0  0
 78151  1  0  0  0
 79 85  1  0  0  0
 79 86  1  0  0  0
 79 87  1  0  0  0
 81152  1  0  0  0
 81153  1  0  0  0
 82154  1  0  0  0
 83155  1  0  0  0
M  ISO  4   1 100  68 101  77 101  82 100
M  END
> <chiral flag>
0

> <version>
0

> <s_m_source_file>
/data/baiqing/PycharmProjects/Reinvent-master-3.2/result/LINK_invent/BTK/process_docking_weight1_custom_product_contain_oxygen_bond_distance_aromatic_linkinvent_7_9_3/rearranged_h_0182.sdf

> <i_m_source_file_index>
62

> <r_mmod_Potential_Energy-OPLS-2005>
-102.093528747559

> <r_mmod_Stretch_Energy-OPLS-2005>
137.501770019531

> <r_mmod_Bend_Energy-OPLS-2005>
176.416290283203

> <r_mmod_Torsional_Energy-OPLS-2005>
249.139984130859

> <r_mmod_Improper_Torsional_Energy-OPLS-2005>
21.759895324707

> <r_mmod_Van_der_Waal_Energy-OPLS-2005>
151.203201293945

> <r_mmod_Electrostatic_Energy-OPLS-2005>
-681.973571777344

> <r_mmod_Solvation_Energy-OPLS-2005>
-262.8466796875

> <b_mmod_Minimization_Converged-OPLS-2005>
0

> <r_mmod_RMS_Derivative-OPLS-2005>
3.32196998596191

$$$$
62
                    3D
 Structure written by MMmdl.
155163  0  0  1  0            999 V2000
  -30.6749  -14.5647   20.5051 C   0  0  0  0  0  0
  -30.4288  -12.3441   19.4627 C   0  0  0  0  0  0
  -29.5228  -12.5305   18.2296 C   0  0  0  0  0  0
  -28.0354  -12.4004   18.6184 C   0  0  0  0  0  0
  -27.6649  -13.2382   19.8731 C   0  0  2  0  0  0
  -28.7093  -13.0592   21.0029 C   0  0  0  0  0  0
  -25.2565  -13.8215   20.5691 C   0  0  0  0  0  0
  -24.1859  -13.0447   20.9195 C   0  0  0  0  0  0
  -24.6474  -11.6938   20.8756 C   0  0  0  0  0  0
  -23.9132  -10.4294   21.0405 C   0  0  0  0  0  0
  -24.3652   -9.4192   21.9164 C   0  0  0  0  0  0
  -23.6292   -8.2265   22.0754 C   0  0  0  0  0  0
  -22.4285   -8.0294   21.3566 C   0  0  0  0  0  0
  -21.9939   -9.0260   20.4667 C   0  0  0  0  0  0
  -22.7305  -10.2118   20.3064 C   0  0  0  0  0  0
  -21.6834   -6.0720   22.5256 C   0  0  0  0  0  0
  -21.4026   -6.5619   23.8184 C   0  0  0  0  0  0
  -21.3694   -5.6780   24.9133 C   0  0  0  0  0  0
  -21.6043   -4.3043   24.7170 C   0  0  0  0  0  0
  -21.8818   -3.8134   23.4292 C   0  0  0  0  0  0
  -21.9168   -4.6955   22.3368 C   0  0  0  0  0  0
  -22.7839  -13.5214   21.1699 C   0  0  0  0  0  0
  -22.1622   -4.2173   21.0933 F   0  0  0  0  0  0
  -21.5631   -3.4525   25.7660 F   0  0  0  0  0  0
  -30.0360  -13.3620   20.4515 N   0  0  0  0  0  0
  -26.3079  -12.9490   20.3374 N   0  0  0  0  0  0
  -25.9432  -11.6615   20.5812 N   0  0  0  0  0  0
  -22.0450  -12.8335   22.0331 N   0  0  0  0  0  0
  -25.4167  -15.1926   20.4076 N   0  0  0  0  0  0
  -31.8148  -14.7161   20.0584 O   0  0  0  0  0  0
  -21.6641   -6.8891   21.4251 O   0  0  0  0  0  0
  -22.3515  -14.5425   20.6363 O   0  0  0  0  0  0
  -24.6190  -31.8658   23.2081 C   0  0  0  0  0  0
  -25.9093  -32.4773   23.8402 C   0  0  1  0  0  0
  -27.2449  -27.4125   20.1201 C   0  0  0  0  0  0
  -25.5988  -33.8572   24.2381 N   0  0  0  0  0  0
  -23.4085  -30.4800   21.5483 C   0  0  2  0  0  0
  -24.8591  -28.9360   20.1189 C   0  0  0  0  0  0
  -22.7441  -29.4618   22.5031 C   0  0  0  0  0  0
  -18.0278  -28.1310   22.8526 C   0  0  0  0  0  0
  -24.1494  -36.7300   23.2650 C   0  0  0  0  0  0
  -25.9351  -30.8180   21.3665 C   0  0  0  0  0  0
  -26.0113  -29.4458   20.7263 C   0  0  0  0  0  0
  -27.2046  -28.6889   20.7290 C   0  0  0  0  0  0
  -26.0769  -26.9140   19.5037 C   0  0  0  0  0  0
  -24.8874  -27.6726   19.4973 C   0  0  0  0  0  0
  -23.6193  -29.8017   20.1655 C   0  0  0  0  0  0
  -25.4095  -36.3095   24.0382 C   0  0  1  0  0  0
  -20.5884  -28.3627   23.1358 C   0  0  2  0  0  0
  -20.6775  -26.9374   22.5445 C   0  0  0  0  0  0
  -19.5733  -26.6359   21.5254 C   0  0  0  0  0  0
  -18.1915  -26.7876   22.1639 C   0  0  0  0  0  0
  -19.1529  -28.8803   23.2937 C   0  0  0  0  0  0
  -18.9421  -30.1430   23.8899 C   0  0  0  0  0  0
  -17.6402  -30.6534   24.0564 C   0  0  0  0  0  0
  -25.9059  -34.9456   23.5179 C   0  0  0  0  0  0
  -16.5311  -29.9019   23.6318 C   0  0  0  0  0  0
  -16.7261  -28.6444   23.0359 C   0  0  0  0  0  0
  -26.4524  -31.6521   25.0711 C   0  0  0  0  0  0
  -25.3833  -31.3559   26.1493 C   0  0  0  0  0  0
  -27.0433  -30.2993   24.6056 C   0  0  0  0  0  0
  -27.6121  -32.4239   25.7474 C   0  0  0  0  0  0
  -27.5592  -37.1808   24.8479 C   0  0  0  0  0  0
  -21.4193  -29.2991   22.3775 N   0  0  0  0  0  0
  -26.4287  -37.3766   23.9439 N   0  0  0  0  0  0
  -24.6726  -31.0739   22.0955 N   0  0  0  0  0  0
  -23.4222  -28.8201   23.3105 O   0  0  0  0  0  0
  -28.4232  -26.6930   20.0827 O   0  0  0  0  0  0
  -26.5549  -34.8918   22.4699 O   0  0  0  0  0  0
  -23.5379  -32.1431   23.7440 O   0  0  0  0  0  0
  -29.7979  -19.2293   20.2157 C   0  0  0  0  0  0
  -29.4955  -18.8962   18.9046 C   0  0  0  0  0  0
  -29.8923  -16.9056   20.3385 C   0  0  0  0  0  0
  -29.5809  -23.0607   20.3273 C   0  0  0  0  0  0
  -29.9587  -20.6093   22.3748 C   0  0  0  0  0  0
  -28.6401  -24.1756   19.7694 C   0  0  0  0  0  0
  -28.4477  -25.4021   20.7295 C   0  0  0  0  0  0
  -30.0428  -20.6300   20.8244 C   0  0  2  0  0  0
  -30.0083  -18.0657   21.0097 N   0  0  0  0  0  0
  -29.2540  -19.7220   17.8051 N   0  0  0  0  0  0
  -29.9670  -15.6202   20.9728 N   0  0  0  0  0  0
  -29.2150  -21.7514   20.2883 N   0  0  0  0  0  0
  -30.6755  -23.3898   20.7922 O   0  0  0  0  0  0
  -29.5011  -17.1600   18.6414 S   0  0  0  0  0  0
  -31.4837  -12.4136   19.1924 H   0  0  0  0  0  0
  -30.2922  -11.3486   19.8882 H   0  0  0  0  0  0
  -29.7801  -11.8075   17.4584 H   0  0  0  0  0  0
  -29.7071  -13.5124   17.7909 H   0  0  0  0  0  0
  -27.8172  -11.3459   18.7867 H   0  0  0  0  0  0
  -27.4146  -12.7045   17.7748 H   0  0  0  0  0  0
  -27.6917  -14.2847   19.5642 H   0  0  0  0  0  0
  -28.7033  -12.0352   21.3721 H   0  0  0  0  0  0
  -28.4787  -13.6878   21.8619 H   0  0  0  0  0  0
  -25.2820   -9.5609   22.4699 H   0  0  0  0  0  0
  -23.9964   -7.4667   22.7491 H   0  0  0  0  0  0
  -21.0847   -8.8789   19.8983 H   0  0  0  0  0  0
  -22.3796  -10.9613   19.6122 H   0  0  0  0  0  0
  -21.2068   -7.6132   23.9695 H   0  0  0  0  0  0
  -21.1523   -6.0489   25.9031 H   0  0  0  0  0  0
  -22.0583   -2.7605   23.2743 H   0  0  0  0  0  0
  -22.4071  -12.0136   22.4972 H   0  0  0  0  0  0
  -21.1013  -13.1306   22.2338 H   0  0  0  0  0  0
  -24.6309  -15.8262   20.5043 H   0  0  0  0  0  0
  -26.2464  -15.6438   20.0449 H   0  0  0  0  0  0
  -26.7169  -32.5476   23.1166 H   0  0  0  0  0  0
  -25.0317  -33.9717   25.0659 H   0  0  0  0  0  0
  -22.6955  -31.2937   21.4029 H   0  0  0  0  0  0
  -23.3773  -35.9632   23.3270 H   0  0  0  0  0  0
  -24.3618  -36.8935   22.2089 H   0  0  0  0  0  0
  -23.7250  -37.6493   23.6656 H   0  0  0  0  0  0
  -26.0556  -31.5749   20.5910 H   0  0  0  0  0  0
  -26.8192  -30.8735   21.9879 H   0  0  0  0  0  0
  -28.0893  -29.0728   21.2119 H   0  0  0  0  0  0
  -26.0900  -25.9483   19.0183 H   0  0  0  0  0  0
  -24.0084  -27.2794   19.0105 H   0  0  0  0  0  0
  -23.7215  -30.5696   19.3995 H   0  0  0  0  0  0
  -22.7444  -29.2188   19.8753 H   0  0  0  0  0  0
  -25.1265  -36.1949   25.0869 H   0  0  0  0  0  0
  -20.9945  -28.3128   24.1483 H   0  0  0  0  0  0
  -20.5739  -26.2215   23.3616 H   0  0  0  0  0  0
  -21.6624  -26.7446   22.1179 H   0  0  0  0  0  0
  -19.6909  -25.6292   21.1240 H   0  0  0  0  0  0
  -19.6627  -27.3204   20.6800 H   0  0  0  0  0  0
  -17.4238  -26.6763   21.3962 H   0  0  0  0  0  0
  -18.0198  -25.9929   22.8906 H   0  0  0  0  0  0
  -19.7902  -30.7301   24.2201 H   0  0  0  0  0  0
  -17.4939  -31.6184   24.5193 H   0  0  0  0  0  0
  -15.5313  -30.2902   23.7590 H   0  0  0  0  0  0
  -15.8695  -28.0744   22.7019 H   0  0  0  0  0  0
  -24.5962  -30.6931   25.7822 H   0  0  0  0  0  0
  -24.9081  -32.2691   26.5070 H   0  0  0  0  0  0
  -25.8245  -30.8623   27.0169 H   0  0  0  0  0  0
  -26.2974  -29.6596   24.1280 H   0  0  0  0  0  0
  -27.4476  -29.7301   25.4441 H   0  0  0  0  0  0
  -27.8661  -30.4366   23.9043 H   0  0  0  0  0  0
  -27.2725  -33.3514   26.2086 H   0  0  0  0  0  0
  -28.3884  -32.6810   25.0254 H   0  0  0  0  0  0
  -28.0829  -31.8343   26.5356 H   0  0  0  0  0  0
  -28.2600  -38.0113   24.7542 H   0  0  0  0  0  0
  -28.1104  -36.2659   24.6245 H   0  0  0  0  0  0
  -27.2359  -37.1390   25.8894 H   0  0  0  0  0  0
  -20.9388  -29.8614   21.6893 H   0  0  0  0  0  0
  -26.0189  -38.2876   24.1307 H   0  0  0  0  0  0
  -30.7409  -19.9794   22.8030 H   0  0  0  0  0  0
  -29.0022  -20.2222   22.7313 H   0  0  0  0  0  0
  -30.0920  -21.5993   22.8080 H   0  0  0  0  0  0
  -27.6664  -23.7748   19.4924 H   0  0  0  0  0  0
  -29.0772  -24.5211   18.8279 H   0  0  0  0  0  0
  -29.2865  -25.4574   21.4270 H   0  0  0  0  0  0
  -27.5688  -25.2538   21.3630 H   0  0  0  0  0  0
  -31.0737  -20.8874   20.5655 H   0  0  0  0  0  0
  -29.3526  -20.7328   17.8194 H   0  0  0  0  0  0
  -29.0930  -19.3707   16.8646 H   0  0  0  0  0  0
  -29.1484  -15.3764   21.5072 H   0  0  0  0  0  0
  -28.3295  -21.5105   19.8573 H   0  0  0  0  0  0
  1 25  1  0  0  0
  1 30  2  0  0  0
  1 81  1  0  0  0
  2  3  1  0  0  0
  2 25  1  0  0  0
  2 85  1  0  0  0
  2 86  1  0  0  0
  3  4  1  0  0  0
  3 87  1  0  0  0
  3 88  1  0  0  0
  4  5  1  0  0  0
  4 89  1  0  0  0
  4 90  1  0  0  0
  5  6  1  0  0  0
  5 26  1  0  0  0
  5 91  1  0  0  0
  6 25  1  0  0  0
  6 92  1  0  0  0
  6 93  1  0  0  0
  7  8  2  0  0  0
  7 26  1  0  0  0
  7 29  1  0  0  0
  8  9  1  0  0  0
  8 22  1  0  0  0
  9 10  1  0  0  0
  9 27  2  0  0  0
 10 11  2  0  0  0
 10 15  1  0  0  0
 11 12  1  0  0  0
 11 94  1  0  0  0
 12 13  2  0  0  0
 12 95  1  0  0  0
 13 14  1  0  0  0
 13 31  1  0  0  0
 14 15  2  0  0  0
 14 96  1  0  0  0
 15 97  1  0  0  0
 16 17  2  0  0  0
 16 21  1  0  0  0
 16 31  1  0  0  0
 17 18  1  0  0  0
 17 98  1  0  0  0
 18 19  2  0  0  0
 18 99  1  0  0  0
 19 20  1  0  0  0
 19 24  1  0  0  0
 20 21  2  0  0  0
 20100  1  0  0  0
 21 23  1  0  0  0
 22 28  1  0  0  0
 22 32  2  0  0  0
 26 27  1  0  0  0
 28101  1  0  0  0
 28102  1  0  0  0
 29103  1  0  0  0
 29104  1  0  0  0
 33 34  1  0  0  0
 33 66  1  0  0  0
 33 70  2  0  0  0
 34 36  1  0  0  0
 34 59  1  0  0  0
 34105  1  0  0  0
 35 44  2  0  0  0
 35 45  1  0  0  0
 35 68  1  0  0  0
 36 56  1  0  0  0
 36106  1  0  0  0
 37 39  1  0  0  0
 37 47  1  0  0  0
 37 66  1  0  0  0
 37107  1  0  0  0
 38 43  2  0  0  0
 38 46  1  0  0  0
 38 47  1  0  0  0
 39 64  1  0  0  0
 39 67  2  0  0  0
 40 52  1  0  0  0
 40 53  2  0  0  0
 40 58  1  0  0  0
 41108  1  0  0  0
 41109  1  0  0  0
 41110  1  0  0  0
 41 48  1  0  0  0
 42 43  1  0  0  0
 42 66  1  0  0  0
 42111  1  0  0  0
 42112  1  0  0  0
 43 44  1  0  0  0
 44113  1  0  0  0
 45 46  2  0  0  0
 45114  1  0  0  0
 46115  1  0  0  0
 47116  1  0  0  0
 47117  1  0  0  0
 48 56  1  0  0  0
 48 65  1  0  0  0
 48118  1  0  0  0
 49 50  1  0  0  0
 49 53  1  0  0  0
 49 64  1  0  0  0
 49119  1  0  0  0
 50 51  1  0  0  0
 50120  1  0  0  0
 50121  1  0  0  0
 51 52  1  0  0  0
 51122  1  0  0  0
 51123  1  0  0  0
 52124  1  0  0  0
 52125  1  0  0  0
 53 54  1  0  0  0
 54 55  2  0  0  0
 54126  1  0  0  0
 55 57  1  0  0  0
 55127  1  0  0  0
 56 69  2  0  0  0
 57 58  2  0  0  0
 57128  1  0  0  0
 58129  1  0  0  0
 59 60  1  0  0  0
 59 61  1  0  0  0
 59 62  1  0  0  0
 60130  1  0  0  0
 60131  1  0  0  0
 60132  1  0  0  0
 61133  1  0  0  0
 61134  1  0  0  0
 61135  1  0  0  0
 62136  1  0  0  0
 62137  1  0  0  0
 62138  1  0  0  0
 63 65  1  0  0  0
 63139  1  0  0  0
 63140  1  0  0  0
 63141  1  0  0  0
 64142  1  0  0  0
 65143  1  0  0  0
 68 77  1  0  0  0
 71 72  2  0  0  0
 71 78  1  0  0  0
 71 79  1  0  0  0
 72 80  1  0  0  0
 72 84  1  0  0  0
 73 79  2  0  0  0
 73 81  1  0  0  0
 73 84  1  0  0  0
 74 76  1  0  0  0
 74 82  1  0  0  0
 74 83  2  0  0  0
 75144  1  0  0  0
 75145  1  0  0  0
 75146  1  0  0  0
 75 78  1  0  0  0
 76 77  1  0  0  0
 76147  1  0  0  0
 76148  1  0  0  0
 77149  1  0  0  0
 77150  1  0  0  0
 78 82  1  0  0  0
 78151  1  0  0  0
 80152  1  0  0  0
 80153  1  0  0  0
 81154  1  0  0  0
 82155  1  0  0  0
M  ISO  4   1 100  68 101  77 101  81 100
M  END
> <chiral flag>
0

> <version>
0

> <s_m_source_file>
/data/baiqing/PycharmProjects/Reinvent-master-3.2/result/LINK_invent/BTK/process_docking_weight1_custom_product_contain_oxygen_bond_distance_aromatic_linkinvent_7_9_3/rearranged_h_0182.sdf

> <i_m_source_file_index>
63

> <r_mmod_Potential_Energy-OPLS-2005>
-90.0099258422852

> <r_mmod_Stretch_Energy-OPLS-2005>
49.8502540588379

> <r_mmod_Bend_Energy-OPLS-2005>
112.307609558105

> <r_mmod_Torsional_Energy-OPLS-2005>
259.042602539062

> <r_mmod_Improper_Torsional_Energy-OPLS-2005>
6.06679439544678

> <r_mmod_Van_der_Waal_Energy-OPLS-2005>
121.544227600098

> <r_mmod_Electrostatic_Energy-OPLS-2005>
-413.003723144531

> <r_mmod_Solvation_Energy-OPLS-2005>
-248.172592163086

> <b_mmod_Minimization_Converged-OPLS-2005>
0

> <r_mmod_RMS_Derivative-OPLS-2005>
7.20859289169312

$$$$
63
                    3D
 Structure written by MMmdl.
157165  0  0  1  0            999 V2000
  -29.4347  -15.5655   20.7754 C   0  0  0  0  0  0
  -30.2907  -13.1761   19.7017 C   0  0  0  0  0  0
  -29.5249  -12.7199   18.4111 C   0  0  0  0  0  0
  -28.0793  -12.2905   18.7301 C   0  0  0  0  0  0
  -27.5022  -13.2065   19.8265 C   0  0  2  0  0  0
  -28.3893  -13.2798   21.0597 C   0  0  0  0  0  0
  -25.1844  -13.7963   20.5550 C   0  0  0  0  0  0
  -24.1285  -13.0265   20.9330 C   0  0  0  0  0  0
  -24.5860  -11.6731   20.8772 C   0  0  0  0  0  0
  -23.8674  -10.4160   21.0493 C   0  0  0  0  0  0
  -24.3372   -9.4127   21.9232 C   0  0  0  0  0  0
  -23.6154   -8.2114   22.0746 C   0  0  0  0  0  0
  -22.4145   -8.0132   21.3527 C   0  0  0  0  0  0
  -21.9692   -9.0067   20.4637 C   0  0  0  0  0  0
  -22.6908  -10.1994   20.3091 C   0  0  0  0  0  0
  -21.6805   -6.0628   22.5291 C   0  0  0  0  0  0
  -21.3992   -6.5576   23.8216 C   0  0  0  0  0  0
  -21.3668   -5.6756   24.9199 C   0  0  0  0  0  0
  -21.6051   -4.3017   24.7268 C   0  0  0  0  0  0
  -21.8813   -3.8075   23.4402 C   0  0  0  0  0  0
  -21.9169   -4.6863   22.3439 C   0  0  0  0  0  0
  -22.7434  -13.5169   21.2123 C   0  0  0  0  0  0
  -22.1627   -4.2043   21.1016 F   0  0  0  0  0  0
  -21.5649   -3.4521   25.7795 F   0  0  0  0  0  0
  -29.4396  -14.1224   20.5846 N   0  0  0  0  0  0
  -26.1856  -12.8979   20.2619 N   0  0  0  0  0  0
  -25.8622  -11.6197   20.5385 N   0  0  0  0  0  0
  -22.0102  -12.8178   22.0700 N   0  0  0  0  0  0
  -25.3765  -15.1675   20.3996 N   0  0  0  0  0  0
  -30.6328  -15.8805   20.4912 O   0  0  0  0  0  0
  -21.6569   -6.8712   21.4222 O   0  0  0  0  0  0
  -22.3258  -14.5547   20.6998 O   0  0  0  0  0  0
  -24.6514  -31.9281   23.2362 C   0  0  0  0  0  0
  -25.9435  -32.5065   23.8682 C   0  0  1  0  0  0
  -26.2384  -27.2405   20.3395 C   0  0  0  0  0  0
  -25.6295  -33.8828   24.2610 N   0  0  0  0  0  0
  -23.4567  -30.5690   21.5974 C   0  0  2  0  0  0
  -24.8912  -29.3596   19.7944 C   0  0  0  0  0  0
  -23.0751  -29.4483   22.6103 C   0  0  0  0  0  0
  -18.6945  -27.5746   22.5056 C   0  0  0  0  0  0
  -24.1509  -36.7391   23.2605 C   0  0  0  0  0  0
  -25.9906  -30.8436   21.4422 C   0  0  0  0  0  0
  -25.9459  -29.5416   20.6872 C   0  0  0  0  0  0
  -26.8050  -28.4436   20.8704 C   0  0  0  0  0  0
  -26.0051  -27.3332   18.9990 C   0  0  0  0  0  0
  -25.0660  -28.3591   18.7860 C   0  0  0  0  0  0
  -23.6283  -30.1574   20.0841 C   0  0  0  0  0  0
  -25.4119  -36.3241   24.0353 C   0  0  1  0  0  0
  -21.3911  -27.8861   23.4685 C   0  0  2  0  0  0
  -22.4116  -26.3003   22.6733 C   0  0  0  0  0  0
  -20.7518  -25.2556   21.1108 C   0  0  0  0  0  0
  -19.0353  -26.2291   21.4376 C   0  0  0  0  0  0
  -19.7187  -28.2888   23.3121 C   0  0  0  0  0  0
  -19.2794  -29.5578   23.9189 C   0  0  0  0  0  0
  -17.9645  -30.1079   23.9234 C   0  0  0  0  0  0
  -25.9109  -34.9615   23.5202 C   0  0  0  0  0  0
  -16.9569  -29.3531   23.3144 C   0  0  0  0  0  0
  -17.3312  -28.1426   22.6329 C   0  0  0  0  0  0
  -26.4625  -31.6686   25.0995 C   0  0  0  0  0  0
  -25.3776  -31.3774   26.1628 C   0  0  0  0  0  0
  -27.0448  -30.3084   24.6483 C   0  0  0  0  0  0
  -27.6188  -32.4336   25.7820 C   0  0  0  0  0  0
  -27.5595  -37.1908   24.8466 C   0  0  0  0  0  0
  -21.8305  -29.2164   22.9428 N   0  0  0  0  0  0
  -26.4300  -37.3929   23.9428 N   0  0  0  0  0  0
  -24.7119  -31.1755   22.1088 N   0  0  0  0  0  0
  -23.9188  -28.8047   23.2166 O   0  0  0  0  0  0
  -24.9244  -26.9184   20.8791 O   0  0  0  0  0  0
  -26.5519  -34.9008   22.4664 O   0  0  0  0  0  0
  -23.5696  -32.1918   23.7802 O   0  0  0  0  0  0
  -25.0319  -20.4115   22.1410 C   0  0  0  0  0  0
  -26.4802  -20.4875   21.9802 C   0  0  0  0  0  0
  -27.1670  -17.9618   21.4790 C   0  0  0  0  0  0
  -23.4984  -21.4414   22.6586 C   0  0  0  0  0  0
  -21.5258  -23.6876   23.2963 C   0  0  0  0  0  0
  -23.2053  -25.7562   19.5569 C   0  0  0  0  0  0
  -20.5033  -25.4613   23.2831 C   0  0  0  0  0  0
  -21.2873  -27.3843   21.1401 C   0  0  0  0  0  0
  -23.1703  -27.0649   20.3909 C   0  0  1  0  0  0
  -27.4629  -19.3353   21.6369 N   0  0  0  0  0  0
  -27.1357  -21.7030   22.1837 N   0  0  0  0  0  0
  -28.1234  -16.4583   21.1477 N   0  0  0  0  0  0
  -22.8284  -22.9148   22.7089 N   0  0  0  0  0  0
  -22.7001  -20.6292   23.1337 O   0  0  0  0  0  0
  -20.8903  -22.9354   24.0358 O   0  0  0  0  0  0
  -25.2203  -18.4367   21.8529 S   0  0  0  0  0  0
  -31.2057  -13.6830   19.3955 H   0  0  0  0  0  0
  -30.6240  -12.3086   20.2755 H   0  0  0  0  0  0
  -30.0657  -11.9258   17.8924 H   0  0  0  0  0  0
  -29.4923  -13.5674   17.7248 H   0  0  0  0  0  0
  -28.0859  -11.2592   19.0822 H   0  0  0  0  0  0
  -27.4543  -12.3147   17.8358 H   0  0  0  0  0  0
  -27.4298  -14.1849   19.3508 H   0  0  0  0  0  0
  -28.7091  -12.2914   21.3951 H   0  0  0  0  0  0
  -27.8768  -13.7451   21.9040 H   0  0  0  0  0  0
  -25.2502   -9.5686   22.4803 H   0  0  0  0  0  0
  -23.9918   -7.4486   22.7417 H   0  0  0  0  0  0
  -21.0644   -8.8507   19.8920 H   0  0  0  0  0  0
  -22.3314  -10.9532   19.6224 H   0  0  0  0  0  0
  -21.1973   -7.6086   23.9703 H   0  0  0  0  0  0
  -21.1520   -6.0495   25.9108 H   0  0  0  0  0  0
  -22.0592   -2.7529   23.2946 H   0  0  0  0  0  0
  -22.3671  -11.9768   22.4983 H   0  0  0  0  0  0
  -21.0763  -13.1252   22.3031 H   0  0  0  0  0  0
  -24.5258  -15.7185   20.4420 H   0  0  0  0  0  0
  -25.9426  -15.4420   19.6067 H   0  0  0  0  0  0
  -26.7565  -32.5624   23.1471 H   0  0  0  0  0  0
  -25.0622  -34.0001   25.0877 H   0  0  0  0  0  0
  -22.6566  -31.3097   21.6157 H   0  0  0  0  0  0
  -23.3796  -35.9701   23.3271 H   0  0  0  0  0  0
  -24.3632  -36.8976   22.2021 H   0  0  0  0  0  0
  -23.7220  -37.6597   23.6567 H   0  0  0  0  0  0
  -26.2340  -31.6444   20.7415 H   0  0  0  0  0  0
  -26.8420  -30.7596   22.1064 H   0  0  0  0  0  0
  -27.5622  -28.4421   21.6438 H   0  0  0  0  0  0
  -26.0158  -26.4748   18.3434 H   0  0  0  0  0  0
  -24.4136  -28.3003   17.9269 H   0  0  0  0  0  0
  -23.7122  -31.0720   19.4979 H   0  0  0  0  0  0
  -22.7142  -29.7115   19.7039 H   0  0  0  0  0  0
  -25.1255  -36.2154   25.0847 H   0  0  0  0  0  0
  -21.6167  -27.9069   24.5355 H   0  0  0  0  0  0
  -22.7620  -25.7470   23.5508 H   0  0  0  0  0  0
  -23.4646  -26.4440   22.4991 H   0  0  0  0  0  0
  -20.5970  -24.1767   21.1225 H   0  0  0  0  0  0
  -20.9020  -25.2927   20.0350 H   0  0  0  0  0  0
  -18.6863  -26.5674   20.4613 H   0  0  0  0  0  0
  -18.2849  -25.4718   21.6700 H   0  0  0  0  0  0
  -20.0220  -30.1298   24.4549 H   0  0  0  0  0  0
  -17.7469  -31.0417   24.4246 H   0  0  0  0  0  0
  -15.9300  -29.6902   23.3118 H   0  0  0  0  0  0
  -16.5445  -27.6264   22.0995 H   0  0  0  0  0  0
  -24.6020  -30.7077   25.7900 H   0  0  0  0  0  0
  -24.8905  -32.2904   26.5056 H   0  0  0  0  0  0
  -25.8078  -30.8963   27.0419 H   0  0  0  0  0  0
  -26.3099  -29.6944   24.1292 H   0  0  0  0  0  0
  -27.3841  -29.7238   25.5042 H   0  0  0  0  0  0
  -27.9125  -30.4327   24.0002 H   0  0  0  0  0  0
  -27.2845  -33.3647   26.2411 H   0  0  0  0  0  0
  -28.4060  -32.6870   25.0700 H   0  0  0  0  0  0
  -28.0792  -31.8421   26.5743 H   0  0  0  0  0  0
  -28.2626  -38.0203   24.7551 H   0  0  0  0  0  0
  -28.1086  -36.2741   24.6240 H   0  0  0  0  0  0
  -27.2324  -37.1513   25.8875 H   0  0  0  0  0  0
  -21.1048  -29.8083   22.5643 H   0  0  0  0  0  0
  -26.0203  -38.3012   24.1450 H   0  0  0  0  0  0
  -23.0502  -24.8697   20.1687 H   0  0  0  0  0  0
  -24.1589  -25.5774   19.0765 H   0  0  0  0  0  0
  -22.4900  -25.7706   18.7335 H   0  0  0  0  0  0
  -20.6455  -25.8058   24.3113 H   0  0  0  0  0  0
  -19.4629  -25.1539   23.4109 H   0  0  0  0  0  0
  -20.9045  -28.3994   21.0981 H   0  0  0  0  0  0
  -20.7607  -27.3251   20.1791 H   0  0  0  0  0  0
  -23.0160  -27.7257   19.5680 H   0  0  0  0  0  0
  -26.6695  -22.4146   22.7366 H   0  0  0  0  0  0
  -28.1412  -21.6853   22.3163 H   0  0  0  0  0  0
  -27.4291  -15.7242   21.2230 H   0  0  0  0  0  0
  -23.4084  -23.5601   22.1946 H   0  0  0  0  0  0
  1 25  1  0  0  0
  1 30  2  0  0  0
  1 82  1  0  0  0
  2  3  1  0  0  0
  2 25  1  0  0  0
  2 87  1  0  0  0
  2 88  1  0  0  0
  3  4  1  0  0  0
  3 89  1  0  0  0
  3 90  1  0  0  0
  4  5  1  0  0  0
  4 91  1  0  0  0
  4 92  1  0  0  0
  5  6  1  0  0  0
  5 26  1  0  0  0
  5 93  1  0  0  0
  6 25  1  0  0  0
  6 94  1  0  0  0
  6 95  1  0  0  0
  7  8  2  0  0  0
  7 26  1  0  0  0
  7 29  1  0  0  0
  8  9  1  0  0  0
  8 22  1  0  0  0
  9 10  1  0  0  0
  9 27  2  0  0  0
 10 11  2  0  0  0
 10 15  1  0  0  0
 11 12  1  0  0  0
 11 96  1  0  0  0
 12 13  2  0  0  0
 12 97  1  0  0  0
 13 14  1  0  0  0
 13 31  1  0  0  0
 14 15  2  0  0  0
 14 98  1  0  0  0
 15 99  1  0  0  0
 16 17  2  0  0  0
 16 21  1  0  0  0
 16 31  1  0  0  0
 17 18  1  0  0  0
 17100  1  0  0  0
 18 19  2  0  0  0
 18101  1  0  0  0
 19 20  1  0  0  0
 19 24  1  0  0  0
 20 21  2  0  0  0
 20102  1  0  0  0
 21 23  1  0  0  0
 22 28  1  0  0  0
 22 32  2  0  0  0
 26 27  1  0  0  0
 28103  1  0  0  0
 28104  1  0  0  0
 29105  1  0  0  0
 29106  1  0  0  0
 33 34  1  0  0  0
 33 66  1  0  0  0
 33 70  2  0  0  0
 34 36  1  0  0  0
 34 59  1  0  0  0
 34107  1  0  0  0
 35 44  2  0  0  0
 35 45  1  0  0  0
 35 68  1  0  0  0
 36 56  1  0  0  0
 36108  1  0  0  0
 37 39  1  0  0  0
 37 47  1  0  0  0
 37 66  1  0  0  0
 37109  1  0  0  0
 38 43  2  0  0  0
 38 46  1  0  0  0
 38 47  1  0  0  0
 39 64  1  0  0  0
 39 67  2  0  0  0
 40 52  1  0  0  0
 40 53  2  0  0  0
 40 58  1  0  0  0
 41110  1  0  0  0
 41111  1  0  0  0
 41112  1  0  0  0
 41 48  1  0  0  0
 42 43  1  0  0  0
 42 66  1  0  0  0
 42113  1  0  0  0
 42114  1  0  0  0
 43 44  1  0  0  0
 44115  1  0  0  0
 45 46  2  0  0  0
 45116  1  0  0  0
 46117  1  0  0  0
 47118  1  0  0  0
 47119  1  0  0  0
 48 56  1  0  0  0
 48 65  1  0  0  0
 48120  1  0  0  0
 49 50  1  0  0  0
 49 53  1  0  0  0
 49 64  1  0  0  0
 49121  1  0  0  0
 50 51  1  0  0  0
 50122  1  0  0  0
 50123  1  0  0  0
 51 52  1  0  0  0
 51124  1  0  0  0
 51125  1  0  0  0
 52126  1  0  0  0
 52127  1  0  0  0
 53 54  1  0  0  0
 54 55  2  0  0  0
 54128  1  0  0  0
 55 57  1  0  0  0
 55129  1  0  0  0
 56 69  2  0  0  0
 57 58  2  0  0  0
 57130  1  0  0  0
 58131  1  0  0  0
 59 60  1  0  0  0
 59 61  1  0  0  0
 59 62  1  0  0  0
 60132  1  0  0  0
 60133  1  0  0  0
 60134  1  0  0  0
 61135  1  0  0  0
 61136  1  0  0  0
 61137  1  0  0  0
 62138  1  0  0  0
 62139  1  0  0  0
 62140  1  0  0  0
 63 65  1  0  0  0
 63141  1  0  0  0
 63142  1  0  0  0
 63143  1  0  0  0
 64144  1  0  0  0
 65145  1  0  0  0
 68 79  1  0  0  0
 71 72  2  0  0  0
 71 74  1  0  0  0
 71 86  1  0  0  0
 72 80  1  0  0  0
 72 81  1  0  0  0
 73 80  2  0  0  0
 73 82  1  0  0  0
 73 86  1  0  0  0
 74 83  1  0  0  0
 74 84  2  0  0  0
 75 77  1  0  0  0
 75 83  1  0  0  0
 75 85  2  0  0  0
 76146  1  0  0  0
 76147  1  0  0  0
 76148  1  0  0  0
 76 79  1  0  0  0
 77 78  1  0  0  0
 77149  1  0  0  0
 77150  1  0  0  0
 78 79  1  0  0  0
 78151  1  0  0  0
 78152  1  0  0  0
 79153  1  0  0  0
 81154  1  0  0  0
 81155  1  0  0  0
 82156  1  0  0  0
 83157  1  0  0  0
M  ISO  4   1 100  68 101  79 101  82 100
M  END
> <chiral flag>
0

> <version>
0

> <s_m_source_file>
/data/baiqing/PycharmProjects/Reinvent-master-3.2/result/LINK_invent/BTK/process_docking_weight1_custom_product_contain_oxygen_bond_distance_aromatic_linkinvent_7_9_3/rearranged_h_0182.sdf

> <i_m_source_file_index>
64

> <r_mmod_Potential_Energy-OPLS-2005>
13511.259765625

> <r_mmod_Stretch_Energy-OPLS-2005>
6455.7529296875

> <r_mmod_Bend_Energy-OPLS-2005>
1447.57019042969

> <r_mmod_Torsional_Energy-OPLS-2005>
519.401245117188

> <r_mmod_Improper_Torsional_Energy-OPLS-2005>
44.1135597229004

> <r_mmod_Van_der_Waal_Energy-OPLS-2005>
1941.78308105469

> <r_mmod_Electrostatic_Energy-OPLS-2005>
-548.508239746094

> <r_mmod_Solvation_Energy-OPLS-2005>
-282.736145019531

> <b_mmod_Minimization_Converged-OPLS-2005>
0

> <r_mmod_RMS_Derivative-OPLS-2005>
5.66833400726318

$$$$
64
                    3D
 Structure written by MMmdl.
158166  0  0  1  0            999 V2000
  -30.7586  -14.3786   20.6779 C   0  0  0  0  0  0
  -30.4195  -12.2955   19.3955 C   0  0  0  0  0  0
  -29.4839  -12.5232   18.1934 C   0  0  0  0  0  0
  -28.0084  -12.3802   18.6109 C   0  0  0  0  0  0
  -27.6665  -13.2029   19.8804 C   0  0  2  0  0  0
  -28.7048  -12.9441   20.9942 C   0  0  0  0  0  0
  -25.2586  -13.8148   20.5637 C   0  0  0  0  0  0
  -24.1844  -13.0434   20.9171 C   0  0  0  0  0  0
  -24.6397  -11.6903   20.8738 C   0  0  0  0  0  0
  -23.9060  -10.4294   21.0409 C   0  0  0  0  0  0
  -24.3614   -9.4208   21.9186 C   0  0  0  0  0  0
  -23.6290   -8.2242   22.0754 C   0  0  0  0  0  0
  -22.4273   -8.0280   21.3544 C   0  0  0  0  0  0
  -21.9907   -9.0254   20.4646 C   0  0  0  0  0  0
  -22.7233  -10.2134   20.3057 C   0  0  0  0  0  0
  -21.6852   -6.0733   22.5278 C   0  0  0  0  0  0
  -21.4013   -6.5638   23.8211 C   0  0  0  0  0  0
  -21.3660   -5.6792   24.9175 C   0  0  0  0  0  0
  -21.6045   -4.3054   24.7227 C   0  0  0  0  0  0
  -21.8818   -3.8145   23.4349 C   0  0  0  0  0  0
  -21.9194   -4.6962   22.3403 C   0  0  0  0  0  0
  -22.7870  -13.5237   21.1839 C   0  0  0  0  0  0
  -22.1662   -4.2146   21.0981 F   0  0  0  0  0  0
  -21.5631   -3.4538   25.7740 F   0  0  0  0  0  0
  -30.0474  -13.2418   20.4579 N   0  0  0  0  0  0
  -26.3046  -12.9324   20.3380 N   0  0  0  0  0  0
  -25.9326  -11.6487   20.5779 N   0  0  0  0  0  0
  -22.0514  -12.8232   22.0401 N   0  0  0  0  0  0
  -25.4261  -15.1850   20.3940 N   0  0  0  0  0  0
  -31.7868  -14.6663   20.0573 O   0  0  0  0  0  0
  -21.6637   -6.8875   21.4240 O   0  0  0  0  0  0
  -22.3554  -14.5546   20.6695 O   0  0  0  0  0  0
  -24.6135  -31.8696   23.2127 C   0  0  0  0  0  0
  -25.9037  -32.4831   23.8409 C   0  0  1  0  0  0
  -27.2359  -27.4492   20.0782 C   0  0  0  0  0  0
  -25.5911  -33.8629   24.2346 N   0  0  0  0  0  0
  -23.3993  -30.4944   21.5539 C   0  0  2  0  0  0
  -24.8424  -28.9613   20.1178 C   0  0  0  0  0  0
  -22.7402  -29.4667   22.5012 C   0  0  0  0  0  0
  -18.0272  -28.1369   22.8496 C   0  0  0  0  0  0
  -24.1486  -36.7314   23.2635 C   0  0  0  0  0  0
  -25.9277  -30.8370   21.3645 C   0  0  0  0  0  0
  -26.0027  -29.4725   20.7113 C   0  0  0  0  0  0
  -27.1983  -28.7215   20.6922 C   0  0  0  0  0  0
  -26.0500  -26.9467   19.4888 C   0  0  0  0  0  0
  -24.8593  -27.6956   19.5094 C   0  0  0  0  0  0
  -23.6057  -29.8280   20.1678 C   0  0  0  0  0  0
  -25.4104  -36.3114   24.0340 C   0  0  1  0  0  0
  -20.5862  -28.3655   23.1327 C   0  0  2  0  0  0
  -20.6764  -26.9394   22.5421 C   0  0  0  0  0  0
  -19.5741  -26.6382   21.5217 C   0  0  0  0  0  0
  -18.1918  -26.7917   22.1624 C   0  0  0  0  0  0
  -19.1522  -28.8828   23.2909 C   0  0  0  0  0  0
  -18.9446  -30.1438   23.8909 C   0  0  0  0  0  0
  -17.6448  -30.6572   24.0569 C   0  0  0  0  0  0
  -25.9032  -34.9479   23.5136 C   0  0  0  0  0  0
  -16.5341  -29.9079   23.6323 C   0  0  0  0  0  0
  -16.7263  -28.6499   23.0339 C   0  0  0  0  0  0
  -26.4474  -31.6602   25.0727 C   0  0  0  0  0  0
  -25.3745  -31.3697   26.1479 C   0  0  0  0  0  0
  -27.0307  -30.3048   24.6093 C   0  0  0  0  0  0
  -27.6057  -32.4317   25.7484 C   0  0  0  0  0  0
  -27.5584  -37.1806   24.8462 C   0  0  0  0  0  0
  -21.4132  -29.3029   22.3742 N   0  0  0  0  0  0
  -26.4290  -37.3799   23.9415 N   0  0  0  0  0  0
  -24.6653  -31.0806   22.1025 N   0  0  0  0  0  0
  -23.4185  -28.8206   23.3044 O   0  0  0  0  0  0
  -28.4300  -26.7564   20.0801 O   0  0  0  0  0  0
  -26.5587  -34.8922   22.4692 O   0  0  0  0  0  0
  -23.5334  -32.1450   23.7534 O   0  0  0  0  0  0
  -28.8542  -17.9993   21.5827 C   0  0  0  0  0  0
  -28.6074  -19.2506   20.9258 C   0  0  0  0  0  0
  -30.1825  -17.6427   21.5329 C   0  0  0  0  0  0
  -29.7351  -19.8578   20.4273 C   0  0  0  0  0  0
  -29.9226  -23.3675   19.2076 C   0  0  0  0  0  0
  -29.5139  -22.2553   20.2119 C   0  0  0  0  0  0
  -27.8027  -17.1610   22.2576 C   0  0  0  0  0  0
  -30.8553  -16.4278   22.1092 C   0  0  0  0  0  0
  -28.4563  -25.4320   19.5376 C   0  0  0  0  0  0
  -29.8589  -24.8211   19.7051 C   0  0  2  0  0  0
  -27.3104  -19.7631   20.8036 N   0  0  0  0  0  0
  -29.8454  -21.0334   19.7607 N   0  0  0  0  0  0
  -30.2781  -15.1673   21.6472 N   0  0  0  0  0  0
  -30.3023  -23.1005   18.0579 O   0  0  0  0  0  0
  -28.9702  -22.4948   21.2958 O   0  0  0  0  0  0
  -30.7372  -25.5731   19.0293 F   0  0  0  0  0  0
  -31.1270  -18.8391   20.6814 S   0  0  0  0  0  0
  -31.4611  -12.4023   19.0874 H   0  0  0  0  0  0
  -30.3264  -11.2725   19.7634 H   0  0  0  0  0  0
  -29.7155  -11.8147   17.3969 H   0  0  0  0  0  0
  -29.6534  -13.5177   17.7776 H   0  0  0  0  0  0
  -27.8140  -11.3224   18.7919 H   0  0  0  0  0  0
  -27.3548  -12.6714   17.7877 H   0  0  0  0  0  0
  -27.7252  -14.2573   19.6088 H   0  0  0  0  0  0
  -28.6694  -11.8991   21.3059 H   0  0  0  0  0  0
  -28.4490  -13.5146   21.8869 H   0  0  0  0  0  0
  -25.2760   -9.5684   22.4757 H   0  0  0  0  0  0
  -24.0001   -7.4633   22.7473 H   0  0  0  0  0  0
  -21.0838   -8.8772   19.8952 H   0  0  0  0  0  0
  -22.3693  -10.9674   19.6165 H   0  0  0  0  0  0
  -21.2001   -7.6146   23.9713 H   0  0  0  0  0  0
  -21.1484   -6.0523   25.9077 H   0  0  0  0  0  0
  -22.0598   -2.7609   23.2851 H   0  0  0  0  0  0
  -22.4131  -11.9888   22.4781 H   0  0  0  0  0  0
  -21.1134  -13.1261   22.2616 H   0  0  0  0  0  0
  -24.6520  -15.8341   20.4798 H   0  0  0  0  0  0
  -26.2673  -15.6161   20.0334 H   0  0  0  0  0  0
  -26.7109  -32.5542   23.1174 H   0  0  0  0  0  0
  -25.0088  -33.9794   25.0510 H   0  0  0  0  0  0
  -22.6872  -31.3108   21.4175 H   0  0  0  0  0  0
  -23.3741  -35.9653   23.3310 H   0  0  0  0  0  0
  -24.3585  -36.8915   22.2047 H   0  0  0  0  0  0
  -23.7246  -37.6527   23.6638 H   0  0  0  0  0  0
  -26.0398  -31.6042   20.5970 H   0  0  0  0  0  0
  -26.8164  -30.8892   21.9819 H   0  0  0  0  0  0
  -28.0960  -29.1166   21.1475 H   0  0  0  0  0  0
  -26.0178  -25.9834   19.0023 H   0  0  0  0  0  0
  -23.9647  -27.2948   19.0524 H   0  0  0  0  0  0
  -23.7160  -30.6036   19.4093 H   0  0  0  0  0  0
  -22.7289  -29.2491   19.8716 H   0  0  0  0  0  0
  -25.1279  -36.1980   25.0834 H   0  0  0  0  0  0
  -20.9949  -28.3213   24.1451 H   0  0  0  0  0  0
  -20.5679  -26.2257   23.3606 H   0  0  0  0  0  0
  -21.6632  -26.7451   22.1206 H   0  0  0  0  0  0
  -19.6904  -25.6302   21.1226 H   0  0  0  0  0  0
  -19.6674  -27.3205   20.6758 H   0  0  0  0  0  0
  -17.4196  -26.6677   21.4016 H   0  0  0  0  0  0
  -18.0310  -26.0045   22.9006 H   0  0  0  0  0  0
  -19.7922  -30.7253   24.2275 H   0  0  0  0  0  0
  -17.5004  -31.6248   24.5174 H   0  0  0  0  0  0
  -15.5344  -30.2984   23.7631 H   0  0  0  0  0  0
  -15.8665  -28.0827   22.7032 H   0  0  0  0  0  0
  -24.5925  -30.7038   25.7816 H   0  0  0  0  0  0
  -24.8924  -32.2847   26.4928 H   0  0  0  0  0  0
  -25.8102  -30.8870   27.0236 H   0  0  0  0  0  0
  -26.2847  -29.6806   24.1160 H   0  0  0  0  0  0
  -27.4103  -29.7285   25.4541 H   0  0  0  0  0  0
  -27.8670  -30.4375   23.9225 H   0  0  0  0  0  0
  -27.2686  -33.3609   26.2087 H   0  0  0  0  0  0
  -28.3847  -32.6892   25.0297 H   0  0  0  0  0  0
  -28.0746  -31.8428   26.5378 H   0  0  0  0  0  0
  -28.2596  -38.0111   24.7532 H   0  0  0  0  0  0
  -28.1091  -36.2646   24.6259 H   0  0  0  0  0  0
  -27.2312  -37.1425   25.8869 H   0  0  0  0  0  0
  -20.9289  -29.8761   21.6976 H   0  0  0  0  0  0
  -26.0180  -38.2878   24.1416 H   0  0  0  0  0  0
  -26.8392  -17.6654   22.3214 H   0  0  0  0  0  0
  -28.0950  -16.9098   23.2770 H   0  0  0  0  0  0
  -27.6428  -16.2266   21.7225 H   0  0  0  0  0  0
  -30.7689  -16.4543   23.1960 H   0  0  0  0  0  0
  -31.9274  -16.4562   21.9049 H   0  0  0  0  0  0
  -27.7207  -24.8098   20.0508 H   0  0  0  0  0  0
  -28.1947  -25.4607   18.4781 H   0  0  0  0  0  0
  -30.1572  -24.8424   20.7529 H   0  0  0  0  0  0
  -26.5421  -19.1048   20.8619 H   0  0  0  0  0  0
  -27.1649  -20.4795   20.1026 H   0  0  0  0  0  0
  -30.3718  -21.0380   18.8965 H   0  0  0  0  0  0
  -29.4569  -14.8345   22.1280 H   0  0  0  0  0  0
  1 25  1  0  0  0
  1 30  2  0  0  0
  1 83  1  0  0  0
  2  3  1  0  0  0
  2 25  1  0  0  0
  2 88  1  0  0  0
  2 89  1  0  0  0
  3  4  1  0  0  0
  3 90  1  0  0  0
  3 91  1  0  0  0
  4  5  1  0  0  0
  4 92  1  0  0  0
  4 93  1  0  0  0
  5  6  1  0  0  0
  5 26  1  0  0  0
  5 94  1  0  0  0
  6 25  1  0  0  0
  6 95  1  0  0  0
  6 96  1  0  0  0
  7  8  2  0  0  0
  7 26  1  0  0  0
  7 29  1  0  0  0
  8  9  1  0  0  0
  8 22  1  0  0  0
  9 10  1  0  0  0
  9 27  2  0  0  0
 10 11  2  0  0  0
 10 15  1  0  0  0
 11 12  1  0  0  0
 11 97  1  0  0  0
 12 13  2  0  0  0
 12 98  1  0  0  0
 13 14  1  0  0  0
 13 31  1  0  0  0
 14 15  2  0  0  0
 14 99  1  0  0  0
 15100  1  0  0  0
 16 17  2  0  0  0
 16 21  1  0  0  0
 16 31  1  0  0  0
 17 18  1  0  0  0
 17101  1  0  0  0
 18 19  2  0  0  0
 18102  1  0  0  0
 19 20  1  0  0  0
 19 24  1  0  0  0
 20 21  2  0  0  0
 20103  1  0  0  0
 21 23  1  0  0  0
 22 28  1  0  0  0
 22 32  2  0  0  0
 26 27  1  0  0  0
 28104  1  0  0  0
 28105  1  0  0  0
 29106  1  0  0  0
 29107  1  0  0  0
 33 34  1  0  0  0
 33 66  1  0  0  0
 33 70  2  0  0  0
 34 36  1  0  0  0
 34 59  1  0  0  0
 34108  1  0  0  0
 35 44  2  0  0  0
 35 45  1  0  0  0
 35 68  1  0  0  0
 36 56  1  0  0  0
 36109  1  0  0  0
 37 39  1  0  0  0
 37 47  1  0  0  0
 37 66  1  0  0  0
 37110  1  0  0  0
 38 43  2  0  0  0
 38 46  1  0  0  0
 38 47  1  0  0  0
 39 64  1  0  0  0
 39 67  2  0  0  0
 40 52  1  0  0  0
 40 53  2  0  0  0
 40 58  1  0  0  0
 41111  1  0  0  0
 41112  1  0  0  0
 41113  1  0  0  0
 41 48  1  0  0  0
 42 43  1  0  0  0
 42 66  1  0  0  0
 42114  1  0  0  0
 42115  1  0  0  0
 43 44  1  0  0  0
 44116  1  0  0  0
 45 46  2  0  0  0
 45117  1  0  0  0
 46118  1  0  0  0
 47119  1  0  0  0
 47120  1  0  0  0
 48 56  1  0  0  0
 48 65  1  0  0  0
 48121  1  0  0  0
 49 50  1  0  0  0
 49 53  1  0  0  0
 49 64  1  0  0  0
 49122  1  0  0  0
 50 51  1  0  0  0
 50123  1  0  0  0
 50124  1  0  0  0
 51 52  1  0  0  0
 51125  1  0  0  0
 51126  1  0  0  0
 52127  1  0  0  0
 52128  1  0  0  0
 53 54  1  0  0  0
 54 55  2  0  0  0
 54129  1  0  0  0
 55 57  1  0  0  0
 55130  1  0  0  0
 56 69  2  0  0  0
 57 58  2  0  0  0
 57131  1  0  0  0
 58132  1  0  0  0
 59 60  1  0  0  0
 59 61  1  0  0  0
 59 62  1  0  0  0
 60133  1  0  0  0
 60134  1  0  0  0
 60135  1  0  0  0
 61136  1  0  0  0
 61137  1  0  0  0
 61138  1  0  0  0
 62139  1  0  0  0
 62140  1  0  0  0
 62141  1  0  0  0
 63 65  1  0  0  0
 63142  1  0  0  0
 63143  1  0  0  0
 63144  1  0  0  0
 64145  1  0  0  0
 65146  1  0  0  0
 68 79  1  0  0  0
 71 72  1  0  0  0
 71 73  2  0  0  0
 71 77  1  0  0  0
 72 74  2  0  0  0
 72 81  1  0  0  0
 73 78  1  0  0  0
 73 87  1  0  0  0
 74 82  1  0  0  0
 74 87  1  0  0  0
 75 76  1  0  0  0
 75 80  1  0  0  0
 75 84  2  0  0  0
 76 82  1  0  0  0
 76 85  2  0  0  0
 77147  1  0  0  0
 77148  1  0  0  0
 77149  1  0  0  0
 78 83  1  0  0  0
 78150  1  0  0  0
 78151  1  0  0  0
 79 80  1  0  0  0
 79152  1  0  0  0
 79153  1  0  0  0
 80 86  1  0  0  0
 80154  1  0  0  0
 81155  1  0  0  0
 81156  1  0  0  0
 82157  1  0  0  0
 83158  1  0  0  0
M  ISO  4   1 100  68 101  79 101  83 100
M  END
> <chiral flag>
0

> <version>
0

> <s_m_source_file>
/data/baiqing/PycharmProjects/Reinvent-master-3.2/result/LINK_invent/BTK/process_docking_weight1_custom_product_contain_oxygen_bond_distance_aromatic_linkinvent_7_9_3/rearranged_h_0182.sdf

> <i_m_source_file_index>
65

> <r_mmod_Potential_Energy-OPLS-2005>
-239.2119140625

> <r_mmod_Stretch_Energy-OPLS-2005>
33.113395690918

> <r_mmod_Bend_Energy-OPLS-2005>
99.8051223754883

> <r_mmod_Torsional_Energy-OPLS-2005>
218.823806762695

> <r_mmod_Improper_Torsional_Energy-OPLS-2005>
6.00586080551147

> <r_mmod_Van_der_Waal_Energy-OPLS-2005>
132.863143920898

> <r_mmod_Electrostatic_Energy-OPLS-2005>
-491.226409912109

> <r_mmod_Solvation_Energy-OPLS-2005>
-246.445724487305

> <b_mmod_Minimization_Converged-OPLS-2005>
0

> <r_mmod_RMS_Derivative-OPLS-2005>
0.672223448753357

$$$$
65
                    3D
 Structure written by MMmdl.
150158  0  0  1  0            999 V2000
  -30.6628  -14.5793   20.4596 C   0  0  0  0  0  0
  -30.4207  -12.3425   19.4591 C   0  0  0  0  0  0
  -29.5040  -12.4917   18.2252 C   0  0  0  0  0  0
  -28.0247  -12.3452   18.6324 C   0  0  0  0  0  0
  -27.6500  -13.2197   19.8595 C   0  0  2  0  0  0
  -28.6896  -13.0888   20.9946 C   0  0  0  0  0  0
  -25.2548  -13.8189   20.5716 C   0  0  0  0  0  0
  -24.1827  -13.0433   20.9219 C   0  0  0  0  0  0
  -24.6398  -11.6906   20.8736 C   0  0  0  0  0  0
  -23.9078  -10.4266   21.0418 C   0  0  0  0  0  0
  -24.3619   -9.4179   21.9204 C   0  0  0  0  0  0
  -23.6289   -8.2212   22.0751 C   0  0  0  0  0  0
  -22.4271   -8.0263   21.3546 C   0  0  0  0  0  0
  -21.9919   -9.0237   20.4644 C   0  0  0  0  0  0
  -22.7243  -10.2126   20.3081 C   0  0  0  0  0  0
  -21.6835   -6.0716   22.5280 C   0  0  0  0  0  0
  -21.3999   -6.5623   23.8210 C   0  0  0  0  0  0
  -21.3667   -5.6787   24.9186 C   0  0  0  0  0  0
  -21.6056   -4.3041   24.7250 C   0  0  0  0  0  0
  -21.8810   -3.8118   23.4371 C   0  0  0  0  0  0
  -21.9186   -4.6933   22.3419 C   0  0  0  0  0  0
  -22.7847  -13.5210   21.1862 C   0  0  0  0  0  0
  -22.1662   -4.2115   21.0990 F   0  0  0  0  0  0
  -21.5632   -3.4531   25.7762 F   0  0  0  0  0  0
  -30.0163  -13.3775   20.4320 N   0  0  0  0  0  0
  -26.2964  -12.9368   20.3322 N   0  0  0  0  0  0
  -25.9322  -11.6513   20.5765 N   0  0  0  0  0  0
  -22.0489  -12.8224   22.0442 N   0  0  0  0  0  0
  -25.4240  -15.1906   20.4176 N   0  0  0  0  0  0
  -31.8430  -14.6846   20.1128 O   0  0  0  0  0  0
  -21.6621   -6.8868   21.4252 O   0  0  0  0  0  0
  -22.3516  -14.5504   20.6694 O   0  0  0  0  0  0
  -24.6223  -31.8634   23.2059 C   0  0  0  0  0  0
  -25.9087  -32.4806   23.8382 C   0  0  1  0  0  0
  -27.2205  -27.3607   20.0959 C   0  0  0  0  0  0
  -25.5924  -33.8598   24.2315 N   0  0  0  0  0  0
  -23.4139  -30.4892   21.5486 C   0  0  2  0  0  0
  -24.8550  -28.9513   20.1112 C   0  0  0  0  0  0
  -22.7458  -29.4632   22.4943 C   0  0  0  0  0  0
  -18.0289  -28.1394   22.8485 C   0  0  0  0  0  0
  -24.1484  -36.7302   23.2636 C   0  0  0  0  0  0
  -25.9524  -30.8080   21.3689 C   0  0  0  0  0  0
  -26.0243  -29.4388   20.7082 C   0  0  0  0  0  0
  -27.2087  -28.6516   20.6964 C   0  0  0  0  0  0
  -26.0209  -26.9057   19.4977 C   0  0  0  0  0  0
  -24.8521  -27.6874   19.5010 C   0  0  0  0  0  0
  -23.6237  -29.8309   20.1609 C   0  0  0  0  0  0
  -25.4103  -36.3090   24.0337 C   0  0  1  0  0  0
  -20.5885  -28.3678   23.1288 C   0  0  2  0  0  0
  -20.6776  -26.9407   22.5405 C   0  0  0  0  0  0
  -19.5746  -26.6388   21.5210 C   0  0  0  0  0  0
  -18.1924  -26.7937   22.1630 C   0  0  0  0  0  0
  -19.1546  -28.8848   23.2886 C   0  0  0  0  0  0
  -18.9463  -30.1459   23.8896 C   0  0  0  0  0  0
  -17.6461  -30.6579   24.0569 C   0  0  0  0  0  0
  -25.9038  -34.9459   23.5113 C   0  0  0  0  0  0
  -16.5349  -29.9077   23.6337 C   0  0  0  0  0  0
  -16.7281  -28.6506   23.0332 C   0  0  0  0  0  0
  -26.4486  -31.6597   25.0738 C   0  0  0  0  0  0
  -25.3735  -31.3734   26.1493 C   0  0  0  0  0  0
  -27.0321  -30.3020   24.6167 C   0  0  0  0  0  0
  -27.6049  -32.4322   25.7499 C   0  0  0  0  0  0
  -27.5581  -37.1793   24.8459 C   0  0  0  0  0  0
  -21.4172  -29.3042   22.3682 N   0  0  0  0  0  0
  -26.4282  -37.3783   23.9422 N   0  0  0  0  0  0
  -24.6826  -31.0674   22.0996 N   0  0  0  0  0  0
  -23.4197  -28.8170   23.3014 O   0  0  0  0  0  0
  -28.3513  -26.5449   20.1554 O   0  0  0  0  0  0
  -26.5601  -34.8906   22.4679 O   0  0  0  0  0  0
  -23.5396  -32.1422   23.7386 O   0  0  0  0  0  0
  -29.4380  -18.9503   18.9688 C   0  0  0  0  0  0
  -29.8713  -18.3298   17.8115 C   0  0  0  0  0  0
  -29.8963  -16.8322   19.7807 C   0  0  0  0  0  0
  -29.0303  -20.3986   18.8877 C   0  0  0  0  0  0
  -29.0091  -21.4675   19.7388 C   0  0  0  0  0  0
  -28.3520  -25.3092   19.5042 C   0  0  0  0  0  0
  -28.6134  -24.0878   20.0608 C   0  0  0  0  0  0
  -28.5620  -22.8254   19.2269 C   0  0  0  0  0  0
  -29.4632  -18.0869   20.1040 N   0  0  0  0  0  0
  -29.9757  -18.8369   16.5177 N   0  0  0  0  0  0
  -29.9095  -15.6946   20.6706 N   0  0  0  0  0  0
  -28.1431  -22.9167   18.0666 O   0  0  0  0  0  0
  -28.9121  -23.9658   21.3627 O   0  0  0  0  0  0
  -30.3394  -16.6780   18.0777 S   0  0  0  0  0  0
  -31.4664  -12.4293   19.1582 H   0  0  0  0  0  0
  -30.3177  -11.3519   19.9010 H   0  0  0  0  0  0
  -29.7566  -11.7467   17.4686 H   0  0  0  0  0  0
  -29.6639  -13.4650   17.7574 H   0  0  0  0  0  0
  -27.8522  -11.2918   18.8633 H   0  0  0  0  0  0
  -27.3742  -12.5836   17.7889 H   0  0  0  0  0  0
  -27.6625  -14.2546   19.5154 H   0  0  0  0  0  0
  -28.6766  -12.0846   21.4196 H   0  0  0  0  0  0
  -28.4533  -13.7699   21.8143 H   0  0  0  0  0  0
  -25.2778   -9.5605   22.4773 H   0  0  0  0  0  0
  -23.9950   -7.4602   22.7513 H   0  0  0  0  0  0
  -21.0809   -8.8788   19.8989 H   0  0  0  0  0  0
  -22.3709  -10.9669   19.6173 H   0  0  0  0  0  0
  -21.1992   -7.6127   23.9696 H   0  0  0  0  0  0
  -21.1505   -6.0543   25.9097 H   0  0  0  0  0  0
  -22.0584   -2.7574   23.2910 H   0  0  0  0  0  0
  -22.4057  -11.9872   22.4838 H   0  0  0  0  0  0
  -21.1103  -13.1260   22.2625 H   0  0  0  0  0  0
  -24.6602  -15.8444   20.5550 H   0  0  0  0  0  0
  -26.2737  -15.6351   20.0932 H   0  0  0  0  0  0
  -26.7155  -32.5467   23.1135 H   0  0  0  0  0  0
  -25.0071  -33.9777   25.0459 H   0  0  0  0  0  0
  -22.7058  -31.3089   21.4119 H   0  0  0  0  0  0
  -23.3739  -35.9637   23.3281 H   0  0  0  0  0  0
  -24.3578  -36.8941   22.2055 H   0  0  0  0  0  0
  -23.7237  -37.6501   23.6661 H   0  0  0  0  0  0
  -26.0775  -31.5716   20.6001 H   0  0  0  0  0  0
  -26.8344  -30.8538   21.9959 H   0  0  0  0  0  0
  -28.1100  -29.0185   21.1656 H   0  0  0  0  0  0
  -25.9540  -25.9284   19.0421 H   0  0  0  0  0  0
  -23.9494  -27.3000   19.0464 H   0  0  0  0  0  0
  -23.7438  -30.6147   19.4114 H   0  0  0  0  0  0
  -22.7419  -29.2646   19.8555 H   0  0  0  0  0  0
  -25.1264  -36.1951   25.0827 H   0  0  0  0  0  0
  -20.9990  -28.3250   24.1404 H   0  0  0  0  0  0
  -20.5679  -26.2284   23.3605 H   0  0  0  0  0  0
  -21.6643  -26.7433   22.1196 H   0  0  0  0  0  0
  -19.6903  -25.6293   21.1241 H   0  0  0  0  0  0
  -19.6690  -27.3193   20.6738 H   0  0  0  0  0  0
  -17.4202  -26.6677   21.4040 H   0  0  0  0  0  0
  -18.0333  -26.0090   22.9037 H   0  0  0  0  0  0
  -19.7936  -30.7283   24.2258 H   0  0  0  0  0  0
  -17.5009  -31.6261   24.5179 H   0  0  0  0  0  0
  -15.5347  -30.2975   23.7659 H   0  0  0  0  0  0
  -15.8688  -28.0832   22.7024 H   0  0  0  0  0  0
  -24.5877  -30.7129   25.7833 H   0  0  0  0  0  0
  -24.8987  -32.2915   26.4956 H   0  0  0  0  0  0
  -25.8078  -30.8880   27.0249 H   0  0  0  0  0  0
  -26.2896  -29.6783   24.1194 H   0  0  0  0  0  0
  -27.4040  -29.7263   25.4655 H   0  0  0  0  0  0
  -27.8748  -30.4323   23.9374 H   0  0  0  0  0  0
  -27.2659  -33.3602   26.2119 H   0  0  0  0  0  0
  -28.3834  -32.6932   25.0315 H   0  0  0  0  0  0
  -28.0761  -31.8444   26.5396 H   0  0  0  0  0  0
  -28.2566  -38.0118   24.7518 H   0  0  0  0  0  0
  -28.1107  -36.2646   24.6242 H   0  0  0  0  0  0
  -27.2312  -37.1389   25.8867 H   0  0  0  0  0  0
  -20.9331  -29.8777   21.6910 H   0  0  0  0  0  0
  -26.0161  -38.2850   24.1451 H   0  0  0  0  0  0
  -28.6665  -20.6131   17.8944 H   0  0  0  0  0  0
  -29.3281  -21.3753   20.7656 H   0  0  0  0  0  0
  -28.1144  -25.4267   18.4548 H   0  0  0  0  0  0
  -29.5829  -19.7322   16.2417 H   0  0  0  0  0  0
  -30.1520  -18.2405   15.7143 H   0  0  0  0  0  0
  -29.0727  -15.5683   21.2162 H   0  0  0  0  0  0
  -28.8726  -24.8364   21.7377 H   0  0  0  0  0  0
  1 25  1  0  0  0
  1 30  2  0  0  0
  1 81  1  0  0  0
  2  3  1  0  0  0
  2 25  1  0  0  0
  2 85  1  0  0  0
  2 86  1  0  0  0
  3  4  1  0  0  0
  3 87  1  0  0  0
  3 88  1  0  0  0
  4  5  1  0  0  0
  4 89  1  0  0  0
  4 90  1  0  0  0
  5  6  1  0  0  0
  5 26  1  0  0  0
  5 91  1  0  0  0
  6 25  1  0  0  0
  6 92  1  0  0  0
  6 93  1  0  0  0
  7  8  2  0  0  0
  7 26  1  0  0  0
  7 29  1  0  0  0
  8  9  1  0  0  0
  8 22  1  0  0  0
  9 10  1  0  0  0
  9 27  2  0  0  0
 10 11  2  0  0  0
 10 15  1  0  0  0
 11 12  1  0  0  0
 11 94  1  0  0  0
 12 13  2  0  0  0
 12 95  1  0  0  0
 13 14  1  0  0  0
 13 31  1  0  0  0
 14 15  2  0  0  0
 14 96  1  0  0  0
 15 97  1  0  0  0
 16 17  2  0  0  0
 16 21  1  0  0  0
 16 31  1  0  0  0
 17 18  1  0  0  0
 17 98  1  0  0  0
 18 19  2  0  0  0
 18 99  1  0  0  0
 19 20  1  0  0  0
 19 24  1  0  0  0
 20 21  2  0  0  0
 20100  1  0  0  0
 21 23  1  0  0  0
 22 28  1  0  0  0
 22 32  2  0  0  0
 26 27  1  0  0  0
 28101  1  0  0  0
 28102  1  0  0  0
 29103  1  0  0  0
 29104  1  0  0  0
 33 34  1  0  0  0
 33 66  1  0  0  0
 33 70  2  0  0  0
 34 36  1  0  0  0
 34 59  1  0  0  0
 34105  1  0  0  0
 35 44  2  0  0  0
 35 45  1  0  0  0
 35 68  1  0  0  0
 36 56  1  0  0  0
 36106  1  0  0  0
 37 39  1  0  0  0
 37 47  1  0  0  0
 37 66  1  0  0  0
 37107  1  0  0  0
 38 43  2  0  0  0
 38 46  1  0  0  0
 38 47  1  0  0  0
 39 64  1  0  0  0
 39 67  2  0  0  0
 40 52  1  0  0  0
 40 53  2  0  0  0
 40 58  1  0  0  0
 41108  1  0  0  0
 41109  1  0  0  0
 41110  1  0  0  0
 41 48  1  0  0  0
 42 43  1  0  0  0
 42 66  1  0  0  0
 42111  1  0  0  0
 42112  1  0  0  0
 43 44  1  0  0  0
 44113  1  0  0  0
 45 46  2  0  0  0
 45114  1  0  0  0
 46115  1  0  0  0
 47116  1  0  0  0
 47117  1  0  0  0
 48 56  1  0  0  0
 48 65  1  0  0  0
 48118  1  0  0  0
 49 50  1  0  0  0
 49 53  1  0  0  0
 49 64  1  0  0  0
 49119  1  0  0  0
 50 51  1  0  0  0
 50120  1  0  0  0
 50121  1  0  0  0
 51 52  1  0  0  0
 51122  1  0  0  0
 51123  1  0  0  0
 52124  1  0  0  0
 52125  1  0  0  0
 53 54  1  0  0  0
 54 55  2  0  0  0
 54126  1  0  0  0
 55 57  1  0  0  0
 55127  1  0  0  0
 56 69  2  0  0  0
 57 58  2  0  0  0
 57128  1  0  0  0
 58129  1  0  0  0
 59 60  1  0  0  0
 59 61  1  0  0  0
 59 62  1  0  0  0
 60130  1  0  0  0
 60131  1  0  0  0
 60132  1  0  0  0
 61133  1  0  0  0
 61134  1  0  0  0
 61135  1  0  0  0
 62136  1  0  0  0
 62137  1  0  0  0
 62138  1  0  0  0
 63 65  1  0  0  0
 63139  1  0  0  0
 63140  1  0  0  0
 63141  1  0  0  0
 64142  1  0  0  0
 65143  1  0  0  0
 68 76  1  0  0  0
 71 72  2  0  0  0
 71 74  1  0  0  0
 71 79  1  0  0  0
 72 80  1  0  0  0
 72 84  1  0  0  0
 73 79  2  0  0  0
 73 81  1  0  0  0
 73 84  1  0  0  0
 74 75  2  0  0  0
 74144  1  0  0  0
 75 78  1  0  0  0
 75145  1  0  0  0
 76 77  2  0  0  0
 76146  1  0  0  0
 77 78  1  0  0  0
 77 83  1  0  0  0
 78 82  2  0  0  0
 80147  1  0  0  0
 80148  1  0  0  0
 81149  1  0  0  0
 83150  1  0  0  0
M  ISO  4   1 100  68 101  76 101  81 100
M  END
> <chiral flag>
0

> <version>
0

> <s_m_source_file>
/data/baiqing/PycharmProjects/Reinvent-master-3.2/result/LINK_invent/BTK/process_docking_weight1_custom_product_contain_oxygen_bond_distance_aromatic_linkinvent_7_9_3/rearranged_h_0182.sdf

> <i_m_source_file_index>
66

> <r_mmod_Potential_Energy-OPLS-2005>
-21.8825168609619

> <r_mmod_Stretch_Energy-OPLS-2005>
59.5019912719727

> <r_mmod_Bend_Energy-OPLS-2005>
137.489395141602

> <r_mmod_Torsional_Energy-OPLS-2005>
231.592468261719

> <r_mmod_Improper_Torsional_Energy-OPLS-2005>
8.16743469238281

> <r_mmod_Van_der_Waal_Energy-OPLS-2005>
138.721740722656

> <r_mmod_Electrostatic_Energy-OPLS-2005>
-404.495300292969

> <r_mmod_Solvation_Energy-OPLS-2005>
-228.648010253906

> <b_mmod_Minimization_Converged-OPLS-2005>
0

> <r_mmod_RMS_Derivative-OPLS-2005>
4.07160091400146

$$$$
66
                    3D
 Structure written by MMmdl.
146154  0  0  1  0            999 V2000
  -30.4663  -15.1272   20.4040 C   0  0  0  0  0  0
  -30.4411  -12.7141   19.4966 C   0  0  0  0  0  0
  -29.5279  -12.5638   18.2565 C   0  0  0  0  0  0
  -28.0695  -12.3095   18.6824 C   0  0  0  0  0  0
  -27.6182  -13.2579   19.8233 C   0  0  2  0  0  0
  -28.6605  -13.3645   20.9548 C   0  0  0  0  0  0
  -25.2433  -13.8223   20.5715 C   0  0  0  0  0  0
  -24.1765  -13.0432   20.9239 C   0  0  0  0  0  0
  -24.6397  -11.6920   20.8725 C   0  0  0  0  0  0
  -23.9083  -10.4290   21.0379 C   0  0  0  0  0  0
  -24.3636   -9.4220   21.9170 C   0  0  0  0  0  0
  -23.6311   -8.2256   22.0763 C   0  0  0  0  0  0
  -22.4294   -8.0283   21.3557 C   0  0  0  0  0  0
  -21.9918   -9.0247   20.4650 C   0  0  0  0  0  0
  -22.7249  -10.2123   20.3047 C   0  0  0  0  0  0
  -21.6869   -6.0716   22.5273 C   0  0  0  0  0  0
  -21.4017   -6.5627   23.8198 C   0  0  0  0  0  0
  -21.3671   -5.6788   24.9168 C   0  0  0  0  0  0
  -21.6054   -4.3048   24.7226 C   0  0  0  0  0  0
  -21.8824   -3.8134   23.4346 C   0  0  0  0  0  0
  -21.9201   -4.6942   22.3395 C   0  0  0  0  0  0
  -22.7783  -13.5200   21.1871 C   0  0  0  0  0  0
  -22.1668   -4.2124   21.0972 F   0  0  0  0  0  0
  -21.5635   -3.4539   25.7744 F   0  0  0  0  0  0
  -29.9011  -13.8383   20.3270 N   0  0  0  0  0  0
  -26.2844  -12.9458   20.3194 N   0  0  0  0  0  0
  -25.9332  -11.6577   20.5680 N   0  0  0  0  0  0
  -22.0440  -12.8192   22.0416 N   0  0  0  0  0  0
  -25.4058  -15.1965   20.4154 N   0  0  0  0  0  0
  -31.6962  -15.1618   20.2535 O   0  0  0  0  0  0
  -21.6674   -6.8866   21.4243 O   0  0  0  0  0  0
  -22.3454  -14.5496   20.6707 O   0  0  0  0  0  0
  -24.6551  -31.8335   23.1792 C   0  0  0  0  0  0
  -25.9275  -32.4642   23.8215 C   0  0  1  0  0  0
  -27.2132  -27.0090   20.1862 C   0  0  0  0  0  0
  -25.5986  -33.8449   24.2128 N   0  0  0  0  0  0
  -23.4673  -30.4468   21.5284 C   0  0  2  0  0  0
  -24.9184  -28.8464   20.1214 C   0  0  0  0  0  0
  -22.7624  -29.4492   22.4839 C   0  0  0  0  0  0
  -18.0311  -28.1403   22.8457 C   0  0  0  0  0  0
  -24.1499  -36.7231   23.2637 C   0  0  0  0  0  0
  -26.0308  -30.6654   21.3977 C   0  0  0  0  0  0
  -26.1017  -29.2599   20.7508 C   0  0  0  0  0  0
  -27.2522  -28.3609   20.7611 C   0  0  0  0  0  0
  -26.0053  -26.7274   19.5158 C   0  0  0  0  0  0
  -24.8901  -27.5959   19.4864 C   0  0  0  0  0  0
  -23.7043  -29.7678   20.1525 C   0  0  0  0  0  0
  -25.4138  -36.3004   24.0296 C   0  0  1  0  0  0
  -20.5923  -28.3740   23.1192 C   0  0  2  0  0  0
  -20.6799  -26.9435   22.5388 C   0  0  0  0  0  0
  -19.5785  -26.6379   21.5199 C   0  0  0  0  0  0
  -18.1961  -26.7934   22.1605 C   0  0  0  0  0  0
  -19.1566  -28.8890   23.2808 C   0  0  0  0  0  0
  -18.9486  -30.1478   23.8854 C   0  0  0  0  0  0
  -17.6480  -30.6588   24.0553 C   0  0  0  0  0  0
  -25.9092  -34.9382   23.5020 C   0  0  0  0  0  0
  -16.5369  -29.9074   23.6348 C   0  0  0  0  0  0
  -16.7289  -28.6495   23.0354 C   0  0  0  0  0  0
  -26.4558  -31.6540   25.0696 C   0  0  0  0  0  0
  -25.3714  -31.3755   26.1364 C   0  0  0  0  0  0
  -27.0434  -30.2918   24.6356 C   0  0  0  0  0  0
  -27.6076  -32.4313   25.7502 C   0  0  0  0  0  0
  -27.5580  -37.1774   24.8461 C   0  0  0  0  0  0
  -21.4299  -29.3045   22.3560 N   0  0  0  0  0  0
  -26.4297  -37.3728   23.9395 N   0  0  0  0  0  0
  -24.7385  -31.0065   22.0901 N   0  0  0  0  0  0
  -23.4201  -28.8054   23.3053 O   0  0  0  0  0  0
  -28.2097  -25.9294   20.1413 O   0  0  0  0  0  0
  -26.5681  -34.8909   22.4605 O   0  0  0  0  0  0
  -23.5630  -32.1259   23.6922 O   0  0  0  0  0  0
  -29.2845  -20.4184   20.6168 C   0  0  0  0  0  0
  -30.0018  -20.1979   21.7944 C   0  0  0  0  0  0
  -29.7664  -17.8764   20.6238 C   0  0  0  0  0  0
  -28.1181  -24.6698   20.9361 C   0  0  0  0  0  0
  -28.8049  -21.9071   20.0917 C   0  0  0  0  0  0
  -28.3621  -23.2209   20.9930 C   0  0  0  0  0  0
  -29.1600  -19.0240   20.0198 N   0  0  0  0  0  0
  -30.4003  -21.1174   22.7641 N   0  0  0  0  0  0
  -29.6500  -16.3321   20.3208 N   0  0  0  0  0  0
  -28.7144  -22.0600   18.8699 O   0  0  0  0  0  0
  -28.1087  -22.7823   22.2387 O   0  0  0  0  0  0
  -30.5486  -18.5061   22.0714 S   0  0  0  0  0  0
  -31.4683  -12.9029   19.1815 H   0  0  0  0  0  0
  -30.4710  -11.7850   20.0685 H   0  0  0  0  0  0
  -29.8780  -11.7541   17.6148 H   0  0  0  0  0  0
  -29.5795  -13.4740   17.6568 H   0  0  0  0  0  0
  -27.9983  -11.2726   19.0130 H   0  0  0  0  0  0
  -27.4021  -12.4045   17.8240 H   0  0  0  0  0  0
  -27.5498  -14.2416   19.3586 H   0  0  0  0  0  0
  -28.8033  -12.4097   21.4633 H   0  0  0  0  0  0
  -28.3307  -14.0766   21.7127 H   0  0  0  0  0  0
  -25.2774   -9.5709   22.4750 H   0  0  0  0  0  0
  -24.0014   -7.4663   22.7505 H   0  0  0  0  0  0
  -21.0833   -8.8755   19.8960 H   0  0  0  0  0  0
  -22.3689  -10.9657   19.6155 H   0  0  0  0  0  0
  -21.2008   -7.6139   23.9686 H   0  0  0  0  0  0
  -21.1492   -6.0525   25.9067 H   0  0  0  0  0  0
  -22.0593   -2.7594   23.2860 H   0  0  0  0  0  0
  -22.4085  -11.9878   22.4826 H   0  0  0  0  0  0
  -21.1052  -13.1181   22.2602 H   0  0  0  0  0  0
  -24.6335  -15.8416   20.5452 H   0  0  0  0  0  0
  -26.2317  -15.6443   20.0436 H   0  0  0  0  0  0
  -26.7346  -32.5214   23.0939 H   0  0  0  0  0  0
  -25.0151  -33.9552   25.0286 H   0  0  0  0  0  0
  -22.7772  -31.2766   21.3637 H   0  0  0  0  0  0
  -23.3777  -35.9546   23.3281 H   0  0  0  0  0  0
  -24.3589  -36.8893   22.2060 H   0  0  0  0  0  0
  -23.7246  -37.6411   23.6698 H   0  0  0  0  0  0
  -26.1970  -31.4073   20.6145 H   0  0  0  0  0  0
  -26.8972  -30.7239   22.0449 H   0  0  0  0  0  0
  -28.1572  -28.6808   21.2575 H   0  0  0  0  0  0
  -25.9112  -25.7692   19.0250 H   0  0  0  0  0  0
  -23.9924  -27.2739   18.9778 H   0  0  0  0  0  0
  -23.8537  -30.5393   19.3951 H   0  0  0  0  0  0
  -22.8147  -29.2187   19.8391 H   0  0  0  0  0  0
  -25.1340  -36.1822   25.0788 H   0  0  0  0  0  0
  -21.0000  -28.3349   24.1318 H   0  0  0  0  0  0
  -20.5698  -26.2364   23.3619 H   0  0  0  0  0  0
  -21.6667  -26.7438   22.1203 H   0  0  0  0  0  0
  -19.6957  -25.6281   21.1267 H   0  0  0  0  0  0
  -19.6736  -27.3158   20.6709 H   0  0  0  0  0  0
  -17.4231  -26.6656   21.4004 H   0  0  0  0  0  0
  -18.0368  -26.0083   22.9015 H   0  0  0  0  0  0
  -19.7959  -30.7296   24.2219 H   0  0  0  0  0  0
  -17.5031  -31.6276   24.5146 H   0  0  0  0  0  0
  -15.5368  -30.2959   23.7700 H   0  0  0  0  0  0
  -15.8690  -28.0803   22.7093 H   0  0  0  0  0  0
  -24.5918  -30.7086   25.7671 H   0  0  0  0  0  0
  -24.8880  -32.2937   26.4696 H   0  0  0  0  0  0
  -25.7963  -30.8987   27.0202 H   0  0  0  0  0  0
  -26.3064  -29.6617   24.1365 H   0  0  0  0  0  0
  -27.4003  -29.7255   25.4968 H   0  0  0  0  0  0
  -27.8995  -30.4124   23.9719 H   0  0  0  0  0  0
  -27.2672  -33.3646   26.1996 H   0  0  0  0  0  0
  -28.3940  -32.6809   25.0368 H   0  0  0  0  0  0
  -28.0684  -31.8486   26.5488 H   0  0  0  0  0  0
  -28.2575  -38.0090   24.7520 H   0  0  0  0  0  0
  -28.1098  -36.2617   24.6280 H   0  0  0  0  0  0
  -27.2291  -37.1411   25.8861 H   0  0  0  0  0  0
  -20.9534  -29.8735   21.6700 H   0  0  0  0  0  0
  -26.0153  -38.2788   24.1406 H   0  0  0  0  0  0
  -27.7532  -25.0339   21.8867 H   0  0  0  0  0  0
  -30.5546  -22.1099   22.6001 H   0  0  0  0  0  0
  -30.9879  -20.7925   23.5286 H   0  0  0  0  0  0
  -28.7070  -16.0793   20.0787 H   0  0  0  0  0  0
  -28.5640  -21.9507   22.3582 H   0  0  0  0  0  0
  1 25  1  0  0  0
  1 30  2  0  0  0
  1 79  1  0  0  0
  2  3  1  0  0  0
  2 25  1  0  0  0
  2 83  1  0  0  0
  2 84  1  0  0  0
  3  4  1  0  0  0
  3 85  1  0  0  0
  3 86  1  0  0  0
  4  5  1  0  0  0
  4 87  1  0  0  0
  4 88  1  0  0  0
  5  6  1  0  0  0
  5 26  1  0  0  0
  5 89  1  0  0  0
  6 25  1  0  0  0
  6 90  1  0  0  0
  6 91  1  0  0  0
  7  8  2  0  0  0
  7 26  1  0  0  0
  7 29  1  0  0  0
  8  9  1  0  0  0
  8 22  1  0  0  0
  9 10  1  0  0  0
  9 27  2  0  0  0
 10 11  2  0  0  0
 10 15  1  0  0  0
 11 12  1  0  0  0
 11 92  1  0  0  0
 12 13  2  0  0  0
 12 93  1  0  0  0
 13 14  1  0  0  0
 13 31  1  0  0  0
 14 15  2  0  0  0
 14 94  1  0  0  0
 15 95  1  0  0  0
 16 17  2  0  0  0
 16 21  1  0  0  0
 16 31  1  0  0  0
 17 18  1  0  0  0
 17 96  1  0  0  0
 18 19  2  0  0  0
 18 97  1  0  0  0
 19 20  1  0  0  0
 19 24  1  0  0  0
 20 21  2  0  0  0
 20 98  1  0  0  0
 21 23  1  0  0  0
 22 28  1  0  0  0
 22 32  2  0  0  0
 26 27  1  0  0  0
 28 99  1  0  0  0
 28100  1  0  0  0
 29101  1  0  0  0
 29102  1  0  0  0
 33 34  1  0  0  0
 33 66  1  0  0  0
 33 70  2  0  0  0
 34 36  1  0  0  0
 34 59  1  0  0  0
 34103  1  0  0  0
 35 44  2  0  0  0
 35 45  1  0  0  0
 35 68  1  0  0  0
 36 56  1  0  0  0
 36104  1  0  0  0
 37 39  1  0  0  0
 37 47  1  0  0  0
 37 66  1  0  0  0
 37105  1  0  0  0
 38 43  2  0  0  0
 38 46  1  0  0  0
 38 47  1  0  0  0
 39 64  1  0  0  0
 39 67  2  0  0  0
 40 52  1  0  0  0
 40 53  2  0  0  0
 40 58  1  0  0  0
 41106  1  0  0  0
 41107  1  0  0  0
 41108  1  0  0  0
 41 48  1  0  0  0
 42 43  1  0  0  0
 42 66  1  0  0  0
 42109  1  0  0  0
 42110  1  0  0  0
 43 44  1  0  0  0
 44111  1  0  0  0
 45 46  2  0  0  0
 45112  1  0  0  0
 46113  1  0  0  0
 47114  1  0  0  0
 47115  1  0  0  0
 48 56  1  0  0  0
 48 65  1  0  0  0
 48116  1  0  0  0
 49 50  1  0  0  0
 49 53  1  0  0  0
 49 64  1  0  0  0
 49117  1  0  0  0
 50 51  1  0  0  0
 50118  1  0  0  0
 50119  1  0  0  0
 51 52  1  0  0  0
 51120  1  0  0  0
 51121  1  0  0  0
 52122  1  0  0  0
 52123  1  0  0  0
 53 54  1  0  0  0
 54 55  2  0  0  0
 54124  1  0  0  0
 55 57  1  0  0  0
 55125  1  0  0  0
 56 69  2  0  0  0
 57 58  2  0  0  0
 57126  1  0  0  0
 58127  1  0  0  0
 59 60  1  0  0  0
 59 61  1  0  0  0
 59 62  1  0  0  0
 60128  1  0  0  0
 60129  1  0  0  0
 60130  1  0  0  0
 61131  1  0  0  0
 61132  1  0  0  0
 61133  1  0  0  0
 62134  1  0  0  0
 62135  1  0  0  0
 62136  1  0  0  0
 63 65  1  0  0  0
 63137  1  0  0  0
 63138  1  0  0  0
 63139  1  0  0  0
 64140  1  0  0  0
 65141  1  0  0  0
 68 74  1  0  0  0
 71 72  2  0  0  0
 71 75  1  0  0  0
 71 77  1  0  0  0
 72 78  1  0  0  0
 72 82  1  0  0  0
 73 77  2  0  0  0
 73 79  1  0  0  0
 73 82  1  0  0  0
 74 76  2  0  0  0
 74142  1  0  0  0
 75 76  1  0  0  0
 75 80  2  0  0  0
 76 81  1  0  0  0
 78143  1  0  0  0
 78144  1  0  0  0
 79145  1  0  0  0
 81146  1  0  0  0
M  ISO  4   1 100  68 101  74 101  79 100
M  END
> <chiral flag>
0

> <version>
0

> <s_m_source_file>
/data/baiqing/PycharmProjects/Reinvent-master-3.2/result/LINK_invent/BTK/process_docking_weight1_custom_product_contain_oxygen_bond_distance_aromatic_linkinvent_7_9_3/rearranged_h_0182.sdf

> <i_m_source_file_index>
67

> <r_mmod_Potential_Energy-OPLS-2005>
1074.53588867188

> <r_mmod_Stretch_Energy-OPLS-2005>
395.396362304688

> <r_mmod_Bend_Energy-OPLS-2005>
421.985595703125

> <r_mmod_Torsional_Energy-OPLS-2005>
250.643859863281

> <r_mmod_Improper_Torsional_Energy-OPLS-2005>
11.8407716751099

> <r_mmod_Van_der_Waal_Energy-OPLS-2005>
110.744071960449

> <r_mmod_Electrostatic_Energy-OPLS-2005>
-212.598037719727

> <r_mmod_Solvation_Energy-OPLS-2005>
-240.592636108398

> <b_mmod_Minimization_Converged-OPLS-2005>
0

> <r_mmod_RMS_Derivative-OPLS-2005>
2.50433206558228

$$$$
67
                    3D
 Structure written by MMmdl.
158166  0  0  1  0            999 V2000
  -30.7069  -14.4510   20.6191 C   0  0  0  0  0  0
  -30.4278  -12.3101   19.4160 C   0  0  0  0  0  0
  -29.4956  -12.5195   18.2049 C   0  0  0  0  0  0
  -28.0167  -12.3766   18.6155 C   0  0  0  0  0  0
  -27.6661  -13.2046   19.8803 C   0  0  2  0  0  0
  -28.7053  -12.9603   20.9978 C   0  0  0  0  0  0
  -25.2603  -13.8159   20.5676 C   0  0  0  0  0  0
  -24.1847  -13.0440   20.9169 C   0  0  0  0  0  0
  -24.6395  -11.6905   20.8728 C   0  0  0  0  0  0
  -23.9058  -10.4293   21.0400 C   0  0  0  0  0  0
  -24.3612   -9.4211   21.9181 C   0  0  0  0  0  0
  -23.6289   -8.2248   22.0754 C   0  0  0  0  0  0
  -22.4273   -8.0281   21.3545 C   0  0  0  0  0  0
  -21.9903   -9.0254   20.4648 C   0  0  0  0  0  0
  -22.7229  -10.2134   20.3053 C   0  0  0  0  0  0
  -21.6851   -6.0737   22.5281 C   0  0  0  0  0  0
  -21.4014   -6.5642   23.8215 C   0  0  0  0  0  0
  -21.3658   -5.6794   24.9176 C   0  0  0  0  0  0
  -21.6044   -4.3057   24.7227 C   0  0  0  0  0  0
  -21.8818   -3.8148   23.4347 C   0  0  0  0  0  0
  -21.9192   -4.6965   22.3404 C   0  0  0  0  0  0
  -22.7868  -13.5243   21.1837 C   0  0  0  0  0  0
  -22.1660   -4.2151   21.0982 F   0  0  0  0  0  0
  -21.5628   -3.4540   25.7738 F   0  0  0  0  0  0
  -30.0417  -13.2741   20.4584 N   0  0  0  0  0  0
  -26.3041  -12.9325   20.3376 N   0  0  0  0  0  0
  -25.9323  -11.6485   20.5760 N   0  0  0  0  0  0
  -22.0505  -12.8241   22.0397 N   0  0  0  0  0  0
  -25.4334  -15.1877   20.4084 N   0  0  0  0  0  0
  -31.7913  -14.6885   20.0767 O   0  0  0  0  0  0
  -21.6638   -6.8878   21.4243 O   0  0  0  0  0  0
  -22.3556  -14.5552   20.6688 O   0  0  0  0  0  0
  -24.6148  -31.8669   23.2108 C   0  0  0  0  0  0
  -25.9037  -32.4822   23.8400 C   0  0  1  0  0  0
  -27.2331  -27.4281   20.1051 C   0  0  0  0  0  0
  -25.5894  -33.8621   24.2334 N   0  0  0  0  0  0
  -23.4038  -30.4910   21.5506 C   0  0  2  0  0  0
  -24.8518  -28.9597   20.1130 C   0  0  0  0  0  0
  -22.7414  -29.4649   22.4983 C   0  0  0  0  0  0
  -18.0270  -28.1366   22.8486 C   0  0  0  0  0  0
  -24.1489  -36.7313   23.2639 C   0  0  0  0  0  0
  -25.9335  -30.8327   21.3647 C   0  0  0  0  0  0
  -26.0121  -29.4672   20.7119 C   0  0  0  0  0  0
  -27.2080  -28.7100   20.7029 C   0  0  0  0  0  0
  -26.0593  -26.9473   19.4832 C   0  0  0  0  0  0
  -24.8709  -27.6998   19.4929 C   0  0  0  0  0  0
  -23.6126  -29.8250   20.1648 C   0  0  0  0  0  0
  -25.4106  -36.3111   24.0345 C   0  0  1  0  0  0
  -20.5863  -28.3650   23.1317 C   0  0  2  0  0  0
  -20.6761  -26.9386   22.5415 C   0  0  0  0  0  0
  -19.5743  -26.6374   21.5207 C   0  0  0  0  0  0
  -18.1919  -26.7915   22.1617 C   0  0  0  0  0  0
  -19.1519  -28.8823   23.2904 C   0  0  0  0  0  0
  -18.9450  -30.1432   23.8911 C   0  0  0  0  0  0
  -17.6454  -30.6574   24.0559 C   0  0  0  0  0  0
  -25.9028  -34.9474   23.5135 C   0  0  0  0  0  0
  -16.5344  -29.9076   23.6326 C   0  0  0  0  0  0
  -16.7258  -28.6493   23.0344 C   0  0  0  0  0  0
  -26.4466  -31.6597   25.0721 C   0  0  0  0  0  0
  -25.3735  -31.3706   26.1474 C   0  0  0  0  0  0
  -27.0295  -30.3044   24.6081 C   0  0  0  0  0  0
  -27.6051  -32.4304   25.7475 C   0  0  0  0  0  0
  -27.5583  -37.1808   24.8466 C   0  0  0  0  0  0
  -21.4139  -29.3025   22.3733 N   0  0  0  0  0  0
  -26.4295  -37.3790   23.9409 N   0  0  0  0  0  0
  -24.6690  -31.0776   22.1007 N   0  0  0  0  0  0
  -23.4191  -28.8179   23.3011 O   0  0  0  0  0  0
  -28.3836  -26.6631   20.1175 O   0  0  0  0  0  0
  -26.5586  -34.8925   22.4694 O   0  0  0  0  0  0
  -23.5341  -32.1411   23.7507 O   0  0  0  0  0  0
  -31.3371  -17.5218   21.6508 C   0  0  0  0  0  0
  -30.2428  -16.7305   21.3078 C   0  0  0  0  0  0
  -29.8843  -19.1813   21.0268 C   0  0  0  0  0  0
  -32.6000  -17.0509   22.2380 C   0  0  0  0  0  0
  -28.8588  -22.8451   20.3772 C   0  0  0  0  0  0
  -33.7307  -18.0746   22.2871 C   0  0  0  0  0  0
  -30.2779  -22.1697   22.3634 C   0  0  0  0  0  0
  -29.2672  -24.3169   20.1462 C   0  0  0  0  0  0
  -28.2313  -25.3407   20.6785 C   0  0  0  0  0  0
  -29.9092  -21.8341   20.9078 C   0  0  1  0  0  0
  -31.1127  -18.9001   21.4475 N   0  0  0  0  0  0
  -30.0591  -15.3758   21.3543 N   0  0  0  0  0  0
  -29.3938  -20.4653   20.8033 N   0  0  0  0  0  0
  -32.8095  -15.9309   22.7151 O   0  0  0  0  0  0
  -27.7075  -22.4798   20.1164 O   0  0  0  0  0  0
  -28.8985  -17.7441   20.8046 S   0  0  0  0  0  0
  -31.4711  -12.4191   19.1140 H   0  0  0  0  0  0
  -30.3363  -11.2922   19.7977 H   0  0  0  0  0  0
  -29.7349  -11.8038   17.4172 H   0  0  0  0  0  0
  -29.6637  -13.5100   17.7785 H   0  0  0  0  0  0
  -27.8244  -11.3191   18.8007 H   0  0  0  0  0  0
  -27.3669  -12.6620   17.7872 H   0  0  0  0  0  0
  -27.7181  -14.2569   19.5989 H   0  0  0  0  0  0
  -28.6795  -11.9157   21.3127 H   0  0  0  0  0  0
  -28.4549  -13.5313   21.8924 H   0  0  0  0  0  0
  -25.2759   -9.5690   22.4751 H   0  0  0  0  0  0
  -24.0000   -7.4641   22.7472 H   0  0  0  0  0  0
  -21.0835   -8.8770   19.8955 H   0  0  0  0  0  0
  -22.3686  -10.9672   19.6161 H   0  0  0  0  0  0
  -21.2006   -7.6150   23.9719 H   0  0  0  0  0  0
  -21.1481   -6.0524   25.9079 H   0  0  0  0  0  0
  -22.0597   -2.7610   23.2847 H   0  0  0  0  0  0
  -22.4108  -11.9898   22.4787 H   0  0  0  0  0  0
  -21.1124  -13.1275   22.2599 H   0  0  0  0  0  0
  -24.6666  -15.8435   20.5119 H   0  0  0  0  0  0
  -26.2871  -15.6253   20.0859 H   0  0  0  0  0  0
  -26.7107  -32.5527   23.1163 H   0  0  0  0  0  0
  -25.0070  -33.9784   25.0499 H   0  0  0  0  0  0
  -22.6927  -31.3079   21.4119 H   0  0  0  0  0  0
  -23.3748  -35.9651   23.3306 H   0  0  0  0  0  0
  -24.3591  -36.8912   22.2053 H   0  0  0  0  0  0
  -23.7250  -37.6525   23.6641 H   0  0  0  0  0  0
  -26.0451  -31.5996   20.5972 H   0  0  0  0  0  0
  -26.8222  -30.8863   21.9822 H   0  0  0  0  0  0
  -28.1029  -29.0960   21.1708 H   0  0  0  0  0  0
  -26.0562  -25.9880   18.9859 H   0  0  0  0  0  0
  -23.9827  -27.3068   19.0180 H   0  0  0  0  0  0
  -23.7194  -30.6003   19.4057 H   0  0  0  0  0  0
  -22.7371  -29.2438   19.8692 H   0  0  0  0  0  0
  -25.1285  -36.1980   25.0840 H   0  0  0  0  0  0
  -20.9954  -28.3202   24.1438 H   0  0  0  0  0  0
  -20.5658  -26.2248   23.3596 H   0  0  0  0  0  0
  -21.6631  -26.7420   22.1209 H   0  0  0  0  0  0
  -19.6911  -25.6291   21.1218 H   0  0  0  0  0  0
  -19.6692  -27.3197   20.6752 H   0  0  0  0  0  0
  -17.4192  -26.6657   21.4018 H   0  0  0  0  0  0
  -18.0323  -26.0053   22.9009 H   0  0  0  0  0  0
  -19.7929  -30.7236   24.2287 H   0  0  0  0  0  0
  -17.5013  -31.6260   24.5144 H   0  0  0  0  0  0
  -15.5346  -30.2982   23.7647 H   0  0  0  0  0  0
  -15.8657  -28.0821   22.7053 H   0  0  0  0  0  0
  -24.5907  -30.7051   25.7813 H   0  0  0  0  0  0
  -24.8926  -32.2864   26.4918 H   0  0  0  0  0  0
  -25.8089  -30.8877   27.0234 H   0  0  0  0  0  0
  -26.2838  -29.6804   24.1134 H   0  0  0  0  0  0
  -27.4085  -29.7269   25.4524 H   0  0  0  0  0  0
  -27.8663  -30.4371   23.9218 H   0  0  0  0  0  0
  -27.2683  -33.3596   26.2081 H   0  0  0  0  0  0
  -28.3843  -32.6866   25.0286 H   0  0  0  0  0  0
  -28.0733  -31.8404   26.5363 H   0  0  0  0  0  0
  -28.2602  -38.0102   24.7503 H   0  0  0  0  0  0
  -28.1077  -36.2631   24.6299 H   0  0  0  0  0  0
  -27.2301  -37.1468   25.8870 H   0  0  0  0  0  0
  -20.9293  -29.8766   21.6977 H   0  0  0  0  0  0
  -26.0187  -38.2873   24.1403 H   0  0  0  0  0  0
  -33.4856  -18.8696   22.9905 H   0  0  0  0  0  0
  -33.8846  -18.5163   21.3026 H   0  0  0  0  0  0
  -34.6603  -17.6042   22.6042 H   0  0  0  0  0  0
  -30.7132  -23.1660   22.4460 H   0  0  0  0  0  0
  -31.0140  -21.4693   22.7585 H   0  0  0  0  0  0
  -29.4051  -22.1376   23.0174 H   0  0  0  0  0  0
  -29.3778  -24.4456   19.0703 H   0  0  0  0  0  0
  -30.2469  -24.5075   20.5831 H   0  0  0  0  0  0
  -28.3452  -25.4243   21.7602 H   0  0  0  0  0  0
  -27.2268  -24.9471   20.5298 H   0  0  0  0  0  0
  -30.8047  -21.9057   20.2886 H   0  0  0  0  0  0
  -29.1637  -15.0593   21.6953 H   0  0  0  0  0  0
  -28.4314  -20.4836   20.4718 H   0  0  0  0  0  0
  1 25  1  0  0  0
  1 30  2  0  0  0
  1 82  1  0  0  0
  2  3  1  0  0  0
  2 25  1  0  0  0
  2 87  1  0  0  0
  2 88  1  0  0  0
  3  4  1  0  0  0
  3 89  1  0  0  0
  3 90  1  0  0  0
  4  5  1  0  0  0
  4 91  1  0  0  0
  4 92  1  0  0  0
  5  6  1  0  0  0
  5 26  1  0  0  0
  5 93  1  0  0  0
  6 25  1  0  0  0
  6 94  1  0  0  0
  6 95  1  0  0  0
  7  8  2  0  0  0
  7 26  1  0  0  0
  7 29  1  0  0  0
  8  9  1  0  0  0
  8 22  1  0  0  0
  9 10  1  0  0  0
  9 27  2  0  0  0
 10 11  2  0  0  0
 10 15  1  0  0  0
 11 12  1  0  0  0
 11 96  1  0  0  0
 12 13  2  0  0  0
 12 97  1  0  0  0
 13 14  1  0  0  0
 13 31  1  0  0  0
 14 15  2  0  0  0
 14 98  1  0  0  0
 15 99  1  0  0  0
 16 17  2  0  0  0
 16 21  1  0  0  0
 16 31  1  0  0  0
 17 18  1  0  0  0
 17100  1  0  0  0
 18 19  2  0  0  0
 18101  1  0  0  0
 19 20  1  0  0  0
 19 24  1  0  0  0
 20 21  2  0  0  0
 20102  1  0  0  0
 21 23  1  0  0  0
 22 28  1  0  0  0
 22 32  2  0  0  0
 26 27  1  0  0  0
 28103  1  0  0  0
 28104  1  0  0  0
 29105  1  0  0  0
 29106  1  0  0  0
 33 34  1  0  0  0
 33 66  1  0  0  0
 33 70  2  0  0  0
 34 36  1  0  0  0
 34 59  1  0  0  0
 34107  1  0  0  0
 35 44  2  0  0  0
 35 45  1  0  0  0
 35 68  1  0  0  0
 36 56  1  0  0  0
 36108  1  0  0  0
 37 39  1  0  0  0
 37 47  1  0  0  0
 37 66  1  0  0  0
 37109  1  0  0  0
 38 43  2  0  0  0
 38 46  1  0  0  0
 38 47  1  0  0  0
 39 64  1  0  0  0
 39 67  2  0  0  0
 40 52  1  0  0  0
 40 53  2  0  0  0
 40 58  1  0  0  0
 41110  1  0  0  0
 41111  1  0  0  0
 41112  1  0  0  0
 41 48  1  0  0  0
 42 43  1  0  0  0
 42 66  1  0  0  0
 42113  1  0  0  0
 42114  1  0  0  0
 43 44  1  0  0  0
 44115  1  0  0  0
 45 46  2  0  0  0
 45116  1  0  0  0
 46117  1  0  0  0
 47118  1  0  0  0
 47119  1  0  0  0
 48 56  1  0  0  0
 48 65  1  0  0  0
 48120  1  0  0  0
 49 50  1  0  0  0
 49 53  1  0  0  0
 49 64  1  0  0  0
 49121  1  0  0  0
 50 51  1  0  0  0
 50122  1  0  0  0
 50123  1  0  0  0
 51 52  1  0  0  0
 51124  1  0  0  0
 51125  1  0  0  0
 52126  1  0  0  0
 52127  1  0  0  0
 53 54  1  0  0  0
 54 55  2  0  0  0
 54128  1  0  0  0
 55 57  1  0  0  0
 55129  1  0  0  0
 56 69  2  0  0  0
 57 58  2  0  0  0
 57130  1  0  0  0
 58131  1  0  0  0
 59 60  1  0  0  0
 59 61  1  0  0  0
 59 62  1  0  0  0
 60132  1  0  0  0
 60133  1  0  0  0
 60134  1  0  0  0
 61135  1  0  0  0
 61136  1  0  0  0
 61137  1  0  0  0
 62138  1  0  0  0
 62139  1  0  0  0
 62140  1  0  0  0
 63 65  1  0  0  0
 63141  1  0  0  0
 63142  1  0  0  0
 63143  1  0  0  0
 64144  1  0  0  0
 65145  1  0  0  0
 68 79  1  0  0  0
 71 72  2  0  0  0
 71 74  1  0  0  0
 71 81  1  0  0  0
 72 82  1  0  0  0
 72 86  1  0  0  0
 73 81  2  0  0  0
 73 83  1  0  0  0
 73 86  1  0  0  0
 74 76  1  0  0  0
 74 84  2  0  0  0
 75 78  1  0  0  0
 75 80  1  0  0  0
 75 85  2  0  0  0
 76146  1  0  0  0
 76147  1  0  0  0
 76148  1  0  0  0
 77149  1  0  0  0
 77150  1  0  0  0
 77151  1  0  0  0
 77 80  1  0  0  0
 78 79  1  0  0  0
 78152  1  0  0  0
 78153  1  0  0  0
 79154  1  0  0  0
 79155  1  0  0  0
 80 83  1  0  0  0
 80156  1  0  0  0
 82157  1  0  0  0
 83158  1  0  0  0
M  ISO  4   1 100  68 101  79 101  82 100
M  END
> <chiral flag>
0

> <version>
0

> <s_m_source_file>
/data/baiqing/PycharmProjects/Reinvent-master-3.2/result/LINK_invent/BTK/process_docking_weight1_custom_product_contain_oxygen_bond_distance_aromatic_linkinvent_7_9_3/rearranged_h_0182.sdf

> <i_m_source_file_index>
68

> <r_mmod_Potential_Energy-OPLS-2005>
-133.693450927734

> <r_mmod_Stretch_Energy-OPLS-2005>
39.0979881286621

> <r_mmod_Bend_Energy-OPLS-2005>
97.2551574707031

> <r_mmod_Torsional_Energy-OPLS-2005>
234.96711730957

> <r_mmod_Improper_Torsional_Energy-OPLS-2005>
3.86013865470886

> <r_mmod_Van_der_Waal_Energy-OPLS-2005>
131.116714477539

> <r_mmod_Electrostatic_Energy-OPLS-2005>
-419.570404052734

> <r_mmod_Solvation_Energy-OPLS-2005>
-231.667602539062

> <b_mmod_Minimization_Converged-OPLS-2005>
0

> <r_mmod_RMS_Derivative-OPLS-2005>
0.868494093418121

$$$$
68
                    3D
 Structure written by MMmdl.
151159  0  0  1  0            999 V2000
  -30.7058  -14.4649   20.5697 C   0  0  0  0  0  0
  -30.4223  -12.2993   19.4231 C   0  0  0  0  0  0
  -29.4951  -12.5072   18.2076 C   0  0  0  0  0  0
  -28.0157  -12.3703   18.6183 C   0  0  0  0  0  0
  -27.6637  -13.2064   19.8778 C   0  0  2  0  0  0
  -28.7056  -12.9808   20.9982 C   0  0  0  0  0  0
  -25.2597  -13.8162   20.5680 C   0  0  0  0  0  0
  -24.1849  -13.0440   20.9174 C   0  0  0  0  0  0
  -24.6402  -11.6905   20.8729 C   0  0  0  0  0  0
  -23.9065  -10.4293   21.0401 C   0  0  0  0  0  0
  -24.3613   -9.4210   21.9184 C   0  0  0  0  0  0
  -23.6289   -8.2247   22.0759 C   0  0  0  0  0  0
  -22.4272   -8.0285   21.3546 C   0  0  0  0  0  0
  -21.9908   -9.0257   20.4645 C   0  0  0  0  0  0
  -22.7236  -10.2136   20.3052 C   0  0  0  0  0  0
  -21.6854   -6.0735   22.5277 C   0  0  0  0  0  0
  -21.4014   -6.5638   23.8210 C   0  0  0  0  0  0
  -21.3660   -5.6792   24.9174 C   0  0  0  0  0  0
  -21.6046   -4.3056   24.7226 C   0  0  0  0  0  0
  -21.8818   -3.8147   23.4344 C   0  0  0  0  0  0
  -21.9194   -4.6963   22.3399 C   0  0  0  0  0  0
  -22.7871  -13.5240   21.1837 C   0  0  0  0  0  0
  -22.1661   -4.2147   21.0977 F   0  0  0  0  0  0
  -21.5631   -3.4540   25.7739 F   0  0  0  0  0  0
  -30.0409  -13.2817   20.4504 N   0  0  0  0  0  0
  -26.3038  -12.9333   20.3379 N   0  0  0  0  0  0
  -25.9331  -11.6491   20.5769 N   0  0  0  0  0  0
  -22.0509  -12.8232   22.0387 N   0  0  0  0  0  0
  -25.4323  -15.1882   20.4080 N   0  0  0  0  0  0
  -31.8307  -14.6399   20.0908 O   0  0  0  0  0  0
  -21.6640   -6.8880   21.4240 O   0  0  0  0  0  0
  -22.3561  -14.5554   20.6695 O   0  0  0  0  0  0
  -24.6170  -31.8690   23.2122 C   0  0  0  0  0  0
  -25.9062  -32.4828   23.8412 C   0  0  1  0  0  0
  -27.2257  -27.4184   20.0849 C   0  0  0  0  0  0
  -25.5920  -33.8629   24.2343 N   0  0  0  0  0  0
  -23.4043  -30.4963   21.5542 C   0  0  2  0  0  0
  -24.8471  -28.9694   20.1129 C   0  0  0  0  0  0
  -22.7416  -29.4673   22.4992 C   0  0  0  0  0  0
  -18.0270  -28.1381   22.8497 C   0  0  0  0  0  0
  -24.1485  -36.7307   23.2637 C   0  0  0  0  0  0
  -25.9380  -30.8262   21.3723 C   0  0  0  0  0  0
  -26.0112  -29.4622   20.7154 C   0  0  0  0  0  0
  -27.2012  -28.6929   20.7037 C   0  0  0  0  0  0
  -26.0392  -26.9645   19.4537 C   0  0  0  0  0  0
  -24.8570  -27.7194   19.4804 C   0  0  0  0  0  0
  -23.6118  -29.8374   20.1666 C   0  0  0  0  0  0
  -25.4109  -36.3116   24.0337 C   0  0  1  0  0  0
  -20.5863  -28.3670   23.1314 C   0  0  2  0  0  0
  -20.6767  -26.9409   22.5414 C   0  0  0  0  0  0
  -19.5741  -26.6392   21.5214 C   0  0  0  0  0  0
  -18.1917  -26.7931   22.1620 C   0  0  0  0  0  0
  -19.1520  -28.8842   23.2905 C   0  0  0  0  0  0
  -18.9450  -30.1447   23.8919 C   0  0  0  0  0  0
  -17.6454  -30.6592   24.0566 C   0  0  0  0  0  0
  -25.9042  -34.9481   23.5135 C   0  0  0  0  0  0
  -16.5345  -29.9091   23.6334 C   0  0  0  0  0  0
  -16.7259  -28.6505   23.0358 C   0  0  0  0  0  0
  -26.4483  -31.6603   25.0739 C   0  0  0  0  0  0
  -25.3745  -31.3690   26.1481 C   0  0  0  0  0  0
  -27.0323  -30.3049   24.6124 C   0  0  0  0  0  0
  -27.6051  -32.4323   25.7511 C   0  0  0  0  0  0
  -27.5585  -37.1806   24.8465 C   0  0  0  0  0  0
  -21.4143  -29.3041   22.3725 N   0  0  0  0  0  0
  -26.4291  -37.3804   23.9419 N   0  0  0  0  0  0
  -24.6716  -31.0778   22.1039 N   0  0  0  0  0  0
  -23.4184  -28.8207   23.3032 O   0  0  0  0  0  0
  -28.3806  -26.6474   20.1232 O   0  0  0  0  0  0
  -26.5597  -34.8929   22.4693 O   0  0  0  0  0  0
  -23.5357  -32.1451   23.7505 O   0  0  0  0  0  0
  -29.6091  -19.2653   20.5264 C   0  0  0  0  0  0
  -30.8690  -18.8563   20.1502 C   0  0  0  0  0  0
  -30.0722  -16.8565   20.9180 C   0  0  0  0  0  0
  -29.6407  -21.8938   20.6188 C   0  0  0  0  0  0
  -29.3074  -24.3155   20.3258 C   0  0  0  0  0  0
  -28.8985  -20.5810   20.2836 C   0  0  0  0  0  0
  -28.2295  -25.2570   19.7537 C   0  0  0  0  0  0
  -31.1187  -17.4994   20.3792 N   0  0  0  0  0  0
  -31.8412  -19.6361   19.5305 N   0  0  0  0  0  0
  -30.0034  -15.4512   21.1593 N   0  0  0  0  0  0
  -29.0026  -23.0055   20.2029 N   0  0  0  0  0  0
  -30.7161  -21.8794   21.2273 O   0  0  0  0  0  0
  -30.3328  -24.7702   20.8474 O   0  0  0  0  0  0
  -28.7207  -17.9332   21.2477 S   0  0  0  0  0  0
  -31.4678  -12.3888   19.1229 H   0  0  0  0  0  0
  -30.3138  -11.2875   19.8161 H   0  0  0  0  0  0
  -29.7326  -11.7864   17.4241 H   0  0  0  0  0  0
  -29.6663  -13.4947   17.7756 H   0  0  0  0  0  0
  -27.8230  -11.3141   18.8106 H   0  0  0  0  0  0
  -27.3663  -12.6503   17.7876 H   0  0  0  0  0  0
  -27.7097  -14.2554   19.5845 H   0  0  0  0  0  0
  -28.6774  -11.9434   21.3351 H   0  0  0  0  0  0
  -28.4656  -13.5742   21.8813 H   0  0  0  0  0  0
  -25.2762   -9.5684   22.4756 H   0  0  0  0  0  0
  -23.9996   -7.4642   22.7484 H   0  0  0  0  0  0
  -21.0839   -8.8775   19.8950 H   0  0  0  0  0  0
  -22.3701  -10.9673   19.6155 H   0  0  0  0  0  0
  -21.2003   -7.6146   23.9710 H   0  0  0  0  0  0
  -21.1485   -6.0526   25.9077 H   0  0  0  0  0  0
  -22.0598   -2.7609   23.2850 H   0  0  0  0  0  0
  -22.4118  -11.9880   22.4754 H   0  0  0  0  0  0
  -21.1129  -13.1258   22.2594 H   0  0  0  0  0  0
  -24.6617  -15.8405   20.5063 H   0  0  0  0  0  0
  -26.2789  -15.6263   20.0685 H   0  0  0  0  0  0
  -26.7132  -32.5534   23.1172 H   0  0  0  0  0  0
  -25.0091  -33.9795   25.0502 H   0  0  0  0  0  0
  -22.6943  -31.3146   21.4183 H   0  0  0  0  0  0
  -23.3758  -35.9628   23.3297 H   0  0  0  0  0  0
  -24.3581  -36.8925   22.2052 H   0  0  0  0  0  0
  -23.7214  -37.6501   23.6651 H   0  0  0  0  0  0
  -26.0583  -31.5926   20.6053 H   0  0  0  0  0  0
  -26.8236  -30.8740   21.9941 H   0  0  0  0  0  0
  -28.0958  -29.0662   21.1832 H   0  0  0  0  0  0
  -25.9871  -26.0258   18.9233 H   0  0  0  0  0  0
  -23.9658  -27.3387   19.0006 H   0  0  0  0  0  0
  -23.7228  -30.6160   19.4109 H   0  0  0  0  0  0
  -22.7342  -29.2610   19.8675 H   0  0  0  0  0  0
  -25.1281  -36.1984   25.0827 H   0  0  0  0  0  0
  -20.9952  -28.3232   24.1436 H   0  0  0  0  0  0
  -20.5679  -26.2278   23.3596 H   0  0  0  0  0  0
  -21.6634  -26.7462   22.1197 H   0  0  0  0  0  0
  -19.6907  -25.6308   21.1231 H   0  0  0  0  0  0
  -19.6684  -27.3216   20.6754 H   0  0  0  0  0  0
  -17.4189  -26.6689   21.4018 H   0  0  0  0  0  0
  -18.0317  -26.0067   22.9009 H   0  0  0  0  0  0
  -19.7923  -30.7258   24.2302 H   0  0  0  0  0  0
  -17.5007  -31.6275   24.5160 H   0  0  0  0  0  0
  -15.5346  -30.3001   23.7653 H   0  0  0  0  0  0
  -15.8654  -28.0834   22.7073 H   0  0  0  0  0  0
  -24.5938  -30.7018   25.7811 H   0  0  0  0  0  0
  -24.8913  -32.2833   26.4937 H   0  0  0  0  0  0
  -25.8103  -30.8858   27.0236 H   0  0  0  0  0  0
  -26.2875  -29.6808   24.1173 H   0  0  0  0  0  0
  -27.4092  -29.7288   25.4585 H   0  0  0  0  0  0
  -27.8712  -30.4378   23.9287 H   0  0  0  0  0  0
  -27.2671  -33.3619   26.2107 H   0  0  0  0  0  0
  -28.3856  -32.6891   25.0334 H   0  0  0  0  0  0
  -28.0726  -31.8435   26.5414 H   0  0  0  0  0  0
  -28.2586  -38.0121   24.7549 H   0  0  0  0  0  0
  -28.1096  -36.2653   24.6248 H   0  0  0  0  0  0
  -27.2306  -37.1408   25.8868 H   0  0  0  0  0  0
  -20.9302  -29.8775   21.6956 H   0  0  0  0  0  0
  -26.0179  -38.2879   24.1441 H   0  0  0  0  0  0
  -27.9615  -20.5893   20.8413 H   0  0  0  0  0  0
  -28.6164  -20.6187   19.2311 H   0  0  0  0  0  0
  -27.2924  -24.8585   20.1454 H   0  0  0  0  0  0
  -28.2146  -25.1629   18.6668 H   0  0  0  0  0  0
  -31.8095  -20.6290   19.7428 H   0  0  0  0  0  0
  -32.7865  -19.2699   19.5188 H   0  0  0  0  0  0
  -29.1457  -15.1398   21.5865 H   0  0  0  0  0  0
  -28.1294  -22.8273   19.7315 H   0  0  0  0  0  0
  1 25  1  0  0  0
  1 30  2  0  0  0
  1 80  1  0  0  0
  2  3  1  0  0  0
  2 25  1  0  0  0
  2 85  1  0  0  0
  2 86  1  0  0  0
  3  4  1  0  0  0
  3 87  1  0  0  0
  3 88  1  0  0  0
  4  5  1  0  0  0
  4 89  1  0  0  0
  4 90  1  0  0  0
  5  6  1  0  0  0
  5 26  1  0  0  0
  5 91  1  0  0  0
  6 25  1  0  0  0
  6 92  1  0  0  0
  6 93  1  0  0  0
  7  8  2  0  0  0
  7 26  1  0  0  0
  7 29  1  0  0  0
  8  9  1  0  0  0
  8 22  1  0  0  0
  9 10  1  0  0  0
  9 27  2  0  0  0
 10 11  2  0  0  0
 10 15  1  0  0  0
 11 12  1  0  0  0
 11 94  1  0  0  0
 12 13  2  0  0  0
 12 95  1  0  0  0
 13 14  1  0  0  0
 13 31  1  0  0  0
 14 15  2  0  0  0
 14 96  1  0  0  0
 15 97  1  0  0  0
 16 17  2  0  0  0
 16 21  1  0  0  0
 16 31  1  0  0  0
 17 18  1  0  0  0
 17 98  1  0  0  0
 18 19  2  0  0  0
 18 99  1  0  0  0
 19 20  1  0  0  0
 19 24  1  0  0  0
 20 21  2  0  0  0
 20100  1  0  0  0
 21 23  1  0  0  0
 22 28  1  0  0  0
 22 32  2  0  0  0
 26 27  1  0  0  0
 28101  1  0  0  0
 28102  1  0  0  0
 29103  1  0  0  0
 29104  1  0  0  0
 33 34  1  0  0  0
 33 66  1  0  0  0
 33 70  2  0  0  0
 34 36  1  0  0  0
 34 59  1  0  0  0
 34105  1  0  0  0
 35 44  2  0  0  0
 35 45  1  0  0  0
 35 68  1  0  0  0
 36 56  1  0  0  0
 36106  1  0  0  0
 37 39  1  0  0  0
 37 47  1  0  0  0
 37 66  1  0  0  0
 37107  1  0  0  0
 38 43  2  0  0  0
 38 46  1  0  0  0
 38 47  1  0  0  0
 39 64  1  0  0  0
 39 67  2  0  0  0
 40 52  1  0  0  0
 40 53  2  0  0  0
 40 58  1  0  0  0
 41108  1  0  0  0
 41109  1  0  0  0
 41110  1  0  0  0
 41 48  1  0  0  0
 42 43  1  0  0  0
 42 66  1  0  0  0
 42111  1  0  0  0
 42112  1  0  0  0
 43 44  1  0  0  0
 44113  1  0  0  0
 45 46  2  0  0  0
 45114  1  0  0  0
 46115  1  0  0  0
 47116  1  0  0  0
 47117  1  0  0  0
 48 56  1  0  0  0
 48 65  1  0  0  0
 48118  1  0  0  0
 49 50  1  0  0  0
 49 53  1  0  0  0
 49 64  1  0  0  0
 49119  1  0  0  0
 50 51  1  0  0  0
 50120  1  0  0  0
 50121  1  0  0  0
 51 52  1  0  0  0
 51122  1  0  0  0
 51123  1  0  0  0
 52124  1  0  0  0
 52125  1  0  0  0
 53 54  1  0  0  0
 54 55  2  0  0  0
 54126  1  0  0  0
 55 57  1  0  0  0
 55127  1  0  0  0
 56 69  2  0  0  0
 57 58  2  0  0  0
 57128  1  0  0  0
 58129  1  0  0  0
 59 60  1  0  0  0
 59 61  1  0  0  0
 59 62  1  0  0  0
 60130  1  0  0  0
 60131  1  0  0  0
 60132  1  0  0  0
 61133  1  0  0  0
 61134  1  0  0  0
 61135  1  0  0  0
 62136  1  0  0  0
 62137  1  0  0  0
 62138  1  0  0  0
 63 65  1  0  0  0
 63139  1  0  0  0
 63140  1  0  0  0
 63141  1  0  0  0
 64142  1  0  0  0
 65143  1  0  0  0
 68 77  1  0  0  0
 71 72  2  0  0  0
 71 76  1  0  0  0
 71 84  1  0  0  0
 72 78  1  0  0  0
 72 79  1  0  0  0
 73 78  2  0  0  0
 73 80  1  0  0  0
 73 84  1  0  0  0
 74 76  1  0  0  0
 74 81  1  0  0  0
 74 82  2  0  0  0
 75 77  1  0  0  0
 75 81  1  0  0  0
 75 83  2  0  0  0
 76144  1  0  0  0
 76145  1  0  0  0
 77146  1  0  0  0
 77147  1  0  0  0
 79148  1  0  0  0
 79149  1  0  0  0
 80150  1  0  0  0
 81151  1  0  0  0
M  ISO  4   1 100  68 101  77 101  80 100
M  END
> <chiral flag>
0

> <version>
0

> <s_m_source_file>
/data/baiqing/PycharmProjects/Reinvent-master-3.2/result/LINK_invent/BTK/process_docking_weight1_custom_product_contain_oxygen_bond_distance_aromatic_linkinvent_7_9_3/rearranged_h_0182.sdf

> <i_m_source_file_index>
69

> <r_mmod_Potential_Energy-OPLS-2005>
-374.745880126953

> <r_mmod_Stretch_Energy-OPLS-2005>
37.8707962036133

> <r_mmod_Bend_Energy-OPLS-2005>
121.699508666992

> <r_mmod_Torsional_Energy-OPLS-2005>
205.831985473633

> <r_mmod_Improper_Torsional_Energy-OPLS-2005>
8.32119941711426

> <r_mmod_Van_der_Waal_Energy-OPLS-2005>
143.100402832031

> <r_mmod_Electrostatic_Energy-OPLS-2005>
-582.672668457031

> <r_mmod_Solvation_Energy-OPLS-2005>
-323.497344970703

> <b_mmod_Minimization_Converged-OPLS-2005>
0

> <r_mmod_RMS_Derivative-OPLS-2005>
0.661379218101501

$$$$
69
                    3D
 Structure written by MMmdl.
151159  0  0  1  0            999 V2000
  -30.6060  -14.7753   20.4806 C   0  0  0  0  0  0
  -30.4413  -12.4783   19.4955 C   0  0  0  0  0  0
  -29.5241  -12.5273   18.2521 C   0  0  0  0  0  0
  -28.0447  -12.3573   18.6496 C   0  0  0  0  0  0
  -27.6494  -13.2409   19.8621 C   0  0  2  0  0  0
  -28.6906  -13.1658   21.0026 C   0  0  0  0  0  0
  -25.2534  -13.8232   20.5705 C   0  0  0  0  0  0
  -24.1820  -13.0460   20.9209 C   0  0  0  0  0  0
  -24.6422  -11.6940   20.8737 C   0  0  0  0  0  0
  -23.9100  -10.4317   21.0414 C   0  0  0  0  0  0
  -24.3651   -9.4228   21.9187 C   0  0  0  0  0  0
  -23.6327   -8.2254   22.0758 C   0  0  0  0  0  0
  -22.4299   -8.0304   21.3550 C   0  0  0  0  0  0
  -21.9939   -9.0280   20.4645 C   0  0  0  0  0  0
  -22.7275  -10.2156   20.3061 C   0  0  0  0  0  0
  -21.6859   -6.0750   22.5285 C   0  0  0  0  0  0
  -21.4016   -6.5651   23.8221 C   0  0  0  0  0  0
  -21.3657   -5.6799   24.9180 C   0  0  0  0  0  0
  -21.6047   -4.3061   24.7226 C   0  0  0  0  0  0
  -21.8825   -3.8159   23.4349 C   0  0  0  0  0  0
  -21.9203   -4.6978   22.3406 C   0  0  0  0  0  0
  -22.7837  -13.5235   21.1859 C   0  0  0  0  0  0
  -22.1671   -4.2170   21.0975 F   0  0  0  0  0  0
  -21.5630   -3.4537   25.7734 F   0  0  0  0  0  0
  -29.9979  -13.5344   20.4398 N   0  0  0  0  0  0
  -26.2981  -12.9444   20.3315 N   0  0  0  0  0  0
  -25.9359  -11.6577   20.5743 N   0  0  0  0  0  0
  -22.0471  -12.8209   22.0398 N   0  0  0  0  0  0
  -25.4270  -15.1953   20.4166 N   0  0  0  0  0  0
  -31.7564  -14.8939   20.0458 O   0  0  0  0  0  0
  -21.6658   -6.8897   21.4245 O   0  0  0  0  0  0
  -22.3509  -14.5541   20.6724 O   0  0  0  0  0  0
  -24.6350  -31.8530   23.2006 C   0  0  0  0  0  0
  -25.9175  -32.4721   23.8349 C   0  0  1  0  0  0
  -27.1955  -27.1905   20.1414 C   0  0  0  0  0  0
  -25.5967  -33.8529   24.2259 N   0  0  0  0  0  0
  -23.4334  -30.4776   21.5470 C   0  0  2  0  0  0
  -24.8809  -28.9285   20.1118 C   0  0  0  0  0  0
  -22.7525  -29.4583   22.4936 C   0  0  0  0  0  0
  -18.0292  -28.1376   22.8476 C   0  0  0  0  0  0
  -24.1505  -36.7250   23.2640 C   0  0  0  0  0  0
  -25.9893  -30.7343   21.4048 C   0  0  0  0  0  0
  -26.0539  -29.3535   20.7496 C   0  0  0  0  0  0
  -27.2106  -28.4946   20.7656 C   0  0  0  0  0  0
  -26.0308  -26.9149   19.3928 C   0  0  0  0  0  0
  -24.8807  -27.7172   19.4166 C   0  0  0  0  0  0
  -23.6539  -29.8196   20.1621 C   0  0  0  0  0  0
  -25.4124  -36.3043   24.0333 C   0  0  1  0  0  0
  -20.5895  -28.3695   23.1261 C   0  0  2  0  0  0
  -20.6767  -26.9415   22.5401 C   0  0  0  0  0  0
  -19.5746  -26.6378   21.5195 C   0  0  0  0  0  0
  -18.1930  -26.7916   22.1615 C   0  0  0  0  0  0
  -19.1548  -28.8851   23.2853 C   0  0  0  0  0  0
  -18.9466  -30.1450   23.8871 C   0  0  0  0  0  0
  -17.6462  -30.6580   24.0538 C   0  0  0  0  0  0
  -25.9073  -34.9414   23.5095 C   0  0  0  0  0  0
  -16.5351  -29.9070   23.6331 C   0  0  0  0  0  0
  -16.7275  -28.6487   23.0357 C   0  0  0  0  0  0
  -26.4499  -31.6543   25.0758 C   0  0  0  0  0  0
  -25.3695  -31.3737   26.1478 C   0  0  0  0  0  0
  -27.0361  -30.2943   24.6327 C   0  0  0  0  0  0
  -27.6050  -32.4295   25.7514 C   0  0  0  0  0  0
  -27.5580  -37.1784   24.8465 C   0  0  0  0  0  0
  -21.4228  -29.3036   22.3665 N   0  0  0  0  0  0
  -26.4284  -37.3750   23.9421 N   0  0  0  0  0  0
  -24.7050  -31.0437   22.1032 N   0  0  0  0  0  0
  -23.4216  -28.8130   23.3048 O   0  0  0  0  0  0
  -28.2339  -26.2033   20.1991 O   0  0  0  0  0  0
  -26.5649  -34.8888   22.4669 O   0  0  0  0  0  0
  -23.5490  -32.1401   23.7254 O   0  0  0  0  0  0
  -29.6197  -19.6989   20.4102 C   0  0  0  0  0  0
  -29.4779  -19.3768   19.0648 C   0  0  0  0  0  0
  -29.8590  -17.2787   20.4248 C   0  0  0  0  0  0
  -29.7584  -21.1835   20.9830 C   0  0  0  0  0  0
  -29.1255  -23.6510   20.7290 C   0  0  0  0  0  0
  -26.8179  -24.0182   19.6448 C   0  0  0  0  0  0
  -27.9138  -24.7130   20.4936 C   0  0  2  0  0  0
  -29.8086  -18.4520   21.1539 N   0  0  0  0  0  0
  -29.2945  -20.2112   17.9640 N   0  0  0  0  0  0
  -29.8993  -15.8816   20.9415 N   0  0  0  0  0  0
  -29.0020  -22.2638   20.5098 N   0  0  0  0  0  0
  -30.5692  -21.3534   21.9021 O   0  0  0  0  0  0
  -30.1792  -24.1333   21.1580 O   0  0  0  0  0  0
  -29.6278  -17.6451   18.7218 S   0  0  0  0  0  0
  -31.4818  -12.6067   19.1933 H   0  0  0  0  0  0
  -30.3945  -11.5011   19.9768 H   0  0  0  0  0  0
  -29.8139  -11.7523   17.5420 H   0  0  0  0  0  0
  -29.6577  -13.4803   17.7366 H   0  0  0  0  0  0
  -27.8846  -11.3049   18.8865 H   0  0  0  0  0  0
  -27.4006  -12.5806   17.7990 H   0  0  0  0  0  0
  -27.6456  -14.2685   19.4975 H   0  0  0  0  0  0
  -28.7277  -12.1619   21.4282 H   0  0  0  0  0  0
  -28.4113  -13.8328   21.8186 H   0  0  0  0  0  0
  -25.2804   -9.5686   22.4755 H   0  0  0  0  0  0
  -24.0045   -7.4638   22.7466 H   0  0  0  0  0  0
  -21.0882   -8.8818   19.8933 H   0  0  0  0  0  0
  -22.3773  -10.9704   19.6165 H   0  0  0  0  0  0
  -21.1999   -7.6159   23.9732 H   0  0  0  0  0  0
  -21.1468   -6.0519   25.9083 H   0  0  0  0  0  0
  -22.0601   -2.7626   23.2846 H   0  0  0  0  0  0
  -22.4107  -11.9893   22.4802 H   0  0  0  0  0  0
  -21.1075  -13.1206   22.2575 H   0  0  0  0  0  0
  -24.6673  -15.8560   20.5409 H   0  0  0  0  0  0
  -26.2803  -15.6352   20.0951 H   0  0  0  0  0  0
  -26.7238  -32.5342   23.1072 H   0  0  0  0  0  0
  -25.0071  -33.9666   25.0384 H   0  0  0  0  0  0
  -22.7292  -31.3002   21.4042 H   0  0  0  0  0  0
  -23.3769  -35.9573   23.3280 H   0  0  0  0  0  0
  -24.3582  -36.8898   22.2050 H   0  0  0  0  0  0
  -23.7253  -37.6448   23.6673 H   0  0  0  0  0  0
  -26.1519  -31.4886   20.6340 H   0  0  0  0  0  0
  -26.8561  -30.7718   22.0512 H   0  0  0  0  0  0
  -28.0941  -28.8086   21.3015 H   0  0  0  0  0  0
  -25.9728  -26.0720   18.7309 H   0  0  0  0  0  0
  -24.0074  -27.4123   18.8554 H   0  0  0  0  0  0
  -23.7765  -30.5992   19.4102 H   0  0  0  0  0  0
  -22.7713  -29.2540   19.8551 H   0  0  0  0  0  0
  -25.1298  -36.1864   25.0818 H   0  0  0  0  0  0
  -20.9949  -28.3266   24.1397 H   0  0  0  0  0  0
  -20.5638  -26.2308   23.3610 H   0  0  0  0  0  0
  -21.6642  -26.7427   22.1207 H   0  0  0  0  0  0
  -19.6908  -25.6288   21.1234 H   0  0  0  0  0  0
  -19.6671  -27.3177   20.6715 H   0  0  0  0  0  0
  -17.4188  -26.6650   21.4030 H   0  0  0  0  0  0
  -18.0342  -26.0059   22.9011 H   0  0  0  0  0  0
  -19.7941  -30.7265   24.2244 H   0  0  0  0  0  0
  -17.5015  -31.6262   24.5134 H   0  0  0  0  0  0
  -15.5350  -30.2947   23.7679 H   0  0  0  0  0  0
  -15.8676  -28.0780   22.7099 H   0  0  0  0  0  0
  -24.5844  -30.7108   25.7819 H   0  0  0  0  0  0
  -24.8900  -32.2919   26.4885 H   0  0  0  0  0  0
  -25.7967  -30.8919   27.0285 H   0  0  0  0  0  0
  -26.2987  -29.6680   24.1298 H   0  0  0  0  0  0
  -27.3938  -29.7215   25.4892 H   0  0  0  0  0  0
  -27.8911  -30.4174   23.9679 H   0  0  0  0  0  0
  -27.2644  -33.3590   26.2087 H   0  0  0  0  0  0
  -28.3847  -32.6876   25.0334 H   0  0  0  0  0  0
  -28.0740  -31.8432   26.5430 H   0  0  0  0  0  0
  -28.2590  -38.0093   24.7522 H   0  0  0  0  0  0
  -28.1092  -36.2622   24.6269 H   0  0  0  0  0  0
  -27.2303  -37.1404   25.8873 H   0  0  0  0  0  0
  -20.9434  -29.8753   21.6853 H   0  0  0  0  0  0
  -26.0155  -38.2827   24.1404 H   0  0  0  0  0  0
  -25.8246  -24.3771   19.9122 H   0  0  0  0  0  0
  -26.7262  -22.9502   19.8290 H   0  0  0  0  0  0
  -26.9898  -24.1482   18.5764 H   0  0  0  0  0  0
  -27.4854  -24.7706   21.4958 H   0  0  0  0  0  0
  -29.5435  -21.1958   17.9660 H   0  0  0  0  0  0
  -29.3808  -19.8157   17.0321 H   0  0  0  0  0  0
  -29.0991  -15.6345   21.5020 H   0  0  0  0  0  0
  -28.2206  -21.9795   19.9411 H   0  0  0  0  0  0
  1 25  1  0  0  0
  1 30  2  0  0  0
  1 80  1  0  0  0
  2  3  1  0  0  0
  2 25  1  0  0  0
  2 85  1  0  0  0
  2 86  1  0  0  0
  3  4  1  0  0  0
  3 87  1  0  0  0
  3 88  1  0  0  0
  4  5  1  0  0  0
  4 89  1  0  0  0
  4 90  1  0  0  0
  5  6  1  0  0  0
  5 26  1  0  0  0
  5 91  1  0  0  0
  6 25  1  0  0  0
  6 92  1  0  0  0
  6 93  1  0  0  0
  7  8  2  0  0  0
  7 26  1  0  0  0
  7 29  1  0  0  0
  8  9  1  0  0  0
  8 22  1  0  0  0
  9 10  1  0  0  0
  9 27  2  0  0  0
 10 11  2  0  0  0
 10 15  1  0  0  0
 11 12  1  0  0  0
 11 94  1  0  0  0
 12 13  2  0  0  0
 12 95  1  0  0  0
 13 14  1  0  0  0
 13 31  1  0  0  0
 14 15  2  0  0  0
 14 96  1  0  0  0
 15 97  1  0  0  0
 16 17  2  0  0  0
 16 21  1  0  0  0
 16 31  1  0  0  0
 17 18  1  0  0  0
 17 98  1  0  0  0
 18 19  2  0  0  0
 18 99  1  0  0  0
 19 20  1  0  0  0
 19 24  1  0  0  0
 20 21  2  0  0  0
 20100  1  0  0  0
 21 23  1  0  0  0
 22 28  1  0  0  0
 22 32  2  0  0  0
 26 27  1  0  0  0
 28101  1  0  0  0
 28102  1  0  0  0
 29103  1  0  0  0
 29104  1  0  0  0
 33 34  1  0  0  0
 33 66  1  0  0  0
 33 70  2  0  0  0
 34 36  1  0  0  0
 34 59  1  0  0  0
 34105  1  0  0  0
 35 44  2  0  0  0
 35 45  1  0  0  0
 35 68  1  0  0  0
 36 56  1  0  0  0
 36106  1  0  0  0
 37 39  1  0  0  0
 37 47  1  0  0  0
 37 66  1  0  0  0
 37107  1  0  0  0
 38 43  2  0  0  0
 38 46  1  0  0  0
 38 47  1  0  0  0
 39 64  1  0  0  0
 39 67  2  0  0  0
 40 52  1  0  0  0
 40 53  2  0  0  0
 40 58  1  0  0  0
 41108  1  0  0  0
 41109  1  0  0  0
 41110  1  0  0  0
 41 48  1  0  0  0
 42 43  1  0  0  0
 42 66  1  0  0  0
 42111  1  0  0  0
 42112  1  0  0  0
 43 44  1  0  0  0
 44113  1  0  0  0
 45 46  2  0  0  0
 45114  1  0  0  0
 46115  1  0  0  0
 47116  1  0  0  0
 47117  1  0  0  0
 48 56  1  0  0  0
 48 65  1  0  0  0
 48118  1  0  0  0
 49 50  1  0  0  0
 49 53  1  0  0  0
 49 64  1  0  0  0
 49119  1  0  0  0
 50 51  1  0  0  0
 50120  1  0  0  0
 50121  1  0  0  0
 51 52  1  0  0  0
 51122  1  0  0  0
 51123  1  0  0  0
 52124  1  0  0  0
 52125  1  0  0  0
 53 54  1  0  0  0
 54 55  2  0  0  0
 54126  1  0  0  0
 55 57  1  0  0  0
 55127  1  0  0  0
 56 69  2  0  0  0
 57 58  2  0  0  0
 57128  1  0  0  0
 58129  1  0  0  0
 59 60  1  0  0  0
 59 61  1  0  0  0
 59 62  1  0  0  0
 60130  1  0  0  0
 60131  1  0  0  0
 60132  1  0  0  0
 61133  1  0  0  0
 61134  1  0  0  0
 61135  1  0  0  0
 62136  1  0  0  0
 62137  1  0  0  0
 62138  1  0  0  0
 63 65  1  0  0  0
 63139  1  0  0  0
 63140  1  0  0  0
 63141  1  0  0  0
 64142  1  0  0  0
 65143  1  0  0  0
 68 77  1  0  0  0
 71 72  2  0  0  0
 71 74  1  0  0  0
 71 78  1  0  0  0
 72 79  1  0  0  0
 72 84  1  0  0  0
 73 78  2  0  0  0
 73 80  1  0  0  0
 73 84  1  0  0  0
 74 81  1  0  0  0
 74 82  2  0  0  0
 75 77  1  0  0  0
 75 81  1  0  0  0
 75 83  2  0  0  0
 76144  1  0  0  0
 76145  1  0  0  0
 76146  1  0  0  0
 76 77  1  0  0  0
 77147  1  0  0  0
 79148  1  0  0  0
 79149  1  0  0  0
 80150  1  0  0  0
 81151  1  0  0  0
M  ISO  4   1 100  68 101  77 101  80 100
M  END
> <chiral flag>
0

> <version>
0

> <s_m_source_file>
/data/baiqing/PycharmProjects/Reinvent-master-3.2/result/LINK_invent/BTK/process_docking_weight1_custom_product_contain_oxygen_bond_distance_aromatic_linkinvent_7_9_3/rearranged_h_0182.sdf

> <i_m_source_file_index>
70

> <r_mmod_Potential_Energy-OPLS-2005>
236.541046142578

> <r_mmod_Stretch_Energy-OPLS-2005>
166.480682373047

> <r_mmod_Bend_Energy-OPLS-2005>
200.916915893555

> <r_mmod_Torsional_Energy-OPLS-2005>
279.357177734375

> <r_mmod_Improper_Torsional_Energy-OPLS-2005>
7.25567960739136

> <r_mmod_Van_der_Waal_Energy-OPLS-2005>
131.920837402344

> <r_mmod_Electrostatic_Energy-OPLS-2005>
-366.843078613281

> <r_mmod_Solvation_Energy-OPLS-2005>
-302.647644042969

> <b_mmod_Minimization_Converged-OPLS-2005>
0

> <r_mmod_RMS_Derivative-OPLS-2005>
2.88612604141235

$$$$
70
                    3D
 Structure written by MMmdl.
153161  0  0  1  0            999 V2000
  -30.6117  -14.7200   20.4725 C   0  0  0  0  0  0
  -30.4314  -12.4372   19.4885 C   0  0  0  0  0  0
  -29.5115  -12.5038   18.2482 C   0  0  0  0  0  0
  -28.0382  -12.3299   18.6591 C   0  0  0  0  0  0
  -27.6462  -13.2262   19.8642 C   0  0  2  0  0  0
  -28.6863  -13.1452   21.0059 C   0  0  0  0  0  0
  -25.2535  -13.8191   20.5704 C   0  0  0  0  0  0
  -24.1813  -13.0438   20.9195 C   0  0  0  0  0  0
  -24.6392  -11.6925   20.8758 C   0  0  0  0  0  0
  -23.9072  -10.4298   21.0419 C   0  0  0  0  0  0
  -24.3628   -9.4210   21.9191 C   0  0  0  0  0  0
  -23.6306   -8.2248   22.0758 C   0  0  0  0  0  0
  -22.4286   -8.0287   21.3548 C   0  0  0  0  0  0
  -21.9926   -9.0263   20.4645 C   0  0  0  0  0  0
  -22.7253  -10.2142   20.3060 C   0  0  0  0  0  0
  -21.6847   -6.0745   22.5277 C   0  0  0  0  0  0
  -21.4009   -6.5645   23.8207 C   0  0  0  0  0  0
  -21.3656   -5.6794   24.9168 C   0  0  0  0  0  0
  -21.6044   -4.3062   24.7217 C   0  0  0  0  0  0
  -21.8818   -3.8156   23.4339 C   0  0  0  0  0  0
  -21.9195   -4.6975   22.3399 C   0  0  0  0  0  0
  -22.7830  -13.5224   21.1870 C   0  0  0  0  0  0
  -22.1661   -4.2170   21.0979 F   0  0  0  0  0  0
  -21.5633   -3.4550   25.7733 F   0  0  0  0  0  0
  -29.9947  -13.4903   20.4379 N   0  0  0  0  0  0
  -26.2953  -12.9387   20.3341 N   0  0  0  0  0  0
  -25.9325  -11.6530   20.5787 N   0  0  0  0  0  0
  -22.0483  -12.8203   22.0417 N   0  0  0  0  0  0
  -25.4250  -15.1914   20.4154 N   0  0  0  0  0  0
  -31.7782  -14.8284   20.0826 O   0  0  0  0  0  0
  -21.6640   -6.8896   21.4239 O   0  0  0  0  0  0
  -22.3524  -14.5543   20.6735 O   0  0  0  0  0  0
  -24.6300  -31.8564   23.2048 C   0  0  0  0  0  0
  -25.9148  -32.4751   23.8365 C   0  0  1  0  0  0
  -27.2051  -27.2684   20.1513 C   0  0  0  0  0  0
  -25.5968  -33.8553   24.2268 N   0  0  0  0  0  0
  -23.4275  -30.4786   21.5448 C   0  0  2  0  0  0
  -24.8801  -28.9377   20.1014 C   0  0  0  0  0  0
  -22.7511  -29.4592   22.4920 C   0  0  0  0  0  0
  -18.0292  -28.1384   22.8476 C   0  0  0  0  0  0
  -24.1491  -36.7273   23.2644 C   0  0  0  0  0  0
  -25.9740  -30.7700   21.3895 C   0  0  0  0  0  0
  -26.0459  -29.3942   20.7321 C   0  0  0  0  0  0
  -27.2142  -28.5677   20.7555 C   0  0  0  0  0  0
  -26.0482  -26.9100   19.4324 C   0  0  0  0  0  0
  -24.8877  -27.7048   19.4340 C   0  0  0  0  0  0
  -23.6464  -29.8176   20.1581 C   0  0  0  0  0  0
  -25.4115  -36.3045   24.0333 C   0  0  1  0  0  0
  -20.5896  -28.3694   23.1275 C   0  0  2  0  0  0
  -20.6790  -26.9410   22.5405 C   0  0  0  0  0  0
  -19.5761  -26.6372   21.5209 C   0  0  0  0  0  0
  -18.1922  -26.7915   22.1604 C   0  0  0  0  0  0
  -19.1544  -28.8857   23.2852 C   0  0  0  0  0  0
  -18.9453  -30.1457   23.8869 C   0  0  0  0  0  0
  -17.6456  -30.6582   24.0557 C   0  0  0  0  0  0
  -25.9068  -34.9427   23.5082 C   0  0  0  0  0  0
  -16.5346  -29.9066   23.6370 C   0  0  0  0  0  0
  -16.7278  -28.6495   23.0376 C   0  0  0  0  0  0
  -26.4533  -31.6571   25.0746 C   0  0  0  0  0  0
  -25.3760  -31.3720   26.1484 C   0  0  0  0  0  0
  -27.0397  -30.2972   24.6253 C   0  0  0  0  0  0
  -27.6096  -32.4337   25.7495 C   0  0  0  0  0  0
  -27.5574  -37.1785   24.8474 C   0  0  0  0  0  0
  -21.4222  -29.3029   22.3653 N   0  0  0  0  0  0
  -26.4293  -37.3733   23.9422 N   0  0  0  0  0  0
  -24.6945  -31.0541   22.1013 N   0  0  0  0  0  0
  -23.4201  -28.8133   23.3018 O   0  0  0  0  0  0
  -28.2539  -26.3247   20.2074 O   0  0  0  0  0  0
  -26.5597  -34.8895   22.4620 O   0  0  0  0  0  0
  -23.5459  -32.1411   23.7339 O   0  0  0  0  0  0
  -29.7906  -18.6188   20.3020 C   0  0  0  0  0  0
  -30.7725  -19.5738   20.0891 C   0  0  0  0  0  0
  -29.1426  -21.1418   20.5810 C   0  0  0  0  0  0
  -28.9285  -23.7710   20.4758 C   0  0  0  0  0  0
  -26.6161  -24.6012   21.2351 C   0  0  0  0  0  0
  -28.6750  -25.4396   22.3741 C   0  0  0  0  0  0
  -29.8667  -17.1091   19.8286 C   0  0  0  0  0  0
  -28.0874  -25.0435   21.0058 C   0  0  0  0  0  0
  -30.4264  -20.9421   20.2490 N   0  0  0  0  0  0
  -28.5328  -22.4762   20.7859 N   0  0  0  0  0  0
  -29.8382  -15.8494   20.6903 N   0  0  0  0  0  0
  -29.9428  -23.9900   19.8081 O   0  0  0  0  0  0
  -31.9681  -19.2423   19.6595 F   0  0  0  0  0  0
  -28.3237  -19.5320   20.7733 S   0  0  0  0  0  0
  -31.4730  -12.5553   19.1837 H   0  0  0  0  0  0
  -30.3695  -11.4556   19.9618 H   0  0  0  0  0  0
  -29.7889  -11.7305   17.5303 H   0  0  0  0  0  0
  -29.6412  -13.4594   17.7382 H   0  0  0  0  0  0
  -27.8950  -11.2808   18.9242 H   0  0  0  0  0  0
  -27.3785  -12.5202   17.8129 H   0  0  0  0  0  0
  -27.6485  -14.2507   19.4913 H   0  0  0  0  0  0
  -28.7119  -12.1439   21.4382 H   0  0  0  0  0  0
  -28.4182  -13.8212   21.8195 H   0  0  0  0  0  0
  -25.2767   -9.5686   22.4770 H   0  0  0  0  0  0
  -24.0012   -7.4639   22.7479 H   0  0  0  0  0  0
  -21.0853   -8.8788   19.8942 H   0  0  0  0  0  0
  -22.3716  -10.9691   19.6182 H   0  0  0  0  0  0
  -21.1991   -7.6154   23.9717 H   0  0  0  0  0  0
  -21.1476   -6.0529   25.9076 H   0  0  0  0  0  0
  -22.0600   -2.7628   23.2834 H   0  0  0  0  0  0
  -22.4114  -11.9861   22.4781 H   0  0  0  0  0  0
  -21.1111  -13.1234   22.2660 H   0  0  0  0  0  0
  -24.6585  -15.8458   20.5309 H   0  0  0  0  0  0
  -26.2761  -15.6332   20.0925 H   0  0  0  0  0  0
  -26.7206  -32.5411   23.1102 H   0  0  0  0  0  0
  -25.0223  -33.9698   25.0491 H   0  0  0  0  0  0
  -22.7231  -31.3012   21.4036 H   0  0  0  0  0  0
  -23.3753  -35.9608   23.3290 H   0  0  0  0  0  0
  -24.3607  -36.8922   22.2072 H   0  0  0  0  0  0
  -23.7258  -37.6472   23.6692 H   0  0  0  0  0  0
  -26.1175  -31.5283   20.6186 H   0  0  0  0  0  0
  -26.8504  -30.8146   22.0238 H   0  0  0  0  0  0
  -28.1017  -28.8964   21.2789 H   0  0  0  0  0  0
  -26.0279  -25.9736   18.8944 H   0  0  0  0  0  0
  -24.0072  -27.3665   18.9077 H   0  0  0  0  0  0
  -23.7543  -30.5950   19.3999 H   0  0  0  0  0  0
  -22.7689  -29.2398   19.8607 H   0  0  0  0  0  0
  -25.1271  -36.1893   25.0817 H   0  0  0  0  0  0
  -20.9940  -28.3279   24.1422 H   0  0  0  0  0  0
  -20.5738  -26.2282   23.3599 H   0  0  0  0  0  0
  -21.6653  -26.7490   22.1167 H   0  0  0  0  0  0
  -19.6942  -25.6278   21.1246 H   0  0  0  0  0  0
  -19.6705  -27.3172   20.6726 H   0  0  0  0  0  0
  -17.4206  -26.6693   21.3975 H   0  0  0  0  0  0
  -18.0293  -26.0052   22.8978 H   0  0  0  0  0  0
  -19.7929  -30.7280   24.2206 H   0  0  0  0  0  0
  -17.5013  -31.6264   24.5131 H   0  0  0  0  0  0
  -15.5338  -30.2935   23.7751 H   0  0  0  0  0  0
  -15.8672  -28.0809   22.7129 H   0  0  0  0  0  0
  -24.5925  -30.7081   25.7825 H   0  0  0  0  0  0
  -24.8977  -32.2874   26.4948 H   0  0  0  0  0  0
  -25.8081  -30.8875   27.0239 H   0  0  0  0  0  0
  -26.2989  -29.6666   24.1322 H   0  0  0  0  0  0
  -27.4106  -29.7299   25.4806 H   0  0  0  0  0  0
  -27.8839  -30.4244   23.9485 H   0  0  0  0  0  0
  -27.2768  -33.3717   26.1935 H   0  0  0  0  0  0
  -28.3948  -32.6752   25.0327 H   0  0  0  0  0  0
  -28.0665  -31.8529   26.5511 H   0  0  0  0  0  0
  -28.2573  -38.0088   24.7508 H   0  0  0  0  0  0
  -28.1072  -36.2616   24.6289 H   0  0  0  0  0  0
  -27.2293  -37.1434   25.8875 H   0  0  0  0  0  0
  -20.9438  -29.8767   21.6851 H   0  0  0  0  0  0
  -26.0157  -38.2804   24.1396 H   0  0  0  0  0  0
  -26.5434  -23.7744   21.9440 H   0  0  0  0  0  0
  -26.1448  -24.2696   20.3103 H   0  0  0  0  0  0
  -26.0039  -25.3964   21.6636 H   0  0  0  0  0  0
  -28.6222  -24.6193   23.0909 H   0  0  0  0  0  0
  -28.1399  -26.2854   22.8082 H   0  0  0  0  0  0
  -29.7243  -25.7240   22.2859 H   0  0  0  0  0  0
  -30.7367  -17.0274   19.1755 H   0  0  0  0  0  0
  -29.0338  -16.9692   19.1389 H   0  0  0  0  0  0
  -27.6404  -22.4452   21.2587 H   0  0  0  0  0  0
  -28.9469  -15.6605   21.1256 H   0  0  0  0  0  0
  1 25  1  0  0  0
  1 30  2  0  0  0
  1 81  1  0  0  0
  2  3  1  0  0  0
  2 25  1  0  0  0
  2 85  1  0  0  0
  2 86  1  0  0  0
  3  4  1  0  0  0
  3 87  1  0  0  0
  3 88  1  0  0  0
  4  5  1  0  0  0
  4 89  1  0  0  0
  4 90  1  0  0  0
  5  6  1  0  0  0
  5 26  1  0  0  0
  5 91  1  0  0  0
  6 25  1  0  0  0
  6 92  1  0  0  0
  6 93  1  0  0  0
  7  8  2  0  0  0
  7 26  1  0  0  0
  7 29  1  0  0  0
  8  9  1  0  0  0
  8 22  1  0  0  0
  9 10  1  0  0  0
  9 27  2  0  0  0
 10 11  2  0  0  0
 10 15  1  0  0  0
 11 12  1  0  0  0
 11 94  1  0  0  0
 12 13  2  0  0  0
 12 95  1  0  0  0
 13 14  1  0  0  0
 13 31  1  0  0  0
 14 15  2  0  0  0
 14 96  1  0  0  0
 15 97  1  0  0  0
 16 17  2  0  0  0
 16 21  1  0  0  0
 16 31  1  0  0  0
 17 18  1  0  0  0
 17 98  1  0  0  0
 18 19  2  0  0  0
 18 99  1  0  0  0
 19 20  1  0  0  0
 19 24  1  0  0  0
 20 21  2  0  0  0
 20100  1  0  0  0
 21 23  1  0  0  0
 22 28  1  0  0  0
 22 32  2  0  0  0
 26 27  1  0  0  0
 28101  1  0  0  0
 28102  1  0  0  0
 29103  1  0  0  0
 29104  1  0  0  0
 33 34  1  0  0  0
 33 66  1  0  0  0
 33 70  2  0  0  0
 34 36  1  0  0  0
 34 59  1  0  0  0
 34105  1  0  0  0
 35 44  2  0  0  0
 35 45  1  0  0  0
 35 68  1  0  0  0
 36 56  1  0  0  0
 36106  1  0  0  0
 37 39  1  0  0  0
 37 47  1  0  0  0
 37 66  1  0  0  0
 37107  1  0  0  0
 38 43  2  0  0  0
 38 46  1  0  0  0
 38 47  1  0  0  0
 39 64  1  0  0  0
 39 67  2  0  0  0
 40 52  1  0  0  0
 40 53  2  0  0  0
 40 58  1  0  0  0
 41108  1  0  0  0
 41109  1  0  0  0
 41110  1  0  0  0
 41 48  1  0  0  0
 42 43  1  0  0  0
 42 66  1  0  0  0
 42111  1  0  0  0
 42112  1  0  0  0
 43 44  1  0  0  0
 44113  1  0  0  0
 45 46  2  0  0  0
 45114  1  0  0  0
 46115  1  0  0  0
 47116  1  0  0  0
 47117  1  0  0  0
 48 56  1  0  0  0
 48 65  1  0  0  0
 48118  1  0  0  0
 49 50  1  0  0  0
 49 53  1  0  0  0
 49 64  1  0  0  0
 49119  1  0  0  0
 50 51  1  0  0  0
 50120  1  0  0  0
 50121  1  0  0  0
 51 52  1  0  0  0
 51122  1  0  0  0
 51123  1  0  0  0
 52124  1  0  0  0
 52125  1  0  0  0
 53 54  1  0  0  0
 54 55  2  0  0  0
 54126  1  0  0  0
 55 57  1  0  0  0
 55127  1  0  0  0
 56 69  2  0  0  0
 57 58  2  0  0  0
 57128  1  0  0  0
 58129  1  0  0  0
 59 60  1  0  0  0
 59 61  1  0  0  0
 59 62  1  0  0  0
 60130  1  0  0  0
 60131  1  0  0  0
 60132  1  0  0  0
 61133  1  0  0  0
 61134  1  0  0  0
 61135  1  0  0  0
 62136  1  0  0  0
 62137  1  0  0  0
 62138  1  0  0  0
 63 65  1  0  0  0
 63139  1  0  0  0
 63140  1  0  0  0
 63141  1  0  0  0
 64142  1  0  0  0
 65143  1  0  0  0
 68 78  1  0  0  0
 71 72  2  0  0  0
 71 77  1  0  0  0
 71 84  1  0  0  0
 72 79  1  0  0  0
 72 83  1  0  0  0
 73 79  2  0  0  0
 73 80  1  0  0  0
 73 84  1  0  0  0
 74 78  1  0  0  0
 74 80  1  0  0  0
 74 82  2  0  0  0
 75144  1  0  0  0
 75145  1  0  0  0
 75146  1  0  0  0
 75 78  1  0  0  0
 76 78  1  0  0  0
 76147  1  0  0  0
 76148  1  0  0  0
 76149  1  0  0  0
 77 81  1  0  0  0
 77150  1  0  0  0
 77151  1  0  0  0
 80152  1  0  0  0
 81153  1  0  0  0
M  ISO  4   1 100  68 101  78 101  81 100
M  END
> <chiral flag>
0

> <version>
0

> <s_m_source_file>
/data/baiqing/PycharmProjects/Reinvent-master-3.2/result/LINK_invent/BTK/process_docking_weight1_custom_product_contain_oxygen_bond_distance_aromatic_linkinvent_7_9_3/rearranged_h_0182.sdf

> <i_m_source_file_index>
71

> <r_mmod_Potential_Energy-OPLS-2005>
99.4892120361328

> <r_mmod_Stretch_Energy-OPLS-2005>
116.229858398438

> <r_mmod_Bend_Energy-OPLS-2005>
184.796997070312

> <r_mmod_Torsional_Energy-OPLS-2005>
268.627990722656

> <r_mmod_Improper_Torsional_Energy-OPLS-2005>
10.9858207702637

> <r_mmod_Van_der_Waal_Energy-OPLS-2005>
124.051658630371

> <r_mmod_Electrostatic_Energy-OPLS-2005>
-427.987152099609

> <r_mmod_Solvation_Energy-OPLS-2005>
-261.383514404297

> <b_mmod_Minimization_Converged-OPLS-2005>
0

> <r_mmod_RMS_Derivative-OPLS-2005>
3.21992492675781

$$$$
71
                    3D
 Structure written by MMmdl.
149157  0  0  1  0            999 V2000
  -30.5869  -14.7793   20.4489 C   0  0  0  0  0  0
  -30.4385  -12.4759   19.4692 C   0  0  0  0  0  0
  -29.5122  -12.5083   18.2334 C   0  0  0  0  0  0
  -28.0400  -12.3203   18.6511 C   0  0  0  0  0  0
  -27.6389  -13.2277   19.8442 C   0  0  2  0  0  0
  -28.6853  -13.1783   20.9783 C   0  0  0  0  0  0
  -25.2511  -13.8182   20.5687 C   0  0  0  0  0  0
  -24.1804  -13.0430   20.9210 C   0  0  0  0  0  0
  -24.6389  -11.6905   20.8744 C   0  0  0  0  0  0
  -23.9064  -10.4288   21.0407 C   0  0  0  0  0  0
  -24.3614   -9.4207   21.9187 C   0  0  0  0  0  0
  -23.6293   -8.2241   22.0756 C   0  0  0  0  0  0
  -22.4276   -8.0278   21.3545 C   0  0  0  0  0  0
  -21.9908   -9.0252   20.4646 C   0  0  0  0  0  0
  -22.7234  -10.2132   20.3059 C   0  0  0  0  0  0
  -21.6853   -6.0733   22.5281 C   0  0  0  0  0  0
  -21.4016   -6.5638   23.8212 C   0  0  0  0  0  0
  -21.3663   -5.6791   24.9176 C   0  0  0  0  0  0
  -21.6041   -4.3052   24.7226 C   0  0  0  0  0  0
  -21.8818   -3.8145   23.4346 C   0  0  0  0  0  0
  -21.9194   -4.6961   22.3401 C   0  0  0  0  0  0
  -22.7829  -13.5219   21.1873 C   0  0  0  0  0  0
  -22.1662   -4.2147   21.0978 F   0  0  0  0  0  0
  -21.5628   -3.4533   25.7738 F   0  0  0  0  0  0
  -29.9804  -13.5420   20.3892 N   0  0  0  0  0  0
  -26.2923  -12.9375   20.3249 N   0  0  0  0  0  0
  -25.9315  -11.6521   20.5733 N   0  0  0  0  0  0
  -22.0475  -12.8210   22.0425 N   0  0  0  0  0  0
  -25.4180  -15.1910   20.4104 N   0  0  0  0  0  0
  -31.7912  -14.8762   20.1905 O   0  0  0  0  0  0
  -21.6638   -6.8878   21.4242 O   0  0  0  0  0  0
  -22.3516  -14.5531   20.6727 O   0  0  0  0  0  0
  -24.6325  -31.8532   23.1948 C   0  0  0  0  0  0
  -25.9138  -32.4745   23.8310 C   0  0  1  0  0  0
  -27.2257  -27.2478   20.1434 C   0  0  0  0  0  0
  -25.5922  -33.8547   24.2232 N   0  0  0  0  0  0
  -23.4307  -30.4722   21.5395 C   0  0  2  0  0  0
  -24.8794  -28.9070   20.1188 C   0  0  0  0  0  0
  -22.7510  -29.4587   22.4919 C   0  0  0  0  0  0
  -18.0295  -28.1386   22.8486 C   0  0  0  0  0  0
  -24.1491  -36.7282   23.2641 C   0  0  0  0  0  0
  -25.9767  -30.7629   21.3748 C   0  0  0  0  0  0
  -26.0518  -29.3811   20.7219 C   0  0  0  0  0  0
  -27.2314  -28.5670   20.7143 C   0  0  0  0  0  0
  -26.0299  -26.8328   19.5250 C   0  0  0  0  0  0
  -24.8735  -27.6411   19.5090 C   0  0  0  0  0  0
  -23.6510  -29.7978   20.1592 C   0  0  0  0  0  0
  -25.4119  -36.3063   24.0322 C   0  0  1  0  0  0
  -20.5899  -28.3694   23.1274 C   0  0  2  0  0  0
  -20.6783  -26.9411   22.5413 C   0  0  0  0  0  0
  -19.5759  -26.6382   21.5216 C   0  0  0  0  0  0
  -18.1939  -26.7928   22.1630 C   0  0  0  0  0  0
  -19.1549  -28.8859   23.2875 C   0  0  0  0  0  0
  -18.9467  -30.1460   23.8892 C   0  0  0  0  0  0
  -17.6464  -30.6587   24.0563 C   0  0  0  0  0  0
  -25.9059  -34.9434   23.5084 C   0  0  0  0  0  0
  -16.5357  -29.9082   23.6331 C   0  0  0  0  0  0
  -16.7281  -28.6502   23.0349 C   0  0  0  0  0  0
  -26.4493  -31.6581   25.0713 C   0  0  0  0  0  0
  -25.3705  -31.3748   26.1429 C   0  0  0  0  0  0
  -27.0338  -30.2991   24.6217 C   0  0  0  0  0  0
  -27.6046  -32.4324   25.7488 C   0  0  0  0  0  0
  -27.5580  -37.1794   24.8462 C   0  0  0  0  0  0
  -21.4217  -29.3034   22.3659 N   0  0  0  0  0  0
  -26.4292  -37.3763   23.9404 N   0  0  0  0  0  0
  -24.6992  -31.0482   22.0927 N   0  0  0  0  0  0
  -23.4202  -28.8141   23.3036 O   0  0  0  0  0  0
  -28.3294  -26.3659   20.1202 O   0  0  0  0  0  0
  -26.5646  -34.8916   22.4663 O   0  0  0  0  0  0
  -23.5471  -32.1358   23.7233 O   0  0  0  0  0  0
  -29.6878  -19.7289   20.5083 C   0  0  0  0  0  0
  -30.9356  -19.6810   21.1105 C   0  0  0  0  0  0
  -30.0574  -17.3549   20.6196 C   0  0  0  0  0  0
  -29.1065  -22.3620   20.4708 C   0  0  0  0  0  0
  -28.9413  -21.0299   20.0679 C   0  0  0  0  0  0
  -28.4658  -23.6688   19.8994 C   0  0  0  0  0  0
  -28.2258  -25.0044   20.7677 C   0  0  0  0  0  0
  -29.2086  -18.3809   20.2531 N   0  0  0  0  0  0
  -31.7742  -20.7248   21.4962 N   0  0  0  0  0  0
  -29.7626  -15.8999   20.5200 N   0  0  0  0  0  0
  -28.1188  -23.7255   18.7146 O   0  0  0  0  0  0
  -28.0489  -20.7283   19.1140 O   0  0  0  0  0  0
  -31.5270  -18.0261   21.3296 S   0  0  0  0  0  0
  -31.4776  -12.6138   19.1653 H   0  0  0  0  0  0
  -30.3949  -11.5023   19.9601 H   0  0  0  0  0  0
  -29.8029  -11.7334   17.5226 H   0  0  0  0  0  0
  -29.6271  -13.4599   17.7121 H   0  0  0  0  0  0
  -27.9085  -11.2732   18.9259 H   0  0  0  0  0  0
  -27.3792  -12.4956   17.8016 H   0  0  0  0  0  0
  -27.6246  -14.2439   19.4507 H   0  0  0  0  0  0
  -28.7309  -12.1847   21.4263 H   0  0  0  0  0  0
  -28.4157  -13.8647   21.7830 H   0  0  0  0  0  0
  -25.2760   -9.5687   22.4759 H   0  0  0  0  0  0
  -24.0003   -7.4633   22.7473 H   0  0  0  0  0  0
  -21.0842   -8.8772   19.8950 H   0  0  0  0  0  0
  -22.3697  -10.9672   19.6166 H   0  0  0  0  0  0
  -21.2011   -7.6146   23.9715 H   0  0  0  0  0  0
  -21.1485   -6.0520   25.9078 H   0  0  0  0  0  0
  -22.0597   -2.7607   23.2843 H   0  0  0  0  0  0
  -22.4094  -11.9865   22.4797 H   0  0  0  0  0  0
  -21.1096  -13.1239   22.2642 H   0  0  0  0  0  0
  -24.6432  -15.8364   20.5209 H   0  0  0  0  0  0
  -26.2503  -15.6371   20.0473 H   0  0  0  0  0  0
  -26.7206  -32.5389   23.1053 H   0  0  0  0  0  0
  -25.0033  -33.9678   25.0353 H   0  0  0  0  0  0
  -22.7279  -31.2940   21.3884 H   0  0  0  0  0  0
  -23.3752  -35.9616   23.3303 H   0  0  0  0  0  0
  -24.3579  -36.8910   22.2056 H   0  0  0  0  0  0
  -23.7250  -37.6483   23.6672 H   0  0  0  0  0  0
  -26.1150  -31.5209   20.6025 H   0  0  0  0  0  0
  -26.8538  -30.8153   22.0083 H   0  0  0  0  0  0
  -28.1359  -28.9325   21.1799 H   0  0  0  0  0  0
  -25.9881  -25.8599   19.0552 H   0  0  0  0  0  0
  -23.9750  -27.2708   19.0346 H   0  0  0  0  0  0
  -23.7788  -30.5699   19.3997 H   0  0  0  0  0  0
  -22.7692  -29.2313   19.8548 H   0  0  0  0  0  0
  -25.1305  -36.1904   25.0816 H   0  0  0  0  0  0
  -20.9993  -28.3272   24.1394 H   0  0  0  0  0  0
  -20.5685  -26.2303   23.3618 H   0  0  0  0  0  0
  -21.6650  -26.7435   22.1205 H   0  0  0  0  0  0
  -19.6920  -25.6293   21.1247 H   0  0  0  0  0  0
  -19.6696  -27.3193   20.6746 H   0  0  0  0  0  0
  -17.4209  -26.6674   21.4032 H   0  0  0  0  0  0
  -18.0340  -26.0072   22.9030 H   0  0  0  0  0  0
  -19.7942  -30.7279   24.2257 H   0  0  0  0  0  0
  -17.5016  -31.6264   24.5169 H   0  0  0  0  0  0
  -15.5356  -30.2977   23.7657 H   0  0  0  0  0  0
  -15.8686  -28.0817   22.7060 H   0  0  0  0  0  0
  -24.5859  -30.7128   25.7746 H   0  0  0  0  0  0
  -24.8922  -32.2929   26.4852 H   0  0  0  0  0  0
  -25.8002  -30.8908   27.0209 H   0  0  0  0  0  0
  -26.2924  -29.6737   24.1231 H   0  0  0  0  0  0
  -27.3993  -29.7261   25.4750 H   0  0  0  0  0  0
  -27.8813  -30.4253   23.9476 H   0  0  0  0  0  0
  -27.2650  -33.3625   26.2056 H   0  0  0  0  0  0
  -28.3858  -32.6884   25.0318 H   0  0  0  0  0  0
  -28.0711  -31.8455   26.5410 H   0  0  0  0  0  0
  -28.2593  -38.0095   24.7510 H   0  0  0  0  0  0
  -28.1081  -36.2626   24.6286 H   0  0  0  0  0  0
  -27.2301  -37.1442   25.8866 H   0  0  0  0  0  0
  -20.9413  -29.8730   21.6834 H   0  0  0  0  0  0
  -26.0169  -38.2837   24.1402 H   0  0  0  0  0  0
  -29.8012  -22.5422   21.2767 H   0  0  0  0  0  0
  -28.9453  -24.9872   21.5858 H   0  0  0  0  0  0
  -27.2469  -24.9136   21.2390 H   0  0  0  0  0  0
  -31.6570  -21.6737   21.1565 H   0  0  0  0  0  0
  -32.7190  -20.5554   21.8301 H   0  0  0  0  0  0
  -28.7817  -15.6781   20.5100 H   0  0  0  0  0  0
  -28.0791  -19.7810   19.0184 H   0  0  0  0  0  0
  1 25  1  0  0  0
  1 30  2  0  0  0
  1 80  1  0  0  0
  2  3  1  0  0  0
  2 25  1  0  0  0
  2 84  1  0  0  0
  2 85  1  0  0  0
  3  4  1  0  0  0
  3 86  1  0  0  0
  3 87  1  0  0  0
  4  5  1  0  0  0
  4 88  1  0  0  0
  4 89  1  0  0  0
  5  6  1  0  0  0
  5 26  1  0  0  0
  5 90  1  0  0  0
  6 25  1  0  0  0
  6 91  1  0  0  0
  6 92  1  0  0  0
  7  8  2  0  0  0
  7 26  1  0  0  0
  7 29  1  0  0  0
  8  9  1  0  0  0
  8 22  1  0  0  0
  9 10  1  0  0  0
  9 27  2  0  0  0
 10 11  2  0  0  0
 10 15  1  0  0  0
 11 12  1  0  0  0
 11 93  1  0  0  0
 12 13  2  0  0  0
 12 94  1  0  0  0
 13 14  1  0  0  0
 13 31  1  0  0  0
 14 15  2  0  0  0
 14 95  1  0  0  0
 15 96  1  0  0  0
 16 17  2  0  0  0
 16 21  1  0  0  0
 16 31  1  0  0  0
 17 18  1  0  0  0
 17 97  1  0  0  0
 18 19  2  0  0  0
 18 98  1  0  0  0
 19 20  1  0  0  0
 19 24  1  0  0  0
 20 21  2  0  0  0
 20 99  1  0  0  0
 21 23  1  0  0  0
 22 28  1  0  0  0
 22 32  2  0  0  0
 26 27  1  0  0  0
 28100  1  0  0  0
 28101  1  0  0  0
 29102  1  0  0  0
 29103  1  0  0  0
 33 34  1  0  0  0
 33 66  1  0  0  0
 33 70  2  0  0  0
 34 36  1  0  0  0
 34 59  1  0  0  0
 34104  1  0  0  0
 35 44  2  0  0  0
 35 45  1  0  0  0
 35 68  1  0  0  0
 36 56  1  0  0  0
 36105  1  0  0  0
 37 39  1  0  0  0
 37 47  1  0  0  0
 37 66  1  0  0  0
 37106  1  0  0  0
 38 43  2  0  0  0
 38 46  1  0  0  0
 38 47  1  0  0  0
 39 64  1  0  0  0
 39 67  2  0  0  0
 40 52  1  0  0  0
 40 53  2  0  0  0
 40 58  1  0  0  0
 41107  1  0  0  0
 41108  1  0  0  0
 41109  1  0  0  0
 41 48  1  0  0  0
 42 43  1  0  0  0
 42 66  1  0  0  0
 42110  1  0  0  0
 42111  1  0  0  0
 43 44  1  0  0  0
 44112  1  0  0  0
 45 46  2  0  0  0
 45113  1  0  0  0
 46114  1  0  0  0
 47115  1  0  0  0
 47116  1  0  0  0
 48 56  1  0  0  0
 48 65  1  0  0  0
 48117  1  0  0  0
 49 50  1  0  0  0
 49 53  1  0  0  0
 49 64  1  0  0  0
 49118  1  0  0  0
 50 51  1  0  0  0
 50119  1  0  0  0
 50120  1  0  0  0
 51 52  1  0  0  0
 51121  1  0  0  0
 51122  1  0  0  0
 52123  1  0  0  0
 52124  1  0  0  0
 53 54  1  0  0  0
 54 55  2  0  0  0
 54125  1  0  0  0
 55 57  1  0  0  0
 55126  1  0  0  0
 56 69  2  0  0  0
 57 58  2  0  0  0
 57127  1  0  0  0
 58128  1  0  0  0
 59 60  1  0  0  0
 59 61  1  0  0  0
 59 62  1  0  0  0
 60129  1  0  0  0
 60130  1  0  0  0
 60131  1  0  0  0
 61132  1  0  0  0
 61133  1  0  0  0
 61134  1  0  0  0
 62135  1  0  0  0
 62136  1  0  0  0
 62137  1  0  0  0
 63 65  1  0  0  0
 63138  1  0  0  0
 63139  1  0  0  0
 63140  1  0  0  0
 64141  1  0  0  0
 65142  1  0  0  0
 68 77  1  0  0  0
 71 72  2  0  0  0
 71 75  1  0  0  0
 71 78  1  0  0  0
 72 79  1  0  0  0
 72 83  1  0  0  0
 73 78  2  0  0  0
 73 80  1  0  0  0
 73 83  1  0  0  0
 74 75  2  0  0  0
 74 76  1  0  0  0
 74143  1  0  0  0
 75 82  1  0  0  0
 76 77  1  0  0  0
 76 81  2  0  0  0
 77144  1  0  0  0
 77145  1  0  0  0
 79146  1  0  0  0
 79147  1  0  0  0
 80148  1  0  0  0
 82149  1  0  0  0
M  ISO  4   1 100  68 101  77 101  80 100
M  END
> <chiral flag>
0

> <version>
0

> <s_m_source_file>
/data/baiqing/PycharmProjects/Reinvent-master-3.2/result/LINK_invent/BTK/process_docking_weight1_custom_product_contain_oxygen_bond_distance_aromatic_linkinvent_7_9_3/rearranged_h_0182.sdf

> <i_m_source_file_index>
72

> <r_mmod_Potential_Energy-OPLS-2005>
174.999984741211

> <r_mmod_Stretch_Energy-OPLS-2005>
133.935699462891

> <r_mmod_Bend_Energy-OPLS-2005>
167.990432739258

> <r_mmod_Torsional_Energy-OPLS-2005>
237.540557861328

> <r_mmod_Improper_Torsional_Energy-OPLS-2005>
8.78508758544922

> <r_mmod_Van_der_Waal_Energy-OPLS-2005>
112.432525634766

> <r_mmod_Electrostatic_Energy-OPLS-2005>
-328.529968261719

> <r_mmod_Solvation_Energy-OPLS-2005>
-253.002716064453

> <b_mmod_Minimization_Converged-OPLS-2005>
0

> <r_mmod_RMS_Derivative-OPLS-2005>
0.736033976078033

$$$$
72
                    3D
 Structure written by MMmdl.
153161  0  0  1  0            999 V2000
  -30.5505  -14.8117   20.4246 C   0  0  0  0  0  0
  -30.4503  -12.4977   19.4571 C   0  0  0  0  0  0
  -29.5159  -12.5117   18.2259 C   0  0  0  0  0  0
  -28.0429  -12.3244   18.6450 C   0  0  0  0  0  0
  -27.6369  -13.2287   19.8381 C   0  0  2  0  0  0
  -28.6880  -13.1786   20.9674 C   0  0  0  0  0  0
  -25.2497  -13.8157   20.5665 C   0  0  0  0  0  0
  -24.1788  -13.0424   20.9212 C   0  0  0  0  0  0
  -24.6358  -11.6896   20.8730 C   0  0  0  0  0  0
  -23.9036  -10.4286   21.0405 C   0  0  0  0  0  0
  -24.3584   -9.4214   21.9184 C   0  0  0  0  0  0
  -23.6275   -8.2235   22.0743 C   0  0  0  0  0  0
  -22.4263   -8.0261   21.3528 C   0  0  0  0  0  0
  -21.9892   -9.0237   20.4641 C   0  0  0  0  0  0
  -22.7204  -10.2129   20.3055 C   0  0  0  0  0  0
  -21.6853   -6.0712   22.5277 C   0  0  0  0  0  0
  -21.4008   -6.5622   23.8208 C   0  0  0  0  0  0
  -21.3663   -5.6775   24.9174 C   0  0  0  0  0  0
  -21.6052   -4.3035   24.7222 C   0  0  0  0  0  0
  -21.8822   -3.8127   23.4341 C   0  0  0  0  0  0
  -21.9188   -4.6939   22.3404 C   0  0  0  0  0  0
  -22.7813  -13.5226   21.1877 C   0  0  0  0  0  0
  -22.1664   -4.2131   21.0968 F   0  0  0  0  0  0
  -21.5646   -3.4523   25.7728 F   0  0  0  0  0  0
  -29.9784  -13.5579   20.3729 N   0  0  0  0  0  0
  -26.2902  -12.9353   20.3194 N   0  0  0  0  0  0
  -25.9283  -11.6514   20.5677 N   0  0  0  0  0  0
  -22.0440  -12.8233   22.0428 N   0  0  0  0  0  0
  -25.4158  -15.1884   20.4061 N   0  0  0  0  0  0
  -31.7644  -14.9389   20.2263 O   0  0  0  0  0  0
  -21.6629   -6.8849   21.4225 O   0  0  0  0  0  0
  -22.3517  -14.5540   20.6727 O   0  0  0  0  0  0
  -24.6332  -31.8525   23.1956 C   0  0  0  0  0  0
  -25.9133  -32.4736   23.8318 C   0  0  1  0  0  0
  -27.2220  -27.2298   20.1376 C   0  0  0  0  0  0
  -25.5907  -33.8542   24.2231 N   0  0  0  0  0  0
  -23.4328  -30.4757   21.5396 C   0  0  2  0  0  0
  -24.8831  -28.9165   20.1152 C   0  0  0  0  0  0
  -22.7526  -29.4588   22.4894 C   0  0  0  0  0  0
  -18.0301  -28.1397   22.8496 C   0  0  0  0  0  0
  -24.1485  -36.7273   23.2635 C   0  0  0  0  0  0
  -25.9825  -30.7538   21.3827 C   0  0  0  0  0  0
  -26.0567  -29.3746   20.7256 C   0  0  0  0  0  0
  -27.2298  -28.5464   20.7223 C   0  0  0  0  0  0
  -26.0244  -26.8525   19.4881 C   0  0  0  0  0  0
  -24.8728  -27.6646   19.4838 C   0  0  0  0  0  0
  -23.6543  -29.8078   20.1575 C   0  0  0  0  0  0
  -25.4115  -36.3068   24.0323 C   0  0  1  0  0  0
  -20.5913  -28.3701   23.1269 C   0  0  2  0  0  0
  -20.6788  -26.9415   22.5421 C   0  0  0  0  0  0
  -19.5758  -26.6395   21.5226 C   0  0  0  0  0  0
  -18.1942  -26.7944   22.1638 C   0  0  0  0  0  0
  -19.1559  -28.8864   23.2878 C   0  0  0  0  0  0
  -18.9472  -30.1465   23.8897 C   0  0  0  0  0  0
  -17.6471  -30.6598   24.0567 C   0  0  0  0  0  0
  -25.9062  -34.9427   23.5090 C   0  0  0  0  0  0
  -16.5361  -29.9102   23.6335 C   0  0  0  0  0  0
  -16.7290  -28.6516   23.0371 C   0  0  0  0  0  0
  -26.4475  -31.6594   25.0740 C   0  0  0  0  0  0
  -25.3657  -31.3795   26.1447 C   0  0  0  0  0  0
  -27.0306  -30.2993   24.6265 C   0  0  0  0  0  0
  -27.6036  -32.4336   25.7506 C   0  0  0  0  0  0
  -27.5591  -37.1800   24.8458 C   0  0  0  0  0  0
  -21.4228  -29.3040   22.3645 N   0  0  0  0  0  0
  -26.4281  -37.3785   23.9416 N   0  0  0  0  0  0
  -24.7017  -31.0458   22.0948 N   0  0  0  0  0  0
  -23.4215  -28.8115   23.2994 O   0  0  0  0  0  0
  -28.3043  -26.3057   20.1646 O   0  0  0  0  0  0
  -26.5658  -34.8907   22.4678 O   0  0  0  0  0  0
  -23.5465  -32.1385   23.7206 O   0  0  0  0  0  0
  -29.3756  -19.6831   20.6621 C   0  0  0  0  0  0
  -28.6821  -19.4370   21.8244 C   0  0  0  0  0  0
  -29.6304  -17.3045   20.7766 C   0  0  0  0  0  0
  -29.6141  -21.1026   20.0953 C   0  0  0  0  0  0
  -29.0689  -23.7026   20.0484 C   0  0  0  0  0  0
  -27.8918  -24.8234   22.0727 C   0  0  0  0  0  0
  -28.0361  -24.8498   20.5404 C   0  0  1  0  0  0
  -29.8912  -18.4597   20.0553 N   0  0  0  0  0  0
  -28.0129  -20.3497   22.6425 N   0  0  0  0  0  0
  -29.6659  -15.8845   20.3271 N   0  0  0  0  0  0
  -28.8901  -22.2547   20.4591 N   0  0  0  0  0  0
  -30.6257  -21.1902   19.2135 N   0  3  0  0  0  0
  -30.0122  -24.0017   19.3039 O   0  0  0  0  0  0
  -28.6798  -17.7174   22.2214 S   0  0  0  0  0  0
  -31.4861  -12.6600   19.1503 H   0  0  0  0  0  0
  -30.4317  -11.5247   19.9494 H   0  0  0  0  0  0
  -29.8094  -11.7359   17.5180 H   0  0  0  0  0  0
  -29.6247  -13.4608   17.6982 H   0  0  0  0  0  0
  -27.9049  -11.2766   18.9119 H   0  0  0  0  0  0
  -27.3839  -12.5072   17.7950 H   0  0  0  0  0  0
  -27.6167  -14.2441   19.4430 H   0  0  0  0  0  0
  -28.7397  -12.1815   21.4056 H   0  0  0  0  0  0
  -28.4169  -13.8563   21.7809 H   0  0  0  0  0  0
  -25.2738   -9.5711   22.4747 H   0  0  0  0  0  0
  -24.0011   -7.4618   22.7445 H   0  0  0  0  0  0
  -21.0839   -8.8725   19.8942 H   0  0  0  0  0  0
  -22.3639  -10.9642   19.6154 H   0  0  0  0  0  0
  -21.1988   -7.6135   23.9705 H   0  0  0  0  0  0
  -21.1502   -6.0501   25.9071 H   0  0  0  0  0  0
  -22.0600   -2.7590   23.2830 H   0  0  0  0  0  0
  -22.4035  -11.9907   22.4868 H   0  0  0  0  0  0
  -21.1044  -13.1253   22.2585 H   0  0  0  0  0  0
  -24.6355  -15.8279   20.5113 H   0  0  0  0  0  0
  -26.2277  -15.6242   19.9922 H   0  0  0  0  0  0
  -26.7170  -32.5392   23.1027 H   0  0  0  0  0  0
  -24.9991  -33.9660   25.0332 H   0  0  0  0  0  0
  -22.7316  -31.3001   21.3914 H   0  0  0  0  0  0
  -23.3765  -35.9590   23.3280 H   0  0  0  0  0  0
  -24.3568  -36.8930   22.2055 H   0  0  0  0  0  0
  -23.7219  -37.6450   23.6686 H   0  0  0  0  0  0
  -26.1316  -31.5089   20.6112 H   0  0  0  0  0  0
  -26.8534  -30.7997   22.0230 H   0  0  0  0  0  0
  -28.1277  -28.8951   21.2114 H   0  0  0  0  0  0
  -25.9562  -25.9076   18.9718 H   0  0  0  0  0  0
  -23.9763  -27.3168   18.9877 H   0  0  0  0  0  0
  -23.7814  -30.5826   19.3992 H   0  0  0  0  0  0
  -22.7714  -29.2425   19.8511 H   0  0  0  0  0  0
  -25.1298  -36.1902   25.0816 H   0  0  0  0  0  0
  -21.0026  -28.3271   24.1383 H   0  0  0  0  0  0
  -20.5687  -26.2317   23.3634 H   0  0  0  0  0  0
  -21.6659  -26.7458   22.1212 H   0  0  0  0  0  0
  -19.6920  -25.6309   21.1254 H   0  0  0  0  0  0
  -19.6660  -27.3205   20.6749 H   0  0  0  0  0  0
  -17.4220  -26.6709   21.4025 H   0  0  0  0  0  0
  -18.0296  -26.0088   22.9027 H   0  0  0  0  0  0
  -19.7938  -30.7281   24.2278 H   0  0  0  0  0  0
  -17.5028  -31.6279   24.5168 H   0  0  0  0  0  0
  -15.5366  -30.3012   23.7643 H   0  0  0  0  0  0
  -15.8697  -28.0831   22.7096 H   0  0  0  0  0  0
  -24.5801  -30.7176   25.7774 H   0  0  0  0  0  0
  -24.8853  -32.2985   26.4831 H   0  0  0  0  0  0
  -25.7919  -30.8991   27.0266 H   0  0  0  0  0  0
  -26.2903  -29.6767   24.1225 H   0  0  0  0  0  0
  -27.3886  -29.7240   25.4816 H   0  0  0  0  0  0
  -27.8838  -30.4240   23.9588 H   0  0  0  0  0  0
  -27.2653  -33.3638   26.2084 H   0  0  0  0  0  0
  -28.3845  -32.6910   25.0334 H   0  0  0  0  0  0
  -28.0717  -31.8465   26.5421 H   0  0  0  0  0  0
  -28.2606  -38.0107   24.7563 H   0  0  0  0  0  0
  -28.1092  -36.2654   24.6216 H   0  0  0  0  0  0
  -27.2319  -37.1380   25.8860 H   0  0  0  0  0  0
  -20.9428  -29.8754   21.6833 H   0  0  0  0  0  0
  -26.0156  -38.2847   24.1448 H   0  0  0  0  0  0
  -27.6654  -23.8264   22.4547 H   0  0  0  0  0  0
  -27.0872  -25.4809   22.4008 H   0  0  0  0  0  0
  -28.8089  -25.1677   22.5517 H   0  0  0  0  0  0
  -27.0884  -24.5325   20.1098 H   0  0  0  0  0  0
  -27.0566  -20.0450   22.8149 H   0  0  0  0  0  0
  -28.4295  -20.3569   23.5718 H   0  0  0  0  0  0
  -28.7331  -15.5110   20.2637 H   0  0  0  0  0  0
  -28.1753  -21.9962   21.1280 H   0  0  0  0  0  0
  -31.1339  -20.3473   18.9843 H   0  0  0  0  0  0
  -30.9008  -22.0744   18.8081 H   0  0  0  0  0  0
  1 25  1  0  0  0
  1 30  2  0  0  0
  1 80  1  0  0  0
  2  3  1  0  0  0
  2 25  1  0  0  0
  2 85  1  0  0  0
  2 86  1  0  0  0
  3  4  1  0  0  0
  3 87  1  0  0  0
  3 88  1  0  0  0
  4  5  1  0  0  0
  4 89  1  0  0  0
  4 90  1  0  0  0
  5  6  1  0  0  0
  5 26  1  0  0  0
  5 91  1  0  0  0
  6 25  1  0  0  0
  6 92  1  0  0  0
  6 93  1  0  0  0
  7  8  2  0  0  0
  7 26  1  0  0  0
  7 29  1  0  0  0
  8  9  1  0  0  0
  8 22  1  0  0  0
  9 10  1  0  0  0
  9 27  2  0  0  0
 10 11  2  0  0  0
 10 15  1  0  0  0
 11 12  1  0  0  0
 11 94  1  0  0  0
 12 13  2  0  0  0
 12 95  1  0  0  0
 13 14  1  0  0  0
 13 31  1  0  0  0
 14 15  2  0  0  0
 14 96  1  0  0  0
 15 97  1  0  0  0
 16 17  2  0  0  0
 16 21  1  0  0  0
 16 31  1  0  0  0
 17 18  1  0  0  0
 17 98  1  0  0  0
 18 19  2  0  0  0
 18 99  1  0  0  0
 19 20  1  0  0  0
 19 24  1  0  0  0
 20 21  2  0  0  0
 20100  1  0  0  0
 21 23  1  0  0  0
 22 28  1  0  0  0
 22 32  2  0  0  0
 26 27  1  0  0  0
 28101  1  0  0  0
 28102  1  0  0  0
 29103  1  0  0  0
 29104  1  0  0  0
 33 34  1  0  0  0
 33 66  1  0  0  0
 33 70  2  0  0  0
 34 36  1  0  0  0
 34 59  1  0  0  0
 34105  1  0  0  0
 35 44  2  0  0  0
 35 45  1  0  0  0
 35 68  1  0  0  0
 36 56  1  0  0  0
 36106  1  0  0  0
 37 39  1  0  0  0
 37 47  1  0  0  0
 37 66  1  0  0  0
 37107  1  0  0  0
 38 43  2  0  0  0
 38 46  1  0  0  0
 38 47  1  0  0  0
 39 64  1  0  0  0
 39 67  2  0  0  0
 40 52  1  0  0  0
 40 53  2  0  0  0
 40 58  1  0  0  0
 41108  1  0  0  0
 41109  1  0  0  0
 41110  1  0  0  0
 41 48  1  0  0  0
 42 43  1  0  0  0
 42 66  1  0  0  0
 42111  1  0  0  0
 42112  1  0  0  0
 43 44  1  0  0  0
 44113  1  0  0  0
 45 46  2  0  0  0
 45114  1  0  0  0
 46115  1  0  0  0
 47116  1  0  0  0
 47117  1  0  0  0
 48 56  1  0  0  0
 48 65  1  0  0  0
 48118  1  0  0  0
 49 50  1  0  0  0
 49 53  1  0  0  0
 49 64  1  0  0  0
 49119  1  0  0  0
 50 51  1  0  0  0
 50120  1  0  0  0
 50121  1  0  0  0
 51 52  1  0  0  0
 51122  1  0  0  0
 51123  1  0  0  0
 52124  1  0  0  0
 52125  1  0  0  0
 53 54  1  0  0  0
 54 55  2  0  0  0
 54126  1  0  0  0
 55 57  1  0  0  0
 55127  1  0  0  0
 56 69  2  0  0  0
 57 58  2  0  0  0
 57128  1  0  0  0
 58129  1  0  0  0
 59 60  1  0  0  0
 59 61  1  0  0  0
 59 62  1  0  0  0
 60130  1  0  0  0
 60131  1  0  0  0
 60132  1  0  0  0
 61133  1  0  0  0
 61134  1  0  0  0
 61135  1  0  0  0
 62136  1  0  0  0
 62137  1  0  0  0
 62138  1  0  0  0
 63 65  1  0  0  0
 63139  1  0  0  0
 63140  1  0  0  0
 63141  1  0  0  0
 64142  1  0  0  0
 65143  1  0  0  0
 68 77  1  0  0  0
 71 72  2  0  0  0
 71 74  1  0  0  0
 71 78  1  0  0  0
 72 79  1  0  0  0
 72 84  1  0  0  0
 73 78  2  0  0  0
 73 80  1  0  0  0
 73 84  1  0  0  0
 74 81  1  0  0  0
 74 82  2  0  0  0
 75 77  1  0  0  0
 75 81  1  0  0  0
 75 83  2  0  0  0
 76144  1  0  0  0
 76145  1  0  0  0
 76146  1  0  0  0
 76 77  1  0  0  0
 77147  1  0  0  0
 79148  1  0  0  0
 79149  1  0  0  0
 80150  1  0  0  0
 81151  1  0  0  0
 82152  1  0  0  0
 82153  1  0  0  0
M  CHG  1  82   1
M  ISO  4   1 100  68 101  77 101  80 100
M  END
> <chiral flag>
0

> <version>
0

> <s_m_source_file>
/data/baiqing/PycharmProjects/Reinvent-master-3.2/result/LINK_invent/BTK/process_docking_weight1_custom_product_contain_oxygen_bond_distance_aromatic_linkinvent_7_9_3/rearranged_h_0182.sdf

> <i_m_source_file_index>
73

> <r_mmod_Potential_Energy-OPLS-2005>
53.528865814209

> <r_mmod_Stretch_Energy-OPLS-2005>
145.074401855469

> <r_mmod_Bend_Energy-OPLS-2005>
200.145263671875

> <r_mmod_Torsional_Energy-OPLS-2005>
277.614685058594

> <r_mmod_Improper_Torsional_Energy-OPLS-2005>
22.5041942596436

> <r_mmod_Van_der_Waal_Energy-OPLS-2005>
116.978363037109

> <r_mmod_Electrostatic_Energy-OPLS-2005>
-352.824768066406

> <r_mmod_Solvation_Energy-OPLS-2005>
-472.269989013672

> <b_mmod_Minimization_Converged-OPLS-2005>
0

> <r_mmod_RMS_Derivative-OPLS-2005>
3.47736263275146

$$$$
73
                    3D
 Structure written by MMmdl.
153161  0  0  1  0            999 V2000
  -30.6097  -14.7612   20.4677 C   0  0  0  0  0  0
  -30.4358  -12.4712   19.4661 C   0  0  0  0  0  0
  -29.5116  -12.5032   18.2293 C   0  0  0  0  0  0
  -28.0396  -12.3203   18.6474 C   0  0  0  0  0  0
  -27.6379  -13.2313   19.8395 C   0  0  2  0  0  0
  -28.6829  -13.1777   20.9755 C   0  0  0  0  0  0
  -25.2502  -13.8183   20.5681 C   0  0  0  0  0  0
  -24.1792  -13.0423   20.9207 C   0  0  0  0  0  0
  -24.6386  -11.6909   20.8740 C   0  0  0  0  0  0
  -23.9060  -10.4289   21.0408 C   0  0  0  0  0  0
  -24.3616   -9.4204   21.9179 C   0  0  0  0  0  0
  -23.6293   -8.2237   22.0748 C   0  0  0  0  0  0
  -22.4272   -8.0283   21.3549 C   0  0  0  0  0  0
  -21.9910   -9.0246   20.4645 C   0  0  0  0  0  0
  -22.7235  -10.2129   20.3056 C   0  0  0  0  0  0
  -21.6848   -6.0739   22.5279 C   0  0  0  0  0  0
  -21.4008   -6.5636   23.8212 C   0  0  0  0  0  0
  -21.3662   -5.6791   24.9172 C   0  0  0  0  0  0
  -21.6047   -4.3052   24.7222 C   0  0  0  0  0  0
  -21.8818   -3.8150   23.4337 C   0  0  0  0  0  0
  -21.9186   -4.6967   22.3402 C   0  0  0  0  0  0
  -22.7817  -13.5223   21.1858 C   0  0  0  0  0  0
  -22.1659   -4.2156   21.0975 F   0  0  0  0  0  0
  -21.5629   -3.4534   25.7730 F   0  0  0  0  0  0
  -29.9789  -13.5379   20.3873 N   0  0  0  0  0  0
  -26.2913  -12.9387   20.3209 N   0  0  0  0  0  0
  -25.9315  -11.6530   20.5719 N   0  0  0  0  0  0
  -22.0453  -12.8229   22.0422 N   0  0  0  0  0  0
  -25.4173  -15.1904   20.4120 N   0  0  0  0  0  0
  -31.8045  -14.8410   20.1678 O   0  0  0  0  0  0
  -21.6633   -6.8881   21.4250 O   0  0  0  0  0  0
  -22.3518  -14.5526   20.6691 O   0  0  0  0  0  0
  -24.6319  -31.8574   23.1984 C   0  0  0  0  0  0
  -25.9147  -32.4772   23.8331 C   0  0  1  0  0  0
  -27.2195  -27.2568   20.1262 C   0  0  0  0  0  0
  -25.5947  -33.8564   24.2268 N   0  0  0  0  0  0
  -23.4284  -30.4810   21.5425 C   0  0  2  0  0  0
  -24.8774  -28.9324   20.1077 C   0  0  0  0  0  0
  -22.7506  -29.4628   22.4916 C   0  0  0  0  0  0
  -18.0306  -28.1379   22.8491 C   0  0  0  0  0  0
  -24.1495  -36.7284   23.2638 C   0  0  0  0  0  0
  -25.9758  -30.7702   21.3786 C   0  0  0  0  0  0
  -26.0497  -29.3912   20.7211 C   0  0  0  0  0  0
  -27.2235  -28.5668   20.7201 C   0  0  0  0  0  0
  -26.0238  -26.8800   19.4684 C   0  0  0  0  0  0
  -24.8725  -27.6868   19.4658 C   0  0  0  0  0  0
  -23.6469  -29.8171   20.1577 C   0  0  0  0  0  0
  -25.4122  -36.3079   24.0331 C   0  0  1  0  0  0
  -20.5909  -28.3695   23.1277 C   0  0  2  0  0  0
  -20.6779  -26.9413   22.5396 C   0  0  0  0  0  0
  -19.5754  -26.6381   21.5202 C   0  0  0  0  0  0
  -18.1941  -26.7924   22.1619 C   0  0  0  0  0  0
  -19.1554  -28.8856   23.2884 C   0  0  0  0  0  0
  -18.9466  -30.1452   23.8907 C   0  0  0  0  0  0
  -17.6463  -30.6585   24.0563 C   0  0  0  0  0  0
  -25.9060  -34.9448   23.5102 C   0  0  0  0  0  0
  -16.5362  -29.9074   23.6327 C   0  0  0  0  0  0
  -16.7291  -28.6486   23.0367 C   0  0  0  0  0  0
  -26.4500  -31.6584   25.0712 C   0  0  0  0  0  0
  -25.3731  -31.3708   26.1434 C   0  0  0  0  0  0
  -27.0338  -30.3011   24.6170 C   0  0  0  0  0  0
  -27.6072  -32.4298   25.7488 C   0  0  0  0  0  0
  -27.5588  -37.1799   24.8466 C   0  0  0  0  0  0
  -21.4213  -29.3061   22.3667 N   0  0  0  0  0  0
  -26.4300  -37.3775   23.9413 N   0  0  0  0  0  0
  -24.6980  -31.0540   22.0968 N   0  0  0  0  0  0
  -23.4206  -28.8182   23.3031 O   0  0  0  0  0  0
  -28.2948  -26.3326   20.1982 O   0  0  0  0  0  0
  -26.5618  -34.8916   22.4663 O   0  0  0  0  0  0
  -23.5468  -32.1390   23.7294 O   0  0  0  0  0  0
  -31.1718  -17.6735   21.7845 C   0  0  0  0  0  0
  -30.1815  -17.3298   20.8854 C   0  0  0  0  0  0
  -30.0028  -19.7226   20.8701 C   0  0  0  0  0  0
  -28.9792  -23.7142   20.4198 C   0  0  0  0  0  0
  -32.0338  -16.7871   22.6255 C   0  0  0  0  0  0
  -27.2551  -21.7647   20.5197 C   0  0  0  0  0  0
  -27.9789  -24.8766   19.9413 C   0  0  0  0  0  0
  -28.6894  -22.1310   20.1015 C   0  0  2  0  0  0
  -29.4887  -18.5266   20.4140 N   0  0  0  0  0  0
  -29.8282  -15.9043   20.6299 N   0  0  0  0  0  0
  -29.6592  -21.1224   20.6851 N   0  0  0  0  0  0
  -29.9942  -24.0288   21.0482 O   0  0  0  0  0  0
  -31.3602  -19.4123   21.9481 S   0  0  0  0  0  0
  -31.4755  -12.6063   19.1592 H   0  0  0  0  0  0
  -30.3925  -11.4991   19.9598 H   0  0  0  0  0  0
  -29.8024  -11.7238   17.5233 H   0  0  0  0  0  0
  -29.6265  -13.4516   17.7044 H   0  0  0  0  0  0
  -27.9099  -11.2746   18.9273 H   0  0  0  0  0  0
  -27.3786  -12.4914   17.7966 H   0  0  0  0  0  0
  -27.6252  -14.2480   19.4461 H   0  0  0  0  0  0
  -28.7255  -12.1811   21.4148 H   0  0  0  0  0  0
  -28.4118  -13.8593   21.7846 H   0  0  0  0  0  0
  -25.2765   -9.5674   22.4740 H   0  0  0  0  0  0
  -24.0000   -7.4635   22.7468 H   0  0  0  0  0  0
  -21.0838   -8.8769   19.8955 H   0  0  0  0  0  0
  -22.3699  -10.9663   19.6158 H   0  0  0  0  0  0
  -21.2003   -7.6146   23.9717 H   0  0  0  0  0  0
  -21.1485   -6.0517   25.9075 H   0  0  0  0  0  0
  -22.0599   -2.7614   23.2828 H   0  0  0  0  0  0
  -22.4073  -11.9910   22.4844 H   0  0  0  0  0  0
  -21.1062  -13.1252   22.2585 H   0  0  0  0  0  0
  -24.6437  -15.8363   20.5238 H   0  0  0  0  0  0
  -26.2506  -15.6356   20.0515 H   0  0  0  0  0  0
  -26.7226  -32.5427   23.1083 H   0  0  0  0  0  0
  -25.0128  -33.9675   25.0435 H   0  0  0  0  0  0
  -22.7240  -31.3035   21.3981 H   0  0  0  0  0  0
  -23.3762  -35.9614   23.3304 H   0  0  0  0  0  0
  -24.3600  -36.8890   22.2055 H   0  0  0  0  0  0
  -23.7218  -37.6475   23.6655 H   0  0  0  0  0  0
  -26.1141  -31.5323   20.6089 H   0  0  0  0  0  0
  -26.8523  -30.8241   22.0130 H   0  0  0  0  0  0
  -28.1156  -28.9166   21.2204 H   0  0  0  0  0  0
  -25.9390  -25.9352   18.9531 H   0  0  0  0  0  0
  -23.9811  -27.3343   18.9653 H   0  0  0  0  0  0
  -23.7673  -30.5938   19.4013 H   0  0  0  0  0  0
  -22.7643  -29.2502   19.8560 H   0  0  0  0  0  0
  -25.1302  -36.1935   25.0823 H   0  0  0  0  0  0
  -21.0015  -28.3258   24.1396 H   0  0  0  0  0  0
  -20.5653  -26.2309   23.3597 H   0  0  0  0  0  0
  -21.6645  -26.7415   22.1204 H   0  0  0  0  0  0
  -19.6899  -25.6288   21.1235 H   0  0  0  0  0  0
  -19.6677  -27.3185   20.6727 H   0  0  0  0  0  0
  -17.4196  -26.6689   21.4034 H   0  0  0  0  0  0
  -18.0349  -26.0057   22.9008 H   0  0  0  0  0  0
  -19.7941  -30.7272   24.2272 H   0  0  0  0  0  0
  -17.5016  -31.6265   24.5159 H   0  0  0  0  0  0
  -15.5354  -30.2981   23.7636 H   0  0  0  0  0  0
  -15.8695  -28.0791   22.7102 H   0  0  0  0  0  0
  -24.5927  -30.7038   25.7751 H   0  0  0  0  0  0
  -24.8889  -32.2862   26.4856 H   0  0  0  0  0  0
  -25.8055  -30.8881   27.0210 H   0  0  0  0  0  0
  -26.2905  -29.6774   24.1187 H   0  0  0  0  0  0
  -27.4038  -29.7256   25.4663 H   0  0  0  0  0  0
  -27.8787  -30.4306   23.9401 H   0  0  0  0  0  0
  -27.2716  -33.3612   26.2062 H   0  0  0  0  0  0
  -28.3894  -32.6819   25.0318 H   0  0  0  0  0  0
  -28.0740  -31.8410   26.5393 H   0  0  0  0  0  0
  -28.2597  -38.0102   24.7537 H   0  0  0  0  0  0
  -28.1085  -36.2635   24.6275 H   0  0  0  0  0  0
  -27.2314  -37.1437   25.8865 H   0  0  0  0  0  0
  -20.9394  -29.8790   21.6875 H   0  0  0  0  0  0
  -26.0183  -38.2854   24.1403 H   0  0  0  0  0  0
  -31.4802  -15.9209   22.9870 H   0  0  0  0  0  0
  -32.4039  -17.3173   23.5026 H   0  0  0  0  0  0
  -32.8984  -16.4369   22.0637 H   0  0  0  0  0  0
  -27.1372  -21.7610   21.6039 H   0  0  0  0  0  0
  -26.9824  -20.7752   20.1521 H   0  0  0  0  0  0
  -26.5198  -22.4588   20.1094 H   0  0  0  0  0  0
  -27.8109  -24.7401   18.8723 H   0  0  0  0  0  0
  -27.0316  -24.6645   20.4371 H   0  0  0  0  0  0
  -28.7486  -22.0224   19.0175 H   0  0  0  0  0  0
  -28.8383  -15.7247   20.5864 H   0  0  0  0  0  0
  -30.3636  -21.6720   21.1726 H   0  0  0  0  0  0
  1 25  1  0  0  0
  1 30  2  0  0  0
  1 80  1  0  0  0
  2  3  1  0  0  0
  2 25  1  0  0  0
  2 84  1  0  0  0
  2 85  1  0  0  0
  3  4  1  0  0  0
  3 86  1  0  0  0
  3 87  1  0  0  0
  4  5  1  0  0  0
  4 88  1  0  0  0
  4 89  1  0  0  0
  5  6  1  0  0  0
  5 26  1  0  0  0
  5 90  1  0  0  0
  6 25  1  0  0  0
  6 91  1  0  0  0
  6 92  1  0  0  0
  7  8  2  0  0  0
  7 26  1  0  0  0
  7 29  1  0  0  0
  8  9  1  0  0  0
  8 22  1  0  0  0
  9 10  1  0  0  0
  9 27  2  0  0  0
 10 11  2  0  0  0
 10 15  1  0  0  0
 11 12  1  0  0  0
 11 93  1  0  0  0
 12 13  2  0  0  0
 12 94  1  0  0  0
 13 14  1  0  0  0
 13 31  1  0  0  0
 14 15  2  0  0  0
 14 95  1  0  0  0
 15 96  1  0  0  0
 16 17  2  0  0  0
 16 21  1  0  0  0
 16 31  1  0  0  0
 17 18  1  0  0  0
 17 97  1  0  0  0
 18 19  2  0  0  0
 18 98  1  0  0  0
 19 20  1  0  0  0
 19 24  1  0  0  0
 20 21  2  0  0  0
 20 99  1  0  0  0
 21 23  1  0  0  0
 22 28  1  0  0  0
 22 32  2  0  0  0
 26 27  1  0  0  0
 28100  1  0  0  0
 28101  1  0  0  0
 29102  1  0  0  0
 29103  1  0  0  0
 33 34  1  0  0  0
 33 66  1  0  0  0
 33 70  2  0  0  0
 34 36  1  0  0  0
 34 59  1  0  0  0
 34104  1  0  0  0
 35 44  2  0  0  0
 35 45  1  0  0  0
 35 68  1  0  0  0
 36 56  1  0  0  0
 36105  1  0  0  0
 37 39  1  0  0  0
 37 47  1  0  0  0
 37 66  1  0  0  0
 37106  1  0  0  0
 38 43  2  0  0  0
 38 46  1  0  0  0
 38 47  1  0  0  0
 39 64  1  0  0  0
 39 67  2  0  0  0
 40 52  1  0  0  0
 40 53  2  0  0  0
 40 58  1  0  0  0
 41107  1  0  0  0
 41108  1  0  0  0
 41109  1  0  0  0
 41 48  1  0  0  0
 42 43  1  0  0  0
 42 66  1  0  0  0
 42110  1  0  0  0
 42111  1  0  0  0
 43 44  1  0  0  0
 44112  1  0  0  0
 45 46  2  0  0  0
 45113  1  0  0  0
 46114  1  0  0  0
 47115  1  0  0  0
 47116  1  0  0  0
 48 56  1  0  0  0
 48 65  1  0  0  0
 48117  1  0  0  0
 49 50  1  0  0  0
 49 53  1  0  0  0
 49 64  1  0  0  0
 49118  1  0  0  0
 50 51  1  0  0  0
 50119  1  0  0  0
 50120  1  0  0  0
 51 52  1  0  0  0
 51121  1  0  0  0
 51122  1  0  0  0
 52123  1  0  0  0
 52124  1  0  0  0
 53 54  1  0  0  0
 54 55  2  0  0  0
 54125  1  0  0  0
 55 57  1  0  0  0
 55126  1  0  0  0
 56 69  2  0  0  0
 57 58  2  0  0  0
 57127  1  0  0  0
 58128  1  0  0  0
 59 60  1  0  0  0
 59 61  1  0  0  0
 59 62  1  0  0  0
 60129  1  0  0  0
 60130  1  0  0  0
 60131  1  0  0  0
 61132  1  0  0  0
 61133  1  0  0  0
 61134  1  0  0  0
 62135  1  0  0  0
 62136  1  0  0  0
 62137  1  0  0  0
 63 65  1  0  0  0
 63138  1  0  0  0
 63139  1  0  0  0
 63140  1  0  0  0
 64141  1  0  0  0
 65142  1  0  0  0
 68 77  1  0  0  0
 71 72  2  0  0  0
 71 75  1  0  0  0
 71 83  1  0  0  0
 72 79  1  0  0  0
 72 80  1  0  0  0
 73 79  2  0  0  0
 73 81  1  0  0  0
 73 83  1  0  0  0
 74 77  1  0  0  0
 74 78  1  0  0  0
 74 82  2  0  0  0
 75143  1  0  0  0
 75144  1  0  0  0
 75145  1  0  0  0
 76146  1  0  0  0
 76147  1  0  0  0
 76148  1  0  0  0
 76 78  1  0  0  0
 77149  1  0  0  0
 77150  1  0  0  0
 78 81  1  0  0  0
 78151  1  0  0  0
 80152  1  0  0  0
 81153  1  0  0  0
M  ISO  4   1 100  68 101  77 101  80 100
M  END
> <chiral flag>
0

> <version>
0

> <s_m_source_file>
/data/baiqing/PycharmProjects/Reinvent-master-3.2/result/LINK_invent/BTK/process_docking_weight1_custom_product_contain_oxygen_bond_distance_aromatic_linkinvent_7_9_3/rearranged_h_0182.sdf

> <i_m_source_file_index>
74

> <r_mmod_Potential_Energy-OPLS-2005>
136.987838745117

> <r_mmod_Stretch_Energy-OPLS-2005>
129.663269042969

> <r_mmod_Bend_Energy-OPLS-2005>
182.777923583984

> <r_mmod_Torsional_Energy-OPLS-2005>
213.599975585938

> <r_mmod_Improper_Torsional_Energy-OPLS-2005>
6.68342256546021

> <r_mmod_Van_der_Waal_Energy-OPLS-2005>
120.455078125

> <r_mmod_Electrostatic_Energy-OPLS-2005>
-377.6826171875

> <r_mmod_Solvation_Energy-OPLS-2005>
-232.249420166016

> <b_mmod_Minimization_Converged-OPLS-2005>
0

> <r_mmod_RMS_Derivative-OPLS-2005>
2.24229502677917

$$$$
74
                    3D
 Structure written by MMmdl.
149157  0  0  1  0            999 V2000
  -30.5869  -14.7793   20.4489 C   0  0  0  0  0  0
  -30.4385  -12.4759   19.4692 C   0  0  0  0  0  0
  -29.5122  -12.5083   18.2334 C   0  0  0  0  0  0
  -28.0400  -12.3203   18.6511 C   0  0  0  0  0  0
  -27.6389  -13.2277   19.8442 C   0  0  2  0  0  0
  -28.6853  -13.1783   20.9783 C   0  0  0  0  0  0
  -25.2511  -13.8182   20.5687 C   0  0  0  0  0  0
  -24.1804  -13.0430   20.9210 C   0  0  0  0  0  0
  -24.6389  -11.6905   20.8744 C   0  0  0  0  0  0
  -23.9064  -10.4288   21.0407 C   0  0  0  0  0  0
  -24.3614   -9.4207   21.9187 C   0  0  0  0  0  0
  -23.6293   -8.2241   22.0756 C   0  0  0  0  0  0
  -22.4276   -8.0278   21.3545 C   0  0  0  0  0  0
  -21.9908   -9.0252   20.4646 C   0  0  0  0  0  0
  -22.7234  -10.2132   20.3059 C   0  0  0  0  0  0
  -21.6853   -6.0733   22.5281 C   0  0  0  0  0  0
  -21.4016   -6.5638   23.8212 C   0  0  0  0  0  0
  -21.3663   -5.6791   24.9176 C   0  0  0  0  0  0
  -21.6041   -4.3052   24.7226 C   0  0  0  0  0  0
  -21.8818   -3.8145   23.4346 C   0  0  0  0  0  0
  -21.9194   -4.6961   22.3401 C   0  0  0  0  0  0
  -22.7829  -13.5219   21.1873 C   0  0  0  0  0  0
  -22.1662   -4.2147   21.0978 F   0  0  0  0  0  0
  -21.5628   -3.4533   25.7738 F   0  0  0  0  0  0
  -29.9804  -13.5420   20.3892 N   0  0  0  0  0  0
  -26.2923  -12.9375   20.3249 N   0  0  0  0  0  0
  -25.9315  -11.6521   20.5733 N   0  0  0  0  0  0
  -22.0475  -12.8210   22.0425 N   0  0  0  0  0  0
  -25.4180  -15.1910   20.4104 N   0  0  0  0  0  0
  -31.7912  -14.8762   20.1905 O   0  0  0  0  0  0
  -21.6638   -6.8878   21.4242 O   0  0  0  0  0  0
  -22.3516  -14.5531   20.6727 O   0  0  0  0  0  0
  -24.6325  -31.8532   23.1948 C   0  0  0  0  0  0
  -25.9138  -32.4745   23.8310 C   0  0  1  0  0  0
  -27.2257  -27.2478   20.1434 C   0  0  0  0  0  0
  -25.5922  -33.8547   24.2232 N   0  0  0  0  0  0
  -23.4307  -30.4722   21.5395 C   0  0  2  0  0  0
  -24.8794  -28.9070   20.1188 C   0  0  0  0  0  0
  -22.7510  -29.4587   22.4919 C   0  0  0  0  0  0
  -18.0295  -28.1386   22.8486 C   0  0  0  0  0  0
  -24.1491  -36.7282   23.2641 C   0  0  0  0  0  0
  -25.9767  -30.7629   21.3748 C   0  0  0  0  0  0
  -26.0518  -29.3811   20.7219 C   0  0  0  0  0  0
  -27.2314  -28.5670   20.7143 C   0  0  0  0  0  0
  -26.0299  -26.8328   19.5250 C   0  0  0  0  0  0
  -24.8735  -27.6411   19.5090 C   0  0  0  0  0  0
  -23.6510  -29.7978   20.1592 C   0  0  0  0  0  0
  -25.4119  -36.3063   24.0322 C   0  0  1  0  0  0
  -20.5899  -28.3694   23.1274 C   0  0  2  0  0  0
  -20.6783  -26.9411   22.5413 C   0  0  0  0  0  0
  -19.5759  -26.6382   21.5216 C   0  0  0  0  0  0
  -18.1939  -26.7928   22.1630 C   0  0  0  0  0  0
  -19.1549  -28.8859   23.2875 C   0  0  0  0  0  0
  -18.9467  -30.1460   23.8892 C   0  0  0  0  0  0
  -17.6464  -30.6587   24.0563 C   0  0  0  0  0  0
  -25.9059  -34.9434   23.5084 C   0  0  0  0  0  0
  -16.5357  -29.9082   23.6331 C   0  0  0  0  0  0
  -16.7281  -28.6502   23.0349 C   0  0  0  0  0  0
  -26.4493  -31.6581   25.0713 C   0  0  0  0  0  0
  -25.3705  -31.3748   26.1429 C   0  0  0  0  0  0
  -27.0338  -30.2991   24.6217 C   0  0  0  0  0  0
  -27.6046  -32.4324   25.7488 C   0  0  0  0  0  0
  -27.5580  -37.1794   24.8462 C   0  0  0  0  0  0
  -21.4217  -29.3034   22.3659 N   0  0  0  0  0  0
  -26.4292  -37.3763   23.9404 N   0  0  0  0  0  0
  -24.6992  -31.0482   22.0927 N   0  0  0  0  0  0
  -23.4202  -28.8141   23.3036 O   0  0  0  0  0  0
  -28.3294  -26.3659   20.1202 O   0  0  0  0  0  0
  -26.5646  -34.8916   22.4663 O   0  0  0  0  0  0
  -23.5471  -32.1358   23.7233 O   0  0  0  0  0  0
  -29.6878  -19.7289   20.5083 C   0  0  0  0  0  0
  -30.9356  -19.6810   21.1105 C   0  0  0  0  0  0
  -30.0574  -17.3549   20.6196 C   0  0  0  0  0  0
  -29.1065  -22.3620   20.4708 C   0  0  0  0  0  0
  -28.9413  -21.0299   20.0679 C   0  0  0  0  0  0
  -28.4658  -23.6688   19.8994 C   0  0  0  0  0  0
  -28.2258  -25.0044   20.7677 C   0  0  0  0  0  0
  -29.2086  -18.3809   20.2531 N   0  0  0  0  0  0
  -31.7742  -20.7248   21.4962 N   0  0  0  0  0  0
  -29.7626  -15.8999   20.5200 N   0  0  0  0  0  0
  -28.1188  -23.7255   18.7146 O   0  0  0  0  0  0
  -28.0489  -20.7283   19.1140 O   0  0  0  0  0  0
  -31.5270  -18.0261   21.3296 S   0  0  0  0  0  0
  -31.4776  -12.6138   19.1653 H   0  0  0  0  0  0
  -30.3949  -11.5023   19.9601 H   0  0  0  0  0  0
  -29.8029  -11.7334   17.5226 H   0  0  0  0  0  0
  -29.6271  -13.4599   17.7121 H   0  0  0  0  0  0
  -27.9085  -11.2732   18.9259 H   0  0  0  0  0  0
  -27.3792  -12.4956   17.8016 H   0  0  0  0  0  0
  -27.6246  -14.2439   19.4507 H   0  0  0  0  0  0
  -28.7309  -12.1847   21.4263 H   0  0  0  0  0  0
  -28.4157  -13.8647   21.7830 H   0  0  0  0  0  0
  -25.2760   -9.5687   22.4759 H   0  0  0  0  0  0
  -24.0003   -7.4633   22.7473 H   0  0  0  0  0  0
  -21.0842   -8.8772   19.8950 H   0  0  0  0  0  0
  -22.3697  -10.9672   19.6166 H   0  0  0  0  0  0
  -21.2011   -7.6146   23.9715 H   0  0  0  0  0  0
  -21.1485   -6.0520   25.9078 H   0  0  0  0  0  0
  -22.0597   -2.7607   23.2843 H   0  0  0  0  0  0
  -22.4094  -11.9865   22.4797 H   0  0  0  0  0  0
  -21.1096  -13.1239   22.2642 H   0  0  0  0  0  0
  -24.6432  -15.8364   20.5209 H   0  0  0  0  0  0
  -26.2503  -15.6371   20.0473 H   0  0  0  0  0  0
  -26.7206  -32.5389   23.1053 H   0  0  0  0  0  0
  -25.0033  -33.9678   25.0353 H   0  0  0  0  0  0
  -22.7279  -31.2940   21.3884 H   0  0  0  0  0  0
  -23.3752  -35.9616   23.3303 H   0  0  0  0  0  0
  -24.3579  -36.8910   22.2056 H   0  0  0  0  0  0
  -23.7250  -37.6483   23.6672 H   0  0  0  0  0  0
  -26.1150  -31.5209   20.6025 H   0  0  0  0  0  0
  -26.8538  -30.8153   22.0083 H   0  0  0  0  0  0
  -28.1359  -28.9325   21.1799 H   0  0  0  0  0  0
  -25.9881  -25.8599   19.0552 H   0  0  0  0  0  0
  -23.9750  -27.2708   19.0346 H   0  0  0  0  0  0
  -23.7788  -30.5699   19.3997 H   0  0  0  0  0  0
  -22.7692  -29.2313   19.8548 H   0  0  0  0  0  0
  -25.1305  -36.1904   25.0816 H   0  0  0  0  0  0
  -20.9993  -28.3272   24.1394 H   0  0  0  0  0  0
  -20.5685  -26.2303   23.3618 H   0  0  0  0  0  0
  -21.6650  -26.7435   22.1205 H   0  0  0  0  0  0
  -19.6920  -25.6293   21.1247 H   0  0  0  0  0  0
  -19.6696  -27.3193   20.6746 H   0  0  0  0  0  0
  -17.4209  -26.6674   21.4032 H   0  0  0  0  0  0
  -18.0340  -26.0072   22.9030 H   0  0  0  0  0  0
  -19.7942  -30.7279   24.2257 H   0  0  0  0  0  0
  -17.5016  -31.6264   24.5169 H   0  0  0  0  0  0
  -15.5356  -30.2977   23.7657 H   0  0  0  0  0  0
  -15.8686  -28.0817   22.7060 H   0  0  0  0  0  0
  -24.5859  -30.7128   25.7746 H   0  0  0  0  0  0
  -24.8922  -32.2929   26.4852 H   0  0  0  0  0  0
  -25.8002  -30.8908   27.0209 H   0  0  0  0  0  0
  -26.2924  -29.6737   24.1231 H   0  0  0  0  0  0
  -27.3993  -29.7261   25.4750 H   0  0  0  0  0  0
  -27.8813  -30.4253   23.9476 H   0  0  0  0  0  0
  -27.2650  -33.3625   26.2056 H   0  0  0  0  0  0
  -28.3858  -32.6884   25.0318 H   0  0  0  0  0  0
  -28.0711  -31.8455   26.5410 H   0  0  0  0  0  0
  -28.2593  -38.0095   24.7510 H   0  0  0  0  0  0
  -28.1081  -36.2626   24.6286 H   0  0  0  0  0  0
  -27.2301  -37.1442   25.8866 H   0  0  0  0  0  0
  -20.9413  -29.8730   21.6834 H   0  0  0  0  0  0
  -26.0169  -38.2837   24.1402 H   0  0  0  0  0  0
  -29.8012  -22.5422   21.2767 H   0  0  0  0  0  0
  -28.9453  -24.9872   21.5858 H   0  0  0  0  0  0
  -27.2469  -24.9136   21.2390 H   0  0  0  0  0  0
  -31.6570  -21.6737   21.1565 H   0  0  0  0  0  0
  -32.7190  -20.5554   21.8301 H   0  0  0  0  0  0
  -28.7817  -15.6781   20.5100 H   0  0  0  0  0  0
  -28.0791  -19.7810   19.0184 H   0  0  0  0  0  0
  1 25  1  0  0  0
  1 30  2  0  0  0
  1 80  1  0  0  0
  2  3  1  0  0  0
  2 25  1  0  0  0
  2 84  1  0  0  0
  2 85  1  0  0  0
  3  4  1  0  0  0
  3 86  1  0  0  0
  3 87  1  0  0  0
  4  5  1  0  0  0
  4 88  1  0  0  0
  4 89  1  0  0  0
  5  6  1  0  0  0
  5 26  1  0  0  0
  5 90  1  0  0  0
  6 25  1  0  0  0
  6 91  1  0  0  0
  6 92  1  0  0  0
  7  8  2  0  0  0
  7 26  1  0  0  0
  7 29  1  0  0  0
  8  9  1  0  0  0
  8 22  1  0  0  0
  9 10  1  0  0  0
  9 27  2  0  0  0
 10 11  2  0  0  0
 10 15  1  0  0  0
 11 12  1  0  0  0
 11 93  1  0  0  0
 12 13  2  0  0  0
 12 94  1  0  0  0
 13 14  1  0  0  0
 13 31  1  0  0  0
 14 15  2  0  0  0
 14 95  1  0  0  0
 15 96  1  0  0  0
 16 17  2  0  0  0
 16 21  1  0  0  0
 16 31  1  0  0  0
 17 18  1  0  0  0
 17 97  1  0  0  0
 18 19  2  0  0  0
 18 98  1  0  0  0
 19 20  1  0  0  0
 19 24  1  0  0  0
 20 21  2  0  0  0
 20 99  1  0  0  0
 21 23  1  0  0  0
 22 28  1  0  0  0
 22 32  2  0  0  0
 26 27  1  0  0  0
 28100  1  0  0  0
 28101  1  0  0  0
 29102  1  0  0  0
 29103  1  0  0  0
 33 34  1  0  0  0
 33 66  1  0  0  0
 33 70  2  0  0  0
 34 36  1  0  0  0
 34 59  1  0  0  0
 34104  1  0  0  0
 35 44  2  0  0  0
 35 45  1  0  0  0
 35 68  1  0  0  0
 36 56  1  0  0  0
 36105  1  0  0  0
 37 39  1  0  0  0
 37 47  1  0  0  0
 37 66  1  0  0  0
 37106  1  0  0  0
 38 43  2  0  0  0
 38 46  1  0  0  0
 38 47  1  0  0  0
 39 64  1  0  0  0
 39 67  2  0  0  0
 40 52  1  0  0  0
 40 53  2  0  0  0
 40 58  1  0  0  0
 41107  1  0  0  0
 41108  1  0  0  0
 41109  1  0  0  0
 41 48  1  0  0  0
 42 43  1  0  0  0
 42 66  1  0  0  0
 42110  1  0  0  0
 42111  1  0  0  0
 43 44  1  0  0  0
 44112  1  0  0  0
 45 46  2  0  0  0
 45113  1  0  0  0
 46114  1  0  0  0
 47115  1  0  0  0
 47116  1  0  0  0
 48 56  1  0  0  0
 48 65  1  0  0  0
 48117  1  0  0  0
 49 50  1  0  0  0
 49 53  1  0  0  0
 49 64  1  0  0  0
 49118  1  0  0  0
 50 51  1  0  0  0
 50119  1  0  0  0
 50120  1  0  0  0
 51 52  1  0  0  0
 51121  1  0  0  0
 51122  1  0  0  0
 52123  1  0  0  0
 52124  1  0  0  0
 53 54  1  0  0  0
 54 55  2  0  0  0
 54125  1  0  0  0
 55 57  1  0  0  0
 55126  1  0  0  0
 56 69  2  0  0  0
 57 58  2  0  0  0
 57127  1  0  0  0
 58128  1  0  0  0
 59 60  1  0  0  0
 59 61  1  0  0  0
 59 62  1  0  0  0
 60129  1  0  0  0
 60130  1  0  0  0
 60131  1  0  0  0
 61132  1  0  0  0
 61133  1  0  0  0
 61134  1  0  0  0
 62135  1  0  0  0
 62136  1  0  0  0
 62137  1  0  0  0
 63 65  1  0  0  0
 63138  1  0  0  0
 63139  1  0  0  0
 63140  1  0  0  0
 64141  1  0  0  0
 65142  1  0  0  0
 68 77  1  0  0  0
 71 72  2  0  0  0
 71 75  1  0  0  0
 71 78  1  0  0  0
 72 79  1  0  0  0
 72 83  1  0  0  0
 73 78  2  0  0  0
 73 80  1  0  0  0
 73 83  1  0  0  0
 74 75  2  0  0  0
 74 76  1  0  0  0
 74143  1  0  0  0
 75 82  1  0  0  0
 76 77  1  0  0  0
 76 81  2  0  0  0
 77144  1  0  0  0
 77145  1  0  0  0
 79146  1  0  0  0
 79147  1  0  0  0
 80148  1  0  0  0
 82149  1  0  0  0
M  ISO  4   1 100  68 101  77 101  80 100
M  END
> <chiral flag>
0

> <version>
0

> <s_m_source_file>
/data/baiqing/PycharmProjects/Reinvent-master-3.2/result/LINK_invent/BTK/process_docking_weight1_custom_product_contain_oxygen_bond_distance_aromatic_linkinvent_7_9_3/rearranged_h_0182.sdf

> <i_m_source_file_index>
75

> <r_mmod_Potential_Energy-OPLS-2005>
174.999984741211

> <r_mmod_Stretch_Energy-OPLS-2005>
133.935699462891

> <r_mmod_Bend_Energy-OPLS-2005>
167.990432739258

> <r_mmod_Torsional_Energy-OPLS-2005>
237.540557861328

> <r_mmod_Improper_Torsional_Energy-OPLS-2005>
8.78508758544922

> <r_mmod_Van_der_Waal_Energy-OPLS-2005>
112.432525634766

> <r_mmod_Electrostatic_Energy-OPLS-2005>
-328.529968261719

> <r_mmod_Solvation_Energy-OPLS-2005>
-253.002716064453

> <b_mmod_Minimization_Converged-OPLS-2005>
0

> <r_mmod_RMS_Derivative-OPLS-2005>
0.736033976078033

$$$$
75
                    3D
 Structure written by MMmdl.
151159  0  0  1  0            999 V2000
  -30.5515  -14.9845   20.4005 C   0  0  0  0  0  0
  -30.4365  -12.6012   19.5188 C   0  0  0  0  0  0
  -29.5380  -12.5366   18.2642 C   0  0  0  0  0  0
  -28.0651  -12.3242   18.6694 C   0  0  0  0  0  0
  -27.6283  -13.2590   19.8299 C   0  0  2  0  0  0
  -28.6653  -13.3158   20.9724 C   0  0  0  0  0  0
  -25.2421  -13.8262   20.5688 C   0  0  0  0  0  0
  -24.1759  -13.0458   20.9222 C   0  0  0  0  0  0
  -24.6416  -11.6952   20.8742 C   0  0  0  0  0  0
  -23.9128  -10.4303   21.0397 C   0  0  0  0  0  0
  -24.3667   -9.4206   21.9171 C   0  0  0  0  0  0
  -23.6326   -8.2248   22.0772 C   0  0  0  0  0  0
  -22.4298   -8.0306   21.3558 C   0  0  0  0  0  0
  -21.9939   -9.0297   20.4656 C   0  0  0  0  0  0
  -22.7297  -10.2158   20.3049 C   0  0  0  0  0  0
  -21.6865   -6.0755   22.5267 C   0  0  0  0  0  0
  -21.4042   -6.5655   23.8213 C   0  0  0  0  0  0
  -21.3669   -5.6788   24.9170 C   0  0  0  0  0  0
  -21.6055   -4.3050   24.7199 C   0  0  0  0  0  0
  -21.8826   -3.8160   23.4306 C   0  0  0  0  0  0
  -21.9182   -4.6982   22.3366 C   0  0  0  0  0  0
  -22.7747  -13.5209   21.1809 C   0  0  0  0  0  0
  -22.1603   -4.2178   21.0925 F   0  0  0  0  0  0
  -21.5629   -3.4519   25.7693 F   0  0  0  0  0  0
  -29.9422  -13.7247   20.3706 N   0  0  0  0  0  0
  -26.2875  -12.9521   20.3207 N   0  0  0  0  0  0
  -25.9359  -11.6646   20.5749 N   0  0  0  0  0  0
  -22.0391  -12.8255   22.0407 N   0  0  0  0  0  0
  -25.4013  -15.2008   20.4057 N   0  0  0  0  0  0
  -31.7665  -14.9773   20.1637 O   0  0  0  0  0  0
  -21.6650   -6.8909   21.4236 O   0  0  0  0  0  0
  -22.3397  -14.5472   20.6585 O   0  0  0  0  0  0
  -24.6456  -31.8429   23.1873 C   0  0  0  0  0  0
  -25.9250  -32.4659   23.8229 C   0  0  1  0  0  0
  -27.1993  -27.1127   20.1507 C   0  0  0  0  0  0
  -25.5979  -33.8464   24.2139 N   0  0  0  0  0  0
  -23.4424  -30.4661   21.5389 C   0  0  2  0  0  0
  -24.8877  -28.8890   20.1132 C   0  0  0  0  0  0
  -22.7534  -29.4585   22.4921 C   0  0  0  0  0  0
  -18.0289  -28.1403   22.8506 C   0  0  0  0  0  0
  -24.1501  -36.7251   23.2636 C   0  0  0  0  0  0
  -25.9989  -30.7125   21.3846 C   0  0  0  0  0  0
  -26.0697  -29.3210   20.7282 C   0  0  0  0  0  0
  -27.2267  -28.4518   20.7269 C   0  0  0  0  0  0
  -25.9925  -26.7938   19.4900 C   0  0  0  0  0  0
  -24.8638  -27.6419   19.4750 C   0  0  0  0  0  0
  -23.6672  -29.7968   20.1579 C   0  0  0  0  0  0
  -25.4111  -36.2974   24.0302 C   0  0  1  0  0  0
  -20.5896  -28.3743   23.1261 C   0  0  2  0  0  0
  -20.6808  -26.9465   22.5425 C   0  0  0  0  0  0
  -19.5771  -26.6393   21.5246 C   0  0  0  0  0  0
  -18.1941  -26.7943   22.1646 C   0  0  0  0  0  0
  -19.1543  -28.8892   23.2871 C   0  0  0  0  0  0
  -18.9460  -30.1487   23.8901 C   0  0  0  0  0  0
  -17.6465  -30.6618   24.0574 C   0  0  0  0  0  0
  -25.9082  -34.9376   23.5016 C   0  0  0  0  0  0
  -16.5356  -29.9111   23.6348 C   0  0  0  0  0  0
  -16.7274  -28.6517   23.0380 C   0  0  0  0  0  0
  -26.4560  -31.6512   25.0680 C   0  0  0  0  0  0
  -25.3716  -31.3767   26.1360 C   0  0  0  0  0  0
  -27.0415  -30.2881   24.6281 C   0  0  0  0  0  0
  -27.6050  -32.4280   25.7512 C   0  0  0  0  0  0
  -27.5554  -37.1774   24.8452 C   0  0  0  0  0  0
  -21.4238  -29.3054   22.3634 N   0  0  0  0  0  0
  -26.4254  -37.3695   23.9406 N   0  0  0  0  0  0
  -24.7164  -31.0253   22.0937 N   0  0  0  0  0  0
  -23.4177  -28.8182   23.3114 O   0  0  0  0  0  0
  -28.2441  -26.1113   20.2009 O   0  0  0  0  0  0
  -26.5676  -34.8904   22.4601 O   0  0  0  0  0  0
  -23.5586  -32.1353   23.7076 O   0  0  0  0  0  0
  -31.4543  -18.0251   19.9898 C   0  0  0  0  0  0
  -31.0165  -20.4441   19.8662 C   0  0  0  0  0  0
  -31.8862  -19.3402   19.7732 C   0  0  0  0  0  0
  -29.6502  -20.2429   20.2001 C   0  0  0  0  0  0
  -30.1207  -17.7158   20.3113 C   0  0  0  0  0  0
  -27.9346  -24.5668   20.2760 C   0  0  0  0  0  0
  -28.6206  -21.5648   20.2968 C   0  0  0  0  0  0
  -29.0011  -23.2456   20.1843 C   0  0  0  0  0  0
  -29.2609  -18.8662   20.4034 N   0  0  0  0  0  0
  -31.5782  -21.6971   19.6101 N   0  0  0  0  0  0
  -29.7997  -16.2092   20.4930 N   0  0  0  0  0  0
  -33.1902  -19.5561   19.4577 F   0  0  0  0  0  0
  -27.9720  -21.4208   21.4553 F   0  0  0  0  0  0
  -27.7174  -21.3580   19.3341 F   0  0  0  0  0  0
  -29.5708  -23.4291   18.9911 F   0  0  0  0  0  0
  -29.9167  -23.4988   21.1197 F   0  0  0  0  0  0
  -31.4764  -12.7382   19.2204 H   0  0  0  0  0  0
  -30.4046  -11.6567   20.0659 H   0  0  0  0  0  0
  -29.8664  -11.7386   17.5966 H   0  0  0  0  0  0
  -29.6418  -13.4667   17.7038 H   0  0  0  0  0  0
  -27.9581  -11.2821   18.9711 H   0  0  0  0  0  0
  -27.4130  -12.4592   17.8054 H   0  0  0  0  0  0
  -27.5872  -14.2538   19.3864 H   0  0  0  0  0  0
  -28.7558  -12.3533   21.4811 H   0  0  0  0  0  0
  -28.3573  -14.0406   21.7274 H   0  0  0  0  0  0
  -25.2832   -9.5682   22.4708 H   0  0  0  0  0  0
  -24.0031   -7.4655   22.7519 H   0  0  0  0  0  0
  -21.0868   -8.8864   19.8965 H   0  0  0  0  0  0
  -22.3792  -10.9696   19.6131 H   0  0  0  0  0  0
  -21.2072   -7.6155   23.9739 H   0  0  0  0  0  0
  -21.1461   -6.0487   25.9072 H   0  0  0  0  0  0
  -22.0597   -2.7619   23.2777 H   0  0  0  0  0  0
  -22.3987  -11.9986   22.4930 H   0  0  0  0  0  0
  -21.0998  -13.1307   22.2552 H   0  0  0  0  0  0
  -24.6289  -15.8472   20.5317 H   0  0  0  0  0  0
  -26.2423  -15.6513   20.0666 H   0  0  0  0  0  0
  -26.7318  -32.5297   23.0955 H   0  0  0  0  0  0
  -25.0034  -33.9547   25.0222 H   0  0  0  0  0  0
  -22.7465  -31.2954   21.3902 H   0  0  0  0  0  0
  -23.3726  -35.9616   23.3242 H   0  0  0  0  0  0
  -24.3596  -36.8953   22.2063 H   0  0  0  0  0  0
  -23.7336  -37.6462   23.6723 H   0  0  0  0  0  0
  -26.1412  -31.4652   20.6080 H   0  0  0  0  0  0
  -26.8712  -30.7680   22.0229 H   0  0  0  0  0  0
  -28.1237  -28.7823   21.2293 H   0  0  0  0  0  0
  -25.8793  -25.8506   18.9794 H   0  0  0  0  0  0
  -23.9630  -27.3117   18.9756 H   0  0  0  0  0  0
  -23.8107  -30.5758   19.4093 H   0  0  0  0  0  0
  -22.7767  -29.2511   19.8410 H   0  0  0  0  0  0
  -25.1305  -36.1739   25.0792 H   0  0  0  0  0  0
  -20.9960  -28.3332   24.1385 H   0  0  0  0  0  0
  -20.5767  -26.2358   23.3631 H   0  0  0  0  0  0
  -21.6675  -26.7556   22.1182 H   0  0  0  0  0  0
  -19.6957  -25.6287   21.1302 H   0  0  0  0  0  0
  -19.6682  -27.3197   20.6758 H   0  0  0  0  0  0
  -17.4228  -26.6701   21.4028 H   0  0  0  0  0  0
  -18.0330  -26.0080   22.9033 H   0  0  0  0  0  0
  -19.7938  -30.7302   24.2269 H   0  0  0  0  0  0
  -17.5023  -31.6303   24.5162 H   0  0  0  0  0  0
  -15.5354  -30.3022   23.7653 H   0  0  0  0  0  0
  -15.8671  -28.0824   22.7101 H   0  0  0  0  0  0
  -24.5863  -30.7149   25.7687 H   0  0  0  0  0  0
  -24.8979  -32.3015   26.4657 H   0  0  0  0  0  0
  -25.7964  -30.9010   27.0207 H   0  0  0  0  0  0
  -26.3036  -29.6604   24.1278 H   0  0  0  0  0  0
  -27.3993  -29.7165   25.4857 H   0  0  0  0  0  0
  -27.8957  -30.4058   23.9605 H   0  0  0  0  0  0
  -27.2559  -33.3562   26.2030 H   0  0  0  0  0  0
  -28.3910  -32.6859   25.0409 H   0  0  0  0  0  0
  -28.0659  -31.8471   26.5511 H   0  0  0  0  0  0
  -28.2520  -38.0113   24.7477 H   0  0  0  0  0  0
  -28.1091  -36.2635   24.6244 H   0  0  0  0  0  0
  -27.2292  -37.1396   25.8864 H   0  0  0  0  0  0
  -20.9435  -29.8696   21.6763 H   0  0  0  0  0  0
  -26.0087  -38.2745   24.1405 H   0  0  0  0  0  0
  -32.2056  -17.2608   19.8874 H   0  0  0  0  0  0
  -27.3886  -24.4489   21.2132 H   0  0  0  0  0  0
  -27.1994  -24.3451   19.5081 H   0  0  0  0  0  0
  -32.5009  -21.6951   19.1836 H   0  0  0  0  0  0
  -30.9978  -22.4660   19.2959 H   0  0  0  0  0  0
  -28.8212  -16.0444   20.6737 H   0  0  0  0  0  0
  1 25  1  0  0  0
  1 30  2  0  0  0
  1 81  1  0  0  0
  2  3  1  0  0  0
  2 25  1  0  0  0
  2 87  1  0  0  0
  2 88  1  0  0  0
  3  4  1  0  0  0
  3 89  1  0  0  0
  3 90  1  0  0  0
  4  5  1  0  0  0
  4 91  1  0  0  0
  4 92  1  0  0  0
  5  6  1  0  0  0
  5 26  1  0  0  0
  5 93  1  0  0  0
  6 25  1  0  0  0
  6 94  1  0  0  0
  6 95  1  0  0  0
  7  8  2  0  0  0
  7 26  1  0  0  0
  7 29  1  0  0  0
  8  9  1  0  0  0
  8 22  1  0  0  0
  9 10  1  0  0  0
  9 27  2  0  0  0
 10 11  2  0  0  0
 10 15  1  0  0  0
 11 12  1  0  0  0
 11 96  1  0  0  0
 12 13  2  0  0  0
 12 97  1  0  0  0
 13 14  1  0  0  0
 13 31  1  0  0  0
 14 15  2  0  0  0
 14 98  1  0  0  0
 15 99  1  0  0  0
 16 17  2  0  0  0
 16 21  1  0  0  0
 16 31  1  0  0  0
 17 18  1  0  0  0
 17100  1  0  0  0
 18 19  2  0  0  0
 18101  1  0  0  0
 19 20  1  0  0  0
 19 24  1  0  0  0
 20 21  2  0  0  0
 20102  1  0  0  0
 21 23  1  0  0  0
 22 28  1  0  0  0
 22 32  2  0  0  0
 26 27  1  0  0  0
 28103  1  0  0  0
 28104  1  0  0  0
 29105  1  0  0  0
 29106  1  0  0  0
 33 34  1  0  0  0
 33 66  1  0  0  0
 33 70  2  0  0  0
 34 36  1  0  0  0
 34 59  1  0  0  0
 34107  1  0  0  0
 35 44  2  0  0  0
 35 45  1  0  0  0
 35 68  1  0  0  0
 36 56  1  0  0  0
 36108  1  0  0  0
 37 39  1  0  0  0
 37 47  1  0  0  0
 37 66  1  0  0  0
 37109  1  0  0  0
 38 43  2  0  0  0
 38 46  1  0  0  0
 38 47  1  0  0  0
 39 64  1  0  0  0
 39 67  2  0  0  0
 40 52  1  0  0  0
 40 53  2  0  0  0
 40 58  1  0  0  0
 41110  1  0  0  0
 41111  1  0  0  0
 41112  1  0  0  0
 41 48  1  0  0  0
 42 43  1  0  0  0
 42 66  1  0  0  0
 42113  1  0  0  0
 42114  1  0  0  0
 43 44  1  0  0  0
 44115  1  0  0  0
 45 46  2  0  0  0
 45116  1  0  0  0
 46117  1  0  0  0
 47118  1  0  0  0
 47119  1  0  0  0
 48 56  1  0  0  0
 48 65  1  0  0  0
 48120  1  0  0  0
 49 50  1  0  0  0
 49 53  1  0  0  0
 49 64  1  0  0  0
 49121  1  0  0  0
 50 51  1  0  0  0
 50122  1  0  0  0
 50123  1  0  0  0
 51 52  1  0  0  0
 51124  1  0  0  0
 51125  1  0  0  0
 52126  1  0  0  0
 52127  1  0  0  0
 53 54  1  0  0  0
 54 55  2  0  0  0
 54128  1  0  0  0
 55 57  1  0  0  0
 55129  1  0  0  0
 56 69  2  0  0  0
 57 58  2  0  0  0
 57130  1  0  0  0
 58131  1  0  0  0
 59 60  1  0  0  0
 59 61  1  0  0  0
 59 62  1  0  0  0
 60132  1  0  0  0
 60133  1  0  0  0
 60134  1  0  0  0
 61135  1  0  0  0
 61136  1  0  0  0
 61137  1  0  0  0
 62138  1  0  0  0
 62139  1  0  0  0
 62140  1  0  0  0
 63 65  1  0  0  0
 63141  1  0  0  0
 63142  1  0  0  0
 63143  1  0  0  0
 64144  1  0  0  0
 65145  1  0  0  0
 68 76  1  0  0  0
 71 73  2  0  0  0
 71 75  1  0  0  0
 71146  1  0  0  0
 72 73  1  0  0  0
 72 74  2  0  0  0
 72 80  1  0  0  0
 73 82  1  0  0  0
 74 77  1  0  0  0
 74 79  1  0  0  0
 75 79  2  0  0  0
 75 81  1  0  0  0
 76 78  1  0  0  0
 76147  1  0  0  0
 76148  1  0  0  0
 77 78  1  0  0  0
 77 83  1  0  0  0
 77 84  1  0  0  0
 78 85  1  0  0  0
 78 86  1  0  0  0
 80149  1  0  0  0
 80150  1  0  0  0
 81151  1  0  0  0
M  ISO  4   1 100  68 101  76 101  81 100
M  END
> <chiral flag>
0

> <version>
0

> <s_m_source_file>
/data/baiqing/PycharmProjects/Reinvent-master-3.2/result/LINK_invent/BTK/process_docking_weight1_custom_product_contain_oxygen_bond_distance_aromatic_linkinvent_7_9_3/rearranged_h_0182.sdf

> <i_m_source_file_index>
76

> <r_mmod_Potential_Energy-OPLS-2005>
551.605163574219

> <r_mmod_Stretch_Energy-OPLS-2005>
317.937652587891

> <r_mmod_Bend_Energy-OPLS-2005>
277.042022705078

> <r_mmod_Torsional_Energy-OPLS-2005>
210.493026733398

> <r_mmod_Improper_Torsional_Energy-OPLS-2005>
7.29502439498901

> <r_mmod_Van_der_Waal_Energy-OPLS-2005>
145.76481628418

> <r_mmod_Electrostatic_Energy-OPLS-2005>
-415.360412597656

> <r_mmod_Solvation_Energy-OPLS-2005>
-204.328308105469

> <b_mmod_Minimization_Converged-OPLS-2005>
0

> <r_mmod_RMS_Derivative-OPLS-2005>
4.62558126449585

$$$$
76
                    3D
 Structure written by MMmdl.
149157  0  0  1  0            999 V2000
  -30.5740  -14.7949   20.4472 C   0  0  0  0  0  0
  -30.4420  -12.4842   19.4786 C   0  0  0  0  0  0
  -29.5168  -12.5103   18.2402 C   0  0  0  0  0  0
  -28.0424  -12.3252   18.6522 C   0  0  0  0  0  0
  -27.6413  -13.2299   19.8482 C   0  0  2  0  0  0
  -28.6856  -13.1723   20.9851 C   0  0  0  0  0  0
  -25.2514  -13.8187   20.5686 C   0  0  0  0  0  0
  -24.1807  -13.0439   20.9224 C   0  0  0  0  0  0
  -24.6400  -11.6911   20.8753 C   0  0  0  0  0  0
  -23.9079  -10.4289   21.0416 C   0  0  0  0  0  0
  -24.3629   -9.4199   21.9188 C   0  0  0  0  0  0
  -23.6311   -8.2231   22.0738 C   0  0  0  0  0  0
  -22.4286   -8.0279   21.3536 C   0  0  0  0  0  0
  -21.9925   -9.0250   20.4633 C   0  0  0  0  0  0
  -22.7251  -10.2138   20.3054 C   0  0  0  0  0  0
  -21.6860   -6.0748   22.5288 C   0  0  0  0  0  0
  -21.4008   -6.5648   23.8223 C   0  0  0  0  0  0
  -21.3657   -5.6796   24.9182 C   0  0  0  0  0  0
  -21.6044   -4.3063   24.7235 C   0  0  0  0  0  0
  -21.8819   -3.8153   23.4351 C   0  0  0  0  0  0
  -21.9187   -4.6973   22.3410 C   0  0  0  0  0  0
  -22.7830  -13.5217   21.1890 C   0  0  0  0  0  0
  -22.1663   -4.2160   21.0988 F   0  0  0  0  0  0
  -21.5629   -3.4538   25.7743 F   0  0  0  0  0  0
  -29.9819  -13.5474   20.4054 N   0  0  0  0  0  0
  -26.2930  -12.9392   20.3258 N   0  0  0  0  0  0
  -25.9333  -11.6541   20.5750 N   0  0  0  0  0  0
  -22.0471  -12.8195   22.0442 N   0  0  0  0  0  0
  -25.4181  -15.1910   20.4058 N   0  0  0  0  0  0
  -31.7664  -14.8963   20.1374 O   0  0  0  0  0  0
  -21.6641   -6.8890   21.4248 O   0  0  0  0  0  0
  -22.3514  -14.5530   20.6746 O   0  0  0  0  0  0
  -24.6335  -31.8543   23.1982 C   0  0  0  0  0  0
  -25.9157  -32.4744   23.8335 C   0  0  1  0  0  0
  -27.2154  -27.2340   20.1396 C   0  0  0  0  0  0
  -25.5958  -33.8544   24.2258 N   0  0  0  0  0  0
  -23.4311  -30.4763   21.5408 C   0  0  2  0  0  0
  -24.8798  -28.9175   20.1115 C   0  0  0  0  0  0
  -22.7528  -29.4590   22.4905 C   0  0  0  0  0  0
  -18.0294  -28.1391   22.8491 C   0  0  0  0  0  0
  -24.1478  -36.7269   23.2636 C   0  0  0  0  0  0
  -25.9775  -30.7591   21.3827 C   0  0  0  0  0  0
  -26.0510  -29.3769   20.7281 C   0  0  0  0  0  0
  -27.2216  -28.5458   20.7336 C   0  0  0  0  0  0
  -26.0270  -26.8581   19.4787 C   0  0  0  0  0  0
  -24.8751  -27.6686   19.4725 C   0  0  0  0  0  0
  -23.6526  -29.8089   20.1575 C   0  0  0  0  0  0
  -25.4113  -36.3060   24.0321 C   0  0  1  0  0  0
  -20.5898  -28.3707   23.1263 C   0  0  2  0  0  0
  -20.6769  -26.9421   22.5400 C   0  0  0  0  0  0
  -19.5732  -26.6382   21.5206 C   0  0  0  0  0  0
  -18.1923  -26.7935   22.1631 C   0  0  0  0  0  0
  -19.1554  -28.8870   23.2867 C   0  0  0  0  0  0
  -18.9472  -30.1474   23.8884 C   0  0  0  0  0  0
  -17.6468  -30.6588   24.0571 C   0  0  0  0  0  0
  -25.9066  -34.9432   23.5098 C   0  0  0  0  0  0
  -16.5362  -29.9086   23.6338 C   0  0  0  0  0  0
  -16.7281  -28.6508   23.0358 C   0  0  0  0  0  0
  -26.4507  -31.6588   25.0745 C   0  0  0  0  0  0
  -25.3728  -31.3780   26.1481 C   0  0  0  0  0  0
  -27.0354  -30.2995   24.6270 C   0  0  0  0  0  0
  -27.6059  -32.4336   25.7521 C   0  0  0  0  0  0
  -27.5563  -37.1803   24.8467 C   0  0  0  0  0  0
  -21.4226  -29.3058   22.3661 N   0  0  0  0  0  0
  -26.4281  -37.3767   23.9403 N   0  0  0  0  0  0
  -24.6996  -31.0503   22.0967 N   0  0  0  0  0  0
  -23.4224  -28.8139   23.3016 O   0  0  0  0  0  0
  -28.2923  -26.3092   20.1705 O   0  0  0  0  0  0
  -26.5620  -34.8909   22.4654 O   0  0  0  0  0  0
  -23.5486  -32.1384   23.7268 O   0  0  0  0  0  0
  -31.0761  -19.4027   20.1481 C   0  0  0  0  0  0
  -29.8343  -20.0352   20.3008 C   0  0  0  0  0  0
  -29.9314  -17.3833   20.5053 C   0  0  0  0  0  0
  -28.0554  -24.8986   20.3520 C   0  0  0  0  0  0
  -28.9578  -23.8418   20.2284 C   0  0  0  0  0  0
  -28.6288  -22.3633   20.4649 C   0  0  0  0  0  0
  -32.4170  -20.0669   19.8950 C   0  0  0  0  0  0
  -31.1029  -17.9760   20.2545 N   0  0  0  0  0  0
  -29.6256  -21.4386   20.1751 N   0  0  0  0  0  0
  -29.7498  -15.9057   20.6483 N   0  0  0  0  0  0
  -27.5399  -21.9799   20.8942 O   0  0  0  0  0  0
  -30.2226  -24.1594   19.9090 O   0  0  0  0  0  0
  -32.3121  -21.3904   19.7502 F   0  0  0  0  0  0
  -33.2568  -19.8481   20.9087 F   0  0  0  0  0  0
  -32.9906  -19.5950   18.7867 F   0  0  0  0  0  0
  -28.6666  -18.6946   20.6277 S   0  0  0  0  0  0
  -31.4797  -12.6268   19.1735 H   0  0  0  0  0  0
  -30.4057  -11.5104   19.9690 H   0  0  0  0  0  0
  -29.8060  -11.7281   17.5365 H   0  0  0  0  0  0
  -29.6363  -13.4592   17.7137 H   0  0  0  0  0  0
  -27.9086  -11.2765   18.9201 H   0  0  0  0  0  0
  -27.3847  -12.5062   17.8005 H   0  0  0  0  0  0
  -27.6320  -14.2485   19.4599 H   0  0  0  0  0  0
  -28.7339  -12.1708   21.4157 H   0  0  0  0  0  0
  -28.4118  -13.8427   21.8016 H   0  0  0  0  0  0
  -25.2777   -9.5676   22.4767 H   0  0  0  0  0  0
  -24.0027   -7.4619   22.7448 H   0  0  0  0  0  0
  -21.0855   -8.8776   19.8936 H   0  0  0  0  0  0
  -22.3713  -10.9680   19.6164 H   0  0  0  0  0  0
  -21.1993   -7.6152   23.9737 H   0  0  0  0  0  0
  -21.1483   -6.0522   25.9095 H   0  0  0  0  0  0
  -22.0594   -2.7612   23.2856 H   0  0  0  0  0  0
  -22.4108  -11.9863   22.4824 H   0  0  0  0  0  0
  -21.1074  -13.1189   22.2644 H   0  0  0  0  0  0
  -24.6376  -15.8315   20.4962 H   0  0  0  0  0  0
  -26.2396  -15.6261   20.0075 H   0  0  0  0  0  0
  -26.7229  -32.5384   23.1079 H   0  0  0  0  0  0
  -25.0109  -33.9680   25.0408 H   0  0  0  0  0  0
  -22.7270  -31.2985   21.3941 H   0  0  0  0  0  0
  -23.3722  -35.9615   23.3316 H   0  0  0  0  0  0
  -24.3557  -36.8875   22.2042 H   0  0  0  0  0  0
  -23.7256  -37.6485   23.6657 H   0  0  0  0  0  0
  -26.1194  -31.5186   20.6123 H   0  0  0  0  0  0
  -26.8531  -30.8103   22.0183 H   0  0  0  0  0  0
  -28.1193  -28.8907   21.2278 H   0  0  0  0  0  0
  -25.9720  -25.9036   18.9750 H   0  0  0  0  0  0
  -23.9846  -27.3140   18.9724 H   0  0  0  0  0  0
  -23.7817  -30.5845   19.4018 H   0  0  0  0  0  0
  -22.7701  -29.2450   19.8499 H   0  0  0  0  0  0
  -25.1295  -36.1907   25.0814 H   0  0  0  0  0  0
  -20.9982  -28.3283   24.1385 H   0  0  0  0  0  0
  -20.5624  -26.2332   23.3609 H   0  0  0  0  0  0
  -21.6643  -26.7422   22.1212 H   0  0  0  0  0  0
  -19.6874  -25.6285   21.1243 H   0  0  0  0  0  0
  -19.6648  -27.3183   20.6720 H   0  0  0  0  0  0
  -17.4184  -26.6682   21.4044 H   0  0  0  0  0  0
  -18.0324  -26.0086   22.9027 H   0  0  0  0  0  0
  -19.7946  -30.7299   24.2230 H   0  0  0  0  0  0
  -17.5014  -31.6263   24.5177 H   0  0  0  0  0  0
  -15.5355  -30.2964   23.7656 H   0  0  0  0  0  0
  -15.8691  -28.0815   22.7072 H   0  0  0  0  0  0
  -24.5875  -30.7164   25.7823 H   0  0  0  0  0  0
  -24.8962  -32.2967   26.4910 H   0  0  0  0  0  0
  -25.8029  -30.8957   27.0268 H   0  0  0  0  0  0
  -26.2969  -29.6738   24.1255 H   0  0  0  0  0  0
  -27.3961  -29.7288   25.4832 H   0  0  0  0  0  0
  -27.8863  -30.4233   23.9573 H   0  0  0  0  0  0
  -27.2689  -33.3664   26.2060 H   0  0  0  0  0  0
  -28.3888  -32.6857   25.0355 H   0  0  0  0  0  0
  -28.0696  -31.8494   26.5482 H   0  0  0  0  0  0
  -28.2608  -38.0071   24.7481 H   0  0  0  0  0  0
  -28.1037  -36.2609   24.6336 H   0  0  0  0  0  0
  -27.2292  -37.1503   25.8877 H   0  0  0  0  0  0
  -20.9429  -29.8814   21.6874 H   0  0  0  0  0  0
  -26.0151  -38.2839   24.1400 H   0  0  0  0  0  0
  -27.0298  -24.7003   20.6329 H   0  0  0  0  0  0
  -30.4230  -21.9040   19.7662 H   0  0  0  0  0  0
  -28.8043  -15.6428   20.8731 H   0  0  0  0  0  0
  -30.7864  -23.4812   20.2499 H   0  0  0  0  0  0
  1 25  1  0  0  0
  1 30  2  0  0  0
  1 80  1  0  0  0
  2  3  1  0  0  0
  2 25  1  0  0  0
  2 87  1  0  0  0
  2 88  1  0  0  0
  3  4  1  0  0  0
  3 89  1  0  0  0
  3 90  1  0  0  0
  4  5  1  0  0  0
  4 91  1  0  0  0
  4 92  1  0  0  0
  5  6  1  0  0  0
  5 26  1  0  0  0
  5 93  1  0  0  0
  6 25  1  0  0  0
  6 94  1  0  0  0
  6 95  1  0  0  0
  7  8  2  0  0  0
  7 26  1  0  0  0
  7 29  1  0  0  0
  8  9  1  0  0  0
  8 22  1  0  0  0
  9 10  1  0  0  0
  9 27  2  0  0  0
 10 11  2  0  0  0
 10 15  1  0  0  0
 11 12  1  0  0  0
 11 96  1  0  0  0
 12 13  2  0  0  0
 12 97  1  0  0  0
 13 14  1  0  0  0
 13 31  1  0  0  0
 14 15  2  0  0  0
 14 98  1  0  0  0
 15 99  1  0  0  0
 16 17  2  0  0  0
 16 21  1  0  0  0
 16 31  1  0  0  0
 17 18  1  0  0  0
 17100  1  0  0  0
 18 19  2  0  0  0
 18101  1  0  0  0
 19 20  1  0  0  0
 19 24  1  0  0  0
 20 21  2  0  0  0
 20102  1  0  0  0
 21 23  1  0  0  0
 22 28  1  0  0  0
 22 32  2  0  0  0
 26 27  1  0  0  0
 28103  1  0  0  0
 28104  1  0  0  0
 29105  1  0  0  0
 29106  1  0  0  0
 33 34  1  0  0  0
 33 66  1  0  0  0
 33 70  2  0  0  0
 34 36  1  0  0  0
 34 59  1  0  0  0
 34107  1  0  0  0
 35 44  2  0  0  0
 35 45  1  0  0  0
 35 68  1  0  0  0
 36 56  1  0  0  0
 36108  1  0  0  0
 37 39  1  0  0  0
 37 47  1  0  0  0
 37 66  1  0  0  0
 37109  1  0  0  0
 38 43  2  0  0  0
 38 46  1  0  0  0
 38 47  1  0  0  0
 39 64  1  0  0  0
 39 67  2  0  0  0
 40 52  1  0  0  0
 40 53  2  0  0  0
 40 58  1  0  0  0
 41110  1  0  0  0
 41111  1  0  0  0
 41112  1  0  0  0
 41 48  1  0  0  0
 42 43  1  0  0  0
 42 66  1  0  0  0
 42113  1  0  0  0
 42114  1  0  0  0
 43 44  1  0  0  0
 44115  1  0  0  0
 45 46  2  0  0  0
 45116  1  0  0  0
 46117  1  0  0  0
 47118  1  0  0  0
 47119  1  0  0  0
 48 56  1  0  0  0
 48 65  1  0  0  0
 48120  1  0  0  0
 49 50  1  0  0  0
 49 53  1  0  0  0
 49 64  1  0  0  0
 49121  1  0  0  0
 50 51  1  0  0  0
 50122  1  0  0  0
 50123  1  0  0  0
 51 52  1  0  0  0
 51124  1  0  0  0
 51125  1  0  0  0
 52126  1  0  0  0
 52127  1  0  0  0
 53 54  1  0  0  0
 54 55  2  0  0  0
 54128  1  0  0  0
 55 57  1  0  0  0
 55129  1  0  0  0
 56 69  2  0  0  0
 57 58  2  0  0  0
 57130  1  0  0  0
 58131  1  0  0  0
 59 60  1  0  0  0
 59 61  1  0  0  0
 59 62  1  0  0  0
 60132  1  0  0  0
 60133  1  0  0  0
 60134  1  0  0  0
 61135  1  0  0  0
 61136  1  0  0  0
 61137  1  0  0  0
 62138  1  0  0  0
 62139  1  0  0  0
 62140  1  0  0  0
 63 65  1  0  0  0
 63141  1  0  0  0
 63142  1  0  0  0
 63143  1  0  0  0
 64144  1  0  0  0
 65145  1  0  0  0
 68 74  1  0  0  0
 71 72  2  0  0  0
 71 77  1  0  0  0
 71 78  1  0  0  0
 72 79  1  0  0  0
 72 86  1  0  0  0
 73 78  2  0  0  0
 73 80  1  0  0  0
 73 86  1  0  0  0
 74 75  2  0  0  0
 74146  1  0  0  0
 75 76  1  0  0  0
 75 82  1  0  0  0
 76 79  1  0  0  0
 76 81  2  0  0  0
 77 83  1  0  0  0
 77 84  1  0  0  0
 77 85  1  0  0  0
 79147  1  0  0  0
 80148  1  0  0  0
 82149  1  0  0  0
M  ISO  4   1 100  68 101  74 101  80 100
M  END
> <chiral flag>
0

> <version>
0

> <s_m_source_file>
/data/baiqing/PycharmProjects/Reinvent-master-3.2/result/LINK_invent/BTK/process_docking_weight1_custom_product_contain_oxygen_bond_distance_aromatic_linkinvent_7_9_3/rearranged_h_0182.sdf

> <i_m_source_file_index>
77

> <r_mmod_Potential_Energy-OPLS-2005>
188.704818725586

> <r_mmod_Stretch_Energy-OPLS-2005>
132.1611328125

> <r_mmod_Bend_Energy-OPLS-2005>
189.428695678711

> <r_mmod_Torsional_Energy-OPLS-2005>
204.563430786133

> <r_mmod_Improper_Torsional_Energy-OPLS-2005>
4.78677368164062

> <r_mmod_Van_der_Waal_Energy-OPLS-2005>
120.017616271973

> <r_mmod_Electrostatic_Energy-OPLS-2005>
-315.906402587891

> <r_mmod_Solvation_Energy-OPLS-2005>
-252.090133666992

> <b_mmod_Minimization_Converged-OPLS-2005>
0

> <r_mmod_RMS_Derivative-OPLS-2005>
2.33874034881592

$$$$
77
                    3D
 Structure written by MMmdl.
154162  0  0  1  0            999 V2000
  -30.6684  -14.5777   20.4227 C   0  0  0  0  0  0
  -30.4212  -12.3331   19.4509 C   0  0  0  0  0  0
  -29.4920  -12.4414   18.2214 C   0  0  0  0  0  0
  -28.0151  -12.3204   18.6379 C   0  0  0  0  0  0
  -27.6480  -13.2133   19.8528 C   0  0  2  0  0  0
  -28.6959  -13.0957   20.9830 C   0  0  0  0  0  0
  -25.2547  -13.8171   20.5684 C   0  0  0  0  0  0
  -24.1812  -13.0441   20.9199 C   0  0  0  0  0  0
  -24.6371  -11.6911   20.8754 C   0  0  0  0  0  0
  -23.9044  -10.4291   21.0424 C   0  0  0  0  0  0
  -24.3604   -9.4211   21.9198 C   0  0  0  0  0  0
  -23.6291   -8.2238   22.0754 C   0  0  0  0  0  0
  -22.4274   -8.0271   21.3541 C   0  0  0  0  0  0
  -21.9906   -9.0246   20.4647 C   0  0  0  0  0  0
  -22.7222  -10.2134   20.3067 C   0  0  0  0  0  0
  -21.6849   -6.0738   22.5282 C   0  0  0  0  0  0
  -21.4007   -6.5641   23.8215 C   0  0  0  0  0  0
  -21.3661   -5.6793   24.9177 C   0  0  0  0  0  0
  -21.6052   -4.3059   24.7226 C   0  0  0  0  0  0
  -21.8817   -3.8147   23.4346 C   0  0  0  0  0  0
  -21.9189   -4.6965   22.3403 C   0  0  0  0  0  0
  -22.7835  -13.5240   21.1864 C   0  0  0  0  0  0
  -22.1663   -4.2152   21.0979 F   0  0  0  0  0  0
  -21.5634   -3.4542   25.7740 F   0  0  0  0  0  0
  -30.0157  -13.3795   20.4047 N   0  0  0  0  0  0
  -26.2960  -12.9347   20.3302 N   0  0  0  0  0  0
  -25.9295  -11.6507   20.5771 N   0  0  0  0  0  0
  -22.0473  -12.8230   22.0413 N   0  0  0  0  0  0
  -25.4267  -15.1893   20.4084 N   0  0  0  0  0  0
  -31.8809  -14.6607   20.2102 O   0  0  0  0  0  0
  -21.6634   -6.8877   21.4241 O   0  0  0  0  0  0
  -22.3529  -14.5553   20.6718 O   0  0  0  0  0  0
  -24.6194  -31.8644   23.2049 C   0  0  0  0  0  0
  -25.9064  -32.4800   23.8365 C   0  0  1  0  0  0
  -27.2280  -27.3799   20.0966 C   0  0  0  0  0  0
  -25.5897  -33.8599   24.2298 N   0  0  0  0  0  0
  -23.4088  -30.4867   21.5477 C   0  0  2  0  0  0
  -24.8516  -28.9451   20.1122 C   0  0  0  0  0  0
  -22.7435  -29.4638   22.4978 C   0  0  0  0  0  0
  -18.0279  -28.1376   22.8492 C   0  0  0  0  0  0
  -24.1482  -36.7307   23.2638 C   0  0  0  0  0  0
  -25.9419  -30.8122   21.3645 C   0  0  0  0  0  0
  -26.0146  -29.4421   20.7119 C   0  0  0  0  0  0
  -27.2017  -28.6665   20.7001 C   0  0  0  0  0  0
  -26.0366  -26.9057   19.5001 C   0  0  0  0  0  0
  -24.8601  -27.6792   19.5035 C   0  0  0  0  0  0
  -23.6179  -29.8187   20.1626 C   0  0  0  0  0  0
  -25.4102  -36.3097   24.0337 C   0  0  1  0  0  0
  -20.5869  -28.3662   23.1314 C   0  0  2  0  0  0
  -20.6758  -26.9397   22.5416 C   0  0  0  0  0  0
  -19.5739  -26.6385   21.5209 C   0  0  0  0  0  0
  -18.1920  -26.7923   22.1625 C   0  0  0  0  0  0
  -19.1527  -28.8841   23.2899 C   0  0  0  0  0  0
  -18.9452  -30.1444   23.8909 C   0  0  0  0  0  0
  -17.6452  -30.6581   24.0566 C   0  0  0  0  0  0
  -25.9040  -34.9466   23.5121 C   0  0  0  0  0  0
  -16.5344  -29.9082   23.6324 C   0  0  0  0  0  0
  -16.7264  -28.6499   23.0347 C   0  0  0  0  0  0
  -26.4470  -31.6591   25.0716 C   0  0  0  0  0  0
  -25.3725  -31.3699   26.1458 C   0  0  0  0  0  0
  -27.0300  -30.3030   24.6111 C   0  0  0  0  0  0
  -27.6043  -32.4309   25.7482 C   0  0  0  0  0  0
  -27.5580  -37.1802   24.8463 C   0  0  0  0  0  0
  -21.4159  -29.3028   22.3726 N   0  0  0  0  0  0
  -26.4284  -37.3786   23.9415 N   0  0  0  0  0  0
  -24.6754  -31.0705   22.0968 N   0  0  0  0  0  0
  -23.4194  -28.8190   23.3042 O   0  0  0  0  0  0
  -28.4010  -26.6341   20.1310 O   0  0  0  0  0  0
  -26.5615  -34.8926   22.4690 O   0  0  0  0  0  0
  -23.5374  -32.1424   23.7415 O   0  0  0  0  0  0
  -30.5138  -17.6346   17.2834 C   0  0  0  0  0  0
  -30.0583  -18.9089   17.6452 C   0  0  0  0  0  0
  -30.4732  -16.5935   18.2138 C   0  0  0  0  0  0
  -29.6034  -19.1264   18.9700 C   0  0  0  0  0  0
  -29.9954  -16.8327   19.5333 C   0  0  0  0  0  0
  -28.4857  -22.7520   19.3714 C   0  0  0  0  0  0
  -28.7317  -21.3348   20.0403 C   0  0  0  0  0  0
  -28.3177  -24.0424   20.2275 C   0  0  0  0  0  0
  -28.5299  -25.3738   19.4171 C   0  0  0  0  0  0
  -29.5623  -18.0990   19.8844 N   0  0  0  0  0  0
  -30.0445  -19.9264   16.6716 N   0  0  0  0  0  0
  -29.2435  -20.5023   19.1137 N   0  0  0  0  0  0
  -29.8842  -15.6933   20.4271 N   0  0  0  0  0  0
  -28.4192  -22.8377   18.1366 O   0  0  0  0  0  0
  -28.4804  -21.0633   21.2203 O   0  0  0  0  0  0
  -30.8583  -15.3697   17.7842 F   0  0  0  0  0  0
  -31.4644  -12.4281   19.1427 H   0  0  0  0  0  0
  -30.3331  -11.3492   19.9149 H   0  0  0  0  0  0
  -29.7399  -11.6654   17.4963 H   0  0  0  0  0  0
  -29.6423  -13.3870   17.7061 H   0  0  0  0  0  0
  -27.8323  -11.2732   18.8813 H   0  0  0  0  0  0
  -27.3648  -12.5522   17.7937 H   0  0  0  0  0  0
  -27.6602  -14.2398   19.4880 H   0  0  0  0  0  0
  -28.6848  -12.0950   21.4172 H   0  0  0  0  0  0
  -28.4661  -13.7837   21.7988 H   0  0  0  0  0  0
  -25.2746   -9.5697   22.4770 H   0  0  0  0  0  0
  -24.0013   -7.4625   22.7460 H   0  0  0  0  0  0
  -21.0843   -8.8759   19.8943 H   0  0  0  0  0  0
  -22.3679  -10.9675   19.6177 H   0  0  0  0  0  0
  -21.1992   -7.6149   23.9720 H   0  0  0  0  0  0
  -21.1491   -6.0521   25.9083 H   0  0  0  0  0  0
  -22.0595   -2.7608   23.2839 H   0  0  0  0  0  0
  -22.4069  -11.9884   22.4802 H   0  0  0  0  0  0
  -21.1091  -13.1264   22.2614 H   0  0  0  0  0  0
  -24.6559  -15.8397   20.5119 H   0  0  0  0  0  0
  -26.2705  -15.6318   20.0692 H   0  0  0  0  0  0
  -26.7135  -32.5493   23.1123 H   0  0  0  0  0  0
  -25.0018  -33.9746   25.0424 H   0  0  0  0  0  0
  -22.6995  -31.3048   21.4065 H   0  0  0  0  0  0
  -23.3742  -35.9640   23.3297 H   0  0  0  0  0  0
  -24.3581  -36.8929   22.2054 H   0  0  0  0  0  0
  -23.7232  -37.6509   23.6658 H   0  0  0  0  0  0
  -26.0615  -31.5744   20.5934 H   0  0  0  0  0  0
  -26.8276  -30.8654   21.9858 H   0  0  0  0  0  0
  -28.0997  -29.0473   21.1659 H   0  0  0  0  0  0
  -25.9796  -25.9300   19.0421 H   0  0  0  0  0  0
  -23.9631  -27.2886   19.0423 H   0  0  0  0  0  0
  -23.7312  -30.5924   19.4026 H   0  0  0  0  0  0
  -22.7397  -29.2420   19.8667 H   0  0  0  0  0  0
  -25.1275  -36.1953   25.0828 H   0  0  0  0  0  0
  -20.9955  -28.3214   24.1435 H   0  0  0  0  0  0
  -20.5646  -26.2268   23.3601 H   0  0  0  0  0  0
  -21.6629  -26.7428   22.1215 H   0  0  0  0  0  0
  -19.6894  -25.6299   21.1232 H   0  0  0  0  0  0
  -19.6675  -27.3205   20.6746 H   0  0  0  0  0  0
  -17.4186  -26.6669   21.4030 H   0  0  0  0  0  0
  -18.0329  -26.0065   22.9025 H   0  0  0  0  0  0
  -19.7928  -30.7256   24.2285 H   0  0  0  0  0  0
  -17.5007  -31.6260   24.5164 H   0  0  0  0  0  0
  -15.5344  -30.2985   23.7637 H   0  0  0  0  0  0
  -15.8668  -28.0819   22.7052 H   0  0  0  0  0  0
  -24.5905  -30.7039   25.7790 H   0  0  0  0  0  0
  -24.8904  -32.2851   26.4906 H   0  0  0  0  0  0
  -25.8072  -30.8869   27.0219 H   0  0  0  0  0  0
  -26.2847  -29.6800   24.1151 H   0  0  0  0  0  0
  -27.4047  -29.7259   25.4574 H   0  0  0  0  0  0
  -27.8693  -30.4342   23.9278 H   0  0  0  0  0  0
  -27.2663  -33.3603   26.2075 H   0  0  0  0  0  0
  -28.3842  -32.6876   25.0301 H   0  0  0  0  0  0
  -28.0723  -31.8425   26.5384 H   0  0  0  0  0  0
  -28.2584  -38.0114   24.7529 H   0  0  0  0  0  0
  -28.1090  -36.2646   24.6254 H   0  0  0  0  0  0
  -27.2312  -37.1415   25.8870 H   0  0  0  0  0  0
  -20.9330  -29.8759   21.6950 H   0  0  0  0  0  0
  -26.0174  -38.2862   24.1421 H   0  0  0  0  0  0
  -30.8638  -17.4359   16.2810 H   0  0  0  0  0  0
  -29.0214  -23.9970   21.0579 H   0  0  0  0  0  0
  -27.3178  -24.0288   20.6595 H   0  0  0  0  0  0
  -27.9451  -25.3779   18.4982 H   0  0  0  0  0  0
  -29.5605  -25.3651   19.0607 H   0  0  0  0  0  0
  -30.3773  -19.6546   15.7497 H   0  0  0  0  0  0
  -29.1683  -20.4323   16.5629 H   0  0  0  0  0  0
  -29.4071  -20.9872   18.2381 H   0  0  0  0  0  0
  -28.9771  -15.5812   20.8460 H   0  0  0  0  0  0
  1 25  1  0  0  0
  1 30  2  0  0  0
  1 83  1  0  0  0
  2  3  1  0  0  0
  2 25  1  0  0  0
  2 87  1  0  0  0
  2 88  1  0  0  0
  3  4  1  0  0  0
  3 89  1  0  0  0
  3 90  1  0  0  0
  4  5  1  0  0  0
  4 91  1  0  0  0
  4 92  1  0  0  0
  5  6  1  0  0  0
  5 26  1  0  0  0
  5 93  1  0  0  0
  6 25  1  0  0  0
  6 94  1  0  0  0
  6 95  1  0  0  0
  7  8  2  0  0  0
  7 26  1  0  0  0
  7 29  1  0  0  0
  8  9  1  0  0  0
  8 22  1  0  0  0
  9 10  1  0  0  0
  9 27  2  0  0  0
 10 11  2  0  0  0
 10 15  1  0  0  0
 11 12  1  0  0  0
 11 96  1  0  0  0
 12 13  2  0  0  0
 12 97  1  0  0  0
 13 14  1  0  0  0
 13 31  1  0  0  0
 14 15  2  0  0  0
 14 98  1  0  0  0
 15 99  1  0  0  0
 16 17  2  0  0  0
 16 21  1  0  0  0
 16 31  1  0  0  0
 17 18  1  0  0  0
 17100  1  0  0  0
 18 19  2  0  0  0
 18101  1  0  0  0
 19 20  1  0  0  0
 19 24  1  0  0  0
 20 21  2  0  0  0
 20102  1  0  0  0
 21 23  1  0  0  0
 22 28  1  0  0  0
 22 32  2  0  0  0
 26 27  1  0  0  0
 28103  1  0  0  0
 28104  1  0  0  0
 29105  1  0  0  0
 29106  1  0  0  0
 33 34  1  0  0  0
 33 66  1  0  0  0
 33 70  2  0  0  0
 34 36  1  0  0  0
 34 59  1  0  0  0
 34107  1  0  0  0
 35 44  2  0  0  0
 35 45  1  0  0  0
 35 68  1  0  0  0
 36 56  1  0  0  0
 36108  1  0  0  0
 37 39  1  0  0  0
 37 47  1  0  0  0
 37 66  1  0  0  0
 37109  1  0  0  0
 38 43  2  0  0  0
 38 46  1  0  0  0
 38 47  1  0  0  0
 39 64  1  0  0  0
 39 67  2  0  0  0
 40 52  1  0  0  0
 40 53  2  0  0  0
 40 58  1  0  0  0
 41110  1  0  0  0
 41111  1  0  0  0
 41112  1  0  0  0
 41 48  1  0  0  0
 42 43  1  0  0  0
 42 66  1  0  0  0
 42113  1  0  0  0
 42114  1  0  0  0
 43 44  1  0  0  0
 44115  1  0  0  0
 45 46  2  0  0  0
 45116  1  0  0  0
 46117  1  0  0  0
 47118  1  0  0  0
 47119  1  0  0  0
 48 56  1  0  0  0
 48 65  1  0  0  0
 48120  1  0  0  0
 49 50  1  0  0  0
 49 53  1  0  0  0
 49 64  1  0  0  0
 49121  1  0  0  0
 50 51  1  0  0  0
 50122  1  0  0  0
 50123  1  0  0  0
 51 52  1  0  0  0
 51124  1  0  0  0
 51125  1  0  0  0
 52126  1  0  0  0
 52127  1  0  0  0
 53 54  1  0  0  0
 54 55  2  0  0  0
 54128  1  0  0  0
 55 57  1  0  0  0
 55129  1  0  0  0
 56 69  2  0  0  0
 57 58  2  0  0  0
 57130  1  0  0  0
 58131  1  0  0  0
 59 60  1  0  0  0
 59 61  1  0  0  0
 59 62  1  0  0  0
 60132  1  0  0  0
 60133  1  0  0  0
 60134  1  0  0  0
 61135  1  0  0  0
 61136  1  0  0  0
 61137  1  0  0  0
 62138  1  0  0  0
 62139  1  0  0  0
 62140  1  0  0  0
 63 65  1  0  0  0
 63141  1  0  0  0
 63142  1  0  0  0
 63143  1  0  0  0
 64144  1  0  0  0
 65145  1  0  0  0
 68 79  1  0  0  0
 71 72  2  0  0  0
 71 73  1  0  0  0
 71146  1  0  0  0
 72 74  1  0  0  0
 72 81  1  0  0  0
 73 75  2  0  0  0
 73 86  1  0  0  0
 74 80  2  0  0  0
 74 82  1  0  0  0
 75 80  1  0  0  0
 75 83  1  0  0  0
 76 77  1  0  0  0
 76 78  1  0  0  0
 76 84  2  0  0  0
 77 82  1  0  0  0
 77 85  2  0  0  0
 78 79  1  0  0  0
 78147  1  0  0  0
 78148  1  0  0  0
 79149  1  0  0  0
 79150  1  0  0  0
 81151  1  0  0  0
 81152  1  0  0  0
 82153  1  0  0  0
 83154  1  0  0  0
M  ISO  4   1 100  68 101  79 101  83 100
M  END
> <chiral flag>
0

> <version>
0

> <s_m_source_file>
/data/baiqing/PycharmProjects/Reinvent-master-3.2/result/LINK_invent/BTK/process_docking_weight1_custom_product_contain_oxygen_bond_distance_aromatic_linkinvent_7_9_3/rearranged_h_0182.sdf

> <i_m_source_file_index>
78

> <r_mmod_Potential_Energy-OPLS-2005>
-156.116622924805

> <r_mmod_Stretch_Energy-OPLS-2005>
58.7098159790039

> <r_mmod_Bend_Energy-OPLS-2005>
163.766662597656

> <r_mmod_Torsional_Energy-OPLS-2005>
249.114196777344

> <r_mmod_Improper_Torsional_Energy-OPLS-2005>
12.6791772842407

> <r_mmod_Van_der_Waal_Energy-OPLS-2005>
168.814422607422

> <r_mmod_Electrostatic_Energy-OPLS-2005>
-590.590759277344

> <r_mmod_Solvation_Energy-OPLS-2005>
-254.426315307617

> <b_mmod_Minimization_Converged-OPLS-2005>
0

> <r_mmod_RMS_Derivative-OPLS-2005>
1.07854771614075

$$$$
78
                    3D
 Structure written by MMmdl.
160168  0  0  1  0            999 V2000
  -30.7245  -14.6614   20.3197 C   0  0  0  0  0  0
  -30.4106  -12.4006   19.4199 C   0  0  0  0  0  0
  -29.4777  -12.4420   18.1998 C   0  0  0  0  0  0
  -28.0089  -12.2876   18.6403 C   0  0  0  0  0  0
  -27.6300  -13.1864   19.8479 C   0  0  2  0  0  0
  -28.7091  -13.2198   20.9465 C   0  0  0  0  0  0
  -25.2540  -13.8048   20.5869 C   0  0  0  0  0  0
  -24.1779  -13.0349   20.9289 C   0  0  0  0  0  0
  -24.6335  -11.6824   20.8833 C   0  0  0  0  0  0
  -23.9013  -10.4245   21.0461 C   0  0  0  0  0  0
  -24.3580   -9.4163   21.9214 C   0  0  0  0  0  0
  -23.6259   -8.2204   22.0760 C   0  0  0  0  0  0
  -22.4238   -8.0261   21.3558 C   0  0  0  0  0  0
  -21.9876   -9.0235   20.4661 C   0  0  0  0  0  0
  -22.7210  -10.2111   20.3085 C   0  0  0  0  0  0
  -21.6842   -6.0726   22.5280 C   0  0  0  0  0  0
  -21.4009   -6.5632   23.8215 C   0  0  0  0  0  0
  -21.3649   -5.6784   24.9176 C   0  0  0  0  0  0
  -21.6048   -4.3049   24.7223 C   0  0  0  0  0  0
  -21.8826   -3.8143   23.4343 C   0  0  0  0  0  0
  -21.9194   -4.6960   22.3399 C   0  0  0  0  0  0
  -22.7806  -13.5172   21.1899 C   0  0  0  0  0  0
  -22.1661   -4.2138   21.0980 F   0  0  0  0  0  0
  -21.5622   -3.4526   25.7729 F   0  0  0  0  0  0
  -29.9849  -13.5118   20.2825 N   0  0  0  0  0  0
  -26.2921  -12.9165   20.3489 N   0  0  0  0  0  0
  -25.9252  -11.6363   20.5907 N   0  0  0  0  0  0
  -22.0437  -12.8176   22.0446 N   0  0  0  0  0  0
  -25.4237  -15.1767   20.4359 N   0  0  0  0  0  0
  -31.9411  -14.5828   20.4860 O   0  0  0  0  0  0
  -21.6613   -6.8855   21.4240 O   0  0  0  0  0  0
  -22.3510  -14.5477   20.6724 O   0  0  0  0  0  0
  -24.6167  -31.8683   23.2072 C   0  0  0  0  0  0
  -25.9068  -32.4830   23.8381 C   0  0  1  0  0  0
  -27.2369  -27.4073   20.1205 C   0  0  0  0  0  0
  -25.5919  -33.8616   24.2320 N   0  0  0  0  0  0
  -23.4042  -30.4906   21.5475 C   0  0  2  0  0  0
  -24.8544  -28.9459   20.1198 C   0  0  0  0  0  0
  -22.7406  -29.4687   22.4983 C   0  0  0  0  0  0
  -18.0263  -28.1397   22.8487 C   0  0  0  0  0  0
  -24.1485  -36.7297   23.2629 C   0  0  0  0  0  0
  -25.9353  -30.8278   21.3613 C   0  0  0  0  0  0
  -26.0170  -29.4585   20.7116 C   0  0  0  0  0  0
  -27.2134  -28.7012   20.6996 C   0  0  0  0  0  0
  -26.0572  -26.9121   19.5271 C   0  0  0  0  0  0
  -24.8714  -27.6729   19.5233 C   0  0  0  0  0  0
  -23.6154  -29.8137   20.1660 C   0  0  0  0  0  0
  -25.4112  -36.3108   24.0331 C   0  0  1  0  0  0
  -20.5857  -28.3702   23.1310 C   0  0  2  0  0  0
  -20.6757  -26.9435   22.5404 C   0  0  0  0  0  0
  -19.5737  -26.6403   21.5200 C   0  0  0  0  0  0
  -18.1913  -26.7946   22.1605 C   0  0  0  0  0  0
  -19.1514  -28.8857   23.2907 C   0  0  0  0  0  0
  -18.9453  -30.1455   23.8923 C   0  0  0  0  0  0
  -17.6463  -30.6612   24.0569 C   0  0  0  0  0  0
  -25.9037  -34.9473   23.5129 C   0  0  0  0  0  0
  -16.5351  -29.9124   23.6319 C   0  0  0  0  0  0
  -16.7255  -28.6535   23.0354 C   0  0  0  0  0  0
  -26.4491  -31.6591   25.0696 C   0  0  0  0  0  0
  -25.3762  -31.3711   26.1453 C   0  0  0  0  0  0
  -27.0307  -30.3013   24.6075 C   0  0  0  0  0  0
  -27.6057  -32.4312   25.7464 C   0  0  0  0  0  0
  -27.5584  -37.1807   24.8467 C   0  0  0  0  0  0
  -21.4128  -29.3072   22.3712 N   0  0  0  0  0  0
  -26.4305  -37.3792   23.9412 N   0  0  0  0  0  0
  -24.6704  -31.0776   22.0971 N   0  0  0  0  0  0
  -23.4173  -28.8239   23.3040 O   0  0  0  0  0  0
  -28.3903  -26.6442   20.1035 O   0  0  0  0  0  0
  -26.5606  -34.8939   22.4679 O   0  0  0  0  0  0
  -23.5362  -32.1438   23.7470 O   0  0  0  0  0  0
  -29.5581  -18.0088   20.3682 C   0  0  0  0  0  0
  -27.4171  -18.8756   19.5683 C   0  0  0  0  0  0
  -28.0891  -16.6082   19.0289 C   0  0  0  0  0  0
  -28.6563  -19.1147   20.2048 C   0  0  0  0  0  0
  -29.2797  -16.7255   19.7805 C   0  0  0  0  0  0
  -27.1458  -17.6422   18.9644 C   0  0  0  0  0  0
  -28.7410  -22.8679   20.7290 C   0  0  0  0  0  0
  -28.4036  -24.0906   20.2013 C   0  0  0  0  0  0
  -28.6610  -21.6095   19.9454 C   0  0  0  0  0  0
  -30.7835  -17.1623   17.4333 C   0  0  0  0  0  0
  -28.3906  -25.4551   20.9385 C   0  0  0  0  0  0
  -31.2855  -16.1453   18.4860 C   0  0  0  0  0  0
  -28.9535  -20.4675   20.6313 N   0  0  0  0  0  0
  -30.3052  -15.7274   19.5278 N   0  0  0  0  0  0
  -28.3597  -21.5769   18.7468 O   0  0  0  0  0  0
  -29.1372  -22.7759   22.0110 O   0  0  0  0  0  0
  -28.0184  -24.2733   18.9277 O   0  0  0  0  0  0
  -26.0063  -17.4766   18.2519 F   0  0  0  0  0  0
  -31.4496  -12.4963   19.0980 H   0  0  0  0  0  0
  -30.3358  -11.4487   19.9475 H   0  0  0  0  0  0
  -29.7393  -11.6459   17.5022 H   0  0  0  0  0  0
  -29.6139  -13.3817   17.6603 H   0  0  0  0  0  0
  -27.8512  -11.2421   18.9044 H   0  0  0  0  0  0
  -27.3425  -12.4892   17.7999 H   0  0  0  0  0  0
  -27.5745  -14.1752   19.4453 H   0  0  0  0  0  0
  -28.7626  -12.2732   21.4824 H   0  0  0  0  0  0
  -28.4768  -13.9908   21.6818 H   0  0  0  0  0  0
  -25.2735   -9.5618   22.4776 H   0  0  0  0  0  0
  -23.9989   -7.4564   22.7427 H   0  0  0  0  0  0
  -21.0832   -8.8754   19.8925 H   0  0  0  0  0  0
  -22.3704  -10.9657   19.6186 H   0  0  0  0  0  0
  -21.2008   -7.6140   23.9710 H   0  0  0  0  0  0
  -21.1460   -6.0523   25.9077 H   0  0  0  0  0  0
  -22.0619   -2.7606   23.2851 H   0  0  0  0  0  0
  -22.4030  -11.9837   22.4857 H   0  0  0  0  0  0
  -21.1061  -13.1232   22.2619 H   0  0  0  0  0  0
  -24.6507  -15.8279   20.5227 H   0  0  0  0  0  0
  -26.2790  -15.6177   20.1287 H   0  0  0  0  0  0
  -26.7135  -32.5562   23.1139 H   0  0  0  0  0  0
  -25.0077  -33.9752   25.0485 H   0  0  0  0  0  0
  -22.6930  -31.3077   21.4047 H   0  0  0  0  0  0
  -23.3752  -35.9623   23.3310 H   0  0  0  0  0  0
  -24.3564  -36.8892   22.2032 H   0  0  0  0  0  0
  -23.7235  -37.6506   23.6639 H   0  0  0  0  0  0
  -26.0465  -31.5931   20.5914 H   0  0  0  0  0  0
  -26.8225  -30.8862   21.9797 H   0  0  0  0  0  0
  -28.1139  -29.0972   21.1478 H   0  0  0  0  0  0
  -26.0502  -25.9319   19.0716 H   0  0  0  0  0  0
  -23.9754  -27.2689   19.0712 H   0  0  0  0  0  0
  -23.7250  -30.5848   19.4036 H   0  0  0  0  0  0
  -22.7385  -29.2346   19.8718 H   0  0  0  0  0  0
  -25.1286  -36.1957   25.0828 H   0  0  0  0  0  0
  -20.9959  -28.3309   24.1436 H   0  0  0  0  0  0
  -20.5637  -26.2330   23.3605 H   0  0  0  0  0  0
  -21.6639  -26.7485   22.1209 H   0  0  0  0  0  0
  -19.6906  -25.6321   21.1216 H   0  0  0  0  0  0
  -19.6662  -27.3224   20.6739 H   0  0  0  0  0  0
  -17.4165  -26.6678   21.4020 H   0  0  0  0  0  0
  -18.0352  -26.0084   22.8998 H   0  0  0  0  0  0
  -19.7937  -30.7252   24.2317 H   0  0  0  0  0  0
  -17.5024  -31.6280   24.5194 H   0  0  0  0  0  0
  -15.5357  -30.3043   23.7638 H   0  0  0  0  0  0
  -15.8639  -28.0862   22.7086 H   0  0  0  0  0  0
  -24.5946  -30.7040   25.7809 H   0  0  0  0  0  0
  -24.8937  -32.2867   26.4882 H   0  0  0  0  0  0
  -25.8129  -30.8898   27.0212 H   0  0  0  0  0  0
  -26.2858  -29.6770   24.1112 H   0  0  0  0  0  0
  -27.4081  -29.7258   25.4544 H   0  0  0  0  0  0
  -27.8698  -30.4291   23.9229 H   0  0  0  0  0  0
  -27.2674  -33.3611   26.2047 H   0  0  0  0  0  0
  -28.3873  -32.6879   25.0300 H   0  0  0  0  0  0
  -28.0706  -31.8416   26.5369 H   0  0  0  0  0  0
  -28.2625  -38.0091   24.7535 H   0  0  0  0  0  0
  -28.1081  -36.2635   24.6281 H   0  0  0  0  0  0
  -27.2303  -37.1438   25.8876 H   0  0  0  0  0  0
  -20.9308  -29.8761   21.6884 H   0  0  0  0  0  0
  -26.0187  -38.2868   24.1434 H   0  0  0  0  0  0
  -30.5228  -18.1819   20.8234 H   0  0  0  0  0  0
  -26.6873  -19.6657   19.4602 H   0  0  0  0  0  0
  -27.9381  -15.7713   18.3695 H   0  0  0  0  0  0
  -31.5291  -17.3052   16.6527 H   0  0  0  0  0  0
  -30.6001  -18.1476   17.8634 H   0  0  0  0  0  0
  -29.8645  -16.8308   16.9498 H   0  0  0  0  0  0
  -29.2859  -25.5100   21.5583 H   0  0  0  0  0  0
  -27.5489  -25.4690   21.6337 H   0  0  0  0  0  0
  -32.1707  -16.5703   18.9668 H   0  0  0  0  0  0
  -31.6214  -15.2574   17.9451 H   0  0  0  0  0  0
  -29.3490  -20.6038   21.5533 H   0  0  0  0  0  0
  -29.1231  -23.6466   22.3827 H   0  0  0  0  0  0
  -28.0074  -23.4127   18.5145 H   0  0  0  0  0  0
  1 25  1  0  0  0
  1 30  2  0  0  0
  1 84  1  0  0  0
  2  3  1  0  0  0
  2 25  1  0  0  0
  2 89  1  0  0  0
  2 90  1  0  0  0
  3  4  1  0  0  0
  3 91  1  0  0  0
  3 92  1  0  0  0
  4  5  1  0  0  0
  4 93  1  0  0  0
  4 94  1  0  0  0
  5  6  1  0  0  0
  5 26  1  0  0  0
  5 95  1  0  0  0
  6 25  1  0  0  0
  6 96  1  0  0  0
  6 97  1  0  0  0
  7  8  2  0  0  0
  7 26  1  0  0  0
  7 29  1  0  0  0
  8  9  1  0  0  0
  8 22  1  0  0  0
  9 10  1  0  0  0
  9 27  2  0  0  0
 10 11  2  0  0  0
 10 15  1  0  0  0
 11 12  1  0  0  0
 11 98  1  0  0  0
 12 13  2  0  0  0
 12 99  1  0  0  0
 13 14  1  0  0  0
 13 31  1  0  0  0
 14 15  2  0  0  0
 14100  1  0  0  0
 15101  1  0  0  0
 16 17  2  0  0  0
 16 21  1  0  0  0
 16 31  1  0  0  0
 17 18  1  0  0  0
 17102  1  0  0  0
 18 19  2  0  0  0
 18103  1  0  0  0
 19 20  1  0  0  0
 19 24  1  0  0  0
 20 21  2  0  0  0
 20104  1  0  0  0
 21 23  1  0  0  0
 22 28  1  0  0  0
 22 32  2  0  0  0
 26 27  1  0  0  0
 28105  1  0  0  0
 28106  1  0  0  0
 29107  1  0  0  0
 29108  1  0  0  0
 33 34  1  0  0  0
 33 66  1  0  0  0
 33 70  2  0  0  0
 34 36  1  0  0  0
 34 59  1  0  0  0
 34109  1  0  0  0
 35 44  2  0  0  0
 35 45  1  0  0  0
 35 68  1  0  0  0
 36 56  1  0  0  0
 36110  1  0  0  0
 37 39  1  0  0  0
 37 47  1  0  0  0
 37 66  1  0  0  0
 37111  1  0  0  0
 38 43  2  0  0  0
 38 46  1  0  0  0
 38 47  1  0  0  0
 39 64  1  0  0  0
 39 67  2  0  0  0
 40 52  1  0  0  0
 40 53  2  0  0  0
 40 58  1  0  0  0
 41112  1  0  0  0
 41113  1  0  0  0
 41114  1  0  0  0
 41 48  1  0  0  0
 42 43  1  0  0  0
 42 66  1  0  0  0
 42115  1  0  0  0
 42116  1  0  0  0
 43 44  1  0  0  0
 44117  1  0  0  0
 45 46  2  0  0  0
 45118  1  0  0  0
 46119  1  0  0  0
 47120  1  0  0  0
 47121  1  0  0  0
 48 56  1  0  0  0
 48 65  1  0  0  0
 48122  1  0  0  0
 49 50  1  0  0  0
 49 53  1  0  0  0
 49 64  1  0  0  0
 49123  1  0  0  0
 50 51  1  0  0  0
 50124  1  0  0  0
 50125  1  0  0  0
 51 52  1  0  0  0
 51126  1  0  0  0
 51127  1  0  0  0
 52128  1  0  0  0
 52129  1  0  0  0
 53 54  1  0  0  0
 54 55  2  0  0  0
 54130  1  0  0  0
 55 57  1  0  0  0
 55131  1  0  0  0
 56 69  2  0  0  0
 57 58  2  0  0  0
 57132  1  0  0  0
 58133  1  0  0  0
 59 60  1  0  0  0
 59 61  1  0  0  0
 59 62  1  0  0  0
 60134  1  0  0  0
 60135  1  0  0  0
 60136  1  0  0  0
 61137  1  0  0  0
 61138  1  0  0  0
 61139  1  0  0  0
 62140  1  0  0  0
 62141  1  0  0  0
 62142  1  0  0  0
 63 65  1  0  0  0
 63143  1  0  0  0
 63144  1  0  0  0
 63145  1  0  0  0
 64146  1  0  0  0
 65147  1  0  0  0
 68 81  1  0  0  0
 71 74  2  0  0  0
 71 75  1  0  0  0
 71148  1  0  0  0
 72 74  1  0  0  0
 72 76  2  0  0  0
 72149  1  0  0  0
 73 75  2  0  0  0
 73 76  1  0  0  0
 73150  1  0  0  0
 74 83  1  0  0  0
 75 84  1  0  0  0
 76 88  1  0  0  0
 77 78  2  0  0  0
 77 79  1  0  0  0
 77 86  1  0  0  0
 78 81  1  0  0  0
 78 87  1  0  0  0
 79 83  1  0  0  0
 79 85  2  0  0  0
 80 82  1  0  0  0
 80151  1  0  0  0
 80152  1  0  0  0
 80153  1  0  0  0
 81154  1  0  0  0
 81155  1  0  0  0
 82 84  1  0  0  0
 82156  1  0  0  0
 82157  1  0  0  0
 83158  1  0  0  0
 86159  1  0  0  0
 87160  1  0  0  0
M  ISO  4   1 100  68 101  81 101  84 100
M  END
> <chiral flag>
0

> <version>
0

> <s_m_source_file>
/data/baiqing/PycharmProjects/Reinvent-master-3.2/result/LINK_invent/BTK/process_docking_weight1_custom_product_contain_oxygen_bond_distance_aromatic_linkinvent_7_9_3/rearranged_h_0182.sdf

> <i_m_source_file_index>
79

> <r_mmod_Potential_Energy-OPLS-2005>
342.849243164062

> <r_mmod_Stretch_Energy-OPLS-2005>
65.534423828125

> <r_mmod_Bend_Energy-OPLS-2005>
132.547866821289

> <r_mmod_Torsional_Energy-OPLS-2005>
358.008331298828

> <r_mmod_Improper_Torsional_Energy-OPLS-2005>
31.8928108215332

> <r_mmod_Van_der_Waal_Energy-OPLS-2005>
169.90754699707

> <r_mmod_Electrostatic_Energy-OPLS-2005>
-283.949188232422

> <r_mmod_Solvation_Energy-OPLS-2005>
-209.324737548828

> <b_mmod_Minimization_Converged-OPLS-2005>
0

> <r_mmod_RMS_Derivative-OPLS-2005>
3.31001210212708

$$$$
79
                    3D
 Structure written by MMmdl.
152160  0  0  1  0            999 V2000
  -30.5751  -14.8280   20.4402 C   0  0  0  0  0  0
  -30.4393  -12.5049   19.4810 C   0  0  0  0  0  0
  -29.5163  -12.5201   18.2412 C   0  0  0  0  0  0
  -28.0453  -12.3216   18.6567 C   0  0  0  0  0  0
  -27.6383  -13.2330   19.8450 C   0  0  2  0  0  0
  -28.6842  -13.2010   20.9804 C   0  0  0  0  0  0
  -25.2494  -13.8194   20.5678 C   0  0  0  0  0  0
  -24.1794  -13.0436   20.9198 C   0  0  0  0  0  0
  -24.6393  -11.6918   20.8740 C   0  0  0  0  0  0
  -23.9068  -10.4297   21.0400 C   0  0  0  0  0  0
  -24.3621   -9.4216   21.9184 C   0  0  0  0  0  0
  -23.6303   -8.2248   22.0758 C   0  0  0  0  0  0
  -22.4290   -8.0275   21.3537 C   0  0  0  0  0  0
  -21.9916   -9.0251   20.4647 C   0  0  0  0  0  0
  -22.7238  -10.2133   20.3060 C   0  0  0  0  0  0
  -21.6859   -6.0730   22.5280 C   0  0  0  0  0  0
  -21.4026   -6.5637   23.8213 C   0  0  0  0  0  0
  -21.3668   -5.6788   24.9179 C   0  0  0  0  0  0
  -21.6048   -4.3051   24.7225 C   0  0  0  0  0  0
  -21.8818   -3.8139   23.4346 C   0  0  0  0  0  0
  -21.9198   -4.6958   22.3402 C   0  0  0  0  0  0
  -22.7817  -13.5217   21.1854 C   0  0  0  0  0  0
  -22.1659   -4.2144   21.0978 F   0  0  0  0  0  0
  -21.5632   -3.4533   25.7738 F   0  0  0  0  0  0
  -29.9748  -13.5812   20.3904 N   0  0  0  0  0  0
  -26.2924  -12.9402   20.3255 N   0  0  0  0  0  0
  -25.9327  -11.6537   20.5736 N   0  0  0  0  0  0
  -22.0459  -12.8218   22.0410 N   0  0  0  0  0  0
  -25.4154  -15.1924   20.4079 N   0  0  0  0  0  0
  -31.7777  -14.9173   20.1696 O   0  0  0  0  0  0
  -21.6655   -6.8869   21.4238 O   0  0  0  0  0  0
  -22.3494  -14.5513   20.6689 O   0  0  0  0  0  0
  -24.6351  -31.8527   23.1929 C   0  0  0  0  0  0
  -25.9165  -32.4725   23.8300 C   0  0  1  0  0  0
  -27.2250  -27.2283   20.1473 C   0  0  0  0  0  0
  -25.5936  -33.8528   24.2238 N   0  0  0  0  0  0
  -23.4319  -30.4730   21.5368 C   0  0  2  0  0  0
  -24.8786  -28.8996   20.1191 C   0  0  0  0  0  0
  -22.7511  -29.4631   22.4915 C   0  0  0  0  0  0
  -18.0300  -28.1410   22.8478 C   0  0  0  0  0  0
  -24.1492  -36.7270   23.2642 C   0  0  0  0  0  0
  -25.9790  -30.7543   21.3747 C   0  0  0  0  0  0
  -26.0513  -29.3707   20.7233 C   0  0  0  0  0  0
  -27.2287  -28.5505   20.7173 C   0  0  0  0  0  0
  -26.0281  -26.8217   19.5244 C   0  0  0  0  0  0
  -24.8730  -27.6339   19.5078 C   0  0  0  0  0  0
  -23.6513  -29.7937   20.1577 C   0  0  0  0  0  0
  -25.4112  -36.3062   24.0341 C   0  0  1  0  0  0
  -20.5899  -28.3747   23.1247 C   0  0  2  0  0  0
  -20.6794  -26.9457   22.5403 C   0  0  0  0  0  0
  -19.5764  -26.6402   21.5213 C   0  0  0  0  0  0
  -18.1944  -26.7948   22.1625 C   0  0  0  0  0  0
  -19.1551  -28.8890   23.2856 C   0  0  0  0  0  0
  -18.9478  -30.1479   23.8883 C   0  0  0  0  0  0
  -17.6482  -30.6602   24.0565 C   0  0  0  0  0  0
  -25.9068  -34.9431   23.5105 C   0  0  0  0  0  0
  -16.5371  -29.9104   23.6331 C   0  0  0  0  0  0
  -16.7288  -28.6526   23.0343 C   0  0  0  0  0  0
  -26.4501  -31.6542   25.0705 C   0  0  0  0  0  0
  -25.3692  -31.3713   26.1407 C   0  0  0  0  0  0
  -27.0341  -30.2948   24.6228 C   0  0  0  0  0  0
  -27.6071  -32.4255   25.7471 C   0  0  0  0  0  0
  -27.5580  -37.1783   24.8465 C   0  0  0  0  0  0
  -21.4224  -29.3073   22.3627 N   0  0  0  0  0  0
  -26.4285  -37.3765   23.9420 N   0  0  0  0  0  0
  -24.7013  -31.0469   22.0907 N   0  0  0  0  0  0
  -23.4197  -28.8215   23.3058 O   0  0  0  0  0  0
  -28.3407  -26.3497   20.1190 O   0  0  0  0  0  0
  -26.5656  -34.8925   22.4685 O   0  0  0  0  0  0
  -23.5499  -32.1358   23.7217 O   0  0  0  0  0  0
  -29.5164  -19.8174   20.3245 C   0  0  0  0  0  0
  -30.8640  -19.8327   20.6513 C   0  0  0  0  0  0
  -30.0173  -17.4347   20.5204 C   0  0  0  0  0  0
  -28.6559  -21.0881   19.8738 C   0  0  0  0  0  0
  -28.3233  -23.6177   19.9154 C   0  0  0  0  0  0
  -31.7652  -21.0216   20.7868 C   0  0  0  0  0  0
  -27.3874  -24.9090   21.9689 C   0  0  0  0  0  0
  -28.3800  -24.9794   20.7932 C   0  0  2  0  0  0
  -29.0831  -18.4199   20.2689 N   0  0  0  0  0  0
  -29.7547  -15.9583   20.5496 N   0  0  0  0  0  0
  -28.8532  -22.3893   20.3590 N   0  0  0  0  0  0
  -27.7486  -20.8648   19.0633 O   0  0  0  0  0  0
  -27.7719  -23.7184   18.8136 O   0  0  0  0  0  0
  -31.5618  -18.2086   20.8655 S   0  0  0  0  0  0
  -31.4797  -12.6405   19.1795 H   0  0  0  0  0  0
  -30.3942  -11.5371   19.9831 H   0  0  0  0  0  0
  -29.8141  -11.7449   17.5345 H   0  0  0  0  0  0
  -29.6213  -13.4709   17.7157 H   0  0  0  0  0  0
  -27.9214  -11.2748   18.9356 H   0  0  0  0  0  0
  -27.3854  -12.4892   17.8050 H   0  0  0  0  0  0
  -27.6189  -14.2466   19.4442 H   0  0  0  0  0  0
  -28.7423  -12.2090   21.4307 H   0  0  0  0  0  0
  -28.4037  -13.8856   21.7828 H   0  0  0  0  0  0
  -25.2762   -9.5708   22.4758 H   0  0  0  0  0  0
  -24.0024   -7.4642   22.7477 H   0  0  0  0  0  0
  -21.0843   -8.8759   19.8945 H   0  0  0  0  0  0
  -22.3682  -10.9673   19.6171 H   0  0  0  0  0  0
  -21.2024   -7.6148   23.9718 H   0  0  0  0  0  0
  -21.1491   -6.0515   25.9077 H   0  0  0  0  0  0
  -22.0590   -2.7599   23.2852 H   0  0  0  0  0  0
  -22.4072  -11.9904   22.4850 H   0  0  0  0  0  0
  -21.1073  -13.1233   22.2587 H   0  0  0  0  0  0
  -24.6385  -15.8368   20.5079 H   0  0  0  0  0  0
  -26.2530  -15.6414   20.0596 H   0  0  0  0  0  0
  -26.7235  -32.5368   23.1041 H   0  0  0  0  0  0
  -24.9983  -33.9635   25.0317 H   0  0  0  0  0  0
  -22.7299  -31.2951   21.3833 H   0  0  0  0  0  0
  -23.3773  -35.9580   23.3284 H   0  0  0  0  0  0
  -24.3582  -36.8913   22.2058 H   0  0  0  0  0  0
  -23.7229  -37.6464   23.6668 H   0  0  0  0  0  0
  -26.1188  -31.5105   20.6011 H   0  0  0  0  0  0
  -26.8548  -30.8043   22.0094 H   0  0  0  0  0  0
  -28.1342  -28.9143   21.1813 H   0  0  0  0  0  0
  -25.9836  -25.8479   19.0573 H   0  0  0  0  0  0
  -23.9751  -27.2643   19.0325 H   0  0  0  0  0  0
  -23.7783  -30.5624   19.3946 H   0  0  0  0  0  0
  -22.7671  -29.2289   19.8590 H   0  0  0  0  0  0
  -25.1293  -36.1901   25.0834 H   0  0  0  0  0  0
  -20.9974  -28.3347   24.1376 H   0  0  0  0  0  0
  -20.5696  -26.2373   23.3630 H   0  0  0  0  0  0
  -21.6667  -26.7486   22.1191 H   0  0  0  0  0  0
  -19.6934  -25.6310   21.1254 H   0  0  0  0  0  0
  -19.6690  -27.3205   20.6736 H   0  0  0  0  0  0
  -17.4211  -26.6691   21.4032 H   0  0  0  0  0  0
  -18.0343  -26.0098   22.9031 H   0  0  0  0  0  0
  -19.7957  -30.7290   24.2255 H   0  0  0  0  0  0
  -17.5043  -31.6277   24.5181 H   0  0  0  0  0  0
  -15.5373  -30.3005   23.7667 H   0  0  0  0  0  0
  -15.8690  -28.0848   22.7055 H   0  0  0  0  0  0
  -24.5861  -30.7081   25.7714 H   0  0  0  0  0  0
  -24.8877  -32.2889   26.4811 H   0  0  0  0  0  0
  -25.7961  -30.8879   27.0205 H   0  0  0  0  0  0
  -26.2940  -29.6684   24.1244 H   0  0  0  0  0  0
  -27.3993  -29.7233   25.4772 H   0  0  0  0  0  0
  -27.8831  -30.4212   23.9505 H   0  0  0  0  0  0
  -27.2713  -33.3554   26.2069 H   0  0  0  0  0  0
  -28.3871  -32.6805   25.0284 H   0  0  0  0  0  0
  -28.0746  -31.8345   26.5359 H   0  0  0  0  0  0
  -28.2593  -38.0086   24.7527 H   0  0  0  0  0  0
  -28.1085  -36.2623   24.6263 H   0  0  0  0  0  0
  -27.2304  -37.1399   25.8870 H   0  0  0  0  0  0
  -20.9444  -29.8734   21.6757 H   0  0  0  0  0  0
  -26.0173  -38.2848   24.1407 H   0  0  0  0  0  0
  -31.5273  -21.5951   21.6829 H   0  0  0  0  0  0
  -31.6814  -21.6884   19.9266 H   0  0  0  0  0  0
  -32.8106  -20.7198   20.8645 H   0  0  0  0  0  0
  -27.5512  -25.7313   22.6633 H   0  0  0  0  0  0
  -27.5043  -23.9847   22.5342 H   0  0  0  0  0  0
  -26.3518  -24.9573   21.6338 H   0  0  0  0  0  0
  -29.3749  -24.9515   21.2395 H   0  0  0  0  0  0
  -28.7811  -15.7265   20.6404 H   0  0  0  0  0  0
  -29.4429  -22.4417   21.1729 H   0  0  0  0  0  0
  1 25  1  0  0  0
  1 30  2  0  0  0
  1 80  1  0  0  0
  2  3  1  0  0  0
  2 25  1  0  0  0
  2 85  1  0  0  0
  2 86  1  0  0  0
  3  4  1  0  0  0
  3 87  1  0  0  0
  3 88  1  0  0  0
  4  5  1  0  0  0
  4 89  1  0  0  0
  4 90  1  0  0  0
  5  6  1  0  0  0
  5 26  1  0  0  0
  5 91  1  0  0  0
  6 25  1  0  0  0
  6 92  1  0  0  0
  6 93  1  0  0  0
  7  8  2  0  0  0
  7 26  1  0  0  0
  7 29  1  0  0  0
  8  9  1  0  0  0
  8 22  1  0  0  0
  9 10  1  0  0  0
  9 27  2  0  0  0
 10 11  2  0  0  0
 10 15  1  0  0  0
 11 12  1  0  0  0
 11 94  1  0  0  0
 12 13  2  0  0  0
 12 95  1  0  0  0
 13 14  1  0  0  0
 13 31  1  0  0  0
 14 15  2  0  0  0
 14 96  1  0  0  0
 15 97  1  0  0  0
 16 17  2  0  0  0
 16 21  1  0  0  0
 16 31  1  0  0  0
 17 18  1  0  0  0
 17 98  1  0  0  0
 18 19  2  0  0  0
 18 99  1  0  0  0
 19 20  1  0  0  0
 19 24  1  0  0  0
 20 21  2  0  0  0
 20100  1  0  0  0
 21 23  1  0  0  0
 22 28  1  0  0  0
 22 32  2  0  0  0
 26 27  1  0  0  0
 28101  1  0  0  0
 28102  1  0  0  0
 29103  1  0  0  0
 29104  1  0  0  0
 33 34  1  0  0  0
 33 66  1  0  0  0
 33 70  2  0  0  0
 34 36  1  0  0  0
 34 59  1  0  0  0
 34105  1  0  0  0
 35 44  2  0  0  0
 35 45  1  0  0  0
 35 68  1  0  0  0
 36 56  1  0  0  0
 36106  1  0  0  0
 37 39  1  0  0  0
 37 47  1  0  0  0
 37 66  1  0  0  0
 37107  1  0  0  0
 38 43  2  0  0  0
 38 46  1  0  0  0
 38 47  1  0  0  0
 39 64  1  0  0  0
 39 67  2  0  0  0
 40 52  1  0  0  0
 40 53  2  0  0  0
 40 58  1  0  0  0
 41108  1  0  0  0
 41109  1  0  0  0
 41110  1  0  0  0
 41 48  1  0  0  0
 42 43  1  0  0  0
 42 66  1  0  0  0
 42111  1  0  0  0
 42112  1  0  0  0
 43 44  1  0  0  0
 44113  1  0  0  0
 45 46  2  0  0  0
 45114  1  0  0  0
 46115  1  0  0  0
 47116  1  0  0  0
 47117  1  0  0  0
 48 56  1  0  0  0
 48 65  1  0  0  0
 48118  1  0  0  0
 49 50  1  0  0  0
 49 53  1  0  0  0
 49 64  1  0  0  0
 49119  1  0  0  0
 50 51  1  0  0  0
 50120  1  0  0  0
 50121  1  0  0  0
 51 52  1  0  0  0
 51122  1  0  0  0
 51123  1  0  0  0
 52124  1  0  0  0
 52125  1  0  0  0
 53 54  1  0  0  0
 54 55  2  0  0  0
 54126  1  0  0  0
 55 57  1  0  0  0
 55127  1  0  0  0
 56 69  2  0  0  0
 57 58  2  0  0  0
 57128  1  0  0  0
 58129  1  0  0  0
 59 60  1  0  0  0
 59 61  1  0  0  0
 59 62  1  0  0  0
 60130  1  0  0  0
 60131  1  0  0  0
 60132  1  0  0  0
 61133  1  0  0  0
 61134  1  0  0  0
 61135  1  0  0  0
 62136  1  0  0  0
 62137  1  0  0  0
 62138  1  0  0  0
 63 65  1  0  0  0
 63139  1  0  0  0
 63140  1  0  0  0
 63141  1  0  0  0
 64142  1  0  0  0
 65143  1  0  0  0
 68 78  1  0  0  0
 71 72  2  0  0  0
 71 74  1  0  0  0
 71 79  1  0  0  0
 72 76  1  0  0  0
 72 84  1  0  0  0
 73 79  2  0  0  0
 73 80  1  0  0  0
 73 84  1  0  0  0
 74 81  1  0  0  0
 74 82  2  0  0  0
 75 78  1  0  0  0
 75 81  1  0  0  0
 75 83  2  0  0  0
 76144  1  0  0  0
 76145  1  0  0  0
 76146  1  0  0  0
 77147  1  0  0  0
 77148  1  0  0  0
 77149  1  0  0  0
 77 78  1  0  0  0
 78150  1  0  0  0
 80151  1  0  0  0
 81152  1  0  0  0
M  ISO  4   1 100  68 101  78 101  80 100
M  END
> <chiral flag>
0

> <version>
0

> <s_m_source_file>
/data/baiqing/PycharmProjects/Reinvent-master-3.2/result/LINK_invent/BTK/process_docking_weight1_custom_product_contain_oxygen_bond_distance_aromatic_linkinvent_7_9_3/rearranged_h_0182.sdf

> <i_m_source_file_index>
80

> <r_mmod_Potential_Energy-OPLS-2005>
61.6904182434082

> <r_mmod_Stretch_Energy-OPLS-2005>
156.99577331543

> <r_mmod_Bend_Energy-OPLS-2005>
196.392074584961

> <r_mmod_Torsional_Energy-OPLS-2005>
250.604431152344

> <r_mmod_Improper_Torsional_Energy-OPLS-2005>
6.57673358917236

> <r_mmod_Van_der_Waal_Energy-OPLS-2005>
109.831344604492

> <r_mmod_Electrostatic_Energy-OPLS-2005>
-489.257080078125

> <r_mmod_Solvation_Energy-OPLS-2005>
-281.503051757812

> <b_mmod_Minimization_Converged-OPLS-2005>
0

> <r_mmod_RMS_Derivative-OPLS-2005>
2.27229332923889

$$$$
80
                    3D
 Structure written by MMmdl.
150158  0  0  1  0            999 V2000
  -30.6191  -14.7234   20.4498 C   0  0  0  0  0  0
  -30.4252  -12.4301   19.4919 C   0  0  0  0  0  0
  -29.5147  -12.5122   18.2465 C   0  0  0  0  0  0
  -28.0386  -12.3404   18.6518 C   0  0  0  0  0  0
  -27.6440  -13.2342   19.8580 C   0  0  2  0  0  0
  -28.6849  -13.1575   20.9985 C   0  0  0  0  0  0
  -25.2492  -13.8202   20.5709 C   0  0  0  0  0  0
  -24.1782  -13.0449   20.9212 C   0  0  0  0  0  0
  -24.6366  -11.6926   20.8738 C   0  0  0  0  0  0
  -23.9044  -10.4302   21.0395 C   0  0  0  0  0  0
  -24.3599   -9.4225   21.9179 C   0  0  0  0  0  0
  -23.6284   -8.2254   22.0749 C   0  0  0  0  0  0
  -22.4266   -8.0284   21.3546 C   0  0  0  0  0  0
  -21.9899   -9.0249   20.4645 C   0  0  0  0  0  0
  -22.7213  -10.2134   20.3051 C   0  0  0  0  0  0
  -21.6852   -6.0731   22.5285 C   0  0  0  0  0  0
  -21.4015   -6.5634   23.8218 C   0  0  0  0  0  0
  -21.3670   -5.6788   24.9182 C   0  0  0  0  0  0
  -21.6046   -4.3049   24.7232 C   0  0  0  0  0  0
  -21.8812   -3.8142   23.4349 C   0  0  0  0  0  0
  -21.9188   -4.6959   22.3407 C   0  0  0  0  0  0
  -22.7803  -13.5233   21.1886 C   0  0  0  0  0  0
  -22.1655   -4.2143   21.0982 F   0  0  0  0  0  0
  -21.5636   -3.4534   25.7744 F   0  0  0  0  0  0
  -29.9964  -13.4944   20.4291 N   0  0  0  0  0  0
  -26.2927  -12.9418   20.3300 N   0  0  0  0  0  0
  -25.9299  -11.6557   20.5743 N   0  0  0  0  0  0
  -22.0426  -12.8232   22.0434 N   0  0  0  0  0  0
  -25.4174  -15.1932   20.4139 N   0  0  0  0  0  0
  -31.7929  -14.8169   20.0763 O   0  0  0  0  0  0
  -21.6640   -6.8874   21.4243 O   0  0  0  0  0  0
  -22.3499  -14.5550   20.6742 O   0  0  0  0  0  0
  -24.6329  -31.8559   23.2014 C   0  0  0  0  0  0
  -25.9156  -32.4758   23.8360 C   0  0  1  0  0  0
  -27.2131  -27.2511   20.1152 C   0  0  0  0  0  0
  -25.5959  -33.8565   24.2277 N   0  0  0  0  0  0
  -23.4298  -30.4813   21.5446 C   0  0  2  0  0  0
  -24.8757  -28.9351   20.1067 C   0  0  0  0  0  0
  -22.7516  -29.4604   22.4908 C   0  0  0  0  0  0
  -18.0293  -28.1385   22.8482 C   0  0  0  0  0  0
  -24.1487  -36.7278   23.2638 C   0  0  0  0  0  0
  -25.9788  -30.7614   21.3881 C   0  0  0  0  0  0
  -26.0480  -29.3853   20.7255 C   0  0  0  0  0  0
  -27.2165  -28.5531   20.7266 C   0  0  0  0  0  0
  -26.0202  -26.8912   19.4425 C   0  0  0  0  0  0
  -24.8678  -27.6957   19.4562 C   0  0  0  0  0  0
  -23.6486  -29.8232   20.1581 C   0  0  0  0  0  0
  -25.4117  -36.3073   24.0326 C   0  0  1  0  0  0
  -20.5904  -28.3696   23.1259 C   0  0  2  0  0  0
  -20.6773  -26.9410   22.5401 C   0  0  0  0  0  0
  -19.5746  -26.6377   21.5205 C   0  0  0  0  0  0
  -18.1930  -26.7926   22.1619 C   0  0  0  0  0  0
  -19.1550  -28.8858   23.2864 C   0  0  0  0  0  0
  -18.9470  -30.1458   23.8881 C   0  0  0  0  0  0
  -17.6468  -30.6586   24.0556 C   0  0  0  0  0  0
  -25.9063  -34.9445   23.5100 C   0  0  0  0  0  0
  -16.5361  -29.9084   23.6330 C   0  0  0  0  0  0
  -16.7280  -28.6502   23.0346 C   0  0  0  0  0  0
  -26.4515  -31.6591   25.0762 C   0  0  0  0  0  0
  -25.3743  -31.3752   26.1490 C   0  0  0  0  0  0
  -27.0366  -30.3000   24.6279 C   0  0  0  0  0  0
  -27.6070  -32.4335   25.7535 C   0  0  0  0  0  0
  -27.5572  -37.1802   24.8466 C   0  0  0  0  0  0
  -21.4222  -29.3052   22.3657 N   0  0  0  0  0  0
  -26.4281  -37.3773   23.9410 N   0  0  0  0  0  0
  -24.6994  -31.0511   22.1002 N   0  0  0  0  0  0
  -23.4216  -28.8132   23.2995 O   0  0  0  0  0  0
  -28.2901  -26.3291   20.1986 O   0  0  0  0  0  0
  -26.5620  -34.8916   22.4659 O   0  0  0  0  0  0
  -23.5476  -32.1395   23.7294 O   0  0  0  0  0  0
  -30.5873  -17.5662   19.0690 C   0  0  0  0  0  0
  -29.9963  -17.2505   20.2712 C   0  0  0  0  0  0
  -29.6024  -19.6058   20.1645 C   0  0  0  0  0  0
  -28.8276  -23.6699   20.4208 C   0  0  0  0  0  0
  -27.5466  -21.9594   18.9424 C   0  0  0  0  0  0
  -28.0840  -24.9101   19.7203 C   0  0  0  0  0  0
  -28.8658  -22.2033   19.6980 C   0  0  2  0  0  0
  -29.4451  -18.4426   20.8799 N   0  0  0  0  0  0
  -29.8704  -15.8520   20.7525 N   0  0  0  0  0  0
  -29.1821  -20.9484   20.4945 N   0  0  0  0  0  0
  -29.3537  -23.8331   21.5254 O   0  0  0  0  0  0
  -30.4437  -19.2719   18.6504 S   0  0  0  0  0  0
  -31.4742  -12.5219   19.2083 H   0  0  0  0  0  0
  -30.3336  -11.4516   19.9664 H   0  0  0  0  0  0
  -29.7971  -11.7478   17.5211 H   0  0  0  0  0  0
  -29.6522  -13.4736   17.7479 H   0  0  0  0  0  0
  -27.8917  -11.2909   18.9095 H   0  0  0  0  0  0
  -27.3864  -12.5393   17.8005 H   0  0  0  0  0  0
  -27.6423  -14.2587   19.4843 H   0  0  0  0  0  0
  -28.7045  -12.1580   21.4357 H   0  0  0  0  0  0
  -28.4199  -13.8374   21.8094 H   0  0  0  0  0  0
  -25.2730   -9.5721   22.4766 H   0  0  0  0  0  0
  -24.0001   -7.4645   22.7463 H   0  0  0  0  0  0
  -21.0834   -8.8760   19.8940 H   0  0  0  0  0  0
  -22.3658  -10.9678   19.6171 H   0  0  0  0  0  0
  -21.2003   -7.6140   23.9728 H   0  0  0  0  0  0
  -21.1507   -6.0514   25.9089 H   0  0  0  0  0  0
  -22.0577   -2.7602   23.2851 H   0  0  0  0  0  0
  -22.4015  -11.9896   22.4856 H   0  0  0  0  0  0
  -21.1046  -13.1286   22.2623 H   0  0  0  0  0  0
  -24.6453  -15.8427   20.5159 H   0  0  0  0  0  0
  -26.2661  -15.6381   20.0881 H   0  0  0  0  0  0
  -26.7226  -32.5395   23.1105 H   0  0  0  0  0  0
  -25.0143  -33.9711   25.0446 H   0  0  0  0  0  0
  -22.7261  -31.3040   21.4015 H   0  0  0  0  0  0
  -23.3754  -35.9607   23.3315 H   0  0  0  0  0  0
  -24.3570  -36.8882   22.2046 H   0  0  0  0  0  0
  -23.7235  -37.6481   23.6655 H   0  0  0  0  0  0
  -26.1255  -31.5232   20.6214 H   0  0  0  0  0  0
  -26.8531  -30.8052   22.0255 H   0  0  0  0  0  0
  -28.1086  -28.8885   21.2368 H   0  0  0  0  0  0
  -25.9253  -25.9666   18.8961 H   0  0  0  0  0  0
  -23.9743  -27.3512   18.9540 H   0  0  0  0  0  0
  -23.7782  -30.6036   19.4070 H   0  0  0  0  0  0
  -22.7644  -29.2624   19.8494 H   0  0  0  0  0  0
  -25.1294  -36.1916   25.0814 H   0  0  0  0  0  0
  -20.9991  -28.3264   24.1378 H   0  0  0  0  0  0
  -20.5635  -26.2314   23.3610 H   0  0  0  0  0  0
  -21.6642  -26.7401   22.1212 H   0  0  0  0  0  0
  -19.6897  -25.6284   21.1236 H   0  0  0  0  0  0
  -19.6674  -27.3181   20.6733 H   0  0  0  0  0  0
  -17.4190  -26.6671   21.4029 H   0  0  0  0  0  0
  -18.0333  -26.0071   22.9020 H   0  0  0  0  0  0
  -19.7948  -30.7279   24.2237 H   0  0  0  0  0  0
  -17.5025  -31.6260   24.5167 H   0  0  0  0  0  0
  -15.5361  -30.2973   23.7668 H   0  0  0  0  0  0
  -15.8681  -28.0816   22.7060 H   0  0  0  0  0  0
  -24.5933  -30.7068   25.7848 H   0  0  0  0  0  0
  -24.8922  -32.2921   26.4890 H   0  0  0  0  0  0
  -25.8080  -30.8968   27.0284 H   0  0  0  0  0  0
  -26.2967  -29.6746   24.1276 H   0  0  0  0  0  0
  -27.3994  -29.7269   25.4819 H   0  0  0  0  0  0
  -27.8873  -30.4262   23.9584 H   0  0  0  0  0  0
  -27.2689  -33.3647   26.2096 H   0  0  0  0  0  0
  -28.3905  -32.6869   25.0384 H   0  0  0  0  0  0
  -28.0725  -31.8471   26.5465 H   0  0  0  0  0  0
  -28.2601  -38.0088   24.7501 H   0  0  0  0  0  0
  -28.1054  -36.2618   24.6311 H   0  0  0  0  0  0
  -27.2290  -37.1476   25.8870 H   0  0  0  0  0  0
  -20.9404  -29.8814   21.6896 H   0  0  0  0  0  0
  -26.0159  -38.2843   24.1416 H   0  0  0  0  0  0
  -31.0712  -16.8972   18.3696 H   0  0  0  0  0  0
  -26.6935  -21.9375   19.6225 H   0  0  0  0  0  0
  -27.5646  -21.0080   18.4088 H   0  0  0  0  0  0
  -27.3559  -22.7287   18.1940 H   0  0  0  0  0  0
  -27.0394  -24.6383   19.8493 H   0  0  0  0  0  0
  -28.2894  -24.8756   18.6498 H   0  0  0  0  0  0
  -29.6522  -22.2640   18.9437 H   0  0  0  0  0  0
  -29.0160  -15.6554   21.2499 H   0  0  0  0  0  0
  -28.9166  -21.0484   21.4689 H   0  0  0  0  0  0
  1 25  1  0  0  0
  1 30  2  0  0  0
  1 79  1  0  0  0
  2  3  1  0  0  0
  2 25  1  0  0  0
  2 83  1  0  0  0
  2 84  1  0  0  0
  3  4  1  0  0  0
  3 85  1  0  0  0
  3 86  1  0  0  0
  4  5  1  0  0  0
  4 87  1  0  0  0
  4 88  1  0  0  0
  5  6  1  0  0  0
  5 26  1  0  0  0
  5 89  1  0  0  0
  6 25  1  0  0  0
  6 90  1  0  0  0
  6 91  1  0  0  0
  7  8  2  0  0  0
  7 26  1  0  0  0
  7 29  1  0  0  0
  8  9  1  0  0  0
  8 22  1  0  0  0
  9 10  1  0  0  0
  9 27  2  0  0  0
 10 11  2  0  0  0
 10 15  1  0  0  0
 11 12  1  0  0  0
 11 92  1  0  0  0
 12 13  2  0  0  0
 12 93  1  0  0  0
 13 14  1  0  0  0
 13 31  1  0  0  0
 14 15  2  0  0  0
 14 94  1  0  0  0
 15 95  1  0  0  0
 16 17  2  0  0  0
 16 21  1  0  0  0
 16 31  1  0  0  0
 17 18  1  0  0  0
 17 96  1  0  0  0
 18 19  2  0  0  0
 18 97  1  0  0  0
 19 20  1  0  0  0
 19 24  1  0  0  0
 20 21  2  0  0  0
 20 98  1  0  0  0
 21 23  1  0  0  0
 22 28  1  0  0  0
 22 32  2  0  0  0
 26 27  1  0  0  0
 28 99  1  0  0  0
 28100  1  0  0  0
 29101  1  0  0  0
 29102  1  0  0  0
 33 34  1  0  0  0
 33 66  1  0  0  0
 33 70  2  0  0  0
 34 36  1  0  0  0
 34 59  1  0  0  0
 34103  1  0  0  0
 35 44  2  0  0  0
 35 45  1  0  0  0
 35 68  1  0  0  0
 36 56  1  0  0  0
 36104  1  0  0  0
 37 39  1  0  0  0
 37 47  1  0  0  0
 37 66  1  0  0  0
 37105  1  0  0  0
 38 43  2  0  0  0
 38 46  1  0  0  0
 38 47  1  0  0  0
 39 64  1  0  0  0
 39 67  2  0  0  0
 40 52  1  0  0  0
 40 53  2  0  0  0
 40 58  1  0  0  0
 41106  1  0  0  0
 41107  1  0  0  0
 41108  1  0  0  0
 41 48  1  0  0  0
 42 43  1  0  0  0
 42 66  1  0  0  0
 42109  1  0  0  0
 42110  1  0  0  0
 43 44  1  0  0  0
 44111  1  0  0  0
 45 46  2  0  0  0
 45112  1  0  0  0
 46113  1  0  0  0
 47114  1  0  0  0
 47115  1  0  0  0
 48 56  1  0  0  0
 48 65  1  0  0  0
 48116  1  0  0  0
 49 50  1  0  0  0
 49 53  1  0  0  0
 49 64  1  0  0  0
 49117  1  0  0  0
 50 51  1  0  0  0
 50118  1  0  0  0
 50119  1  0  0  0
 51 52  1  0  0  0
 51120  1  0  0  0
 51121  1  0  0  0
 52122  1  0  0  0
 52123  1  0  0  0
 53 54  1  0  0  0
 54 55  2  0  0  0
 54124  1  0  0  0
 55 57  1  0  0  0
 55125  1  0  0  0
 56 69  2  0  0  0
 57 58  2  0  0  0
 57126  1  0  0  0
 58127  1  0  0  0
 59 60  1  0  0  0
 59 61  1  0  0  0
 59 62  1  0  0  0
 60128  1  0  0  0
 60129  1  0  0  0
 60130  1  0  0  0
 61131  1  0  0  0
 61132  1  0  0  0
 61133  1  0  0  0
 62134  1  0  0  0
 62135  1  0  0  0
 62136  1  0  0  0
 63 65  1  0  0  0
 63137  1  0  0  0
 63138  1  0  0  0
 63139  1  0  0  0
 64140  1  0  0  0
 65141  1  0  0  0
 68 76  1  0  0  0
 71 72  2  0  0  0
 71 82  1  0  0  0
 71142  1  0  0  0
 72 78  1  0  0  0
 72 79  1  0  0  0
 73 78  2  0  0  0
 73 80  1  0  0  0
 73 82  1  0  0  0
 74 76  1  0  0  0
 74 77  1  0  0  0
 74 81  2  0  0  0
 75143  1  0  0  0
 75144  1  0  0  0
 75145  1  0  0  0
 75 77  1  0  0  0
 76146  1  0  0  0
 76147  1  0  0  0
 77 80  1  0  0  0
 77148  1  0  0  0
 79149  1  0  0  0
 80150  1  0  0  0
M  ISO  4   1 100  68 101  76 101  79 100
M  END
> <chiral flag>
0

> <version>
0

> <s_m_source_file>
/data/baiqing/PycharmProjects/Reinvent-master-3.2/result/LINK_invent/BTK/process_docking_weight1_custom_product_contain_oxygen_bond_distance_aromatic_linkinvent_7_9_3/rearranged_h_0182.sdf

> <i_m_source_file_index>
81

> <r_mmod_Potential_Energy-OPLS-2005>
100.199714660645

> <r_mmod_Stretch_Energy-OPLS-2005>
120.64395904541

> <r_mmod_Bend_Energy-OPLS-2005>
158.359283447266

> <r_mmod_Torsional_Energy-OPLS-2005>
219.588287353516

> <r_mmod_Improper_Torsional_Energy-OPLS-2005>
4.35333108901978

> <r_mmod_Van_der_Waal_Energy-OPLS-2005>
121.899192810059

> <r_mmod_Electrostatic_Energy-OPLS-2005>
-367.478576660156

> <r_mmod_Solvation_Energy-OPLS-2005>
-243.013244628906

> <b_mmod_Minimization_Converged-OPLS-2005>
0

> <r_mmod_RMS_Derivative-OPLS-2005>
1.42320287227631

$$$$
81
                    3D
 Structure written by MMmdl.
159167  0  0  1  0            999 V2000
  -30.6960  -14.5644   20.5448 C   0  0  0  0  0  0
  -30.4284  -12.3556   19.4542 C   0  0  0  0  0  0
  -29.5098  -12.4973   18.2226 C   0  0  0  0  0  0
  -28.0284  -12.3547   18.6290 C   0  0  0  0  0  0
  -27.6567  -13.2218   19.8628 C   0  0  2  0  0  0
  -28.6991  -13.0723   20.9940 C   0  0  0  0  0  0
  -25.2560  -13.8184   20.5674 C   0  0  0  0  0  0
  -24.1833  -13.0426   20.9161 C   0  0  0  0  0  0
  -24.6416  -11.6903   20.8722 C   0  0  0  0  0  0
  -23.9089  -10.4275   21.0395 C   0  0  0  0  0  0
  -24.3631   -9.4180   21.9178 C   0  0  0  0  0  0
  -23.6282   -8.2237   22.0756 C   0  0  0  0  0  0
  -22.4257   -8.0288   21.3559 C   0  0  0  0  0  0
  -21.9900   -9.0267   20.4662 C   0  0  0  0  0  0
  -22.7254  -10.2129   20.3061 C   0  0  0  0  0  0
  -21.6843   -6.0739   22.5286 C   0  0  0  0  0  0
  -21.4016   -6.5642   23.8226 C   0  0  0  0  0  0
  -21.3644   -5.6793   24.9190 C   0  0  0  0  0  0
  -21.6032   -4.3058   24.7225 C   0  0  0  0  0  0
  -21.8814   -3.8140   23.4347 C   0  0  0  0  0  0
  -21.9179   -4.6966   22.3394 C   0  0  0  0  0  0
  -22.7845  -13.5228   21.1808 C   0  0  0  0  0  0
  -22.1652   -4.2148   21.0977 F   0  0  0  0  0  0
  -21.5609   -3.4535   25.7740 F   0  0  0  0  0  0
  -30.0223  -13.3806   20.4325 N   0  0  0  0  0  0
  -26.3009  -12.9392   20.3320 N   0  0  0  0  0  0
  -25.9358  -11.6533   20.5733 N   0  0  0  0  0  0
  -22.0469  -12.8289   22.0386 N   0  0  0  0  0  0
  -25.4203  -15.1910   20.4098 N   0  0  0  0  0  0
  -31.8418  -14.6903   20.1037 O   0  0  0  0  0  0
  -21.6615   -6.8887   21.4256 O   0  0  0  0  0  0
  -22.3545  -14.5516   20.6607 O   0  0  0  0  0  0
  -24.6236  -31.8622   23.2051 C   0  0  0  0  0  0
  -25.9109  -32.4783   23.8357 C   0  0  1  0  0  0
  -27.2379  -27.3704   20.0684 C   0  0  0  0  0  0
  -25.5948  -33.8571   24.2304 N   0  0  0  0  0  0
  -23.4153  -30.4881   21.5443 C   0  0  2  0  0  0
  -24.8587  -28.9541   20.1043 C   0  0  0  0  0  0
  -22.7450  -29.4654   22.4920 C   0  0  0  0  0  0
  -18.0294  -28.1397   22.8480 C   0  0  0  0  0  0
  -24.1492  -36.7279   23.2637 C   0  0  0  0  0  0
  -25.9532  -30.8067   21.3690 C   0  0  0  0  0  0
  -26.0266  -29.4405   20.7048 C   0  0  0  0  0  0
  -27.2103  -28.6535   20.6885 C   0  0  0  0  0  0
  -26.0297  -26.9122   19.4958 C   0  0  0  0  0  0
  -24.8602  -27.6920   19.4974 C   0  0  0  0  0  0
  -23.6249  -29.8245   20.1588 C   0  0  0  0  0  0
  -25.4114  -36.3070   24.0337 C   0  0  1  0  0  0
  -20.5891  -28.3697   23.1276 C   0  0  2  0  0  0
  -20.6782  -26.9413   22.5407 C   0  0  0  0  0  0
  -19.5757  -26.6391   21.5205 C   0  0  0  0  0  0
  -18.1939  -26.7948   22.1621 C   0  0  0  0  0  0
  -19.1548  -28.8856   23.2884 C   0  0  0  0  0  0
  -18.9480  -30.1457   23.8898 C   0  0  0  0  0  0
  -17.6483  -30.6594   24.0568 C   0  0  0  0  0  0
  -25.9047  -34.9449   23.5119 C   0  0  0  0  0  0
  -16.5369  -29.9090   23.6335 C   0  0  0  0  0  0
  -16.7284  -28.6516   23.0340 C   0  0  0  0  0  0
  -26.4517  -31.6583   25.0702 C   0  0  0  0  0  0
  -25.3790  -31.3700   26.1455 C   0  0  0  0  0  0
  -27.0374  -30.3023   24.6125 C   0  0  0  0  0  0
  -27.6093  -32.4306   25.7463 C   0  0  0  0  0  0
  -27.5580  -37.1788   24.8468 C   0  0  0  0  0  0
  -21.4164  -29.3062   22.3664 N   0  0  0  0  0  0
  -26.4291  -37.3767   23.9415 N   0  0  0  0  0  0
  -24.6828  -31.0663   22.0989 N   0  0  0  0  0  0
  -23.4180  -28.8194   23.2993 O   0  0  0  0  0  0
  -28.3815  -26.5753   20.1750 O   0  0  0  0  0  0
  -26.5590  -34.8911   22.4656 O   0  0  0  0  0  0
  -23.5419  -32.1411   23.7405 O   0  0  0  0  0  0
  -31.5867  -17.3742   21.8074 C   0  0  0  0  0  0
  -30.4359  -17.0046   21.1371 C   0  0  0  0  0  0
  -30.2910  -19.3105   20.9064 C   0  0  0  0  0  0
  -29.3614  -23.1306   20.3409 C   0  0  0  0  0  0
  -32.5957  -16.5396   22.5325 C   0  0  0  0  0  0
  -31.6970  -22.2148   20.8295 C   0  0  0  0  0  0
  -27.9086  -24.8729   18.2133 C   0  0  0  0  0  0
  -29.8494  -24.5294   19.8486 C   0  0  0  0  0  0
  -30.3403  -21.9083   20.1596 C   0  0  1  0  0  0
  -28.8546  -25.5730   19.2113 C   0  0  2  0  0  0
  -29.6789  -18.1261   20.6961 N   0  0  0  0  0  0
  -29.9936  -15.6345   21.0065 N   0  0  0  0  0  0
  -29.7846  -20.5816   20.5435 N   0  0  0  0  0  0
  -28.2565  -23.0060   20.8757 O   0  0  0  0  0  0
  -31.8152  -19.1072   21.7684 S   0  0  0  0  0  0
  -31.4741  -12.4424   19.1566 H   0  0  0  0  0  0
  -30.3350  -11.3630   19.8977 H   0  0  0  0  0  0
  -29.7705  -11.7486   17.4727 H   0  0  0  0  0  0
  -29.6704  -13.4680   17.7539 H   0  0  0  0  0  0
  -27.8564  -11.3019   18.8505 H   0  0  0  0  0  0
  -27.3780  -12.5983   17.7854 H   0  0  0  0  0  0
  -27.6753  -14.2588   19.5228 H   0  0  0  0  0  0
  -28.6963  -12.0541   21.3856 H   0  0  0  0  0  0
  -28.4526  -13.7169   21.8407 H   0  0  0  0  0  0
  -25.2776   -9.5634   22.4774 H   0  0  0  0  0  0
  -23.9960   -7.4617   22.7492 H   0  0  0  0  0  0
  -21.0796   -8.8818   19.8991 H   0  0  0  0  0  0
  -22.3711  -10.9688   19.6172 H   0  0  0  0  0  0
  -21.2064   -7.6157   23.9737 H   0  0  0  0  0  0
  -21.1450   -6.0522   25.9095 H   0  0  0  0  0  0
  -22.0604   -2.7602   23.2844 H   0  0  0  0  0  0
  -22.4035  -11.9991   22.4898 H   0  0  0  0  0  0
  -21.1093  -13.1404   22.2528 H   0  0  0  0  0  0
  -24.6461  -15.8384   20.5169 H   0  0  0  0  0  0
  -26.2651  -15.6401   20.0795 H   0  0  0  0  0  0
  -26.7173  -32.5465   23.1104 H   0  0  0  0  0  0
  -25.0142  -33.9728   25.0486 H   0  0  0  0  0  0
  -22.7101  -31.3096   21.4020 H   0  0  0  0  0  0
  -23.3762  -35.9607   23.3304 H   0  0  0  0  0  0
  -24.3597  -36.8888   22.2056 H   0  0  0  0  0  0
  -23.7256  -37.6482   23.6657 H   0  0  0  0  0  0
  -26.0816  -31.5746   20.6039 H   0  0  0  0  0  0
  -26.8382  -30.8523   21.9936 H   0  0  0  0  0  0
  -28.1034  -29.0158   21.1777 H   0  0  0  0  0  0
  -25.9191  -25.9233   19.0959 H   0  0  0  0  0  0
  -23.9554  -27.2996   19.0512 H   0  0  0  0  0  0
  -23.7341  -30.6000   19.3997 H   0  0  0  0  0  0
  -22.7497  -29.2429   19.8606 H   0  0  0  0  0  0
  -25.1295  -36.1910   25.0832 H   0  0  0  0  0  0
  -21.0011  -28.3282   24.1380 H   0  0  0  0  0  0
  -20.5673  -26.2298   23.3603 H   0  0  0  0  0  0
  -21.6654  -26.7428   22.1205 H   0  0  0  0  0  0
  -19.6917  -25.6295   21.1232 H   0  0  0  0  0  0
  -19.6706  -27.3196   20.6728 H   0  0  0  0  0  0
  -17.4200  -26.6684   21.4026 H   0  0  0  0  0  0
  -18.0345  -26.0089   22.9018 H   0  0  0  0  0  0
  -19.7955  -30.7279   24.2257 H   0  0  0  0  0  0
  -17.5040  -31.6276   24.5164 H   0  0  0  0  0  0
  -15.5371  -30.3002   23.7668 H   0  0  0  0  0  0
  -15.8686  -28.0851   22.7044 H   0  0  0  0  0  0
  -24.5962  -30.7040   25.7808 H   0  0  0  0  0  0
  -24.8987  -32.2857   26.4903 H   0  0  0  0  0  0
  -25.8153  -30.8876   27.0212 H   0  0  0  0  0  0
  -26.2936  -29.6730   24.1220 H   0  0  0  0  0  0
  -27.4198  -29.7294   25.4586 H   0  0  0  0  0  0
  -27.8742  -30.4340   23.9263 H   0  0  0  0  0  0
  -27.2720  -33.3604   26.2049 H   0  0  0  0  0  0
  -28.3890  -32.6863   25.0279 H   0  0  0  0  0  0
  -28.0776  -31.8424   26.5365 H   0  0  0  0  0  0
  -28.2593  -38.0087   24.7506 H   0  0  0  0  0  0
  -28.1077  -36.2615   24.6299 H   0  0  0  0  0  0
  -27.2294  -37.1440   25.8870 H   0  0  0  0  0  0
  -20.9327  -29.8778   21.6886 H   0  0  0  0  0  0
  -26.0165  -38.2832   24.1437 H   0  0  0  0  0  0
  -32.2602  -15.5147   22.6797 H   0  0  0  0  0  0
  -32.7932  -16.9514   23.5234 H   0  0  0  0  0  0
  -33.5350  -16.5106   21.9798 H   0  0  0  0  0  0
  -32.0694  -23.2061   20.5696 H   0  0  0  0  0  0
  -32.4685  -21.5226   20.4889 H   0  0  0  0  0  0
  -31.6384  -22.1592   21.9159 H   0  0  0  0  0  0
  -28.4756  -24.2014   17.5664 H   0  0  0  0  0  0
  -27.4193  -25.5802   17.5450 H   0  0  0  0  0  0
  -27.1555  -24.2585   18.7070 H   0  0  0  0  0  0
  -30.5953  -24.3094   19.0854 H   0  0  0  0  0  0
  -30.4002  -25.0079   20.6585 H   0  0  0  0  0  0
  -30.5294  -21.8372   19.0877 H   0  0  0  0  0  0
  -29.4919  -26.1858   18.5706 H   0  0  0  0  0  0
  -29.0185  -15.4657   21.1937 H   0  0  0  0  0  0
  -28.7879  -20.5530   20.3513 H   0  0  0  0  0  0
  1 25  1  0  0  0
  1 30  2  0  0  0
  1 82  1  0  0  0
  2  3  1  0  0  0
  2 25  1  0  0  0
  2 86  1  0  0  0
  2 87  1  0  0  0
  3  4  1  0  0  0
  3 88  1  0  0  0
  3 89  1  0  0  0
  4  5  1  0  0  0
  4 90  1  0  0  0
  4 91  1  0  0  0
  5  6  1  0  0  0
  5 26  1  0  0  0
  5 92  1  0  0  0
  6 25  1  0  0  0
  6 93  1  0  0  0
  6 94  1  0  0  0
  7  8  2  0  0  0
  7 26  1  0  0  0
  7 29  1  0  0  0
  8  9  1  0  0  0
  8 22  1  0  0  0
  9 10  1  0  0  0
  9 27  2  0  0  0
 10 11  2  0  0  0
 10 15  1  0  0  0
 11 12  1  0  0  0
 11 95  1  0  0  0
 12 13  2  0  0  0
 12 96  1  0  0  0
 13 14  1  0  0  0
 13 31  1  0  0  0
 14 15  2  0  0  0
 14 97  1  0  0  0
 15 98  1  0  0  0
 16 17  2  0  0  0
 16 21  1  0  0  0
 16 31  1  0  0  0
 17 18  1  0  0  0
 17 99  1  0  0  0
 18 19  2  0  0  0
 18100  1  0  0  0
 19 20  1  0  0  0
 19 24  1  0  0  0
 20 21  2  0  0  0
 20101  1  0  0  0
 21 23  1  0  0  0
 22 28  1  0  0  0
 22 32  2  0  0  0
 26 27  1  0  0  0
 28102  1  0  0  0
 28103  1  0  0  0
 29104  1  0  0  0
 29105  1  0  0  0
 33 34  1  0  0  0
 33 66  1  0  0  0
 33 70  2  0  0  0
 34 36  1  0  0  0
 34 59  1  0  0  0
 34106  1  0  0  0
 35 44  2  0  0  0
 35 45  1  0  0  0
 35 68  1  0  0  0
 36 56  1  0  0  0
 36107  1  0  0  0
 37 39  1  0  0  0
 37 47  1  0  0  0
 37 66  1  0  0  0
 37108  1  0  0  0
 38 43  2  0  0  0
 38 46  1  0  0  0
 38 47  1  0  0  0
 39 64  1  0  0  0
 39 67  2  0  0  0
 40 52  1  0  0  0
 40 53  2  0  0  0
 40 58  1  0  0  0
 41109  1  0  0  0
 41110  1  0  0  0
 41111  1  0  0  0
 41 48  1  0  0  0
 42 43  1  0  0  0
 42 66  1  0  0  0
 42112  1  0  0  0
 42113  1  0  0  0
 43 44  1  0  0  0
 44114  1  0  0  0
 45 46  2  0  0  0
 45115  1  0  0  0
 46116  1  0  0  0
 47117  1  0  0  0
 47118  1  0  0  0
 48 56  1  0  0  0
 48 65  1  0  0  0
 48119  1  0  0  0
 49 50  1  0  0  0
 49 53  1  0  0  0
 49 64  1  0  0  0
 49120  1  0  0  0
 50 51  1  0  0  0
 50121  1  0  0  0
 50122  1  0  0  0
 51 52  1  0  0  0
 51123  1  0  0  0
 51124  1  0  0  0
 52125  1  0  0  0
 52126  1  0  0  0
 53 54  1  0  0  0
 54 55  2  0  0  0
 54127  1  0  0  0
 55 57  1  0  0  0
 55128  1  0  0  0
 56 69  2  0  0  0
 57 58  2  0  0  0
 57129  1  0  0  0
 58130  1  0  0  0
 59 60  1  0  0  0
 59 61  1  0  0  0
 59 62  1  0  0  0
 60131  1  0  0  0
 60132  1  0  0  0
 60133  1  0  0  0
 61134  1  0  0  0
 61135  1  0  0  0
 61136  1  0  0  0
 62137  1  0  0  0
 62138  1  0  0  0
 62139  1  0  0  0
 63 65  1  0  0  0
 63140  1  0  0  0
 63141  1  0  0  0
 63142  1  0  0  0
 64143  1  0  0  0
 65144  1  0  0  0
 68 80  1  0  0  0
 71 72  2  0  0  0
 71 75  1  0  0  0
 71 85  1  0  0  0
 72 81  1  0  0  0
 72 82  1  0  0  0
 73 81  2  0  0  0
 73 83  1  0  0  0
 73 85  1  0  0  0
 74 78  1  0  0  0
 74 79  1  0  0  0
 74 84  2  0  0  0
 75145  1  0  0  0
 75146  1  0  0  0
 75147  1  0  0  0
 76148  1  0  0  0
 76149  1  0  0  0
 76150  1  0  0  0
 76 79  1  0  0  0
 77151  1  0  0  0
 77152  1  0  0  0
 77153  1  0  0  0
 77 80  1  0  0  0
 78 80  1  0  0  0
 78154  1  0  0  0
 78155  1  0  0  0
 79 83  1  0  0  0
 79156  1  0  0  0
 80157  1  0  0  0
 82158  1  0  0  0
 83159  1  0  0  0
M  ISO  4   1 100  68 101  80 101  82 100
M  END
> <chiral flag>
0

> <version>
0

> <s_m_source_file>
/data/baiqing/PycharmProjects/Reinvent-master-3.2/result/LINK_invent/BTK/process_docking_weight1_custom_product_contain_oxygen_bond_distance_aromatic_linkinvent_7_9_3/rearranged_h_0182.sdf

> <i_m_source_file_index>
82

> <r_mmod_Potential_Energy-OPLS-2005>
-53.0547523498535

> <r_mmod_Stretch_Energy-OPLS-2005>
57.9121704101562

> <r_mmod_Bend_Energy-OPLS-2005>
159.787521362305

> <r_mmod_Torsional_Energy-OPLS-2005>
216.816268920898

> <r_mmod_Improper_Torsional_Energy-OPLS-2005>
5.00967454910278

> <r_mmod_Van_der_Waal_Energy-OPLS-2005>
134.157806396484

> <r_mmod_Electrostatic_Energy-OPLS-2005>
-430.023101806641

> <r_mmod_Solvation_Energy-OPLS-2005>
-227.046127319336

> <b_mmod_Minimization_Converged-OPLS-2005>
0

> <r_mmod_RMS_Derivative-OPLS-2005>
3.80130767822266

$$$$
82
                    3D
 Structure written by MMmdl.
152160  0  0  1  0            999 V2000
  -30.5720  -14.7990   20.4426 C   0  0  0  0  0  0
  -30.4414  -12.4900   19.4655 C   0  0  0  0  0  0
  -29.5158  -12.5139   18.2292 C   0  0  0  0  0  0
  -28.0423  -12.3241   18.6442 C   0  0  0  0  0  0
  -27.6370  -13.2289   19.8371 C   0  0  2  0  0  0
  -28.6823  -13.1840   20.9714 C   0  0  0  0  0  0
  -25.2512  -13.8174   20.5684 C   0  0  0  0  0  0
  -24.1813  -13.0427   20.9218 C   0  0  0  0  0  0
  -24.6399  -11.6906   20.8746 C   0  0  0  0  0  0
  -23.9078  -10.4290   21.0414 C   0  0  0  0  0  0
  -24.3627   -9.4204   21.9191 C   0  0  0  0  0  0
  -23.6294   -8.2245   22.0767 C   0  0  0  0  0  0
  -22.4275   -8.0288   21.3556 C   0  0  0  0  0  0
  -21.9915   -9.0263   20.4657 C   0  0  0  0  0  0
  -22.7255  -10.2135   20.3059 C   0  0  0  0  0  0
  -21.6853   -6.0741   22.5282 C   0  0  0  0  0  0
  -21.4016   -6.5644   23.8216 C   0  0  0  0  0  0
  -21.3657   -5.6793   24.9177 C   0  0  0  0  0  0
  -21.6042   -4.3054   24.7223 C   0  0  0  0  0  0
  -21.8818   -3.8154   23.4342 C   0  0  0  0  0  0
  -21.9191   -4.6973   22.3404 C   0  0  0  0  0  0
  -22.7837  -13.5223   21.1865 C   0  0  0  0  0  0
  -22.1662   -4.2164   21.0983 F   0  0  0  0  0  0
  -21.5626   -3.4537   25.7733 F   0  0  0  0  0  0
  -29.9737  -13.5560   20.3801 N   0  0  0  0  0  0
  -26.2909  -12.9369   20.3195 N   0  0  0  0  0  0
  -25.9314  -11.6513   20.5692 N   0  0  0  0  0  0
  -22.0455  -12.8229   22.0406 N   0  0  0  0  0  0
  -25.4194  -15.1907   20.4142 N   0  0  0  0  0  0
  -31.7823  -14.8942   20.2112 O   0  0  0  0  0  0
  -21.6639   -6.8884   21.4245 O   0  0  0  0  0  0
  -22.3535  -14.5536   20.6716 O   0  0  0  0  0  0
  -24.6324  -31.8527   23.1930 C   0  0  0  0  0  0
  -25.9136  -32.4743   23.8293 C   0  0  1  0  0  0
  -27.2208  -27.2373   20.1419 C   0  0  0  0  0  0
  -25.5908  -33.8541   24.2218 N   0  0  0  0  0  0
  -23.4305  -30.4715   21.5382 C   0  0  2  0  0  0
  -24.8784  -28.9074   20.1165 C   0  0  0  0  0  0
  -22.7506  -29.4593   22.4919 C   0  0  0  0  0  0
  -18.0283  -28.1404   22.8494 C   0  0  0  0  0  0
  -24.1470  -36.7260   23.2646 C   0  0  0  0  0  0
  -25.9768  -30.7599   21.3741 C   0  0  0  0  0  0
  -26.0518  -29.3770   20.7213 C   0  0  0  0  0  0
  -27.2292  -28.5567   20.7164 C   0  0  0  0  0  0
  -26.0247  -26.8354   19.5140 C   0  0  0  0  0  0
  -24.8701  -27.6444   19.5020 C   0  0  0  0  0  0
  -23.6486  -29.7961   20.1581 C   0  0  0  0  0  0
  -25.4105  -36.3058   24.0321 C   0  0  1  0  0  0
  -20.5891  -28.3703   23.1271 C   0  0  2  0  0  0
  -20.6761  -26.9419   22.5418 C   0  0  0  0  0  0
  -19.5729  -26.6395   21.5221 C   0  0  0  0  0  0
  -18.1913  -26.7943   22.1640 C   0  0  0  0  0  0
  -19.1545  -28.8872   23.2868 C   0  0  0  0  0  0
  -18.9472  -30.1476   23.8885 C   0  0  0  0  0  0
  -17.6475  -30.6607   24.0570 C   0  0  0  0  0  0
  -25.9060  -34.9436   23.5082 C   0  0  0  0  0  0
  -16.5359  -29.9109   23.6354 C   0  0  0  0  0  0
  -16.7272  -28.6525   23.0375 C   0  0  0  0  0  0
  -26.4494  -31.6585   25.0701 C   0  0  0  0  0  0
  -25.3705  -31.3762   26.1420 C   0  0  0  0  0  0
  -27.0347  -30.2989   24.6228 C   0  0  0  0  0  0
  -27.6029  -32.4340   25.7487 C   0  0  0  0  0  0
  -27.5562  -37.1781   24.8472 C   0  0  0  0  0  0
  -21.4222  -29.3027   22.3648 N   0  0  0  0  0  0
  -26.4269  -37.3767   23.9422 N   0  0  0  0  0  0
  -24.6991  -31.0471   22.0911 N   0  0  0  0  0  0
  -23.4193  -28.8174   23.3065 O   0  0  0  0  0  0
  -28.3122  -26.3330   20.1306 O   0  0  0  0  0  0
  -26.5660  -34.8921   22.4670 O   0  0  0  0  0  0
  -23.5468  -32.1365   23.7207 O   0  0  0  0  0  0
  -29.5719  -19.6727   20.3483 C   0  0  0  0  0  0
  -29.9684  -17.3763   20.6264 C   0  0  0  0  0  0
  -28.6127  -23.6667   19.7890 C   0  0  0  0  0  0
  -30.3325  -21.2570   18.5658 C   0  0  0  0  0  0
  -28.8350  -24.9251   22.0521 C   0  0  0  0  0  0
  -29.2015  -21.0517   19.5948 C   0  0  2  0  0  0
  -28.1393  -24.9303   20.6843 C   0  0  1  0  0  0
  -29.2463  -18.3782   19.9949 N   0  0  0  0  0  0
  -30.8578  -17.8192   21.5319 N   0  0  0  0  0  0
  -29.7357  -15.9176   20.4514 N   0  0  0  0  0  0
  -28.8850  -22.3905   20.3106 N   0  0  0  0  0  0
  -28.6724  -23.8601   18.5738 O   0  0  0  0  0  0
  -30.7963  -19.5315   21.5980 S   0  0  0  0  0  0
  -31.4790  -12.6364   19.1612 H   0  0  0  0  0  0
  -30.4081  -11.5173   19.9587 H   0  0  0  0  0  0
  -29.8114  -11.7389   17.5207 H   0  0  0  0  0  0
  -29.6306  -13.4642   17.7039 H   0  0  0  0  0  0
  -27.9101  -11.2770   18.9174 H   0  0  0  0  0  0
  -27.3847  -12.5011   17.7926 H   0  0  0  0  0  0
  -27.6212  -14.2447   19.4412 H   0  0  0  0  0  0
  -28.7292  -12.1911   21.4219 H   0  0  0  0  0  0
  -28.4088  -13.8718   21.7727 H   0  0  0  0  0  0
  -25.2767   -9.5676   22.4765 H   0  0  0  0  0  0
  -24.0000   -7.4637   22.7488 H   0  0  0  0  0  0
  -21.0845   -8.8787   19.8957 H   0  0  0  0  0  0
  -22.3722  -10.9677   19.6165 H   0  0  0  0  0  0
  -21.2012   -7.6155   23.9725 H   0  0  0  0  0  0
  -21.1477   -6.0525   25.9082 H   0  0  0  0  0  0
  -22.0596   -2.7620   23.2839 H   0  0  0  0  0  0
  -22.4055  -11.9891   22.4806 H   0  0  0  0  0  0
  -21.1072  -13.1276   22.2574 H   0  0  0  0  0  0
  -24.6492  -15.8373   20.5463 H   0  0  0  0  0  0
  -26.2433  -15.6360   20.0336 H   0  0  0  0  0  0
  -26.7211  -32.5398   23.1041 H   0  0  0  0  0  0
  -24.9976  -33.9666   25.0311 H   0  0  0  0  0  0
  -22.7266  -31.2917   21.3886 H   0  0  0  0  0  0
  -23.3735  -35.9589   23.3323 H   0  0  0  0  0  0
  -24.3551  -36.8876   22.2059 H   0  0  0  0  0  0
  -23.7213  -37.6454   23.6673 H   0  0  0  0  0  0
  -26.1163  -31.5163   20.6002 H   0  0  0  0  0  0
  -26.8533  -30.8130   22.0082 H   0  0  0  0  0  0
  -28.1319  -28.9166   21.1900 H   0  0  0  0  0  0
  -25.9777  -25.8662   19.0375 H   0  0  0  0  0  0
  -23.9720  -27.2772   19.0251 H   0  0  0  0  0  0
  -23.7676  -30.5657   19.3945 H   0  0  0  0  0  0
  -22.7673  -29.2242   19.8621 H   0  0  0  0  0  0
  -25.1289  -36.1893   25.0808 H   0  0  0  0  0  0
  -20.9980  -28.3286   24.1393 H   0  0  0  0  0  0
  -20.5651  -26.2319   23.3630 H   0  0  0  0  0  0
  -21.6630  -26.7430   22.1218 H   0  0  0  0  0  0
  -19.6880  -25.6308   21.1243 H   0  0  0  0  0  0
  -19.6661  -27.3214   20.6757 H   0  0  0  0  0  0
  -17.4180  -26.6693   21.4046 H   0  0  0  0  0  0
  -18.0309  -26.0094   22.9045 H   0  0  0  0  0  0
  -19.7954  -30.7290   24.2241 H   0  0  0  0  0  0
  -17.5041  -31.6293   24.5167 H   0  0  0  0  0  0
  -15.5365  -30.3012   23.7690 H   0  0  0  0  0  0
  -15.8665  -28.0838   22.7110 H   0  0  0  0  0  0
  -24.5883  -30.7099   25.7767 H   0  0  0  0  0  0
  -24.8892  -32.2949   26.4788 H   0  0  0  0  0  0
  -25.8014  -30.8992   27.0232 H   0  0  0  0  0  0
  -26.2958  -29.6732   24.1212 H   0  0  0  0  0  0
  -27.3960  -29.7263   25.4783 H   0  0  0  0  0  0
  -27.8862  -30.4237   23.9530 H   0  0  0  0  0  0
  -27.2617  -33.3649   26.2026 H   0  0  0  0  0  0
  -28.3866  -32.6884   25.0338 H   0  0  0  0  0  0
  -28.0670  -31.8490   26.5440 H   0  0  0  0  0  0
  -28.2596  -38.0063   24.7517 H   0  0  0  0  0  0
  -28.1036  -36.2598   24.6301 H   0  0  0  0  0  0
  -27.2288  -37.1445   25.8876 H   0  0  0  0  0  0
  -20.9418  -29.8700   21.6802 H   0  0  0  0  0  0
  -26.0139  -38.2828   24.1443 H   0  0  0  0  0  0
  -30.5094  -20.3412   18.0010 H   0  0  0  0  0  0
  -31.2672  -21.5172   19.0637 H   0  0  0  0  0  0
  -30.1191  -22.0293   17.8294 H   0  0  0  0  0  0
  -28.6732  -23.9873   22.5830 H   0  0  0  0  0  0
  -28.4465  -25.7226   22.6851 H   0  0  0  0  0  0
  -29.9095  -25.0753   21.9466 H   0  0  0  0  0  0
  -28.2994  -20.8220   19.0262 H   0  0  0  0  0  0
  -27.0784  -24.7616   20.8688 H   0  0  0  0  0  0
  -28.7646  -15.6828   20.3392 H   0  0  0  0  0  0
  -28.7939  -22.3178   21.3140 H   0  0  0  0  0  0
  1 25  1  0  0  0
  1 30  2  0  0  0
  1 80  1  0  0  0
  2  3  1  0  0  0
  2 25  1  0  0  0
  2 84  1  0  0  0
  2 85  1  0  0  0
  3  4  1  0  0  0
  3 86  1  0  0  0
  3 87  1  0  0  0
  4  5  1  0  0  0
  4 88  1  0  0  0
  4 89  1  0  0  0
  5  6  1  0  0  0
  5 26  1  0  0  0
  5 90  1  0  0  0
  6 25  1  0  0  0
  6 91  1  0  0  0
  6 92  1  0  0  0
  7  8  2  0  0  0
  7 26  1  0  0  0
  7 29  1  0  0  0
  8  9  1  0  0  0
  8 22  1  0  0  0
  9 10  1  0  0  0
  9 27  2  0  0  0
 10 11  2  0  0  0
 10 15  1  0  0  0
 11 12  1  0  0  0
 11 93  1  0  0  0
 12 13  2  0  0  0
 12 94  1  0  0  0
 13 14  1  0  0  0
 13 31  1  0  0  0
 14 15  2  0  0  0
 14 95  1  0  0  0
 15 96  1  0  0  0
 16 17  2  0  0  0
 16 21  1  0  0  0
 16 31  1  0  0  0
 17 18  1  0  0  0
 17 97  1  0  0  0
 18 19  2  0  0  0
 18 98  1  0  0  0
 19 20  1  0  0  0
 19 24  1  0  0  0
 20 21  2  0  0  0
 20 99  1  0  0  0
 21 23  1  0  0  0
 22 28  1  0  0  0
 22 32  2  0  0  0
 26 27  1  0  0  0
 28100  1  0  0  0
 28101  1  0  0  0
 29102  1  0  0  0
 29103  1  0  0  0
 33 34  1  0  0  0
 33 66  1  0  0  0
 33 70  2  0  0  0
 34 36  1  0  0  0
 34 59  1  0  0  0
 34104  1  0  0  0
 35 44  2  0  0  0
 35 45  1  0  0  0
 35 68  1  0  0  0
 36 56  1  0  0  0
 36105  1  0  0  0
 37 39  1  0  0  0
 37 47  1  0  0  0
 37 66  1  0  0  0
 37106  1  0  0  0
 38 43  2  0  0  0
 38 46  1  0  0  0
 38 47  1  0  0  0
 39 64  1  0  0  0
 39 67  2  0  0  0
 40 52  1  0  0  0
 40 53  2  0  0  0
 40 58  1  0  0  0
 41107  1  0  0  0
 41108  1  0  0  0
 41109  1  0  0  0
 41 48  1  0  0  0
 42 43  1  0  0  0
 42 66  1  0  0  0
 42110  1  0  0  0
 42111  1  0  0  0
 43 44  1  0  0  0
 44112  1  0  0  0
 45 46  2  0  0  0
 45113  1  0  0  0
 46114  1  0  0  0
 47115  1  0  0  0
 47116  1  0  0  0
 48 56  1  0  0  0
 48 65  1  0  0  0
 48117  1  0  0  0
 49 50  1  0  0  0
 49 53  1  0  0  0
 49 64  1  0  0  0
 49118  1  0  0  0
 50 51  1  0  0  0
 50119  1  0  0  0
 50120  1  0  0  0
 51 52  1  0  0  0
 51121  1  0  0  0
 51122  1  0  0  0
 52123  1  0  0  0
 52124  1  0  0  0
 53 54  1  0  0  0
 54 55  2  0  0  0
 54125  1  0  0  0
 55 57  1  0  0  0
 55126  1  0  0  0
 56 69  2  0  0  0
 57 58  2  0  0  0
 57127  1  0  0  0
 58128  1  0  0  0
 59 60  1  0  0  0
 59 61  1  0  0  0
 59 62  1  0  0  0
 60129  1  0  0  0
 60130  1  0  0  0
 60131  1  0  0  0
 61132  1  0  0  0
 61133  1  0  0  0
 61134  1  0  0  0
 62135  1  0  0  0
 62136  1  0  0  0
 62137  1  0  0  0
 63 65  1  0  0  0
 63138  1  0  0  0
 63139  1  0  0  0
 63140  1  0  0  0
 64141  1  0  0  0
 65142  1  0  0  0
 68 77  1  0  0  0
 71 76  1  0  0  0
 71 78  2  0  0  0
 71 83  1  0  0  0
 72 78  1  0  0  0
 72 79  2  0  0  0
 72 80  1  0  0  0
 73 77  1  0  0  0
 73 81  1  0  0  0
 73 82  2  0  0  0
 74143  1  0  0  0
 74144  1  0  0  0
 74145  1  0  0  0
 74 76  1  0  0  0
 75146  1  0  0  0
 75147  1  0  0  0
 75148  1  0  0  0
 75 77  1  0  0  0
 76 81  1  0  0  0
 76149  1  0  0  0
 77150  1  0  0  0
 79 83  1  0  0  0
 80151  1  0  0  0
 81152  1  0  0  0
M  ISO  4   1 100  68 101  77 101  80 100
M  END
> <chiral flag>
0

> <version>
0

> <s_m_source_file>
/data/baiqing/PycharmProjects/Reinvent-master-3.2/result/LINK_invent/BTK/process_docking_weight1_custom_product_contain_oxygen_bond_distance_aromatic_linkinvent_7_9_3/rearranged_h_0182.sdf

> <i_m_source_file_index>
83

> <r_mmod_Potential_Energy-OPLS-2005>
64.7221145629883

> <r_mmod_Stretch_Energy-OPLS-2005>
143.182800292969

> <r_mmod_Bend_Energy-OPLS-2005>
190.490570068359

> <r_mmod_Torsional_Energy-OPLS-2005>
225.983001708984

> <r_mmod_Improper_Torsional_Energy-OPLS-2005>
10.0164728164673

> <r_mmod_Van_der_Waal_Energy-OPLS-2005>
110.872001647949

> <r_mmod_Electrostatic_Energy-OPLS-2005>
-473.057708740234

> <r_mmod_Solvation_Energy-OPLS-2005>
-248.824615478516

> <b_mmod_Minimization_Converged-OPLS-2005>
0

> <r_mmod_RMS_Derivative-OPLS-2005>
1.71578192710876

$$$$
83
                    3D
 Structure written by MMmdl.
156164  0  0  1  0            999 V2000
  -30.6650  -14.4630   20.5406 C   0  0  0  0  0  0
  -30.4346  -12.2690   19.4355 C   0  0  0  0  0  0
  -29.5089  -12.4554   18.2143 C   0  0  0  0  0  0
  -28.0203  -12.3553   18.6152 C   0  0  0  0  0  0
  -27.6653  -13.1902   19.8752 C   0  0  2  0  0  0
  -28.7038  -12.9487   20.9938 C   0  0  0  0  0  0
  -25.2615  -13.8179   20.5694 C   0  0  0  0  0  0
  -24.1854  -13.0471   20.9157 C   0  0  0  0  0  0
  -24.6388  -11.6930   20.8704 C   0  0  0  0  0  0
  -23.9060  -10.4330   21.0372 C   0  0  0  0  0  0
  -24.3617   -9.4259   21.9156 C   0  0  0  0  0  0
  -23.6311   -8.2290   22.0757 C   0  0  0  0  0  0
  -22.4286   -8.0313   21.3552 C   0  0  0  0  0  0
  -21.9908   -9.0283   20.4644 C   0  0  0  0  0  0
  -22.7230  -10.2167   20.3030 C   0  0  0  0  0  0
  -21.6858   -6.0757   22.5296 C   0  0  0  0  0  0
  -21.4008   -6.5658   23.8235 C   0  0  0  0  0  0
  -21.3659   -5.6803   24.9195 C   0  0  0  0  0  0
  -21.6031   -4.3066   24.7228 C   0  0  0  0  0  0
  -21.8820   -3.8169   23.4352 C   0  0  0  0  0  0
  -21.9209   -4.6990   22.3413 C   0  0  0  0  0  0
  -22.7859  -13.5273   21.1832 C   0  0  0  0  0  0
  -22.1675   -4.2184   21.0987 F   0  0  0  0  0  0
  -21.5627   -3.4543   25.7738 F   0  0  0  0  0  0
  -30.0390  -13.2579   20.4502 N   0  0  0  0  0  0
  -26.3038  -12.9305   20.3371 N   0  0  0  0  0  0
  -25.9307  -11.6478   20.5751 N   0  0  0  0  0  0
  -22.0485  -12.8265   22.0383 N   0  0  0  0  0  0
  -25.4392  -15.1919   20.4190 N   0  0  0  0  0  0
  -31.7817  -14.6853   20.0593 O   0  0  0  0  0  0
  -21.6649   -6.8904   21.4255 O   0  0  0  0  0  0
  -22.3533  -14.5574   20.6687 O   0  0  0  0  0  0
  -24.6137  -31.8657   23.2063 C   0  0  0  0  0  0
  -25.9035  -32.4805   23.8365 C   0  0  1  0  0  0
  -27.2422  -27.4301   20.0939 C   0  0  0  0  0  0
  -25.5885  -33.8609   24.2295 N   0  0  0  0  0  0
  -23.4030  -30.4861   21.5474 C   0  0  2  0  0  0
  -24.8521  -28.9436   20.1179 C   0  0  0  0  0  0
  -22.7413  -29.4641   22.4993 C   0  0  0  0  0  0
  -18.0277  -28.1380   22.8477 C   0  0  0  0  0  0
  -24.1492  -36.7307   23.2637 C   0  0  0  0  0  0
  -25.9300  -30.8307   21.3581 C   0  0  0  0  0  0
  -26.0117  -29.4614   20.7105 C   0  0  0  0  0  0
  -27.2113  -28.7142   20.6902 C   0  0  0  0  0  0
  -26.0680  -26.9197   19.5068 C   0  0  0  0  0  0
  -24.8766  -27.6730   19.5142 C   0  0  0  0  0  0
  -23.6138  -29.8135   20.1651 C   0  0  0  0  0  0
  -25.4111  -36.3097   24.0336 C   0  0  1  0  0  0
  -20.5844  -28.3688   23.1310 C   0  0  2  0  0  0
  -20.6787  -26.9430   22.5426 C   0  0  0  0  0  0
  -19.5777  -26.6358   21.5230 C   0  0  0  0  0  0
  -18.1949  -26.7927   22.1628 C   0  0  0  0  0  0
  -19.1515  -28.8855   23.2885 C   0  0  0  0  0  0
  -18.9449  -30.1448   23.8924 C   0  0  0  0  0  0
  -17.6452  -30.6589   24.0577 C   0  0  0  0  0  0
  -25.9038  -34.9469   23.5115 C   0  0  0  0  0  0
  -16.5349  -29.9089   23.6332 C   0  0  0  0  0  0
  -16.7271  -28.6495   23.0364 C   0  0  0  0  0  0
  -26.4471  -31.6589   25.0691 C   0  0  0  0  0  0
  -25.3738  -31.3673   26.1432 C   0  0  0  0  0  0
  -27.0304  -30.3033   24.6047 C   0  0  0  0  0  0
  -27.6053  -32.4293   25.7445 C   0  0  0  0  0  0
  -27.5585  -37.1810   24.8469 C   0  0  0  0  0  0
  -21.4128  -29.3047   22.3734 N   0  0  0  0  0  0
  -26.4305  -37.3783   23.9403 N   0  0  0  0  0  0
  -24.6673  -31.0738   22.0975 N   0  0  0  0  0  0
  -23.4180  -28.8163   23.3034 O   0  0  0  0  0  0
  -28.4216  -26.7147   20.0412 O   0  0  0  0  0  0
  -26.5603  -34.8929   22.4673 O   0  0  0  0  0  0
  -23.5325  -32.1415   23.7456 O   0  0  0  0  0  0
  -29.3282  -17.2510   19.5387 C   0  0  0  0  0  0
  -29.8602  -16.7391   20.7118 C   0  0  0  0  0  0
  -29.6831  -19.2226   20.6243 C   0  0  0  0  0  0
  -28.9022  -21.5859   20.2557 C   0  0  0  0  0  0
  -28.7406  -16.5208   18.3711 C   0  0  0  0  0  0
  -27.8414  -25.6490   22.2123 C   0  0  0  0  0  0
  -29.0162  -22.9877   20.8819 C   0  0  0  0  0  0
  -28.3417  -24.1789   20.1327 C   0  0  0  0  0  0
  -28.5757  -25.5367   20.8627 C   0  0  1  0  0  0
  -29.2618  -18.6474   19.4981 N   0  0  0  0  0  0
  -29.9309  -15.4374   21.1091 N   0  0  0  0  0  0
  -29.6372  -20.6258   20.8600 N   0  0  0  0  0  0
  -28.1632  -21.3994   19.2843 O   0  0  0  0  0  0
  -30.2865  -18.0503   21.7993 S   0  0  0  0  0  0
  -31.4811  -12.3705   19.1417 H   0  0  0  0  0  0
  -30.3462  -11.2571   19.8398 H   0  0  0  0  0  0
  -29.7407  -11.7044   17.4577 H   0  0  0  0  0  0
  -29.7081  -13.4185   17.7497 H   0  0  0  0  0  0
  -27.8041  -11.3046   18.8057 H   0  0  0  0  0  0
  -27.3902  -12.6537   17.7763 H   0  0  0  0  0  0
  -27.7114  -14.2365   19.5835 H   0  0  0  0  0  0
  -28.6765  -11.9074   21.3170 H   0  0  0  0  0  0
  -28.4661  -13.5279   21.8859 H   0  0  0  0  0  0
  -25.2783   -9.5757   22.4708 H   0  0  0  0  0  0
  -24.0031   -7.4697   22.7496 H   0  0  0  0  0  0
  -21.0829   -8.8800   19.8958 H   0  0  0  0  0  0
  -22.3691  -10.9686   19.6131 H   0  0  0  0  0  0
  -21.1965   -7.6158   23.9745 H   0  0  0  0  0  0
  -21.1476   -6.0524   25.9096 H   0  0  0  0  0  0
  -22.0586   -2.7633   23.2844 H   0  0  0  0  0  0
  -22.4060  -11.9894   22.4720 H   0  0  0  0  0  0
  -21.1127  -13.1311   22.2601 H   0  0  0  0  0  0
  -24.6766  -15.8486   20.5437 H   0  0  0  0  0  0
  -26.3094  -15.6423   20.1713 H   0  0  0  0  0  0
  -26.7084  -32.5518   23.1120 H   0  0  0  0  0  0
  -25.0068  -33.9772   25.0461 H   0  0  0  0  0  0
  -22.6918  -31.3010   21.4085 H   0  0  0  0  0  0
  -23.3754  -35.9646   23.3314 H   0  0  0  0  0  0
  -24.3580  -36.8907   22.2046 H   0  0  0  0  0  0
  -23.7262  -37.6526   23.6642 H   0  0  0  0  0  0
  -26.0314  -31.5965   20.5861 H   0  0  0  0  0  0
  -26.8199  -30.8914   21.9745 H   0  0  0  0  0  0
  -28.1109  -29.1149   21.1356 H   0  0  0  0  0  0
  -26.0806  -25.9456   19.0370 H   0  0  0  0  0  0
  -23.9887  -27.2706   19.0485 H   0  0  0  0  0  0
  -23.7220  -30.5880   19.4053 H   0  0  0  0  0  0
  -22.7385  -29.2344   19.8674 H   0  0  0  0  0  0
  -25.1291  -36.1967   25.0834 H   0  0  0  0  0  0
  -20.9906  -28.3278   24.1441 H   0  0  0  0  0  0
  -20.5695  -26.2324   23.3626 H   0  0  0  0  0  0
  -21.6676  -26.7487   22.1239 H   0  0  0  0  0  0
  -19.6930  -25.6229   21.1357 H   0  0  0  0  0  0
  -19.6729  -27.3091   20.6700 H   0  0  0  0  0  0
  -17.4211  -26.6656   21.4031 H   0  0  0  0  0  0
  -18.0338  -26.0098   22.9062 H   0  0  0  0  0  0
  -19.7931  -30.7252   24.2320 H   0  0  0  0  0  0
  -17.5014  -31.6277   24.5184 H   0  0  0  0  0  0
  -15.5347  -30.3000   23.7672 H   0  0  0  0  0  0
  -15.8672  -28.0806   22.7114 H   0  0  0  0  0  0
  -24.5912  -30.7031   25.7741 H   0  0  0  0  0  0
  -24.8944  -32.2831   26.4897 H   0  0  0  0  0  0
  -25.8090  -30.8816   27.0179 H   0  0  0  0  0  0
  -26.2851  -29.6784   24.1106 H   0  0  0  0  0  0
  -27.4089  -29.7247   25.4488 H   0  0  0  0  0  0
  -27.8675  -30.4336   23.9175 H   0  0  0  0  0  0
  -27.2680  -33.3567   26.2069 H   0  0  0  0  0  0
  -28.3837  -32.6875   25.0259 H   0  0  0  0  0  0
  -28.0753  -31.8392   26.5317 H   0  0  0  0  0  0
  -28.2604  -38.0101   24.7502 H   0  0  0  0  0  0
  -28.1074  -36.2634   24.6314 H   0  0  0  0  0  0
  -27.2299  -37.1485   25.8872 H   0  0  0  0  0  0
  -20.9298  -29.8820   21.6988 H   0  0  0  0  0  0
  -26.0187  -38.2862   24.1415 H   0  0  0  0  0  0
  -29.2828  -15.6059   18.1465 H   0  0  0  0  0  0
  -28.7584  -17.1329   17.4692 H   0  0  0  0  0  0
  -27.6950  -16.2759   18.5525 H   0  0  0  0  0  0
  -28.1262  -24.8519   22.8978 H   0  0  0  0  0  0
  -26.7609  -25.6045   22.0834 H   0  0  0  0  0  0
  -28.0838  -26.5895   22.7058 H   0  0  0  0  0  0
  -30.0787  -23.2040   20.9944 H   0  0  0  0  0  0
  -28.6082  -22.9059   21.8872 H   0  0  0  0  0  0
  -28.7593  -24.2359   19.1257 H   0  0  0  0  0  0
  -27.2757  -23.9943   20.0058 H   0  0  0  0  0  0
  -29.6384  -25.5579   21.1044 H   0  0  0  0  0  0
  -29.1204  -15.0956   21.6043 H   0  0  0  0  0  0
  -30.1728  -20.9319   21.6595 H   0  0  0  0  0  0
  1 25  1  0  0  0
  1 30  2  0  0  0
  1 81  1  0  0  0
  2  3  1  0  0  0
  2 25  1  0  0  0
  2 85  1  0  0  0
  2 86  1  0  0  0
  3  4  1  0  0  0
  3 87  1  0  0  0
  3 88  1  0  0  0
  4  5  1  0  0  0
  4 89  1  0  0  0
  4 90  1  0  0  0
  5  6  1  0  0  0
  5 26  1  0  0  0
  5 91  1  0  0  0
  6 25  1  0  0  0
  6 92  1  0  0  0
  6 93  1  0  0  0
  7  8  2  0  0  0
  7 26  1  0  0  0
  7 29  1  0  0  0
  8  9  1  0  0  0
  8 22  1  0  0  0
  9 10  1  0  0  0
  9 27  2  0  0  0
 10 11  2  0  0  0
 10 15  1  0  0  0
 11 12  1  0  0  0
 11 94  1  0  0  0
 12 13  2  0  0  0
 12 95  1  0  0  0
 13 14  1  0  0  0
 13 31  1  0  0  0
 14 15  2  0  0  0
 14 96  1  0  0  0
 15 97  1  0  0  0
 16 17  2  0  0  0
 16 21  1  0  0  0
 16 31  1  0  0  0
 17 18  1  0  0  0
 17 98  1  0  0  0
 18 19  2  0  0  0
 18 99  1  0  0  0
 19 20  1  0  0  0
 19 24  1  0  0  0
 20 21  2  0  0  0
 20100  1  0  0  0
 21 23  1  0  0  0
 22 28  1  0  0  0
 22 32  2  0  0  0
 26 27  1  0  0  0
 28101  1  0  0  0
 28102  1  0  0  0
 29103  1  0  0  0
 29104  1  0  0  0
 33 34  1  0  0  0
 33 66  1  0  0  0
 33 70  2  0  0  0
 34 36  1  0  0  0
 34 59  1  0  0  0
 34105  1  0  0  0
 35 44  2  0  0  0
 35 45  1  0  0  0
 35 68  1  0  0  0
 36 56  1  0  0  0
 36106  1  0  0  0
 37 39  1  0  0  0
 37 47  1  0  0  0
 37 66  1  0  0  0
 37107  1  0  0  0
 38 43  2  0  0  0
 38 46  1  0  0  0
 38 47  1  0  0  0
 39 64  1  0  0  0
 39 67  2  0  0  0
 40 52  1  0  0  0
 40 53  2  0  0  0
 40 58  1  0  0  0
 41108  1  0  0  0
 41109  1  0  0  0
 41110  1  0  0  0
 41 48  1  0  0  0
 42 43  1  0  0  0
 42 66  1  0  0  0
 42111  1  0  0  0
 42112  1  0  0  0
 43 44  1  0  0  0
 44113  1  0  0  0
 45 46  2  0  0  0
 45114  1  0  0  0
 46115  1  0  0  0
 47116  1  0  0  0
 47117  1  0  0  0
 48 56  1  0  0  0
 48 65  1  0  0  0
 48118  1  0  0  0
 49 50  1  0  0  0
 49 53  1  0  0  0
 49 64  1  0  0  0
 49119  1  0  0  0
 50 51  1  0  0  0
 50120  1  0  0  0
 50121  1  0  0  0
 51 52  1  0  0  0
 51122  1  0  0  0
 51123  1  0  0  0
 52124  1  0  0  0
 52125  1  0  0  0
 53 54  1  0  0  0
 54 55  2  0  0  0
 54126  1  0  0  0
 55 57  1  0  0  0
 55127  1  0  0  0
 56 69  2  0  0  0
 57 58  2  0  0  0
 57128  1  0  0  0
 58129  1  0  0  0
 59 60  1  0  0  0
 59 61  1  0  0  0
 59 62  1  0  0  0
 60130  1  0  0  0
 60131  1  0  0  0
 60132  1  0  0  0
 61133  1  0  0  0
 61134  1  0  0  0
 61135  1  0  0  0
 62136  1  0  0  0
 62137  1  0  0  0
 62138  1  0  0  0
 63 65  1  0  0  0
 63139  1  0  0  0
 63140  1  0  0  0
 63141  1  0  0  0
 64142  1  0  0  0
 65143  1  0  0  0
 68 79  1  0  0  0
 71 72  2  0  0  0
 71 75  1  0  0  0
 71 80  1  0  0  0
 72 81  1  0  0  0
 72 84  1  0  0  0
 73 80  2  0  0  0
 73 82  1  0  0  0
 73 84  1  0  0  0
 74 77  1  0  0  0
 74 82  1  0  0  0
 74 83  2  0  0  0
 75144  1  0  0  0
 75145  1  0  0  0
 75146  1  0  0  0
 76147  1  0  0  0
 76148  1  0  0  0
 76149  1  0  0  0
 76 79  1  0  0  0
 77 78  1  0  0  0
 77150  1  0  0  0
 77151  1  0  0  0
 78 79  1  0  0  0
 78152  1  0  0  0
 78153  1  0  0  0
 79154  1  0  0  0
 81155  1  0  0  0
 82156  1  0  0  0
M  ISO  4   1 100  68 101  79 101  81 100
M  END
> <chiral flag>
0

> <version>
0

> <s_m_source_file>
/data/baiqing/PycharmProjects/Reinvent-master-3.2/result/LINK_invent/BTK/process_docking_weight1_custom_product_contain_oxygen_bond_distance_aromatic_linkinvent_7_9_3/rearranged_h_0182.sdf

> <i_m_source_file_index>
84

> <r_mmod_Potential_Energy-OPLS-2005>
-162.832702636719

> <r_mmod_Stretch_Energy-OPLS-2005>
37.349494934082

> <r_mmod_Bend_Energy-OPLS-2005>
115.411949157715

> <r_mmod_Torsional_Energy-OPLS-2005>
264.354339599609

> <r_mmod_Improper_Torsional_Energy-OPLS-2005>
5.05307865142822

> <r_mmod_Van_der_Waal_Energy-OPLS-2005>
120.674491882324

> <r_mmod_Electrostatic_Energy-OPLS-2005>
-468.445709228516

> <r_mmod_Solvation_Energy-OPLS-2005>
-249.827514648438

> <b_mmod_Minimization_Converged-OPLS-2005>
0

> <r_mmod_RMS_Derivative-OPLS-2005>
4.04368209838867

$$$$
84
                    3D
 Structure written by MMmdl.
153161  0  0  1  0            999 V2000
  -30.6610  -14.5809   20.4790 C   0  0  0  0  0  0
  -30.4236  -12.3482   19.4516 C   0  0  0  0  0  0
  -29.5009  -12.4884   18.2206 C   0  0  0  0  0  0
  -28.0218  -12.3434   18.6309 C   0  0  0  0  0  0
  -27.6515  -13.2186   19.8586 C   0  0  2  0  0  0
  -28.6945  -13.0725   20.9907 C   0  0  0  0  0  0
  -25.2551  -13.8181   20.5694 C   0  0  0  0  0  0
  -24.1806  -13.0451   20.9203 C   0  0  0  0  0  0
  -24.6368  -11.6920   20.8735 C   0  0  0  0  0  0
  -23.9030  -10.4303   21.0397 C   0  0  0  0  0  0
  -24.3594   -9.4218   21.9171 C   0  0  0  0  0  0
  -23.6287   -8.2246   22.0739 C   0  0  0  0  0  0
  -22.4269   -8.0277   21.3535 C   0  0  0  0  0  0
  -21.9893   -9.0242   20.4635 C   0  0  0  0  0  0
  -22.7206  -10.2131   20.3040 C   0  0  0  0  0  0
  -21.6853   -6.0733   22.5278 C   0  0  0  0  0  0
  -21.4016   -6.5632   23.8216 C   0  0  0  0  0  0
  -21.3666   -5.6786   24.9173 C   0  0  0  0  0  0
  -21.6046   -4.3049   24.7228 C   0  0  0  0  0  0
  -21.8817   -3.8140   23.4344 C   0  0  0  0  0  0
  -21.9189   -4.6958   22.3398 C   0  0  0  0  0  0
  -22.7826  -13.5245   21.1870 C   0  0  0  0  0  0
  -22.1662   -4.2142   21.0985 F   0  0  0  0  0  0
  -21.5629   -3.4536   25.7742 F   0  0  0  0  0  0
  -30.0174  -13.3770   20.4277 N   0  0  0  0  0  0
  -26.2970  -12.9368   20.3298 N   0  0  0  0  0  0
  -25.9296  -11.6515   20.5734 N   0  0  0  0  0  0
  -22.0450  -12.8249   22.0422 N   0  0  0  0  0  0
  -25.4272  -15.1903   20.4127 N   0  0  0  0  0  0
  -31.8329  -14.6977   20.1087 O   0  0  0  0  0  0
  -21.6636   -6.8871   21.4236 O   0  0  0  0  0  0
  -22.3514  -14.5560   20.6722 O   0  0  0  0  0  0
  -24.6206  -31.8631   23.2043 C   0  0  0  0  0  0
  -25.9072  -32.4799   23.8362 C   0  0  1  0  0  0
  -27.2307  -27.3690   20.1071 C   0  0  0  0  0  0
  -25.5912  -33.8599   24.2297 N   0  0  0  0  0  0
  -23.4114  -30.4846   21.5466 C   0  0  2  0  0  0
  -24.8551  -28.9402   20.1120 C   0  0  0  0  0  0
  -22.7447  -29.4631   22.4967 C   0  0  0  0  0  0
  -18.0285  -28.1372   22.8481 C   0  0  0  0  0  0
  -24.1486  -36.7296   23.2639 C   0  0  0  0  0  0
  -25.9449  -30.8070   21.3670 C   0  0  0  0  0  0
  -26.0180  -29.4367   20.7129 C   0  0  0  0  0  0
  -27.2036  -28.6585   20.7058 C   0  0  0  0  0  0
  -26.0411  -26.8967   19.5068 C   0  0  0  0  0  0
  -24.8651  -27.6727   19.5061 C   0  0  0  0  0  0
  -23.6203  -29.8138   20.1623 C   0  0  0  0  0  0
  -25.4112  -36.3103   24.0334 C   0  0  1  0  0  0
  -20.5874  -28.3670   23.1297 C   0  0  2  0  0  0
  -20.6772  -26.9397   22.5416 C   0  0  0  0  0  0
  -19.5754  -26.6374   21.5209 C   0  0  0  0  0  0
  -18.1929  -26.7920   22.1611 C   0  0  0  0  0  0
  -19.1533  -28.8837   23.2886 C   0  0  0  0  0  0
  -18.9461  -30.1439   23.8900 C   0  0  0  0  0  0
  -17.6462  -30.6576   24.0557 C   0  0  0  0  0  0
  -25.9044  -34.9469   23.5116 C   0  0  0  0  0  0
  -16.5355  -29.9073   23.6328 C   0  0  0  0  0  0
  -16.7273  -28.6492   23.0350 C   0  0  0  0  0  0
  -26.4479  -31.6603   25.0719 C   0  0  0  0  0  0
  -25.3731  -31.3731   26.1466 C   0  0  0  0  0  0
  -27.0331  -30.3045   24.6134 C   0  0  0  0  0  0
  -27.6048  -32.4340   25.7477 C   0  0  0  0  0  0
  -27.5582  -37.1806   24.8467 C   0  0  0  0  0  0
  -21.4167  -29.3033   22.3702 N   0  0  0  0  0  0
  -26.4301  -37.3788   23.9407 N   0  0  0  0  0  0
  -24.6774  -31.0676   22.0968 N   0  0  0  0  0  0
  -23.4197  -28.8179   23.3034 O   0  0  0  0  0  0
  -28.3950  -26.6083   20.1634 O   0  0  0  0  0  0
  -26.5608  -34.8933   22.4681 O   0  0  0  0  0  0
  -23.5386  -32.1413   23.7408 O   0  0  0  0  0  0
  -29.6299  -18.1767   20.8468 C   0  0  0  0  0  0
  -29.8926  -19.3531   20.0305 C   0  0  0  0  0  0
  -30.0390  -16.9567   20.2951 C   0  0  0  0  0  0
  -30.4701  -18.9637   18.8519 C   0  0  0  0  0  0
  -29.6966  -20.8348   20.3247 C   0  0  0  0  0  0
  -28.3852  -24.0306   20.1457 C   0  0  0  0  0  0
  -26.9833  -22.6842   18.5691 C   0  0  0  0  0  0
  -28.5460  -25.3894   19.3768 C   0  0  0  0  0  0
  -28.3638  -22.7276   19.2559 C   0  0  2  0  0  0
  -29.9100  -15.6749   20.8013 N   0  0  0  0  0  0
  -28.5390  -21.3929   19.9115 N   0  0  0  0  0  0
  -30.6166  -21.5278   20.7651 O   0  0  0  0  0  0
  -28.2651  -24.0098   21.3758 O   0  0  0  0  0  0
  -30.8476  -19.8141   17.8642 F   0  0  0  0  0  0
  -30.7250  -17.2545   18.7023 S   0  0  0  0  0  0
  -31.4693  -12.4437   19.1519 H   0  0  0  0  0  0
  -30.3300  -11.3543   19.8914 H   0  0  0  0  0  0
  -29.7540  -11.7371   17.4711 H   0  0  0  0  0  0
  -29.6582  -13.4576   17.7444 H   0  0  0  0  0  0
  -27.8485  -11.2926   18.8637 H   0  0  0  0  0  0
  -27.3698  -12.5756   17.7873 H   0  0  0  0  0  0
  -27.6719  -14.2530   19.5141 H   0  0  0  0  0  0
  -28.6846  -12.0576   21.3901 H   0  0  0  0  0  0
  -28.4536  -13.7274   21.8300 H   0  0  0  0  0  0
  -25.2728   -9.5724   22.4756 H   0  0  0  0  0  0
  -24.0003   -7.4644   22.7456 H   0  0  0  0  0  0
  -21.0822   -8.8735   19.8955 H   0  0  0  0  0  0
  -22.3625  -10.9661   19.6158 H   0  0  0  0  0  0
  -21.2009   -7.6141   23.9720 H   0  0  0  0  0  0
  -21.1497   -6.0514   25.9083 H   0  0  0  0  0  0
  -22.0590   -2.7600   23.2841 H   0  0  0  0  0  0
  -22.4048  -11.9930   22.4864 H   0  0  0  0  0  0
  -21.1059  -13.1276   22.2591 H   0  0  0  0  0  0
  -24.6621  -15.8470   20.5254 H   0  0  0  0  0  0
  -26.2788  -15.6274   20.0854 H   0  0  0  0  0  0
  -26.7131  -32.5484   23.1111 H   0  0  0  0  0  0
  -25.0109  -33.9747   25.0479 H   0  0  0  0  0  0
  -22.7028  -31.3028   21.4061 H   0  0  0  0  0  0
  -23.3760  -35.9618   23.3318 H   0  0  0  0  0  0
  -24.3576  -36.8898   22.2049 H   0  0  0  0  0  0
  -23.7225  -37.6499   23.6650 H   0  0  0  0  0  0
  -26.0709  -31.5694   20.5975 H   0  0  0  0  0  0
  -26.8283  -30.8555   21.9922 H   0  0  0  0  0  0
  -28.1004  -29.0376   21.1758 H   0  0  0  0  0  0
  -25.9838  -25.9153   19.0610 H   0  0  0  0  0  0
  -23.9669  -27.2790   19.0496 H   0  0  0  0  0  0
  -23.7292  -30.5872   19.4012 H   0  0  0  0  0  0
  -22.7428  -29.2344   19.8690 H   0  0  0  0  0  0
  -25.1291  -36.1966   25.0826 H   0  0  0  0  0  0
  -20.9965  -28.3243   24.1416 H   0  0  0  0  0  0
  -20.5665  -26.2280   23.3615 H   0  0  0  0  0  0
  -21.6645  -26.7428   22.1215 H   0  0  0  0  0  0
  -19.6916  -25.6284   21.1238 H   0  0  0  0  0  0
  -19.6699  -27.3184   20.6737 H   0  0  0  0  0  0
  -17.4207  -26.6679   21.3999 H   0  0  0  0  0  0
  -18.0318  -26.0054   22.8997 H   0  0  0  0  0  0
  -19.7942  -30.7244   24.2278 H   0  0  0  0  0  0
  -17.5025  -31.6258   24.5155 H   0  0  0  0  0  0
  -15.5354  -30.2974   23.7654 H   0  0  0  0  0  0
  -15.8678  -28.0807   22.7068 H   0  0  0  0  0  0
  -24.5883  -30.7102   25.7800 H   0  0  0  0  0  0
  -24.8952  -32.2901   26.4925 H   0  0  0  0  0  0
  -25.8068  -30.8884   27.0223 H   0  0  0  0  0  0
  -26.2888  -29.6788   24.1191 H   0  0  0  0  0  0
  -27.4102  -29.7298   25.4604 H   0  0  0  0  0  0
  -27.8721  -30.4370   23.9299 H   0  0  0  0  0  0
  -27.2653  -33.3621   26.2090 H   0  0  0  0  0  0
  -28.3828  -32.6937   25.0284 H   0  0  0  0  0  0
  -28.0761  -31.8457   26.5365 H   0  0  0  0  0  0
  -28.2620  -38.0087   24.7515 H   0  0  0  0  0  0
  -28.1062  -36.2624   24.6298 H   0  0  0  0  0  0
  -27.2305  -37.1457   25.8872 H   0  0  0  0  0  0
  -20.9345  -29.8746   21.6902 H   0  0  0  0  0  0
  -26.0194  -38.2869   24.1411 H   0  0  0  0  0  0
  -29.1741  -18.2786   21.8220 H   0  0  0  0  0  0
  -26.7968  -23.5692   17.9617 H   0  0  0  0  0  0
  -26.1705  -22.6111   19.2945 H   0  0  0  0  0  0
  -26.9050  -21.8301   17.8962 H   0  0  0  0  0  0
  -27.9190  -25.4036   18.4878 H   0  0  0  0  0  0
  -29.5672  -25.3984   18.9951 H   0  0  0  0  0  0
  -29.1357  -22.8241   18.4907 H   0  0  0  0  0  0
  -29.0432  -15.4751   21.2775 H   0  0  0  0  0  0
  -27.8187  -20.7221   19.6884 H   0  0  0  0  0  0
  1 25  1  0  0  0
  1 30  2  0  0  0
  1 80  1  0  0  0
  2  3  1  0  0  0
  2 25  1  0  0  0
  2 86  1  0  0  0
  2 87  1  0  0  0
  3  4  1  0  0  0
  3 88  1  0  0  0
  3 89  1  0  0  0
  4  5  1  0  0  0
  4 90  1  0  0  0
  4 91  1  0  0  0
  5  6  1  0  0  0
  5 26  1  0  0  0
  5 92  1  0  0  0
  6 25  1  0  0  0
  6 93  1  0  0  0
  6 94  1  0  0  0
  7  8  2  0  0  0
  7 26  1  0  0  0
  7 29  1  0  0  0
  8  9  1  0  0  0
  8 22  1  0  0  0
  9 10  1  0  0  0
  9 27  2  0  0  0
 10 11  2  0  0  0
 10 15  1  0  0  0
 11 12  1  0  0  0
 11 95  1  0  0  0
 12 13  2  0  0  0
 12 96  1  0  0  0
 13 14  1  0  0  0
 13 31  1  0  0  0
 14 15  2  0  0  0
 14 97  1  0  0  0
 15 98  1  0  0  0
 16 17  2  0  0  0
 16 21  1  0  0  0
 16 31  1  0  0  0
 17 18  1  0  0  0
 17 99  1  0  0  0
 18 19  2  0  0  0
 18100  1  0  0  0
 19 20  1  0  0  0
 19 24  1  0  0  0
 20 21  2  0  0  0
 20101  1  0  0  0
 21 23  1  0  0  0
 22 28  1  0  0  0
 22 32  2  0  0  0
 26 27  1  0  0  0
 28102  1  0  0  0
 28103  1  0  0  0
 29104  1  0  0  0
 29105  1  0  0  0
 33 34  1  0  0  0
 33 66  1  0  0  0
 33 70  2  0  0  0
 34 36  1  0  0  0
 34 59  1  0  0  0
 34106  1  0  0  0
 35 44  2  0  0  0
 35 45  1  0  0  0
 35 68  1  0  0  0
 36 56  1  0  0  0
 36107  1  0  0  0
 37 39  1  0  0  0
 37 47  1  0  0  0
 37 66  1  0  0  0
 37108  1  0  0  0
 38 43  2  0  0  0
 38 46  1  0  0  0
 38 47  1  0  0  0
 39 64  1  0  0  0
 39 67  2  0  0  0
 40 52  1  0  0  0
 40 53  2  0  0  0
 40 58  1  0  0  0
 41109  1  0  0  0
 41110  1  0  0  0
 41111  1  0  0  0
 41 48  1  0  0  0
 42 43  1  0  0  0
 42 66  1  0  0  0
 42112  1  0  0  0
 42113  1  0  0  0
 43 44  1  0  0  0
 44114  1  0  0  0
 45 46  2  0  0  0
 45115  1  0  0  0
 46116  1  0  0  0
 47117  1  0  0  0
 47118  1  0  0  0
 48 56  1  0  0  0
 48 65  1  0  0  0
 48119  1  0  0  0
 49 50  1  0  0  0
 49 53  1  0  0  0
 49 64  1  0  0  0
 49120  1  0  0  0
 50 51  1  0  0  0
 50121  1  0  0  0
 50122  1  0  0  0
 51 52  1  0  0  0
 51123  1  0  0  0
 51124  1  0  0  0
 52125  1  0  0  0
 52126  1  0  0  0
 53 54  1  0  0  0
 54 55  2  0  0  0
 54127  1  0  0  0
 55 57  1  0  0  0
 55128  1  0  0  0
 56 69  2  0  0  0
 57 58  2  0  0  0
 57129  1  0  0  0
 58130  1  0  0  0
 59 60  1  0  0  0
 59 61  1  0  0  0
 59 62  1  0  0  0
 60131  1  0  0  0
 60132  1  0  0  0
 60133  1  0  0  0
 61134  1  0  0  0
 61135  1  0  0  0
 61136  1  0  0  0
 62137  1  0  0  0
 62138  1  0  0  0
 62139  1  0  0  0
 63 65  1  0  0  0
 63140  1  0  0  0
 63141  1  0  0  0
 63142  1  0  0  0
 64143  1  0  0  0
 65144  1  0  0  0
 68 78  1  0  0  0
 71 72  1  0  0  0
 71 73  2  0  0  0
 71145  1  0  0  0
 72 74  2  0  0  0
 72 75  1  0  0  0
 73 80  1  0  0  0
 73 85  1  0  0  0
 74 84  1  0  0  0
 74 85  1  0  0  0
 75 81  1  0  0  0
 75 82  2  0  0  0
 76 78  1  0  0  0
 76 79  1  0  0  0
 76 83  2  0  0  0
 77146  1  0  0  0
 77147  1  0  0  0
 77148  1  0  0  0
 77 79  1  0  0  0
 78149  1  0  0  0
 78150  1  0  0  0
 79 81  1  0  0  0
 79151  1  0  0  0
 80152  1  0  0  0
 81153  1  0  0  0
M  ISO  4   1 100  68 101  78 101  80 100
M  END
> <chiral flag>
0

> <version>
0

> <s_m_source_file>
/data/baiqing/PycharmProjects/Reinvent-master-3.2/result/LINK_invent/BTK/process_docking_weight1_custom_product_contain_oxygen_bond_distance_aromatic_linkinvent_7_9_3/rearranged_h_0182.sdf

> <i_m_source_file_index>
85

> <r_mmod_Potential_Energy-OPLS-2005>
-20.7930526733398

> <r_mmod_Stretch_Energy-OPLS-2005>
58.2499351501465

> <r_mmod_Bend_Energy-OPLS-2005>
133.900100708008

> <r_mmod_Torsional_Energy-OPLS-2005>
264.54931640625

> <r_mmod_Improper_Torsional_Energy-OPLS-2005>
8.26363372802734

> <r_mmod_Van_der_Waal_Energy-OPLS-2005>
121.695098876953

> <r_mmod_Electrostatic_Energy-OPLS-2005>
-367.756866455078

> <r_mmod_Solvation_Energy-OPLS-2005>
-271.286926269531

> <b_mmod_Minimization_Converged-OPLS-2005>
0

> <r_mmod_RMS_Derivative-OPLS-2005>
1.75131392478943

$$$$
85
                    3D
 Structure written by MMmdl.
154162  0  0  1  0            999 V2000
  -30.6839  -14.5404   20.5332 C   0  0  0  0  0  0
  -30.4264  -12.3417   19.4402 C   0  0  0  0  0  0
  -29.4985  -12.4964   18.2173 C   0  0  0  0  0  0
  -28.0197  -12.3591   18.6280 C   0  0  0  0  0  0
  -27.6572  -13.2136   19.8717 C   0  0  2  0  0  0
  -28.7015  -13.0332   20.9967 C   0  0  0  0  0  0
  -25.2565  -13.8166   20.5708 C   0  0  0  0  0  0
  -24.1802  -13.0458   20.9188 C   0  0  0  0  0  0
  -24.6358  -11.6925   20.8740 C   0  0  0  0  0  0
  -23.9031  -10.4306   21.0398 C   0  0  0  0  0  0
  -24.3591   -9.4219   21.9174 C   0  0  0  0  0  0
  -23.6278   -8.2239   22.0740 C   0  0  0  0  0  0
  -22.4256   -8.0267   21.3544 C   0  0  0  0  0  0
  -21.9890   -9.0241   20.4644 C   0  0  0  0  0  0
  -22.7212  -10.2127   20.3063 C   0  0  0  0  0  0
  -21.6851   -6.0724   22.5257 C   0  0  0  0  0  0
  -21.4025   -6.5629   23.8193 C   0  0  0  0  0  0
  -21.3677   -5.6779   24.9157 C   0  0  0  0  0  0
  -21.6045   -4.3040   24.7214 C   0  0  0  0  0  0
  -21.8825   -3.8139   23.4329 C   0  0  0  0  0  0
  -21.9204   -4.6960   22.3392 C   0  0  0  0  0  0
  -22.7825  -13.5267   21.1833 C   0  0  0  0  0  0
  -22.1661   -4.2141   21.0967 F   0  0  0  0  0  0
  -21.5640   -3.4531   25.7732 F   0  0  0  0  0  0
  -30.0260  -13.3482   20.4374 N   0  0  0  0  0  0
  -26.2992  -12.9343   20.3360 N   0  0  0  0  0  0
  -25.9287  -11.6501   20.5754 N   0  0  0  0  0  0
  -22.0453  -12.8275   22.0381 N   0  0  0  0  0  0
  -25.4362  -15.1873   20.4155 N   0  0  0  0  0  0
  -31.8363  -14.6732   20.1112 O   0  0  0  0  0  0
  -21.6641   -6.8848   21.4208 O   0  0  0  0  0  0
  -22.3526  -14.5590   20.6699 O   0  0  0  0  0  0
  -24.6206  -31.8662   23.2071 C   0  0  0  0  0  0
  -25.9075  -32.4809   23.8383 C   0  0  1  0  0  0
  -27.2238  -27.3750   20.0909 C   0  0  0  0  0  0
  -25.5911  -33.8610   24.2307 N   0  0  0  0  0  0
  -23.4109  -30.4902   21.5509 C   0  0  2  0  0  0
  -24.8539  -28.9585   20.1100 C   0  0  0  0  0  0
  -22.7441  -29.4650   22.4988 C   0  0  0  0  0  0
  -18.0281  -28.1376   22.8486 C   0  0  0  0  0  0
  -24.1481  -36.7318   23.2639 C   0  0  0  0  0  0
  -25.9481  -30.8112   21.3726 C   0  0  0  0  0  0
  -26.0214  -29.4444   20.7112 C   0  0  0  0  0  0
  -27.2073  -28.6608   20.6981 C   0  0  0  0  0  0
  -26.0308  -26.9346   19.4663 C   0  0  0  0  0  0
  -24.8569  -27.7050   19.4834 C   0  0  0  0  0  0
  -23.6196  -29.8299   20.1637 C   0  0  0  0  0  0
  -25.4097  -36.3112   24.0335 C   0  0  1  0  0  0
  -20.5874  -28.3659   23.1313 C   0  0  2  0  0  0
  -20.6762  -26.9392   22.5411 C   0  0  0  0  0  0
  -19.5741  -26.6379   21.5204 C   0  0  0  0  0  0
  -18.1922  -26.7917   22.1621 C   0  0  0  0  0  0
  -19.1531  -28.8830   23.2894 C   0  0  0  0  0  0
  -18.9461  -30.1436   23.8908 C   0  0  0  0  0  0
  -17.6459  -30.6575   24.0557 C   0  0  0  0  0  0
  -25.9034  -34.9476   23.5117 C   0  0  0  0  0  0
  -16.5353  -29.9076   23.6324 C   0  0  0  0  0  0
  -16.7270  -28.6499   23.0339 C   0  0  0  0  0  0
  -26.4458  -31.6607   25.0740 C   0  0  0  0  0  0
  -25.3702  -31.3749   26.1479 C   0  0  0  0  0  0
  -27.0283  -30.3035   24.6162 C   0  0  0  0  0  0
  -27.6035  -32.4324   25.7506 C   0  0  0  0  0  0
  -27.5582  -37.1807   24.8458 C   0  0  0  0  0  0
  -21.4159  -29.3037   22.3727 N   0  0  0  0  0  0
  -26.4291  -37.3795   23.9411 N   0  0  0  0  0  0
  -24.6786  -31.0705   22.1013 N   0  0  0  0  0  0
  -23.4184  -28.8195   23.3051 O   0  0  0  0  0  0
  -28.3720  -26.5801   20.1353 O   0  0  0  0  0  0
  -26.5595  -34.8942   22.4679 O   0  0  0  0  0  0
  -23.5381  -32.1471   23.7401 O   0  0  0  0  0  0
  -29.6688  -19.2616   20.8671 C   0  0  0  0  0  0
  -30.8295  -19.3226   20.1114 C   0  0  0  0  0  0
  -30.2034  -16.9984   20.7626 C   0  0  0  0  0  0
  -28.7848  -20.4274   21.2941 C   0  0  0  0  0  0
  -28.5621  -22.8675   21.1965 C   0  0  0  0  0  0
  -28.4513  -24.8554   18.3933 C   0  0  0  0  0  0
  -29.1899  -24.2279   20.7569 C   0  0  0  0  0  0
  -28.2451  -25.1417   19.8937 C   0  0  1  0  0  0
  -29.3412  -17.9218   21.2156 N   0  0  0  0  0  0
  -31.4608  -20.4252   19.5289 N   0  0  0  0  0  0
  -29.9571  -15.5954   20.9744 N   0  0  0  0  0  0
  -29.1999  -21.6840   20.9635 N   0  0  0  0  0  0
  -27.7414  -20.1886   21.9205 O   0  0  0  0  0  0
  -27.4751  -22.9383   21.7836 O   0  0  0  0  0  0
  -31.5320  -17.7318   19.8588 S   0  0  0  0  0  0
  -31.4674  -12.4472   19.1332 H   0  0  0  0  0  0
  -30.3436  -11.3390   19.8644 H   0  0  0  0  0  0
  -29.7430  -11.7454   17.4655 H   0  0  0  0  0  0
  -29.6646  -13.4689   17.7471 H   0  0  0  0  0  0
  -27.8244  -11.3038   18.8296 H   0  0  0  0  0  0
  -27.3734  -12.6321   17.7931 H   0  0  0  0  0  0
  -27.6898  -14.2576   19.5542 H   0  0  0  0  0  0
  -28.6854  -12.0038   21.3585 H   0  0  0  0  0  0
  -28.4615  -13.6516   21.8626 H   0  0  0  0  0  0
  -25.2727   -9.5716   22.4757 H   0  0  0  0  0  0
  -24.0012   -7.4635   22.7465 H   0  0  0  0  0  0
  -21.0827   -8.8760   19.8938 H   0  0  0  0  0  0
  -22.3654  -10.9672   19.6185 H   0  0  0  0  0  0
  -21.1999   -7.6134   23.9688 H   0  0  0  0  0  0
  -21.1495   -6.0513   25.9056 H   0  0  0  0  0  0
  -22.0595   -2.7602   23.2837 H   0  0  0  0  0  0
  -22.4089  -11.9981   22.4831 H   0  0  0  0  0  0
  -21.1061  -13.1279   22.2577 H   0  0  0  0  0  0
  -24.6854  -15.8582   20.5398 H   0  0  0  0  0  0
  -26.2997  -15.6119   20.1013 H   0  0  0  0  0  0
  -26.7158  -32.5486   23.1155 H   0  0  0  0  0  0
  -25.0025  -33.9766   25.0427 H   0  0  0  0  0  0
  -22.7015  -31.3076   21.4117 H   0  0  0  0  0  0
  -23.3751  -35.9648   23.3303 H   0  0  0  0  0  0
  -24.3593  -36.8936   22.2064 H   0  0  0  0  0  0
  -23.7239  -37.6519   23.6657 H   0  0  0  0  0  0
  -26.0699  -31.5777   20.6060 H   0  0  0  0  0  0
  -26.8332  -30.8602   21.9952 H   0  0  0  0  0  0
  -28.1056  -29.0255   21.1773 H   0  0  0  0  0  0
  -25.9634  -25.9865   18.9573 H   0  0  0  0  0  0
  -23.9619  -27.3254   19.0098 H   0  0  0  0  0  0
  -23.7305  -30.6088   19.4088 H   0  0  0  0  0  0
  -22.7420  -29.2539   19.8651 H   0  0  0  0  0  0
  -25.1273  -36.1972   25.0828 H   0  0  0  0  0  0
  -20.9952  -28.3228   24.1439 H   0  0  0  0  0  0
  -20.5656  -26.2265   23.3601 H   0  0  0  0  0  0
  -21.6638  -26.7425   22.1214 H   0  0  0  0  0  0
  -19.6890  -25.6290   21.1237 H   0  0  0  0  0  0
  -19.6676  -27.3192   20.6739 H   0  0  0  0  0  0
  -17.4180  -26.6670   21.4034 H   0  0  0  0  0  0
  -18.0323  -26.0066   22.9026 H   0  0  0  0  0  0
  -19.7940  -30.7242   24.2296 H   0  0  0  0  0  0
  -17.5022  -31.6261   24.5146 H   0  0  0  0  0  0
  -15.5357  -30.2970   23.7639 H   0  0  0  0  0  0
  -15.8682  -28.0812   22.7041 H   0  0  0  0  0  0
  -24.5832  -30.7145   25.7819 H   0  0  0  0  0  0
  -24.8930  -32.2917   26.4953 H   0  0  0  0  0  0
  -25.8021  -30.8885   27.0234 H   0  0  0  0  0  0
  -26.2843  -29.6816   24.1168 H   0  0  0  0  0  0
  -27.3979  -29.7260   25.4649 H   0  0  0  0  0  0
  -27.8716  -30.4342   23.9376 H   0  0  0  0  0  0
  -27.2648  -33.3607   26.2126 H   0  0  0  0  0  0
  -28.3816  -32.6917   25.0314 H   0  0  0  0  0  0
  -28.0735  -31.8423   26.5388 H   0  0  0  0  0  0
  -28.2585  -38.0115   24.7514 H   0  0  0  0  0  0
  -28.1082  -36.2651   24.6246 H   0  0  0  0  0  0
  -27.2312  -37.1427   25.8861 H   0  0  0  0  0  0
  -20.9314  -29.8802   21.6991 H   0  0  0  0  0  0
  -26.0178  -38.2873   24.1403 H   0  0  0  0  0  0
  -28.3191  -23.7945   18.1755 H   0  0  0  0  0  0
  -29.4556  -25.1334   18.0728 H   0  0  0  0  0  0
  -27.7514  -25.4052   17.7646 H   0  0  0  0  0  0
  -30.1443  -24.0699   20.2551 H   0  0  0  0  0  0
  -29.4241  -24.7614   21.6778 H   0  0  0  0  0  0
  -27.2349  -24.8379   20.1622 H   0  0  0  0  0  0
  -31.0648  -20.6439   18.6174 H   0  0  0  0  0  0
  -32.4432  -20.2259   19.3488 H   0  0  0  0  0  0
  -29.0523  -15.3722   21.3580 H   0  0  0  0  0  0
  -30.0959  -21.6880   20.4796 H   0  0  0  0  0  0
  1 25  1  0  0  0
  1 30  2  0  0  0
  1 81  1  0  0  0
  2  3  1  0  0  0
  2 25  1  0  0  0
  2 86  1  0  0  0
  2 87  1  0  0  0
  3  4  1  0  0  0
  3 88  1  0  0  0
  3 89  1  0  0  0
  4  5  1  0  0  0
  4 90  1  0  0  0
  4 91  1  0  0  0
  5  6  1  0  0  0
  5 26  1  0  0  0
  5 92  1  0  0  0
  6 25  1  0  0  0
  6 93  1  0  0  0
  6 94  1  0  0  0
  7  8  2  0  0  0
  7 26  1  0  0  0
  7 29  1  0  0  0
  8  9  1  0  0  0
  8 22  1  0  0  0
  9 10  1  0  0  0
  9 27  2  0  0  0
 10 11  2  0  0  0
 10 15  1  0  0  0
 11 12  1  0  0  0
 11 95  1  0  0  0
 12 13  2  0  0  0
 12 96  1  0  0  0
 13 14  1  0  0  0
 13 31  1  0  0  0
 14 15  2  0  0  0
 14 97  1  0  0  0
 15 98  1  0  0  0
 16 17  2  0  0  0
 16 21  1  0  0  0
 16 31  1  0  0  0
 17 18  1  0  0  0
 17 99  1  0  0  0
 18 19  2  0  0  0
 18100  1  0  0  0
 19 20  1  0  0  0
 19 24  1  0  0  0
 20 21  2  0  0  0
 20101  1  0  0  0
 21 23  1  0  0  0
 22 28  1  0  0  0
 22 32  2  0  0  0
 26 27  1  0  0  0
 28102  1  0  0  0
 28103  1  0  0  0
 29104  1  0  0  0
 29105  1  0  0  0
 33 34  1  0  0  0
 33 66  1  0  0  0
 33 70  2  0  0  0
 34 36  1  0  0  0
 34 59  1  0  0  0
 34106  1  0  0  0
 35 44  2  0  0  0
 35 45  1  0  0  0
 35 68  1  0  0  0
 36 56  1  0  0  0
 36107  1  0  0  0
 37 39  1  0  0  0
 37 47  1  0  0  0
 37 66  1  0  0  0
 37108  1  0  0  0
 38 43  2  0  0  0
 38 46  1  0  0  0
 38 47  1  0  0  0
 39 64  1  0  0  0
 39 67  2  0  0  0
 40 52  1  0  0  0
 40 53  2  0  0  0
 40 58  1  0  0  0
 41109  1  0  0  0
 41110  1  0  0  0
 41111  1  0  0  0
 41 48  1  0  0  0
 42 43  1  0  0  0
 42 66  1  0  0  0
 42112  1  0  0  0
 42113  1  0  0  0
 43 44  1  0  0  0
 44114  1  0  0  0
 45 46  2  0  0  0
 45115  1  0  0  0
 46116  1  0  0  0
 47117  1  0  0  0
 47118  1  0  0  0
 48 56  1  0  0  0
 48 65  1  0  0  0
 48119  1  0  0  0
 49 50  1  0  0  0
 49 53  1  0  0  0
 49 64  1  0  0  0
 49120  1  0  0  0
 50 51  1  0  0  0
 50121  1  0  0  0
 50122  1  0  0  0
 51 52  1  0  0  0
 51123  1  0  0  0
 51124  1  0  0  0
 52125  1  0  0  0
 52126  1  0  0  0
 53 54  1  0  0  0
 54 55  2  0  0  0
 54127  1  0  0  0
 55 57  1  0  0  0
 55128  1  0  0  0
 56 69  2  0  0  0
 57 58  2  0  0  0
 57129  1  0  0  0
 58130  1  0  0  0
 59 60  1  0  0  0
 59 61  1  0  0  0
 59 62  1  0  0  0
 60131  1  0  0  0
 60132  1  0  0  0
 60133  1  0  0  0
 61134  1  0  0  0
 61135  1  0  0  0
 61136  1  0  0  0
 62137  1  0  0  0
 62138  1  0  0  0
 62139  1  0  0  0
 63 65  1  0  0  0
 63140  1  0  0  0
 63141  1  0  0  0
 63142  1  0  0  0
 64143  1  0  0  0
 65144  1  0  0  0
 68 78  1  0  0  0
 71 72  2  0  0  0
 71 74  1  0  0  0
 71 79  1  0  0  0
 72 80  1  0  0  0
 72 85  1  0  0  0
 73 79  2  0  0  0
 73 81  1  0  0  0
 73 85  1  0  0  0
 74 82  1  0  0  0
 74 83  2  0  0  0
 75 77  1  0  0  0
 75 82  1  0  0  0
 75 84  2  0  0  0
 76145  1  0  0  0
 76146  1  0  0  0
 76147  1  0  0  0
 76 78  1  0  0  0
 77 78  1  0  0  0
 77148  1  0  0  0
 77149  1  0  0  0
 78150  1  0  0  0
 80151  1  0  0  0
 80152  1  0  0  0
 81153  1  0  0  0
 82154  1  0  0  0
M  ISO  4   1 100  68 101  78 101  81 100
M  END
> <chiral flag>
0

> <version>
0

> <s_m_source_file>
/data/baiqing/PycharmProjects/Reinvent-master-3.2/result/LINK_invent/BTK/process_docking_weight1_custom_product_contain_oxygen_bond_distance_aromatic_linkinvent_7_9_3/rearranged_h_0182.sdf

> <i_m_source_file_index>
86

> <r_mmod_Potential_Energy-OPLS-2005>
-82.3064498901367

> <r_mmod_Stretch_Energy-OPLS-2005>
54.1756477355957

> <r_mmod_Bend_Energy-OPLS-2005>
117.465065002441

> <r_mmod_Torsional_Energy-OPLS-2005>
217.693481445312

> <r_mmod_Improper_Torsional_Energy-OPLS-2005>
10.4783391952515

> <r_mmod_Van_der_Waal_Energy-OPLS-2005>
149.336441040039

> <r_mmod_Electrostatic_Energy-OPLS-2005>
-385.381744384766

> <r_mmod_Solvation_Energy-OPLS-2005>
-271.643096923828

> <b_mmod_Minimization_Converged-OPLS-2005>
0

> <r_mmod_RMS_Derivative-OPLS-2005>
3.03496694564819

$$$$
86
                    3D
 Structure written by MMmdl.
150158  0  0  1  0            999 V2000
  -30.5220  -15.0738   20.4060 C   0  0  0  0  0  0
  -30.4525  -12.6629   19.5379 C   0  0  0  0  0  0
  -29.5469  -12.5565   18.2884 C   0  0  0  0  0  0
  -28.0777  -12.3311   18.6921 C   0  0  0  0  0  0
  -27.6361  -13.2643   19.8500 C   0  0  2  0  0  0
  -28.6772  -13.3518   20.9899 C   0  0  0  0  0  0
  -25.2478  -13.8240   20.5741 C   0  0  0  0  0  0
  -24.1800  -13.0442   20.9239 C   0  0  0  0  0  0
  -24.6431  -11.6948   20.8747 C   0  0  0  0  0  0
  -23.9097  -10.4314   21.0389 C   0  0  0  0  0  0
  -24.3643   -9.4240   21.9171 C   0  0  0  0  0  0
  -23.6313   -8.2279   22.0766 C   0  0  0  0  0  0
  -22.4289   -8.0308   21.3549 C   0  0  0  0  0  0
  -21.9919   -9.0290   20.4663 C   0  0  0  0  0  0
  -22.7251  -10.2168   20.3058 C   0  0  0  0  0  0
  -21.6870   -6.0747   22.5284 C   0  0  0  0  0  0
  -21.4027   -6.5648   23.8222 C   0  0  0  0  0  0
  -21.3656   -5.6797   24.9176 C   0  0  0  0  0  0
  -21.6055   -4.3065   24.7222 C   0  0  0  0  0  0
  -21.8813   -3.8156   23.4340 C   0  0  0  0  0  0
  -21.9213   -4.6978   22.3397 C   0  0  0  0  0  0
  -22.7813  -13.5227   21.1873 C   0  0  0  0  0  0
  -22.1673   -4.2174   21.0976 F   0  0  0  0  0  0
  -21.5627   -3.4533   25.7727 F   0  0  0  0  0  0
  -29.9423  -13.7898   20.3867 N   0  0  0  0  0  0
  -26.2951  -12.9516   20.3331 N   0  0  0  0  0  0
  -25.9398  -11.6638   20.5816 N   0  0  0  0  0  0
  -22.0454  -12.8224   22.0449 N   0  0  0  0  0  0
  -25.4047  -15.1969   20.4128 N   0  0  0  0  0  0
  -31.7194  -15.0939   20.1066 O   0  0  0  0  0  0
  -21.6659   -6.8893   21.4244 O   0  0  0  0  0  0
  -22.3502  -14.5522   20.6735 O   0  0  0  0  0  0
  -24.6499  -31.8370   23.1847 C   0  0  0  0  0  0
  -25.9227  -32.4659   23.8255 C   0  0  1  0  0  0
  -27.2161  -27.0414   20.1662 C   0  0  0  0  0  0
  -25.5927  -33.8462   24.2136 N   0  0  0  0  0  0
  -23.4602  -30.4512   21.5362 C   0  0  2  0  0  0
  -24.9142  -28.8740   20.1109 C   0  0  0  0  0  0
  -22.7621  -29.4482   22.4905 C   0  0  0  0  0  0
  -18.0312  -28.1405   22.8433 C   0  0  0  0  0  0
  -24.1484  -36.7225   23.2657 C   0  0  0  0  0  0
  -26.0260  -30.6723   21.4116 C   0  0  0  0  0  0
  -26.0935  -29.2768   20.7532 C   0  0  0  0  0  0
  -27.2405  -28.3778   20.7698 C   0  0  0  0  0  0
  -26.0379  -26.8088   19.4210 C   0  0  0  0  0  0
  -24.9058  -27.6534   19.4253 C   0  0  0  0  0  0
  -23.6912  -29.7794   20.1571 C   0  0  0  0  0  0
  -25.4120  -36.2995   24.0314 C   0  0  1  0  0  0
  -20.5914  -28.3692   23.1256 C   0  0  2  0  0  0
  -20.6796  -26.9407   22.5414 C   0  0  0  0  0  0
  -19.5806  -26.6461   21.5152 C   0  0  0  0  0  0
  -18.1949  -26.8009   22.1472 C   0  0  0  0  0  0
  -19.1566  -28.8872   23.2842 C   0  0  0  0  0  0
  -18.9483  -30.1454   23.8908 C   0  0  0  0  0  0
  -17.6474  -30.6559   24.0601 C   0  0  0  0  0  0
  -25.9086  -34.9379   23.5047 C   0  0  0  0  0  0
  -16.5384  -29.9064   23.6345 C   0  0  0  0  0  0
  -16.7297  -28.6494   23.0337 C   0  0  0  0  0  0
  -26.4507  -31.6568   25.0739 C   0  0  0  0  0  0
  -25.3660  -31.3785   26.1412 C   0  0  0  0  0  0
  -27.0401  -30.2937   24.6443 C   0  0  0  0  0  0
  -27.6012  -32.4376   25.7523 C   0  0  0  0  0  0
  -27.5562  -37.1756   24.8463 C   0  0  0  0  0  0
  -21.4309  -29.2992   22.3631 N   0  0  0  0  0  0
  -26.4273  -37.3718   23.9405 N   0  0  0  0  0  0
  -24.7322  -31.0130   22.0958 N   0  0  0  0  0  0
  -23.4219  -28.8049   23.3087 O   0  0  0  0  0  0
  -28.2318  -25.9753   20.1966 O   0  0  0  0  0  0
  -26.5716  -34.8901   22.4655 O   0  0  0  0  0  0
  -23.5597  -32.1310   23.6996 O   0  0  0  0  0  0
  -29.9465  -17.8318   20.4240 C   0  0  0  0  0  0
  -31.1112  -18.4012   19.9462 C   0  0  0  0  0  0
  -29.4830  -20.3402   20.3888 C   0  0  0  0  0  0
  -29.0003  -23.1124   20.2544 C   0  0  0  0  0  0
  -26.0643  -22.7748   21.3095 C   0  0  0  0  0  0
  -26.5026  -23.9935   20.4810 C   0  0  0  0  0  0
  -27.9819  -24.4352   20.6282 C   0  0  1  0  0  0
  -29.0370  -19.0105   20.6638 N   0  0  0  0  0  0
  -29.7444  -16.2809   20.6024 N   0  0  0  0  0  0
  -28.7460  -21.7132   20.5541 N   0  0  0  0  0  0
  -30.0622  -23.3978   19.6964 O   0  0  0  0  0  0
  -32.1966  -17.6886   19.5702 F   0  0  0  0  0  0
  -31.1505  -20.1812   19.8089 S   0  0  0  0  0  0
  -31.4878  -12.8151   19.2292 H   0  0  0  0  0  0
  -30.4572  -11.7304   20.1046 H   0  0  0  0  0  0
  -29.8905  -11.7555   17.6314 H   0  0  0  0  0  0
  -29.6272  -13.4807   17.7142 H   0  0  0  0  0  0
  -27.9697  -11.2890   18.9938 H   0  0  0  0  0  0
  -27.4249  -12.4703   17.8291 H   0  0  0  0  0  0
  -27.5846  -14.2582   19.4038 H   0  0  0  0  0  0
  -28.7969  -12.4001   21.5084 H   0  0  0  0  0  0
  -28.3611  -14.0740   21.7446 H   0  0  0  0  0  0
  -25.2781   -9.5753   22.4746 H   0  0  0  0  0  0
  -24.0050   -7.4685   22.7481 H   0  0  0  0  0  0
  -21.0850   -8.8785   19.8974 H   0  0  0  0  0  0
  -22.3665  -10.9708   19.6187 H   0  0  0  0  0  0
  -21.2000   -7.6156   23.9721 H   0  0  0  0  0  0
  -21.1481   -6.0525   25.9079 H   0  0  0  0  0  0
  -22.0587   -2.7623   23.2829 H   0  0  0  0  0  0
  -22.4065  -11.9888   22.4836 H   0  0  0  0  0  0
  -21.1093  -13.1297   22.2667 H   0  0  0  0  0  0
  -24.6123  -15.8276   20.4828 H   0  0  0  0  0  0
  -26.2367  -15.6482   20.0576 H   0  0  0  0  0  0
  -26.7293  -32.5209   23.0985 H   0  0  0  0  0  0
  -24.9938  -33.9550   25.0187 H   0  0  0  0  0  0
  -22.7648  -31.2780   21.3793 H   0  0  0  0  0  0
  -23.3759  -35.9545   23.3325 H   0  0  0  0  0  0
  -24.3570  -36.8863   22.2071 H   0  0  0  0  0  0
  -23.7242  -37.6416   23.6714 H   0  0  0  0  0  0
  -26.2113  -31.4222   20.6427 H   0  0  0  0  0  0
  -26.8848  -30.7139   22.0678 H   0  0  0  0  0  0
  -28.1310  -28.6782   21.3034 H   0  0  0  0  0  0
  -25.9598  -25.9092   18.8338 H   0  0  0  0  0  0
  -24.0257  -27.3507   18.8746 H   0  0  0  0  0  0
  -23.8257  -30.5545   19.4028 H   0  0  0  0  0  0
  -22.8070  -29.2192   19.8468 H   0  0  0  0  0  0
  -25.1322  -36.1816   25.0808 H   0  0  0  0  0  0
  -20.9982  -28.3264   24.1388 H   0  0  0  0  0  0
  -20.5646  -26.2285   23.3593 H   0  0  0  0  0  0
  -21.6671  -26.7425   22.1234 H   0  0  0  0  0  0
  -19.6979  -25.6422   21.1074 H   0  0  0  0  0  0
  -19.6826  -27.3344   20.6760 H   0  0  0  0  0  0
  -17.4299  -26.6912   21.3757 H   0  0  0  0  0  0
  -18.0187  -26.0064   22.8742 H   0  0  0  0  0  0
  -19.7960  -30.7225   24.2314 H   0  0  0  0  0  0
  -17.5026  -31.6230   24.5236 H   0  0  0  0  0  0
  -15.5358  -30.2953   23.7691 H   0  0  0  0  0  0
  -15.8687  -28.0831   22.7033 H   0  0  0  0  0  0
  -24.5816  -30.7186   25.7697 H   0  0  0  0  0  0
  -24.8885  -32.2981   26.4792 H   0  0  0  0  0  0
  -25.7879  -30.8942   27.0231 H   0  0  0  0  0  0
  -26.3062  -29.6640   24.1407 H   0  0  0  0  0  0
  -27.3901  -29.7258   25.5077 H   0  0  0  0  0  0
  -27.9027  -30.4126   23.9888 H   0  0  0  0  0  0
  -27.2565  -33.3688   26.2037 H   0  0  0  0  0  0
  -28.3831  -32.6936   25.0361 H   0  0  0  0  0  0
  -28.0699  -31.8580   26.5487 H   0  0  0  0  0  0
  -28.2575  -38.0054   24.7502 H   0  0  0  0  0  0
  -28.1057  -36.2582   24.6299 H   0  0  0  0  0  0
  -27.2291  -37.1428   25.8871 H   0  0  0  0  0  0
  -20.9562  -29.8658   21.6743 H   0  0  0  0  0  0
  -26.0140  -38.2786   24.1410 H   0  0  0  0  0  0
  -26.1073  -21.8531   20.7309 H   0  0  0  0  0  0
  -25.0340  -22.8976   21.6388 H   0  0  0  0  0  0
  -26.6689  -22.6553   22.2083 H   0  0  0  0  0  0
  -25.8517  -24.7831   20.8463 H   0  0  0  0  0  0
  -26.2661  -23.8365   19.4275 H   0  0  0  0  0  0
  -28.1279  -24.5205   21.7073 H   0  0  0  0  0  0
  -28.8130  -16.0488   20.9028 H   0  0  0  0  0  0
  -27.8461  -21.6108   21.0005 H   0  0  0  0  0  0
  1 25  1  0  0  0
  1 30  2  0  0  0
  1 79  1  0  0  0
  2  3  1  0  0  0
  2 25  1  0  0  0
  2 84  1  0  0  0
  2 85  1  0  0  0
  3  4  1  0  0  0
  3 86  1  0  0  0
  3 87  1  0  0  0
  4  5  1  0  0  0
  4 88  1  0  0  0
  4 89  1  0  0  0
  5  6  1  0  0  0
  5 26  1  0  0  0
  5 90  1  0  0  0
  6 25  1  0  0  0
  6 91  1  0  0  0
  6 92  1  0  0  0
  7  8  2  0  0  0
  7 26  1  0  0  0
  7 29  1  0  0  0
  8  9  1  0  0  0
  8 22  1  0  0  0
  9 10  1  0  0  0
  9 27  2  0  0  0
 10 11  2  0  0  0
 10 15  1  0  0  0
 11 12  1  0  0  0
 11 93  1  0  0  0
 12 13  2  0  0  0
 12 94  1  0  0  0
 13 14  1  0  0  0
 13 31  1  0  0  0
 14 15  2  0  0  0
 14 95  1  0  0  0
 15 96  1  0  0  0
 16 17  2  0  0  0
 16 21  1  0  0  0
 16 31  1  0  0  0
 17 18  1  0  0  0
 17 97  1  0  0  0
 18 19  2  0  0  0
 18 98  1  0  0  0
 19 20  1  0  0  0
 19 24  1  0  0  0
 20 21  2  0  0  0
 20 99  1  0  0  0
 21 23  1  0  0  0
 22 28  1  0  0  0
 22 32  2  0  0  0
 26 27  1  0  0  0
 28100  1  0  0  0
 28101  1  0  0  0
 29102  1  0  0  0
 29103  1  0  0  0
 33 34  1  0  0  0
 33 66  1  0  0  0
 33 70  2  0  0  0
 34 36  1  0  0  0
 34 59  1  0  0  0
 34104  1  0  0  0
 35 44  2  0  0  0
 35 45  1  0  0  0
 35 68  1  0  0  0
 36 56  1  0  0  0
 36105  1  0  0  0
 37 39  1  0  0  0
 37 47  1  0  0  0
 37 66  1  0  0  0
 37106  1  0  0  0
 38 43  2  0  0  0
 38 46  1  0  0  0
 38 47  1  0  0  0
 39 64  1  0  0  0
 39 67  2  0  0  0
 40 52  1  0  0  0
 40 53  2  0  0  0
 40 58  1  0  0  0
 41107  1  0  0  0
 41108  1  0  0  0
 41109  1  0  0  0
 41 48  1  0  0  0
 42 43  1  0  0  0
 42 66  1  0  0  0
 42110  1  0  0  0
 42111  1  0  0  0
 43 44  1  0  0  0
 44112  1  0  0  0
 45 46  2  0  0  0
 45113  1  0  0  0
 46114  1  0  0  0
 47115  1  0  0  0
 47116  1  0  0  0
 48 56  1  0  0  0
 48 65  1  0  0  0
 48117  1  0  0  0
 49 50  1  0  0  0
 49 53  1  0  0  0
 49 64  1  0  0  0
 49118  1  0  0  0
 50 51  1  0  0  0
 50119  1  0  0  0
 50120  1  0  0  0
 51 52  1  0  0  0
 51121  1  0  0  0
 51122  1  0  0  0
 52123  1  0  0  0
 52124  1  0  0  0
 53 54  1  0  0  0
 54 55  2  0  0  0
 54125  1  0  0  0
 55 57  1  0  0  0
 55126  1  0  0  0
 56 69  2  0  0  0
 57 58  2  0  0  0
 57127  1  0  0  0
 58128  1  0  0  0
 59 60  1  0  0  0
 59 61  1  0  0  0
 59 62  1  0  0  0
 60129  1  0  0  0
 60130  1  0  0  0
 60131  1  0  0  0
 61132  1  0  0  0
 61133  1  0  0  0
 61134  1  0  0  0
 62135  1  0  0  0
 62136  1  0  0  0
 62137  1  0  0  0
 63 65  1  0  0  0
 63138  1  0  0  0
 63139  1  0  0  0
 63140  1  0  0  0
 64141  1  0  0  0
 65142  1  0  0  0
 68 77  1  0  0  0
 71 72  2  0  0  0
 71 78  1  0  0  0
 71 79  1  0  0  0
 72 82  1  0  0  0
 72 83  1  0  0  0
 73 78  2  0  0  0
 73 80  1  0  0  0
 73 83  1  0  0  0
 74 77  1  0  0  0
 74 80  1  0  0  0
 74 81  2  0  0  0
 75 76  1  0  0  0
 75143  1  0  0  0
 75144  1  0  0  0
 75145  1  0  0  0
 76146  1  0  0  0
 76147  1  0  0  0
 76 77  1  0  0  0
 77148  1  0  0  0
 79149  1  0  0  0
 80150  1  0  0  0
M  ISO  4   1 100  68 101  77 101  79 100
M  END
> <chiral flag>
0

> <version>
0

> <s_m_source_file>
/data/baiqing/PycharmProjects/Reinvent-master-3.2/result/LINK_invent/BTK/process_docking_weight1_custom_product_contain_oxygen_bond_distance_aromatic_linkinvent_7_9_3/rearranged_h_0182.sdf

> <i_m_source_file_index>
87

> <r_mmod_Potential_Energy-OPLS-2005>
694.292053222656

> <r_mmod_Stretch_Energy-OPLS-2005>
372.373870849609

> <r_mmod_Bend_Energy-OPLS-2005>
314.950378417969

> <r_mmod_Torsional_Energy-OPLS-2005>
237.551788330078

> <r_mmod_Improper_Torsional_Energy-OPLS-2005>
3.49525260925293

> <r_mmod_Van_der_Waal_Energy-OPLS-2005>
124.48657989502

> <r_mmod_Electrostatic_Energy-OPLS-2005>
-400.152526855469

> <r_mmod_Solvation_Energy-OPLS-2005>
-245.196960449219

> <b_mmod_Minimization_Converged-OPLS-2005>
0

> <r_mmod_RMS_Derivative-OPLS-2005>
4.8056845664978

$$$$
87
                    3D
 Structure written by MMmdl.
162170  0  0  1  0            999 V2000
  -30.6784  -14.5265   20.5979 C   0  0  0  0  0  0
  -30.4436  -12.3448   19.4761 C   0  0  0  0  0  0
  -29.5352  -12.5148   18.2398 C   0  0  0  0  0  0
  -28.0468  -12.3709   18.6219 C   0  0  0  0  0  0
  -27.6656  -13.2094   19.8735 C   0  0  2  0  0  0
  -28.6908  -13.0150   21.0128 C   0  0  0  0  0  0
  -25.2608  -13.8137   20.5626 C   0  0  0  0  0  0
  -24.1882  -13.0432   20.9139 C   0  0  0  0  0  0
  -24.6421  -11.6903   20.8671 C   0  0  0  0  0  0
  -23.9087  -10.4299   21.0355 C   0  0  0  0  0  0
  -24.3641   -9.4228   21.9150 C   0  0  0  0  0  0
  -23.6305   -8.2274   22.0751 C   0  0  0  0  0  0
  -22.4279   -8.0292   21.3539 C   0  0  0  0  0  0
  -21.9923   -9.0261   20.4633 C   0  0  0  0  0  0
  -22.7248  -10.2141   20.3004 C   0  0  0  0  0  0
  -21.6860   -6.0737   22.5274 C   0  0  0  0  0  0
  -21.4032   -6.5621   23.8222 C   0  0  0  0  0  0
  -21.3674   -5.6772   24.9179 C   0  0  0  0  0  0
  -21.6052   -4.3029   24.7206 C   0  0  0  0  0  0
  -21.8825   -3.8132   23.4323 C   0  0  0  0  0  0
  -21.9200   -4.6958   22.3394 C   0  0  0  0  0  0
  -22.7896  -13.5234   21.1804 C   0  0  0  0  0  0
  -22.1645   -4.2151   21.0962 F   0  0  0  0  0  0
  -21.5642   -3.4512   25.7714 F   0  0  0  0  0  0
  -30.0284  -13.3306   20.4881 N   0  0  0  0  0  0
  -26.3039  -12.9321   20.3270 N   0  0  0  0  0  0
  -25.9343  -11.6487   20.5668 N   0  0  0  0  0  0
  -22.0487  -12.8286   22.0343 N   0  0  0  0  0  0
  -25.4291  -15.1885   20.4068 N   0  0  0  0  0  0
  -31.7979  -14.7112   20.1058 O   0  0  0  0  0  0
  -21.6641   -6.8894   21.4245 O   0  0  0  0  0  0
  -22.3592  -14.5534   20.6604 O   0  0  0  0  0  0
  -24.6164  -31.8633   23.2065 C   0  0  0  0  0  0
  -25.9039  -32.4794   23.8342 C   0  0  1  0  0  0
  -27.2206  -27.3911   20.1012 C   0  0  0  0  0  0
  -25.5851  -33.8591   24.2224 N   0  0  0  0  0  0
  -23.4033  -30.4827   21.5497 C   0  0  2  0  0  0
  -24.8508  -28.9474   20.1108 C   0  0  0  0  0  0
  -22.7398  -29.4619   22.5015 C   0  0  0  0  0  0
  -18.0253  -28.1370   22.8487 C   0  0  0  0  0  0
  -24.1492  -36.7337   23.2624 C   0  0  0  0  0  0
  -25.9381  -30.8136   21.3697 C   0  0  0  0  0  0
  -26.0143  -29.4486   20.7103 C   0  0  0  0  0  0
  -27.2025  -28.6731   20.7090 C   0  0  0  0  0  0
  -26.0538  -26.9389   19.4496 C   0  0  0  0  0  0
  -24.8664  -27.6944   19.4781 C   0  0  0  0  0  0
  -23.6062  -29.8032   20.1677 C   0  0  0  0  0  0
  -25.4124  -36.3091   24.0293 C   0  0  1  0  0  0
  -20.5849  -28.3633   23.1344 C   0  0  2  0  0  0
  -20.6744  -26.9366   22.5438 C   0  0  0  0  0  0
  -19.5724  -26.6357   21.5229 C   0  0  0  0  0  0
  -18.1902  -26.7912   22.1619 C   0  0  0  0  0  0
  -19.1510  -28.8830   23.2904 C   0  0  0  0  0  0
  -18.9427  -30.1448   23.8907 C   0  0  0  0  0  0
  -17.6439  -30.6589   24.0566 C   0  0  0  0  0  0
  -25.9050  -34.9456   23.5068 C   0  0  0  0  0  0
  -16.5328  -29.9099   23.6321 C   0  0  0  0  0  0
  -16.7250  -28.6510   23.0340 C   0  0  0  0  0  0
  -26.4418  -31.6627   25.0725 C   0  0  0  0  0  0
  -25.3596  -31.3826   26.1408 C   0  0  0  0  0  0
  -27.0201  -30.3008   24.6238 C   0  0  0  0  0  0
  -27.5969  -32.4345   25.7544 C   0  0  0  0  0  0
  -27.5580  -37.1814   24.8426 C   0  0  0  0  0  0
  -21.4127  -29.3013   22.3770 N   0  0  0  0  0  0
  -26.4296  -37.3788   23.9348 N   0  0  0  0  0  0
  -24.6712  -31.0674   22.1006 N   0  0  0  0  0  0
  -23.4171  -28.8142   23.3031 O   0  0  0  0  0  0
  -28.3273  -26.5566   20.1623 O   0  0  0  0  0  0
  -26.5666  -34.8926   22.4661 O   0  0  0  0  0  0
  -23.5356  -32.1399   23.7475 O   0  0  0  0  0  0
  -29.3797  -18.7652   19.1105 C   0  0  0  0  0  0
  -29.2697  -19.0548   20.4630 C   0  0  0  0  0  0
  -29.8505  -16.8356   20.5997 C   0  0  0  0  0  0
  -29.4547  -21.5140   20.8544 C   0  0  0  0  0  0
  -29.9683  -20.6245   17.4319 C   0  0  0  0  0  0
  -27.5420  -20.0584   17.9315 C   0  0  0  0  0  0
  -26.9314  -25.1915   21.8098 C   0  0  0  0  0  0
  -28.7335  -22.7986   21.3350 C   0  0  0  0  0  0
  -28.7087  -24.0341   20.3568 C   0  0  0  0  0  0
  -28.9838  -19.5363   17.8785 C   0  0  0  0  0  0
  -28.2597  -25.3775   21.0375 C   0  0  1  0  0  0
  -29.4606  -17.9239   21.2940 N   0  0  0  0  0  0
  -28.8222  -20.3199   20.9702 N   0  0  0  0  0  0
  -30.0008  -15.5394   21.1863 N   0  0  0  0  0  0
  -30.6219  -21.6059   20.4674 O   0  0  0  0  0  0
  -29.9808  -17.1374   18.8738 S   0  0  0  0  0  0
  -31.4920  -12.4707   19.1996 H   0  0  0  0  0  0
  -30.3672  -11.3364   19.8855 H   0  0  0  0  0  0
  -29.8046  -11.7729   17.4867 H   0  0  0  0  0  0
  -29.7121  -13.4898   17.7793 H   0  0  0  0  0  0
  -27.8624  -11.3120   18.8082 H   0  0  0  0  0  0
  -27.4187  -12.6477   17.7734 H   0  0  0  0  0  0
  -27.7028  -14.2541   19.5671 H   0  0  0  0  0  0
  -28.6726  -11.9828   21.3673 H   0  0  0  0  0  0
  -28.4232  -13.6274   21.8755 H   0  0  0  0  0  0
  -25.2796   -9.5704   22.4730 H   0  0  0  0  0  0
  -24.0004   -7.4673   22.7487 H   0  0  0  0  0  0
  -21.0848   -8.8762   19.8945 H   0  0  0  0  0  0
  -22.3695  -10.9662   19.6098 H   0  0  0  0  0  0
  -21.2024   -7.6129   23.9724 H   0  0  0  0  0  0
  -21.1490   -6.0489   25.9094 H   0  0  0  0  0  0
  -22.0587   -2.7580   23.2802 H   0  0  0  0  0  0
  -22.4036  -11.9979   22.4852 H   0  0  0  0  0  0
  -21.1075  -13.1322   22.2400 H   0  0  0  0  0  0
  -24.6633  -15.8373   20.5542 H   0  0  0  0  0  0
  -26.2728  -15.6368   20.0744 H   0  0  0  0  0  0
  -26.7108  -32.5461   23.1095 H   0  0  0  0  0  0
  -24.9818  -33.9745   25.0240 H   0  0  0  0  0  0
  -22.6965  -31.3023   21.4085 H   0  0  0  0  0  0
  -23.3728  -35.9690   23.3284 H   0  0  0  0  0  0
  -24.3575  -36.8987   22.2035 H   0  0  0  0  0  0
  -23.7294  -37.6550   23.6686 H   0  0  0  0  0  0
  -26.0610  -31.5834   20.6085 H   0  0  0  0  0  0
  -26.8219  -30.8601   21.9943 H   0  0  0  0  0  0
  -28.0904  -29.0395   21.2041 H   0  0  0  0  0  0
  -26.0454  -25.9801   18.9506 H   0  0  0  0  0  0
  -23.9684  -27.3133   19.0110 H   0  0  0  0  0  0
  -23.6826  -30.5626   19.3905 H   0  0  0  0  0  0
  -22.7373  -29.1967   19.9005 H   0  0  0  0  0  0
  -25.1334  -36.1932   25.0796 H   0  0  0  0  0  0
  -20.9937  -28.3166   24.1467 H   0  0  0  0  0  0
  -20.5663  -26.2198   23.3592 H   0  0  0  0  0  0
  -21.6599  -26.7412   22.1197 H   0  0  0  0  0  0
  -19.6864  -25.6267   21.1244 H   0  0  0  0  0  0
  -19.6685  -27.3164   20.6757 H   0  0  0  0  0  0
  -17.4164  -26.6649   21.4042 H   0  0  0  0  0  0
  -18.0316  -26.0083   22.9041 H   0  0  0  0  0  0
  -19.7914  -30.7266   24.2251 H   0  0  0  0  0  0
  -17.4998  -31.6281   24.5141 H   0  0  0  0  0  0
  -15.5335  -30.3005   23.7677 H   0  0  0  0  0  0
  -15.8621  -28.0872   22.7032 H   0  0  0  0  0  0
  -24.5775  -30.7201   25.7686 H   0  0  0  0  0  0
  -24.8788  -32.3031   26.4743 H   0  0  0  0  0  0
  -25.7858  -30.9019   27.0215 H   0  0  0  0  0  0
  -26.2813  -29.6886   24.1070 H   0  0  0  0  0  0
  -27.3558  -29.7199   25.4833 H   0  0  0  0  0  0
  -27.8823  -30.4180   23.9673 H   0  0  0  0  0  0
  -27.2534  -33.3582   26.2213 H   0  0  0  0  0  0
  -28.3789  -32.7009   25.0423 H   0  0  0  0  0  0
  -28.0612  -31.8391   26.5415 H   0  0  0  0  0  0
  -28.2595  -38.0122   24.7495 H   0  0  0  0  0  0
  -28.1097  -36.2657   24.6246 H   0  0  0  0  0  0
  -27.2277  -37.1432   25.8825 H   0  0  0  0  0  0
  -20.9304  -29.8647   21.6917 H   0  0  0  0  0  0
  -26.0180  -38.2853   24.1377 H   0  0  0  0  0  0
  -30.9885  -20.2521   17.3478 H   0  0  0  0  0  0
  -29.9764  -21.4771   18.1044 H   0  0  0  0  0  0
  -29.6773  -21.0106   16.4551 H   0  0  0  0  0  0
  -26.8310  -19.2550   18.1182 H   0  0  0  0  0  0
  -27.2684  -20.5185   16.9830 H   0  0  0  0  0  0
  -27.4051  -20.8064   18.7102 H   0  0  0  0  0  0
  -27.0318  -24.4504   22.6034 H   0  0  0  0  0  0
  -26.1138  -24.8615   21.1690 H   0  0  0  0  0  0
  -26.6240  -26.1130   22.3049 H   0  0  0  0  0  0
  -29.2553  -23.0924   22.2447 H   0  0  0  0  0  0
  -27.7225  -22.5504   21.6515 H   0  0  0  0  0  0
  -28.0480  -23.8023   19.5171 H   0  0  0  0  0  0
  -29.6946  -24.1830   19.9139 H   0  0  0  0  0  0
  -28.9767  -18.8147   17.0563 H   0  0  0  0  0  0
  -28.9907  -25.5842   21.8199 H   0  0  0  0  0  0
  -27.9622  -20.3043   21.4992 H   0  0  0  0  0  0
  -29.2630  -15.2794   21.8200 H   0  0  0  0  0  0
  1 25  1  0  0  0
  1 30  2  0  0  0
  1 84  1  0  0  0
  2  3  1  0  0  0
  2 25  1  0  0  0
  2 87  1  0  0  0
  2 88  1  0  0  0
  3  4  1  0  0  0
  3 89  1  0  0  0
  3 90  1  0  0  0
  4  5  1  0  0  0
  4 91  1  0  0  0
  4 92  1  0  0  0
  5  6  1  0  0  0
  5 26  1  0  0  0
  5 93  1  0  0  0
  6 25  1  0  0  0
  6 94  1  0  0  0
  6 95  1  0  0  0
  7  8  2  0  0  0
  7 26  1  0  0  0
  7 29  1  0  0  0
  8  9  1  0  0  0
  8 22  1  0  0  0
  9 10  1  0  0  0
  9 27  2  0  0  0
 10 11  2  0  0  0
 10 15  1  0  0  0
 11 12  1  0  0  0
 11 96  1  0  0  0
 12 13  2  0  0  0
 12 97  1  0  0  0
 13 14  1  0  0  0
 13 31  1  0  0  0
 14 15  2  0  0  0
 14 98  1  0  0  0
 15 99  1  0  0  0
 16 17  2  0  0  0
 16 21  1  0  0  0
 16 31  1  0  0  0
 17 18  1  0  0  0
 17100  1  0  0  0
 18 19  2  0  0  0
 18101  1  0  0  0
 19 20  1  0  0  0
 19 24  1  0  0  0
 20 21  2  0  0  0
 20102  1  0  0  0
 21 23  1  0  0  0
 22 28  1  0  0  0
 22 32  2  0  0  0
 26 27  1  0  0  0
 28103  1  0  0  0
 28104  1  0  0  0
 29105  1  0  0  0
 29106  1  0  0  0
 33 34  1  0  0  0
 33 66  1  0  0  0
 33 70  2  0  0  0
 34 36  1  0  0  0
 34 59  1  0  0  0
 34107  1  0  0  0
 35 44  2  0  0  0
 35 45  1  0  0  0
 35 68  1  0  0  0
 36 56  1  0  0  0
 36108  1  0  0  0
 37 39  1  0  0  0
 37 47  1  0  0  0
 37 66  1  0  0  0
 37109  1  0  0  0
 38 43  2  0  0  0
 38 46  1  0  0  0
 38 47  1  0  0  0
 39 64  1  0  0  0
 39 67  2  0  0  0
 40 52  1  0  0  0
 40 53  2  0  0  0
 40 58  1  0  0  0
 41110  1  0  0  0
 41111  1  0  0  0
 41112  1  0  0  0
 41 48  1  0  0  0
 42 43  1  0  0  0
 42 66  1  0  0  0
 42113  1  0  0  0
 42114  1  0  0  0
 43 44  1  0  0  0
 44115  1  0  0  0
 45 46  2  0  0  0
 45116  1  0  0  0
 46117  1  0  0  0
 47118  1  0  0  0
 47119  1  0  0  0
 48 56  1  0  0  0
 48 65  1  0  0  0
 48120  1  0  0  0
 49 50  1  0  0  0
 49 53  1  0  0  0
 49 64  1  0  0  0
 49121  1  0  0  0
 50 51  1  0  0  0
 50122  1  0  0  0
 50123  1  0  0  0
 51 52  1  0  0  0
 51124  1  0  0  0
 51125  1  0  0  0
 52126  1  0  0  0
 52127  1  0  0  0
 53 54  1  0  0  0
 54 55  2  0  0  0
 54128  1  0  0  0
 55 57  1  0  0  0
 55129  1  0  0  0
 56 69  2  0  0  0
 57 58  2  0  0  0
 57130  1  0  0  0
 58131  1  0  0  0
 59 60  1  0  0  0
 59 61  1  0  0  0
 59 62  1  0  0  0
 60132  1  0  0  0
 60133  1  0  0  0
 60134  1  0  0  0
 61135  1  0  0  0
 61136  1  0  0  0
 61137  1  0  0  0
 62138  1  0  0  0
 62139  1  0  0  0
 62140  1  0  0  0
 63 65  1  0  0  0
 63141  1  0  0  0
 63142  1  0  0  0
 63143  1  0  0  0
 64144  1  0  0  0
 65145  1  0  0  0
 68 81  1  0  0  0
 71 72  2  0  0  0
 71 80  1  0  0  0
 71 86  1  0  0  0
 72 82  1  0  0  0
 72 83  1  0  0  0
 73 82  2  0  0  0
 73 84  1  0  0  0
 73 86  1  0  0  0
 74 78  1  0  0  0
 74 83  1  0  0  0
 74 85  2  0  0  0
 75146  1  0  0  0
 75147  1  0  0  0
 75148  1  0  0  0
 75 80  1  0  0  0
 76 80  1  0  0  0
 76149  1  0  0  0
 76150  1  0  0  0
 76151  1  0  0  0
 77152  1  0  0  0
 77153  1  0  0  0
 77154  1  0  0  0
 77 81  1  0  0  0
 78 79  1  0  0  0
 78155  1  0  0  0
 78156  1  0  0  0
 79 81  1  0  0  0
 79157  1  0  0  0
 79158  1  0  0  0
 80159  1  0  0  0
 81160  1  0  0  0
 83161  1  0  0  0
 84162  1  0  0  0
M  ISO  4   1 100  68 101  81 101  84 100
M  END
> <chiral flag>
0

> <version>
0

> <s_m_source_file>
/data/baiqing/PycharmProjects/Reinvent-master-3.2/result/LINK_invent/BTK/process_docking_weight1_custom_product_contain_oxygen_bond_distance_aromatic_linkinvent_7_9_3/rearranged_h_0182.sdf

> <i_m_source_file_index>
88

> <r_mmod_Potential_Energy-OPLS-2005>
-113.713371276855

> <r_mmod_Stretch_Energy-OPLS-2005>
49.7035903930664

> <r_mmod_Bend_Energy-OPLS-2005>
117.485931396484

> <r_mmod_Torsional_Energy-OPLS-2005>
275.201843261719

> <r_mmod_Improper_Torsional_Energy-OPLS-2005>
6.70122528076172

> <r_mmod_Van_der_Waal_Energy-OPLS-2005>
124.652534484863

> <r_mmod_Electrostatic_Energy-OPLS-2005>
-480.567077636719

> <r_mmod_Solvation_Energy-OPLS-2005>
-231.510955810547

> <b_mmod_Minimization_Converged-OPLS-2005>
0

> <r_mmod_RMS_Derivative-OPLS-2005>
5.51389265060425

$$$$
88
                    3D
 Structure written by MMmdl.
152160  0  0  1  0            999 V2000
  -30.6131  -14.7669   20.4145 C   0  0  0  0  0  0
  -30.4373  -12.4535   19.4713 C   0  0  0  0  0  0
  -29.5193  -12.5114   18.2294 C   0  0  0  0  0  0
  -28.0438  -12.3348   18.6429 C   0  0  0  0  0  0
  -27.6470  -13.2346   19.8440 C   0  0  2  0  0  0
  -28.6951  -13.1759   20.9778 C   0  0  0  0  0  0
  -25.2531  -13.8176   20.5660 C   0  0  0  0  0  0
  -24.1827  -13.0429   20.9170 C   0  0  0  0  0  0
  -24.6422  -11.6909   20.8705 C   0  0  0  0  0  0
  -23.9099  -10.4274   21.0387 C   0  0  0  0  0  0
  -24.3643   -9.4181   21.9159 C   0  0  0  0  0  0
  -23.6300   -8.2231   22.0749 C   0  0  0  0  0  0
  -22.4268   -8.0278   21.3568 C   0  0  0  0  0  0
  -21.9937   -9.0243   20.4667 C   0  0  0  0  0  0
  -22.7275  -10.2108   20.3046 C   0  0  0  0  0  0
  -21.6857   -6.0743   22.5278 C   0  0  0  0  0  0
  -21.4002   -6.5635   23.8220 C   0  0  0  0  0  0
  -21.3663   -5.6771   24.9177 C   0  0  0  0  0  0
  -21.6045   -4.3040   24.7209 C   0  0  0  0  0  0
  -21.8818   -3.8149   23.4326 C   0  0  0  0  0  0
  -21.9174   -4.6972   22.3385 C   0  0  0  0  0  0
  -22.7832  -13.5225   21.1827 C   0  0  0  0  0  0
  -22.1659   -4.2151   21.0964 F   0  0  0  0  0  0
  -21.5645   -3.4538   25.7724 F   0  0  0  0  0  0
  -29.9994  -13.5267   20.4002 N   0  0  0  0  0  0
  -26.2982  -12.9406   20.3232 N   0  0  0  0  0  0
  -25.9350  -11.6541   20.5686 N   0  0  0  0  0  0
  -22.0481  -12.8208   22.0398 N   0  0  0  0  0  0
  -25.4211  -15.1895   20.4052 N   0  0  0  0  0  0
  -31.7944  -14.8598   20.0646 O   0  0  0  0  0  0
  -21.6646   -6.8875   21.4240 O   0  0  0  0  0  0
  -22.3501  -14.5520   20.6673 O   0  0  0  0  0  0
  -24.6345  -31.8497   23.1923 C   0  0  0  0  0  0
  -25.9156  -32.4707   23.8286 C   0  0  1  0  0  0
  -27.2293  -27.2481   20.1183 C   0  0  0  0  0  0
  -25.5943  -33.8507   24.2208 N   0  0  0  0  0  0
  -23.4329  -30.4745   21.5313 C   0  0  2  0  0  0
  -24.8831  -28.9158   20.1041 C   0  0  0  0  0  0
  -22.7505  -29.4588   22.4813 C   0  0  0  0  0  0
  -18.0294  -28.1381   22.8467 C   0  0  0  0  0  0
  -24.1499  -36.7301   23.2639 C   0  0  0  0  0  0
  -25.9796  -30.7585   21.3769 C   0  0  0  0  0  0
  -26.0530  -29.3788   20.7221 C   0  0  0  0  0  0
  -27.2257  -28.5557   20.7208 C   0  0  0  0  0  0
  -26.0414  -26.8691   19.4565 C   0  0  0  0  0  0
  -24.8835  -27.6698   19.4611 C   0  0  0  0  0  0
  -23.6557  -29.8042   20.1487 C   0  0  0  0  0  0
  -25.4120  -36.3041   24.0307 C   0  0  1  0  0  0
  -20.5899  -28.3717   23.1218 C   0  0  2  0  0  0
  -20.6769  -26.9422   22.5383 C   0  0  0  0  0  0
  -19.5755  -26.6373   21.5176 C   0  0  0  0  0  0
  -18.1935  -26.7927   22.1596 C   0  0  0  0  0  0
  -19.1550  -28.8856   23.2853 C   0  0  0  0  0  0
  -18.9474  -30.1446   23.8898 C   0  0  0  0  0  0
  -17.6472  -30.6581   24.0556 C   0  0  0  0  0  0
  -25.9055  -34.9415   23.5059 C   0  0  0  0  0  0
  -16.5361  -29.9088   23.6311 C   0  0  0  0  0  0
  -16.7277  -28.6497   23.0345 C   0  0  0  0  0  0
  -26.4519  -31.6544   25.0696 C   0  0  0  0  0  0
  -25.3739  -31.3727   26.1416 C   0  0  0  0  0  0
  -27.0360  -30.2943   24.6207 C   0  0  0  0  0  0
  -27.6050  -32.4300   25.7499 C   0  0  0  0  0  0
  -27.5567  -37.1806   24.8452 C   0  0  0  0  0  0
  -21.4205  -29.3074   22.3596 N   0  0  0  0  0  0
  -26.4278  -37.3744   23.9394 N   0  0  0  0  0  0
  -24.7013  -31.0465   22.0899 N   0  0  0  0  0  0
  -23.4177  -28.8101   23.2909 O   0  0  0  0  0  0
  -28.3265  -26.3502   20.1857 O   0  0  0  0  0  0
  -26.5627  -34.8896   22.4625 O   0  0  0  0  0  0
  -23.5490  -32.1293   23.7214 O   0  0  0  0  0  0
  -29.6913  -19.7094   20.2362 C   0  0  0  0  0  0
  -30.3747  -19.5127   19.0376 C   0  0  0  0  0  0
  -30.0154  -17.3086   20.2471 C   0  0  0  0  0  0
  -29.3129  -21.0953   20.9130 C   0  0  0  0  0  0
  -28.7413  -23.9209   22.1883 C   0  0  0  0  0  0
  -28.1554  -24.8704   19.9103 C   0  0  0  0  0  0
  -29.0691  -23.7745   20.6878 C   0  0  2  0  0  0
  -29.4962  -18.4137   20.8741 N   0  0  0  0  0  0
  -30.8235  -20.4377   18.0899 N   0  0  0  0  0  0
  -29.8567  -15.8978   20.6955 N   0  0  0  0  0  0
  -29.1378  -22.2918   20.2115 N   0  0  0  0  0  0
  -29.1710  -21.0815   22.1390 O   0  0  0  0  0  0
  -30.7721  -17.8080   18.7350 S   0  0  0  0  0  0
  -31.4841  -12.5562   19.1804 H   0  0  0  0  0  0
  -30.3583  -11.4777   19.9531 H   0  0  0  0  0  0
  -29.8045  -11.7397   17.5123 H   0  0  0  0  0  0
  -29.6518  -13.4647   17.7132 H   0  0  0  0  0  0
  -27.9004  -11.2858   18.9069 H   0  0  0  0  0  0
  -27.3887  -12.5250   17.7923 H   0  0  0  0  0  0
  -27.6398  -14.2566   19.4628 H   0  0  0  0  0  0
  -28.7262  -12.1784   21.4178 H   0  0  0  0  0  0
  -28.4319  -13.8518   21.7916 H   0  0  0  0  0  0
  -25.2793   -9.5658   22.4713 H   0  0  0  0  0  0
  -24.0020   -7.4630   22.7457 H   0  0  0  0  0  0
  -21.0882   -8.8763   19.8967 H   0  0  0  0  0  0
  -22.3750  -10.9631   19.6148 H   0  0  0  0  0  0
  -21.2001   -7.6145   23.9713 H   0  0  0  0  0  0
  -21.1502   -6.0513   25.9070 H   0  0  0  0  0  0
  -22.0596   -2.7614   23.2809 H   0  0  0  0  0  0
  -22.4129  -11.9915   22.4840 H   0  0  0  0  0  0
  -21.1085  -13.1224   22.2573 H   0  0  0  0  0  0
  -24.6502  -15.8394   20.5088 H   0  0  0  0  0  0
  -26.2588  -15.6268   20.0452 H   0  0  0  0  0  0
  -26.7221  -32.5352   23.1030 H   0  0  0  0  0  0
  -25.0104  -33.9611   25.0368 H   0  0  0  0  0  0
  -22.7325  -31.2979   21.3764 H   0  0  0  0  0  0
  -23.3712  -35.9677   23.3297 H   0  0  0  0  0  0
  -24.3600  -36.8931   22.2053 H   0  0  0  0  0  0
  -23.7290  -37.6517   23.6678 H   0  0  0  0  0  0
  -26.1191  -31.5113   20.5999 H   0  0  0  0  0  0
  -26.8589  -30.8131   22.0063 H   0  0  0  0  0  0
  -28.1207  -28.9007   21.2191 H   0  0  0  0  0  0
  -25.9805  -25.9311   18.9249 H   0  0  0  0  0  0
  -23.9951  -27.3153   18.9557 H   0  0  0  0  0  0
  -23.7842  -30.5744   19.3875 H   0  0  0  0  0  0
  -22.7760  -29.2356   19.8430 H   0  0  0  0  0  0
  -25.1301  -36.1882   25.0791 H   0  0  0  0  0  0
  -21.0016  -28.3328   24.1329 H   0  0  0  0  0  0
  -20.5614  -26.2348   23.3611 H   0  0  0  0  0  0
  -21.6649  -26.7394   22.1232 H   0  0  0  0  0  0
  -19.6932  -25.6267   21.1249 H   0  0  0  0  0  0
  -19.6706  -27.3146   20.6677 H   0  0  0  0  0  0
  -17.4197  -26.6634   21.4012 H   0  0  0  0  0  0
  -18.0379  -26.0071   22.9005 H   0  0  0  0  0  0
  -19.7951  -30.7252   24.2280 H   0  0  0  0  0  0
  -17.5029  -31.6261   24.5165 H   0  0  0  0  0  0
  -15.5364  -30.3002   23.7616 H   0  0  0  0  0  0
  -15.8673  -28.0814   22.7073 H   0  0  0  0  0  0
  -24.5913  -30.7066   25.7770 H   0  0  0  0  0  0
  -24.8941  -32.2912   26.4805 H   0  0  0  0  0  0
  -25.8064  -30.8940   27.0208 H   0  0  0  0  0  0
  -26.2933  -29.6680   24.1237 H   0  0  0  0  0  0
  -27.4021  -29.7225   25.4746 H   0  0  0  0  0  0
  -27.8837  -30.4181   23.9459 H   0  0  0  0  0  0
  -27.2620  -33.3592   26.2060 H   0  0  0  0  0  0
  -28.3898  -32.6852   25.0370 H   0  0  0  0  0  0
  -28.0677  -31.8427   26.5439 H   0  0  0  0  0  0
  -28.2572  -38.0114   24.7461 H   0  0  0  0  0  0
  -28.1069  -36.2626   24.6315 H   0  0  0  0  0  0
  -27.2289  -37.1512   25.8858 H   0  0  0  0  0  0
  -20.9364  -29.8860   21.6874 H   0  0  0  0  0  0
  -26.0150  -38.2812   24.1376 H   0  0  0  0  0  0
  -28.6529  -24.9730   22.4632 H   0  0  0  0  0  0
  -29.5213  -23.5050   22.8270 H   0  0  0  0  0  0
  -27.7925  -23.4451   22.4398 H   0  0  0  0  0  0
  -27.1274  -24.5854   20.1308 H   0  0  0  0  0  0
  -28.2752  -24.7336   18.8345 H   0  0  0  0  0  0
  -30.0921  -24.1284   20.5566 H   0  0  0  0  0  0
  -31.0447  -21.4043   18.3149 H   0  0  0  0  0  0
  -31.3734  -20.1264   17.2934 H   0  0  0  0  0  0
  -28.9756  -15.7042   21.1421 H   0  0  0  0  0  0
  -29.2331  -22.1763   19.2086 H   0  0  0  0  0  0
  1 25  1  0  0  0
  1 30  2  0  0  0
  1 80  1  0  0  0
  2  3  1  0  0  0
  2 25  1  0  0  0
  2 84  1  0  0  0
  2 85  1  0  0  0
  3  4  1  0  0  0
  3 86  1  0  0  0
  3 87  1  0  0  0
  4  5  1  0  0  0
  4 88  1  0  0  0
  4 89  1  0  0  0
  5  6  1  0  0  0
  5 26  1  0  0  0
  5 90  1  0  0  0
  6 25  1  0  0  0
  6 91  1  0  0  0
  6 92  1  0  0  0
  7  8  2  0  0  0
  7 26  1  0  0  0
  7 29  1  0  0  0
  8  9  1  0  0  0
  8 22  1  0  0  0
  9 10  1  0  0  0
  9 27  2  0  0  0
 10 11  2  0  0  0
 10 15  1  0  0  0
 11 12  1  0  0  0
 11 93  1  0  0  0
 12 13  2  0  0  0
 12 94  1  0  0  0
 13 14  1  0  0  0
 13 31  1  0  0  0
 14 15  2  0  0  0
 14 95  1  0  0  0
 15 96  1  0  0  0
 16 17  2  0  0  0
 16 21  1  0  0  0
 16 31  1  0  0  0
 17 18  1  0  0  0
 17 97  1  0  0  0
 18 19  2  0  0  0
 18 98  1  0  0  0
 19 20  1  0  0  0
 19 24  1  0  0  0
 20 21  2  0  0  0
 20 99  1  0  0  0
 21 23  1  0  0  0
 22 28  1  0  0  0
 22 32  2  0  0  0
 26 27  1  0  0  0
 28100  1  0  0  0
 28101  1  0  0  0
 29102  1  0  0  0
 29103  1  0  0  0
 33 34  1  0  0  0
 33 66  1  0  0  0
 33 70  2  0  0  0
 34 36  1  0  0  0
 34 59  1  0  0  0
 34104  1  0  0  0
 35 44  2  0  0  0
 35 45  1  0  0  0
 35 68  1  0  0  0
 36 56  1  0  0  0
 36105  1  0  0  0
 37 39  1  0  0  0
 37 47  1  0  0  0
 37 66  1  0  0  0
 37106  1  0  0  0
 38 43  2  0  0  0
 38 46  1  0  0  0
 38 47  1  0  0  0
 39 64  1  0  0  0
 39 67  2  0  0  0
 40 52  1  0  0  0
 40 53  2  0  0  0
 40 58  1  0  0  0
 41107  1  0  0  0
 41108  1  0  0  0
 41109  1  0  0  0
 41 48  1  0  0  0
 42 43  1  0  0  0
 42 66  1  0  0  0
 42110  1  0  0  0
 42111  1  0  0  0
 43 44  1  0  0  0
 44112  1  0  0  0
 45 46  2  0  0  0
 45113  1  0  0  0
 46114  1  0  0  0
 47115  1  0  0  0
 47116  1  0  0  0
 48 56  1  0  0  0
 48 65  1  0  0  0
 48117  1  0  0  0
 49 50  1  0  0  0
 49 53  1  0  0  0
 49 64  1  0  0  0
 49118  1  0  0  0
 50 51  1  0  0  0
 50119  1  0  0  0
 50120  1  0  0  0
 51 52  1  0  0  0
 51121  1  0  0  0
 51122  1  0  0  0
 52123  1  0  0  0
 52124  1  0  0  0
 53 54  1  0  0  0
 54 55  2  0  0  0
 54125  1  0  0  0
 55 57  1  0  0  0
 55126  1  0  0  0
 56 69  2  0  0  0
 57 58  2  0  0  0
 57127  1  0  0  0
 58128  1  0  0  0
 59 60  1  0  0  0
 59 61  1  0  0  0
 59 62  1  0  0  0
 60129  1  0  0  0
 60130  1  0  0  0
 60131  1  0  0  0
 61132  1  0  0  0
 61133  1  0  0  0
 61134  1  0  0  0
 62135  1  0  0  0
 62136  1  0  0  0
 62137  1  0  0  0
 63 65  1  0  0  0
 63138  1  0  0  0
 63139  1  0  0  0
 63140  1  0  0  0
 64141  1  0  0  0
 65142  1  0  0  0
 68 76  1  0  0  0
 71 72  2  0  0  0
 71 74  1  0  0  0
 71 78  1  0  0  0
 72 79  1  0  0  0
 72 83  1  0  0  0
 73 78  2  0  0  0
 73 80  1  0  0  0
 73 83  1  0  0  0
 74 81  1  0  0  0
 74 82  2  0  0  0
 75143  1  0  0  0
 75144  1  0  0  0
 75145  1  0  0  0
 75 77  1  0  0  0
 76 77  1  0  0  0
 76146  1  0  0  0
 76147  1  0  0  0
 77 81  1  0  0  0
 77148  1  0  0  0
 79149  1  0  0  0
 79150  1  0  0  0
 80151  1  0  0  0
 81152  1  0  0  0
M  ISO  4   1 100  68 101  76 101  80 100
M  END
> <chiral flag>
0

> <version>
0

> <s_m_source_file>
/data/baiqing/PycharmProjects/Reinvent-master-3.2/result/LINK_invent/BTK/process_docking_weight1_custom_product_contain_oxygen_bond_distance_aromatic_linkinvent_7_9_3/rearranged_h_0182.sdf

> <i_m_source_file_index>
89

> <r_mmod_Potential_Energy-OPLS-2005>
223.791641235352

> <r_mmod_Stretch_Energy-OPLS-2005>
142.165451049805

> <r_mmod_Bend_Energy-OPLS-2005>
183.098587036133

> <r_mmod_Torsional_Energy-OPLS-2005>
227.641952514648

> <r_mmod_Improper_Torsional_Energy-OPLS-2005>
6.74300193786621

> <r_mmod_Van_der_Waal_Energy-OPLS-2005>
121.121360778809

> <r_mmod_Electrostatic_Energy-OPLS-2005>
-299.597564697266

> <r_mmod_Solvation_Energy-OPLS-2005>
-251.145858764648

> <b_mmod_Minimization_Converged-OPLS-2005>
0

> <r_mmod_RMS_Derivative-OPLS-2005>
4.44326162338257

$$$$
89
                    3D
 Structure written by MMmdl.
149157  0  0  1  0            999 V2000
  -30.5752  -14.7281   20.4598 C   0  0  0  0  0  0
  -30.4427  -12.4393   19.4638 C   0  0  0  0  0  0
  -29.5137  -12.5024   18.2298 C   0  0  0  0  0  0
  -28.0399  -12.3205   18.6459 C   0  0  0  0  0  0
  -27.6452  -13.2161   19.8501 C   0  0  2  0  0  0
  -28.6896  -13.1207   20.9849 C   0  0  0  0  0  0
  -25.2537  -13.8157   20.5664 C   0  0  0  0  0  0
  -24.1816  -13.0426   20.9198 C   0  0  0  0  0  0
  -24.6379  -11.6895   20.8732 C   0  0  0  0  0  0
  -23.9052  -10.4277   21.0404 C   0  0  0  0  0  0
  -24.3609   -9.4199   21.9182 C   0  0  0  0  0  0
  -23.6276   -8.2239   22.0759 C   0  0  0  0  0  0
  -22.4263   -8.0270   21.3546 C   0  0  0  0  0  0
  -21.9897   -9.0243   20.4648 C   0  0  0  0  0  0
  -22.7226  -10.2119   20.3050 C   0  0  0  0  0  0
  -21.6854   -6.0723   22.5275 C   0  0  0  0  0  0
  -21.4013   -6.5633   23.8206 C   0  0  0  0  0  0
  -21.3658   -5.6787   24.9172 C   0  0  0  0  0  0
  -21.6047   -4.3050   24.7226 C   0  0  0  0  0  0
  -21.8815   -3.8138   23.4350 C   0  0  0  0  0  0
  -21.9189   -4.6950   22.3405 C   0  0  0  0  0  0
  -22.7846  -13.5226   21.1870 C   0  0  0  0  0  0
  -22.1658   -4.2134   21.0984 F   0  0  0  0  0  0
  -21.5629   -3.4538   25.7744 F   0  0  0  0  0  0
  -29.9940  -13.4820   20.4119 N   0  0  0  0  0  0
  -26.2947  -12.9328   20.3254 N   0  0  0  0  0  0
  -25.9303  -11.6489   20.5729 N   0  0  0  0  0  0
  -22.0474  -12.8217   22.0415 N   0  0  0  0  0  0
  -25.4231  -15.1888   20.4076 N   0  0  0  0  0  0
  -31.7625  -14.8726   20.1465 O   0  0  0  0  0  0
  -21.6636   -6.8864   21.4237 O   0  0  0  0  0  0
  -22.3534  -14.5531   20.6712 O   0  0  0  0  0  0
  -24.6293  -31.8564   23.1971 C   0  0  0  0  0  0
  -25.9126  -32.4762   23.8320 C   0  0  1  0  0  0
  -27.2268  -27.2864   20.1326 C   0  0  0  0  0  0
  -25.5939  -33.8566   24.2264 N   0  0  0  0  0  0
  -23.4251  -30.4757   21.5411 C   0  0  2  0  0  0
  -24.8738  -28.9186   20.1163 C   0  0  0  0  0  0
  -22.7488  -29.4599   22.4926 C   0  0  0  0  0  0
  -18.0289  -28.1398   22.8482 C   0  0  0  0  0  0
  -24.1497  -36.7282   23.2642 C   0  0  0  0  0  0
  -25.9674  -30.7781   21.3710 C   0  0  0  0  0  0
  -26.0432  -29.3998   20.7183 C   0  0  0  0  0  0
  -27.2266  -28.5982   20.7081 C   0  0  0  0  0  0
  -26.0350  -26.8538   19.5183 C   0  0  0  0  0  0
  -24.8727  -27.6527   19.5060 C   0  0  0  0  0  0
  -23.6417  -29.8019   20.1596 C   0  0  0  0  0  0
  -25.4122  -36.3072   24.0334 C   0  0  1  0  0  0
  -20.5888  -28.3698   23.1287 C   0  0  2  0  0  0
  -20.6785  -26.9420   22.5411 C   0  0  0  0  0  0
  -19.5758  -26.6382   21.5221 C   0  0  0  0  0  0
  -18.1931  -26.7941   22.1616 C   0  0  0  0  0  0
  -19.1540  -28.8862   23.2882 C   0  0  0  0  0  0
  -18.9464  -30.1467   23.8898 C   0  0  0  0  0  0
  -17.6467  -30.6599   24.0561 C   0  0  0  0  0  0
  -25.9050  -34.9445   23.5094 C   0  0  0  0  0  0
  -16.5360  -29.9094   23.6337 C   0  0  0  0  0  0
  -16.7274  -28.6519   23.0352 C   0  0  0  0  0  0
  -26.4507  -31.6588   25.0707 C   0  0  0  0  0  0
  -25.3733  -31.3728   26.1428 C   0  0  0  0  0  0
  -27.0378  -30.3020   24.6167 C   0  0  0  0  0  0
  -27.6057  -32.4340   25.7485 C   0  0  0  0  0  0
  -27.5588  -37.1784   24.8464 C   0  0  0  0  0  0
  -21.4196  -29.3054   22.3683 N   0  0  0  0  0  0
  -26.4295  -37.3769   23.9416 N   0  0  0  0  0  0
  -24.6932  -31.0544   22.0935 N   0  0  0  0  0  0
  -23.4203  -28.8136   23.3014 O   0  0  0  0  0  0
  -28.3408  -26.4296   20.1198 O   0  0  0  0  0  0
  -26.5612  -34.8921   22.4654 O   0  0  0  0  0  0
  -23.5445  -32.1376   23.7285 O   0  0  0  0  0  0
  -29.3845  -19.8171   20.2169 C   0  0  0  0  0  0
  -30.6784  -19.4209   20.5449 C   0  0  0  0  0  0
  -29.7949  -17.2576   20.5053 C   0  0  0  0  0  0
  -29.0872  -22.4602   20.3259 C   0  0  0  0  0  0
  -28.8099  -21.1688   19.8856 C   0  0  0  0  0  0
  -28.5206  -23.8008   19.7844 C   0  0  0  0  0  0
  -28.2098  -25.0604   20.7122 C   0  0  0  0  0  0
  -30.8915  -18.0181   20.6866 N   0  0  0  0  0  0
  -31.7743  -20.2714   20.6973 N   0  0  0  0  0  0
  -29.7076  -15.7888   20.6495 N   0  0  0  0  0  0
  -28.3027  -23.9499   18.5767 O   0  0  0  0  0  0
  -27.8818  -21.0383   18.9228 O   0  0  0  0  0  0
  -28.3926  -18.3276   20.1562 S   0  0  0  0  0  0
  -31.4826  -12.5773   19.1632 H   0  0  0  0  0  0
  -30.3947  -11.4536   19.9296 H   0  0  0  0  0  0
  -29.7952  -11.7339   17.5086 H   0  0  0  0  0  0
  -29.6381  -13.4595   17.7211 H   0  0  0  0  0  0
  -27.9051  -11.2711   18.9123 H   0  0  0  0  0  0
  -27.3778  -12.5050   17.7987 H   0  0  0  0  0  0
  -27.6441  -14.2394   19.4749 H   0  0  0  0  0  0
  -28.7204  -12.1118   21.3984 H   0  0  0  0  0  0
  -28.4233  -13.7755   21.8162 H   0  0  0  0  0  0
  -25.2750   -9.5680   22.4763 H   0  0  0  0  0  0
  -23.9979   -7.4638   22.7489 H   0  0  0  0  0  0
  -21.0826   -8.8757   19.8957 H   0  0  0  0  0  0
  -22.3679  -10.9659   19.6160 H   0  0  0  0  0  0
  -21.2004   -7.6138   23.9703 H   0  0  0  0  0  0
  -21.1490   -6.0524   25.9073 H   0  0  0  0  0  0
  -22.0595   -2.7595   23.2858 H   0  0  0  0  0  0
  -22.4070  -11.9873   22.4806 H   0  0  0  0  0  0
  -21.1098  -13.1262   22.2619 H   0  0  0  0  0  0
  -24.6454  -15.8325   20.5088 H   0  0  0  0  0  0
  -26.2467  -15.6288   20.0199 H   0  0  0  0  0  0
  -26.7195  -32.5418   23.1064 H   0  0  0  0  0  0
  -25.0142  -33.9711   25.0448 H   0  0  0  0  0  0
  -22.7207  -31.2962   21.3907 H   0  0  0  0  0  0
  -23.3773  -35.9592   23.3276 H   0  0  0  0  0  0
  -24.3596  -36.8927   22.2061 H   0  0  0  0  0  0
  -23.7228  -37.6467   23.6682 H   0  0  0  0  0  0
  -26.0998  -31.5373   20.5995 H   0  0  0  0  0  0
  -26.8483  -30.8309   21.9991 H   0  0  0  0  0  0
  -28.1299  -28.9680   21.1720 H   0  0  0  0  0  0
  -26.0005  -25.8804   19.0494 H   0  0  0  0  0  0
  -23.9759  -27.2760   19.0346 H   0  0  0  0  0  0
  -23.7609  -30.5750   19.3996 H   0  0  0  0  0  0
  -22.7622  -29.2297   19.8580 H   0  0  0  0  0  0
  -25.1295  -36.1915   25.0826 H   0  0  0  0  0  0
  -20.9974  -28.3275   24.1414 H   0  0  0  0  0  0
  -20.5710  -26.2302   23.3613 H   0  0  0  0  0  0
  -21.6646  -26.7454   22.1184 H   0  0  0  0  0  0
  -19.6923  -25.6289   21.1267 H   0  0  0  0  0  0
  -19.6713  -27.3183   20.6746 H   0  0  0  0  0  0
  -17.4203  -26.6709   21.4015 H   0  0  0  0  0  0
  -18.0308  -26.0086   22.9009 H   0  0  0  0  0  0
  -19.7945  -30.7288   24.2262 H   0  0  0  0  0  0
  -17.5021  -31.6281   24.5157 H   0  0  0  0  0  0
  -15.5362  -30.3000   23.7671 H   0  0  0  0  0  0
  -15.8672  -28.0843   22.7069 H   0  0  0  0  0  0
  -24.5921  -30.7064   25.7749 H   0  0  0  0  0  0
  -24.8911  -32.2897   26.4832 H   0  0  0  0  0  0
  -25.8048  -30.8920   27.0215 H   0  0  0  0  0  0
  -26.2960  -29.6745   24.1210 H   0  0  0  0  0  0
  -27.4125  -29.7297   25.4663 H   0  0  0  0  0  0
  -27.8797  -30.4340   23.9366 H   0  0  0  0  0  0
  -27.2662  -33.3660   26.2020 H   0  0  0  0  0  0
  -28.3886  -32.6868   25.0323 H   0  0  0  0  0  0
  -28.0703  -31.8494   26.5435 H   0  0  0  0  0  0
  -28.2560  -38.0120   24.7539 H   0  0  0  0  0  0
  -28.1126  -36.2648   24.6246 H   0  0  0  0  0  0
  -27.2307  -37.1368   25.8864 H   0  0  0  0  0  0
  -20.9382  -29.8790   21.6892 H   0  0  0  0  0  0
  -26.0176  -38.2838   24.1426 H   0  0  0  0  0  0
  -29.8080  -22.5715   21.1229 H   0  0  0  0  0  0
  -28.8741  -25.0086   21.5746 H   0  0  0  0  0  0
  -27.2024  -24.9348   21.1097 H   0  0  0  0  0  0
  -31.7087  -21.2229   20.3552 H   0  0  0  0  0  0
  -32.7087  -19.8788   20.6621 H   0  0  0  0  0  0
  -28.7668  -15.4659   20.8064 H   0  0  0  0  0  0
  -27.7990  -20.1149   18.7212 H   0  0  0  0  0  0
  1 25  1  0  0  0
  1 30  2  0  0  0
  1 80  1  0  0  0
  2  3  1  0  0  0
  2 25  1  0  0  0
  2 84  1  0  0  0
  2 85  1  0  0  0
  3  4  1  0  0  0
  3 86  1  0  0  0
  3 87  1  0  0  0
  4  5  1  0  0  0
  4 88  1  0  0  0
  4 89  1  0  0  0
  5  6  1  0  0  0
  5 26  1  0  0  0
  5 90  1  0  0  0
  6 25  1  0  0  0
  6 91  1  0  0  0
  6 92  1  0  0  0
  7  8  2  0  0  0
  7 26  1  0  0  0
  7 29  1  0  0  0
  8  9  1  0  0  0
  8 22  1  0  0  0
  9 10  1  0  0  0
  9 27  2  0  0  0
 10 11  2  0  0  0
 10 15  1  0  0  0
 11 12  1  0  0  0
 11 93  1  0  0  0
 12 13  2  0  0  0
 12 94  1  0  0  0
 13 14  1  0  0  0
 13 31  1  0  0  0
 14 15  2  0  0  0
 14 95  1  0  0  0
 15 96  1  0  0  0
 16 17  2  0  0  0
 16 21  1  0  0  0
 16 31  1  0  0  0
 17 18  1  0  0  0
 17 97  1  0  0  0
 18 19  2  0  0  0
 18 98  1  0  0  0
 19 20  1  0  0  0
 19 24  1  0  0  0
 20 21  2  0  0  0
 20 99  1  0  0  0
 21 23  1  0  0  0
 22 28  1  0  0  0
 22 32  2  0  0  0
 26 27  1  0  0  0
 28100  1  0  0  0
 28101  1  0  0  0
 29102  1  0  0  0
 29103  1  0  0  0
 33 34  1  0  0  0
 33 66  1  0  0  0
 33 70  2  0  0  0
 34 36  1  0  0  0
 34 59  1  0  0  0
 34104  1  0  0  0
 35 44  2  0  0  0
 35 45  1  0  0  0
 35 68  1  0  0  0
 36 56  1  0  0  0
 36105  1  0  0  0
 37 39  1  0  0  0
 37 47  1  0  0  0
 37 66  1  0  0  0
 37106  1  0  0  0
 38 43  2  0  0  0
 38 46  1  0  0  0
 38 47  1  0  0  0
 39 64  1  0  0  0
 39 67  2  0  0  0
 40 52  1  0  0  0
 40 53  2  0  0  0
 40 58  1  0  0  0
 41107  1  0  0  0
 41108  1  0  0  0
 41109  1  0  0  0
 41 48  1  0  0  0
 42 43  1  0  0  0
 42 66  1  0  0  0
 42110  1  0  0  0
 42111  1  0  0  0
 43 44  1  0  0  0
 44112  1  0  0  0
 45 46  2  0  0  0
 45113  1  0  0  0
 46114  1  0  0  0
 47115  1  0  0  0
 47116  1  0  0  0
 48 56  1  0  0  0
 48 65  1  0  0  0
 48117  1  0  0  0
 49 50  1  0  0  0
 49 53  1  0  0  0
 49 64  1  0  0  0
 49118  1  0  0  0
 50 51  1  0  0  0
 50119  1  0  0  0
 50120  1  0  0  0
 51 52  1  0  0  0
 51121  1  0  0  0
 51122  1  0  0  0
 52123  1  0  0  0
 52124  1  0  0  0
 53 54  1  0  0  0
 54 55  2  0  0  0
 54125  1  0  0  0
 55 57  1  0  0  0
 55126  1  0  0  0
 56 69  2  0  0  0
 57 58  2  0  0  0
 57127  1  0  0  0
 58128  1  0  0  0
 59 60  1  0  0  0
 59 61  1  0  0  0
 59 62  1  0  0  0
 60129  1  0  0  0
 60130  1  0  0  0
 60131  1  0  0  0
 61132  1  0  0  0
 61133  1  0  0  0
 61134  1  0  0  0
 62135  1  0  0  0
 62136  1  0  0  0
 62137  1  0  0  0
 63 65  1  0  0  0
 63138  1  0  0  0
 63139  1  0  0  0
 63140  1  0  0  0
 64141  1  0  0  0
 65142  1  0  0  0
 68 77  1  0  0  0
 71 72  2  0  0  0
 71 75  1  0  0  0
 71 83  1  0  0  0
 72 78  1  0  0  0
 72 79  1  0  0  0
 73 78  2  0  0  0
 73 80  1  0  0  0
 73 83  1  0  0  0
 74 75  2  0  0  0
 74 76  1  0  0  0
 74143  1  0  0  0
 75 82  1  0  0  0
 76 77  1  0  0  0
 76 81  2  0  0  0
 77144  1  0  0  0
 77145  1  0  0  0
 79146  1  0  0  0
 79147  1  0  0  0
 80148  1  0  0  0
 82149  1  0  0  0
M  ISO  4   1 100  68 101  77 101  80 100
M  END
> <chiral flag>
0

> <version>
0

> <s_m_source_file>
/data/baiqing/PycharmProjects/Reinvent-master-3.2/result/LINK_invent/BTK/process_docking_weight1_custom_product_contain_oxygen_bond_distance_aromatic_linkinvent_7_9_3/rearranged_h_0182.sdf

> <i_m_source_file_index>
90

> <r_mmod_Potential_Energy-OPLS-2005>
83.5674514770508

> <r_mmod_Stretch_Energy-OPLS-2005>
105.239738464355

> <r_mmod_Bend_Energy-OPLS-2005>
160.800979614258

> <r_mmod_Torsional_Energy-OPLS-2005>
243.487777709961

> <r_mmod_Improper_Torsional_Energy-OPLS-2005>
8.58896636962891

> <r_mmod_Van_der_Waal_Energy-OPLS-2005>
113.768623352051

> <r_mmod_Electrostatic_Energy-OPLS-2005>
-348.193542480469

> <r_mmod_Solvation_Energy-OPLS-2005>
-272.93310546875

> <b_mmod_Minimization_Converged-OPLS-2005>
0

> <r_mmod_RMS_Derivative-OPLS-2005>
1.5338237285614

$$$$
90
                    3D
 Structure written by MMmdl.
149157  0  0  1  0            999 V2000
  -30.5600  -14.8505   20.4467 C   0  0  0  0  0  0
  -30.4449  -12.5284   19.4691 C   0  0  0  0  0  0
  -29.5145  -12.5137   18.2351 C   0  0  0  0  0  0
  -28.0442  -12.3166   18.6559 C   0  0  0  0  0  0
  -27.6338  -13.2330   19.8381 C   0  0  2  0  0  0
  -28.6829  -13.2141   20.9695 C   0  0  0  0  0  0
  -25.2496  -13.8187   20.5713 C   0  0  0  0  0  0
  -24.1793  -13.0429   20.9224 C   0  0  0  0  0  0
  -24.6386  -11.6906   20.8747 C   0  0  0  0  0  0
  -23.9061  -10.4284   21.0405 C   0  0  0  0  0  0
  -24.3615   -9.4203   21.9183 C   0  0  0  0  0  0
  -23.6291   -8.2238   22.0750 C   0  0  0  0  0  0
  -22.4275   -8.0275   21.3542 C   0  0  0  0  0  0
  -21.9908   -9.0251   20.4646 C   0  0  0  0  0  0
  -22.7235  -10.2130   20.3056 C   0  0  0  0  0  0
  -21.6850   -6.0733   22.5278 C   0  0  0  0  0  0
  -21.4013   -6.5637   23.8212 C   0  0  0  0  0  0
  -21.3662   -5.6791   24.9174 C   0  0  0  0  0  0
  -21.6046   -4.3053   24.7224 C   0  0  0  0  0  0
  -21.8821   -3.8144   23.4343 C   0  0  0  0  0  0
  -21.9195   -4.6960   22.3401 C   0  0  0  0  0  0
  -22.7817  -13.5212   21.1882 C   0  0  0  0  0  0
  -22.1661   -4.2145   21.0979 F   0  0  0  0  0  0
  -21.5629   -3.4539   25.7739 F   0  0  0  0  0  0
  -29.9645  -13.6043   20.3695 N   0  0  0  0  0  0
  -26.2904  -12.9387   20.3242 N   0  0  0  0  0  0
  -25.9314  -11.6532   20.5735 N   0  0  0  0  0  0
  -22.0458  -12.8202   22.0433 N   0  0  0  0  0  0
  -25.4168  -15.1921   20.4156 N   0  0  0  0  0  0
  -31.7714  -14.9414   20.2248 O   0  0  0  0  0  0
  -21.6638   -6.8875   21.4241 O   0  0  0  0  0  0
  -22.3507  -14.5525   20.6736 O   0  0  0  0  0  0
  -24.6372  -31.8497   23.1920 C   0  0  0  0  0  0
  -25.9167  -32.4725   23.8297 C   0  0  1  0  0  0
  -27.2237  -27.2006   20.1511 C   0  0  0  0  0  0
  -25.5938  -33.8528   24.2217 N   0  0  0  0  0  0
  -23.4378  -30.4683   21.5365 C   0  0  2  0  0  0
  -24.8871  -28.8954   20.1203 C   0  0  0  0  0  0
  -22.7531  -29.4580   22.4894 C   0  0  0  0  0  0
  -18.0296  -28.1393   22.8482 C   0  0  0  0  0  0
  -24.1493  -36.7275   23.2640 C   0  0  0  0  0  0
  -25.9875  -30.7424   21.3810 C   0  0  0  0  0  0
  -26.0612  -29.3554   20.7317 C   0  0  0  0  0  0
  -27.2343  -28.5224   20.7312 C   0  0  0  0  0  0
  -26.0253  -26.8150   19.5185 C   0  0  0  0  0  0
  -24.8762  -27.6341   19.5026 C   0  0  0  0  0  0
  -23.6619  -29.7927   20.1575 C   0  0  0  0  0  0
  -25.4119  -36.3051   24.0321 C   0  0  1  0  0  0
  -20.5905  -28.3716   23.1254 C   0  0  2  0  0  0
  -20.6784  -26.9429   22.5404 C   0  0  0  0  0  0
  -19.5756  -26.6384   21.5213 C   0  0  0  0  0  0
  -18.1940  -26.7930   22.1631 C   0  0  0  0  0  0
  -19.1552  -28.8870   23.2861 C   0  0  0  0  0  0
  -18.9471  -30.1467   23.8885 C   0  0  0  0  0  0
  -17.6470  -30.6592   24.0559 C   0  0  0  0  0  0
  -25.9066  -34.9424   23.5076 C   0  0  0  0  0  0
  -16.5360  -29.9087   23.6334 C   0  0  0  0  0  0
  -16.7282  -28.6505   23.0357 C   0  0  0  0  0  0
  -26.4506  -31.6571   25.0715 C   0  0  0  0  0  0
  -25.3711  -31.3750   26.1427 C   0  0  0  0  0  0
  -27.0357  -30.2974   24.6256 C   0  0  0  0  0  0
  -27.6053  -32.4320   25.7492 C   0  0  0  0  0  0
  -27.5581  -37.1790   24.8460 C   0  0  0  0  0  0
  -21.4232  -29.3052   22.3634 N   0  0  0  0  0  0
  -26.4287  -37.3759   23.9411 N   0  0  0  0  0  0
  -24.7067  -31.0407   22.0923 N   0  0  0  0  0  0
  -23.4202  -28.8139   23.3032 O   0  0  0  0  0  0
  -28.3116  -26.2831   20.1057 O   0  0  0  0  0  0
  -26.5651  -34.8914   22.4654 O   0  0  0  0  0  0
  -23.5508  -32.1350   23.7177 O   0  0  0  0  0  0
  -30.4814  -17.8798   21.9865 C   0  0  0  0  0  0
  -29.9087  -17.4476   20.8002 C   0  0  0  0  0  0
  -29.4817  -19.8474   20.6948 C   0  0  0  0  0  0
  -28.2264  -24.9340   20.6195 C   0  0  0  0  0  0
  -28.7359  -23.7328   20.0952 C   0  0  0  0  0  0
  -28.7374  -22.3843   20.8295 C   0  0  0  0  0  0
  -31.1301  -17.0754   23.0754 C   0  0  0  0  0  0
  -29.3454  -18.6030   20.0891 N   0  0  0  0  0  0
  -29.7279  -15.9858   20.4665 N   0  0  0  0  0  0
  -29.0998  -21.2048   20.1597 N   0  0  0  0  0  0
  -28.4172  -22.3143   22.0182 O   0  0  0  0  0  0
  -29.3010  -23.7660   18.8807 O   0  0  0  0  0  0
  -30.4511  -15.9595   23.3413 F   0  0  0  0  0  0
  -32.3719  -16.7265   22.7450 F   0  0  0  0  0  0
  -31.2079  -17.7575   24.2188 F   0  0  0  0  0  0
  -30.3436  -19.6360   22.2167 S   0  0  0  0  0  0
  -31.4776  -12.6903   19.1564 H   0  0  0  0  0  0
  -30.4306  -11.5646   19.9803 H   0  0  0  0  0  0
  -29.8160  -11.7254   17.5440 H   0  0  0  0  0  0
  -29.6151  -13.4532   17.6886 H   0  0  0  0  0  0
  -27.9214  -11.2713   18.9425 H   0  0  0  0  0  0
  -27.3810  -12.4778   17.8048 H   0  0  0  0  0  0
  -27.6082  -14.2430   19.4296 H   0  0  0  0  0  0
  -28.7523  -12.2258   21.4261 H   0  0  0  0  0  0
  -28.4025  -13.9034   21.7677 H   0  0  0  0  0  0
  -25.2761   -9.5678   22.4756 H   0  0  0  0  0  0
  -24.0006   -7.4627   22.7464 H   0  0  0  0  0  0
  -21.0837   -8.8767   19.8951 H   0  0  0  0  0  0
  -22.3691  -10.9670   19.6166 H   0  0  0  0  0  0
  -21.2004   -7.6146   23.9718 H   0  0  0  0  0  0
  -21.1484   -6.0513   25.9079 H   0  0  0  0  0  0
  -22.0600   -2.7605   23.2838 H   0  0  0  0  0  0
  -22.4073  -11.9862   22.4821 H   0  0  0  0  0  0
  -21.1081  -13.1233   22.2650 H   0  0  0  0  0  0
  -24.6461  -15.8395   20.5414 H   0  0  0  0  0  0
  -26.2509  -15.6407   20.0618 H   0  0  0  0  0  0
  -26.7237  -32.5354   23.1037 H   0  0  0  0  0  0
  -25.0046  -33.9649   25.0337 H   0  0  0  0  0  0
  -22.7378  -31.2920   21.3819 H   0  0  0  0  0  0
  -23.3758  -35.9605   23.3286 H   0  0  0  0  0  0
  -24.3583  -36.8919   22.2059 H   0  0  0  0  0  0
  -23.7250  -37.6470   23.6681 H   0  0  0  0  0  0
  -26.1318  -31.4956   20.6052 H   0  0  0  0  0  0
  -26.8632  -30.7971   22.0166 H   0  0  0  0  0  0
  -28.1391  -28.8757   21.2056 H   0  0  0  0  0  0
  -25.9749  -25.8472   19.0393 H   0  0  0  0  0  0
  -23.9782  -27.2750   19.0192 H   0  0  0  0  0  0
  -23.7958  -30.5636   19.3975 H   0  0  0  0  0  0
  -22.7785  -29.2295   19.8509 H   0  0  0  0  0  0
  -25.1306  -36.1882   25.0814 H   0  0  0  0  0  0
  -20.9997  -28.3299   24.1376 H   0  0  0  0  0  0
  -20.5686  -26.2332   23.3617 H   0  0  0  0  0  0
  -21.6651  -26.7447   22.1199 H   0  0  0  0  0  0
  -19.6921  -25.6291   21.1254 H   0  0  0  0  0  0
  -19.6688  -27.3184   20.6735 H   0  0  0  0  0  0
  -17.4208  -26.6671   21.4037 H   0  0  0  0  0  0
  -18.0348  -26.0076   22.9035 H   0  0  0  0  0  0
  -19.7946  -30.7280   24.2259 H   0  0  0  0  0  0
  -17.5025  -31.6274   24.5158 H   0  0  0  0  0  0
  -15.5362  -30.2988   23.7658 H   0  0  0  0  0  0
  -15.8684  -28.0813   22.7088 H   0  0  0  0  0  0
  -24.5849  -30.7155   25.7734 H   0  0  0  0  0  0
  -24.8955  -32.2938   26.4869 H   0  0  0  0  0  0
  -25.7998  -30.8882   27.0197 H   0  0  0  0  0  0
  -26.2956  -29.6711   24.1264 H   0  0  0  0  0  0
  -27.3984  -29.7255   25.4807 H   0  0  0  0  0  0
  -27.8858  -30.4217   23.9547 H   0  0  0  0  0  0
  -27.2655  -33.3621   26.2058 H   0  0  0  0  0  0
  -28.3870  -32.6880   25.0327 H   0  0  0  0  0  0
  -28.0720  -31.8457   26.5419 H   0  0  0  0  0  0
  -28.2580  -38.0105   24.7522 H   0  0  0  0  0  0
  -28.1095  -36.2635   24.6260 H   0  0  0  0  0  0
  -27.2302  -37.1407   25.8863 H   0  0  0  0  0  0
  -20.9438  -29.8758   21.6808 H   0  0  0  0  0  0
  -26.0157  -38.2828   24.1416 H   0  0  0  0  0  0
  -27.7286  -24.9370   21.5803 H   0  0  0  0  0  0
  -28.7667  -15.7434   20.2897 H   0  0  0  0  0  0
  -29.1860  -21.3153   19.1600 H   0  0  0  0  0  0
  -29.2443  -24.6629   18.5752 H   0  0  0  0  0  0
  1 25  1  0  0  0
  1 30  2  0  0  0
  1 79  1  0  0  0
  2  3  1  0  0  0
  2 25  1  0  0  0
  2 87  1  0  0  0
  2 88  1  0  0  0
  3  4  1  0  0  0
  3 89  1  0  0  0
  3 90  1  0  0  0
  4  5  1  0  0  0
  4 91  1  0  0  0
  4 92  1  0  0  0
  5  6  1  0  0  0
  5 26  1  0  0  0
  5 93  1  0  0  0
  6 25  1  0  0  0
  6 94  1  0  0  0
  6 95  1  0  0  0
  7  8  2  0  0  0
  7 26  1  0  0  0
  7 29  1  0  0  0
  8  9  1  0  0  0
  8 22  1  0  0  0
  9 10  1  0  0  0
  9 27  2  0  0  0
 10 11  2  0  0  0
 10 15  1  0  0  0
 11 12  1  0  0  0
 11 96  1  0  0  0
 12 13  2  0  0  0
 12 97  1  0  0  0
 13 14  1  0  0  0
 13 31  1  0  0  0
 14 15  2  0  0  0
 14 98  1  0  0  0
 15 99  1  0  0  0
 16 17  2  0  0  0
 16 21  1  0  0  0
 16 31  1  0  0  0
 17 18  1  0  0  0
 17100  1  0  0  0
 18 19  2  0  0  0
 18101  1  0  0  0
 19 20  1  0  0  0
 19 24  1  0  0  0
 20 21  2  0  0  0
 20102  1  0  0  0
 21 23  1  0  0  0
 22 28  1  0  0  0
 22 32  2  0  0  0
 26 27  1  0  0  0
 28103  1  0  0  0
 28104  1  0  0  0
 29105  1  0  0  0
 29106  1  0  0  0
 33 34  1  0  0  0
 33 66  1  0  0  0
 33 70  2  0  0  0
 34 36  1  0  0  0
 34 59  1  0  0  0
 34107  1  0  0  0
 35 44  2  0  0  0
 35 45  1  0  0  0
 35 68  1  0  0  0
 36 56  1  0  0  0
 36108  1  0  0  0
 37 39  1  0  0  0
 37 47  1  0  0  0
 37 66  1  0  0  0
 37109  1  0  0  0
 38 43  2  0  0  0
 38 46  1  0  0  0
 38 47  1  0  0  0
 39 64  1  0  0  0
 39 67  2  0  0  0
 40 52  1  0  0  0
 40 53  2  0  0  0
 40 58  1  0  0  0
 41110  1  0  0  0
 41111  1  0  0  0
 41112  1  0  0  0
 41 48  1  0  0  0
 42 43  1  0  0  0
 42 66  1  0  0  0
 42113  1  0  0  0
 42114  1  0  0  0
 43 44  1  0  0  0
 44115  1  0  0  0
 45 46  2  0  0  0
 45116  1  0  0  0
 46117  1  0  0  0
 47118  1  0  0  0
 47119  1  0  0  0
 48 56  1  0  0  0
 48 65  1  0  0  0
 48120  1  0  0  0
 49 50  1  0  0  0
 49 53  1  0  0  0
 49 64  1  0  0  0
 49121  1  0  0  0
 50 51  1  0  0  0
 50122  1  0  0  0
 50123  1  0  0  0
 51 52  1  0  0  0
 51124  1  0  0  0
 51125  1  0  0  0
 52126  1  0  0  0
 52127  1  0  0  0
 53 54  1  0  0  0
 54 55  2  0  0  0
 54128  1  0  0  0
 55 57  1  0  0  0
 55129  1  0  0  0
 56 69  2  0  0  0
 57 58  2  0  0  0
 57130  1  0  0  0
 58131  1  0  0  0
 59 60  1  0  0  0
 59 61  1  0  0  0
 59 62  1  0  0  0
 60132  1  0  0  0
 60133  1  0  0  0
 60134  1  0  0  0
 61135  1  0  0  0
 61136  1  0  0  0
 61137  1  0  0  0
 62138  1  0  0  0
 62139  1  0  0  0
 62140  1  0  0  0
 63 65  1  0  0  0
 63141  1  0  0  0
 63142  1  0  0  0
 63143  1  0  0  0
 64144  1  0  0  0
 65145  1  0  0  0
 68 74  1  0  0  0
 71 72  2  0  0  0
 71 77  1  0  0  0
 71 86  1  0  0  0
 72 78  1  0  0  0
 72 79  1  0  0  0
 73 78  2  0  0  0
 73 80  1  0  0  0
 73 86  1  0  0  0
 74 75  2  0  0  0
 74146  1  0  0  0
 75 76  1  0  0  0
 75 82  1  0  0  0
 76 80  1  0  0  0
 76 81  2  0  0  0
 77 83  1  0  0  0
 77 84  1  0  0  0
 77 85  1  0  0  0
 79147  1  0  0  0
 80148  1  0  0  0
 82149  1  0  0  0
M  ISO  4   1 100  68 101  74 101  79 100
M  END
> <chiral flag>
0

> <version>
0

> <s_m_source_file>
/data/baiqing/PycharmProjects/Reinvent-master-3.2/result/LINK_invent/BTK/process_docking_weight1_custom_product_contain_oxygen_bond_distance_aromatic_linkinvent_7_9_3/rearranged_h_0182.sdf

> <i_m_source_file_index>
91

> <r_mmod_Potential_Energy-OPLS-2005>
173.625305175781

> <r_mmod_Stretch_Energy-OPLS-2005>
158.801239013672

> <r_mmod_Bend_Energy-OPLS-2005>
184.077377319336

> <r_mmod_Torsional_Energy-OPLS-2005>
248.177581787109

> <r_mmod_Improper_Torsional_Energy-OPLS-2005>
9.57019233703613

> <r_mmod_Van_der_Waal_Energy-OPLS-2005>
109.951950073242

> <r_mmod_Electrostatic_Energy-OPLS-2005>
-452.666778564453

> <r_mmod_Solvation_Energy-OPLS-2005>
-216.228469848633

> <b_mmod_Minimization_Converged-OPLS-2005>
0

> <r_mmod_RMS_Derivative-OPLS-2005>
0.88128924369812

$$$$
91
                    3D
 Structure written by MMmdl.
153161  0  0  1  0            999 V2000
  -30.6714  -14.5088   20.5560 C   0  0  0  0  0  0
  -30.4307  -12.3250   19.4213 C   0  0  0  0  0  0
  -29.4958  -12.5034   18.2052 C   0  0  0  0  0  0
  -28.0168  -12.3574   18.6198 C   0  0  0  0  0  0
  -27.6582  -13.2030   19.8708 C   0  0  2  0  0  0
  -28.7033  -12.9967   20.9917 C   0  0  0  0  0  0
  -25.2580  -13.8143   20.5659 C   0  0  0  0  0  0
  -24.1836  -13.0424   20.9160 C   0  0  0  0  0  0
  -24.6384  -11.6887   20.8723 C   0  0  0  0  0  0
  -23.9048  -10.4278   21.0401 C   0  0  0  0  0  0
  -24.3599   -9.4195   21.9180 C   0  0  0  0  0  0
  -23.6273   -8.2236   22.0757 C   0  0  0  0  0  0
  -22.4261   -8.0265   21.3542 C   0  0  0  0  0  0
  -21.9890   -9.0239   20.4650 C   0  0  0  0  0  0
  -22.7218  -10.2119   20.3057 C   0  0  0  0  0  0
  -21.6853   -6.0713   22.5266 C   0  0  0  0  0  0
  -21.4018   -6.5625   23.8195 C   0  0  0  0  0  0
  -21.3663   -5.6784   24.9161 C   0  0  0  0  0  0
  -21.6044   -4.3045   24.7220 C   0  0  0  0  0  0
  -21.8823   -3.8130   23.4345 C   0  0  0  0  0  0
  -21.9193   -4.6940   22.3396 C   0  0  0  0  0  0
  -22.7862  -13.5225   21.1811 C   0  0  0  0  0  0
  -22.1660   -4.2123   21.0975 F   0  0  0  0  0  0
  -21.5628   -3.4537   25.7741 F   0  0  0  0  0  0
  -30.0285  -13.3139   20.4329 N   0  0  0  0  0  0
  -26.3008  -12.9303   20.3346 N   0  0  0  0  0  0
  -25.9313  -11.6466   20.5765 N   0  0  0  0  0  0
  -22.0523  -12.8233   22.0385 N   0  0  0  0  0  0
  -25.4304  -15.1864   20.4049 N   0  0  0  0  0  0
  -31.8240  -14.6852   20.1463 O   0  0  0  0  0  0
  -21.6636   -6.8856   21.4229 O   0  0  0  0  0  0
  -22.3555  -14.5530   20.6649 O   0  0  0  0  0  0
  -24.6153  -31.8672   23.2084 C   0  0  0  0  0  0
  -25.9040  -32.4827   23.8391 C   0  0  1  0  0  0
  -27.2361  -27.4220   20.1099 C   0  0  0  0  0  0
  -25.5889  -33.8622   24.2321 N   0  0  0  0  0  0
  -23.4075  -30.4875   21.5498 C   0  0  2  0  0  0
  -24.8563  -28.9508   20.1165 C   0  0  0  0  0  0
  -22.7434  -29.4639   22.4993 C   0  0  0  0  0  0
  -18.0273  -28.1373   22.8476 C   0  0  0  0  0  0
  -24.1496  -36.7315   23.2641 C   0  0  0  0  0  0
  -25.9355  -30.8307   21.3639 C   0  0  0  0  0  0
  -26.0171  -29.4634   20.7121 C   0  0  0  0  0  0
  -27.2134  -28.7059   20.7040 C   0  0  0  0  0  0
  -26.0620  -26.9258   19.5078 C   0  0  0  0  0  0
  -24.8732  -27.6820   19.5102 C   0  0  0  0  0  0
  -23.6189  -29.8195   20.1648 C   0  0  0  0  0  0
  -25.4120  -36.3115   24.0333 C   0  0  1  0  0  0
  -20.5862  -28.3665   23.1314 C   0  0  2  0  0  0
  -20.6771  -26.9400   22.5420 C   0  0  0  0  0  0
  -19.5754  -26.6382   21.5207 C   0  0  0  0  0  0
  -18.1929  -26.7921   22.1615 C   0  0  0  0  0  0
  -19.1521  -28.8837   23.2888 C   0  0  0  0  0  0
  -18.9455  -30.1440   23.8908 C   0  0  0  0  0  0
  -17.6458  -30.6583   24.0556 C   0  0  0  0  0  0
  -25.9036  -34.9473   23.5128 C   0  0  0  0  0  0
  -16.5345  -29.9081   23.6316 C   0  0  0  0  0  0
  -16.7265  -28.6495   23.0338 C   0  0  0  0  0  0
  -26.4464  -31.6613   25.0721 C   0  0  0  0  0  0
  -25.3716  -31.3719   26.1464 C   0  0  0  0  0  0
  -27.0307  -30.3064   24.6090 C   0  0  0  0  0  0
  -27.6050  -32.4333   25.7475 C   0  0  0  0  0  0
  -27.5591  -37.1819   24.8461 C   0  0  0  0  0  0
  -21.4156  -29.3031   22.3733 N   0  0  0  0  0  0
  -26.4309  -37.3795   23.9399 N   0  0  0  0  0  0
  -24.6709  -31.0760   22.0999 N   0  0  0  0  0  0
  -23.4187  -28.8185   23.3056 O   0  0  0  0  0  0
  -28.3767  -26.6460   20.1058 O   0  0  0  0  0  0
  -26.5600  -34.8919   22.4690 O   0  0  0  0  0  0
  -23.5338  -32.1425   23.7465 O   0  0  0  0  0  0
  -31.3021  -18.7701   21.8192 C   0  0  0  0  0  0
  -30.1548  -19.4110   21.3648 C   0  0  0  0  0  0
  -30.1674  -16.9146   21.0984 C   0  0  0  0  0  0
  -29.0121  -21.5477   20.8126 C   0  0  0  0  0  0
  -28.7645  -24.1550   20.3448 C   0  0  0  0  0  0
  -28.3310  -25.5045   20.9883 C   0  0  0  0  0  0
  -28.8359  -22.9855   21.3758 C   0  0  2  0  0  0
  -32.5154  -19.3813   22.4921 C   0  0  0  0  0  0
  -31.2935  -17.3707   21.6443 N   0  0  0  0  0  0
  -29.8834  -20.7536   21.4717 N   0  0  0  0  0  0
  -29.8755  -15.5252   20.9539 N   0  0  0  0  0  0
  -28.3774  -21.1818   19.8200 O   0  0  0  0  0  0
  -29.8130  -23.2372   22.2551 F   0  0  0  0  0  0
  -32.4335  -20.7104   22.5863 F   0  0  0  0  0  0
  -32.6623  -18.9102   23.7315 F   0  0  0  0  0  0
  -33.6335  -19.0959   21.8227 F   0  0  0  0  0  0
  -29.0224  -18.2094   20.7332 S   0  0  0  0  0  0
  -31.4734  -12.4387   19.1175 H   0  0  0  0  0  0
  -30.3454  -11.3172   19.8305 H   0  0  0  0  0  0
  -29.7408  -11.7751   17.4312 H   0  0  0  0  0  0
  -29.6539  -13.4876   17.7610 H   0  0  0  0  0  0
  -27.8315  -11.3020   18.8241 H   0  0  0  0  0  0
  -27.3655  -12.6230   17.7869 H   0  0  0  0  0  0
  -27.6942  -14.2471   19.5609 H   0  0  0  0  0  0
  -28.6903  -11.9631   21.3396 H   0  0  0  0  0  0
  -28.4655  -13.5997   21.8694 H   0  0  0  0  0  0
  -25.2755   -9.5666   22.4741 H   0  0  0  0  0  0
  -23.9970   -7.4640   22.7500 H   0  0  0  0  0  0
  -21.0808   -8.8765   19.8976 H   0  0  0  0  0  0
  -22.3677  -10.9649   19.6160 H   0  0  0  0  0  0
  -21.2021   -7.6137   23.9683 H   0  0  0  0  0  0
  -21.1483   -6.0522   25.9058 H   0  0  0  0  0  0
  -22.0604   -2.7590   23.2858 H   0  0  0  0  0  0
  -22.4143  -11.9884   22.4750 H   0  0  0  0  0  0
  -21.1160  -13.1278   22.2629 H   0  0  0  0  0  0
  -24.6576  -15.8355   20.5048 H   0  0  0  0  0  0
  -26.2642  -15.6228   20.0337 H   0  0  0  0  0  0
  -26.7123  -32.5551   23.1167 H   0  0  0  0  0  0
  -25.0034  -33.9774   25.0463 H   0  0  0  0  0  0
  -22.6971  -31.3040   21.4081 H   0  0  0  0  0  0
  -23.3749  -35.9661   23.3315 H   0  0  0  0  0  0
  -24.3590  -36.8920   22.2052 H   0  0  0  0  0  0
  -23.7244  -37.6518   23.6651 H   0  0  0  0  0  0
  -26.0436  -31.5988   20.5965 H   0  0  0  0  0  0
  -26.8240  -30.8868   21.9825 H   0  0  0  0  0  0
  -28.1103  -29.0927   21.1687 H   0  0  0  0  0  0
  -26.0711  -25.9503   19.0422 H   0  0  0  0  0  0
  -23.9819  -27.2804   19.0468 H   0  0  0  0  0  0
  -23.7304  -30.5943   19.4055 H   0  0  0  0  0  0
  -22.7450  -29.2383   19.8659 H   0  0  0  0  0  0
  -25.1295  -36.1998   25.0823 H   0  0  0  0  0  0
  -20.9929  -28.3247   24.1441 H   0  0  0  0  0  0
  -20.5688  -26.2264   23.3608 H   0  0  0  0  0  0
  -21.6640  -26.7464   22.1201 H   0  0  0  0  0  0
  -19.6915  -25.6290   21.1238 H   0  0  0  0  0  0
  -19.6706  -27.3194   20.6735 H   0  0  0  0  0  0
  -17.4194  -26.6665   21.4009 H   0  0  0  0  0  0
  -18.0326  -26.0065   22.9012 H   0  0  0  0  0  0
  -19.7944  -30.7229   24.2305 H   0  0  0  0  0  0
  -17.5023  -31.6271   24.5150 H   0  0  0  0  0  0
  -15.5347  -30.2986   23.7642 H   0  0  0  0  0  0
  -15.8665  -28.0823   22.7045 H   0  0  0  0  0  0
  -24.5880  -30.7084   25.7783 H   0  0  0  0  0  0
  -24.8900  -32.2867   26.4934 H   0  0  0  0  0  0
  -25.8042  -30.8856   27.0215 H   0  0  0  0  0  0
  -26.2847  -29.6826   24.1147 H   0  0  0  0  0  0
  -27.4081  -29.7309   25.4552 H   0  0  0  0  0  0
  -27.8677  -30.4397   23.9232 H   0  0  0  0  0  0
  -27.2679  -33.3628   26.2080 H   0  0  0  0  0  0
  -28.3829  -32.6916   25.0272 H   0  0  0  0  0  0
  -28.0745  -31.8434   26.5363 H   0  0  0  0  0  0
  -28.2611  -38.0122   24.7504 H   0  0  0  0  0  0
  -28.1087  -36.2643   24.6290 H   0  0  0  0  0  0
  -27.2292  -37.1449   25.8862 H   0  0  0  0  0  0
  -20.9328  -29.8751   21.6941 H   0  0  0  0  0  0
  -26.0207  -38.2873   24.1412 H   0  0  0  0  0  0
  -29.7404  -24.2760   19.8742 H   0  0  0  0  0  0
  -28.0691  -23.9026   19.5437 H   0  0  0  0  0  0
  -28.9951  -25.7307   21.8230 H   0  0  0  0  0  0
  -27.3414  -25.3801   21.4345 H   0  0  0  0  0  0
  -27.9149  -22.9692   21.9601 H   0  0  0  0  0  0
  -30.4114  -21.2657   22.1694 H   0  0  0  0  0  0
  -28.9086  -15.2740   21.0794 H   0  0  0  0  0  0
  1 25  1  0  0  0
  1 30  2  0  0  0
  1 81  1  0  0  0
  2  3  1  0  0  0
  2 25  1  0  0  0
  2 88  1  0  0  0
  2 89  1  0  0  0
  3  4  1  0  0  0
  3 90  1  0  0  0
  3 91  1  0  0  0
  4  5  1  0  0  0
  4 92  1  0  0  0
  4 93  1  0  0  0
  5  6  1  0  0  0
  5 26  1  0  0  0
  5 94  1  0  0  0
  6 25  1  0  0  0
  6 95  1  0  0  0
  6 96  1  0  0  0
  7  8  2  0  0  0
  7 26  1  0  0  0
  7 29  1  0  0  0
  8  9  1  0  0  0
  8 22  1  0  0  0
  9 10  1  0  0  0
  9 27  2  0  0  0
 10 11  2  0  0  0
 10 15  1  0  0  0
 11 12  1  0  0  0
 11 97  1  0  0  0
 12 13  2  0  0  0
 12 98  1  0  0  0
 13 14  1  0  0  0
 13 31  1  0  0  0
 14 15  2  0  0  0
 14 99  1  0  0  0
 15100  1  0  0  0
 16 17  2  0  0  0
 16 21  1  0  0  0
 16 31  1  0  0  0
 17 18  1  0  0  0
 17101  1  0  0  0
 18 19  2  0  0  0
 18102  1  0  0  0
 19 20  1  0  0  0
 19 24  1  0  0  0
 20 21  2  0  0  0
 20103  1  0  0  0
 21 23  1  0  0  0
 22 28  1  0  0  0
 22 32  2  0  0  0
 26 27  1  0  0  0
 28104  1  0  0  0
 28105  1  0  0  0
 29106  1  0  0  0
 29107  1  0  0  0
 33 34  1  0  0  0
 33 66  1  0  0  0
 33 70  2  0  0  0
 34 36  1  0  0  0
 34 59  1  0  0  0
 34108  1  0  0  0
 35 44  2  0  0  0
 35 45  1  0  0  0
 35 68  1  0  0  0
 36 56  1  0  0  0
 36109  1  0  0  0
 37 39  1  0  0  0
 37 47  1  0  0  0
 37 66  1  0  0  0
 37110  1  0  0  0
 38 43  2  0  0  0
 38 46  1  0  0  0
 38 47  1  0  0  0
 39 64  1  0  0  0
 39 67  2  0  0  0
 40 52  1  0  0  0
 40 53  2  0  0  0
 40 58  1  0  0  0
 41111  1  0  0  0
 41112  1  0  0  0
 41113  1  0  0  0
 41 48  1  0  0  0
 42 43  1  0  0  0
 42 66  1  0  0  0
 42114  1  0  0  0
 42115  1  0  0  0
 43 44  1  0  0  0
 44116  1  0  0  0
 45 46  2  0  0  0
 45117  1  0  0  0
 46118  1  0  0  0
 47119  1  0  0  0
 47120  1  0  0  0
 48 56  1  0  0  0
 48 65  1  0  0  0
 48121  1  0  0  0
 49 50  1  0  0  0
 49 53  1  0  0  0
 49 64  1  0  0  0
 49122  1  0  0  0
 50 51  1  0  0  0
 50123  1  0  0  0
 50124  1  0  0  0
 51 52  1  0  0  0
 51125  1  0  0  0
 51126  1  0  0  0
 52127  1  0  0  0
 52128  1  0  0  0
 53 54  1  0  0  0
 54 55  2  0  0  0
 54129  1  0  0  0
 55 57  1  0  0  0
 55130  1  0  0  0
 56 69  2  0  0  0
 57 58  2  0  0  0
 57131  1  0  0  0
 58132  1  0  0  0
 59 60  1  0  0  0
 59 61  1  0  0  0
 59 62  1  0  0  0
 60133  1  0  0  0
 60134  1  0  0  0
 60135  1  0  0  0
 61136  1  0  0  0
 61137  1  0  0  0
 61138  1  0  0  0
 62139  1  0  0  0
 62140  1  0  0  0
 62141  1  0  0  0
 63 65  1  0  0  0
 63142  1  0  0  0
 63143  1  0  0  0
 63144  1  0  0  0
 64145  1  0  0  0
 65146  1  0  0  0
 68 76  1  0  0  0
 71 72  2  0  0  0
 71 78  1  0  0  0
 71 79  1  0  0  0
 72 80  1  0  0  0
 72 87  1  0  0  0
 73 79  2  0  0  0
 73 81  1  0  0  0
 73 87  1  0  0  0
 74 77  1  0  0  0
 74 80  1  0  0  0
 74 82  2  0  0  0
 75 76  1  0  0  0
 75 77  1  0  0  0
 75147  1  0  0  0
 75148  1  0  0  0
 76149  1  0  0  0
 76150  1  0  0  0
 77 83  1  0  0  0
 77151  1  0  0  0
 78 84  1  0  0  0
 78 85  1  0  0  0
 78 86  1  0  0  0
 80152  1  0  0  0
 81153  1  0  0  0
M  ISO  4   1 100  68 101  76 101  81 100
M  END
> <chiral flag>
0

> <version>
0

> <s_m_source_file>
/data/baiqing/PycharmProjects/Reinvent-master-3.2/result/LINK_invent/BTK/process_docking_weight1_custom_product_contain_oxygen_bond_distance_aromatic_linkinvent_7_9_3/rearranged_h_0182.sdf

> <i_m_source_file_index>
92

> <r_mmod_Potential_Energy-OPLS-2005>
-30.3188457489014

> <r_mmod_Stretch_Energy-OPLS-2005>
40.9886856079102

> <r_mmod_Bend_Energy-OPLS-2005>
109.151000976562

> <r_mmod_Torsional_Energy-OPLS-2005>
241.02424621582

> <r_mmod_Improper_Torsional_Energy-OPLS-2005>
5.64554023742676

> <r_mmod_Van_der_Waal_Energy-OPLS-2005>
129.84033203125

> <r_mmod_Electrostatic_Energy-OPLS-2005>
-342.400695800781

> <r_mmod_Solvation_Energy-OPLS-2005>
-231.404373168945

> <b_mmod_Minimization_Converged-OPLS-2005>
0

> <r_mmod_RMS_Derivative-OPLS-2005>
1.6429557800293

$$$$
92
                    3D
 Structure written by MMmdl.
155163  0  0  1  0            999 V2000
  -30.6052  -14.8117   20.4165 C   0  0  0  0  0  0
  -30.4243  -12.4959   19.4673 C   0  0  0  0  0  0
  -29.5009  -12.4725   18.2310 C   0  0  0  0  0  0
  -28.0279  -12.3092   18.6530 C   0  0  0  0  0  0
  -27.6258  -13.2345   19.8326 C   0  0  2  0  0  0
  -28.6758  -13.2355   20.9610 C   0  0  0  0  0  0
  -25.2460  -13.8158   20.5739 C   0  0  0  0  0  0
  -24.1759  -13.0410   20.9234 C   0  0  0  0  0  0
  -24.6358  -11.6898   20.8767 C   0  0  0  0  0  0
  -23.9038  -10.4280   21.0400 C   0  0  0  0  0  0
  -24.3597   -9.4210   21.9179 C   0  0  0  0  0  0
  -23.6285   -8.2241   22.0741 C   0  0  0  0  0  0
  -22.4266   -8.0267   21.3526 C   0  0  0  0  0  0
  -21.9889   -9.0233   20.4627 C   0  0  0  0  0  0
  -22.7206  -10.2122   20.3050 C   0  0  0  0  0  0
  -21.6867   -6.0719   22.5282 C   0  0  0  0  0  0
  -21.4012   -6.5625   23.8217 C   0  0  0  0  0  0
  -21.3659   -5.6779   24.9176 C   0  0  0  0  0  0
  -21.6057   -4.3045   24.7226 C   0  0  0  0  0  0
  -21.8829   -3.8131   23.4346 C   0  0  0  0  0  0
  -21.9200   -4.6950   22.3405 C   0  0  0  0  0  0
  -22.7784  -13.5212   21.1883 C   0  0  0  0  0  0
  -22.1643   -4.2129   21.0976 F   0  0  0  0  0  0
  -21.5655   -3.4530   25.7735 F   0  0  0  0  0  0
  -29.9543  -13.5950   20.3413 N   0  0  0  0  0  0
  -26.2866  -12.9387   20.3258 N   0  0  0  0  0  0
  -25.9291  -11.6527   20.5772 N   0  0  0  0  0  0
  -22.0391  -12.8241   22.0438 N   0  0  0  0  0  0
  -25.4150  -15.1880   20.4208 N   0  0  0  0  0  0
  -31.8359  -14.8122   20.3087 O   0  0  0  0  0  0
  -21.6643   -6.8858   21.4236 O   0  0  0  0  0  0
  -22.3507  -14.5508   20.6691 O   0  0  0  0  0  0
  -24.6348  -31.8504   23.1934 C   0  0  0  0  0  0
  -25.9160  -32.4713   23.8289 C   0  0  1  0  0  0
  -27.2091  -27.2199   20.1468 C   0  0  0  0  0  0
  -25.5951  -33.8515   24.2212 N   0  0  0  0  0  0
  -23.4326  -30.4723   21.5372 C   0  0  2  0  0  0
  -24.8800  -28.9076   20.1142 C   0  0  0  0  0  0
  -22.7518  -29.4578   22.4882 C   0  0  0  0  0  0
  -18.0296  -28.1389   22.8479 C   0  0  0  0  0  0
  -24.1502  -36.7263   23.2641 C   0  0  0  0  0  0
  -25.9818  -30.7501   21.3801 C   0  0  0  0  0  0
  -26.0537  -29.3680   20.7258 C   0  0  0  0  0  0
  -27.2263  -28.5384   20.7258 C   0  0  0  0  0  0
  -26.0141  -26.8308   19.5108 C   0  0  0  0  0  0
  -24.8667  -27.6489   19.4933 C   0  0  0  0  0  0
  -23.6541  -29.8018   20.1554 C   0  0  0  0  0  0
  -25.4131  -36.3032   24.0314 C   0  0  1  0  0  0
  -20.5902  -28.3701   23.1254 C   0  0  2  0  0  0
  -20.6780  -26.9412   22.5404 C   0  0  0  0  0  0
  -19.5759  -26.6376   21.5207 C   0  0  0  0  0  0
  -18.1938  -26.7929   22.1615 C   0  0  0  0  0  0
  -19.1552  -28.8862   23.2861 C   0  0  0  0  0  0
  -18.9469  -30.1461   23.8881 C   0  0  0  0  0  0
  -17.6466  -30.6589   24.0553 C   0  0  0  0  0  0
  -25.9073  -34.9406   23.5061 C   0  0  0  0  0  0
  -16.5357  -29.9082   23.6333 C   0  0  0  0  0  0
  -16.7280  -28.6501   23.0352 C   0  0  0  0  0  0
  -26.4529  -31.6548   25.0692 C   0  0  0  0  0  0
  -25.3733  -31.3716   26.1398 C   0  0  0  0  0  0
  -27.0383  -30.2949   24.6219 C   0  0  0  0  0  0
  -27.6075  -32.4293   25.7475 C   0  0  0  0  0  0
  -27.5576  -37.1792   24.8468 C   0  0  0  0  0  0
  -21.4221  -29.3045   22.3641 N   0  0  0  0  0  0
  -26.4297  -37.3735   23.9389 N   0  0  0  0  0  0
  -24.7018  -31.0442   22.0928 N   0  0  0  0  0  0
  -23.4208  -28.8109   23.2985 O   0  0  0  0  0  0
  -28.2806  -26.2906   20.1415 O   0  0  0  0  0  0
  -26.5649  -34.8896   22.4640 O   0  0  0  0  0  0
  -23.5491  -32.1343   23.7217 O   0  0  0  0  0  0
  -29.1155  -18.5257   20.2336 C   0  0  0  0  0  0
  -28.0992  -18.6728   19.2912 C   0  0  0  0  0  0
  -28.7472  -20.9411   20.1983 C   0  0  0  0  0  0
  -29.7112  -17.1343   20.7927 C   0  0  0  0  0  0
  -28.4324  -23.5597   20.0086 C   0  0  0  0  0  0
  -27.2960  -17.6321   18.5727 C   0  0  0  0  0  0
  -28.8738  -25.0239   22.1321 C   0  0  0  0  0  0
  -30.0123  -16.1433   18.5491 C   0  0  0  0  0  0
  -28.0968  -24.9377   20.8109 C   0  0  1  0  0  0
  -29.3935  -19.8612   20.7725 N   0  0  0  0  0  0
  -28.7629  -22.3621   20.6591 N   0  0  0  0  0  0
  -29.9144  -15.9726   20.0147 N   0  0  0  0  0  0
  -29.9970  -17.1086   21.9953 O   0  0  0  0  0  0
  -28.3789  -23.5994   18.7765 O   0  0  0  0  0  0
  -27.6929  -20.3564   18.9265 S   0  0  0  0  0  0
  -31.4596  -12.6334   19.1511 H   0  0  0  0  0  0
  -30.3877  -11.5410   19.9945 H   0  0  0  0  0  0
  -29.7831  -11.6567   17.5642 H   0  0  0  0  0  0
  -29.6249  -13.3887   17.6545 H   0  0  0  0  0  0
  -27.8893  -11.2652   18.9390 H   0  0  0  0  0  0
  -27.3692  -12.4751   17.7995 H   0  0  0  0  0  0
  -27.5959  -14.2404   19.4171 H   0  0  0  0  0  0
  -28.7334  -12.2611   21.4493 H   0  0  0  0  0  0
  -28.4091  -13.9609   21.7324 H   0  0  0  0  0  0
  -25.2725   -9.5733   22.4772 H   0  0  0  0  0  0
  -23.9997   -7.4641   22.7465 H   0  0  0  0  0  0
  -21.0821   -8.8750   19.8930 H   0  0  0  0  0  0
  -22.3629  -10.9669   19.6187 H   0  0  0  0  0  0
  -21.1975   -7.6117   23.9717 H   0  0  0  0  0  0
  -21.1475   -6.0490   25.9087 H   0  0  0  0  0  0
  -22.0604   -2.7588   23.2852 H   0  0  0  0  0  0
  -22.3946  -11.9892   22.4862 H   0  0  0  0  0  0
  -21.1006  -13.1288   22.2604 H   0  0  0  0  0  0
  -24.6515  -15.8442   20.5441 H   0  0  0  0  0  0
  -26.2763  -15.6276   20.1326 H   0  0  0  0  0  0
  -26.7216  -32.5345   23.1015 H   0  0  0  0  0  0
  -25.0066  -33.9641   25.0335 H   0  0  0  0  0  0
  -22.7307  -31.2954   21.3866 H   0  0  0  0  0  0
  -23.3745  -35.9618   23.3325 H   0  0  0  0  0  0
  -24.3580  -36.8870   22.2051 H   0  0  0  0  0  0
  -23.7293  -37.6482   23.6664 H   0  0  0  0  0  0
  -26.1278  -31.5062   20.6078 H   0  0  0  0  0  0
  -26.8560  -30.7980   22.0175 H   0  0  0  0  0  0
  -28.1270  -28.8850   21.2120 H   0  0  0  0  0  0
  -25.9606  -25.8613   19.0347 H   0  0  0  0  0  0
  -23.9677  -27.2932   19.0085 H   0  0  0  0  0  0
  -23.7854  -30.5742   19.3973 H   0  0  0  0  0  0
  -22.7716  -29.2386   19.8466 H   0  0  0  0  0  0
  -25.1329  -36.1859   25.0807 H   0  0  0  0  0  0
  -21.0001  -28.3280   24.1369 H   0  0  0  0  0  0
  -20.5665  -26.2312   23.3616 H   0  0  0  0  0  0
  -21.6644  -26.7416   22.1199 H   0  0  0  0  0  0
  -19.6913  -25.6282   21.1250 H   0  0  0  0  0  0
  -19.6700  -27.3177   20.6732 H   0  0  0  0  0  0
  -17.4206  -26.6677   21.4017 H   0  0  0  0  0  0
  -18.0334  -26.0073   22.9015 H   0  0  0  0  0  0
  -19.7945  -30.7284   24.2241 H   0  0  0  0  0  0
  -17.5019  -31.6270   24.5152 H   0  0  0  0  0  0
  -15.5358  -30.2978   23.7667 H   0  0  0  0  0  0
  -15.8679  -28.0814   22.7076 H   0  0  0  0  0  0
  -24.5910  -30.7078   25.7702 H   0  0  0  0  0  0
  -24.8939  -32.2899   26.4796 H   0  0  0  0  0  0
  -25.8031  -30.8888   27.0182 H   0  0  0  0  0  0
  -26.2975  -29.6668   24.1259 H   0  0  0  0  0  0
  -27.4056  -29.7245   25.4761 H   0  0  0  0  0  0
  -27.8860  -30.4191   23.9474 H   0  0  0  0  0  0
  -27.2673  -33.3591   26.2044 H   0  0  0  0  0  0
  -28.3901  -32.6849   25.0317 H   0  0  0  0  0  0
  -28.0729  -31.8417   26.5399 H   0  0  0  0  0  0
  -28.2603  -38.0074   24.7465 H   0  0  0  0  0  0
  -28.1060  -36.2599   24.6361 H   0  0  0  0  0  0
  -27.2280  -37.1513   25.8867 H   0  0  0  0  0  0
  -20.9414  -29.8790   21.6858 H   0  0  0  0  0  0
  -26.0166  -38.2805   24.1375 H   0  0  0  0  0  0
  -27.6943  -17.4481   17.5750 H   0  0  0  0  0  0
  -26.2619  -17.9535   18.4485 H   0  0  0  0  0  0
  -27.2746  -16.6908   19.1155 H   0  0  0  0  0  0
  -28.6849  -24.1605   22.7705 H   0  0  0  0  0  0
  -28.5814  -25.9116   22.6948 H   0  0  0  0  0  0
  -29.9467  -25.0878   21.9527 H   0  0  0  0  0  0
  -30.0606  -17.1794   18.2178 H   0  0  0  0  0  0
  -29.1689  -15.6624   18.0559 H   0  0  0  0  0  0
  -30.9112  -15.6885   18.1243 H   0  0  0  0  0  0
  -27.0425  -24.8419   21.0757 H   0  0  0  0  0  0
  -28.9440  -22.4664   21.6466 H   0  0  0  0  0  0
  1 25  1  0  0  0
  1 30  2  0  0  0
  1 82  1  0  0  0
  2  3  1  0  0  0
  2 25  1  0  0  0
  2 86  1  0  0  0
  2 87  1  0  0  0
  3  4  1  0  0  0
  3 88  1  0  0  0
  3 89  1  0  0  0
  4  5  1  0  0  0
  4 90  1  0  0  0
  4 91  1  0  0  0
  5  6  1  0  0  0
  5 26  1  0  0  0
  5 92  1  0  0  0
  6 25  1  0  0  0
  6 93  1  0  0  0
  6 94  1  0  0  0
  7  8  2  0  0  0
  7 26  1  0  0  0
  7 29  1  0  0  0
  8  9  1  0  0  0
  8 22  1  0  0  0
  9 10  1  0  0  0
  9 27  2  0  0  0
 10 11  2  0  0  0
 10 15  1  0  0  0
 11 12  1  0  0  0
 11 95  1  0  0  0
 12 13  2  0  0  0
 12 96  1  0  0  0
 13 14  1  0  0  0
 13 31  1  0  0  0
 14 15  2  0  0  0
 14 97  1  0  0  0
 15 98  1  0  0  0
 16 17  2  0  0  0
 16 21  1  0  0  0
 16 31  1  0  0  0
 17 18  1  0  0  0
 17 99  1  0  0  0
 18 19  2  0  0  0
 18100  1  0  0  0
 19 20  1  0  0  0
 19 24  1  0  0  0
 20 21  2  0  0  0
 20101  1  0  0  0
 21 23  1  0  0  0
 22 28  1  0  0  0
 22 32  2  0  0  0
 26 27  1  0  0  0
 28102  1  0  0  0
 28103  1  0  0  0
 29104  1  0  0  0
 29105  1  0  0  0
 33 34  1  0  0  0
 33 66  1  0  0  0
 33 70  2  0  0  0
 34 36  1  0  0  0
 34 59  1  0  0  0
 34106  1  0  0  0
 35 44  2  0  0  0
 35 45  1  0  0  0
 35 68  1  0  0  0
 36 56  1  0  0  0
 36107  1  0  0  0
 37 39  1  0  0  0
 37 47  1  0  0  0
 37 66  1  0  0  0
 37108  1  0  0  0
 38 43  2  0  0  0
 38 46  1  0  0  0
 38 47  1  0  0  0
 39 64  1  0  0  0
 39 67  2  0  0  0
 40 52  1  0  0  0
 40 53  2  0  0  0
 40 58  1  0  0  0
 41109  1  0  0  0
 41110  1  0  0  0
 41111  1  0  0  0
 41 48  1  0  0  0
 42 43  1  0  0  0
 42 66  1  0  0  0
 42112  1  0  0  0
 42113  1  0  0  0
 43 44  1  0  0  0
 44114  1  0  0  0
 45 46  2  0  0  0
 45115  1  0  0  0
 46116  1  0  0  0
 47117  1  0  0  0
 47118  1  0  0  0
 48 56  1  0  0  0
 48 65  1  0  0  0
 48119  1  0  0  0
 49 50  1  0  0  0
 49 53  1  0  0  0
 49 64  1  0  0  0
 49120  1  0  0  0
 50 51  1  0  0  0
 50121  1  0  0  0
 50122  1  0  0  0
 51 52  1  0  0  0
 51123  1  0  0  0
 51124  1  0  0  0
 52125  1  0  0  0
 52126  1  0  0  0
 53 54  1  0  0  0
 54 55  2  0  0  0
 54127  1  0  0  0
 55 57  1  0  0  0
 55128  1  0  0  0
 56 69  2  0  0  0
 57 58  2  0  0  0
 57129  1  0  0  0
 58130  1  0  0  0
 59 60  1  0  0  0
 59 61  1  0  0  0
 59 62  1  0  0  0
 60131  1  0  0  0
 60132  1  0  0  0
 60133  1  0  0  0
 61134  1  0  0  0
 61135  1  0  0  0
 61136  1  0  0  0
 62137  1  0  0  0
 62138  1  0  0  0
 62139  1  0  0  0
 63 65  1  0  0  0
 63140  1  0  0  0
 63141  1  0  0  0
 63142  1  0  0  0
 64143  1  0  0  0
 65144  1  0  0  0
 68 79  1  0  0  0
 71 72  2  0  0  0
 71 74  1  0  0  0
 71 80  1  0  0  0
 72 76  1  0  0  0
 72 85  1  0  0  0
 73 80  2  0  0  0
 73 81  1  0  0  0
 73 85  1  0  0  0
 74 82  1  0  0  0
 74 83  2  0  0  0
 75 79  1  0  0  0
 75 81  1  0  0  0
 75 84  2  0  0  0
 76145  1  0  0  0
 76146  1  0  0  0
 76147  1  0  0  0
 77148  1  0  0  0
 77149  1  0  0  0
 77150  1  0  0  0
 77 79  1  0  0  0
 78 82  1  0  0  0
 78151  1  0  0  0
 78152  1  0  0  0
 78153  1  0  0  0
 79154  1  0  0  0
 81155  1  0  0  0
M  ISO  4   1 100  68 101  79 101  82 100
M  END
> <chiral flag>
0

> <version>
0

> <s_m_source_file>
/data/baiqing/PycharmProjects/Reinvent-master-3.2/result/LINK_invent/BTK/process_docking_weight1_custom_product_contain_oxygen_bond_distance_aromatic_linkinvent_7_9_3/rearranged_h_0182.sdf

> <i_m_source_file_index>
93

> <r_mmod_Potential_Energy-OPLS-2005>
400.482940673828

> <r_mmod_Stretch_Energy-OPLS-2005>
164.007614135742

> <r_mmod_Bend_Energy-OPLS-2005>
194.173202514648

> <r_mmod_Torsional_Energy-OPLS-2005>
362.832580566406

> <r_mmod_Improper_Torsional_Energy-OPLS-2005>
24.1422920227051

> <r_mmod_Van_der_Waal_Energy-OPLS-2005>
116.762855529785

> <r_mmod_Electrostatic_Energy-OPLS-2005>
-354.832153320312

> <r_mmod_Solvation_Energy-OPLS-2005>
-230.20426940918

> <b_mmod_Minimization_Converged-OPLS-2005>
0

> <r_mmod_RMS_Derivative-OPLS-2005>
2.20345234870911

$$$$
93
                    3D
 Structure written by MMmdl.
154162  0  0  1  0            999 V2000
  -30.6961  -14.4747   20.5730 C   0  0  0  0  0  0
  -30.4229  -12.3048   19.4263 C   0  0  0  0  0  0
  -29.4957  -12.5058   18.2093 C   0  0  0  0  0  0
  -28.0172  -12.3623   18.6227 C   0  0  0  0  0  0
  -27.6625  -13.2042   19.8783 C   0  0  2  0  0  0
  -28.7025  -12.9819   21.0007 C   0  0  0  0  0  0
  -25.2593  -13.8160   20.5674 C   0  0  0  0  0  0
  -24.1839  -13.0440   20.9180 C   0  0  0  0  0  0
  -24.6391  -11.6907   20.8746 C   0  0  0  0  0  0
  -23.9061  -10.4289   21.0411 C   0  0  0  0  0  0
  -24.3614   -9.4205   21.9190 C   0  0  0  0  0  0
  -23.6288   -8.2241   22.0762 C   0  0  0  0  0  0
  -22.4271   -8.0281   21.3549 C   0  0  0  0  0  0
  -21.9907   -9.0258   20.4650 C   0  0  0  0  0  0
  -22.7238  -10.2135   20.3058 C   0  0  0  0  0  0
  -21.6852   -6.0731   22.5284 C   0  0  0  0  0  0
  -21.4008   -6.5634   23.8216 C   0  0  0  0  0  0
  -21.3660   -5.6788   24.9180 C   0  0  0  0  0  0
  -21.6046   -4.3052   24.7231 C   0  0  0  0  0  0
  -21.8816   -3.8143   23.4351 C   0  0  0  0  0  0
  -21.9189   -4.6958   22.3404 C   0  0  0  0  0  0
  -22.7866  -13.5248   21.1850 C   0  0  0  0  0  0
  -22.1659   -4.2143   21.0983 F   0  0  0  0  0  0
  -21.5630   -3.4539   25.7743 F   0  0  0  0  0  0
  -30.0363  -13.2890   20.4512 N   0  0  0  0  0  0
  -26.3026  -12.9320   20.3379 N   0  0  0  0  0  0
  -25.9318  -11.6482   20.5782 N   0  0  0  0  0  0
  -22.0500  -12.8230   22.0399 N   0  0  0  0  0  0
  -25.4347  -15.1869   20.4049 N   0  0  0  0  0  0
  -31.8232  -14.6510   20.0971 O   0  0  0  0  0  0
  -21.6636   -6.8880   21.4246 O   0  0  0  0  0  0
  -22.3564  -14.5565   20.6715 O   0  0  0  0  0  0
  -24.6176  -31.8695   23.2099 C   0  0  0  0  0  0
  -25.9083  -32.4819   23.8395 C   0  0  1  0  0  0
  -27.2287  -27.4164   20.0933 C   0  0  0  0  0  0
  -25.5950  -33.8617   24.2342 N   0  0  0  0  0  0
  -23.4046  -30.4967   21.5516 C   0  0  2  0  0  0
  -24.8481  -28.9645   20.1149 C   0  0  0  0  0  0
  -22.7416  -29.4692   22.4976 C   0  0  0  0  0  0
  -18.0270  -28.1382   22.8495 C   0  0  0  0  0  0
  -24.1497  -36.7300   23.2637 C   0  0  0  0  0  0
  -25.9376  -30.8279   21.3688 C   0  0  0  0  0  0
  -26.0110  -29.4626   20.7147 C   0  0  0  0  0  0
  -27.2020  -28.6966   20.7011 C   0  0  0  0  0  0
  -26.0429  -26.9525   19.4705 C   0  0  0  0  0  0
  -24.8601  -27.7091   19.4903 C   0  0  0  0  0  0
  -23.6130  -29.8342   20.1652 C   0  0  0  0  0  0
  -25.4119  -36.3114   24.0340 C   0  0  1  0  0  0
  -20.5866  -28.3693   23.1293 C   0  0  2  0  0  0
  -20.6764  -26.9431   22.5401 C   0  0  0  0  0  0
  -19.5736  -26.6399   21.5204 C   0  0  0  0  0  0
  -18.1915  -26.7931   22.1621 C   0  0  0  0  0  0
  -19.1521  -28.8848   23.2894 C   0  0  0  0  0  0
  -18.9451  -30.1442   23.8929 C   0  0  0  0  0  0
  -17.6455  -30.6594   24.0565 C   0  0  0  0  0  0
  -25.9052  -34.9477   23.5140 C   0  0  0  0  0  0
  -16.5347  -29.9098   23.6327 C   0  0  0  0  0  0
  -16.7260  -28.6501   23.0369 C   0  0  0  0  0  0
  -26.4489  -31.6581   25.0720 C   0  0  0  0  0  0
  -25.3748  -31.3724   26.1469 C   0  0  0  0  0  0
  -27.0280  -30.3002   24.6109 C   0  0  0  0  0  0
  -27.6097  -32.4263   25.7470 C   0  0  0  0  0  0
  -27.5591  -37.1809   24.8466 C   0  0  0  0  0  0
  -21.4145  -29.3067   22.3704 N   0  0  0  0  0  0
  -26.4302  -37.3798   23.9413 N   0  0  0  0  0  0
  -24.6715  -31.0796   22.1010 N   0  0  0  0  0  0
  -23.4185  -28.8231   23.3021 O   0  0  0  0  0  0
  -28.3961  -26.6631   20.1354 O   0  0  0  0  0  0
  -26.5590  -34.8925   22.4686 O   0  0  0  0  0  0
  -23.5365  -32.1462   23.7483 O   0  0  0  0  0  0
  -31.2094  -18.9011   20.7836 C   0  0  0  0  0  0
  -29.9405  -19.3804   21.1042 C   0  0  0  0  0  0
  -30.1575  -16.8808   21.0853 C   0  0  0  0  0  0
  -32.4070  -19.7045   20.5344 C   0  0  0  0  0  0
  -28.8077  -22.9782   21.0494 C   0  0  0  0  0  0
  -29.6637  -21.7760   20.5371 C   0  0  0  0  0  0
  -28.6196  -25.0347   18.3614 C   0  0  0  0  0  0
  -29.2865  -24.4215   20.7603 C   0  0  0  0  0  0
  -28.3252  -25.2442   19.8577 C   0  0  1  0  0  0
  -31.2964  -17.4929   20.7559 N   0  0  0  0  0  0
  -29.4371  -20.6496   21.2492 N   0  0  0  0  0  0
  -29.9770  -15.4638   21.1448 N   0  0  0  0  0  0
  -33.4865  -19.2794   20.1071 O   0  0  0  0  0  0
  -27.7754  -22.7871   21.7056 O   0  0  0  0  0  0
  -30.4427  -21.8678   19.5833 O   0  0  0  0  0  0
  -28.8747  -18.0245   21.4614 S   0  0  0  0  0  0
  -31.4694  -12.3939   19.1291 H   0  0  0  0  0  0
  -30.3144  -11.2934   19.8212 H   0  0  0  0  0  0
  -29.7354  -11.7813   17.4299 H   0  0  0  0  0  0
  -29.6623  -13.4914   17.7719 H   0  0  0  0  0  0
  -27.8332  -11.3062   18.8234 H   0  0  0  0  0  0
  -27.3633  -12.6281   17.7916 H   0  0  0  0  0  0
  -27.7092  -14.2524   19.5830 H   0  0  0  0  0  0
  -28.6767  -11.9439   21.3359 H   0  0  0  0  0  0
  -28.4590  -13.5732   21.8851 H   0  0  0  0  0  0
  -25.2759   -9.5674   22.4765 H   0  0  0  0  0  0
  -23.9993   -7.4631   22.7486 H   0  0  0  0  0  0
  -21.0836   -8.8778   19.8957 H   0  0  0  0  0  0
  -22.3706  -10.9673   19.6162 H   0  0  0  0  0  0
  -21.1995   -7.6139   23.9721 H   0  0  0  0  0  0
  -21.1488   -6.0516   25.9083 H   0  0  0  0  0  0
  -22.0592   -2.7605   23.2856 H   0  0  0  0  0  0
  -22.4100  -11.9870   22.4752 H   0  0  0  0  0  0
  -21.1126  -13.1259   22.2622 H   0  0  0  0  0  0
  -24.6660  -15.8424   20.4943 H   0  0  0  0  0  0
  -26.2815  -15.6179   20.0560 H   0  0  0  0  0  0
  -26.7157  -32.5522   23.1155 H   0  0  0  0  0  0
  -25.0144  -33.9775   25.0522 H   0  0  0  0  0  0
  -22.6943  -31.3145   21.4138 H   0  0  0  0  0  0
  -23.3775  -35.9613   23.3259 H   0  0  0  0  0  0
  -24.3611  -36.8945   22.2060 H   0  0  0  0  0  0
  -23.7211  -37.6483   23.6656 H   0  0  0  0  0  0
  -26.0589  -31.5932   20.6009 H   0  0  0  0  0  0
  -26.8236  -30.8773   21.9898 H   0  0  0  0  0  0
  -28.0968  -29.0790   21.1731 H   0  0  0  0  0  0
  -25.9968  -26.0061   18.9538 H   0  0  0  0  0  0
  -23.9695  -27.3227   19.0141 H   0  0  0  0  0  0
  -23.7247  -30.6117   19.4085 H   0  0  0  0  0  0
  -22.7354  -29.2585   19.8650 H   0  0  0  0  0  0
  -25.1293  -36.1988   25.0833 H   0  0  0  0  0  0
  -20.9953  -28.3270   24.1413 H   0  0  0  0  0  0
  -20.5669  -26.2320   23.3602 H   0  0  0  0  0  0
  -21.6634  -26.7475   22.1189 H   0  0  0  0  0  0
  -19.6909  -25.6314   21.1225 H   0  0  0  0  0  0
  -19.6659  -27.3216   20.6736 H   0  0  0  0  0  0
  -17.4185  -26.6676   21.4022 H   0  0  0  0  0  0
  -18.0321  -26.0061   22.9010 H   0  0  0  0  0  0
  -19.7927  -30.7232   24.2339 H   0  0  0  0  0  0
  -17.5017  -31.6278   24.5160 H   0  0  0  0  0  0
  -15.5354  -30.3018   23.7632 H   0  0  0  0  0  0
  -15.8649  -28.0824   22.7110 H   0  0  0  0  0  0
  -24.5844  -30.7179   25.7770 H   0  0  0  0  0  0
  -24.9042  -32.2910   26.4985 H   0  0  0  0  0  0
  -25.8063  -30.8782   27.0184 H   0  0  0  0  0  0
  -26.2801  -29.6773   24.1183 H   0  0  0  0  0  0
  -27.4044  -29.7238   25.4572 H   0  0  0  0  0  0
  -27.8656  -30.4274   23.9247 H   0  0  0  0  0  0
  -27.2784  -33.3606   26.2012 H   0  0  0  0  0  0
  -28.3932  -32.6735   25.0295 H   0  0  0  0  0  0
  -28.0716  -31.8379   26.5409 H   0  0  0  0  0  0
  -28.2607  -38.0109   24.7532 H   0  0  0  0  0  0
  -28.1092  -36.2644   24.6272 H   0  0  0  0  0  0
  -27.2313  -37.1444   25.8870 H   0  0  0  0  0  0
  -20.9319  -29.8804   21.6927 H   0  0  0  0  0  0
  -26.0195  -38.2881   24.1393 H   0  0  0  0  0  0
  -32.2962  -20.7582   20.7853 H   0  0  0  0  0  0
  -28.4870  -23.9924   18.0716 H   0  0  0  0  0  0
  -29.6454  -25.3167   18.1220 H   0  0  0  0  0  0
  -27.9653  -25.6363   17.7310 H   0  0  0  0  0  0
  -30.2953  -24.4132   20.3497 H   0  0  0  0  0  0
  -29.3599  -24.9097   21.7315 H   0  0  0  0  0  0
  -27.3280  -24.8701   20.0877 H   0  0  0  0  0  0
  -28.6744  -20.7638   21.9077 H   0  0  0  0  0  0
  -29.0866  -15.1621   21.5080 H   0  0  0  0  0  0
  1 25  1  0  0  0
  1 30  2  0  0  0
  1 82  1  0  0  0
  2  3  1  0  0  0
  2 25  1  0  0  0
  2 87  1  0  0  0
  2 88  1  0  0  0
  3  4  1  0  0  0
  3 89  1  0  0  0
  3 90  1  0  0  0
  4  5  1  0  0  0
  4 91  1  0  0  0
  4 92  1  0  0  0
  5  6  1  0  0  0
  5 26  1  0  0  0
  5 93  1  0  0  0
  6 25  1  0  0  0
  6 94  1  0  0  0
  6 95  1  0  0  0
  7  8  2  0  0  0
  7 26  1  0  0  0
  7 29  1  0  0  0
  8  9  1  0  0  0
  8 22  1  0  0  0
  9 10  1  0  0  0
  9 27  2  0  0  0
 10 11  2  0  0  0
 10 15  1  0  0  0
 11 12  1  0  0  0
 11 96  1  0  0  0
 12 13  2  0  0  0
 12 97  1  0  0  0
 13 14  1  0  0  0
 13 31  1  0  0  0
 14 15  2  0  0  0
 14 98  1  0  0  0
 15 99  1  0  0  0
 16 17  2  0  0  0
 16 21  1  0  0  0
 16 31  1  0  0  0
 17 18  1  0  0  0
 17100  1  0  0  0
 18 19  2  0  0  0
 18101  1  0  0  0
 19 20  1  0  0  0
 19 24  1  0  0  0
 20 21  2  0  0  0
 20102  1  0  0  0
 21 23  1  0  0  0
 22 28  1  0  0  0
 22 32  2  0  0  0
 26 27  1  0  0  0
 28103  1  0  0  0
 28104  1  0  0  0
 29105  1  0  0  0
 29106  1  0  0  0
 33 34  1  0  0  0
 33 66  1  0  0  0
 33 70  2  0  0  0
 34 36  1  0  0  0
 34 59  1  0  0  0
 34107  1  0  0  0
 35 44  2  0  0  0
 35 45  1  0  0  0
 35 68  1  0  0  0
 36 56  1  0  0  0
 36108  1  0  0  0
 37 39  1  0  0  0
 37 47  1  0  0  0
 37 66  1  0  0  0
 37109  1  0  0  0
 38 43  2  0  0  0
 38 46  1  0  0  0
 38 47  1  0  0  0
 39 64  1  0  0  0
 39 67  2  0  0  0
 40 52  1  0  0  0
 40 53  2  0  0  0
 40 58  1  0  0  0
 41110  1  0  0  0
 41111  1  0  0  0
 41112  1  0  0  0
 41 48  1  0  0  0
 42 43  1  0  0  0
 42 66  1  0  0  0
 42113  1  0  0  0
 42114  1  0  0  0
 43 44  1  0  0  0
 44115  1  0  0  0
 45 46  2  0  0  0
 45116  1  0  0  0
 46117  1  0  0  0
 47118  1  0  0  0
 47119  1  0  0  0
 48 56  1  0  0  0
 48 65  1  0  0  0
 48120  1  0  0  0
 49 50  1  0  0  0
 49 53  1  0  0  0
 49 64  1  0  0  0
 49121  1  0  0  0
 50 51  1  0  0  0
 50122  1  0  0  0
 50123  1  0  0  0
 51 52  1  0  0  0
 51124  1  0  0  0
 51125  1  0  0  0
 52126  1  0  0  0
 52127  1  0  0  0
 53 54  1  0  0  0
 54 55  2  0  0  0
 54128  1  0  0  0
 55 57  1  0  0  0
 55129  1  0  0  0
 56 69  2  0  0  0
 57 58  2  0  0  0
 57130  1  0  0  0
 58131  1  0  0  0
 59 60  1  0  0  0
 59 61  1  0  0  0
 59 62  1  0  0  0
 60132  1  0  0  0
 60133  1  0  0  0
 60134  1  0  0  0
 61135  1  0  0  0
 61136  1  0  0  0
 61137  1  0  0  0
 62138  1  0  0  0
 62139  1  0  0  0
 62140  1  0  0  0
 63 65  1  0  0  0
 63141  1  0  0  0
 63142  1  0  0  0
 63143  1  0  0  0
 64144  1  0  0  0
 65145  1  0  0  0
 68 79  1  0  0  0
 71 72  2  0  0  0
 71 74  1  0  0  0
 71 80  1  0  0  0
 72 81  1  0  0  0
 72 86  1  0  0  0
 73 80  2  0  0  0
 73 82  1  0  0  0
 73 86  1  0  0  0
 74 83  2  0  0  0
 74146  1  0  0  0
 75 76  1  0  0  0
 75 78  1  0  0  0
 75 84  2  0  0  0
 76 81  1  0  0  0
 76 85  2  0  0  0
 77147  1  0  0  0
 77148  1  0  0  0
 77149  1  0  0  0
 77 79  1  0  0  0
 78 79  1  0  0  0
 78150  1  0  0  0
 78151  1  0  0  0
 79152  1  0  0  0
 81153  1  0  0  0
 82154  1  0  0  0
M  ISO  4   1 100  68 101  79 101  82 100
M  END
> <chiral flag>
0

> <version>
0

> <s_m_source_file>
/data/baiqing/PycharmProjects/Reinvent-master-3.2/result/LINK_invent/BTK/process_docking_weight1_custom_product_contain_oxygen_bond_distance_aromatic_linkinvent_7_9_3/rearranged_h_0182.sdf

> <i_m_source_file_index>
94

> <r_mmod_Potential_Energy-OPLS-2005>
-51.0696830749512

> <r_mmod_Stretch_Energy-OPLS-2005>
43.021125793457

> <r_mmod_Bend_Energy-OPLS-2005>
119.369834899902

> <r_mmod_Torsional_Energy-OPLS-2005>
215.624252319336

> <r_mmod_Improper_Torsional_Energy-OPLS-2005>
3.90720510482788

> <r_mmod_Van_der_Waal_Energy-OPLS-2005>
140.529388427734

> <r_mmod_Electrostatic_Energy-OPLS-2005>
-321.637298583984

> <r_mmod_Solvation_Energy-OPLS-2005>
-266.622161865234

> <b_mmod_Minimization_Converged-OPLS-2005>
0

> <r_mmod_RMS_Derivative-OPLS-2005>
1.64092147350311

$$$$
94
                    3D
 Structure written by MMmdl.
158166  0  0  1  0            999 V2000
  -30.6177  -14.6953   20.4522 C   0  0  0  0  0  0
  -30.4256  -12.4157   19.4758 C   0  0  0  0  0  0
  -29.5074  -12.5053   18.2368 C   0  0  0  0  0  0
  -28.0303  -12.3431   18.6442 C   0  0  0  0  0  0
  -27.6444  -13.2303   19.8577 C   0  0  2  0  0  0
  -28.6854  -13.1340   20.9941 C   0  0  0  0  0  0
  -25.2514  -13.8202   20.5701 C   0  0  0  0  0  0
  -24.1794  -13.0447   20.9202 C   0  0  0  0  0  0
  -24.6388  -11.6924   20.8757 C   0  0  0  0  0  0
  -23.9065  -10.4300   21.0410 C   0  0  0  0  0  0
  -24.3615   -9.4208   21.9180 C   0  0  0  0  0  0
  -23.6287   -8.2244   22.0747 C   0  0  0  0  0  0
  -22.4266   -8.0288   21.3541 C   0  0  0  0  0  0
  -21.9908   -9.0265   20.4641 C   0  0  0  0  0  0
  -22.7247  -10.2139   20.3052 C   0  0  0  0  0  0
  -21.6850   -6.0731   22.5281 C   0  0  0  0  0  0
  -21.4020   -6.5632   23.8219 C   0  0  0  0  0  0
  -21.3664   -5.6788   24.9181 C   0  0  0  0  0  0
  -21.6043   -4.3051   24.7233 C   0  0  0  0  0  0
  -21.8822   -3.8139   23.4355 C   0  0  0  0  0  0
  -21.9194   -4.6955   22.3409 C   0  0  0  0  0  0
  -22.7813  -13.5217   21.1878 C   0  0  0  0  0  0
  -22.1663   -4.2138   21.0986 F   0  0  0  0  0  0
  -21.5624   -3.4538   25.7744 F   0  0  0  0  0  0
  -29.9968  -13.4689   20.4233 N   0  0  0  0  0  0
  -26.2941  -12.9411   20.3304 N   0  0  0  0  0  0
  -25.9315  -11.6549   20.5753 N   0  0  0  0  0  0
  -22.0463  -12.8205   22.0436 N   0  0  0  0  0  0
  -25.4214  -15.1930   20.4116 N   0  0  0  0  0  0
  -31.8012  -14.7957   20.1149 O   0  0  0  0  0  0
  -21.6641   -6.8879   21.4239 O   0  0  0  0  0  0
  -22.3496  -14.5528   20.6732 O   0  0  0  0  0  0
  -24.6293  -31.8577   23.2012 C   0  0  0  0  0  0
  -25.9133  -32.4764   23.8344 C   0  0  1  0  0  0
  -27.2108  -27.2763   20.1182 C   0  0  0  0  0  0
  -25.5943  -33.8567   24.2264 N   0  0  0  0  0  0
  -23.4240  -30.4822   21.5458 C   0  0  2  0  0  0
  -24.8698  -28.9396   20.1068 C   0  0  0  0  0  0
  -22.7491  -29.4599   22.4919 C   0  0  0  0  0  0
  -18.0286  -28.1388   22.8494 C   0  0  0  0  0  0
  -24.1490  -36.7274   23.2635 C   0  0  0  0  0  0
  -25.9706  -30.7732   21.3827 C   0  0  0  0  0  0
  -26.0415  -29.3997   20.7203 C   0  0  0  0  0  0
  -27.2144  -28.5800   20.7177 C   0  0  0  0  0  0
  -26.0190  -26.8948   19.4567 C   0  0  0  0  0  0
  -24.8637  -27.6951   19.4643 C   0  0  0  0  0  0
  -23.6409  -29.8233   20.1596 C   0  0  0  0  0  0
  -25.4119  -36.3068   24.0322 C   0  0  1  0  0  0
  -20.5891  -28.3683   23.1291 C   0  0  2  0  0  0
  -20.6776  -26.9408   22.5417 C   0  0  0  0  0  0
  -19.5749  -26.6384   21.5220 C   0  0  0  0  0  0
  -18.1928  -26.7931   22.1635 C   0  0  0  0  0  0
  -19.1540  -28.8856   23.2884 C   0  0  0  0  0  0
  -18.9460  -30.1463   23.8891 C   0  0  0  0  0  0
  -17.6458  -30.6590   24.0564 C   0  0  0  0  0  0
  -25.9056  -34.9442   23.5088 C   0  0  0  0  0  0
  -16.5349  -29.9086   23.6342 C   0  0  0  0  0  0
  -16.7271  -28.6507   23.0357 C   0  0  0  0  0  0
  -26.4498  -31.6586   25.0725 C   0  0  0  0  0  0
  -25.3730  -31.3756   26.1450 C   0  0  0  0  0  0
  -27.0329  -30.2994   24.6221 C   0  0  0  0  0  0
  -27.6036  -32.4339   25.7508 C   0  0  0  0  0  0
  -27.5576  -37.1797   24.8466 C   0  0  0  0  0  0
  -21.4198  -29.3026   22.3671 N   0  0  0  0  0  0
  -26.4293  -37.3766   23.9403 N   0  0  0  0  0  0
  -24.6934  -31.0550   22.0992 N   0  0  0  0  0  0
  -23.4201  -28.8129   23.3001 O   0  0  0  0  0  0
  -28.2980  -26.3775   20.2026 O   0  0  0  0  0  0
  -26.5623  -34.8911   22.4653 O   0  0  0  0  0  0
  -23.5453  -32.1399   23.7318 O   0  0  0  0  0  0
  -30.6983  -18.4912   18.1751 C   0  0  0  0  0  0
  -29.6132  -18.3332   20.6746 C   0  0  0  0  0  0
  -29.9940  -17.1424   20.0837 C   0  0  0  0  0  0
  -30.4847  -17.2839   18.7242 C   0  0  0  0  0  0
  -30.4631  -19.7428   18.8912 C   0  0  0  0  0  0
  -28.8955  -23.8122   20.6084 C   0  0  0  0  0  0
  -30.6694  -21.2680   21.7282 C   0  0  0  0  0  0
  -28.2269  -20.7106   21.8065 C   0  0  0  0  0  0
  -28.9896  -22.3250   20.0083 C   0  0  0  0  0  0
  -28.0768  -24.9373   19.8376 C   0  0  0  0  0  0
  -29.4230  -20.9772   20.8583 C   0  0  0  0  0  0
  -29.7716  -19.6682   20.0803 N   0  0  0  0  0  0
  -29.8391  -15.8202   20.6667 N   0  0  0  0  0  0
  -30.8942  -20.7970   18.4182 O   0  0  0  0  0  0
  -29.4492  -24.1032   21.6718 O   0  0  0  0  0  0
  -30.6475  -16.2046   17.9389 F   0  0  0  0  0  0
  -31.4689  -12.5279   19.1765 H   0  0  0  0  0  0
  -30.3517  -11.4318   19.9421 H   0  0  0  0  0  0
  -29.7806  -11.7401   17.5085 H   0  0  0  0  0  0
  -29.6501  -13.4668   17.7406 H   0  0  0  0  0  0
  -27.8717  -11.2922   18.8888 H   0  0  0  0  0  0
  -27.3777  -12.5594   17.7978 H   0  0  0  0  0  0
  -27.6507  -14.2582   19.4951 H   0  0  0  0  0  0
  -28.6994  -12.1286   21.4170 H   0  0  0  0  0  0
  -28.4271  -13.8059   21.8142 H   0  0  0  0  0  0
  -25.2756   -9.5676   22.4765 H   0  0  0  0  0  0
  -23.9993   -7.4624   22.7459 H   0  0  0  0  0  0
  -21.0843   -8.8787   19.8944 H   0  0  0  0  0  0
  -22.3707  -10.9676   19.6165 H   0  0  0  0  0  0
  -21.2020   -7.6140   23.9724 H   0  0  0  0  0  0
  -21.1481   -6.0511   25.9083 H   0  0  0  0  0  0
  -22.0595   -2.7598   23.2861 H   0  0  0  0  0  0
  -22.4080  -11.9852   22.4800 H   0  0  0  0  0  0
  -21.1086  -13.1230   22.2671 H   0  0  0  0  0  0
  -24.6531  -15.8453   20.5235 H   0  0  0  0  0  0
  -26.2683  -15.6339   20.0753 H   0  0  0  0  0  0
  -26.7187  -32.5417   23.1070 H   0  0  0  0  0  0
  -25.0095  -33.9715   25.0409 H   0  0  0  0  0  0
  -22.7189  -31.3033   21.4040 H   0  0  0  0  0  0
  -23.3755  -35.9605   23.3305 H   0  0  0  0  0  0
  -24.3569  -36.8892   22.2048 H   0  0  0  0  0  0
  -23.7245  -37.6476   23.6653 H   0  0  0  0  0  0
  -26.1157  -31.5379   20.6182 H   0  0  0  0  0  0
  -26.8455  -30.8135   22.0203 H   0  0  0  0  0  0
  -28.1095  -28.9243   21.2166 H   0  0  0  0  0  0
  -25.9343  -25.9576   18.9285 H   0  0  0  0  0  0
  -23.9690  -27.3425   18.9694 H   0  0  0  0  0  0
  -23.7647  -30.6017   19.4065 H   0  0  0  0  0  0
  -22.7598  -29.2569   19.8526 H   0  0  0  0  0  0
  -25.1305  -36.1911   25.0816 H   0  0  0  0  0  0
  -20.9982  -28.3258   24.1411 H   0  0  0  0  0  0
  -20.5697  -26.2283   23.3609 H   0  0  0  0  0  0
  -21.6644  -26.7445   22.1200 H   0  0  0  0  0  0
  -19.6907  -25.6295   21.1245 H   0  0  0  0  0  0
  -19.6694  -27.3199   20.6759 H   0  0  0  0  0  0
  -17.4201  -26.6682   21.4033 H   0  0  0  0  0  0
  -18.0329  -26.0066   22.9031 H   0  0  0  0  0  0
  -19.7931  -30.7288   24.2250 H   0  0  0  0  0  0
  -17.5008  -31.6270   24.5164 H   0  0  0  0  0  0
  -15.5351  -30.2989   23.7660 H   0  0  0  0  0  0
  -15.8669  -28.0824   22.7080 H   0  0  0  0  0  0
  -24.5904  -30.7092   25.7798 H   0  0  0  0  0  0
  -24.8921  -32.2939   26.4842 H   0  0  0  0  0  0
  -25.8061  -30.8969   27.0244 H   0  0  0  0  0  0
  -26.2910  -29.6754   24.1221 H   0  0  0  0  0  0
  -27.3956  -29.7246   25.4754 H   0  0  0  0  0  0
  -27.8817  -30.4228   23.9491 H   0  0  0  0  0  0
  -27.2614  -33.3635   26.2068 H   0  0  0  0  0  0
  -28.3864  -32.6918   25.0361 H   0  0  0  0  0  0
  -28.0679  -31.8482   26.5454 H   0  0  0  0  0  0
  -28.2604  -38.0084   24.7508 H   0  0  0  0  0  0
  -28.1066  -36.2617   24.6311 H   0  0  0  0  0  0
  -27.2289  -37.1473   25.8868 H   0  0  0  0  0  0
  -20.9374  -29.8735   21.6869 H   0  0  0  0  0  0
  -26.0169  -38.2835   24.1414 H   0  0  0  0  0  0
  -31.0344  -18.5460   17.1524 H   0  0  0  0  0  0
  -29.2126  -18.3326   21.6732 H   0  0  0  0  0  0
  -30.4614  -21.9817   22.5239 H   0  0  0  0  0  0
  -31.4878  -21.6682   21.1293 H   0  0  0  0  0  0
  -31.0395  -20.3654   22.2166 H   0  0  0  0  0  0
  -27.8747  -21.6305   22.2728 H   0  0  0  0  0  0
  -28.4758  -20.0457   22.6334 H   0  0  0  0  0  0
  -27.3819  -20.2807   21.2661 H   0  0  0  0  0  0
  -29.6625  -22.4840   19.1743 H   0  0  0  0  0  0
  -28.0244  -22.1264   19.5432 H   0  0  0  0  0  0
  -27.0408  -24.6648   20.0329 H   0  0  0  0  0  0
  -28.2405  -24.8193   18.7661 H   0  0  0  0  0  0
  -28.9402  -15.6469   21.0895 H   0  0  0  0  0  0
  1 25  1  0  0  0
  1 30  2  0  0  0
  1 83  1  0  0  0
  2  3  1  0  0  0
  2 25  1  0  0  0
  2 87  1  0  0  0
  2 88  1  0  0  0
  3  4  1  0  0  0
  3 89  1  0  0  0
  3 90  1  0  0  0
  4  5  1  0  0  0
  4 91  1  0  0  0
  4 92  1  0  0  0
  5  6  1  0  0  0
  5 26  1  0  0  0
  5 93  1  0  0  0
  6 25  1  0  0  0
  6 94  1  0  0  0
  6 95  1  0  0  0
  7  8  2  0  0  0
  7 26  1  0  0  0
  7 29  1  0  0  0
  8  9  1  0  0  0
  8 22  1  0  0  0
  9 10  1  0  0  0
  9 27  2  0  0  0
 10 11  2  0  0  0
 10 15  1  0  0  0
 11 12  1  0  0  0
 11 96  1  0  0  0
 12 13  2  0  0  0
 12 97  1  0  0  0
 13 14  1  0  0  0
 13 31  1  0  0  0
 14 15  2  0  0  0
 14 98  1  0  0  0
 15 99  1  0  0  0
 16 17  2  0  0  0
 16 21  1  0  0  0
 16 31  1  0  0  0
 17 18  1  0  0  0
 17100  1  0  0  0
 18 19  2  0  0  0
 18101  1  0  0  0
 19 20  1  0  0  0
 19 24  1  0  0  0
 20 21  2  0  0  0
 20102  1  0  0  0
 21 23  1  0  0  0
 22 28  1  0  0  0
 22 32  2  0  0  0
 26 27  1  0  0  0
 28103  1  0  0  0
 28104  1  0  0  0
 29105  1  0  0  0
 29106  1  0  0  0
 33 34  1  0  0  0
 33 66  1  0  0  0
 33 70  2  0  0  0
 34 36  1  0  0  0
 34 59  1  0  0  0
 34107  1  0  0  0
 35 44  2  0  0  0
 35 45  1  0  0  0
 35 68  1  0  0  0
 36 56  1  0  0  0
 36108  1  0  0  0
 37 39  1  0  0  0
 37 47  1  0  0  0
 37 66  1  0  0  0
 37109  1  0  0  0
 38 43  2  0  0  0
 38 46  1  0  0  0
 38 47  1  0  0  0
 39 64  1  0  0  0
 39 67  2  0  0  0
 40 52  1  0  0  0
 40 53  2  0  0  0
 40 58  1  0  0  0
 41110  1  0  0  0
 41111  1  0  0  0
 41112  1  0  0  0
 41 48  1  0  0  0
 42 43  1  0  0  0
 42 66  1  0  0  0
 42113  1  0  0  0
 42114  1  0  0  0
 43 44  1  0  0  0
 44115  1  0  0  0
 45 46  2  0  0  0
 45116  1  0  0  0
 46117  1  0  0  0
 47118  1  0  0  0
 47119  1  0  0  0
 48 56  1  0  0  0
 48 65  1  0  0  0
 48120  1  0  0  0
 49 50  1  0  0  0
 49 53  1  0  0  0
 49 64  1  0  0  0
 49121  1  0  0  0
 50 51  1  0  0  0
 50122  1  0  0  0
 50123  1  0  0  0
 51 52  1  0  0  0
 51124  1  0  0  0
 51125  1  0  0  0
 52126  1  0  0  0
 52127  1  0  0  0
 53 54  1  0  0  0
 54 55  2  0  0  0
 54128  1  0  0  0
 55 57  1  0  0  0
 55129  1  0  0  0
 56 69  2  0  0  0
 57 58  2  0  0  0
 57130  1  0  0  0
 58131  1  0  0  0
 59 60  1  0  0  0
 59 61  1  0  0  0
 59 62  1  0  0  0
 60132  1  0  0  0
 60133  1  0  0  0
 60134  1  0  0  0
 61135  1  0  0  0
 61136  1  0  0  0
 61137  1  0  0  0
 62138  1  0  0  0
 62139  1  0  0  0
 62140  1  0  0  0
 63 65  1  0  0  0
 63141  1  0  0  0
 63142  1  0  0  0
 63143  1  0  0  0
 64144  1  0  0  0
 65145  1  0  0  0
 68 80  1  0  0  0
 71 74  2  0  0  0
 71 75  1  0  0  0
 71146  1  0  0  0
 72 73  2  0  0  0
 72 82  1  0  0  0
 72147  1  0  0  0
 73 74  1  0  0  0
 73 83  1  0  0  0
 74 86  1  0  0  0
 75 82  1  0  0  0
 75 84  2  0  0  0
 76 79  1  0  0  0
 76 80  1  0  0  0
 76 85  2  0  0  0
 77148  1  0  0  0
 77149  1  0  0  0
 77150  1  0  0  0
 77 81  1  0  0  0
 78 81  1  0  0  0
 78151  1  0  0  0
 78152  1  0  0  0
 78153  1  0  0  0
 79 81  1  0  0  0
 79154  1  0  0  0
 79155  1  0  0  0
 80156  1  0  0  0
 80157  1  0  0  0
 81 82  1  0  0  0
 83158  1  0  0  0
M  ISO  4   1 100  68 101  80 101  83 100
M  END
> <chiral flag>
0

> <version>
0

> <s_m_source_file>
/data/baiqing/PycharmProjects/Reinvent-master-3.2/result/LINK_invent/BTK/process_docking_weight1_custom_product_contain_oxygen_bond_distance_aromatic_linkinvent_7_9_3/rearranged_h_0182.sdf

> <i_m_source_file_index>
95

> <r_mmod_Potential_Energy-OPLS-2005>
180.558227539062

> <r_mmod_Stretch_Energy-OPLS-2005>
138.014465332031

> <r_mmod_Bend_Energy-OPLS-2005>
175.210235595703

> <r_mmod_Torsional_Energy-OPLS-2005>
221.844055175781

> <r_mmod_Improper_Torsional_Energy-OPLS-2005>
5.70092916488647

> <r_mmod_Van_der_Waal_Energy-OPLS-2005>
168.79216003418

> <r_mmod_Electrostatic_Energy-OPLS-2005>
-362.668548583984

> <r_mmod_Solvation_Energy-OPLS-2005>
-239.055267333984

> <b_mmod_Minimization_Converged-OPLS-2005>
0

> <r_mmod_RMS_Derivative-OPLS-2005>
1.5359354019165

$$$$
95
                    3D
 Structure written by MMmdl.
151159  0  0  1  0            999 V2000
  -30.6114  -14.7424   20.4685 C   0  0  0  0  0  0
  -30.4275  -12.4542   19.4782 C   0  0  0  0  0  0
  -29.5072  -12.5374   18.2383 C   0  0  0  0  0  0
  -28.0289  -12.3724   18.6373 C   0  0  0  0  0  0
  -27.6444  -13.2432   19.8629 C   0  0  2  0  0  0
  -28.6911  -13.1517   20.9981 C   0  0  0  0  0  0
  -25.2503  -13.8254   20.5702 C   0  0  0  0  0  0
  -24.1803  -13.0462   20.9217 C   0  0  0  0  0  0
  -24.6424  -11.6940   20.8754 C   0  0  0  0  0  0
  -23.9104  -10.4317   21.0408 C   0  0  0  0  0  0
  -24.3666   -9.4230   21.9177 C   0  0  0  0  0  0
  -23.6341   -8.2254   22.0740 C   0  0  0  0  0  0
  -22.4316   -8.0301   21.3552 C   0  0  0  0  0  0
  -21.9957   -9.0269   20.4639 C   0  0  0  0  0  0
  -22.7287  -10.2157   20.3050 C   0  0  0  0  0  0
  -21.6871   -6.0770   22.5277 C   0  0  0  0  0  0
  -21.4014   -6.5657   23.8214 C   0  0  0  0  0  0
  -21.3667   -5.6795   24.9177 C   0  0  0  0  0  0
  -21.6078   -4.3066   24.7207 C   0  0  0  0  0  0
  -21.8814   -3.8172   23.4318 C   0  0  0  0  0  0
  -21.9193   -4.7005   22.3394 C   0  0  0  0  0  0
  -22.7824  -13.5215   21.1892 C   0  0  0  0  0  0
  -22.1652   -4.2194   21.0967 F   0  0  0  0  0  0
  -21.5645   -3.4543   25.7713 F   0  0  0  0  0  0
  -29.9980  -13.5072   20.4298 N   0  0  0  0  0  0
  -26.2955  -12.9463   20.3357 N   0  0  0  0  0  0
  -25.9358  -11.6589   20.5762 N   0  0  0  0  0  0
  -22.0517  -12.8151   22.0464 N   0  0  0  0  0  0
  -25.4265  -15.1959   20.4074 N   0  0  0  0  0  0
  -31.7763  -14.8509   20.0733 O   0  0  0  0  0  0
  -21.6662   -6.8913   21.4240 O   0  0  0  0  0  0
  -22.3469  -14.5501   20.6732 O   0  0  0  0  0  0
  -24.6310  -31.8546   23.1977 C   0  0  0  0  0  0
  -25.9164  -32.4733   23.8264 C   0  0  1  0  0  0
  -27.2233  -27.2596   20.1644 C   0  0  0  0  0  0
  -25.5976  -33.8520   24.2211 N   0  0  0  0  0  0
  -23.4242  -30.4782   21.5399 C   0  0  2  0  0  0
  -24.8742  -28.9216   20.1126 C   0  0  0  0  0  0
  -22.7466  -29.4632   22.4922 C   0  0  0  0  0  0
  -18.0308  -28.1407   22.8526 C   0  0  0  0  0  0
  -24.1520  -36.7286   23.2620 C   0  0  0  0  0  0
  -25.9669  -30.7727   21.3758 C   0  0  0  0  0  0
  -26.0417  -29.3908   20.7299 C   0  0  0  0  0  0
  -27.2116  -28.5701   20.7521 C   0  0  0  0  0  0
  -26.0446  -26.8761   19.4810 C   0  0  0  0  0  0
  -24.8802  -27.6689   19.4823 C   0  0  0  0  0  0
  -23.6421  -29.8020   20.1599 C   0  0  0  0  0  0
  -25.4144  -36.3034   24.0294 C   0  0  1  0  0  0
  -20.5911  -28.3744   23.1299 C   0  0  2  0  0  0
  -20.6835  -26.9468   22.5447 C   0  0  0  0  0  0
  -19.5795  -26.6411   21.5281 C   0  0  0  0  0  0
  -18.1956  -26.7958   22.1661 C   0  0  0  0  0  0
  -19.1562  -28.8901   23.2900 C   0  0  0  0  0  0
  -18.9456  -30.1502   23.8891 C   0  0  0  0  0  0
  -17.6452  -30.6602   24.0597 C   0  0  0  0  0  0
  -25.9068  -34.9424   23.5049 C   0  0  0  0  0  0
  -16.5351  -29.9086   23.6357 C   0  0  0  0  0  0
  -16.7293  -28.6521   23.0362 C   0  0  0  0  0  0
  -26.4538  -31.6528   25.0631 C   0  0  0  0  0  0
  -25.3775  -31.3704   26.1357 C   0  0  0  0  0  0
  -27.0345  -30.2902   24.6129 C   0  0  0  0  0  0
  -27.6039  -32.4293   25.7469 C   0  0  0  0  0  0
  -27.5598  -37.1784   24.8442 C   0  0  0  0  0  0
  -21.4191  -29.3055   22.3633 N   0  0  0  0  0  0
  -26.4308  -37.3745   23.9388 N   0  0  0  0  0  0
  -24.6925  -31.0547   22.0924 N   0  0  0  0  0  0
  -23.4179  -28.8213   23.3032 O   0  0  0  0  0  0
  -28.3145  -26.3645   20.2933 O   0  0  0  0  0  0
  -26.5625  -34.8905   22.4602 O   0  0  0  0  0  0
  -23.5477  -32.1376   23.7287 O   0  0  0  0  0  0
  -30.1369  -17.6787   19.1195 C   0  0  0  0  0  0
  -29.9123  -17.2794   20.4284 C   0  0  0  0  0  0
  -29.5149  -19.6293   20.5750 C   0  0  0  0  0  0
  -30.4031  -16.8712   17.8953 C   0  0  0  0  0  0
  -28.7797  -22.2118   20.2661 C   0  0  0  0  0  0
  -28.1461  -24.8852   20.0474 C   0  0  0  0  0  0
  -28.8379  -23.6964   20.9141 C   0  0  1  0  0  0
  -29.5339  -18.4256   21.2335 N   0  0  0  0  0  0
  -29.8637  -15.8506   20.8449 N   0  0  0  0  0  0
  -29.1488  -20.9489   21.0236 N   0  0  0  0  0  0
  -28.2191  -23.6275   22.0934 F   0  0  0  0  0  0
  -29.9721  -19.4132   18.8966 S   0  0  0  0  0  0
  -31.4720  -12.5635   19.1821 H   0  0  0  0  0  0
  -30.3546  -11.4704   19.9453 H   0  0  0  0  0  0
  -29.7823  -11.7757   17.5096 H   0  0  0  0  0  0
  -29.6447  -13.5011   17.7467 H   0  0  0  0  0  0
  -27.8585  -11.3172   18.8542 H   0  0  0  0  0  0
  -27.3841  -12.6196   17.7915 H   0  0  0  0  0  0
  -27.6417  -14.2733   19.5086 H   0  0  0  0  0  0
  -28.7199  -12.1428   21.4081 H   0  0  0  0  0  0
  -28.4204  -13.8092   21.8254 H   0  0  0  0  0  0
  -25.2808   -9.5706   22.4766 H   0  0  0  0  0  0
  -24.0108   -7.4619   22.7395 H   0  0  0  0  0  0
  -21.0931   -8.8771   19.8876 H   0  0  0  0  0  0
  -22.3758  -10.9715   19.6167 H   0  0  0  0  0  0
  -21.1973   -7.6156   23.9733 H   0  0  0  0  0  0
  -21.1509   -6.0525   25.9093 H   0  0  0  0  0  0
  -22.0585   -2.7639   23.2794 H   0  0  0  0  0  0
  -22.4146  -11.9780   22.4791 H   0  0  0  0  0  0
  -21.1116  -13.1105   22.2659 H   0  0  0  0  0  0
  -24.6677  -15.8651   20.4885 H   0  0  0  0  0  0
  -26.2836  -15.6194   20.0754 H   0  0  0  0  0  0
  -26.7220  -32.5396   23.0991 H   0  0  0  0  0  0
  -25.0158  -33.9649   25.0382 H   0  0  0  0  0  0
  -22.7204  -31.2995   21.3886 H   0  0  0  0  0  0
  -23.3777  -35.9616   23.3234 H   0  0  0  0  0  0
  -24.3626  -36.8968   22.2042 H   0  0  0  0  0  0
  -23.7286  -37.6470   23.6693 H   0  0  0  0  0  0
  -26.1051  -31.5293   20.6010 H   0  0  0  0  0  0
  -26.8465  -30.8226   22.0065 H   0  0  0  0  0  0
  -28.0925  -28.9164   21.2769 H   0  0  0  0  0  0
  -25.9836  -25.9375   18.9512 H   0  0  0  0  0  0
  -23.9854  -27.3038   18.9968 H   0  0  0  0  0  0
  -23.7523  -30.5685   19.3922 H   0  0  0  0  0  0
  -22.7671  -29.2181   19.8707 H   0  0  0  0  0  0
  -25.1343  -36.1841   25.0784 H   0  0  0  0  0  0
  -21.0021  -28.3357   24.1411 H   0  0  0  0  0  0
  -20.5882  -26.2324   23.3644 H   0  0  0  0  0  0
  -21.6680  -26.7578   22.1132 H   0  0  0  0  0  0
  -19.6958  -25.6325   21.1299 H   0  0  0  0  0  0
  -19.6730  -27.3250   20.6834 H   0  0  0  0  0  0
  -17.4260  -26.6778   21.4013 H   0  0  0  0  0  0
  -18.0286  -26.0081   22.9030 H   0  0  0  0  0  0
  -19.7916  -30.7381   24.2195 H   0  0  0  0  0  0
  -17.4977  -31.6273   24.5211 H   0  0  0  0  0  0
  -15.5340  -30.2980   23.7677 H   0  0  0  0  0  0
  -15.8699  -28.0846   22.7034 H   0  0  0  0  0  0
  -24.5950  -30.7049   25.7691 H   0  0  0  0  0  0
  -24.9003  -32.2905   26.4733 H   0  0  0  0  0  0
  -25.8102  -30.8904   27.0149 H   0  0  0  0  0  0
  -26.2879  -29.6653   24.1201 H   0  0  0  0  0  0
  -27.4023  -29.7147   25.4641 H   0  0  0  0  0  0
  -27.8785  -30.4075   23.9328 H   0  0  0  0  0  0
  -27.2544  -33.3586   26.1988 H   0  0  0  0  0  0
  -28.3914  -32.6872   25.0372 H   0  0  0  0  0  0
  -28.0634  -31.8469   26.5471 H   0  0  0  0  0  0
  -28.2547  -38.0144   24.7553 H   0  0  0  0  0  0
  -28.1172  -36.2674   24.6205 H   0  0  0  0  0  0
  -27.2321  -37.1347   25.8842 H   0  0  0  0  0  0
  -20.9380  -29.8623   21.6716 H   0  0  0  0  0  0
  -26.0174  -38.2800   24.1419 H   0  0  0  0  0  0
  -29.7921  -15.9718   17.8695 H   0  0  0  0  0  0
  -31.4524  -16.5915   17.8222 H   0  0  0  0  0  0
  -30.1530  -17.4504   17.0051 H   0  0  0  0  0  0
  -29.3873  -22.2267   19.3600 H   0  0  0  0  0  0
  -27.7626  -22.0514   19.9070 H   0  0  0  0  0  0
  -27.0926  -24.6196   20.0757 H   0  0  0  0  0  0
  -28.4464  -24.7421   19.0096 H   0  0  0  0  0  0
  -29.8759  -23.9516   21.1384 H   0  0  0  0  0  0
  -29.0377  -15.6082   21.3691 H   0  0  0  0  0  0
  -28.8039  -20.9472   21.9809 H   0  0  0  0  0  0
  1 25  1  0  0  0
  1 30  2  0  0  0
  1 79  1  0  0  0
  2  3  1  0  0  0
  2 25  1  0  0  0
  2 83  1  0  0  0
  2 84  1  0  0  0
  3  4  1  0  0  0
  3 85  1  0  0  0
  3 86  1  0  0  0
  4  5  1  0  0  0
  4 87  1  0  0  0
  4 88  1  0  0  0
  5  6  1  0  0  0
  5 26  1  0  0  0
  5 89  1  0  0  0
  6 25  1  0  0  0
  6 90  1  0  0  0
  6 91  1  0  0  0
  7  8  2  0  0  0
  7 26  1  0  0  0
  7 29  1  0  0  0
  8  9  1  0  0  0
  8 22  1  0  0  0
  9 10  1  0  0  0
  9 27  2  0  0  0
 10 11  2  0  0  0
 10 15  1  0  0  0
 11 12  1  0  0  0
 11 92  1  0  0  0
 12 13  2  0  0  0
 12 93  1  0  0  0
 13 14  1  0  0  0
 13 31  1  0  0  0
 14 15  2  0  0  0
 14 94  1  0  0  0
 15 95  1  0  0  0
 16 17  2  0  0  0
 16 21  1  0  0  0
 16 31  1  0  0  0
 17 18  1  0  0  0
 17 96  1  0  0  0
 18 19  2  0  0  0
 18 97  1  0  0  0
 19 20  1  0  0  0
 19 24  1  0  0  0
 20 21  2  0  0  0
 20 98  1  0  0  0
 21 23  1  0  0  0
 22 28  1  0  0  0
 22 32  2  0  0  0
 26 27  1  0  0  0
 28 99  1  0  0  0
 28100  1  0  0  0
 29101  1  0  0  0
 29102  1  0  0  0
 33 34  1  0  0  0
 33 66  1  0  0  0
 33 70  2  0  0  0
 34 36  1  0  0  0
 34 59  1  0  0  0
 34103  1  0  0  0
 35 44  2  0  0  0
 35 45  1  0  0  0
 35 68  1  0  0  0
 36 56  1  0  0  0
 36104  1  0  0  0
 37 39  1  0  0  0
 37 47  1  0  0  0
 37 66  1  0  0  0
 37105  1  0  0  0
 38 43  2  0  0  0
 38 46  1  0  0  0
 38 47  1  0  0  0
 39 64  1  0  0  0
 39 67  2  0  0  0
 40 52  1  0  0  0
 40 53  2  0  0  0
 40 58  1  0  0  0
 41106  1  0  0  0
 41107  1  0  0  0
 41108  1  0  0  0
 41 48  1  0  0  0
 42 43  1  0  0  0
 42 66  1  0  0  0
 42109  1  0  0  0
 42110  1  0  0  0
 43 44  1  0  0  0
 44111  1  0  0  0
 45 46  2  0  0  0
 45112  1  0  0  0
 46113  1  0  0  0
 47114  1  0  0  0
 47115  1  0  0  0
 48 56  1  0  0  0
 48 65  1  0  0  0
 48116  1  0  0  0
 49 50  1  0  0  0
 49 53  1  0  0  0
 49 64  1  0  0  0
 49117  1  0  0  0
 50 51  1  0  0  0
 50118  1  0  0  0
 50119  1  0  0  0
 51 52  1  0  0  0
 51120  1  0  0  0
 51121  1  0  0  0
 52122  1  0  0  0
 52123  1  0  0  0
 53 54  1  0  0  0
 54 55  2  0  0  0
 54124  1  0  0  0
 55 57  1  0  0  0
 55125  1  0  0  0
 56 69  2  0  0  0
 57 58  2  0  0  0
 57126  1  0  0  0
 58127  1  0  0  0
 59 60  1  0  0  0
 59 61  1  0  0  0
 59 62  1  0  0  0
 60128  1  0  0  0
 60129  1  0  0  0
 60130  1  0  0  0
 61131  1  0  0  0
 61132  1  0  0  0
 61133  1  0  0  0
 62134  1  0  0  0
 62135  1  0  0  0
 62136  1  0  0  0
 63 65  1  0  0  0
 63137  1  0  0  0
 63138  1  0  0  0
 63139  1  0  0  0
 64140  1  0  0  0
 65141  1  0  0  0
 68 76  1  0  0  0
 71 72  2  0  0  0
 71 74  1  0  0  0
 71 82  1  0  0  0
 72 78  1  0  0  0
 72 79  1  0  0  0
 73 78  2  0  0  0
 73 80  1  0  0  0
 73 82  1  0  0  0
 74142  1  0  0  0
 74143  1  0  0  0
 74144  1  0  0  0
 75 77  1  0  0  0
 75 80  1  0  0  0
 75145  1  0  0  0
 75146  1  0  0  0
 76 77  1  0  0  0
 76147  1  0  0  0
 76148  1  0  0  0
 77 81  1  0  0  0
 77149  1  0  0  0
 79150  1  0  0  0
 80151  1  0  0  0
M  ISO  4   1 100  68 101  76 101  79 100
M  END
> <chiral flag>
0

> <version>
0

> <s_m_source_file>
/data/baiqing/PycharmProjects/Reinvent-master-3.2/result/LINK_invent/BTK/process_docking_weight1_custom_product_contain_oxygen_bond_distance_aromatic_linkinvent_7_9_3/rearranged_h_0182.sdf

> <i_m_source_file_index>
96

> <r_mmod_Potential_Energy-OPLS-2005>
115.112808227539

> <r_mmod_Stretch_Energy-OPLS-2005>
115.646621704102

> <r_mmod_Bend_Energy-OPLS-2005>
169.267440795898

> <r_mmod_Torsional_Energy-OPLS-2005>
225.263244628906

> <r_mmod_Improper_Torsional_Energy-OPLS-2005>
5.78851318359375

> <r_mmod_Van_der_Waal_Energy-OPLS-2005>
119.985961914062

> <r_mmod_Electrostatic_Energy-OPLS-2005>
-384.818359375

> <r_mmod_Solvation_Energy-OPLS-2005>
-223.061981201172

> <b_mmod_Minimization_Converged-OPLS-2005>
0

> <r_mmod_RMS_Derivative-OPLS-2005>
5.98689126968384

$$$$
96
                    3D
 Structure written by MMmdl.
148156  0  0  1  0            999 V2000
  -30.5646  -14.8433   20.4384 C   0  0  0  0  0  0
  -30.4348  -12.5107   19.5018 C   0  0  0  0  0  0
  -29.5192  -12.5208   18.2559 C   0  0  0  0  0  0
  -28.0472  -12.3267   18.6658 C   0  0  0  0  0  0
  -27.6379  -13.2391   19.8520 C   0  0  2  0  0  0
  -28.6778  -13.2060   20.9937 C   0  0  0  0  0  0
  -25.2480  -13.8207   20.5704 C   0  0  0  0  0  0
  -24.1778  -13.0441   20.9205 C   0  0  0  0  0  0
  -24.6382  -11.6922   20.8741 C   0  0  0  0  0  0
  -23.9067  -10.4292   21.0401 C   0  0  0  0  0  0
  -24.3615   -9.4207   21.9180 C   0  0  0  0  0  0
  -23.6290   -8.2243   22.0752 C   0  0  0  0  0  0
  -22.4271   -8.0277   21.3544 C   0  0  0  0  0  0
  -21.9907   -9.0250   20.4648 C   0  0  0  0  0  0
  -22.7237  -10.2132   20.3054 C   0  0  0  0  0  0
  -21.6854   -6.0730   22.5279 C   0  0  0  0  0  0
  -21.4015   -6.5638   23.8210 C   0  0  0  0  0  0
  -21.3660   -5.6790   24.9174 C   0  0  0  0  0  0
  -21.6042   -4.3053   24.7225 C   0  0  0  0  0  0
  -21.8820   -3.8142   23.4346 C   0  0  0  0  0  0
  -21.9193   -4.6958   22.3403 C   0  0  0  0  0  0
  -22.7801  -13.5215   21.1869 C   0  0  0  0  0  0
  -22.1659   -4.2144   21.0981 F   0  0  0  0  0  0
  -21.5630   -3.4538   25.7740 F   0  0  0  0  0  0
  -29.9730  -13.5885   20.4178 N   0  0  0  0  0  0
  -26.2910  -12.9426   20.3284 N   0  0  0  0  0  0
  -25.9317  -11.6560   20.5753 N   0  0  0  0  0  0
  -22.0455  -12.8200   22.0432 N   0  0  0  0  0  0
  -25.4167  -15.1934   20.4141 N   0  0  0  0  0  0
  -31.7469  -14.9287   20.0850 O   0  0  0  0  0  0
  -21.6637   -6.8872   21.4239 O   0  0  0  0  0  0
  -22.3486  -14.5521   20.6723 O   0  0  0  0  0  0
  -24.6362  -31.8474   23.1900 C   0  0  0  0  0  0
  -25.9151  -32.4715   23.8279 C   0  0  1  0  0  0
  -27.2255  -27.1941   20.1486 C   0  0  0  0  0  0
  -25.5917  -33.8519   24.2199 N   0  0  0  0  0  0
  -23.4385  -30.4664   21.5324 C   0  0  2  0  0  0
  -24.8902  -28.9013   20.1039 C   0  0  0  0  0  0
  -22.7538  -29.4551   22.4854 C   0  0  0  0  0  0
  -18.0299  -28.1401   22.8486 C   0  0  0  0  0  0
  -24.1484  -36.7267   23.2644 C   0  0  0  0  0  0
  -25.9875  -30.7403   21.3798 C   0  0  0  0  0  0
  -26.0597  -29.3553   20.7253 C   0  0  0  0  0  0
  -27.2240  -28.5135   20.7383 C   0  0  0  0  0  0
  -26.0330  -26.8228   19.4891 C   0  0  0  0  0  0
  -24.8867  -27.6474   19.4708 C   0  0  0  0  0  0
  -23.6627  -29.7959   20.1495 C   0  0  0  0  0  0
  -25.4118  -36.3042   24.0316 C   0  0  1  0  0  0
  -20.5910  -28.3706   23.1256 C   0  0  2  0  0  0
  -20.6790  -26.9413   22.5412 C   0  0  0  0  0  0
  -19.5758  -26.6388   21.5219 C   0  0  0  0  0  0
  -18.1937  -26.7943   22.1629 C   0  0  0  0  0  0
  -19.1557  -28.8873   23.2863 C   0  0  0  0  0  0
  -18.9468  -30.1476   23.8880 C   0  0  0  0  0  0
  -17.6466  -30.6596   24.0570 C   0  0  0  0  0  0
  -25.9061  -34.9417   23.5069 C   0  0  0  0  0  0
  -16.5358  -29.9091   23.6339 C   0  0  0  0  0  0
  -16.7283  -28.6516   23.0352 C   0  0  0  0  0  0
  -26.4504  -31.6568   25.0699 C   0  0  0  0  0  0
  -25.3710  -31.3744   26.1409 C   0  0  0  0  0  0
  -27.0364  -30.2981   24.6223 C   0  0  0  0  0  0
  -27.6042  -32.4331   25.7480 C   0  0  0  0  0  0
  -27.5567  -37.1793   24.8467 C   0  0  0  0  0  0
  -21.4236  -29.3028   22.3618 N   0  0  0  0  0  0
  -26.4284  -37.3753   23.9407 N   0  0  0  0  0  0
  -24.7065  -31.0391   22.0894 N   0  0  0  0  0  0
  -23.4213  -28.8094   23.2976 O   0  0  0  0  0  0
  -28.3035  -26.2640   20.2731 O   0  0  0  0  0  0
  -26.5651  -34.8915   22.4652 O   0  0  0  0  0  0
  -23.5494  -32.1298   23.7167 O   0  0  0  0  0  0
  -29.2683  -18.6003   20.9679 C   0  0  0  0  0  0
  -29.8902  -17.4157   20.2959 C   0  0  0  0  0  0
  -29.4008  -19.8525   20.3078 C   0  0  0  0  0  0
  -28.2799  -24.8831   19.8346 C   0  0  0  0  0  0
  -28.6882  -23.7140   20.5024 C   0  0  0  0  0  0
  -28.7674  -22.3175   19.8650 C   0  0  0  0  0  0
  -30.4854  -17.7513   19.1687 N   0  0  0  0  0  0
  -28.6000  -18.4314   22.1916 N   0  0  0  0  0  0
  -29.7991  -15.9810   20.7424 N   0  0  0  0  0  0
  -29.0395  -21.1885   20.6542 N   0  0  0  0  0  0
  -28.5883  -22.1638   18.6556 O   0  0  0  0  0  0
  -29.0763  -23.8213   21.7809 O   0  0  0  0  0  0
  -30.2969  -19.4223   18.8654 S   0  0  0  0  0  0
  -31.4759  -12.6397   19.2023 H   0  0  0  0  0  0
  -30.3919  -11.5421   20.0021 H   0  0  0  0  0  0
  -29.8198  -11.7390   17.5569 H   0  0  0  0  0  0
  -29.6315  -13.4670   17.7244 H   0  0  0  0  0  0
  -27.9217  -11.2809   18.9475 H   0  0  0  0  0  0
  -27.3886  -12.4918   17.8122 H   0  0  0  0  0  0
  -27.6216  -14.2540   19.4541 H   0  0  0  0  0  0
  -28.7332  -12.2121   21.4405 H   0  0  0  0  0  0
  -28.3927  -13.8865   21.7970 H   0  0  0  0  0  0
  -25.2758   -9.5687   22.4755 H   0  0  0  0  0  0
  -23.9999   -7.4636   22.7472 H   0  0  0  0  0  0
  -21.0836   -8.8765   19.8957 H   0  0  0  0  0  0
  -22.3685  -10.9665   19.6162 H   0  0  0  0  0  0
  -21.2005   -7.6147   23.9713 H   0  0  0  0  0  0
  -21.1482   -6.0523   25.9078 H   0  0  0  0  0  0
  -22.0599   -2.7605   23.2851 H   0  0  0  0  0  0
  -22.4070  -11.9855   22.4805 H   0  0  0  0  0  0
  -21.1078  -13.1230   22.2659 H   0  0  0  0  0  0
  -24.6502  -15.8471   20.5297 H   0  0  0  0  0  0
  -26.2694  -15.6382   20.0997 H   0  0  0  0  0  0
  -26.7218  -32.5346   23.1011 H   0  0  0  0  0  0
  -25.0036  -33.9641   25.0328 H   0  0  0  0  0  0
  -22.7367  -31.2889   21.3807 H   0  0  0  0  0  0
  -23.3738  -35.9607   23.3309 H   0  0  0  0  0  0
  -24.3569  -36.8892   22.2057 H   0  0  0  0  0  0
  -23.7248  -37.6472   23.6677 H   0  0  0  0  0  0
  -26.1319  -31.4936   20.6048 H   0  0  0  0  0  0
  -26.8638  -30.7955   22.0141 H   0  0  0  0  0  0
  -28.1130  -28.8491   21.2539 H   0  0  0  0  0  0
  -25.9543  -25.8554   19.0158 H   0  0  0  0  0  0
  -23.9927  -27.2950   18.9748 H   0  0  0  0  0  0
  -23.7916  -30.5697   19.3915 H   0  0  0  0  0  0
  -22.7806  -29.2306   19.8434 H   0  0  0  0  0  0
  -25.1307  -36.1873   25.0808 H   0  0  0  0  0  0
  -21.0011  -28.3292   24.1373 H   0  0  0  0  0  0
  -20.5687  -26.2310   23.3621 H   0  0  0  0  0  0
  -21.6653  -26.7428   22.1196 H   0  0  0  0  0  0
  -19.6911  -25.6294   21.1246 H   0  0  0  0  0  0
  -19.6699  -27.3208   20.6754 H   0  0  0  0  0  0
  -17.4207  -26.6681   21.4031 H   0  0  0  0  0  0
  -18.0331  -26.0097   22.9035 H   0  0  0  0  0  0
  -19.7946  -30.7307   24.2227 H   0  0  0  0  0  0
  -17.5020  -31.6274   24.5177 H   0  0  0  0  0  0
  -15.5361  -30.2992   23.7682 H   0  0  0  0  0  0
  -15.8682  -28.0848   22.7058 H   0  0  0  0  0  0
  -24.5892  -30.7085   25.7734 H   0  0  0  0  0  0
  -24.8898  -32.2928   26.4786 H   0  0  0  0  0  0
  -25.8014  -30.8950   27.0211 H   0  0  0  0  0  0
  -26.2964  -29.6712   24.1237 H   0  0  0  0  0  0
  -27.4020  -29.7262   25.4760 H   0  0  0  0  0  0
  -27.8850  -30.4241   23.9498 H   0  0  0  0  0  0
  -27.2633  -33.3650   26.2008 H   0  0  0  0  0  0
  -28.3883  -32.6860   25.0329 H   0  0  0  0  0  0
  -28.0676  -31.8487   26.5437 H   0  0  0  0  0  0
  -28.2593  -38.0081   24.7500 H   0  0  0  0  0  0
  -28.1054  -36.2611   24.6315 H   0  0  0  0  0  0
  -27.2288  -37.1474   25.8872 H   0  0  0  0  0  0
  -20.9425  -29.8738   21.6812 H   0  0  0  0  0  0
  -26.0143  -38.2821   24.1411 H   0  0  0  0  0  0
  -27.9397  -24.8227   18.8099 H   0  0  0  0  0  0
  -28.8423  -17.6232   22.7557 H   0  0  0  0  0  0
  -28.4093  -19.2551   22.7516 H   0  0  0  0  0  0
  -28.9397  -15.7759   21.2264 H   0  0  0  0  0  0
  -29.0175  -21.3805   21.6454 H   0  0  0  0  0  0
  -29.0031  -24.7380   22.0158 H   0  0  0  0  0  0
  1 25  1  0  0  0
  1 30  2  0  0  0
  1 79  1  0  0  0
  2  3  1  0  0  0
  2 25  1  0  0  0
  2 84  1  0  0  0
  2 85  1  0  0  0
  3  4  1  0  0  0
  3 86  1  0  0  0
  3 87  1  0  0  0
  4  5  1  0  0  0
  4 88  1  0  0  0
  4 89  1  0  0  0
  5  6  1  0  0  0
  5 26  1  0  0  0
  5 90  1  0  0  0
  6 25  1  0  0  0
  6 91  1  0  0  0
  6 92  1  0  0  0
  7  8  2  0  0  0
  7 26  1  0  0  0
  7 29  1  0  0  0
  8  9  1  0  0  0
  8 22  1  0  0  0
  9 10  1  0  0  0
  9 27  2  0  0  0
 10 11  2  0  0  0
 10 15  1  0  0  0
 11 12  1  0  0  0
 11 93  1  0  0  0
 12 13  2  0  0  0
 12 94  1  0  0  0
 13 14  1  0  0  0
 13 31  1  0  0  0
 14 15  2  0  0  0
 14 95  1  0  0  0
 15 96  1  0  0  0
 16 17  2  0  0  0
 16 21  1  0  0  0
 16 31  1  0  0  0
 17 18  1  0  0  0
 17 97  1  0  0  0
 18 19  2  0  0  0
 18 98  1  0  0  0
 19 20  1  0  0  0
 19 24  1  0  0  0
 20 21  2  0  0  0
 20 99  1  0  0  0
 21 23  1  0  0  0
 22 28  1  0  0  0
 22 32  2  0  0  0
 26 27  1  0  0  0
 28100  1  0  0  0
 28101  1  0  0  0
 29102  1  0  0  0
 29103  1  0  0  0
 33 34  1  0  0  0
 33 66  1  0  0  0
 33 70  2  0  0  0
 34 36  1  0  0  0
 34 59  1  0  0  0
 34104  1  0  0  0
 35 44  2  0  0  0
 35 45  1  0  0  0
 35 68  1  0  0  0
 36 56  1  0  0  0
 36105  1  0  0  0
 37 39  1  0  0  0
 37 47  1  0  0  0
 37 66  1  0  0  0
 37106  1  0  0  0
 38 43  2  0  0  0
 38 46  1  0  0  0
 38 47  1  0  0  0
 39 64  1  0  0  0
 39 67  2  0  0  0
 40 52  1  0  0  0
 40 53  2  0  0  0
 40 58  1  0  0  0
 41107  1  0  0  0
 41108  1  0  0  0
 41109  1  0  0  0
 41 48  1  0  0  0
 42 43  1  0  0  0
 42 66  1  0  0  0
 42110  1  0  0  0
 42111  1  0  0  0
 43 44  1  0  0  0
 44112  1  0  0  0
 45 46  2  0  0  0
 45113  1  0  0  0
 46114  1  0  0  0
 47115  1  0  0  0
 47116  1  0  0  0
 48 56  1  0  0  0
 48 65  1  0  0  0
 48117  1  0  0  0
 49 50  1  0  0  0
 49 53  1  0  0  0
 49 64  1  0  0  0
 49118  1  0  0  0
 50 51  1  0  0  0
 50119  1  0  0  0
 50120  1  0  0  0
 51 52  1  0  0  0
 51121  1  0  0  0
 51122  1  0  0  0
 52123  1  0  0  0
 52124  1  0  0  0
 53 54  1  0  0  0
 54 55  2  0  0  0
 54125  1  0  0  0
 55 57  1  0  0  0
 55126  1  0  0  0
 56 69  2  0  0  0
 57 58  2  0  0  0
 57127  1  0  0  0
 58128  1  0  0  0
 59 60  1  0  0  0
 59 61  1  0  0  0
 59 62  1  0  0  0
 60129  1  0  0  0
 60130  1  0  0  0
 60131  1  0  0  0
 61132  1  0  0  0
 61133  1  0  0  0
 61134  1  0  0  0
 62135  1  0  0  0
 62136  1  0  0  0
 62137  1  0  0  0
 63 65  1  0  0  0
 63138  1  0  0  0
 63139  1  0  0  0
 63140  1  0  0  0
 64141  1  0  0  0
 65142  1  0  0  0
 68 74  1  0  0  0
 71 72  1  0  0  0
 71 73  2  0  0  0
 71 78  1  0  0  0
 72 77  2  0  0  0
 72 79  1  0  0  0
 73 80  1  0  0  0
 73 83  1  0  0  0
 74 75  2  0  0  0
 74143  1  0  0  0
 75 76  1  0  0  0
 75 82  1  0  0  0
 76 80  1  0  0  0
 76 81  2  0  0  0
 77 83  1  0  0  0
 78144  1  0  0  0
 78145  1  0  0  0
 79146  1  0  0  0
 80147  1  0  0  0
 82148  1  0  0  0
M  ISO  4   1 100  68 101  74 101  79 100
M  END
> <chiral flag>
0

> <version>
0

> <s_m_source_file>
/data/baiqing/PycharmProjects/Reinvent-master-3.2/result/LINK_invent/BTK/process_docking_weight1_custom_product_contain_oxygen_bond_distance_aromatic_linkinvent_7_9_3/rearranged_h_0182.sdf

> <i_m_source_file_index>
97

> <r_mmod_Potential_Energy-OPLS-2005>
25.5742263793945

> <r_mmod_Stretch_Energy-OPLS-2005>
156.167724609375

> <r_mmod_Bend_Energy-OPLS-2005>
181.88508605957

> <r_mmod_Torsional_Energy-OPLS-2005>
222.229064941406

> <r_mmod_Improper_Torsional_Energy-OPLS-2005>
7.46059513092041

> <r_mmod_Van_der_Waal_Energy-OPLS-2005>
115.928321838379

> <r_mmod_Electrostatic_Energy-OPLS-2005>
-537.941223144531

> <r_mmod_Solvation_Energy-OPLS-2005>
-254.100357055664

> <b_mmod_Minimization_Converged-OPLS-2005>
0

> <r_mmod_RMS_Derivative-OPLS-2005>
1.19253301620483

$$$$
