0
                    3D
 Structure written by MMmdl.
161169  0  0  1  0            999 V2000
  -30.6371  -14.7015   20.4930 C   0  0  0  0  0  0
  -30.4304  -12.4342   19.4709 C   0  0  0  0  0  0
  -29.5050  -12.4939   18.2362 C   0  0  0  0  0  0
  -28.0335  -12.3178   18.6545 C   0  0  0  0  0  0
  -27.6421  -13.2235   19.8524 C   0  0  2  0  0  0
  -28.6857  -13.1525   20.9894 C   0  0  0  0  0  0
  -25.2510  -13.8184   20.5675 C   0  0  0  0  0  0
  -24.1797  -13.0443   20.9202 C   0  0  0  0  0  0
  -24.6374  -11.6916   20.8745 C   0  0  0  0  0  0
  -23.9046  -10.4295   21.0403 C   0  0  0  0  0  0
  -24.3604   -9.4218   21.9184 C   0  0  0  0  0  0
  -23.6286   -8.2252   22.0757 C   0  0  0  0  0  0
  -22.4275   -8.0280   21.3541 C   0  0  0  0  0  0
  -21.9903   -9.0248   20.4647 C   0  0  0  0  0  0
  -22.7220  -10.2130   20.3052 C   0  0  0  0  0  0
  -21.6853   -6.0727   22.5270 C   0  0  0  0  0  0
  -21.4024   -6.5636   23.8203 C   0  0  0  0  0  0
  -21.3659   -5.6788   24.9167 C   0  0  0  0  0  0
  -21.6041   -4.3050   24.7224 C   0  0  0  0  0  0
  -21.8822   -3.8140   23.4348 C   0  0  0  0  0  0
  -21.9200   -4.6953   22.3397 C   0  0  0  0  0  0
  -22.7825  -13.5231   21.1870 C   0  0  0  0  0  0
  -22.1663   -4.2136   21.0975 F   0  0  0  0  0  0
  -21.5625   -3.4538   25.7744 F   0  0  0  0  0  0
  -29.9910  -13.4913   20.4085 N   0  0  0  0  0  0
  -26.2928  -12.9374   20.3284 N   0  0  0  0  0  0
  -25.9303  -11.6520   20.5764 N   0  0  0  0  0  0
  -22.0482  -12.8207   22.0420 N   0  0  0  0  0  0
  -25.4206  -15.1911   20.4070 N   0  0  0  0  0  0
  -31.8218  -14.7863   20.1586 O   0  0  0  0  0  0
  -21.6644   -6.8873   21.4234 O   0  0  0  0  0  0
  -22.3512  -14.5545   20.6734 O   0  0  0  0  0  0
  -24.6294  -31.8571   23.2023 C   0  0  0  0  0  0
  -25.9136  -32.4764   23.8352 C   0  0  1  0  0  0
  -27.2113  -27.2723   20.1238 C   0  0  0  0  0  0
  -25.5937  -33.8559   24.2279 N   0  0  0  0  0  0
  -23.4257  -30.4824   21.5437 C   0  0  2  0  0  0
  -24.8718  -28.9384   20.1027 C   0  0  0  0  0  0
  -22.7496  -29.4603   22.4901 C   0  0  0  0  0  0
  -18.0289  -28.1397   22.8480 C   0  0  0  0  0  0
  -24.1494  -36.7298   23.2637 C   0  0  0  0  0  0
  -25.9696  -30.7722   21.3826 C   0  0  0  0  0  0
  -26.0401  -29.3968   20.7234 C   0  0  0  0  0  0
  -27.2097  -28.5730   20.7300 C   0  0  0  0  0  0
  -26.0282  -26.8981   19.4442 C   0  0  0  0  0  0
  -24.8711  -27.6980   19.4501 C   0  0  0  0  0  0
  -23.6423  -29.8247   20.1556 C   0  0  0  0  0  0
  -25.4117  -36.3071   24.0324 C   0  0  1  0  0  0
  -20.5892  -28.3702   23.1266 C   0  0  2  0  0  0
  -20.6788  -26.9424   22.5402 C   0  0  0  0  0  0
  -19.5762  -26.6388   21.5211 C   0  0  0  0  0  0
  -18.1932  -26.7940   22.1615 C   0  0  0  0  0  0
  -19.1545  -28.8866   23.2862 C   0  0  0  0  0  0
  -18.9470  -30.1457   23.8892 C   0  0  0  0  0  0
  -17.6472  -30.6594   24.0562 C   0  0  0  0  0  0
  -25.9055  -34.9435   23.5101 C   0  0  0  0  0  0
  -16.5364  -29.9101   23.6322 C   0  0  0  0  0  0
  -16.7276  -28.6517   23.0347 C   0  0  0  0  0  0
  -26.4512  -31.6582   25.0733 C   0  0  0  0  0  0
  -25.3735  -31.3712   26.1449 C   0  0  0  0  0  0
  -27.0382  -30.3007   24.6219 C   0  0  0  0  0  0
  -27.6071  -32.4328   25.7507 C   0  0  0  0  0  0
  -27.5581  -37.1798   24.8460 C   0  0  0  0  0  0
  -21.4205  -29.3051   22.3657 N   0  0  0  0  0  0
  -26.4295  -37.3765   23.9405 N   0  0  0  0  0  0
  -24.6931  -31.0550   22.0998 N   0  0  0  0  0  0
  -23.4203  -28.8118   23.2968 O   0  0  0  0  0  0
  -28.3067  -26.3833   20.2227 O   0  0  0  0  0  0
  -26.5620  -34.8909   22.4666 O   0  0  0  0  0  0
  -23.5450  -32.1399   23.7320 O   0  0  0  0  0  0
  -29.4135  -18.3949   20.6541 C   0  0  0  0  0  0
  -31.5627  -17.5596   21.3850 C   0  0  0  0  0  0
  -29.8052  -19.7814   20.8721 C   0  0  0  0  0  0
  -31.1067  -19.9910   21.4223 C   0  0  0  0  0  0
  -30.2785  -17.2533   20.8897 C   0  0  0  0  0  0
  -31.9613  -18.8831   21.6504 C   0  0  0  0  0  0
  -28.7964  -20.9555   20.7074 C   0  0  0  0  0  0
  -31.4529  -23.2220   23.6438 C   0  0  0  0  0  0
  -31.6110  -21.3673   21.8722 C   0  0  0  0  0  0
  -29.1152  -22.3228   19.9578 C   0  0  0  0  0  0
  -30.9864  -21.8279   23.2033 C   0  0  0  0  0  0
  -28.8985  -23.7589   20.6668 C   0  0  0  0  0  0
  -28.1727  -24.9363   19.8475 C   0  0  0  0  0  0
  -29.8749  -15.8363   20.7220 N   0  0  0  0  0  0
  -27.6426  -20.8232   21.1221 O   0  0  0  0  0  0
  -33.1946  -19.0803   22.1765 F   0  0  0  0  0  0
  -31.4703  -12.5568   19.1632 H   0  0  0  0  0  0
  -30.3758  -11.4565   19.9525 H   0  0  0  0  0  0
  -29.7833  -11.7193   17.5204 H   0  0  0  0  0  0
  -29.6287  -13.4496   17.7229 H   0  0  0  0  0  0
  -27.8951  -11.2698   18.9261 H   0  0  0  0  0  0
  -27.3720  -12.4995   17.8062 H   0  0  0  0  0  0
  -27.6403  -14.2437   19.4688 H   0  0  0  0  0  0
  -28.7119  -12.1583   21.4365 H   0  0  0  0  0  0
  -28.4244  -13.8411   21.7950 H   0  0  0  0  0  0
  -25.2744   -9.5704   22.4761 H   0  0  0  0  0  0
  -23.9993   -7.4651   22.7486 H   0  0  0  0  0  0
  -21.0833   -8.8770   19.8950 H   0  0  0  0  0  0
  -22.3678  -10.9674   19.6167 H   0  0  0  0  0  0
  -21.2020   -7.6149   23.9700 H   0  0  0  0  0  0
  -21.1474   -6.0525   25.9067 H   0  0  0  0  0  0
  -22.0603   -2.7603   23.2854 H   0  0  0  0  0  0
  -22.4116  -11.9852   22.4761 H   0  0  0  0  0  0
  -21.1107  -13.1226   22.2661 H   0  0  0  0  0  0
  -24.6497  -15.8415   20.5140 H   0  0  0  0  0  0
  -26.2583  -15.6291   20.0477 H   0  0  0  0  0  0
  -26.7208  -32.5426   23.1094 H   0  0  0  0  0  0
  -25.0080  -33.9704   25.0422 H   0  0  0  0  0  0
  -22.7211  -31.3037   21.4033 H   0  0  0  0  0  0
  -23.3747  -35.9636   23.3282 H   0  0  0  0  0  0
  -24.3590  -36.8954   22.2060 H   0  0  0  0  0  0
  -23.7256  -37.6493   23.6685 H   0  0  0  0  0  0
  -26.1029  -31.5336   20.6129 H   0  0  0  0  0  0
  -26.8489  -30.8237   22.0127 H   0  0  0  0  0  0
  -28.0991  -28.9101   21.2445 H   0  0  0  0  0  0
  -25.9504  -25.9721   18.8983 H   0  0  0  0  0  0
  -23.9830  -27.3532   18.9374 H   0  0  0  0  0  0
  -23.7670  -30.6089   19.4068 H   0  0  0  0  0  0
  -22.7600  -29.2610   19.8464 H   0  0  0  0  0  0
  -25.1288  -36.1925   25.0817 H   0  0  0  0  0  0
  -20.9978  -28.3317   24.1392 H   0  0  0  0  0  0
  -20.5712  -26.2324   23.3613 H   0  0  0  0  0  0
  -21.6650  -26.7476   22.1176 H   0  0  0  0  0  0
  -19.6929  -25.6291   21.1262 H   0  0  0  0  0  0
  -19.6708  -27.3185   20.6726 H   0  0  0  0  0  0
  -17.4204  -26.6682   21.4017 H   0  0  0  0  0  0
  -18.0322  -26.0087   22.9015 H   0  0  0  0  0  0
  -19.7946  -30.7253   24.2287 H   0  0  0  0  0  0
  -17.5034  -31.6277   24.5161 H   0  0  0  0  0  0
  -15.5365  -30.3003   23.7648 H   0  0  0  0  0  0
  -15.8678  -28.0839   22.7061 H   0  0  0  0  0  0
  -24.5915  -30.7073   25.7752 H   0  0  0  0  0  0
  -24.8908  -32.2869   26.4880 H   0  0  0  0  0  0
  -25.8027  -30.8872   27.0229 H   0  0  0  0  0  0
  -26.2972  -29.6730   24.1262 H   0  0  0  0  0  0
  -27.4099  -29.7299   25.4737 H   0  0  0  0  0  0
  -27.8833  -30.4293   23.9450 H   0  0  0  0  0  0
  -27.2700  -33.3656   26.2043 H   0  0  0  0  0  0
  -28.3902  -32.6848   25.0342 H   0  0  0  0  0  0
  -28.0722  -31.8481   26.5458 H   0  0  0  0  0  0
  -28.2560  -38.0128   24.7511 H   0  0  0  0  0  0
  -28.1109  -36.2645   24.6269 H   0  0  0  0  0  0
  -27.2292  -37.1441   25.8862 H   0  0  0  0  0  0
  -20.9385  -29.8824   21.6909 H   0  0  0  0  0  0
  -26.0176  -38.2834   24.1412 H   0  0  0  0  0  0
  -28.4087  -18.2071   20.3002 H   0  0  0  0  0  0
  -32.2644  -16.7737   21.6215 H   0  0  0  0  0  0
  -30.9690  -23.5136   24.5768 H   0  0  0  0  0  0
  -31.2108  -23.9827   22.9008 H   0  0  0  0  0  0
  -32.5312  -23.2466   23.8070 H   0  0  0  0  0  0
  -31.4675  -22.1101   21.0942 H   0  0  0  0  0  0
  -32.6945  -21.3401   21.9950 H   0  0  0  0  0  0
  -28.4554  -22.3032   19.0907 H   0  0  0  0  0  0
  -30.1098  -22.2696   19.5195 H   0  0  0  0  0  0
  -29.8998  -21.8370   23.1340 H   0  0  0  0  0  0
  -31.2316  -21.1055   23.9828 H   0  0  0  0  0  0
  -29.8819  -24.1198   20.9636 H   0  0  0  0  0  0
  -28.3583  -23.6099   21.6042 H   0  0  0  0  0  0
  -27.1304  -24.6246   19.8583 H   0  0  0  0  0  0
  -28.4944  -24.8686   18.8072 H   0  0  0  0  0  0
  -28.8844  -15.6568   20.7928 H   0  0  0  0  0  0
  1 25  1  0  0  0
  1 30  2  0  0  0
  1 84  1  0  0  0
  2  3  1  0  0  0
  2 25  1  0  0  0
  2 87  1  0  0  0
  2 88  1  0  0  0
  3  4  1  0  0  0
  3 89  1  0  0  0
  3 90  1  0  0  0
  4  5  1  0  0  0
  4 91  1  0  0  0
  4 92  1  0  0  0
  5  6  1  0  0  0
  5 26  1  0  0  0
  5 93  1  0  0  0
  6 25  1  0  0  0
  6 94  1  0  0  0
  6 95  1  0  0  0
  7  8  2  0  0  0
  7 26  1  0  0  0
  7 29  1  0  0  0
  8  9  1  0  0  0
  8 22  1  0  0  0
  9 10  1  0  0  0
  9 27  2  0  0  0
 10 11  2  0  0  0
 10 15  1  0  0  0
 11 12  1  0  0  0
 11 96  1  0  0  0
 12 13  2  0  0  0
 12 97  1  0  0  0
 13 14  1  0  0  0
 13 31  1  0  0  0
 14 15  2  0  0  0
 14 98  1  0  0  0
 15 99  1  0  0  0
 16 17  2  0  0  0
 16 21  1  0  0  0
 16 31  1  0  0  0
 17 18  1  0  0  0
 17100  1  0  0  0
 18 19  2  0  0  0
 18101  1  0  0  0
 19 20  1  0  0  0
 19 24  1  0  0  0
 20 21  2  0  0  0
 20102  1  0  0  0
 21 23  1  0  0  0
 22 28  1  0  0  0
 22 32  2  0  0  0
 26 27  1  0  0  0
 28103  1  0  0  0
 28104  1  0  0  0
 29105  1  0  0  0
 29106  1  0  0  0
 33 34  1  0  0  0
 33 66  1  0  0  0
 33 70  2  0  0  0
 34 36  1  0  0  0
 34 59  1  0  0  0
 34107  1  0  0  0
 35 44  2  0  0  0
 35 45  1  0  0  0
 35 68  1  0  0  0
 36 56  1  0  0  0
 36108  1  0  0  0
 37 39  1  0  0  0
 37 47  1  0  0  0
 37 66  1  0  0  0
 37109  1  0  0  0
 38 43  2  0  0  0
 38 46  1  0  0  0
 38 47  1  0  0  0
 39 64  1  0  0  0
 39 67  2  0  0  0
 40 52  1  0  0  0
 40 53  2  0  0  0
 40 58  1  0  0  0
 41110  1  0  0  0
 41111  1  0  0  0
 41112  1  0  0  0
 41 48  1  0  0  0
 42 43  1  0  0  0
 42 66  1  0  0  0
 42113  1  0  0  0
 42114  1  0  0  0
 43 44  1  0  0  0
 44115  1  0  0  0
 45 46  2  0  0  0
 45116  1  0  0  0
 46117  1  0  0  0
 47118  1  0  0  0
 47119  1  0  0  0
 48 56  1  0  0  0
 48 65  1  0  0  0
 48120  1  0  0  0
 49 50  1  0  0  0
 49 53  1  0  0  0
 49 64  1  0  0  0
 49121  1  0  0  0
 50 51  1  0  0  0
 50122  1  0  0  0
 50123  1  0  0  0
 51 52  1  0  0  0
 51124  1  0  0  0
 51125  1  0  0  0
 52126  1  0  0  0
 52127  1  0  0  0
 53 54  1  0  0  0
 54 55  2  0  0  0
 54128  1  0  0  0
 55 57  1  0  0  0
 55129  1  0  0  0
 56 69  2  0  0  0
 57 58  2  0  0  0
 57130  1  0  0  0
 58131  1  0  0  0
 59 60  1  0  0  0
 59 61  1  0  0  0
 59 62  1  0  0  0
 60132  1  0  0  0
 60133  1  0  0  0
 60134  1  0  0  0
 61135  1  0  0  0
 61136  1  0  0  0
 61137  1  0  0  0
 62138  1  0  0  0
 62139  1  0  0  0
 62140  1  0  0  0
 63 65  1  0  0  0
 63141  1  0  0  0
 63142  1  0  0  0
 63143  1  0  0  0
 64144  1  0  0  0
 65145  1  0  0  0
 68 83  1  0  0  0
 71 73  2  0  0  0
 71 75  1  0  0  0
 71146  1  0  0  0
 72 75  2  0  0  0
 72 76  1  0  0  0
 72147  1  0  0  0
 73 74  1  0  0  0
 73 77  1  0  0  0
 74 76  2  0  0  0
 74 79  1  0  0  0
 75 84  1  0  0  0
 76 86  1  0  0  0
 77 80  1  0  0  0
 77 85  2  0  0  0
 78 81  1  0  0  0
 78148  1  0  0  0
 78149  1  0  0  0
 78150  1  0  0  0
 79 81  1  0  0  0
 79151  1  0  0  0
 79152  1  0  0  0
 80 82  1  0  0  0
 80153  1  0  0  0
 80154  1  0  0  0
 81155  1  0  0  0
 81156  1  0  0  0
 82 83  1  0  0  0
 82157  1  0  0  0
 82158  1  0  0  0
 83159  1  0  0  0
 83160  1  0  0  0
 84161  1  0  0  0
M  ISO  4   1 100  68 101  83 101  84 100
M  END
> <chiral flag>
0

> <version>
0

> <s_m_source_file>
/data/baiqing/PycharmProjects/Reinvent-master-3.2/result/LINK_invent/BTK/process_docking_weight1_custom_product_contain_oxygen_bond_distance_aromatic_linkinvent_7_9_3/rearranged_h_0126.sdf

> <i_m_source_file_index>
1

> <r_mmod_Potential_Energy-OPLS-2005>
167.980895996094

> <r_mmod_Stretch_Energy-OPLS-2005>
113.558471679688

> <r_mmod_Bend_Energy-OPLS-2005>
160.996673583984

> <r_mmod_Torsional_Energy-OPLS-2005>
258.603240966797

> <r_mmod_Improper_Torsional_Energy-OPLS-2005>
6.78662872314453

> <r_mmod_Van_der_Waal_Energy-OPLS-2005>
146.920135498047

> <r_mmod_Electrostatic_Energy-OPLS-2005>
-383.242218017578

> <r_mmod_Solvation_Energy-OPLS-2005>
-211.257446289062

> <b_mmod_Minimization_Converged-OPLS-2005>
0

> <r_mmod_RMS_Derivative-OPLS-2005>
1.97507655620575

$$$$
1
                    3D
 Structure written by MMmdl.
153161  0  0  1  0            999 V2000
  -30.6147  -14.7415   20.4584 C   0  0  0  0  0  0
  -30.4330  -12.4552   19.4623 C   0  0  0  0  0  0
  -29.5048  -12.4997   18.2289 C   0  0  0  0  0  0
  -28.0322  -12.3232   18.6492 C   0  0  0  0  0  0
  -27.6382  -13.2295   19.8458 C   0  0  2  0  0  0
  -28.6867  -13.1700   20.9775 C   0  0  0  0  0  0
  -25.2487  -13.8184   20.5686 C   0  0  0  0  0  0
  -24.1786  -13.0428   20.9217 C   0  0  0  0  0  0
  -24.6381  -11.6910   20.8752 C   0  0  0  0  0  0
  -23.9061  -10.4287   21.0408 C   0  0  0  0  0  0
  -24.3614   -9.4202   21.9185 C   0  0  0  0  0  0
  -23.6288   -8.2238   22.0753 C   0  0  0  0  0  0
  -22.4273   -8.0275   21.3540 C   0  0  0  0  0  0
  -21.9907   -9.0249   20.4645 C   0  0  0  0  0  0
  -22.7235  -10.2126   20.3056 C   0  0  0  0  0  0
  -21.6851   -6.0728   22.5271 C   0  0  0  0  0  0
  -21.4018   -6.5635   23.8205 C   0  0  0  0  0  0
  -21.3660   -5.6789   24.9172 C   0  0  0  0  0  0
  -21.6043   -4.3050   24.7222 C   0  0  0  0  0  0
  -21.8821   -3.8139   23.4344 C   0  0  0  0  0  0
  -21.9194   -4.6956   22.3401 C   0  0  0  0  0  0
  -22.7808  -13.5210   21.1876 C   0  0  0  0  0  0
  -22.1661   -4.2141   21.0978 F   0  0  0  0  0  0
  -21.5629   -3.4535   25.7737 F   0  0  0  0  0  0
  -29.9842  -13.5202   20.3859 N   0  0  0  0  0  0
  -26.2916  -12.9393   20.3268 N   0  0  0  0  0  0
  -25.9310  -11.6536   20.5755 N   0  0  0  0  0  0
  -22.0465  -12.8193   22.0438 N   0  0  0  0  0  0
  -25.4146  -15.1905   20.4070 N   0  0  0  0  0  0
  -31.8156  -14.8248   20.1862 O   0  0  0  0  0  0
  -21.6635   -6.8871   21.4233 O   0  0  0  0  0  0
  -22.3491  -14.5515   20.6723 O   0  0  0  0  0  0
  -24.6304  -31.8550   23.1968 C   0  0  0  0  0  0
  -25.9133  -32.4748   23.8318 C   0  0  1  0  0  0
  -27.2251  -27.2714   20.1369 C   0  0  0  0  0  0
  -25.5939  -33.8551   24.2248 N   0  0  0  0  0  0
  -23.4271  -30.4747   21.5399 C   0  0  2  0  0  0
  -24.8755  -28.9143   20.1166 C   0  0  0  0  0  0
  -22.7498  -29.4595   22.4922 C   0  0  0  0  0  0
  -18.0284  -28.1386   22.8478 C   0  0  0  0  0  0
  -24.1494  -36.7284   23.2642 C   0  0  0  0  0  0
  -25.9711  -30.7718   21.3729 C   0  0  0  0  0  0
  -26.0467  -29.3920   20.7202 C   0  0  0  0  0  0
  -27.2286  -28.5851   20.7121 C   0  0  0  0  0  0
  -26.0314  -26.8460   19.5207 C   0  0  0  0  0  0
  -24.8718  -27.6486   19.5065 C   0  0  0  0  0  0
  -23.6463  -29.8025   20.1585 C   0  0  0  0  0  0
  -25.4121  -36.3070   24.0328 C   0  0  1  0  0  0
  -20.5886  -28.3696   23.1274 C   0  0  2  0  0  0
  -20.6778  -26.9416   22.5410 C   0  0  0  0  0  0
  -19.5760  -26.6382   21.5210 C   0  0  0  0  0  0
  -18.1934  -26.7927   22.1616 C   0  0  0  0  0  0
  -19.1538  -28.8858   23.2863 C   0  0  0  0  0  0
  -18.9466  -30.1454   23.8885 C   0  0  0  0  0  0
  -17.6471  -30.6591   24.0556 C   0  0  0  0  0  0
  -25.9062  -34.9438   23.5095 C   0  0  0  0  0  0
  -16.5359  -29.9086   23.6331 C   0  0  0  0  0  0
  -16.7271  -28.6504   23.0349 C   0  0  0  0  0  0
  -26.4502  -31.6575   25.0708 C   0  0  0  0  0  0
  -25.3726  -31.3727   26.1434 C   0  0  0  0  0  0
  -27.0350  -30.2996   24.6179 C   0  0  0  0  0  0
  -27.6050  -32.4320   25.7483 C   0  0  0  0  0  0
  -27.5576  -37.1795   24.8462 C   0  0  0  0  0  0
  -21.4206  -29.3045   22.3669 N   0  0  0  0  0  0
  -26.4292  -37.3771   23.9407 N   0  0  0  0  0  0
  -24.6948  -31.0524   22.0931 N   0  0  0  0  0  0
  -23.4199  -28.8144   23.3025 O   0  0  0  0  0  0
  -28.3307  -26.4007   20.1175 O   0  0  0  0  0  0
  -26.5632  -34.8920   22.4663 O   0  0  0  0  0  0
  -23.5454  -32.1361   23.7279 O   0  0  0  0  0  0
  -30.9233  -20.0414   21.3252 C   0  0  0  0  0  0
  -31.3465  -17.6282   21.4797 C   0  0  0  0  0  0
  -29.7477  -19.8571   20.5646 C   0  0  0  0  0  0
  -29.3760  -18.4617   20.3073 C   0  0  0  0  0  0
  -30.1776  -17.3176   20.7507 C   0  0  0  0  0  0
  -31.7075  -18.9581   21.7654 C   0  0  0  0  0  0
  -29.0220  -21.1454   20.0841 C   0  0  0  0  0  0
  -29.1108  -22.4563   20.5475 C   0  0  0  0  0  0
  -28.4712  -23.7248   19.9345 C   0  0  0  0  0  0
  -28.1075  -18.1844   19.5188 C   0  0  0  0  0  0
  -28.2126  -25.0603   20.7828 C   0  0  0  0  0  0
  -29.8235  -15.8811   20.5654 N   0  0  0  0  0  0
  -28.1235  -23.7339   18.7491 O   0  0  0  0  0  0
  -32.8345  -19.2019   22.4767 F   0  0  0  0  0  0
  -31.4715  -12.5850   19.1533 H   0  0  0  0  0  0
  -30.3842  -11.4808   19.9508 H   0  0  0  0  0  0
  -29.7854  -11.7224   17.5165 H   0  0  0  0  0  0
  -29.6267  -13.4512   17.7088 H   0  0  0  0  0  0
  -27.8931  -11.2759   18.9201 H   0  0  0  0  0  0
  -27.3712  -12.5065   17.8012 H   0  0  0  0  0  0
  -27.6287  -14.2478   19.4576 H   0  0  0  0  0  0
  -28.7233  -12.1751   21.4234 H   0  0  0  0  0  0
  -28.4248  -13.8580   21.7831 H   0  0  0  0  0  0
  -25.2760   -9.5674   22.4756 H   0  0  0  0  0  0
  -23.9995   -7.4627   22.7472 H   0  0  0  0  0  0
  -21.0838   -8.8764   19.8951 H   0  0  0  0  0  0
  -22.3694  -10.9662   19.6163 H   0  0  0  0  0  0
  -21.2012   -7.6141   23.9707 H   0  0  0  0  0  0
  -21.1482   -6.0519   25.9073 H   0  0  0  0  0  0
  -22.0602   -2.7599   23.2846 H   0  0  0  0  0  0
  -22.4097  -11.9854   22.4815 H   0  0  0  0  0  0
  -21.1083  -13.1205   22.2660 H   0  0  0  0  0  0
  -24.6392  -15.8363   20.5093 H   0  0  0  0  0  0
  -26.2445  -15.6280   20.0326 H   0  0  0  0  0  0
  -26.7200  -32.5405   23.1059 H   0  0  0  0  0  0
  -25.0074  -33.9685   25.0386 H   0  0  0  0  0  0
  -22.7233  -31.2959   21.3910 H   0  0  0  0  0  0
  -23.3756  -35.9615   23.3301 H   0  0  0  0  0  0
  -24.3588  -36.8913   22.2057 H   0  0  0  0  0  0
  -23.7246  -37.6485   23.6672 H   0  0  0  0  0  0
  -26.1066  -31.5315   20.6020 H   0  0  0  0  0  0
  -26.8499  -30.8242   22.0035 H   0  0  0  0  0  0
  -28.1322  -28.9515   21.1795 H   0  0  0  0  0  0
  -25.9938  -25.8726   19.0513 H   0  0  0  0  0  0
  -23.9741  -27.2761   19.0308 H   0  0  0  0  0  0
  -23.7727  -30.5762   19.4005 H   0  0  0  0  0  0
  -22.7653  -29.2350   19.8535 H   0  0  0  0  0  0
  -25.1298  -36.1915   25.0820 H   0  0  0  0  0  0
  -20.9959  -28.3279   24.1404 H   0  0  0  0  0  0
  -20.5692  -26.2301   23.3612 H   0  0  0  0  0  0
  -21.6646  -26.7449   22.1199 H   0  0  0  0  0  0
  -19.6932  -25.6289   21.1244 H   0  0  0  0  0  0
  -19.6710  -27.3189   20.6739 H   0  0  0  0  0  0
  -17.4206  -26.6664   21.4018 H   0  0  0  0  0  0
  -18.0334  -26.0070   22.9013 H   0  0  0  0  0  0
  -19.7944  -30.7257   24.2258 H   0  0  0  0  0  0
  -17.5031  -31.6272   24.5160 H   0  0  0  0  0  0
  -15.5361  -30.2993   23.7665 H   0  0  0  0  0  0
  -15.8666  -28.0829   22.7074 H   0  0  0  0  0  0
  -24.5909  -30.7067   25.7764 H   0  0  0  0  0  0
  -24.8912  -32.2896   26.4842 H   0  0  0  0  0  0
  -25.8049  -30.8918   27.0218 H   0  0  0  0  0  0
  -26.2925  -29.6741   24.1211 H   0  0  0  0  0  0
  -27.4045  -29.7265   25.4693 H   0  0  0  0  0  0
  -27.8796  -30.4277   23.9409 H   0  0  0  0  0  0
  -27.2652  -33.3630   26.2036 H   0  0  0  0  0  0
  -28.3871  -32.6866   25.0316 H   0  0  0  0  0  0
  -28.0703  -31.8461   26.5420 H   0  0  0  0  0  0
  -28.2581  -38.0099   24.7514 H   0  0  0  0  0  0
  -28.1083  -36.2633   24.6281 H   0  0  0  0  0  0
  -27.2298  -37.1429   25.8864 H   0  0  0  0  0  0
  -20.9401  -29.8764   21.6868 H   0  0  0  0  0  0
  -26.0172  -38.2841   24.1417 H   0  0  0  0  0  0
  -31.2703  -21.0362   21.5599 H   0  0  0  0  0  0
  -31.9834  -16.8423   21.8576 H   0  0  0  0  0  0
  -28.3904  -20.9989   19.2193 H   0  0  0  0  0  0
  -29.7123  -22.6460   21.4229 H   0  0  0  0  0  0
  -27.3634  -18.9656   19.6691 H   0  0  0  0  0  0
  -27.6446  -17.2471   19.8233 H   0  0  0  0  0  0
  -28.3312  -18.1232   18.4536 H   0  0  0  0  0  0
  -28.9119  -25.0539   21.6188 H   0  0  0  0  0  0
  -27.2220  -24.9706   21.2298 H   0  0  0  0  0  0
  -28.8357  -15.6872   20.5352 H   0  0  0  0  0  0
  1 25  1  0  0  0
  1 30  2  0  0  0
  1 82  1  0  0  0
  2  3  1  0  0  0
  2 25  1  0  0  0
  2 85  1  0  0  0
  2 86  1  0  0  0
  3  4  1  0  0  0
  3 87  1  0  0  0
  3 88  1  0  0  0
  4  5  1  0  0  0
  4 89  1  0  0  0
  4 90  1  0  0  0
  5  6  1  0  0  0
  5 26  1  0  0  0
  5 91  1  0  0  0
  6 25  1  0  0  0
  6 92  1  0  0  0
  6 93  1  0  0  0
  7  8  2  0  0  0
  7 26  1  0  0  0
  7 29  1  0  0  0
  8  9  1  0  0  0
  8 22  1  0  0  0
  9 10  1  0  0  0
  9 27  2  0  0  0
 10 11  2  0  0  0
 10 15  1  0  0  0
 11 12  1  0  0  0
 11 94  1  0  0  0
 12 13  2  0  0  0
 12 95  1  0  0  0
 13 14  1  0  0  0
 13 31  1  0  0  0
 14 15  2  0  0  0
 14 96  1  0  0  0
 15 97  1  0  0  0
 16 17  2  0  0  0
 16 21  1  0  0  0
 16 31  1  0  0  0
 17 18  1  0  0  0
 17 98  1  0  0  0
 18 19  2  0  0  0
 18 99  1  0  0  0
 19 20  1  0  0  0
 19 24  1  0  0  0
 20 21  2  0  0  0
 20100  1  0  0  0
 21 23  1  0  0  0
 22 28  1  0  0  0
 22 32  2  0  0  0
 26 27  1  0  0  0
 28101  1  0  0  0
 28102  1  0  0  0
 29103  1  0  0  0
 29104  1  0  0  0
 33 34  1  0  0  0
 33 66  1  0  0  0
 33 70  2  0  0  0
 34 36  1  0  0  0
 34 59  1  0  0  0
 34105  1  0  0  0
 35 44  2  0  0  0
 35 45  1  0  0  0
 35 68  1  0  0  0
 36 56  1  0  0  0
 36106  1  0  0  0
 37 39  1  0  0  0
 37 47  1  0  0  0
 37 66  1  0  0  0
 37107  1  0  0  0
 38 43  2  0  0  0
 38 46  1  0  0  0
 38 47  1  0  0  0
 39 64  1  0  0  0
 39 67  2  0  0  0
 40 52  1  0  0  0
 40 53  2  0  0  0
 40 58  1  0  0  0
 41108  1  0  0  0
 41109  1  0  0  0
 41110  1  0  0  0
 41 48  1  0  0  0
 42 43  1  0  0  0
 42 66  1  0  0  0
 42111  1  0  0  0
 42112  1  0  0  0
 43 44  1  0  0  0
 44113  1  0  0  0
 45 46  2  0  0  0
 45114  1  0  0  0
 46115  1  0  0  0
 47116  1  0  0  0
 47117  1  0  0  0
 48 56  1  0  0  0
 48 65  1  0  0  0
 48118  1  0  0  0
 49 50  1  0  0  0
 49 53  1  0  0  0
 49 64  1  0  0  0
 49119  1  0  0  0
 50 51  1  0  0  0
 50120  1  0  0  0
 50121  1  0  0  0
 51 52  1  0  0  0
 51122  1  0  0  0
 51123  1  0  0  0
 52124  1  0  0  0
 52125  1  0  0  0
 53 54  1  0  0  0
 54 55  2  0  0  0
 54126  1  0  0  0
 55 57  1  0  0  0
 55127  1  0  0  0
 56 69  2  0  0  0
 57 58  2  0  0  0
 57128  1  0  0  0
 58129  1  0  0  0
 59 60  1  0  0  0
 59 61  1  0  0  0
 59 62  1  0  0  0
 60130  1  0  0  0
 60131  1  0  0  0
 60132  1  0  0  0
 61133  1  0  0  0
 61134  1  0  0  0
 61135  1  0  0  0
 62136  1  0  0  0
 62137  1  0  0  0
 62138  1  0  0  0
 63 65  1  0  0  0
 63139  1  0  0  0
 63140  1  0  0  0
 63141  1  0  0  0
 64142  1  0  0  0
 65143  1  0  0  0
 68 81  1  0  0  0
 71 73  2  0  0  0
 71 76  1  0  0  0
 71144  1  0  0  0
 72 75  1  0  0  0
 72 76  2  0  0  0
 72145  1  0  0  0
 73 74  1  0  0  0
 73 77  1  0  0  0
 74 75  2  0  0  0
 74 80  1  0  0  0
 75 82  1  0  0  0
 76 84  1  0  0  0
 77 78  2  0  0  0
 77146  1  0  0  0
 78 79  1  0  0  0
 78147  1  0  0  0
 79 81  1  0  0  0
 79 83  2  0  0  0
 80148  1  0  0  0
 80149  1  0  0  0
 80150  1  0  0  0
 81151  1  0  0  0
 81152  1  0  0  0
 82153  1  0  0  0
M  ISO  4   1 100  68 101  81 101  82 100
M  END
> <chiral flag>
0

> <version>
0

> <s_m_source_file>
/data/baiqing/PycharmProjects/Reinvent-master-3.2/result/LINK_invent/BTK/process_docking_weight1_custom_product_contain_oxygen_bond_distance_aromatic_linkinvent_7_9_3/rearranged_h_0126.sdf

> <i_m_source_file_index>
2

> <r_mmod_Potential_Energy-OPLS-2005>
162.653915405273

> <r_mmod_Stretch_Energy-OPLS-2005>
124.86979675293

> <r_mmod_Bend_Energy-OPLS-2005>
148.520294189453

> <r_mmod_Torsional_Energy-OPLS-2005>
249.506149291992

> <r_mmod_Improper_Torsional_Energy-OPLS-2005>
7.11762380599976

> <r_mmod_Van_der_Waal_Energy-OPLS-2005>
133.07096862793

> <r_mmod_Electrostatic_Energy-OPLS-2005>
-356.128112792969

> <r_mmod_Solvation_Energy-OPLS-2005>
-225.158081054688

> <b_mmod_Minimization_Converged-OPLS-2005>
0

> <r_mmod_RMS_Derivative-OPLS-2005>
1.04769229888916

$$$$
2
                    3D
 Structure written by MMmdl.
158166  0  0  1  0            999 V2000
  -30.7901  -14.4021   20.5147 C   0  0  0  0  0  0
  -30.3864  -12.2442   19.4466 C   0  0  0  0  0  0
  -29.4878  -12.4723   18.2159 C   0  0  0  0  0  0
  -28.0079  -12.3569   18.6241 C   0  0  0  0  0  0
  -27.6560  -13.2174   19.8678 C   0  0  2  0  0  0
  -28.6958  -13.0420   20.9975 C   0  0  0  0  0  0
  -25.2572  -13.8196   20.5703 C   0  0  0  0  0  0
  -24.1826  -13.0469   20.9196 C   0  0  0  0  0  0
  -24.6372  -11.6942   20.8745 C   0  0  0  0  0  0
  -23.9041  -10.4314   21.0406 C   0  0  0  0  0  0
  -24.3603   -9.4229   21.9181 C   0  0  0  0  0  0
  -23.6296   -8.2251   22.0748 C   0  0  0  0  0  0
  -22.4275   -8.0283   21.3544 C   0  0  0  0  0  0
  -21.9900   -9.0252   20.4653 C   0  0  0  0  0  0
  -22.7209  -10.2145   20.3057 C   0  0  0  0  0  0
  -21.6849   -6.0738   22.5284 C   0  0  0  0  0  0
  -21.4007   -6.5642   23.8219 C   0  0  0  0  0  0
  -21.3663   -5.6792   24.9181 C   0  0  0  0  0  0
  -21.6049   -4.3057   24.7227 C   0  0  0  0  0  0
  -21.8814   -3.8149   23.4350 C   0  0  0  0  0  0
  -21.9191   -4.6968   22.3408 C   0  0  0  0  0  0
  -22.7852  -13.5276   21.1848 C   0  0  0  0  0  0
  -22.1663   -4.2151   21.0987 F   0  0  0  0  0  0
  -21.5635   -3.4540   25.7739 F   0  0  0  0  0  0
  -30.0349  -13.2746   20.4398 N   0  0  0  0  0  0
  -26.2998  -12.9386   20.3359 N   0  0  0  0  0  0
  -25.9302  -11.6541   20.5774 N   0  0  0  0  0  0
  -22.0478  -12.8295   22.0413 N   0  0  0  0  0  0
  -25.4320  -15.1910   20.4116 N   0  0  0  0  0  0
  -31.9552  -14.4013   20.1119 O   0  0  0  0  0  0
  -21.6641   -6.8876   21.4241 O   0  0  0  0  0  0
  -22.3555  -14.5583   20.6680 O   0  0  0  0  0  0
  -24.6095  -31.8716   23.2133 C   0  0  0  0  0  0
  -25.9006  -32.4850   23.8412 C   0  0  1  0  0  0
  -27.2292  -27.4809   20.0948 C   0  0  0  0  0  0
  -25.5871  -33.8645   24.2338 N   0  0  0  0  0  0
  -23.3941  -30.4961   21.5531 C   0  0  2  0  0  0
  -24.8400  -28.9693   20.1141 C   0  0  0  0  0  0
  -22.7377  -29.4670   22.5006 C   0  0  0  0  0  0
  -18.0257  -28.1370   22.8491 C   0  0  0  0  0  0
  -24.1476  -36.7333   23.2630 C   0  0  0  0  0  0
  -25.9174  -30.8541   21.3572 C   0  0  0  0  0  0
  -25.9975  -29.4928   20.7040 C   0  0  0  0  0  0
  -27.1991  -28.7571   20.6879 C   0  0  0  0  0  0
  -26.0604  -26.9597   19.4991 C   0  0  0  0  0  0
  -24.8642  -27.7007   19.5079 C   0  0  0  0  0  0
  -23.5987  -29.8283   20.1671 C   0  0  0  0  0  0
  -25.4093  -36.3128   24.0340 C   0  0  1  0  0  0
  -20.5846  -28.3643   23.1334 C   0  0  2  0  0  0
  -20.6739  -26.9382   22.5430 C   0  0  0  0  0  0
  -19.5726  -26.6372   21.5213 C   0  0  0  0  0  0
  -18.1901  -26.7920   22.1613 C   0  0  0  0  0  0
  -19.1510  -28.8820   23.2912 C   0  0  0  0  0  0
  -18.9442  -30.1425   23.8923 C   0  0  0  0  0  0
  -17.6449  -30.6581   24.0558 C   0  0  0  0  0  0
  -25.9033  -34.9497   23.5143 C   0  0  0  0  0  0
  -16.5336  -29.9088   23.6319 C   0  0  0  0  0  0
  -16.7250  -28.6501   23.0344 C   0  0  0  0  0  0
  -26.4458  -31.6622   25.0726 C   0  0  0  0  0  0
  -25.3749  -31.3759   26.1508 C   0  0  0  0  0  0
  -27.0247  -30.3052   24.6083 C   0  0  0  0  0  0
  -27.6075  -32.4312   25.7447 C   0  0  0  0  0  0
  -27.5610  -37.1772   24.8425 C   0  0  0  0  0  0
  -21.4111  -29.3026   22.3755 N   0  0  0  0  0  0
  -26.4269  -37.3830   23.9450 N   0  0  0  0  0  0
  -24.6587  -31.0865   22.1008 N   0  0  0  0  0  0
  -23.4179  -28.8207   23.3021 O   0  0  0  0  0  0
  -28.3895  -26.7584   20.1128 O   0  0  0  0  0  0
  -26.5609  -34.8940   22.4712 O   0  0  0  0  0  0
  -23.5300  -32.1450   23.7559 O   0  0  0  0  0  0
  -31.1016  -20.3903   19.5816 C   0  0  0  0  0  0
  -31.1215  -18.9934   19.5531 C   0  0  0  0  0  0
  -29.8008  -20.3115   21.6315 C   0  0  0  0  0  0
  -30.4555  -21.0619   20.6271 C   0  0  0  0  0  0
  -30.5283  -18.2251   20.5786 C   0  0  0  0  0  0
  -29.8497  -18.8946   21.6332 C   0  0  0  0  0  0
  -30.4433  -22.5229   20.5585 C   0  0  0  0  0  0
  -30.7469  -16.7783   20.4165 C   0  0  0  0  0  0
  -29.4760  -23.3237   21.0315 C   0  0  0  0  0  0
  -30.1537  -15.6594   20.9017 C   0  0  0  0  0  0
  -29.5673  -24.7765   20.8529 C   0  0  0  0  0  0
  -27.7386  -17.8492   22.5838 C   0  0  0  0  0  0
  -29.2247  -18.1550   22.8067 C   0  0  0  0  0  0
  -28.2454  -25.5341   20.8267 C   0  0  0  0  0  0
  -30.6378  -25.3799   20.7087 O   0  0  0  0  0  0
  -31.4369  -12.2560   19.1543 H   0  0  0  0  0  0
  -30.2179  -11.2510   19.8651 H   0  0  0  0  0  0
  -29.7201  -11.7394   17.4419 H   0  0  0  0  0  0
  -29.6833  -13.4545   17.7817 H   0  0  0  0  0  0
  -27.8110  -11.3044   18.8349 H   0  0  0  0  0  0
  -27.3618  -12.6236   17.7873 H   0  0  0  0  0  0
  -27.6906  -14.2591   19.5497 H   0  0  0  0  0  0
  -28.6468  -12.0297   21.4016 H   0  0  0  0  0  0
  -28.4779  -13.6999   21.8380 H   0  0  0  0  0  0
  -25.2747   -9.5719   22.4761 H   0  0  0  0  0  0
  -24.0019   -7.4634   22.7461 H   0  0  0  0  0  0
  -21.0824   -8.8751   19.8969 H   0  0  0  0  0  0
  -22.3639  -10.9680   19.6174 H   0  0  0  0  0  0
  -21.1986   -7.6146   23.9732 H   0  0  0  0  0  0
  -21.1499   -6.0518   25.9089 H   0  0  0  0  0  0
  -22.0591   -2.7609   23.2840 H   0  0  0  0  0  0
  -22.4074  -11.9969   22.4838 H   0  0  0  0  0  0
  -21.1102  -13.1360   22.2598 H   0  0  0  0  0  0
  -24.6750  -15.8547   20.5325 H   0  0  0  0  0  0
  -26.2962  -15.6250   20.1118 H   0  0  0  0  0  0
  -26.7075  -32.5579   23.1183 H   0  0  0  0  0  0
  -24.9948  -33.9804   25.0427 H   0  0  0  0  0  0
  -22.6811  -31.3122   21.4177 H   0  0  0  0  0  0
  -23.3776  -35.9623   23.3201 H   0  0  0  0  0  0
  -24.3599  -36.9052   22.2068 H   0  0  0  0  0  0
  -23.7168  -37.6476   23.6712 H   0  0  0  0  0  0
  -26.0191  -31.6234   20.5906 H   0  0  0  0  0  0
  -26.8093  -30.9096   21.9700 H   0  0  0  0  0  0
  -28.0940  -29.1571   21.1439 H   0  0  0  0  0  0
  -26.0694  -25.9875   19.0264 H   0  0  0  0  0  0
  -23.9741  -27.2935   19.0486 H   0  0  0  0  0  0
  -23.6985  -30.6016   19.4045 H   0  0  0  0  0  0
  -22.7254  -29.2415   19.8763 H   0  0  0  0  0  0
  -25.1256  -36.1981   25.0829 H   0  0  0  0  0  0
  -20.9932  -28.3196   24.1453 H   0  0  0  0  0  0
  -20.5601  -26.2256   23.3617 H   0  0  0  0  0  0
  -21.6620  -26.7404   22.1251 H   0  0  0  0  0  0
  -19.6883  -25.6285   21.1231 H   0  0  0  0  0  0
  -19.6678  -27.3189   20.6752 H   0  0  0  0  0  0
  -17.4181  -26.6675   21.4005 H   0  0  0  0  0  0
  -18.0290  -26.0054   22.8997 H   0  0  0  0  0  0
  -19.7923  -30.7223   24.2314 H   0  0  0  0  0  0
  -17.5013  -31.6274   24.5141 H   0  0  0  0  0  0
  -15.5341  -30.3004   23.7631 H   0  0  0  0  0  0
  -15.8642  -28.0833   22.7048 H   0  0  0  0  0  0
  -24.5792  -30.7275   25.7825 H   0  0  0  0  0  0
  -24.9110  -32.2956   26.5087 H   0  0  0  0  0  0
  -25.8083  -30.8764   27.0184 H   0  0  0  0  0  0
  -26.2757  -29.6822   24.1180 H   0  0  0  0  0  0
  -27.4046  -29.7286   25.4528 H   0  0  0  0  0  0
  -27.8590  -30.4349   23.9187 H   0  0  0  0  0  0
  -27.2727  -33.3572   26.2131 H   0  0  0  0  0  0
  -28.3811  -32.6942   25.0221 H   0  0  0  0  0  0
  -28.0838  -31.8378   26.5263 H   0  0  0  0  0  0
  -28.2524  -38.0170   24.7660 H   0  0  0  0  0  0
  -28.1207  -36.2731   24.5995 H   0  0  0  0  0  0
  -27.2379  -37.1106   25.8824 H   0  0  0  0  0  0
  -20.9252  -29.8791   21.7027 H   0  0  0  0  0  0
  -26.0161  -38.2878   24.1579 H   0  0  0  0  0  0
  -31.5826  -20.9437   18.7856 H   0  0  0  0  0  0
  -31.6332  -18.5164   18.7287 H   0  0  0  0  0  0
  -29.2927  -20.8251   22.4346 H   0  0  0  0  0  0
  -31.3019  -22.9717   20.0741 H   0  0  0  0  0  0
  -31.6010  -16.6245   19.7700 H   0  0  0  0  0  0
  -28.6010  -22.9258   21.5234 H   0  0  0  0  0  0
  -29.2832  -15.6895   21.5338 H   0  0  0  0  0  0
  -27.3317  -17.2777   23.4183 H   0  0  0  0  0  0
  -27.5784  -17.2723   21.6728 H   0  0  0  0  0  0
  -27.1607  -18.7699   22.4999 H   0  0  0  0  0  0
  -29.3317  -18.7630   23.7057 H   0  0  0  0  0  0
  -29.7860  -17.2480   23.0254 H   0  0  0  0  0  0
  -27.9321  -25.7330   21.8523 H   0  0  0  0  0  0
  -27.4888  -24.9008   20.3637 H   0  0  0  0  0  0
  1 25  1  0  0  0
  1 30  2  0  0  0
  1 80  1  0  0  0
  2  3  1  0  0  0
  2 25  1  0  0  0
  2 86  1  0  0  0
  2 87  1  0  0  0
  3  4  1  0  0  0
  3 88  1  0  0  0
  3 89  1  0  0  0
  4  5  1  0  0  0
  4 90  1  0  0  0
  4 91  1  0  0  0
  5  6  1  0  0  0
  5 26  1  0  0  0
  5 92  1  0  0  0
  6 25  1  0  0  0
  6 93  1  0  0  0
  6 94  1  0  0  0
  7  8  2  0  0  0
  7 26  1  0  0  0
  7 29  1  0  0  0
  8  9  1  0  0  0
  8 22  1  0  0  0
  9 10  1  0  0  0
  9 27  2  0  0  0
 10 11  2  0  0  0
 10 15  1  0  0  0
 11 12  1  0  0  0
 11 95  1  0  0  0
 12 13  2  0  0  0
 12 96  1  0  0  0
 13 14  1  0  0  0
 13 31  1  0  0  0
 14 15  2  0  0  0
 14 97  1  0  0  0
 15 98  1  0  0  0
 16 17  2  0  0  0
 16 21  1  0  0  0
 16 31  1  0  0  0
 17 18  1  0  0  0
 17 99  1  0  0  0
 18 19  2  0  0  0
 18100  1  0  0  0
 19 20  1  0  0  0
 19 24  1  0  0  0
 20 21  2  0  0  0
 20101  1  0  0  0
 21 23  1  0  0  0
 22 28  1  0  0  0
 22 32  2  0  0  0
 26 27  1  0  0  0
 28102  1  0  0  0
 28103  1  0  0  0
 29104  1  0  0  0
 29105  1  0  0  0
 33 34  1  0  0  0
 33 66  1  0  0  0
 33 70  2  0  0  0
 34 36  1  0  0  0
 34 59  1  0  0  0
 34106  1  0  0  0
 35 44  2  0  0  0
 35 45  1  0  0  0
 35 68  1  0  0  0
 36 56  1  0  0  0
 36107  1  0  0  0
 37 39  1  0  0  0
 37 47  1  0  0  0
 37 66  1  0  0  0
 37108  1  0  0  0
 38 43  2  0  0  0
 38 46  1  0  0  0
 38 47  1  0  0  0
 39 64  1  0  0  0
 39 67  2  0  0  0
 40 52  1  0  0  0
 40 53  2  0  0  0
 40 58  1  0  0  0
 41109  1  0  0  0
 41110  1  0  0  0
 41111  1  0  0  0
 41 48  1  0  0  0
 42 43  1  0  0  0
 42 66  1  0  0  0
 42112  1  0  0  0
 42113  1  0  0  0
 43 44  1  0  0  0
 44114  1  0  0  0
 45 46  2  0  0  0
 45115  1  0  0  0
 46116  1  0  0  0
 47117  1  0  0  0
 47118  1  0  0  0
 48 56  1  0  0  0
 48 65  1  0  0  0
 48119  1  0  0  0
 49 50  1  0  0  0
 49 53  1  0  0  0
 49 64  1  0  0  0
 49120  1  0  0  0
 50 51  1  0  0  0
 50121  1  0  0  0
 50122  1  0  0  0
 51 52  1  0  0  0
 51123  1  0  0  0
 51124  1  0  0  0
 52125  1  0  0  0
 52126  1  0  0  0
 53 54  1  0  0  0
 54 55  2  0  0  0
 54127  1  0  0  0
 55 57  1  0  0  0
 55128  1  0  0  0
 56 69  2  0  0  0
 57 58  2  0  0  0
 57129  1  0  0  0
 58130  1  0  0  0
 59 60  1  0  0  0
 59 61  1  0  0  0
 59 62  1  0  0  0
 60131  1  0  0  0
 60132  1  0  0  0
 60133  1  0  0  0
 61134  1  0  0  0
 61135  1  0  0  0
 61136  1  0  0  0
 62137  1  0  0  0
 62138  1  0  0  0
 62139  1  0  0  0
 63 65  1  0  0  0
 63140  1  0  0  0
 63141  1  0  0  0
 63142  1  0  0  0
 64143  1  0  0  0
 65144  1  0  0  0
 68 84  1  0  0  0
 71 72  2  0  0  0
 71 74  1  0  0  0
 71145  1  0  0  0
 72 75  1  0  0  0
 72146  1  0  0  0
 73 74  2  0  0  0
 73 76  1  0  0  0
 73147  1  0  0  0
 74 77  1  0  0  0
 75 76  2  0  0  0
 75 78  1  0  0  0
 76 83  1  0  0  0
 77 79  2  0  0  0
 77148  1  0  0  0
 78 80  2  0  0  0
 78149  1  0  0  0
 79 81  1  0  0  0
 79150  1  0  0  0
 80151  1  0  0  0
 81 84  1  0  0  0
 81 85  2  0  0  0
 82 83  1  0  0  0
 82152  1  0  0  0
 82153  1  0  0  0
 82154  1  0  0  0
 83155  1  0  0  0
 83156  1  0  0  0
 84157  1  0  0  0
 84158  1  0  0  0
M  ISO  4   1 100  68 101  80 100  84 101
M  END
> <chiral flag>
0

> <version>
0

> <s_m_source_file>
/data/baiqing/PycharmProjects/Reinvent-master-3.2/result/LINK_invent/BTK/process_docking_weight1_custom_product_contain_oxygen_bond_distance_aromatic_linkinvent_7_9_3/rearranged_h_0126.sdf

> <i_m_source_file_index>
3

> <r_mmod_Potential_Energy-OPLS-2005>
20.4817066192627

> <r_mmod_Stretch_Energy-OPLS-2005>
32.194393157959

> <r_mmod_Bend_Energy-OPLS-2005>
118.294380187988

> <r_mmod_Torsional_Energy-OPLS-2005>
217.086822509766

> <r_mmod_Improper_Torsional_Energy-OPLS-2005>
4.22632551193237

> <r_mmod_Van_der_Waal_Energy-OPLS-2005>
169.940048217773

> <r_mmod_Electrostatic_Energy-OPLS-2005>
-332.442077636719

> <r_mmod_Solvation_Energy-OPLS-2005>
-211.367385864258

> <b_mmod_Minimization_Converged-OPLS-2005>
0

> <r_mmod_RMS_Derivative-OPLS-2005>
1.74309194087982

$$$$
3
                    3D
 Structure written by MMmdl.
154162  0  0  1  0            999 V2000
  -30.5794  -14.8705   20.4352 C   0  0  0  0  0  0
  -30.4312  -12.5261   19.5210 C   0  0  0  0  0  0
  -29.5263  -12.5302   18.2676 C   0  0  0  0  0  0
  -28.0520  -12.3322   18.6669 C   0  0  0  0  0  0
  -27.6364  -13.2464   19.8503 C   0  0  2  0  0  0
  -28.6732  -13.2359   20.9934 C   0  0  0  0  0  0
  -25.2485  -13.8223   20.5713 C   0  0  0  0  0  0
  -24.1790  -13.0452   20.9213 C   0  0  0  0  0  0
  -24.6399  -11.6934   20.8752 C   0  0  0  0  0  0
  -23.9078  -10.4307   21.0407 C   0  0  0  0  0  0
  -24.3633   -9.4219   21.9178 C   0  0  0  0  0  0
  -23.6315   -8.2248   22.0746 C   0  0  0  0  0  0
  -22.4294   -8.0281   21.3547 C   0  0  0  0  0  0
  -21.9935   -9.0247   20.4643 C   0  0  0  0  0  0
  -22.7252  -10.2134   20.3053 C   0  0  0  0  0  0
  -21.6849   -6.0752   22.5289 C   0  0  0  0  0  0
  -21.4009   -6.5653   23.8227 C   0  0  0  0  0  0
  -21.3664   -5.6800   24.9178 C   0  0  0  0  0  0
  -21.6052   -4.3060   24.7219 C   0  0  0  0  0  0
  -21.8814   -3.8158   23.4336 C   0  0  0  0  0  0
  -21.9191   -4.6985   22.3402 C   0  0  0  0  0  0
  -22.7811  -13.5225   21.1880 C   0  0  0  0  0  0
  -22.1661   -4.2175   21.0973 F   0  0  0  0  0  0
  -21.5629   -3.4540   25.7731 F   0  0  0  0  0  0
  -29.9699  -13.6200   20.4226 N   0  0  0  0  0  0
  -26.2914  -12.9451   20.3272 N   0  0  0  0  0  0
  -25.9332  -11.6582   20.5749 N   0  0  0  0  0  0
  -22.0463  -12.8202   22.0429 N   0  0  0  0  0  0
  -25.4172  -15.1951   20.4146 N   0  0  0  0  0  0
  -31.7623  -14.9100   20.0774 O   0  0  0  0  0  0
  -21.6644   -6.8888   21.4245 O   0  0  0  0  0  0
  -22.3497  -14.5530   20.6719 O   0  0  0  0  0  0
  -24.6378  -31.8484   23.1925 C   0  0  0  0  0  0
  -25.9174  -32.4718   23.8292 C   0  0  1  0  0  0
  -27.2193  -27.1769   20.1498 C   0  0  0  0  0  0
  -25.5949  -33.8526   24.2217 N   0  0  0  0  0  0
  -23.4404  -30.4699   21.5341 C   0  0  2  0  0  0
  -24.8917  -28.9030   20.1061 C   0  0  0  0  0  0
  -22.7521  -29.4577   22.4837 C   0  0  0  0  0  0
  -18.0302  -28.1393   22.8476 C   0  0  0  0  0  0
  -24.1491  -36.7256   23.2637 C   0  0  0  0  0  0
  -25.9927  -30.7334   21.3883 C   0  0  0  0  0  0
  -26.0648  -29.3496   20.7268 C   0  0  0  0  0  0
  -27.2285  -28.5006   20.7352 C   0  0  0  0  0  0
  -26.0258  -26.8241   19.4839 C   0  0  0  0  0  0
  -24.8836  -27.6522   19.4697 C   0  0  0  0  0  0
  -23.6665  -29.8015   20.1514 C   0  0  0  0  0  0
  -25.4123  -36.3041   24.0314 C   0  0  1  0  0  0
  -20.5905  -28.3727   23.1231 C   0  0  2  0  0  0
  -20.6786  -26.9427   22.5405 C   0  0  0  0  0  0
  -19.5764  -26.6384   21.5210 C   0  0  0  0  0  0
  -18.1944  -26.7934   22.1618 C   0  0  0  0  0  0
  -19.1554  -28.8875   23.2856 C   0  0  0  0  0  0
  -18.9478  -30.1468   23.8888 C   0  0  0  0  0  0
  -17.6478  -30.6595   24.0563 C   0  0  0  0  0  0
  -25.9069  -34.9419   23.5069 C   0  0  0  0  0  0
  -16.5370  -29.9089   23.6337 C   0  0  0  0  0  0
  -16.7283  -28.6505   23.0356 C   0  0  0  0  0  0
  -26.4523  -31.6555   25.0705 C   0  0  0  0  0  0
  -25.3730  -31.3748   26.1417 C   0  0  0  0  0  0
  -27.0376  -30.2939   24.6277 C   0  0  0  0  0  0
  -27.6063  -32.4312   25.7482 C   0  0  0  0  0  0
  -27.5591  -37.1773   24.8453 C   0  0  0  0  0  0
  -21.4220  -29.3064   22.3588 N   0  0  0  0  0  0
  -26.4287  -37.3764   23.9418 N   0  0  0  0  0  0
  -24.7090  -31.0370   22.0941 N   0  0  0  0  0  0
  -23.4179  -28.8125   23.2977 O   0  0  0  0  0  0
  -28.2830  -26.2215   20.2456 O   0  0  0  0  0  0
  -26.5644  -34.8913   22.4642 O   0  0  0  0  0  0
  -23.5503  -32.1350   23.7165 O   0  0  0  0  0  0
  -29.1049  -19.7569   19.3281 C   0  0  0  0  0  0
  -29.7467  -19.7371   21.5814 C   0  0  0  0  0  0
  -29.5892  -18.9422   20.4076 C   0  0  0  0  0  0
  -29.0507  -21.9957   20.5630 C   0  0  0  0  0  0
  -28.8254  -21.1882   19.3857 C   0  0  0  0  0  0
  -29.5046  -21.1645   21.6552 C   0  0  0  0  0  0
  -30.1002  -17.4448   20.2336 C   0  0  0  0  0  0
  -29.8052  -16.1663   20.7510 C   0  0  0  0  0  0
  -28.9970  -23.6109   20.7314 C   0  0  0  0  0  0
  -29.3843  -22.5155   17.2829 C   0  0  0  0  0  0
  -28.2935  -21.8242   18.1093 C   0  0  0  0  0  0
  -28.0687  -24.7152   19.9656 C   0  0  0  0  0  0
  -29.7423  -24.1229   21.5739 O   0  0  0  0  0  0
  -29.7468  -21.7403   22.8575 F   0  0  0  0  0  0
  -31.4766  -12.6378   19.2295 H   0  0  0  0  0  0
  -30.3731  -11.5628   20.0300 H   0  0  0  0  0  0
  -29.8360  -11.7488   17.5716 H   0  0  0  0  0  0
  -29.6396  -13.4760   17.7359 H   0  0  0  0  0  0
  -27.9260  -11.2852   18.9445 H   0  0  0  0  0  0
  -27.3978  -12.4978   17.8111 H   0  0  0  0  0  0
  -27.6144  -14.2595   19.4495 H   0  0  0  0  0  0
  -28.7324  -12.2492   21.4553 H   0  0  0  0  0  0
  -28.3810  -13.9231   21.7872 H   0  0  0  0  0  0
  -25.2777   -9.5686   22.4754 H   0  0  0  0  0  0
  -24.0034   -7.4626   22.7448 H   0  0  0  0  0  0
  -21.0874   -8.8733   19.8942 H   0  0  0  0  0  0
  -22.3693  -10.9659   19.6160 H   0  0  0  0  0  0
  -21.1996   -7.6160   23.9743 H   0  0  0  0  0  0
  -21.1500   -6.0521   25.9089 H   0  0  0  0  0  0
  -22.0594   -2.7622   23.2820 H   0  0  0  0  0  0
  -22.4090  -11.9886   22.4849 H   0  0  0  0  0  0
  -21.1068  -13.1191   22.2613 H   0  0  0  0  0  0
  -24.6525  -15.8520   20.5275 H   0  0  0  0  0  0
  -26.2748  -15.6356   20.1052 H   0  0  0  0  0  0
  -26.7231  -32.5337   23.1015 H   0  0  0  0  0  0
  -25.0081  -33.9657   25.0353 H   0  0  0  0  0  0
  -22.7430  -31.2964   21.3825 H   0  0  0  0  0  0
  -23.3784  -35.9555   23.3246 H   0  0  0  0  0  0
  -24.3595  -36.8940   22.2065 H   0  0  0  0  0  0
  -23.7206  -37.6419   23.6708 H   0  0  0  0  0  0
  -26.1486  -31.4953   20.6234 H   0  0  0  0  0  0
  -26.8625  -30.7792   22.0319 H   0  0  0  0  0  0
  -28.1200  -28.8348   21.2462 H   0  0  0  0  0  0
  -25.9438  -25.8726   18.9808 H   0  0  0  0  0  0
  -23.9896  -27.3078   18.9691 H   0  0  0  0  0  0
  -23.8010  -30.5807   19.3995 H   0  0  0  0  0  0
  -22.7819  -29.2432   19.8392 H   0  0  0  0  0  0
  -25.1308  -36.1870   25.0807 H   0  0  0  0  0  0
  -21.0023  -28.3335   24.1342 H   0  0  0  0  0  0
  -20.5679  -26.2345   23.3630 H   0  0  0  0  0  0
  -21.6654  -26.7437   22.1205 H   0  0  0  0  0  0
  -19.6927  -25.6289   21.1263 H   0  0  0  0  0  0
  -19.6705  -27.3183   20.6731 H   0  0  0  0  0  0
  -17.4211  -26.6679   21.4024 H   0  0  0  0  0  0
  -18.0340  -26.0084   22.9020 H   0  0  0  0  0  0
  -19.7950  -30.7288   24.2249 H   0  0  0  0  0  0
  -17.5031  -31.6278   24.5153 H   0  0  0  0  0  0
  -15.5369  -30.2993   23.7672 H   0  0  0  0  0  0
  -15.8672  -28.0829   22.7075 H   0  0  0  0  0  0
  -24.5865  -30.7155   25.7734 H   0  0  0  0  0  0
  -24.8986  -32.2941   26.4852 H   0  0  0  0  0  0
  -25.8015  -30.8886   27.0187 H   0  0  0  0  0  0
  -26.2979  -29.6653   24.1303 H   0  0  0  0  0  0
  -27.3998  -29.7247   25.4847 H   0  0  0  0  0  0
  -27.8890  -30.4151   23.9580 H   0  0  0  0  0  0
  -27.2659  -33.3631   26.2006 H   0  0  0  0  0  0
  -28.3898  -32.6835   25.0326 H   0  0  0  0  0  0
  -28.0696  -31.8470   26.5440 H   0  0  0  0  0  0
  -28.2552  -38.0126   24.7575 H   0  0  0  0  0  0
  -28.1147  -36.2661   24.6182 H   0  0  0  0  0  0
  -27.2319  -37.1283   25.8856 H   0  0  0  0  0  0
  -20.9398  -29.8777   21.6785 H   0  0  0  0  0  0
  -26.0147  -38.2818   24.1489 H   0  0  0  0  0  0
  -28.9692  -19.2586   18.3781 H   0  0  0  0  0  0
  -30.1304  -19.2511   22.4666 H   0  0  0  0  0  0
  -30.9341  -17.4196   19.5449 H   0  0  0  0  0  0
  -28.9825  -16.0944   21.4467 H   0  0  0  0  0  0
  -28.9647  -22.9436   16.3716 H   0  0  0  0  0  0
  -30.1579  -21.8053   16.9878 H   0  0  0  0  0  0
  -29.8658  -23.3224   17.8340 H   0  0  0  0  0  0
  -27.4832  -22.5129   18.3491 H   0  0  0  0  0  0
  -27.8297  -21.0511   17.4938 H   0  0  0  0  0  0
  -27.0392  -24.4530   20.2053 H   0  0  0  0  0  0
  -28.1820  -24.5699   18.8923 H   0  0  0  0  0  0
  1 25  1  0  0  0
  1 30  2  0  0  0
  1 78  1  0  0  0
  2  3  1  0  0  0
  2 25  1  0  0  0
  2 85  1  0  0  0
  2 86  1  0  0  0
  3  4  1  0  0  0
  3 87  1  0  0  0
  3 88  1  0  0  0
  4  5  1  0  0  0
  4 89  1  0  0  0
  4 90  1  0  0  0
  5  6  1  0  0  0
  5 26  1  0  0  0
  5 91  1  0  0  0
  6 25  1  0  0  0
  6 92  1  0  0  0
  6 93  1  0  0  0
  7  8  2  0  0  0
  7 26  1  0  0  0
  7 29  1  0  0  0
  8  9  1  0  0  0
  8 22  1  0  0  0
  9 10  1  0  0  0
  9 27  2  0  0  0
 10 11  2  0  0  0
 10 15  1  0  0  0
 11 12  1  0  0  0
 11 94  1  0  0  0
 12 13  2  0  0  0
 12 95  1  0  0  0
 13 14  1  0  0  0
 13 31  1  0  0  0
 14 15  2  0  0  0
 14 96  1  0  0  0
 15 97  1  0  0  0
 16 17  2  0  0  0
 16 21  1  0  0  0
 16 31  1  0  0  0
 17 18  1  0  0  0
 17 98  1  0  0  0
 18 19  2  0  0  0
 18 99  1  0  0  0
 19 20  1  0  0  0
 19 24  1  0  0  0
 20 21  2  0  0  0
 20100  1  0  0  0
 21 23  1  0  0  0
 22 28  1  0  0  0
 22 32  2  0  0  0
 26 27  1  0  0  0
 28101  1  0  0  0
 28102  1  0  0  0
 29103  1  0  0  0
 29104  1  0  0  0
 33 34  1  0  0  0
 33 66  1  0  0  0
 33 70  2  0  0  0
 34 36  1  0  0  0
 34 59  1  0  0  0
 34105  1  0  0  0
 35 44  2  0  0  0
 35 45  1  0  0  0
 35 68  1  0  0  0
 36 56  1  0  0  0
 36106  1  0  0  0
 37 39  1  0  0  0
 37 47  1  0  0  0
 37 66  1  0  0  0
 37107  1  0  0  0
 38 43  2  0  0  0
 38 46  1  0  0  0
 38 47  1  0  0  0
 39 64  1  0  0  0
 39 67  2  0  0  0
 40 52  1  0  0  0
 40 53  2  0  0  0
 40 58  1  0  0  0
 41108  1  0  0  0
 41109  1  0  0  0
 41110  1  0  0  0
 41 48  1  0  0  0
 42 43  1  0  0  0
 42 66  1  0  0  0
 42111  1  0  0  0
 42112  1  0  0  0
 43 44  1  0  0  0
 44113  1  0  0  0
 45 46  2  0  0  0
 45114  1  0  0  0
 46115  1  0  0  0
 47116  1  0  0  0
 47117  1  0  0  0
 48 56  1  0  0  0
 48 65  1  0  0  0
 48118  1  0  0  0
 49 50  1  0  0  0
 49 53  1  0  0  0
 49 64  1  0  0  0
 49119  1  0  0  0
 50 51  1  0  0  0
 50120  1  0  0  0
 50121  1  0  0  0
 51 52  1  0  0  0
 51122  1  0  0  0
 51123  1  0  0  0
 52124  1  0  0  0
 52125  1  0  0  0
 53 54  1  0  0  0
 54 55  2  0  0  0
 54126  1  0  0  0
 55 57  1  0  0  0
 55127  1  0  0  0
 56 69  2  0  0  0
 57 58  2  0  0  0
 57128  1  0  0  0
 58129  1  0  0  0
 59 60  1  0  0  0
 59 61  1  0  0  0
 59 62  1  0  0  0
 60130  1  0  0  0
 60131  1  0  0  0
 60132  1  0  0  0
 61133  1  0  0  0
 61134  1  0  0  0
 61135  1  0  0  0
 62136  1  0  0  0
 62137  1  0  0  0
 62138  1  0  0  0
 63 65  1  0  0  0
 63139  1  0  0  0
 63140  1  0  0  0
 63141  1  0  0  0
 64142  1  0  0  0
 65143  1  0  0  0
 68 82  1  0  0  0
 71 73  2  0  0  0
 71 75  1  0  0  0
 71144  1  0  0  0
 72 73  1  0  0  0
 72 76  2  0  0  0
 72145  1  0  0  0
 73 77  1  0  0  0
 74 75  2  0  0  0
 74 76  1  0  0  0
 74 79  1  0  0  0
 75 81  1  0  0  0
 76 84  1  0  0  0
 77 78  2  0  0  0
 77146  1  0  0  0
 78147  1  0  0  0
 79 82  1  0  0  0
 79 83  2  0  0  0
 80 81  1  0  0  0
 80148  1  0  0  0
 80149  1  0  0  0
 80150  1  0  0  0
 81151  1  0  0  0
 81152  1  0  0  0
 82153  1  0  0  0
 82154  1  0  0  0
M  ISO  4   1 100  68 101  78 100  82 101
M  END
> <chiral flag>
0

> <version>
0

> <s_m_source_file>
/data/baiqing/PycharmProjects/Reinvent-master-3.2/result/LINK_invent/BTK/process_docking_weight1_custom_product_contain_oxygen_bond_distance_aromatic_linkinvent_7_9_3/rearranged_h_0126.sdf

> <i_m_source_file_index>
4

> <r_mmod_Potential_Energy-OPLS-2005>
471.232330322266

> <r_mmod_Stretch_Energy-OPLS-2005>
203.230133056641

> <r_mmod_Bend_Energy-OPLS-2005>
226.662322998047

> <r_mmod_Torsional_Energy-OPLS-2005>
237.041091918945

> <r_mmod_Improper_Torsional_Energy-OPLS-2005>
4.68332672119141

> <r_mmod_Van_der_Waal_Energy-OPLS-2005>
137.457107543945

> <r_mmod_Electrostatic_Energy-OPLS-2005>
-270.430999755859

> <r_mmod_Solvation_Energy-OPLS-2005>
-214.179275512695

> <b_mmod_Minimization_Converged-OPLS-2005>
0

> <r_mmod_RMS_Derivative-OPLS-2005>
1.98581624031067

$$$$
4
                    3D
 Structure written by MMmdl.
157165  0  0  1  0            999 V2000
  -30.5450  -14.7627   20.5155 C   0  0  0  0  0  0
  -30.4321  -12.4764   19.4772 C   0  0  0  0  0  0
  -29.5102  -12.5074   18.2343 C   0  0  0  0  0  0
  -28.0279  -12.3438   18.6341 C   0  0  0  0  0  0
  -27.6285  -13.2358   19.8382 C   0  0  2  0  0  0
  -28.6620  -13.1460   20.9763 C   0  0  0  0  0  0
  -25.2436  -13.8271   20.5705 C   0  0  0  0  0  0
  -24.1759  -13.0468   20.9309 C   0  0  0  0  0  0
  -24.6387  -11.6968   20.8831 C   0  0  0  0  0  0
  -23.9104  -10.4314   21.0447 C   0  0  0  0  0  0
  -24.3657   -9.4186   21.9173 C   0  0  0  0  0  0
  -23.6323   -8.2220   22.0700 C   0  0  0  0  0  0
  -22.4285   -8.0307   21.3520 C   0  0  0  0  0  0
  -21.9968   -9.0294   20.4607 C   0  0  0  0  0  0
  -22.7317  -10.2161   20.3046 C   0  0  0  0  0  0
  -21.6857   -6.0756   22.5262 C   0  0  0  0  0  0
  -21.4020   -6.5638   23.8208 C   0  0  0  0  0  0
  -21.3655   -5.6774   24.9162 C   0  0  0  0  0  0
  -21.6035   -4.3039   24.7198 C   0  0  0  0  0  0
  -21.8829   -3.8154   23.4315 C   0  0  0  0  0  0
  -21.9199   -4.6986   22.3384 C   0  0  0  0  0  0
  -22.7762  -13.5216   21.1975 C   0  0  0  0  0  0
  -22.1658   -4.2199   21.0953 F   0  0  0  0  0  0
  -21.5643   -3.4505   25.7695 F   0  0  0  0  0  0
  -29.9613  -13.5227   20.4091 N   0  0  0  0  0  0
  -26.2834  -12.9467   20.3183 N   0  0  0  0  0  0
  -25.9285  -11.6624   20.5721 N   0  0  0  0  0  0
  -22.0442  -12.8154   22.0544 N   0  0  0  0  0  0
  -25.4090  -15.2003   20.4071 N   0  0  0  0  0  0
  -31.7482  -14.9055   20.2735 O   0  0  0  0  0  0
  -21.6637   -6.8910   21.4221 O   0  0  0  0  0  0
  -22.3385  -14.5446   20.6773 O   0  0  0  0  0  0
  -24.6309  -31.8519   23.1897 C   0  0  0  0  0  0
  -25.9136  -32.4716   23.8262 C   0  0  1  0  0  0
  -27.2292  -27.2700   20.1362 C   0  0  0  0  0  0
  -25.5937  -33.8518   24.2192 N   0  0  0  0  0  0
  -23.4324  -30.4701   21.5292 C   0  0  2  0  0  0
  -24.8820  -28.9146   20.1073 C   0  0  0  0  0  0
  -22.7545  -29.4539   22.4792 C   0  0  0  0  0  0
  -18.0320  -28.1404   22.8430 C   0  0  0  0  0  0
  -24.1480  -36.7236   23.2637 C   0  0  0  0  0  0
  -25.9750  -30.7668   21.3753 C   0  0  0  0  0  0
  -26.0503  -29.3934   20.7107 C   0  0  0  0  0  0
  -27.2325  -28.5880   20.6999 C   0  0  0  0  0  0
  -26.0346  -26.8452   19.5199 C   0  0  0  0  0  0
  -24.8800  -27.6509   19.4933 C   0  0  0  0  0  0
  -23.6536  -29.7978   20.1468 C   0  0  0  0  0  0
  -25.4120  -36.3036   24.0309 C   0  0  1  0  0  0
  -20.5921  -28.3717   23.1194 C   0  0  2  0  0  0
  -20.6786  -26.9414   22.5394 C   0  0  0  0  0  0
  -19.5762  -26.6359   21.5195 C   0  0  0  0  0  0
  -18.1947  -26.7925   22.1605 C   0  0  0  0  0  0
  -19.1583  -28.8867   23.2777 C   0  0  0  0  0  0
  -18.9532  -30.1464   23.8811 C   0  0  0  0  0  0
  -17.6542  -30.6587   24.0563 C   0  0  0  0  0  0
  -25.9056  -34.9424   23.5051 C   0  0  0  0  0  0
  -16.5412  -29.9116   23.6347 C   0  0  0  0  0  0
  -16.7311  -28.6534   23.0335 C   0  0  0  0  0  0
  -26.4538  -31.6585   25.0697 C   0  0  0  0  0  0
  -25.3762  -31.3819   26.1423 C   0  0  0  0  0  0
  -27.0411  -30.2967   24.6285 C   0  0  0  0  0  0
  -27.6004  -32.4433   25.7516 C   0  0  0  0  0  0
  -27.5553  -37.1768   24.8454 C   0  0  0  0  0  0
  -21.4244  -29.3044   22.3580 N   0  0  0  0  0  0
  -26.4262  -37.3775   23.9411 N   0  0  0  0  0  0
  -24.6971  -31.0491   22.0874 N   0  0  0  0  0  0
  -23.4243  -28.8063   23.2887 O   0  0  0  0  0  0
  -28.3303  -26.3899   20.1425 O   0  0  0  0  0  0
  -26.5626  -34.8923   22.4616 O   0  0  0  0  0  0
  -23.5454  -32.1309   23.7191 O   0  0  0  0  0  0
  -29.3193  -18.4425   23.2809 C   0  0  0  0  0  0
  -29.5137  -18.4672   20.5339 C   0  0  0  0  0  0
  -29.5580  -17.2236   22.6251 C   0  0  0  0  0  0
  -29.1678  -19.6814   22.6187 C   0  0  0  0  0  0
  -29.6692  -17.1791   21.2139 C   0  0  0  0  0  0
  -29.2842  -19.7598   21.1903 C   0  0  0  0  0  0
  -29.6053  -15.9796   23.5032 C   0  0  0  0  0  0
  -28.8692  -20.8475   23.5570 C   0  0  0  0  0  0
  -28.7379  -23.6623   20.0225 C   0  0  0  0  0  0
  -28.1460  -25.0096   20.6982 C   0  0  0  0  0  0
  -28.7402  -22.3180   20.9244 C   0  0  0  0  0  0
  -29.6638  -15.8416   20.5649 N   0  0  0  0  0  0
  -29.1795  -20.9725   20.4170 O   0  0  0  0  0  0
  -31.4725  -12.6372   19.1913 H   0  0  0  0  0  0
  -30.3972  -11.4986   19.9606 H   0  0  0  0  0  0
  -29.8010  -11.7197   17.5364 H   0  0  0  0  0  0
  -29.6408  -13.4517   17.7029 H   0  0  0  0  0  0
  -27.8667  -11.2953   18.8874 H   0  0  0  0  0  0
  -27.3781  -12.5546   17.7847 H   0  0  0  0  0  0
  -27.6191  -14.2592   19.4586 H   0  0  0  0  0  0
  -28.6928  -12.1404   21.3992 H   0  0  0  0  0  0
  -28.3752  -13.8079   21.7918 H   0  0  0  0  0  0
  -25.2829   -9.5626   22.4731 H   0  0  0  0  0  0
  -24.0057   -7.4566   22.7359 H   0  0  0  0  0  0
  -21.0922   -8.8842   19.8875 H   0  0  0  0  0  0
  -22.3835  -10.9705   19.6131 H   0  0  0  0  0  0
  -21.2006   -7.6146   23.9745 H   0  0  0  0  0  0
  -21.1460   -6.0478   25.9073 H   0  0  0  0  0  0
  -22.0622   -2.7629   23.2777 H   0  0  0  0  0  0
  -22.4126  -11.9875   22.4992 H   0  0  0  0  0  0
  -21.0994  -13.1049   22.2647 H   0  0  0  0  0  0
  -24.6264  -15.8443   20.4711 H   0  0  0  0  0  0
  -26.2399  -15.6355   20.0280 H   0  0  0  0  0  0
  -26.7190  -32.5341   23.0990 H   0  0  0  0  0  0
  -25.0231  -33.9661   25.0442 H   0  0  0  0  0  0
  -22.7243  -31.2871   21.3758 H   0  0  0  0  0  0
  -23.3757  -35.9542   23.3313 H   0  0  0  0  0  0
  -24.3542  -36.8885   22.2044 H   0  0  0  0  0  0
  -23.7246  -37.6444   23.6681 H   0  0  0  0  0  0
  -26.1317  -31.5327   20.6159 H   0  0  0  0  0  0
  -26.8405  -30.7937   22.0275 H   0  0  0  0  0  0
  -28.1360  -28.9604   21.1613 H   0  0  0  0  0  0
  -25.9851  -25.8628   19.0708 H   0  0  0  0  0  0
  -23.9896  -27.2848   19.0032 H   0  0  0  0  0  0
  -23.7868  -30.5634   19.3814 H   0  0  0  0  0  0
  -22.7778  -29.2258   19.8378 H   0  0  0  0  0  0
  -25.1326  -36.1846   25.0801 H   0  0  0  0  0  0
  -20.9988  -28.3335   24.1315 H   0  0  0  0  0  0
  -20.5671  -26.2362   23.3635 H   0  0  0  0  0  0
  -21.6671  -26.7411   22.1205 H   0  0  0  0  0  0
  -19.6946  -25.6266   21.1237 H   0  0  0  0  0  0
  -19.6700  -27.3159   20.6701 H   0  0  0  0  0  0
  -17.4226  -26.6624   21.4006 H   0  0  0  0  0  0
  -18.0348  -26.0097   22.9022 H   0  0  0  0  0  0
  -19.8043  -30.7253   24.2119 H   0  0  0  0  0  0
  -17.5161  -31.6258   24.5207 H   0  0  0  0  0  0
  -15.5433  -30.3028   23.7711 H   0  0  0  0  0  0
  -15.8695  -28.0857   22.7076 H   0  0  0  0  0  0
  -24.5818  -30.7336   25.7760 H   0  0  0  0  0  0
  -24.9132  -32.3061   26.4880 H   0  0  0  0  0  0
  -25.8050  -30.8936   27.0175 H   0  0  0  0  0  0
  -26.3037  -29.6673   24.1296 H   0  0  0  0  0  0
  -27.4044  -29.7299   25.4865 H   0  0  0  0  0  0
  -27.8932  -30.4199   23.9592 H   0  0  0  0  0  0
  -27.2459  -33.3673   26.2095 H   0  0  0  0  0  0
  -28.3812  -32.7124   25.0404 H   0  0  0  0  0  0
  -28.0680  -31.8620   26.5480 H   0  0  0  0  0  0
  -28.2554  -38.0079   24.7514 H   0  0  0  0  0  0
  -28.1062  -36.2605   24.6275 H   0  0  0  0  0  0
  -27.2227  -37.1409   25.8843 H   0  0  0  0  0  0
  -20.9464  -29.8843   21.6820 H   0  0  0  0  0  0
  -26.0103  -38.2806   24.1531 H   0  0  0  0  0  0
  -29.2252  -18.4065   24.3565 H   0  0  0  0  0  0
  -29.5375  -18.4729   19.4527 H   0  0  0  0  0  0
  -28.6573  -15.4422   23.4858 H   0  0  0  0  0  0
  -29.8014  -16.2524   24.5422 H   0  0  0  0  0  0
  -30.3909  -15.2886   23.2104 H   0  0  0  0  0  0
  -29.6990  -21.5513   23.5902 H   0  0  0  0  0  0
  -28.7324  -20.5077   24.5845 H   0  0  0  0  0  0
  -27.9376  -21.3556   23.3136 H   0  0  0  0  0  0
  -29.7671  -23.8628   19.7198 H   0  0  0  0  0  0
  -28.1974  -23.4681   19.0942 H   0  0  0  0  0  0
  -28.6016  -25.0585   21.6868 H   0  0  0  0  0  0
  -27.0898  -24.8367   20.9091 H   0  0  0  0  0  0
  -27.7291  -22.2183   21.3170 H   0  0  0  0  0  0
  -29.3817  -22.5896   21.7533 H   0  0  0  0  0  0
  -28.7265  -15.5140   20.4008 H   0  0  0  0  0  0
  1 25  1  0  0  0
  1 30  2  0  0  0
  1 82  1  0  0  0
  2  3  1  0  0  0
  2 25  1  0  0  0
  2 84  1  0  0  0
  2 85  1  0  0  0
  3  4  1  0  0  0
  3 86  1  0  0  0
  3 87  1  0  0  0
  4  5  1  0  0  0
  4 88  1  0  0  0
  4 89  1  0  0  0
  5  6  1  0  0  0
  5 26  1  0  0  0
  5 90  1  0  0  0
  6 25  1  0  0  0
  6 91  1  0  0  0
  6 92  1  0  0  0
  7  8  2  0  0  0
  7 26  1  0  0  0
  7 29  1  0  0  0
  8  9  1  0  0  0
  8 22  1  0  0  0
  9 10  1  0  0  0
  9 27  2  0  0  0
 10 11  2  0  0  0
 10 15  1  0  0  0
 11 12  1  0  0  0
 11 93  1  0  0  0
 12 13  2  0  0  0
 12 94  1  0  0  0
 13 14  1  0  0  0
 13 31  1  0  0  0
 14 15  2  0  0  0
 14 95  1  0  0  0
 15 96  1  0  0  0
 16 17  2  0  0  0
 16 21  1  0  0  0
 16 31  1  0  0  0
 17 18  1  0  0  0
 17 97  1  0  0  0
 18 19  2  0  0  0
 18 98  1  0  0  0
 19 20  1  0  0  0
 19 24  1  0  0  0
 20 21  2  0  0  0
 20 99  1  0  0  0
 21 23  1  0  0  0
 22 28  1  0  0  0
 22 32  2  0  0  0
 26 27  1  0  0  0
 28100  1  0  0  0
 28101  1  0  0  0
 29102  1  0  0  0
 29103  1  0  0  0
 33 34  1  0  0  0
 33 66  1  0  0  0
 33 70  2  0  0  0
 34 36  1  0  0  0
 34 59  1  0  0  0
 34104  1  0  0  0
 35 44  2  0  0  0
 35 45  1  0  0  0
 35 68  1  0  0  0
 36 56  1  0  0  0
 36105  1  0  0  0
 37 39  1  0  0  0
 37 47  1  0  0  0
 37 66  1  0  0  0
 37106  1  0  0  0
 38 43  2  0  0  0
 38 46  1  0  0  0
 38 47  1  0  0  0
 39 64  1  0  0  0
 39 67  2  0  0  0
 40 52  1  0  0  0
 40 53  2  0  0  0
 40 58  1  0  0  0
 41107  1  0  0  0
 41108  1  0  0  0
 41109  1  0  0  0
 41 48  1  0  0  0
 42 43  1  0  0  0
 42 66  1  0  0  0
 42110  1  0  0  0
 42111  1  0  0  0
 43 44  1  0  0  0
 44112  1  0  0  0
 45 46  2  0  0  0
 45113  1  0  0  0
 46114  1  0  0  0
 47115  1  0  0  0
 47116  1  0  0  0
 48 56  1  0  0  0
 48 65  1  0  0  0
 48117  1  0  0  0
 49 50  1  0  0  0
 49 53  1  0  0  0
 49 64  1  0  0  0
 49118  1  0  0  0
 50 51  1  0  0  0
 50119  1  0  0  0
 50120  1  0  0  0
 51 52  1  0  0  0
 51121  1  0  0  0
 51122  1  0  0  0
 52123  1  0  0  0
 52124  1  0  0  0
 53 54  1  0  0  0
 54 55  2  0  0  0
 54125  1  0  0  0
 55 57  1  0  0  0
 55126  1  0  0  0
 56 69  2  0  0  0
 57 58  2  0  0  0
 57127  1  0  0  0
 58128  1  0  0  0
 59 60  1  0  0  0
 59 61  1  0  0  0
 59 62  1  0  0  0
 60129  1  0  0  0
 60130  1  0  0  0
 60131  1  0  0  0
 61132  1  0  0  0
 61133  1  0  0  0
 61134  1  0  0  0
 62135  1  0  0  0
 62136  1  0  0  0
 62137  1  0  0  0
 63 65  1  0  0  0
 63138  1  0  0  0
 63139  1  0  0  0
 63140  1  0  0  0
 64141  1  0  0  0
 65142  1  0  0  0
 68 80  1  0  0  0
 71 73  2  0  0  0
 71 74  1  0  0  0
 71143  1  0  0  0
 72 75  2  0  0  0
 72 76  1  0  0  0
 72144  1  0  0  0
 73 75  1  0  0  0
 73 77  1  0  0  0
 74 76  2  0  0  0
 74 78  1  0  0  0
 75 82  1  0  0  0
 76 83  1  0  0  0
 77145  1  0  0  0
 77146  1  0  0  0
 77147  1  0  0  0
 78148  1  0  0  0
 78149  1  0  0  0
 78150  1  0  0  0
 79 80  1  0  0  0
 79 81  1  0  0  0
 79151  1  0  0  0
 79152  1  0  0  0
 80153  1  0  0  0
 80154  1  0  0  0
 81 83  1  0  0  0
 81155  1  0  0  0
 81156  1  0  0  0
 82157  1  0  0  0
M  ISO  4   1 100  68 101  80 101  82 100
M  END
> <chiral flag>
0

> <version>
0

> <s_m_source_file>
/data/baiqing/PycharmProjects/Reinvent-master-3.2/result/LINK_invent/BTK/process_docking_weight1_custom_product_contain_oxygen_bond_distance_aromatic_linkinvent_7_9_3/rearranged_h_0126.sdf

> <i_m_source_file_index>
5

> <r_mmod_Potential_Energy-OPLS-2005>
240.756072998047

> <r_mmod_Stretch_Energy-OPLS-2005>
130.770843505859

> <r_mmod_Bend_Energy-OPLS-2005>
197.404876708984

> <r_mmod_Torsional_Energy-OPLS-2005>
267.793334960938

> <r_mmod_Improper_Torsional_Energy-OPLS-2005>
12.008376121521

> <r_mmod_Van_der_Waal_Energy-OPLS-2005>
145.164123535156

> <r_mmod_Electrostatic_Energy-OPLS-2005>
-392.284088134766

> <r_mmod_Solvation_Energy-OPLS-2005>
-212.584121704102

> <b_mmod_Minimization_Converged-OPLS-2005>
0

> <r_mmod_RMS_Derivative-OPLS-2005>
5.59126901626587

$$$$
5
                    3D
 Structure written by MMmdl.
152160  0  0  1  0            999 V2000
  -30.7175  -14.5398   20.4895 C   0  0  0  0  0  0
  -30.4076  -12.3245   19.4587 C   0  0  0  0  0  0
  -29.4997  -12.4836   18.2224 C   0  0  0  0  0  0
  -28.0197  -12.3397   18.6272 C   0  0  0  0  0  0
  -27.6456  -13.2200   19.8494 C   0  0  2  0  0  0
  -28.6873  -13.1039   20.9838 C   0  0  0  0  0  0
  -25.2532  -13.8182   20.5682 C   0  0  0  0  0  0
  -24.1810  -13.0442   20.9196 C   0  0  0  0  0  0
  -24.6379  -11.6915   20.8736 C   0  0  0  0  0  0
  -23.9049  -10.4296   21.0404 C   0  0  0  0  0  0
  -24.3612   -9.4215   21.9182 C   0  0  0  0  0  0
  -23.6295   -8.2242   22.0749 C   0  0  0  0  0  0
  -22.4275   -8.0277   21.3541 C   0  0  0  0  0  0
  -21.9907   -9.0246   20.4642 C   0  0  0  0  0  0
  -22.7224  -10.2131   20.3050 C   0  0  0  0  0  0
  -21.6852   -6.0735   22.5282 C   0  0  0  0  0  0
  -21.4015   -6.5638   23.8214 C   0  0  0  0  0  0
  -21.3661   -5.6790   24.9177 C   0  0  0  0  0  0
  -21.6047   -4.3051   24.7223 C   0  0  0  0  0  0
  -21.8818   -3.8143   23.4343 C   0  0  0  0  0  0
  -21.9193   -4.6963   22.3403 C   0  0  0  0  0  0
  -22.7834  -13.5234   21.1864 C   0  0  0  0  0  0
  -22.1663   -4.2152   21.0981 F   0  0  0  0  0  0
  -21.5632   -3.4533   25.7735 F   0  0  0  0  0  0
  -30.0158  -13.3707   20.4209 N   0  0  0  0  0  0
  -26.2948  -12.9371   20.3263 N   0  0  0  0  0  0
  -25.9303  -11.6520   20.5733 N   0  0  0  0  0  0
  -22.0476  -12.8226   22.0421 N   0  0  0  0  0  0
  -25.4232  -15.1906   20.4120 N   0  0  0  0  0  0
  -31.9109  -14.5674   20.1803 O   0  0  0  0  0  0
  -21.6636   -6.8877   21.4243 O   0  0  0  0  0  0
  -22.3519  -14.5537   20.6711 O   0  0  0  0  0  0
  -24.6166  -31.8669   23.2098 C   0  0  0  0  0  0
  -25.9048  -32.4817   23.8401 C   0  0  1  0  0  0
  -27.2338  -27.4176   20.0935 C   0  0  0  0  0  0
  -25.5902  -33.8614   24.2324 N   0  0  0  0  0  0
  -23.4069  -30.4899   21.5503 C   0  0  2  0  0  0
  -24.8557  -28.9564   20.1137 C   0  0  0  0  0  0
  -22.7430  -29.4647   22.4985 C   0  0  0  0  0  0
  -18.0272  -28.1376   22.8489 C   0  0  0  0  0  0
  -24.1487  -36.7311   23.2641 C   0  0  0  0  0  0
  -25.9388  -30.8248   21.3682 C   0  0  0  0  0  0
  -26.0183  -29.4582   20.7150 C   0  0  0  0  0  0
  -27.2115  -28.6929   20.7117 C   0  0  0  0  0  0
  -26.0498  -26.9312   19.4990 C   0  0  0  0  0  0
  -24.8665  -27.6913   19.5031 C   0  0  0  0  0  0
  -23.6178  -29.8240   20.1644 C   0  0  0  0  0  0
  -25.4109  -36.3106   24.0337 C   0  0  1  0  0  0
  -20.5866  -28.3664   23.1314 C   0  0  2  0  0  0
  -20.6759  -26.9398   22.5419 C   0  0  0  0  0  0
  -19.5737  -26.6383   21.5216 C   0  0  0  0  0  0
  -18.1917  -26.7921   22.1626 C   0  0  0  0  0  0
  -19.1522  -28.8838   23.2897 C   0  0  0  0  0  0
  -18.9449  -30.1444   23.8908 C   0  0  0  0  0  0
  -17.6451  -30.6581   24.0563 C   0  0  0  0  0  0
  -25.9036  -34.9473   23.5127 C   0  0  0  0  0  0
  -16.5341  -29.9083   23.6324 C   0  0  0  0  0  0
  -16.7262  -28.6500   23.0344 C   0  0  0  0  0  0
  -26.4471  -31.6596   25.0731 C   0  0  0  0  0  0
  -25.3734  -31.3707   26.1477 C   0  0  0  0  0  0
  -27.0302  -30.3037   24.6117 C   0  0  0  0  0  0
  -27.6050  -32.4319   25.7494 C   0  0  0  0  0  0
  -27.5576  -37.1813   24.8468 C   0  0  0  0  0  0
  -21.4156  -29.3027   22.3725 N   0  0  0  0  0  0
  -26.4296  -37.3789   23.9402 N   0  0  0  0  0  0
  -24.6723  -31.0752   22.1008 N   0  0  0  0  0  0
  -23.4195  -28.8183   23.3026 O   0  0  0  0  0  0
  -28.3386  -26.5852   20.1228 O   0  0  0  0  0  0
  -26.5598  -34.8926   22.4687 O   0  0  0  0  0  0
  -23.5351  -32.1431   23.7477 O   0  0  0  0  0  0
  -31.1376  -19.3884   21.1420 C   0  0  0  0  0  0
  -30.9782  -20.7497   20.7952 C   0  0  0  0  0  0
  -29.0770  -18.8369   20.0011 C   0  0  0  0  0  0
  -30.2393  -18.3970   20.6799 C   0  0  0  0  0  0
  -29.9097  -21.1625   19.9695 C   0  0  0  0  0  0
  -28.9241  -20.2007   19.6315 C   0  0  0  0  0  0
  -30.6535  -16.9665   20.7932 C   0  0  0  0  0  0
  -29.9626  -15.8038   20.6249 C   0  0  0  0  0  0
  -29.5384  -24.9159   18.8467 C   0  0  0  0  0  0
  -29.3685  -23.8219   19.6346 C   0  0  0  0  0  0
  -28.9901  -26.2967   18.9698 C   0  0  0  0  0  0
  -30.0238  -22.4976   19.2047 C   0  0  0  0  0  0
  -29.0796  -27.1019   18.0386 O   0  0  0  0  0  0
  -27.8781  -20.5596   18.8490 F   0  0  0  0  0  0
  -31.4568  -12.3845   19.1653 H   0  0  0  0  0  0
  -30.2814  -11.3375   19.9054 H   0  0  0  0  0  0
  -29.7566  -11.7393   17.4674 H   0  0  0  0  0  0
  -29.6670  -13.4590   17.7625 H   0  0  0  0  0  0
  -27.8445  -11.2891   18.8606 H   0  0  0  0  0  0
  -27.3705  -12.5736   17.7824 H   0  0  0  0  0  0
  -27.6541  -14.2478   19.4892 H   0  0  0  0  0  0
  -28.6678  -12.1066   21.4253 H   0  0  0  0  0  0
  -28.4555  -13.7980   21.7930 H   0  0  0  0  0  0
  -25.2760   -9.5705   22.4754 H   0  0  0  0  0  0
  -24.0015   -7.4632   22.7464 H   0  0  0  0  0  0
  -21.0842   -8.8755   19.8949 H   0  0  0  0  0  0
  -22.3679  -10.9665   19.6155 H   0  0  0  0  0  0
  -21.2004   -7.6145   23.9721 H   0  0  0  0  0  0
  -21.1490   -6.0517   25.9085 H   0  0  0  0  0  0
  -22.0596   -2.7606   23.2834 H   0  0  0  0  0  0
  -22.4086  -11.9897   22.4824 H   0  0  0  0  0  0
  -21.1092  -13.1248   22.2612 H   0  0  0  0  0  0
  -24.6564  -15.8444   20.5262 H   0  0  0  0  0  0
  -26.2773  -15.6344   20.1004 H   0  0  0  0  0  0
  -26.7122  -32.5530   23.1168 H   0  0  0  0  0  0
  -25.0040  -33.9776   25.0461 H   0  0  0  0  0  0
  -22.6959  -31.3068   21.4110 H   0  0  0  0  0  0
  -23.3739  -35.9657   23.3335 H   0  0  0  0  0  0
  -24.3573  -36.8894   22.2049 H   0  0  0  0  0  0
  -23.7252  -37.6533   23.6633 H   0  0  0  0  0  0
  -26.0545  -31.5904   20.5997 H   0  0  0  0  0  0
  -26.8251  -30.8787   21.9883 H   0  0  0  0  0  0
  -28.1061  -29.0686   21.1889 H   0  0  0  0  0  0
  -26.0400  -25.9511   19.0431 H   0  0  0  0  0  0
  -23.9716  -27.2943   19.0443 H   0  0  0  0  0  0
  -23.7275  -30.5998   19.4057 H   0  0  0  0  0  0
  -22.7418  -29.2440   19.8682 H   0  0  0  0  0  0
  -25.1288  -36.1975   25.0831 H   0  0  0  0  0  0
  -20.9950  -28.3223   24.1437 H   0  0  0  0  0  0
  -20.5658  -26.2272   23.3605 H   0  0  0  0  0  0
  -21.6629  -26.7435   22.1210 H   0  0  0  0  0  0
  -19.6896  -25.6298   21.1235 H   0  0  0  0  0  0
  -19.6677  -27.3204   20.6752 H   0  0  0  0  0  0
  -17.4187  -26.6668   21.4027 H   0  0  0  0  0  0
  -18.0320  -26.0065   22.9022 H   0  0  0  0  0  0
  -19.7928  -30.7254   24.2284 H   0  0  0  0  0  0
  -17.5007  -31.6262   24.5166 H   0  0  0  0  0  0
  -15.5340  -30.2983   23.7649 H   0  0  0  0  0  0
  -15.8661  -28.0825   22.7045 H   0  0  0  0  0  0
  -24.5891  -30.7076   25.7806 H   0  0  0  0  0  0
  -24.8941  -32.2864   26.4951 H   0  0  0  0  0  0
  -25.8076  -30.8847   27.0221 H   0  0  0  0  0  0
  -26.2846  -29.6804   24.1163 H   0  0  0  0  0  0
  -27.4058  -29.7269   25.4579 H   0  0  0  0  0  0
  -27.8692  -30.4356   23.9281 H   0  0  0  0  0  0
  -27.2664  -33.3605   26.2107 H   0  0  0  0  0  0
  -28.3837  -32.6904   25.0304 H   0  0  0  0  0  0
  -28.0744  -31.8422   26.5379 H   0  0  0  0  0  0
  -28.2618  -38.0085   24.7486 H   0  0  0  0  0  0
  -28.1046  -36.2617   24.6333 H   0  0  0  0  0  0
  -27.2290  -37.1514   25.8872 H   0  0  0  0  0  0
  -20.9322  -29.8760   21.6953 H   0  0  0  0  0  0
  -26.0190  -38.2874   24.1380 H   0  0  0  0  0  0
  -32.0282  -19.0953   21.6811 H   0  0  0  0  0  0
  -31.7554  -21.4515   21.0644 H   0  0  0  0  0  0
  -28.3561  -18.1178   19.6419 H   0  0  0  0  0  0
  -31.7193  -16.8713   20.9554 H   0  0  0  0  0  0
  -28.8908  -15.8257   20.5105 H   0  0  0  0  0  0
  -30.1494  -24.7799   17.9663 H   0  0  0  0  0  0
  -28.7791  -23.8505   20.5401 H   0  0  0  0  0  0
  -29.6816  -22.2992   18.1878 H   0  0  0  0  0  0
  -31.0890  -22.7056   19.0910 H   0  0  0  0  0  0
  1 25  1  0  0  0
  1 30  2  0  0  0
  1 78  1  0  0  0
  2  3  1  0  0  0
  2 25  1  0  0  0
  2 85  1  0  0  0
  2 86  1  0  0  0
  3  4  1  0  0  0
  3 87  1  0  0  0
  3 88  1  0  0  0
  4  5  1  0  0  0
  4 89  1  0  0  0
  4 90  1  0  0  0
  5  6  1  0  0  0
  5 26  1  0  0  0
  5 91  1  0  0  0
  6 25  1  0  0  0
  6 92  1  0  0  0
  6 93  1  0  0  0
  7  8  2  0  0  0
  7 26  1  0  0  0
  7 29  1  0  0  0
  8  9  1  0  0  0
  8 22  1  0  0  0
  9 10  1  0  0  0
  9 27  2  0  0  0
 10 11  2  0  0  0
 10 15  1  0  0  0
 11 12  1  0  0  0
 11 94  1  0  0  0
 12 13  2  0  0  0
 12 95  1  0  0  0
 13 14  1  0  0  0
 13 31  1  0  0  0
 14 15  2  0  0  0
 14 96  1  0  0  0
 15 97  1  0  0  0
 16 17  2  0  0  0
 16 21  1  0  0  0
 16 31  1  0  0  0
 17 18  1  0  0  0
 17 98  1  0  0  0
 18 19  2  0  0  0
 18 99  1  0  0  0
 19 20  1  0  0  0
 19 24  1  0  0  0
 20 21  2  0  0  0
 20100  1  0  0  0
 21 23  1  0  0  0
 22 28  1  0  0  0
 22 32  2  0  0  0
 26 27  1  0  0  0
 28101  1  0  0  0
 28102  1  0  0  0
 29103  1  0  0  0
 29104  1  0  0  0
 33 34  1  0  0  0
 33 66  1  0  0  0
 33 70  2  0  0  0
 34 36  1  0  0  0
 34 59  1  0  0  0
 34105  1  0  0  0
 35 44  2  0  0  0
 35 45  1  0  0  0
 35 68  1  0  0  0
 36 56  1  0  0  0
 36106  1  0  0  0
 37 39  1  0  0  0
 37 47  1  0  0  0
 37 66  1  0  0  0
 37107  1  0  0  0
 38 43  2  0  0  0
 38 46  1  0  0  0
 38 47  1  0  0  0
 39 64  1  0  0  0
 39 67  2  0  0  0
 40 52  1  0  0  0
 40 53  2  0  0  0
 40 58  1  0  0  0
 41108  1  0  0  0
 41109  1  0  0  0
 41110  1  0  0  0
 41 48  1  0  0  0
 42 43  1  0  0  0
 42 66  1  0  0  0
 42111  1  0  0  0
 42112  1  0  0  0
 43 44  1  0  0  0
 44113  1  0  0  0
 45 46  2  0  0  0
 45114  1  0  0  0
 46115  1  0  0  0
 47116  1  0  0  0
 47117  1  0  0  0
 48 56  1  0  0  0
 48 65  1  0  0  0
 48118  1  0  0  0
 49 50  1  0  0  0
 49 53  1  0  0  0
 49 64  1  0  0  0
 49119  1  0  0  0
 50 51  1  0  0  0
 50120  1  0  0  0
 50121  1  0  0  0
 51 52  1  0  0  0
 51122  1  0  0  0
 51123  1  0  0  0
 52124  1  0  0  0
 52125  1  0  0  0
 53 54  1  0  0  0
 54 55  2  0  0  0
 54126  1  0  0  0
 55 57  1  0  0  0
 55127  1  0  0  0
 56 69  2  0  0  0
 57 58  2  0  0  0
 57128  1  0  0  0
 58129  1  0  0  0
 59 60  1  0  0  0
 59 61  1  0  0  0
 59 62  1  0  0  0
 60130  1  0  0  0
 60131  1  0  0  0
 60132  1  0  0  0
 61133  1  0  0  0
 61134  1  0  0  0
 61135  1  0  0  0
 62136  1  0  0  0
 62137  1  0  0  0
 62138  1  0  0  0
 63 65  1  0  0  0
 63139  1  0  0  0
 63140  1  0  0  0
 63141  1  0  0  0
 64142  1  0  0  0
 65143  1  0  0  0
 68 81  1  0  0  0
 71 72  2  0  0  0
 71 74  1  0  0  0
 71144  1  0  0  0
 72 75  1  0  0  0
 72145  1  0  0  0
 73 74  2  0  0  0
 73 76  1  0  0  0
 73146  1  0  0  0
 74 77  1  0  0  0
 75 76  2  0  0  0
 75 82  1  0  0  0
 76 84  1  0  0  0
 77 78  2  0  0  0
 77147  1  0  0  0
 78148  1  0  0  0
 79 80  2  0  0  0
 79 81  1  0  0  0
 79149  1  0  0  0
 80 82  1  0  0  0
 80150  1  0  0  0
 81 83  2  0  0  0
 82151  1  0  0  0
 82152  1  0  0  0
M  ISO  4   1 100  68 101  78 100  81 101
M  END
> <chiral flag>
0

> <version>
0

> <s_m_source_file>
/data/baiqing/PycharmProjects/Reinvent-master-3.2/result/LINK_invent/BTK/process_docking_weight1_custom_product_contain_oxygen_bond_distance_aromatic_linkinvent_7_9_3/rearranged_h_0126.sdf

> <i_m_source_file_index>
6

> <r_mmod_Potential_Energy-OPLS-2005>
82.1820373535156

> <r_mmod_Stretch_Energy-OPLS-2005>
43.8597221374512

> <r_mmod_Bend_Energy-OPLS-2005>
132.553131103516

> <r_mmod_Torsional_Energy-OPLS-2005>
233.568435668945

> <r_mmod_Improper_Torsional_Energy-OPLS-2005>
13.2448577880859

> <r_mmod_Van_der_Waal_Energy-OPLS-2005>
151.42839050293

> <r_mmod_Electrostatic_Energy-OPLS-2005>
-324.61083984375

> <r_mmod_Solvation_Energy-OPLS-2005>
-197.676696777344

> <b_mmod_Minimization_Converged-OPLS-2005>
0

> <r_mmod_RMS_Derivative-OPLS-2005>
0.913236558437347

$$$$
6
                    3D
 Structure written by MMmdl.
161169  0  0  1  0            999 V2000
  -30.7131  -14.4771   20.5850 C   0  0  0  0  0  0
  -30.4230  -12.3123   19.4302 C   0  0  0  0  0  0
  -29.4968  -12.5098   18.2125 C   0  0  0  0  0  0
  -28.0177  -12.3691   18.6219 C   0  0  0  0  0  0
  -27.6623  -13.2103   19.8769 C   0  0  2  0  0  0
  -28.7034  -12.9961   21.0002 C   0  0  0  0  0  0
  -25.2534  -13.8136   20.5589 C   0  0  0  0  0  0
  -24.1823  -13.0416   20.9180 C   0  0  0  0  0  0
  -24.6402  -11.6895   20.8759 C   0  0  0  0  0  0
  -23.9069  -10.4284   21.0418 C   0  0  0  0  0  0
  -24.3619   -9.4200   21.9193 C   0  0  0  0  0  0
  -23.6295   -8.2236   22.0756 C   0  0  0  0  0  0
  -22.4277   -8.0278   21.3544 C   0  0  0  0  0  0
  -21.9915   -9.0254   20.4646 C   0  0  0  0  0  0
  -22.7246  -10.2132   20.3061 C   0  0  0  0  0  0
  -21.6850   -6.0736   22.5279 C   0  0  0  0  0  0
  -21.4011   -6.5638   23.8213 C   0  0  0  0  0  0
  -21.3658   -5.6792   24.9176 C   0  0  0  0  0  0
  -21.6044   -4.3056   24.7226 C   0  0  0  0  0  0
  -21.8819   -3.8148   23.4347 C   0  0  0  0  0  0
  -21.9193   -4.6965   22.3405 C   0  0  0  0  0  0
  -22.7846  -13.5216   21.1841 C   0  0  0  0  0  0
  -22.1661   -4.2149   21.0983 F   0  0  0  0  0  0
  -21.5631   -3.4540   25.7738 F   0  0  0  0  0  0
  -30.0388  -13.2994   20.4534 N   0  0  0  0  0  0
  -26.3021  -12.9340   20.3366 N   0  0  0  0  0  0
  -25.9336  -11.6500   20.5805 N   0  0  0  0  0  0
  -22.0491  -12.8220   22.0410 N   0  0  0  0  0  0
  -25.4123  -15.1829   20.3780 N   0  0  0  0  0  0
  -31.8271  -14.6492   20.0845 O   0  0  0  0  0  0
  -21.6635   -6.8879   21.4242 O   0  0  0  0  0  0
  -22.3532  -14.5524   20.6693 O   0  0  0  0  0  0
  -24.6147  -31.8678   23.2091 C   0  0  0  0  0  0
  -25.9040  -32.4820   23.8388 C   0  0  1  0  0  0
  -27.2404  -27.4344   20.1046 C   0  0  0  0  0  0
  -25.5898  -33.8620   24.2317 N   0  0  0  0  0  0
  -23.4051  -30.4895   21.5483 C   0  0  2  0  0  0
  -24.8555  -28.9514   20.1189 C   0  0  0  0  0  0
  -22.7416  -29.4662   22.4981 C   0  0  0  0  0  0
  -18.0272  -28.1401   22.8496 C   0  0  0  0  0  0
  -24.1485  -36.7317   23.2632 C   0  0  0  0  0  0
  -25.9328  -30.8313   21.3648 C   0  0  0  0  0  0
  -26.0127  -29.4619   20.7222 C   0  0  0  0  0  0
  -27.2097  -28.7081   20.7197 C   0  0  0  0  0  0
  -26.0724  -26.9386   19.4933 C   0  0  0  0  0  0
  -24.8795  -27.6868   19.5034 C   0  0  0  0  0  0
  -23.6167  -29.8184   20.1642 C   0  0  0  0  0  0
  -25.4106  -36.3108   24.0327 C   0  0  1  0  0  0
  -20.5864  -28.3687   23.1311 C   0  0  2  0  0  0
  -20.6761  -26.9420   22.5424 C   0  0  0  0  0  0
  -19.5737  -26.6405   21.5220 C   0  0  0  0  0  0
  -18.1917  -26.7941   22.1633 C   0  0  0  0  0  0
  -19.1525  -28.8862   23.2902 C   0  0  0  0  0  0
  -18.9456  -30.1468   23.8912 C   0  0  0  0  0  0
  -17.6461  -30.6601   24.0584 C   0  0  0  0  0  0
  -25.9037  -34.9475   23.5119 C   0  0  0  0  0  0
  -16.5349  -29.9110   23.6334 C   0  0  0  0  0  0
  -16.7265  -28.6531   23.0345 C   0  0  0  0  0  0
  -26.4466  -31.6594   25.0716 C   0  0  0  0  0  0
  -25.3736  -31.3714   26.1471 C   0  0  0  0  0  0
  -27.0283  -30.3026   24.6089 C   0  0  0  0  0  0
  -27.6037  -32.4318   25.7487 C   0  0  0  0  0  0
  -27.5583  -37.1807   24.8456 C   0  0  0  0  0  0
  -21.4142  -29.3044   22.3709 N   0  0  0  0  0  0
  -26.4288  -37.3802   23.9417 N   0  0  0  0  0  0
  -24.6688  -31.0781   22.0989 N   0  0  0  0  0  0
  -23.4179  -28.8209   23.3036 O   0  0  0  0  0  0
  -28.3860  -26.6746   20.0428 O   0  0  0  0  0  0
  -26.5615  -34.8924   22.4687 O   0  0  0  0  0  0
  -23.5338  -32.1434   23.7473 O   0  0  0  0  0  0
  -29.2728  -19.1204   21.6580 C   0  0  0  0  0  0
  -31.3950  -17.5361   20.7521 C   0  0  0  0  0  0
  -30.4540  -19.7644   21.2267 C   0  0  0  0  0  0
  -29.1564  -17.7089   21.6674 C   0  0  0  0  0  0
  -31.5162  -18.9472   20.7571 C   0  0  0  0  0  0
  -30.2169  -16.8894   21.2029 C   0  0  0  0  0  0
  -30.5848  -21.2488   21.2712 C   0  0  0  0  0  0
  -29.5977  -22.1775   21.2450 C   0  0  0  0  0  0
  -28.7849  -24.4774   21.1004 C   0  0  0  0  0  0
  -29.7969  -23.6257   21.4093 C   0  0  0  0  0  0
  -27.8763  -17.0900   22.1995 C   0  0  0  0  0  0
  -32.8131  -19.5628   20.2532 C   0  0  0  0  0  0
  -31.1121  -24.1568   21.9696 C   0  0  0  0  0  0
  -28.7559  -26.0063   21.2544 C   0  0  0  0  0  0
  -30.0390  -15.4595   21.2230 N   0  0  0  0  0  0
  -31.4678  -12.4046   19.1282 H   0  0  0  0  0  0
  -30.3209  -11.3023   19.8306 H   0  0  0  0  0  0
  -29.7386  -11.7857   17.4334 H   0  0  0  0  0  0
  -29.6653  -13.4962   17.7776 H   0  0  0  0  0  0
  -27.8275  -11.3133   18.8190 H   0  0  0  0  0  0
  -27.3683  -12.6431   17.7895 H   0  0  0  0  0  0
  -27.7056  -14.2582   19.5792 H   0  0  0  0  0  0
  -28.6795  -11.9611   21.3445 H   0  0  0  0  0  0
  -28.4574  -13.5955   21.8775 H   0  0  0  0  0  0
  -25.2764   -9.5670   22.4771 H   0  0  0  0  0  0
  -24.0002   -7.4621   22.7470 H   0  0  0  0  0  0
  -21.0849   -8.8778   19.8947 H   0  0  0  0  0  0
  -22.3712  -10.9675   19.6169 H   0  0  0  0  0  0
  -21.2000   -7.6145   23.9717 H   0  0  0  0  0  0
  -21.1478   -6.0521   25.9078 H   0  0  0  0  0  0
  -22.0599   -2.7612   23.2849 H   0  0  0  0  0  0
  -22.4107  -11.9880   22.4792 H   0  0  0  0  0  0
  -21.1111  -13.1252   22.2617 H   0  0  0  0  0  0
  -24.6274  -15.8215   20.4448 H   0  0  0  0  0  0
  -26.2368  -15.6106   19.9764 H   0  0  0  0  0  0
  -26.7112  -32.5542   23.1160 H   0  0  0  0  0  0
  -25.0028  -33.9774   25.0444 H   0  0  0  0  0  0
  -22.6949  -31.3067   21.4063 H   0  0  0  0  0  0
  -23.3737  -35.9662   23.3306 H   0  0  0  0  0  0
  -24.3576  -36.8933   22.2046 H   0  0  0  0  0  0
  -23.7244  -37.6523   23.6648 H   0  0  0  0  0  0
  -26.0437  -31.5902   20.5892 H   0  0  0  0  0  0
  -26.8217  -30.8913   21.9809 H   0  0  0  0  0  0
  -28.1062  -29.1034   21.1770 H   0  0  0  0  0  0
  -26.0892  -25.9709   19.0118 H   0  0  0  0  0  0
  -23.9917  -27.2886   19.0322 H   0  0  0  0  0  0
  -23.7271  -30.5911   19.4025 H   0  0  0  0  0  0
  -22.7413  -29.2374   19.8685 H   0  0  0  0  0  0
  -25.1278  -36.1963   25.0818 H   0  0  0  0  0  0
  -20.9970  -28.3258   24.1428 H   0  0  0  0  0  0
  -20.5676  -26.2293   23.3617 H   0  0  0  0  0  0
  -21.6631  -26.7467   22.1217 H   0  0  0  0  0  0
  -19.6893  -25.6320   21.1241 H   0  0  0  0  0  0
  -19.6670  -27.3223   20.6755 H   0  0  0  0  0  0
  -17.4193  -26.6703   21.4030 H   0  0  0  0  0  0
  -18.0313  -26.0078   22.9025 H   0  0  0  0  0  0
  -19.7933  -30.7289   24.2273 H   0  0  0  0  0  0
  -17.5017  -31.6273   24.5202 H   0  0  0  0  0  0
  -15.5353  -30.3029   23.7644 H   0  0  0  0  0  0
  -15.8658  -28.0868   22.7040 H   0  0  0  0  0  0
  -24.5897  -30.7065   25.7828 H   0  0  0  0  0  0
  -24.8945  -32.2878   26.4926 H   0  0  0  0  0  0
  -25.8101  -30.8889   27.0223 H   0  0  0  0  0  0
  -26.2818  -29.6810   24.1130 H   0  0  0  0  0  0
  -27.4018  -29.7240   25.4548 H   0  0  0  0  0  0
  -27.8674  -30.4330   23.9249 H   0  0  0  0  0  0
  -27.2637  -33.3599   26.2096 H   0  0  0  0  0  0
  -28.3832  -32.6921   25.0316 H   0  0  0  0  0  0
  -28.0716  -31.8424   26.5383 H   0  0  0  0  0  0
  -28.2593  -38.0114   24.7539 H   0  0  0  0  0  0
  -28.1087  -36.2650   24.6238 H   0  0  0  0  0  0
  -27.2311  -37.1414   25.8861 H   0  0  0  0  0  0
  -20.9307  -29.8774   21.6935 H   0  0  0  0  0  0
  -26.0165  -38.2872   24.1442 H   0  0  0  0  0  0
  -28.4508  -19.7161   22.0281 H   0  0  0  0  0  0
  -32.2385  -16.9634   20.3996 H   0  0  0  0  0  0
  -31.5997  -21.6014   21.3727 H   0  0  0  0  0  0
  -28.5831  -21.8253   21.1195 H   0  0  0  0  0  0
  -27.8646  -24.0631   20.7135 H   0  0  0  0  0  0
  -27.0922  -17.8368   22.3299 H   0  0  0  0  0  0
  -28.0556  -16.6157   23.1646 H   0  0  0  0  0  0
  -27.5010  -16.3367   21.5112 H   0  0  0  0  0  0
  -33.4475  -18.8230   19.7636 H   0  0  0  0  0  0
  -33.3790  -19.9916   21.0810 H   0  0  0  0  0  0
  -32.6115  -20.3510   19.5267 H   0  0  0  0  0  0
  -31.6406  -23.4047   22.5546 H   0  0  0  0  0  0
  -30.9550  -24.9912   22.6522 H   0  0  0  0  0  0
  -31.7687  -24.4858   21.1636 H   0  0  0  0  0  0
  -29.7254  -26.4000   21.5534 H   0  0  0  0  0  0
  -28.0665  -26.2433   22.0673 H   0  0  0  0  0  0
  -29.1688  -15.1460   21.6225 H   0  0  0  0  0  0
  1 25  1  0  0  0
  1 30  2  0  0  0
  1 85  1  0  0  0
  2  3  1  0  0  0
  2 25  1  0  0  0
  2 86  1  0  0  0
  2 87  1  0  0  0
  3  4  1  0  0  0
  3 88  1  0  0  0
  3 89  1  0  0  0
  4  5  1  0  0  0
  4 90  1  0  0  0
  4 91  1  0  0  0
  5  6  1  0  0  0
  5 26  1  0  0  0
  5 92  1  0  0  0
  6 25  1  0  0  0
  6 93  1  0  0  0
  6 94  1  0  0  0
  7  8  2  0  0  0
  7 26  1  0  0  0
  7 29  1  0  0  0
  8  9  1  0  0  0
  8 22  1  0  0  0
  9 10  1  0  0  0
  9 27  2  0  0  0
 10 11  2  0  0  0
 10 15  1  0  0  0
 11 12  1  0  0  0
 11 95  1  0  0  0
 12 13  2  0  0  0
 12 96  1  0  0  0
 13 14  1  0  0  0
 13 31  1  0  0  0
 14 15  2  0  0  0
 14 97  1  0  0  0
 15 98  1  0  0  0
 16 17  2  0  0  0
 16 21  1  0  0  0
 16 31  1  0  0  0
 17 18  1  0  0  0
 17 99  1  0  0  0
 18 19  2  0  0  0
 18100  1  0  0  0
 19 20  1  0  0  0
 19 24  1  0  0  0
 20 21  2  0  0  0
 20101  1  0  0  0
 21 23  1  0  0  0
 22 28  1  0  0  0
 22 32  2  0  0  0
 26 27  1  0  0  0
 28102  1  0  0  0
 28103  1  0  0  0
 29104  1  0  0  0
 29105  1  0  0  0
 33 34  1  0  0  0
 33 66  1  0  0  0
 33 70  2  0  0  0
 34 36  1  0  0  0
 34 59  1  0  0  0
 34106  1  0  0  0
 35 44  2  0  0  0
 35 45  1  0  0  0
 35 68  1  0  0  0
 36 56  1  0  0  0
 36107  1  0  0  0
 37 39  1  0  0  0
 37 47  1  0  0  0
 37 66  1  0  0  0
 37108  1  0  0  0
 38 43  2  0  0  0
 38 46  1  0  0  0
 38 47  1  0  0  0
 39 64  1  0  0  0
 39 67  2  0  0  0
 40 52  1  0  0  0
 40 53  2  0  0  0
 40 58  1  0  0  0
 41109  1  0  0  0
 41110  1  0  0  0
 41111  1  0  0  0
 41 48  1  0  0  0
 42 43  1  0  0  0
 42 66  1  0  0  0
 42112  1  0  0  0
 42113  1  0  0  0
 43 44  1  0  0  0
 44114  1  0  0  0
 45 46  2  0  0  0
 45115  1  0  0  0
 46116  1  0  0  0
 47117  1  0  0  0
 47118  1  0  0  0
 48 56  1  0  0  0
 48 65  1  0  0  0
 48119  1  0  0  0
 49 50  1  0  0  0
 49 53  1  0  0  0
 49 64  1  0  0  0
 49120  1  0  0  0
 50 51  1  0  0  0
 50121  1  0  0  0
 50122  1  0  0  0
 51 52  1  0  0  0
 51123  1  0  0  0
 51124  1  0  0  0
 52125  1  0  0  0
 52126  1  0  0  0
 53 54  1  0  0  0
 54 55  2  0  0  0
 54127  1  0  0  0
 55 57  1  0  0  0
 55128  1  0  0  0
 56 69  2  0  0  0
 57 58  2  0  0  0
 57129  1  0  0  0
 58130  1  0  0  0
 59 60  1  0  0  0
 59 61  1  0  0  0
 59 62  1  0  0  0
 60131  1  0  0  0
 60132  1  0  0  0
 60133  1  0  0  0
 61134  1  0  0  0
 61135  1  0  0  0
 61136  1  0  0  0
 62137  1  0  0  0
 62138  1  0  0  0
 62139  1  0  0  0
 63 65  1  0  0  0
 63140  1  0  0  0
 63141  1  0  0  0
 63142  1  0  0  0
 64143  1  0  0  0
 65144  1  0  0  0
 68 84  1  0  0  0
 71 73  2  0  0  0
 71 74  1  0  0  0
 71145  1  0  0  0
 72 75  2  0  0  0
 72 76  1  0  0  0
 72146  1  0  0  0
 73 75  1  0  0  0
 73 77  1  0  0  0
 74 76  2  0  0  0
 74 81  1  0  0  0
 75 82  1  0  0  0
 76 85  1  0  0  0
 77 78  2  0  0  0
 77147  1  0  0  0
 78 80  1  0  0  0
 78148  1  0  0  0
 79 80  2  0  0  0
 79 84  1  0  0  0
 79149  1  0  0  0
 80 83  1  0  0  0
 81150  1  0  0  0
 81151  1  0  0  0
 81152  1  0  0  0
 82153  1  0  0  0
 82154  1  0  0  0
 82155  1  0  0  0
 83156  1  0  0  0
 83157  1  0  0  0
 83158  1  0  0  0
 84159  1  0  0  0
 84160  1  0  0  0
 85161  1  0  0  0
M  ISO  4   1 100  68 101  84 101  85 100
M  END
> <chiral flag>
0

> <version>
0

> <s_m_source_file>
/data/baiqing/PycharmProjects/Reinvent-master-3.2/result/LINK_invent/BTK/process_docking_weight1_custom_product_contain_oxygen_bond_distance_aromatic_linkinvent_7_9_3/rearranged_h_0126.sdf

> <i_m_source_file_index>
7

> <r_mmod_Potential_Energy-OPLS-2005>
-40.7379035949707

> <r_mmod_Stretch_Energy-OPLS-2005>
41.9016532897949

> <r_mmod_Bend_Energy-OPLS-2005>
103.765396118164

> <r_mmod_Torsional_Energy-OPLS-2005>
232.367645263672

> <r_mmod_Improper_Torsional_Energy-OPLS-2005>
3.88430213928223

> <r_mmod_Van_der_Waal_Energy-OPLS-2005>
162.259368896484

> <r_mmod_Electrostatic_Energy-OPLS-2005>
-403.251678466797

> <r_mmod_Solvation_Energy-OPLS-2005>
-193.530059814453

> <b_mmod_Minimization_Converged-OPLS-2005>
0

> <r_mmod_RMS_Derivative-OPLS-2005>
1.07919251918793

$$$$
7
                    3D
 Structure written by MMmdl.
157165  0  0  1  0            999 V2000
  -29.3965  -16.0763   20.3073 C   0  0  0  0  0  0
  -30.2382  -13.4806   19.6047 C   0  0  0  0  0  0
  -29.5193  -12.7873   18.3940 C   0  0  0  0  0  0
  -28.1307  -12.2723   18.8004 C   0  0  0  0  0  0
  -27.4838  -13.2754   19.7737 C   0  0  2  0  0  0
  -28.3665  -13.7010   20.9399 C   0  0  0  0  0  0
  -25.1771  -13.8039   20.5558 C   0  0  0  0  0  0
  -24.1304  -13.0247   20.9306 C   0  0  0  0  0  0
  -24.6040  -11.6770   20.8789 C   0  0  0  0  0  0
  -23.8862  -10.4165   21.0469 C   0  0  0  0  0  0
  -24.3514   -9.4119   21.9221 C   0  0  0  0  0  0
  -23.6233   -8.2144   22.0771 C   0  0  0  0  0  0
  -22.4219   -8.0187   21.3550 C   0  0  0  0  0  0
  -21.9803   -9.0129   20.4650 C   0  0  0  0  0  0
  -22.7081  -10.2014   20.3074 C   0  0  0  0  0  0
  -21.6822   -6.0679   22.5289 C   0  0  0  0  0  0
  -21.3992   -6.5610   23.8210 C   0  0  0  0  0  0
  -21.3653   -5.6778   24.9182 C   0  0  0  0  0  0
  -21.6040   -4.3040   24.7243 C   0  0  0  0  0  0
  -21.8824   -3.8116   23.4371 C   0  0  0  0  0  0
  -21.9179   -4.6916   22.3416 C   0  0  0  0  0  0
  -22.7415  -13.5072   21.2017 C   0  0  0  0  0  0
  -22.1662   -4.2103   21.0994 F   0  0  0  0  0  0
  -21.5630   -3.4539   25.7761 F   0  0  0  0  0  0
  -29.3434  -14.5694   20.3057 N   0  0  0  0  0  0
  -26.1956  -12.9231   20.2724 N   0  0  0  0  0  0
  -25.8867  -11.6391   20.5476 N   0  0  0  0  0  0
  -22.0130  -12.8068   22.0608 N   0  0  0  0  0  0
  -25.3394  -15.1742   20.3881 N   0  0  0  0  0  0
  -30.6564  -16.1787   20.1389 O   0  0  0  0  0  0
  -21.6599   -6.8789   21.4245 O   0  0  0  0  0  0
  -22.3154  -14.5403   20.6855 O   0  0  0  0  0  0
  -24.6904  -31.8467   22.7179 C   0  0  0  0  0  0
  -25.9115  -32.4611   23.6020 C   0  0  1  0  0  0
  -26.6048  -27.9893   21.4388 C   0  0  0  0  0  0
  -25.5260  -33.8162   24.0501 N   0  0  0  0  0  0
  -24.0931  -29.3896   21.0887 C   0  0  2  0  0  0
  -25.4085  -28.9925   19.4465 C   0  0  0  0  0  0
  -23.6565  -27.6310   22.1482 C   0  0  0  0  0  0
  -18.1823  -28.0933   22.7645 C   0  0  0  0  0  0
  -24.1397  -36.7384   23.2734 C   0  0  0  0  0  0
  -26.0498  -31.0288   20.8620 C   0  0  0  0  0  0
  -26.4060  -29.7200   20.1690 C   0  0  0  0  0  0
  -27.3683  -28.9467   20.8082 C   0  0  0  0  0  0
  -26.1044  -27.0423   20.4634 C   0  0  0  0  0  0
  -25.4269  -27.5949   19.3763 C   0  0  0  0  0  0
  -24.0897  -29.4860   19.5687 C   0  0  0  0  0  0
  -25.4060  -36.2909   24.0222 C   0  0  1  0  0  0
  -20.7909  -27.5561   23.2927 C   0  0  2  0  0  0
  -20.3409  -26.2139   22.7891 C   0  0  0  0  0  0
  -19.3540  -26.1563   21.6286 C   0  0  0  0  0  0
  -18.0516  -26.7728   22.0499 C   0  0  0  0  0  0
  -19.4548  -28.6059   23.2420 C   0  0  0  0  0  0
  -19.2618  -29.8771   23.9148 C   0  0  0  0  0  0
  -17.9957  -30.5324   24.0708 C   0  0  0  0  0  0
  -25.9036  -34.9482   23.4456 C   0  0  0  0  0  0
  -16.8083  -29.9452   23.6149 C   0  0  0  0  0  0
  -16.9210  -28.7197   22.9598 C   0  0  0  0  0  0
  -26.4426  -31.7029   24.9406 C   0  0  0  0  0  0
  -25.3914  -31.5070   26.0829 C   0  0  0  0  0  0
  -27.1544  -30.3646   24.6069 C   0  0  0  0  0  0
  -27.5689  -32.5276   25.6272 C   0  0  0  0  0  0
  -27.5543  -37.1714   24.8439 C   0  0  0  0  0  0
  -22.4118  -27.3582   23.0066 N   0  0  0  0  0  0
  -26.4135  -37.3737   23.9554 N   0  0  0  0  0  0
  -24.8060  -30.8789   21.6104 N   0  0  0  0  0  0
  -24.3728  -26.9687   22.8268 O   0  0  0  0  0  0
  -25.9712  -28.6758   22.6498 O   0  0  0  0  0  0
  -26.6137  -34.9420   22.4381 O   0  0  0  0  0  0
  -23.5970  -32.1205   23.2546 O   0  0  0  0  0  0
  -25.7478  -22.1254   20.3605 C   0  0  0  0  0  0
  -23.4220  -22.0820   20.5961 C   0  0  0  0  0  0
  -24.3607  -23.1424   20.4407 C   0  0  0  0  0  0
  -26.1438  -20.4467   20.4123 C   0  0  0  0  0  0
  -23.6952  -20.6529   20.6736 C   0  0  0  0  0  0
  -27.5770  -19.0092   20.3301 C   0  0  0  0  0  0
  -28.0689  -17.4187   20.4102 C   0  0  0  0  0  0
  -22.5283  -25.9537   20.3730 C   0  0  0  0  0  0
  -22.4853  -19.7651   20.9001 C   0  0  0  0  0  0
  -21.7585  -28.0804   20.7775 C   0  0  0  0  0  0
  -22.3051  -29.6372   22.5212 C   0  0  0  0  0  0
  -24.3232  -29.3996   23.5418 C   0  0  0  0  0  0
  -24.8895  -19.9300   20.5907 N   0  0  0  0  0  0
  -23.7206  -24.8612   20.5065 N   0  0  0  0  0  0
  -31.1555  -13.9381   19.2328 H   0  0  0  0  0  0
  -30.5823  -12.7319   20.3209 H   0  0  0  0  0  0
  -30.1259  -11.9805   17.9808 H   0  0  0  0  0  0
  -29.4003  -13.5205   17.5939 H   0  0  0  0  0  0
  -28.2455  -11.3051   19.2939 H   0  0  0  0  0  0
  -27.5027  -12.1053   17.9243 H   0  0  0  0  0  0
  -27.3039  -14.1459   19.1405 H   0  0  0  0  0  0
  -28.7770  -12.8581   21.4970 H   0  0  0  0  0  0
  -27.8062  -14.2999   21.6601 H   0  0  0  0  0  0
  -25.2659   -9.5637   22.4793 H   0  0  0  0  0  0
  -23.9949   -7.4539   22.7487 H   0  0  0  0  0  0
  -21.0734   -8.8609   19.8974 H   0  0  0  0  0  0
  -22.3521  -10.9557   19.6195 H   0  0  0  0  0  0
  -21.1990   -7.6124   23.9691 H   0  0  0  0  0  0
  -21.1477   -6.0524   25.9072 H   0  0  0  0  0  0
  -22.0611   -2.7585   23.2882 H   0  0  0  0  0  0
  -22.3776  -11.9696   22.4914 H   0  0  0  0  0  0
  -21.0782  -13.1127   22.2921 H   0  0  0  0  0  0
  -24.5595  -15.8141   20.4802 H   0  0  0  0  0  0
  -26.1115  -15.5701   19.8734 H   0  0  0  0  0  0
  -26.7918  -32.5825   22.9797 H   0  0  0  0  0  0
  -24.8861  -33.8704   24.8284 H   0  0  0  0  0  0
  -23.2376  -29.9089   20.6695 H   0  0  0  0  0  0
  -23.3656  -35.9698   23.3035 H   0  0  0  0  0  0
  -24.3516  -36.9541   22.2248 H   0  0  0  0  0  0
  -23.7122  -37.6382   23.7179 H   0  0  0  0  0  0
  -25.9091  -31.7999   20.1048 H   0  0  0  0  0  0
  -26.9154  -31.3332   21.4364 H   0  0  0  0  0  0
  -28.0196  -29.5075   21.4619 H   0  0  0  0  0  0
  -25.8718  -26.0335   20.7612 H   0  0  0  0  0  0
  -24.7065  -26.9989   18.8310 H   0  0  0  0  0  0
  -24.0659  -30.4851   19.1068 H   0  0  0  0  0  0
  -23.4551  -28.8443   18.9595 H   0  0  0  0  0  0
  -25.1313  -36.1371   25.0690 H   0  0  0  0  0  0
  -20.8508  -27.4621   24.3775 H   0  0  0  0  0  0
  -19.8156  -25.7541   23.6297 H   0  0  0  0  0  0
  -21.1429  -25.4960   22.6275 H   0  0  0  0  0  0
  -19.1400  -25.1030   21.4471 H   0  0  0  0  0  0
  -19.6740  -26.4669   20.6437 H   0  0  0  0  0  0
  -17.4143  -26.8920   21.1693 H   0  0  0  0  0  0
  -17.5226  -26.0881   22.7149 H   0  0  0  0  0  0
  -20.0851  -30.3546   24.4240 H   0  0  0  0  0  0
  -17.9430  -31.4697   24.6102 H   0  0  0  0  0  0
  -15.8469  -30.4180   23.7707 H   0  0  0  0  0  0
  -16.0169  -28.2522   22.5891 H   0  0  0  0  0  0
  -25.6269  -30.6455   26.7101 H   0  0  0  0  0  0
  -24.3549  -31.4308   25.7609 H   0  0  0  0  0  0
  -25.3762  -32.3721   26.7467 H   0  0  0  0  0  0
  -27.5172  -30.3481   23.5816 H   0  0  0  0  0  0
  -26.5554  -29.4800   24.7999 H   0  0  0  0  0  0
  -28.0429  -30.1943   25.2166 H   0  0  0  0  0  0
  -27.2199  -33.4976   25.9789 H   0  0  0  0  0  0
  -28.4027  -32.7162   24.9513 H   0  0  0  0  0  0
  -27.9651  -32.0159   26.5070 H   0  0  0  0  0  0
  -28.2334  -38.0212   24.7649 H   0  0  0  0  0  0
  -28.1201  -36.2744   24.5903 H   0  0  0  0  0  0
  -27.2384  -37.0969   25.8856 H   0  0  0  0  0  0
  -22.7373  -26.6618   23.6617 H   0  0  0  0  0  0
  -25.9919  -38.2698   24.1853 H   0  0  0  0  0  0
  -26.6445  -22.7224   20.2512 H   0  0  0  0  0  0
  -22.3893  -22.3869   20.7025 H   0  0  0  0  0  0
  -28.4775  -19.5643   20.1118 H   0  0  0  0  0  0
  -27.1663  -16.8831   20.6423 H   0  0  0  0  0  0
  -21.6425  -25.4749   19.9486 H   0  0  0  0  0  0
  -21.8835  -20.1353   21.7324 H   0  0  0  0  0  0
  -22.7666  -18.7383   21.1337 H   0  0  0  0  0  0
  -21.8557  -19.7538   20.0100 H   0  0  0  0  0  0
  -20.6877  -28.0956   20.8320 H   0  0  0  0  0  0
  -21.7144  -28.5846   19.8209 H   0  0  0  0  0  0
  -21.6679  -29.7188   23.3738 H   0  0  0  0  0  0
  -22.0943  -30.6402   22.1444 H   0  0  0  0  0  0
  -24.1424  -28.7022   24.3674 H   0  0  0  0  0  0
  -24.5311  -30.1017   24.3008 H   0  0  0  0  0  0
  1 25  1  0  0  0
  1 30  2  0  0  0
  1 77  1  0  0  0
  2  3  1  0  0  0
  2 25  1  0  0  0
  2 85  1  0  0  0
  2 86  1  0  0  0
  3  4  1  0  0  0
  3 87  1  0  0  0
  3 88  1  0  0  0
  4  5  1  0  0  0
  4 89  1  0  0  0
  4 90  1  0  0  0
  5  6  1  0  0  0
  5 26  1  0  0  0
  5 91  1  0  0  0
  6 25  1  0  0  0
  6 92  1  0  0  0
  6 93  1  0  0  0
  7  8  2  0  0  0
  7 26  1  0  0  0
  7 29  1  0  0  0
  8  9  1  0  0  0
  8 22  1  0  0  0
  9 10  1  0  0  0
  9 27  2  0  0  0
 10 11  2  0  0  0
 10 15  1  0  0  0
 11 12  1  0  0  0
 11 94  1  0  0  0
 12 13  2  0  0  0
 12 95  1  0  0  0
 13 14  1  0  0  0
 13 31  1  0  0  0
 14 15  2  0  0  0
 14 96  1  0  0  0
 15 97  1  0  0  0
 16 17  2  0  0  0
 16 21  1  0  0  0
 16 31  1  0  0  0
 17 18  1  0  0  0
 17 98  1  0  0  0
 18 19  2  0  0  0
 18 99  1  0  0  0
 19 20  1  0  0  0
 19 24  1  0  0  0
 20 21  2  0  0  0
 20100  1  0  0  0
 21 23  1  0  0  0
 22 28  1  0  0  0
 22 32  2  0  0  0
 26 27  1  0  0  0
 28101  1  0  0  0
 28102  1  0  0  0
 29103  1  0  0  0
 29104  1  0  0  0
 33 34  1  0  0  0
 33 66  1  0  0  0
 33 70  2  0  0  0
 34 36  1  0  0  0
 34 59  1  0  0  0
 34105  1  0  0  0
 35 44  2  0  0  0
 35 45  1  0  0  0
 35 68  1  0  0  0
 36 56  1  0  0  0
 36106  1  0  0  0
 37 39  1  0  0  0
 37 47  1  0  0  0
 37 66  1  0  0  0
 37107  1  0  0  0
 38 43  2  0  0  0
 38 46  1  0  0  0
 38 47  1  0  0  0
 39 64  1  0  0  0
 39 67  2  0  0  0
 40 52  1  0  0  0
 40 53  2  0  0  0
 40 58  1  0  0  0
 41108  1  0  0  0
 41109  1  0  0  0
 41110  1  0  0  0
 41 48  1  0  0  0
 42 43  1  0  0  0
 42 66  1  0  0  0
 42111  1  0  0  0
 42112  1  0  0  0
 43 44  1  0  0  0
 44113  1  0  0  0
 45 46  2  0  0  0
 45114  1  0  0  0
 46115  1  0  0  0
 47116  1  0  0  0
 47117  1  0  0  0
 48 56  1  0  0  0
 48 65  1  0  0  0
 48118  1  0  0  0
 49 50  1  0  0  0
 49 53  1  0  0  0
 49 64  1  0  0  0
 49119  1  0  0  0
 50 51  1  0  0  0
 50120  1  0  0  0
 50121  1  0  0  0
 51 52  1  0  0  0
 51122  1  0  0  0
 51123  1  0  0  0
 52124  1  0  0  0
 52125  1  0  0  0
 53 54  1  0  0  0
 54 55  2  0  0  0
 54126  1  0  0  0
 55 57  1  0  0  0
 55127  1  0  0  0
 56 69  2  0  0  0
 57 58  2  0  0  0
 57128  1  0  0  0
 58129  1  0  0  0
 59 60  1  0  0  0
 59 61  1  0  0  0
 59 62  1  0  0  0
 60130  1  0  0  0
 60131  1  0  0  0
 60132  1  0  0  0
 61133  1  0  0  0
 61134  1  0  0  0
 61135  1  0  0  0
 62136  1  0  0  0
 62137  1  0  0  0
 62138  1  0  0  0
 63 65  1  0  0  0
 63139  1  0  0  0
 63140  1  0  0  0
 63141  1  0  0  0
 64142  1  0  0  0
 65143  1  0  0  0
 68 82  1  0  0  0
 71 73  2  0  0  0
 71 74  1  0  0  0
 71144  1  0  0  0
 72 73  1  0  0  0
 72 75  2  0  0  0
 72145  1  0  0  0
 73 84  1  0  0  0
 74 76  1  0  0  0
 74 83  2  0  0  0
 75 79  1  0  0  0
 75 83  1  0  0  0
 76 77  2  0  0  0
 76146  1  0  0  0
 77147  1  0  0  0
 78 80  1  0  0  0
 78 84  2  0  0  0
 78148  1  0  0  0
 79149  1  0  0  0
 79150  1  0  0  0
 79151  1  0  0  0
 80 81  1  0  0  0
 80152  1  0  0  0
 80153  1  0  0  0
 81 82  1  0  0  0
 81154  1  0  0  0
 81155  1  0  0  0
 82156  1  0  0  0
 82157  1  0  0  0
M  ISO  4   1 100  68 101  77 100  82 101
M  END
> <chiral flag>
0

> <version>
0

> <s_m_source_file>
/data/baiqing/PycharmProjects/Reinvent-master-3.2/result/LINK_invent/BTK/process_docking_weight1_custom_product_contain_oxygen_bond_distance_aromatic_linkinvent_7_9_3/rearranged_h_0126.sdf

> <i_m_source_file_index>
8

> <r_mmod_Potential_Energy-OPLS-2005>
14964.9970703125

> <r_mmod_Stretch_Energy-OPLS-2005>
5732.98291015625

> <r_mmod_Bend_Energy-OPLS-2005>
1901.62927246094

> <r_mmod_Torsional_Energy-OPLS-2005>
605.663513183594

> <r_mmod_Improper_Torsional_Energy-OPLS-2005>
83.8306045532227

> <r_mmod_Van_der_Waal_Energy-OPLS-2005>
1831.05505371094

> <r_mmod_Electrostatic_Energy-OPLS-2005>
-536.360900878906

> <r_mmod_Solvation_Energy-OPLS-2005>
-210.844207763672

> <b_mmod_Minimization_Converged-OPLS-2005>
0

> <r_mmod_RMS_Derivative-OPLS-2005>
4.86899089813232

$$$$
8
                    3D
 Structure written by MMmdl.
160168  0  0  1  0            999 V2000
  -30.6328  -14.7185   20.4663 C   0  0  0  0  0  0
  -30.4219  -12.4374   19.4742 C   0  0  0  0  0  0
  -29.5050  -12.5026   18.2346 C   0  0  0  0  0  0
  -28.0310  -12.3326   18.6474 C   0  0  0  0  0  0
  -27.6392  -13.2329   19.8495 C   0  0  2  0  0  0
  -28.6824  -13.1663   20.9862 C   0  0  0  0  0  0
  -25.2487  -13.8199   20.5676 C   0  0  0  0  0  0
  -24.1790  -13.0443   20.9218 C   0  0  0  0  0  0
  -24.6386  -11.6923   20.8758 C   0  0  0  0  0  0
  -23.9067  -10.4296   21.0413 C   0  0  0  0  0  0
  -24.3619   -9.4208   21.9186 C   0  0  0  0  0  0
  -23.6294   -8.2243   22.0755 C   0  0  0  0  0  0
  -22.4273   -8.0280   21.3545 C   0  0  0  0  0  0
  -21.9912   -9.0255   20.4646 C   0  0  0  0  0  0
  -22.7242  -10.2135   20.3058 C   0  0  0  0  0  0
  -21.6854   -6.0734   22.5276 C   0  0  0  0  0  0
  -21.4015   -6.5640   23.8210 C   0  0  0  0  0  0
  -21.3658   -5.6791   24.9172 C   0  0  0  0  0  0
  -21.6042   -4.3054   24.7224 C   0  0  0  0  0  0
  -21.8820   -3.8146   23.4345 C   0  0  0  0  0  0
  -21.9193   -4.6962   22.3400 C   0  0  0  0  0  0
  -22.7811  -13.5222   21.1871 C   0  0  0  0  0  0
  -22.1662   -4.2150   21.0976 F   0  0  0  0  0  0
  -21.5628   -3.4535   25.7736 F   0  0  0  0  0  0
  -29.9851  -13.5059   20.4028 N   0  0  0  0  0  0
  -26.2918  -12.9414   20.3271 N   0  0  0  0  0  0
  -25.9316  -11.6557   20.5759 N   0  0  0  0  0  0
  -22.0458  -12.8211   22.0428 N   0  0  0  0  0  0
  -25.4152  -15.1916   20.4032 N   0  0  0  0  0  0
  -31.8186  -14.7710   20.1309 O   0  0  0  0  0  0
  -21.6637   -6.8877   21.4238 O   0  0  0  0  0  0
  -22.3495  -14.5524   20.6712 O   0  0  0  0  0  0
  -24.6283  -31.8548   23.1971 C   0  0  0  0  0  0
  -25.9116  -32.4748   23.8314 C   0  0  1  0  0  0
  -27.2240  -27.2768   20.1253 C   0  0  0  0  0  0
  -25.5917  -33.8551   24.2239 N   0  0  0  0  0  0
  -23.4241  -30.4752   21.5397 C   0  0  2  0  0  0
  -24.8713  -28.9198   20.1075 C   0  0  0  0  0  0
  -22.7489  -29.4585   22.4912 C   0  0  0  0  0  0
  -18.0289  -28.1385   22.8482 C   0  0  0  0  0  0
  -24.1490  -36.7285   23.2638 C   0  0  0  0  0  0
  -25.9664  -30.7734   21.3727 C   0  0  0  0  0  0
  -26.0386  -29.3954   20.7162 C   0  0  0  0  0  0
  -27.2139  -28.5841   20.7150 C   0  0  0  0  0  0
  -26.0317  -26.8545   19.4985 C   0  0  0  0  0  0
  -24.8721  -27.6576   19.4889 C   0  0  0  0  0  0
  -23.6409  -29.8045   20.1559 C   0  0  0  0  0  0
  -25.4116  -36.3064   24.0323 C   0  0  1  0  0  0
  -20.5889  -28.3683   23.1282 C   0  0  2  0  0  0
  -20.6771  -26.9402   22.5416 C   0  0  0  0  0  0
  -19.5750  -26.6379   21.5214 C   0  0  0  0  0  0
  -18.1928  -26.7925   22.1625 C   0  0  0  0  0  0
  -19.1542  -28.8852   23.2874 C   0  0  0  0  0  0
  -18.9466  -30.1455   23.8892 C   0  0  0  0  0  0
  -17.6465  -30.6584   24.0560 C   0  0  0  0  0  0
  -25.9056  -34.9435   23.5087 C   0  0  0  0  0  0
  -16.5357  -29.9081   23.6331 C   0  0  0  0  0  0
  -16.7276  -28.6502   23.0349 C   0  0  0  0  0  0
  -26.4495  -31.6579   25.0703 C   0  0  0  0  0  0
  -25.3717  -31.3737   26.1424 C   0  0  0  0  0  0
  -27.0341  -30.2997   24.6184 C   0  0  0  0  0  0
  -27.6048  -32.4320   25.7479 C   0  0  0  0  0  0
  -27.5579  -37.1792   24.8460 C   0  0  0  0  0  0
  -21.4199  -29.3029   22.3668 N   0  0  0  0  0  0
  -26.4289  -37.3764   23.9406 N   0  0  0  0  0  0
  -24.6919  -31.0525   22.0934 N   0  0  0  0  0  0
  -23.4198  -28.8132   23.3009 O   0  0  0  0  0  0
  -28.3565  -26.4429   20.2037 O   0  0  0  0  0  0
  -26.5634  -34.8911   22.4662 O   0  0  0  0  0  0
  -23.5446  -32.1363   23.7289 O   0  0  0  0  0  0
  -32.0917  -18.9494   21.0041 C   0  0  0  0  0  0
  -31.6423  -17.6276   20.9156 C   0  0  0  0  0  0
  -29.8136  -19.8637   20.7429 C   0  0  0  0  0  0
  -31.2159  -20.0490   20.9402 C   0  0  0  0  0  0
  -29.3724  -18.4633   20.6397 C   0  0  0  0  0  0
  -30.2805  -17.3137   20.7272 C   0  0  0  0  0  0
  -28.8868  -21.1192   20.7369 C   0  0  0  0  0  0
  -29.1099  -22.4336   20.3430 C   0  0  0  0  0  0
  -31.8615  -21.4071   21.1830 C   0  0  0  0  0  0
  -27.4880  -18.2631   18.9550 C   0  0  0  0  0  0
  -27.8893  -18.1808   20.4326 C   0  0  0  0  0  0
  -28.2443  -23.7419   20.5996 C   0  0  0  0  0  0
  -28.4459  -25.0468   19.6715 C   0  0  0  0  0  0
  -29.8838  -15.8731   20.6822 N   0  0  0  0  0  0
  -31.4656  -12.5417   19.1735 H   0  0  0  0  0  0
  -30.3504  -11.4615   19.9574 H   0  0  0  0  0  0
  -29.7841  -11.7311   17.5158 H   0  0  0  0  0  0
  -29.6378  -13.4592   17.7258 H   0  0  0  0  0  0
  -27.8845  -11.2842   18.9093 H   0  0  0  0  0  0
  -27.3747  -12.5276   17.7983 H   0  0  0  0  0  0
  -27.6343  -14.2546   19.4692 H   0  0  0  0  0  0
  -28.7105  -12.1704   21.4311 H   0  0  0  0  0  0
  -28.4219  -13.8542   21.7924 H   0  0  0  0  0  0
  -25.2764   -9.5681   22.4764 H   0  0  0  0  0  0
  -24.0000   -7.4631   22.7475 H   0  0  0  0  0  0
  -21.0844   -8.8775   19.8951 H   0  0  0  0  0  0
  -22.3700  -10.9675   19.6169 H   0  0  0  0  0  0
  -21.2010   -7.6148   23.9715 H   0  0  0  0  0  0
  -21.1479   -6.0520   25.9076 H   0  0  0  0  0  0
  -22.0601   -2.7609   23.2843 H   0  0  0  0  0  0
  -22.4082  -11.9878   22.4820 H   0  0  0  0  0  0
  -21.1074  -13.1235   22.2634 H   0  0  0  0  0  0
  -24.6355  -15.8344   20.4888 H   0  0  0  0  0  0
  -26.2371  -15.6196   20.0004 H   0  0  0  0  0  0
  -26.7178  -32.5408   23.1054 H   0  0  0  0  0  0
  -25.0041  -33.9685   25.0368 H   0  0  0  0  0  0
  -22.7201  -31.2964   21.3926 H   0  0  0  0  0  0
  -23.3748  -35.9621   23.3296 H   0  0  0  0  0  0
  -24.3575  -36.8922   22.2052 H   0  0  0  0  0  0
  -23.7254  -37.6487   23.6677 H   0  0  0  0  0  0
  -26.0986  -31.5348   20.6024 H   0  0  0  0  0  0
  -26.8462  -30.8251   22.0028 H   0  0  0  0  0  0
  -28.1091  -28.9425   21.2039 H   0  0  0  0  0  0
  -25.9633  -25.8822   19.0355 H   0  0  0  0  0  0
  -23.9749  -27.2866   19.0123 H   0  0  0  0  0  0
  -23.7612  -30.5787   19.3973 H   0  0  0  0  0  0
  -22.7608  -29.2335   19.8554 H   0  0  0  0  0  0
  -25.1300  -36.1902   25.0816 H   0  0  0  0  0  0
  -20.9985  -28.3265   24.1403 H   0  0  0  0  0  0
  -20.5667  -26.2292   23.3617 H   0  0  0  0  0  0
  -21.6637  -26.7424   22.1210 H   0  0  0  0  0  0
  -19.6908  -25.6290   21.1241 H   0  0  0  0  0  0
  -19.6693  -27.3192   20.6745 H   0  0  0  0  0  0
  -17.4198  -26.6679   21.4025 H   0  0  0  0  0  0
  -18.0323  -26.0070   22.9026 H   0  0  0  0  0  0
  -19.7946  -30.7269   24.2257 H   0  0  0  0  0  0
  -17.5022  -31.6265   24.5162 H   0  0  0  0  0  0
  -15.5357  -30.2978   23.7658 H   0  0  0  0  0  0
  -15.8680  -28.0822   22.7054 H   0  0  0  0  0  0
  -24.5905  -30.7069   25.7758 H   0  0  0  0  0  0
  -24.8887  -32.2909   26.4807 H   0  0  0  0  0  0
  -25.8028  -30.8952   27.0226 H   0  0  0  0  0  0
  -26.2923  -29.6739   24.1208 H   0  0  0  0  0  0
  -27.4025  -29.7264   25.4702 H   0  0  0  0  0  0
  -27.8798  -30.4267   23.9420 H   0  0  0  0  0  0
  -27.2657  -33.3629   26.2037 H   0  0  0  0  0  0
  -28.3873  -32.6866   25.0316 H   0  0  0  0  0  0
  -28.0700  -31.8453   26.5414 H   0  0  0  0  0  0
  -28.2584  -38.0098   24.7505 H   0  0  0  0  0  0
  -28.1086  -36.2627   24.6286 H   0  0  0  0  0  0
  -27.2294  -37.1438   25.8861 H   0  0  0  0  0  0
  -20.9377  -29.8764   21.6891 H   0  0  0  0  0  0
  -26.0166  -38.2835   24.1417 H   0  0  0  0  0  0
  -33.1486  -19.1125   21.1644 H   0  0  0  0  0  0
  -32.3940  -16.8626   21.0263 H   0  0  0  0  0  0
  -27.9310  -20.9525   21.2104 H   0  0  0  0  0  0
  -30.0347  -22.6535   19.8357 H   0  0  0  0  0  0
  -32.8312  -21.3026   21.6709 H   0  0  0  0  0  0
  -31.2606  -22.0294   21.8456 H   0  0  0  0  0  0
  -32.0354  -21.9289   20.2425 H   0  0  0  0  0  0
  -26.4297  -18.0367   18.8239 H   0  0  0  0  0  0
  -28.0575  -17.5557   18.3516 H   0  0  0  0  0  0
  -27.6646  -19.2620   18.5541 H   0  0  0  0  0  0
  -27.2879  -18.8707   21.0222 H   0  0  0  0  0  0
  -27.6380  -17.1963   20.8248 H   0  0  0  0  0  0
  -28.5027  -24.0469   21.6138 H   0  0  0  0  0  0
  -27.1880  -23.4746   20.6427 H   0  0  0  0  0  0
  -27.8672  -24.9390   18.7552 H   0  0  0  0  0  0
  -29.4761  -24.9934   19.3188 H   0  0  0  0  0  0
  -28.8999  -15.6954   20.8075 H   0  0  0  0  0  0
  1 25  1  0  0  0
  1 30  2  0  0  0
  1 84  1  0  0  0
  2  3  1  0  0  0
  2 25  1  0  0  0
  2 85  1  0  0  0
  2 86  1  0  0  0
  3  4  1  0  0  0
  3 87  1  0  0  0
  3 88  1  0  0  0
  4  5  1  0  0  0
  4 89  1  0  0  0
  4 90  1  0  0  0
  5  6  1  0  0  0
  5 26  1  0  0  0
  5 91  1  0  0  0
  6 25  1  0  0  0
  6 92  1  0  0  0
  6 93  1  0  0  0
  7  8  2  0  0  0
  7 26  1  0  0  0
  7 29  1  0  0  0
  8  9  1  0  0  0
  8 22  1  0  0  0
  9 10  1  0  0  0
  9 27  2  0  0  0
 10 11  2  0  0  0
 10 15  1  0  0  0
 11 12  1  0  0  0
 11 94  1  0  0  0
 12 13  2  0  0  0
 12 95  1  0  0  0
 13 14  1  0  0  0
 13 31  1  0  0  0
 14 15  2  0  0  0
 14 96  1  0  0  0
 15 97  1  0  0  0
 16 17  2  0  0  0
 16 21  1  0  0  0
 16 31  1  0  0  0
 17 18  1  0  0  0
 17 98  1  0  0  0
 18 19  2  0  0  0
 18 99  1  0  0  0
 19 20  1  0  0  0
 19 24  1  0  0  0
 20 21  2  0  0  0
 20100  1  0  0  0
 21 23  1  0  0  0
 22 28  1  0  0  0
 22 32  2  0  0  0
 26 27  1  0  0  0
 28101  1  0  0  0
 28102  1  0  0  0
 29103  1  0  0  0
 29104  1  0  0  0
 33 34  1  0  0  0
 33 66  1  0  0  0
 33 70  2  0  0  0
 34 36  1  0  0  0
 34 59  1  0  0  0
 34105  1  0  0  0
 35 44  2  0  0  0
 35 45  1  0  0  0
 35 68  1  0  0  0
 36 56  1  0  0  0
 36106  1  0  0  0
 37 39  1  0  0  0
 37 47  1  0  0  0
 37 66  1  0  0  0
 37107  1  0  0  0
 38 43  2  0  0  0
 38 46  1  0  0  0
 38 47  1  0  0  0
 39 64  1  0  0  0
 39 67  2  0  0  0
 40 52  1  0  0  0
 40 53  2  0  0  0
 40 58  1  0  0  0
 41108  1  0  0  0
 41109  1  0  0  0
 41110  1  0  0  0
 41 48  1  0  0  0
 42 43  1  0  0  0
 42 66  1  0  0  0
 42111  1  0  0  0
 42112  1  0  0  0
 43 44  1  0  0  0
 44113  1  0  0  0
 45 46  2  0  0  0
 45114  1  0  0  0
 46115  1  0  0  0
 47116  1  0  0  0
 47117  1  0  0  0
 48 56  1  0  0  0
 48 65  1  0  0  0
 48118  1  0  0  0
 49 50  1  0  0  0
 49 53  1  0  0  0
 49 64  1  0  0  0
 49119  1  0  0  0
 50 51  1  0  0  0
 50120  1  0  0  0
 50121  1  0  0  0
 51 52  1  0  0  0
 51122  1  0  0  0
 51123  1  0  0  0
 52124  1  0  0  0
 52125  1  0  0  0
 53 54  1  0  0  0
 54 55  2  0  0  0
 54126  1  0  0  0
 55 57  1  0  0  0
 55127  1  0  0  0
 56 69  2  0  0  0
 57 58  2  0  0  0
 57128  1  0  0  0
 58129  1  0  0  0
 59 60  1  0  0  0
 59 61  1  0  0  0
 59 62  1  0  0  0
 60130  1  0  0  0
 60131  1  0  0  0
 60132  1  0  0  0
 61133  1  0  0  0
 61134  1  0  0  0
 61135  1  0  0  0
 62136  1  0  0  0
 62137  1  0  0  0
 62138  1  0  0  0
 63 65  1  0  0  0
 63139  1  0  0  0
 63140  1  0  0  0
 63141  1  0  0  0
 64142  1  0  0  0
 65143  1  0  0  0
 68 83  1  0  0  0
 71 72  2  0  0  0
 71 74  1  0  0  0
 71144  1  0  0  0
 72 76  1  0  0  0
 72145  1  0  0  0
 73 74  2  0  0  0
 73 75  1  0  0  0
 73 77  1  0  0  0
 74 79  1  0  0  0
 75 76  2  0  0  0
 75 81  1  0  0  0
 76 84  1  0  0  0
 77 78  2  0  0  0
 77146  1  0  0  0
 78 82  1  0  0  0
 78147  1  0  0  0
 79148  1  0  0  0
 79149  1  0  0  0
 79150  1  0  0  0
 80 81  1  0  0  0
 80151  1  0  0  0
 80152  1  0  0  0
 80153  1  0  0  0
 81154  1  0  0  0
 81155  1  0  0  0
 82 83  1  0  0  0
 82156  1  0  0  0
 82157  1  0  0  0
 83158  1  0  0  0
 83159  1  0  0  0
 84160  1  0  0  0
M  ISO  4   1 100  68 101  83 101  84 100
M  END
> <chiral flag>
0

> <version>
0

> <s_m_source_file>
/data/baiqing/PycharmProjects/Reinvent-master-3.2/result/LINK_invent/BTK/process_docking_weight1_custom_product_contain_oxygen_bond_distance_aromatic_linkinvent_7_9_3/rearranged_h_0126.sdf

> <i_m_source_file_index>
9

> <r_mmod_Potential_Energy-OPLS-2005>
181.740783691406

> <r_mmod_Stretch_Energy-OPLS-2005>
127.179328918457

> <r_mmod_Bend_Energy-OPLS-2005>
171.445007324219

> <r_mmod_Torsional_Energy-OPLS-2005>
225.062362670898

> <r_mmod_Improper_Torsional_Energy-OPLS-2005>
7.38686752319336

> <r_mmod_Van_der_Waal_Energy-OPLS-2005>
149.478103637695

> <r_mmod_Electrostatic_Energy-OPLS-2005>
-372.864685058594

> <r_mmod_Solvation_Energy-OPLS-2005>
-198.607635498047

> <b_mmod_Minimization_Converged-OPLS-2005>
0

> <r_mmod_RMS_Derivative-OPLS-2005>
0.712795436382294

$$$$
9
                    3D
 Structure written by MMmdl.
154162  0  0  1  0            999 V2000
  -30.7291  -14.4685   20.6670 C   0  0  0  0  0  0
  -30.4185  -12.3380   19.4310 C   0  0  0  0  0  0
  -29.4911  -12.5380   18.2133 C   0  0  0  0  0  0
  -28.0132  -12.3777   18.6143 C   0  0  0  0  0  0
  -27.6598  -13.2036   19.8768 C   0  0  2  0  0  0
  -28.6906  -12.9584   20.9977 C   0  0  0  0  0  0
  -25.2556  -13.8142   20.5665 C   0  0  0  0  0  0
  -24.1813  -13.0438   20.9183 C   0  0  0  0  0  0
  -24.6357  -11.6893   20.8721 C   0  0  0  0  0  0
  -23.9034  -10.4283   21.0398 C   0  0  0  0  0  0
  -24.3604   -9.4205   21.9176 C   0  0  0  0  0  0
  -23.6293   -8.2243   22.0748 C   0  0  0  0  0  0
  -22.4273   -8.0271   21.3547 C   0  0  0  0  0  0
  -21.9888   -9.0240   20.4645 C   0  0  0  0  0  0
  -22.7201  -10.2123   20.3052 C   0  0  0  0  0  0
  -21.6844   -6.0731   22.5291 C   0  0  0  0  0  0
  -21.4011   -6.5646   23.8222 C   0  0  0  0  0  0
  -21.3659   -5.6796   24.9186 C   0  0  0  0  0  0
  -21.6055   -4.3062   24.7231 C   0  0  0  0  0  0
  -21.8813   -3.8150   23.4357 C   0  0  0  0  0  0
  -21.9194   -4.6968   22.3408 C   0  0  0  0  0  0
  -22.7843  -13.5226   21.1877 C   0  0  0  0  0  0
  -22.1660   -4.2151   21.0988 F   0  0  0  0  0  0
  -21.5627   -3.4546   25.7750 F   0  0  0  0  0  0
  -30.0328  -13.2998   20.4847 N   0  0  0  0  0  0
  -26.2988  -12.9306   20.3335 N   0  0  0  0  0  0
  -25.9280  -11.6469   20.5723 N   0  0  0  0  0  0
  -22.0519  -12.8207   22.0448 N   0  0  0  0  0  0
  -25.4309  -15.1854   20.4021 N   0  0  0  0  0  0
  -31.7504  -14.7325   20.0229 O   0  0  0  0  0  0
  -21.6639   -6.8875   21.4244 O   0  0  0  0  0  0
  -22.3512  -14.5541   20.6741 O   0  0  0  0  0  0
  -24.6193  -31.8673   23.2096 C   0  0  0  0  0  0
  -25.9086  -32.4810   23.8380 C   0  0  1  0  0  0
  -27.2193  -27.3858   20.0675 C   0  0  0  0  0  0
  -25.5926  -33.8602   24.2300 N   0  0  0  0  0  0
  -23.4067  -30.4969   21.5538 C   0  0  2  0  0  0
  -24.8475  -28.9639   20.1152 C   0  0  0  0  0  0
  -22.7427  -29.4675   22.4982 C   0  0  0  0  0  0
  -18.0287  -28.1371   22.8501 C   0  0  0  0  0  0
  -24.1482  -36.7287   23.2625 C   0  0  0  0  0  0
  -25.9455  -30.8137   21.3734 C   0  0  0  0  0  0
  -26.0173  -29.4474   20.7121 C   0  0  0  0  0  0
  -27.2025  -28.6636   20.6930 C   0  0  0  0  0  0
  -26.0238  -26.9534   19.4397 C   0  0  0  0  0  0
  -24.8454  -27.7142   19.4841 C   0  0  0  0  0  0
  -23.6157  -29.8372   20.1679 C   0  0  0  0  0  0
  -25.4106  -36.3084   24.0325 C   0  0  1  0  0  0
  -20.5876  -28.3662   23.1305 C   0  0  2  0  0  0
  -20.6772  -26.9390   22.5408 C   0  0  0  0  0  0
  -19.5740  -26.6376   21.5216 C   0  0  0  0  0  0
  -18.1934  -26.7917   22.1645 C   0  0  0  0  0  0
  -19.1534  -28.8843   23.2897 C   0  0  0  0  0  0
  -18.9460  -30.1454   23.8884 C   0  0  0  0  0  0
  -17.6455  -30.6571   24.0567 C   0  0  0  0  0  0
  -25.9057  -34.9461   23.5109 C   0  0  0  0  0  0
  -16.5348  -29.9065   23.6339 C   0  0  0  0  0  0
  -16.7278  -28.6489   23.0353 C   0  0  0  0  0  0
  -26.4481  -31.6594   25.0729 C   0  0  0  0  0  0
  -25.3739  -31.3737   26.1473 C   0  0  0  0  0  0
  -27.0307  -30.3022   24.6154 C   0  0  0  0  0  0
  -27.6028  -32.4329   25.7512 C   0  0  0  0  0  0
  -27.5599  -37.1762   24.8442 C   0  0  0  0  0  0
  -21.4157  -29.3027   22.3701 N   0  0  0  0  0  0
  -26.4260  -37.3804   23.9454 N   0  0  0  0  0  0
  -24.6756  -31.0741   22.1021 N   0  0  0  0  0  0
  -23.4200  -28.8196   23.3007 O   0  0  0  0  0  0
  -28.3628  -26.5821   20.0978 O   0  0  0  0  0  0
  -26.5615  -34.8917   22.4670 O   0  0  0  0  0  0
  -23.5370  -32.1451   23.7476 O   0  0  0  0  0  0
  -29.3515  -17.6825   20.6883 C   0  0  0  0  0  0
  -30.3009  -16.9188   21.4392 C   0  0  0  0  0  0
  -29.7486  -19.0008   20.7530 C   0  0  0  0  0  0
  -31.2178  -17.8162   21.9151 C   0  0  0  0  0  0
  -29.1897  -20.2342   20.2361 C   0  0  0  0  0  0
  -29.6285  -21.5179   20.3380 C   0  0  0  0  0  0
  -30.2639  -15.4507   21.7633 C   0  0  0  0  0  0
  -28.9019  -22.6735   19.7320 C   0  0  0  0  0  0
  -32.4217  -17.6978   22.7930 C   0  0  0  0  0  0
  -29.2163  -24.1250   20.2084 C   0  0  0  0  0  0
  -28.2381  -25.2022   19.6328 C   0  0  0  0  0  0
  -29.9542  -15.0784   22.9368 N   0  0  0  0  0  0
  -28.0497  -22.5058   18.8541 O   0  0  0  0  0  0
  -30.8971  -19.0813   21.4931 O   0  0  0  0  0  0
  -31.4612  -12.4449   19.1287 H   0  0  0  0  0  0
  -30.3311  -11.3172   19.8076 H   0  0  0  0  0  0
  -29.7400  -11.8277   17.4230 H   0  0  0  0  0  0
  -29.6521  -13.5335   17.7954 H   0  0  0  0  0  0
  -27.8250  -11.3190   18.7959 H   0  0  0  0  0  0
  -27.3617  -12.6589   17.7859 H   0  0  0  0  0  0
  -27.7125  -14.2574   19.6020 H   0  0  0  0  0  0
  -28.6762  -11.9074   21.2915 H   0  0  0  0  0  0
  -28.3809  -13.4978   21.8874 H   0  0  0  0  0  0
  -25.2766   -9.5683   22.4727 H   0  0  0  0  0  0
  -24.0026   -7.4617   22.7439 H   0  0  0  0  0  0
  -21.0840   -8.8737   19.8930 H   0  0  0  0  0  0
  -22.3670  -10.9659   19.6146 H   0  0  0  0  0  0
  -21.1999   -7.6153   23.9725 H   0  0  0  0  0  0
  -21.1483   -6.0533   25.9088 H   0  0  0  0  0  0
  -22.0590   -2.7614   23.2860 H   0  0  0  0  0  0
  -22.4158  -11.9856   22.4804 H   0  0  0  0  0  0
  -21.1135  -13.1192   22.2694 H   0  0  0  0  0  0
  -24.6684  -15.8467   20.4972 H   0  0  0  0  0  0
  -26.2839  -15.6083   20.0594 H   0  0  0  0  0  0
  -26.7148  -32.5518   23.1118 H   0  0  0  0  0  0
  -25.0082  -33.9737   25.0449 H   0  0  0  0  0  0
  -22.6970  -31.3165   21.4194 H   0  0  0  0  0  0
  -23.3757  -35.9602   23.3247 H   0  0  0  0  0  0
  -24.3605  -36.8963   22.2054 H   0  0  0  0  0  0
  -23.7203  -37.6461   23.6671 H   0  0  0  0  0  0
  -26.0748  -31.5816   20.6096 H   0  0  0  0  0  0
  -26.8255  -30.8586   22.0027 H   0  0  0  0  0  0
  -28.0990  -29.0318   21.1720 H   0  0  0  0  0  0
  -25.9560  -26.0228   18.8983 H   0  0  0  0  0  0
  -23.9417  -27.3397   19.0227 H   0  0  0  0  0  0
  -23.7312  -30.6160   19.4132 H   0  0  0  0  0  0
  -22.7367  -29.2637   19.8691 H   0  0  0  0  0  0
  -25.1266  -36.1921   25.0809 H   0  0  0  0  0  0
  -20.9978  -28.3216   24.1423 H   0  0  0  0  0  0
  -20.5701  -26.2251   23.3598 H   0  0  0  0  0  0
  -21.6643  -26.7440   22.1180 H   0  0  0  0  0  0
  -19.6889  -25.6293   21.1239 H   0  0  0  0  0  0
  -19.6669  -27.3205   20.6765 H   0  0  0  0  0  0
  -17.4194  -26.6668   21.4054 H   0  0  0  0  0  0
  -18.0331  -26.0058   22.9044 H   0  0  0  0  0  0
  -19.7929  -30.7294   24.2213 H   0  0  0  0  0  0
  -17.5010  -31.6260   24.5161 H   0  0  0  0  0  0
  -15.5343  -30.2959   23.7673 H   0  0  0  0  0  0
  -15.8688  -28.0819   22.7040 H   0  0  0  0  0  0
  -24.5872  -30.7132   25.7812 H   0  0  0  0  0  0
  -24.8974  -32.2912   26.4925 H   0  0  0  0  0  0
  -25.8070  -30.8884   27.0228 H   0  0  0  0  0  0
  -26.2869  -29.6810   24.1144 H   0  0  0  0  0  0
  -27.3986  -29.7243   25.4643 H   0  0  0  0  0  0
  -27.8746  -30.4315   23.9377 H   0  0  0  0  0  0
  -27.2606  -33.3610   26.2100 H   0  0  0  0  0  0
  -28.3822  -32.6936   25.0342 H   0  0  0  0  0  0
  -28.0705  -31.8469   26.5435 H   0  0  0  0  0  0
  -28.2483  -38.0186   24.7670 H   0  0  0  0  0  0
  -28.1214  -36.2730   24.6003 H   0  0  0  0  0  0
  -27.2357  -37.1100   25.8841 H   0  0  0  0  0  0
  -20.9309  -29.8762   21.6942 H   0  0  0  0  0  0
  -26.0132  -38.2843   24.1580 H   0  0  0  0  0  0
  -28.4658  -17.3181   20.1912 H   0  0  0  0  0  0
  -28.2693  -20.0803   19.6877 H   0  0  0  0  0  0
  -30.5409  -21.7395   20.8705 H   0  0  0  0  0  0
  -33.1074  -16.9426   22.4078 H   0  0  0  0  0  0
  -32.1375  -17.4063   23.8045 H   0  0  0  0  0  0
  -32.9614  -18.6428   22.8538 H   0  0  0  0  0  0
  -30.2530  -24.3686   19.9761 H   0  0  0  0  0  0
  -29.1303  -24.1204   21.2939 H   0  0  0  0  0  0
  -27.2585  -24.8078   19.9012 H   0  0  0  0  0  0
  -28.2980  -25.2105   18.5415 H   0  0  0  0  0  0
  -30.0288  -14.0698   23.0188 H   0  0  0  0  0  0
  1 25  1  0  0  0
  1 30  2  0  0  0
  1 77  1  0  0  0
  2  3  1  0  0  0
  2 25  1  0  0  0
  2 85  1  0  0  0
  2 86  1  0  0  0
  3  4  1  0  0  0
  3 87  1  0  0  0
  3 88  1  0  0  0
  4  5  1  0  0  0
  4 89  1  0  0  0
  4 90  1  0  0  0
  5  6  1  0  0  0
  5 26  1  0  0  0
  5 91  1  0  0  0
  6 25  1  0  0  0
  6 92  1  0  0  0
  6 93  1  0  0  0
  7  8  2  0  0  0
  7 26  1  0  0  0
  7 29  1  0  0  0
  8  9  1  0  0  0
  8 22  1  0  0  0
  9 10  1  0  0  0
  9 27  2  0  0  0
 10 11  2  0  0  0
 10 15  1  0  0  0
 11 12  1  0  0  0
 11 94  1  0  0  0
 12 13  2  0  0  0
 12 95  1  0  0  0
 13 14  1  0  0  0
 13 31  1  0  0  0
 14 15  2  0  0  0
 14 96  1  0  0  0
 15 97  1  0  0  0
 16 17  2  0  0  0
 16 21  1  0  0  0
 16 31  1  0  0  0
 17 18  1  0  0  0
 17 98  1  0  0  0
 18 19  2  0  0  0
 18 99  1  0  0  0
 19 20  1  0  0  0
 19 24  1  0  0  0
 20 21  2  0  0  0
 20100  1  0  0  0
 21 23  1  0  0  0
 22 28  1  0  0  0
 22 32  2  0  0  0
 26 27  1  0  0  0
 28101  1  0  0  0
 28102  1  0  0  0
 29103  1  0  0  0
 29104  1  0  0  0
 33 34  1  0  0  0
 33 66  1  0  0  0
 33 70  2  0  0  0
 34 36  1  0  0  0
 34 59  1  0  0  0
 34105  1  0  0  0
 35 44  2  0  0  0
 35 45  1  0  0  0
 35 68  1  0  0  0
 36 56  1  0  0  0
 36106  1  0  0  0
 37 39  1  0  0  0
 37 47  1  0  0  0
 37 66  1  0  0  0
 37107  1  0  0  0
 38 43  2  0  0  0
 38 46  1  0  0  0
 38 47  1  0  0  0
 39 64  1  0  0  0
 39 67  2  0  0  0
 40 52  1  0  0  0
 40 53  2  0  0  0
 40 58  1  0  0  0
 41108  1  0  0  0
 41109  1  0  0  0
 41110  1  0  0  0
 41 48  1  0  0  0
 42 43  1  0  0  0
 42 66  1  0  0  0
 42111  1  0  0  0
 42112  1  0  0  0
 43 44  1  0  0  0
 44113  1  0  0  0
 45 46  2  0  0  0
 45114  1  0  0  0
 46115  1  0  0  0
 47116  1  0  0  0
 47117  1  0  0  0
 48 56  1  0  0  0
 48 65  1  0  0  0
 48118  1  0  0  0
 49 50  1  0  0  0
 49 53  1  0  0  0
 49 64  1  0  0  0
 49119  1  0  0  0
 50 51  1  0  0  0
 50120  1  0  0  0
 50121  1  0  0  0
 51 52  1  0  0  0
 51122  1  0  0  0
 51123  1  0  0  0
 52124  1  0  0  0
 52125  1  0  0  0
 53 54  1  0  0  0
 54 55  2  0  0  0
 54126  1  0  0  0
 55 57  1  0  0  0
 55127  1  0  0  0
 56 69  2  0  0  0
 57 58  2  0  0  0
 57128  1  0  0  0
 58129  1  0  0  0
 59 60  1  0  0  0
 59 61  1  0  0  0
 59 62  1  0  0  0
 60130  1  0  0  0
 60131  1  0  0  0
 60132  1  0  0  0
 61133  1  0  0  0
 61134  1  0  0  0
 61135  1  0  0  0
 62136  1  0  0  0
 62137  1  0  0  0
 62138  1  0  0  0
 63 65  1  0  0  0
 63139  1  0  0  0
 63140  1  0  0  0
 63141  1  0  0  0
 64142  1  0  0  0
 65143  1  0  0  0
 68 81  1  0  0  0
 71 72  1  0  0  0
 71 73  2  0  0  0
 71144  1  0  0  0
 72 74  2  0  0  0
 72 77  1  0  0  0
 73 75  1  0  0  0
 73 84  1  0  0  0
 74 79  1  0  0  0
 74 84  1  0  0  0
 75 76  2  0  0  0
 75145  1  0  0  0
 76 78  1  0  0  0
 76146  1  0  0  0
 77 82  2  0  0  0
 78 80  1  0  0  0
 78 83  2  0  0  0
 79147  1  0  0  0
 79148  1  0  0  0
 79149  1  0  0  0
 80 81  1  0  0  0
 80150  1  0  0  0
 80151  1  0  0  0
 81152  1  0  0  0
 81153  1  0  0  0
 82154  1  0  0  0
M  ISO  4   1 100  68 101  77 100  81 101
M  END
> <chiral flag>
0

> <version>
0

> <s_m_source_file>
/data/baiqing/PycharmProjects/Reinvent-master-3.2/result/LINK_invent/BTK/process_docking_weight1_custom_product_contain_oxygen_bond_distance_aromatic_linkinvent_7_9_3/rearranged_h_0126.sdf

> <i_m_source_file_index>
10

> <r_mmod_Potential_Energy-OPLS-2005>
44.0751953125

> <r_mmod_Stretch_Energy-OPLS-2005>
51.7956352233887

> <r_mmod_Bend_Energy-OPLS-2005>
115.368301391602

> <r_mmod_Torsional_Energy-OPLS-2005>
205.363952636719

> <r_mmod_Improper_Torsional_Energy-OPLS-2005>
3.34175038337708

> <r_mmod_Van_der_Waal_Energy-OPLS-2005>
139.355377197266

> <r_mmod_Electrostatic_Energy-OPLS-2005>
-276.968627929688

> <r_mmod_Solvation_Energy-OPLS-2005>
-212.665817260742

> <b_mmod_Minimization_Converged-OPLS-2005>
0

> <r_mmod_RMS_Derivative-OPLS-2005>
3.25986194610596

$$$$
10
                    3D
 Structure written by MMmdl.
154162  0  0  1  0            999 V2000
  -30.6227  -14.6297   20.4963 C   0  0  0  0  0  0
  -30.4371  -12.3837   19.4508 C   0  0  0  0  0  0
  -29.5080  -12.5102   18.2224 C   0  0  0  0  0  0
  -28.0303  -12.3485   18.6330 C   0  0  0  0  0  0
  -27.6546  -13.2157   19.8642 C   0  0  2  0  0  0
  -28.6983  -13.0634   20.9941 C   0  0  0  0  0  0
  -25.2569  -13.8169   20.5694 C   0  0  0  0  0  0
  -24.1829  -13.0442   20.9198 C   0  0  0  0  0  0
  -24.6388  -11.6909   20.8730 C   0  0  0  0  0  0
  -23.9052  -10.4295   21.0404 C   0  0  0  0  0  0
  -24.3603   -9.4215   21.9186 C   0  0  0  0  0  0
  -23.6287   -8.2246   22.0755 C   0  0  0  0  0  0
  -22.4271   -8.0276   21.3544 C   0  0  0  0  0  0
  -21.9899   -9.0251   20.4650 C   0  0  0  0  0  0
  -22.7221  -10.2136   20.3059 C   0  0  0  0  0  0
  -21.6853   -6.0732   22.5280 C   0  0  0  0  0  0
  -21.4013   -6.5636   23.8213 C   0  0  0  0  0  0
  -21.3660   -5.6789   24.9177 C   0  0  0  0  0  0
  -21.6045   -4.3052   24.7227 C   0  0  0  0  0  0
  -21.8818   -3.8142   23.4348 C   0  0  0  0  0  0
  -21.9193   -4.6959   22.3404 C   0  0  0  0  0  0
  -22.7850  -13.5245   21.1861 C   0  0  0  0  0  0
  -22.1664   -4.2145   21.0982 F   0  0  0  0  0  0
  -21.5629   -3.4535   25.7740 F   0  0  0  0  0  0
  -30.0163  -13.4028   20.4329 N   0  0  0  0  0  0
  -26.2991  -12.9345   20.3313 N   0  0  0  0  0  0
  -25.9314  -11.6502   20.5736 N   0  0  0  0  0  0
  -22.0479  -12.8244   22.0413 N   0  0  0  0  0  0
  -25.4297  -15.1889   20.4121 N   0  0  0  0  0  0
  -31.7849  -14.7887   20.1104 O   0  0  0  0  0  0
  -21.6636   -6.8873   21.4243 O   0  0  0  0  0  0
  -22.3544  -14.5554   20.6707 O   0  0  0  0  0  0
  -24.6259  -31.8613   23.2040 C   0  0  0  0  0  0
  -25.9107  -32.4786   23.8374 C   0  0  1  0  0  0
  -27.2267  -27.3306   20.1030 C   0  0  0  0  0  0
  -25.5925  -33.8587   24.2296 N   0  0  0  0  0  0
  -23.4192  -30.4854   21.5478 C   0  0  2  0  0  0
  -24.8651  -28.9452   20.1122 C   0  0  0  0  0  0
  -22.7480  -29.4626   22.4955 C   0  0  0  0  0  0
  -18.0287  -28.1381   22.8486 C   0  0  0  0  0  0
  -24.1486  -36.7298   23.2640 C   0  0  0  0  0  0
  -25.9610  -30.7943   21.3756 C   0  0  0  0  0  0
  -26.0354  -29.4231   20.7155 C   0  0  0  0  0  0
  -27.2188  -28.6270   20.7029 C   0  0  0  0  0  0
  -26.0306  -26.9077   19.4743 C   0  0  0  0  0  0
  -24.8643  -27.6915   19.4848 C   0  0  0  0  0  0
  -23.6330  -29.8233   20.1627 C   0  0  0  0  0  0
  -25.4112  -36.3092   24.0334 C   0  0  1  0  0  0
  -20.5886  -28.3682   23.1292 C   0  0  2  0  0  0
  -20.6773  -26.9408   22.5411 C   0  0  0  0  0  0
  -19.5746  -26.6381   21.5214 C   0  0  0  0  0  0
  -18.1928  -26.7921   22.1631 C   0  0  0  0  0  0
  -19.1538  -28.8850   23.2880 C   0  0  0  0  0  0
  -18.9457  -30.1451   23.8894 C   0  0  0  0  0  0
  -17.6456  -30.6579   24.0562 C   0  0  0  0  0  0
  -25.9047  -34.9458   23.5114 C   0  0  0  0  0  0
  -16.5347  -29.9078   23.6330 C   0  0  0  0  0  0
  -16.7273  -28.6499   23.0345 C   0  0  0  0  0  0
  -26.4487  -31.6589   25.0740 C   0  0  0  0  0  0
  -25.3714  -31.3727   26.1462 C   0  0  0  0  0  0
  -27.0330  -30.3015   24.6189 C   0  0  0  0  0  0
  -27.6060  -32.4311   25.7502 C   0  0  0  0  0  0
  -27.5580  -37.1804   24.8466 C   0  0  0  0  0  0
  -21.4193  -29.3039   22.3694 N   0  0  0  0  0  0
  -26.4295  -37.3782   23.9405 N   0  0  0  0  0  0
  -24.6878  -31.0633   22.0992 N   0  0  0  0  0  0
  -23.4208  -28.8161   23.3025 O   0  0  0  0  0  0
  -28.3438  -26.4814   20.1469 O   0  0  0  0  0  0
  -26.5616  -34.8922   22.4679 O   0  0  0  0  0  0
  -23.5420  -32.1413   23.7369 O   0  0  0  0  0  0
  -28.8370  -19.3624   20.9828 C   0  0  0  0  0  0
  -28.8331  -17.9449   21.1351 C   0  0  0  0  0  0
  -30.9512  -17.8099   20.0196 C   0  0  0  0  0  0
  -29.9158  -20.0584   20.3776 C   0  0  0  0  0  0
  -30.9720  -19.2316   19.8623 C   0  0  0  0  0  0
  -29.8956  -17.1240   20.6724 C   0  0  0  0  0  0
  -32.1252  -20.7940   18.2397 C   0  0  0  0  0  0
  -29.9659  -21.5829   20.3252 C   0  0  0  0  0  0
  -32.1202  -19.7534   19.0917 C   0  0  0  0  0  0
  -28.9777  -22.5336   20.2820 C   0  0  0  0  0  0
  -29.2400  -24.0346   20.2880 C   0  0  0  0  0  0
  -28.0940  -25.0414   19.9057 C   0  0  0  0  0  0
  -29.8135  -15.6732   20.8622 N   0  0  0  0  0  0
  -30.3480  -24.4953   20.5844 O   0  0  0  0  0  0
  -31.4802  -12.5033   19.1517 H   0  0  0  0  0  0
  -30.3642  -11.3855   19.8859 H   0  0  0  0  0  0
  -29.7712  -11.7651   17.4706 H   0  0  0  0  0  0
  -29.6508  -13.4835   17.7505 H   0  0  0  0  0  0
  -27.8647  -11.2947   18.8598 H   0  0  0  0  0  0
  -27.3755  -12.5837   17.7930 H   0  0  0  0  0  0
  -27.6748  -14.2520   19.5269 H   0  0  0  0  0  0
  -28.7045  -12.0410   21.3729 H   0  0  0  0  0  0
  -28.4440  -13.6920   21.8491 H   0  0  0  0  0  0
  -25.2747   -9.5693   22.4761 H   0  0  0  0  0  0
  -23.9999   -7.4633   22.7467 H   0  0  0  0  0  0
  -21.0832   -8.8766   19.8953 H   0  0  0  0  0  0
  -22.3675  -10.9675   19.6164 H   0  0  0  0  0  0
  -21.2004   -7.6145   23.9715 H   0  0  0  0  0  0
  -21.1487   -6.0521   25.9080 H   0  0  0  0  0  0
  -22.0596   -2.7606   23.2848 H   0  0  0  0  0  0
  -22.4081  -11.9901   22.4807 H   0  0  0  0  0  0
  -21.1096  -13.1282   22.2608 H   0  0  0  0  0  0
  -24.6627  -15.8434   20.5206 H   0  0  0  0  0  0
  -26.2751  -15.6246   20.0664 H   0  0  0  0  0  0
  -26.7178  -32.5462   23.1131 H   0  0  0  0  0  0
  -25.0059  -33.9729   25.0431 H   0  0  0  0  0  0
  -22.7130  -31.3062   21.4071 H   0  0  0  0  0  0
  -23.3746  -35.9634   23.3318 H   0  0  0  0  0  0
  -24.3570  -36.8895   22.2049 H   0  0  0  0  0  0
  -23.7244  -37.6510   23.6644 H   0  0  0  0  0  0
  -26.0935  -31.5598   20.6098 H   0  0  0  0  0  0
  -26.8415  -30.8401   22.0055 H   0  0  0  0  0  0
  -28.1172  -28.9892   21.1831 H   0  0  0  0  0  0
  -25.9605  -25.9560   18.9694 H   0  0  0  0  0  0
  -23.9680  -27.3204   19.0077 H   0  0  0  0  0  0
  -23.7512  -30.6015   19.4077 H   0  0  0  0  0  0
  -22.7534  -29.2511   19.8610 H   0  0  0  0  0  0
  -25.1288  -36.1958   25.0828 H   0  0  0  0  0  0
  -20.9971  -28.3245   24.1416 H   0  0  0  0  0  0
  -20.5682  -26.2283   23.3602 H   0  0  0  0  0  0
  -21.6638  -26.7438   22.1199 H   0  0  0  0  0  0
  -19.6903  -25.6294   21.1237 H   0  0  0  0  0  0
  -19.6684  -27.3198   20.6747 H   0  0  0  0  0  0
  -17.4194  -26.6668   21.4034 H   0  0  0  0  0  0
  -18.0334  -26.0064   22.9031 H   0  0  0  0  0  0
  -19.7930  -30.7268   24.2264 H   0  0  0  0  0  0
  -17.5008  -31.6261   24.5159 H   0  0  0  0  0  0
  -15.5346  -30.2976   23.7647 H   0  0  0  0  0  0
  -15.8678  -28.0818   22.7056 H   0  0  0  0  0  0
  -24.5893  -30.7071   25.7788 H   0  0  0  0  0  0
  -24.8893  -32.2887   26.4888 H   0  0  0  0  0  0
  -25.8026  -30.8905   27.0244 H   0  0  0  0  0  0
  -26.2908  -29.6769   24.1203 H   0  0  0  0  0  0
  -27.4019  -29.7266   25.4695 H   0  0  0  0  0  0
  -27.8782  -30.4308   23.9426 H   0  0  0  0  0  0
  -27.2694  -33.3619   26.2086 H   0  0  0  0  0  0
  -28.3867  -32.6853   25.0317 H   0  0  0  0  0  0
  -28.0736  -31.8427   26.5409 H   0  0  0  0  0  0
  -28.2606  -38.0093   24.7500 H   0  0  0  0  0  0
  -28.1062  -36.2620   24.6307 H   0  0  0  0  0  0
  -27.2291  -37.1478   25.8868 H   0  0  0  0  0  0
  -20.9372  -29.8770   21.6911 H   0  0  0  0  0  0
  -26.0183  -38.2864   24.1387 H   0  0  0  0  0  0
  -28.0049  -19.9248   21.3819 H   0  0  0  0  0  0
  -27.9881  -17.4894   21.6330 H   0  0  0  0  0  0
  -31.7723  -17.2410   19.6081 H   0  0  0  0  0  0
  -33.0367  -21.0911   17.7410 H   0  0  0  0  0  0
  -31.2350  -21.3633   18.0160 H   0  0  0  0  0  0
  -30.9739  -21.9731   20.3650 H   0  0  0  0  0  0
  -33.0566  -19.2352   19.2469 H   0  0  0  0  0  0
  -27.9437  -22.2242   20.2403 H   0  0  0  0  0  0
  -27.2035  -24.7304   20.4526 H   0  0  0  0  0  0
  -27.8876  -24.8990   18.8442 H   0  0  0  0  0  0
  -28.9301  -15.3535   21.2285 H   0  0  0  0  0  0
  1 25  1  0  0  0
  1 30  2  0  0  0
  1 83  1  0  0  0
  2  3  1  0  0  0
  2 25  1  0  0  0
  2 85  1  0  0  0
  2 86  1  0  0  0
  3  4  1  0  0  0
  3 87  1  0  0  0
  3 88  1  0  0  0
  4  5  1  0  0  0
  4 89  1  0  0  0
  4 90  1  0  0  0
  5  6  1  0  0  0
  5 26  1  0  0  0
  5 91  1  0  0  0
  6 25  1  0  0  0
  6 92  1  0  0  0
  6 93  1  0  0  0
  7  8  2  0  0  0
  7 26  1  0  0  0
  7 29  1  0  0  0
  8  9  1  0  0  0
  8 22  1  0  0  0
  9 10  1  0  0  0
  9 27  2  0  0  0
 10 11  2  0  0  0
 10 15  1  0  0  0
 11 12  1  0  0  0
 11 94  1  0  0  0
 12 13  2  0  0  0
 12 95  1  0  0  0
 13 14  1  0  0  0
 13 31  1  0  0  0
 14 15  2  0  0  0
 14 96  1  0  0  0
 15 97  1  0  0  0
 16 17  2  0  0  0
 16 21  1  0  0  0
 16 31  1  0  0  0
 17 18  1  0  0  0
 17 98  1  0  0  0
 18 19  2  0  0  0
 18 99  1  0  0  0
 19 20  1  0  0  0
 19 24  1  0  0  0
 20 21  2  0  0  0
 20100  1  0  0  0
 21 23  1  0  0  0
 22 28  1  0  0  0
 22 32  2  0  0  0
 26 27  1  0  0  0
 28101  1  0  0  0
 28102  1  0  0  0
 29103  1  0  0  0
 29104  1  0  0  0
 33 34  1  0  0  0
 33 66  1  0  0  0
 33 70  2  0  0  0
 34 36  1  0  0  0
 34 59  1  0  0  0
 34105  1  0  0  0
 35 44  2  0  0  0
 35 45  1  0  0  0
 35 68  1  0  0  0
 36 56  1  0  0  0
 36106  1  0  0  0
 37 39  1  0  0  0
 37 47  1  0  0  0
 37 66  1  0  0  0
 37107  1  0  0  0
 38 43  2  0  0  0
 38 46  1  0  0  0
 38 47  1  0  0  0
 39 64  1  0  0  0
 39 67  2  0  0  0
 40 52  1  0  0  0
 40 53  2  0  0  0
 40 58  1  0  0  0
 41108  1  0  0  0
 41109  1  0  0  0
 41110  1  0  0  0
 41 48  1  0  0  0
 42 43  1  0  0  0
 42 66  1  0  0  0
 42111  1  0  0  0
 42112  1  0  0  0
 43 44  1  0  0  0
 44113  1  0  0  0
 45 46  2  0  0  0
 45114  1  0  0  0
 46115  1  0  0  0
 47116  1  0  0  0
 47117  1  0  0  0
 48 56  1  0  0  0
 48 65  1  0  0  0
 48118  1  0  0  0
 49 50  1  0  0  0
 49 53  1  0  0  0
 49 64  1  0  0  0
 49119  1  0  0  0
 50 51  1  0  0  0
 50120  1  0  0  0
 50121  1  0  0  0
 51 52  1  0  0  0
 51122  1  0  0  0
 51123  1  0  0  0
 52124  1  0  0  0
 52125  1  0  0  0
 53 54  1  0  0  0
 54 55  2  0  0  0
 54126  1  0  0  0
 55 57  1  0  0  0
 55127  1  0  0  0
 56 69  2  0  0  0
 57 58  2  0  0  0
 57128  1  0  0  0
 58129  1  0  0  0
 59 60  1  0  0  0
 59 61  1  0  0  0
 59 62  1  0  0  0
 60130  1  0  0  0
 60131  1  0  0  0
 60132  1  0  0  0
 61133  1  0  0  0
 61134  1  0  0  0
 61135  1  0  0  0
 62136  1  0  0  0
 62137  1  0  0  0
 62138  1  0  0  0
 63 65  1  0  0  0
 63139  1  0  0  0
 63140  1  0  0  0
 63141  1  0  0  0
 64142  1  0  0  0
 65143  1  0  0  0
 68 82  1  0  0  0
 71 72  2  0  0  0
 71 74  1  0  0  0
 71144  1  0  0  0
 72 76  1  0  0  0
 72145  1  0  0  0
 73 75  1  0  0  0
 73 76  2  0  0  0
 73146  1  0  0  0
 74 75  2  0  0  0
 74 78  1  0  0  0
 75 79  1  0  0  0
 76 83  1  0  0  0
 77 79  2  0  0  0
 77147  1  0  0  0
 77148  1  0  0  0
 78 80  2  0  0  0
 78149  1  0  0  0
 79150  1  0  0  0
 80 81  1  0  0  0
 80151  1  0  0  0
 81 82  1  0  0  0
 81 84  2  0  0  0
 82152  1  0  0  0
 82153  1  0  0  0
 83154  1  0  0  0
M  ISO  4   1 100  68 101  82 101  83 100
M  END
> <chiral flag>
0

> <version>
0

> <s_m_source_file>
/data/baiqing/PycharmProjects/Reinvent-master-3.2/result/LINK_invent/BTK/process_docking_weight1_custom_product_contain_oxygen_bond_distance_aromatic_linkinvent_7_9_3/rearranged_h_0126.sdf

> <i_m_source_file_index>
11

> <r_mmod_Potential_Energy-OPLS-2005>
62.7000160217285

> <r_mmod_Stretch_Energy-OPLS-2005>
77.5002670288086

> <r_mmod_Bend_Energy-OPLS-2005>
132.731735229492

> <r_mmod_Torsional_Energy-OPLS-2005>
229.44580078125

> <r_mmod_Improper_Torsional_Energy-OPLS-2005>
4.14112281799316

> <r_mmod_Van_der_Waal_Energy-OPLS-2005>
153.134811401367

> <r_mmod_Electrostatic_Energy-OPLS-2005>
-347.424774169922

> <r_mmod_Solvation_Energy-OPLS-2005>
-231.628707885742

> <b_mmod_Minimization_Converged-OPLS-2005>
0

> <r_mmod_RMS_Derivative-OPLS-2005>
1.05872178077698

$$$$
11
                    3D
 Structure written by MMmdl.
157165  0  0  1  0            999 V2000
  -30.6448  -14.7327   20.4086 C   0  0  0  0  0  0
  -30.4319  -12.4386   19.4741 C   0  0  0  0  0  0
  -29.5096  -12.4874   18.2365 C   0  0  0  0  0  0
  -28.0367  -12.3155   18.6528 C   0  0  0  0  0  0
  -27.6415  -13.2308   19.8421 C   0  0  2  0  0  0
  -28.6921  -13.1892   20.9733 C   0  0  0  0  0  0
  -25.2509  -13.8209   20.5714 C   0  0  0  0  0  0
  -24.1801  -13.0447   20.9234 C   0  0  0  0  0  0
  -24.6394  -11.6941   20.8768 C   0  0  0  0  0  0
  -23.9051  -10.4318   21.0411 C   0  0  0  0  0  0
  -24.3615   -9.4222   21.9164 C   0  0  0  0  0  0
  -23.6308   -8.2238   22.0712 C   0  0  0  0  0  0
  -22.4277   -8.0285   21.3522 C   0  0  0  0  0  0
  -21.9918   -9.0250   20.4607 C   0  0  0  0  0  0
  -22.7232  -10.2146   20.3038 C   0  0  0  0  0  0
  -21.6864   -6.0738   22.5279 C   0  0  0  0  0  0
  -21.4012   -6.5634   23.8212 C   0  0  0  0  0  0
  -21.3667   -5.6779   24.9171 C   0  0  0  0  0  0
  -21.6057   -4.3040   24.7230 C   0  0  0  0  0  0
  -21.8817   -3.8143   23.4343 C   0  0  0  0  0  0
  -21.9192   -4.6962   22.3402 C   0  0  0  0  0  0
  -22.7826  -13.5232   21.1913 C   0  0  0  0  0  0
  -22.1656   -4.2144   21.0975 F   0  0  0  0  0  0
  -21.5648   -3.4517   25.7742 F   0  0  0  0  0  0
  -29.9935  -13.5207   20.3813 N   0  0  0  0  0  0
  -26.2941  -12.9417   20.3270 N   0  0  0  0  0  0
  -25.9324  -11.6574   20.5770 N   0  0  0  0  0  0
  -22.0460  -12.8198   22.0453 N   0  0  0  0  0  0
  -25.4181  -15.1933   20.4137 N   0  0  0  0  0  0
  -31.8608  -14.7612   20.2230 O   0  0  0  0  0  0
  -21.6647   -6.8883   21.4236 O   0  0  0  0  0  0
  -22.3523  -14.5543   20.6764 O   0  0  0  0  0  0
  -24.6326  -31.8570   23.1999 C   0  0  0  0  0  0
  -25.9141  -32.4762   23.8356 C   0  0  1  0  0  0
  -27.2193  -27.2742   20.1144 C   0  0  0  0  0  0
  -25.5932  -33.8567   24.2269 N   0  0  0  0  0  0
  -23.4263  -30.4843   21.5430 C   0  0  2  0  0  0
  -24.8721  -28.9368   20.1123 C   0  0  0  0  0  0
  -22.7526  -29.4616   22.4910 C   0  0  0  0  0  0
  -18.0292  -28.1399   22.8497 C   0  0  0  0  0  0
  -24.1481  -36.7290   23.2642 C   0  0  0  0  0  0
  -25.9760  -30.7776   21.3762 C   0  0  0  0  0  0
  -26.0478  -29.4009   20.7173 C   0  0  0  0  0  0
  -27.2253  -28.5827   20.7078 C   0  0  0  0  0  0
  -26.0200  -26.8874   19.4709 C   0  0  0  0  0  0
  -24.8642  -27.6865   19.4794 C   0  0  0  0  0  0
  -23.6432  -29.8224   20.1581 C   0  0  0  0  0  0
  -25.4103  -36.3076   24.0330 C   0  0  1  0  0  0
  -20.5909  -28.3700   23.1279 C   0  0  2  0  0  0
  -20.6764  -26.9427   22.5395 C   0  0  0  0  0  0
  -19.5722  -26.6386   21.5227 C   0  0  0  0  0  0
  -18.1908  -26.7930   22.1655 C   0  0  0  0  0  0
  -19.1554  -28.8864   23.2881 C   0  0  0  0  0  0
  -18.9480  -30.1469   23.8887 C   0  0  0  0  0  0
  -17.6475  -30.6582   24.0581 C   0  0  0  0  0  0
  -25.9058  -34.9442   23.5091 C   0  0  0  0  0  0
  -16.5360  -29.9091   23.6342 C   0  0  0  0  0  0
  -16.7279  -28.6522   23.0341 C   0  0  0  0  0  0
  -26.4494  -31.6579   25.0738 C   0  0  0  0  0  0
  -25.3707  -31.3750   26.1457 C   0  0  0  0  0  0
  -27.0327  -30.2983   24.6206 C   0  0  0  0  0  0
  -27.6049  -32.4330   25.7499 C   0  0  0  0  0  0
  -27.5572  -37.1805   24.8478 C   0  0  0  0  0  0
  -21.4234  -29.3053   22.3674 N   0  0  0  0  0  0
  -26.4280  -37.3774   23.9420 N   0  0  0  0  0  0
  -24.6975  -31.0563   22.0957 N   0  0  0  0  0  0
  -23.4244  -28.8148   23.2983 O   0  0  0  0  0  0
  -28.3105  -26.3722   20.1495 O   0  0  0  0  0  0
  -26.5656  -34.8926   22.4679 O   0  0  0  0  0  0
  -23.5468  -32.1374   23.7291 O   0  0  0  0  0  0
  -29.4777  -18.4469   20.5925 C   0  0  0  0  0  0
  -31.3515  -18.9998   18.6585 C   0  0  0  0  0  0
  -29.6850  -19.8490   20.2394 C   0  0  0  0  0  0
  -30.6912  -20.0835   19.2740 C   0  0  0  0  0  0
  -31.0849  -17.6476   18.9643 C   0  0  0  0  0  0
  -30.1783  -17.3075   20.0173 C   0  0  0  0  0  0
  -28.8551  -20.9655   20.9128 C   0  0  0  0  0  0
  -28.6239  -22.3424   20.9530 C   0  0  0  0  0  0
  -31.1041  -21.4766   18.8488 C   0  0  0  0  0  0
  -31.7748  -16.6395   18.0546 C   0  0  0  0  0  0
  -29.0894  -23.7110   20.2960 C   0  0  0  0  0  0
  -28.0072  -24.9116   20.3523 C   0  0  0  0  0  0
  -29.8869  -15.8994   20.4348 N   0  0  0  0  0  0
  -31.4737  -12.5444   19.1643 H   0  0  0  0  0  0
  -30.3632  -11.4731   19.9791 H   0  0  0  0  0  0
  -29.7928  -11.7064   17.5306 H   0  0  0  0  0  0
  -29.6332  -13.4390   17.7167 H   0  0  0  0  0  0
  -27.9011  -11.2700   18.9333 H   0  0  0  0  0  0
  -27.3778  -12.4895   17.8005 H   0  0  0  0  0  0
  -27.6265  -14.2453   19.4446 H   0  0  0  0  0  0
  -28.7264  -12.2016   21.4355 H   0  0  0  0  0  0
  -28.4406  -13.8948   21.7683 H   0  0  0  0  0  0
  -25.2761   -9.5721   22.4741 H   0  0  0  0  0  0
  -24.0032   -7.4643   22.7426 H   0  0  0  0  0  0
  -21.0853   -8.8774   19.8921 H   0  0  0  0  0  0
  -22.3680  -10.9685   19.6166 H   0  0  0  0  0  0
  -21.1970   -7.6135   23.9723 H   0  0  0  0  0  0
  -21.1505   -6.0497   25.9081 H   0  0  0  0  0  0
  -22.0587   -2.7597   23.2841 H   0  0  0  0  0  0
  -22.4085  -11.9901   22.4909 H   0  0  0  0  0  0
  -21.1056  -13.1195   22.2591 H   0  0  0  0  0  0
  -24.6500  -15.8469   20.5275 H   0  0  0  0  0  0
  -26.2578  -15.6330   20.0607 H   0  0  0  0  0  0
  -26.7225  -32.5410   23.1122 H   0  0  0  0  0  0
  -25.0042  -33.9702   25.0383 H   0  0  0  0  0  0
  -22.7191  -31.3047   21.3990 H   0  0  0  0  0  0
  -23.3731  -35.9641   23.3309 H   0  0  0  0  0  0
  -24.3589  -36.8901   22.2063 H   0  0  0  0  0  0
  -23.7235  -37.6493   23.6662 H   0  0  0  0  0  0
  -26.1145  -31.5372   20.6051 H   0  0  0  0  0  0
  -26.8532  -30.8266   22.0081 H   0  0  0  0  0  0
  -28.1243  -28.9393   21.1939 H   0  0  0  0  0  0
  -25.9360  -25.9516   18.9414 H   0  0  0  0  0  0
  -23.9689  -27.3260   18.9903 H   0  0  0  0  0  0
  -23.7723  -30.5999   19.4025 H   0  0  0  0  0  0
  -22.7628  -29.2571   19.8492 H   0  0  0  0  0  0
  -25.1276  -36.1931   25.0820 H   0  0  0  0  0  0
  -21.0020  -28.3259   24.1399 H   0  0  0  0  0  0
  -20.5671  -26.2332   23.3602 H   0  0  0  0  0  0
  -21.6630  -26.7428   22.1204 H   0  0  0  0  0  0
  -19.6878  -25.6303   21.1239 H   0  0  0  0  0  0
  -19.6634  -27.3214   20.6772 H   0  0  0  0  0  0
  -17.4186  -26.6714   21.4037 H   0  0  0  0  0  0
  -18.0307  -26.0063   22.9049 H   0  0  0  0  0  0
  -19.7947  -30.7304   24.2244 H   0  0  0  0  0  0
  -17.5013  -31.6260   24.5195 H   0  0  0  0  0  0
  -15.5357  -30.2989   23.7626 H   0  0  0  0  0  0
  -15.8698  -28.0825   22.7038 H   0  0  0  0  0  0
  -24.5908  -30.7053   25.7804 H   0  0  0  0  0  0
  -24.8867  -32.2931   26.4807 H   0  0  0  0  0  0
  -25.8024  -30.9002   27.0273 H   0  0  0  0  0  0
  -26.2905  -29.6743   24.1203 H   0  0  0  0  0  0
  -27.3984  -29.7232   25.4725 H   0  0  0  0  0  0
  -27.8798  -30.4251   23.9458 H   0  0  0  0  0  0
  -27.2649  -33.3652   26.2022 H   0  0  0  0  0  0
  -28.3873  -32.6847   25.0327 H   0  0  0  0  0  0
  -28.0689  -31.8485   26.5454 H   0  0  0  0  0  0
  -28.2608  -38.0086   24.7507 H   0  0  0  0  0  0
  -28.1047  -36.2619   24.6306 H   0  0  0  0  0  0
  -27.2320  -37.1465   25.8894 H   0  0  0  0  0  0
  -20.9421  -29.8835   21.6929 H   0  0  0  0  0  0
  -26.0154  -38.2854   24.1381 H   0  0  0  0  0  0
  -28.7374  -18.2385   21.3513 H   0  0  0  0  0  0
  -32.0837  -19.2167   17.8916 H   0  0  0  0  0  0
  -28.2101  -20.4945   21.6406 H   0  0  0  0  0  0
  -27.8863  -22.5827   21.7072 H   0  0  0  0  0  0
  -30.3548  -21.8994   18.1815 H   0  0  0  0  0  0
  -32.0517  -21.4660   18.3097 H   0  0  0  0  0  0
  -31.2419  -22.1165   19.7197 H   0  0  0  0  0  0
  -32.7591  -16.3782   18.4452 H   0  0  0  0  0  0
  -31.9296  -17.0546   17.0565 H   0  0  0  0  0  0
  -31.1827  -15.7384   17.9091 H   0  0  0  0  0  0
  -29.4014  -23.5624   19.2660 H   0  0  0  0  0  0
  -29.9794  -24.0325   20.8386 H   0  0  0  0  0  0
  -27.5287  -24.8594   21.3309 H   0  0  0  0  0  0
  -27.2494  -24.5881   19.6470 H   0  0  0  0  0  0
  -28.9405  -15.7457   20.7424 H   0  0  0  0  0  0
  1 25  1  0  0  0
  1 30  2  0  0  0
  1 83  1  0  0  0
  2  3  1  0  0  0
  2 25  1  0  0  0
  2 84  1  0  0  0
  2 85  1  0  0  0
  3  4  1  0  0  0
  3 86  1  0  0  0
  3 87  1  0  0  0
  4  5  1  0  0  0
  4 88  1  0  0  0
  4 89  1  0  0  0
  5  6  1  0  0  0
  5 26  1  0  0  0
  5 90  1  0  0  0
  6 25  1  0  0  0
  6 91  1  0  0  0
  6 92  1  0  0  0
  7  8  2  0  0  0
  7 26  1  0  0  0
  7 29  1  0  0  0
  8  9  1  0  0  0
  8 22  1  0  0  0
  9 10  1  0  0  0
  9 27  2  0  0  0
 10 11  2  0  0  0
 10 15  1  0  0  0
 11 12  1  0  0  0
 11 93  1  0  0  0
 12 13  2  0  0  0
 12 94  1  0  0  0
 13 14  1  0  0  0
 13 31  1  0  0  0
 14 15  2  0  0  0
 14 95  1  0  0  0
 15 96  1  0  0  0
 16 17  2  0  0  0
 16 21  1  0  0  0
 16 31  1  0  0  0
 17 18  1  0  0  0
 17 97  1  0  0  0
 18 19  2  0  0  0
 18 98  1  0  0  0
 19 20  1  0  0  0
 19 24  1  0  0  0
 20 21  2  0  0  0
 20 99  1  0  0  0
 21 23  1  0  0  0
 22 28  1  0  0  0
 22 32  2  0  0  0
 26 27  1  0  0  0
 28100  1  0  0  0
 28101  1  0  0  0
 29102  1  0  0  0
 29103  1  0  0  0
 33 34  1  0  0  0
 33 66  1  0  0  0
 33 70  2  0  0  0
 34 36  1  0  0  0
 34 59  1  0  0  0
 34104  1  0  0  0
 35 44  2  0  0  0
 35 45  1  0  0  0
 35 68  1  0  0  0
 36 56  1  0  0  0
 36105  1  0  0  0
 37 39  1  0  0  0
 37 47  1  0  0  0
 37 66  1  0  0  0
 37106  1  0  0  0
 38 43  2  0  0  0
 38 46  1  0  0  0
 38 47  1  0  0  0
 39 64  1  0  0  0
 39 67  2  0  0  0
 40 52  1  0  0  0
 40 53  2  0  0  0
 40 58  1  0  0  0
 41107  1  0  0  0
 41108  1  0  0  0
 41109  1  0  0  0
 41 48  1  0  0  0
 42 43  1  0  0  0
 42 66  1  0  0  0
 42110  1  0  0  0
 42111  1  0  0  0
 43 44  1  0  0  0
 44112  1  0  0  0
 45 46  2  0  0  0
 45113  1  0  0  0
 46114  1  0  0  0
 47115  1  0  0  0
 47116  1  0  0  0
 48 56  1  0  0  0
 48 65  1  0  0  0
 48117  1  0  0  0
 49 50  1  0  0  0
 49 53  1  0  0  0
 49 64  1  0  0  0
 49118  1  0  0  0
 50 51  1  0  0  0
 50119  1  0  0  0
 50120  1  0  0  0
 51 52  1  0  0  0
 51121  1  0  0  0
 51122  1  0  0  0
 52123  1  0  0  0
 52124  1  0  0  0
 53 54  1  0  0  0
 54 55  2  0  0  0
 54125  1  0  0  0
 55 57  1  0  0  0
 55126  1  0  0  0
 56 69  2  0  0  0
 57 58  2  0  0  0
 57127  1  0  0  0
 58128  1  0  0  0
 59 60  1  0  0  0
 59 61  1  0  0  0
 59 62  1  0  0  0
 60129  1  0  0  0
 60130  1  0  0  0
 60131  1  0  0  0
 61132  1  0  0  0
 61133  1  0  0  0
 61134  1  0  0  0
 62135  1  0  0  0
 62136  1  0  0  0
 62137  1  0  0  0
 63 65  1  0  0  0
 63138  1  0  0  0
 63139  1  0  0  0
 63140  1  0  0  0
 64141  1  0  0  0
 65142  1  0  0  0
 68 82  1  0  0  0
 71 73  2  0  0  0
 71 76  1  0  0  0
 71143  1  0  0  0
 72 74  2  0  0  0
 72 75  1  0  0  0
 72144  1  0  0  0
 73 74  1  0  0  0
 73 77  1  0  0  0
 74 79  1  0  0  0
 75 76  2  0  0  0
 75 80  1  0  0  0
 76 83  1  0  0  0
 77 78  2  0  0  0
 77145  1  0  0  0
 78 81  1  0  0  0
 78146  1  0  0  0
 79147  1  0  0  0
 79148  1  0  0  0
 79149  1  0  0  0
 80150  1  0  0  0
 80151  1  0  0  0
 80152  1  0  0  0
 81 82  1  0  0  0
 81153  1  0  0  0
 81154  1  0  0  0
 82155  1  0  0  0
 82156  1  0  0  0
 83157  1  0  0  0
M  ISO  4   1 100  68 101  82 101  83 100
M  END
> <chiral flag>
0

> <version>
0

> <s_m_source_file>
/data/baiqing/PycharmProjects/Reinvent-master-3.2/result/LINK_invent/BTK/process_docking_weight1_custom_product_contain_oxygen_bond_distance_aromatic_linkinvent_7_9_3/rearranged_h_0126.sdf

> <i_m_source_file_index>
12

> <r_mmod_Potential_Energy-OPLS-2005>
255.917663574219

> <r_mmod_Stretch_Energy-OPLS-2005>
125.317405700684

> <r_mmod_Bend_Energy-OPLS-2005>
232.518447875977

> <r_mmod_Torsional_Energy-OPLS-2005>
240.958541870117

> <r_mmod_Improper_Torsional_Energy-OPLS-2005>
4.94608783721924

> <r_mmod_Van_der_Waal_Energy-OPLS-2005>
152.861999511719

> <r_mmod_Electrostatic_Energy-OPLS-2005>
-380.752349853516

> <r_mmod_Solvation_Energy-OPLS-2005>
-204.692260742188

> <b_mmod_Minimization_Converged-OPLS-2005>
0

> <r_mmod_RMS_Derivative-OPLS-2005>
3.36972975730896

$$$$
12
                    3D
 Structure written by MMmdl.
156164  0  0  1  0            999 V2000
  -30.6242  -14.6038   20.6045 C   0  0  0  0  0  0
  -30.4424  -12.3978   19.4374 C   0  0  0  0  0  0
  -29.5056  -12.5430   18.2170 C   0  0  0  0  0  0
  -28.0260  -12.3730   18.6211 C   0  0  0  0  0  0
  -27.6578  -13.2116   19.8722 C   0  0  2  0  0  0
  -28.6958  -12.9950   20.9901 C   0  0  0  0  0  0
  -25.2574  -13.8155   20.5685 C   0  0  0  0  0  0
  -24.1828  -13.0427   20.9178 C   0  0  0  0  0  0
  -24.6386  -11.6896   20.8723 C   0  0  0  0  0  0
  -23.9050  -10.4284   21.0389 C   0  0  0  0  0  0
  -24.3603   -9.4207   21.9171 C   0  0  0  0  0  0
  -23.6284   -8.2242   22.0746 C   0  0  0  0  0  0
  -22.4261   -8.0270   21.3539 C   0  0  0  0  0  0
  -21.9898   -9.0241   20.4640 C   0  0  0  0  0  0
  -22.7228  -10.2118   20.3040 C   0  0  0  0  0  0
  -21.6857   -6.0732   22.5285 C   0  0  0  0  0  0
  -21.4016   -6.5639   23.8220 C   0  0  0  0  0  0
  -21.3654   -5.6792   24.9184 C   0  0  0  0  0  0
  -21.6049   -4.3055   24.7229 C   0  0  0  0  0  0
  -21.8817   -3.8139   23.4352 C   0  0  0  0  0  0
  -21.9195   -4.6962   22.3405 C   0  0  0  0  0  0
  -22.7857  -13.5224   21.1862 C   0  0  0  0  0  0
  -22.1672   -4.2150   21.0985 F   0  0  0  0  0  0
  -21.5626   -3.4540   25.7740 F   0  0  0  0  0  0
  -30.0165  -13.3791   20.4577 N   0  0  0  0  0  0
  -26.3000  -12.9321   20.3328 N   0  0  0  0  0  0
  -25.9315  -11.6482   20.5733 N   0  0  0  0  0  0
  -22.0499  -12.8204   22.0412 N   0  0  0  0  0  0
  -25.4296  -15.1878   20.4140 N   0  0  0  0  0  0
  -31.7048  -14.8438   20.0558 O   0  0  0  0  0  0
  -21.6630   -6.8863   21.4238 O   0  0  0  0  0  0
  -22.3548  -14.5526   20.6711 O   0  0  0  0  0  0
  -24.6241  -31.8610   23.1999 C   0  0  0  0  0  0
  -25.9083  -32.4788   23.8352 C   0  0  1  0  0  0
  -27.2364  -27.3363   20.1367 C   0  0  0  0  0  0
  -25.5896  -33.8589   24.2286 N   0  0  0  0  0  0
  -23.4203  -30.4804   21.5423 C   0  0  2  0  0  0
  -24.8730  -28.9334   20.1142 C   0  0  0  0  0  0
  -22.7481  -29.4620   22.4930 C   0  0  0  0  0  0
  -18.0285  -28.1382   22.8487 C   0  0  0  0  0  0
  -24.1492  -36.7302   23.2645 C   0  0  0  0  0  0
  -25.9574  -30.8004   21.3657 C   0  0  0  0  0  0
  -26.0389  -29.4258   20.7165 C   0  0  0  0  0  0
  -27.2282  -28.6398   20.7165 C   0  0  0  0  0  0
  -26.0543  -26.8893   19.5106 C   0  0  0  0  0  0
  -24.8818  -27.6694   19.5011 C   0  0  0  0  0  0
  -23.6372  -29.8083   20.1604 C   0  0  0  0  0  0
  -25.4117  -36.3093   24.0338 C   0  0  1  0  0  0
  -20.5885  -28.3688   23.1275 C   0  0  2  0  0  0
  -20.6775  -26.9407   22.5409 C   0  0  0  0  0  0
  -19.5749  -26.6379   21.5211 C   0  0  0  0  0  0
  -18.1928  -26.7926   22.1627 C   0  0  0  0  0  0
  -19.1539  -28.8853   23.2876 C   0  0  0  0  0  0
  -18.9461  -30.1450   23.8899 C   0  0  0  0  0  0
  -17.6464  -30.6587   24.0557 C   0  0  0  0  0  0
  -25.9039  -34.9458   23.5118 C   0  0  0  0  0  0
  -16.5351  -29.9088   23.6322 C   0  0  0  0  0  0
  -16.7271  -28.6496   23.0357 C   0  0  0  0  0  0
  -26.4474  -31.6583   25.0711 C   0  0  0  0  0  0
  -25.3705  -31.3695   26.1431 C   0  0  0  0  0  0
  -27.0317  -30.3022   24.6120 C   0  0  0  0  0  0
  -27.6047  -32.4306   25.7484 C   0  0  0  0  0  0
  -27.5570  -37.1825   24.8480 C   0  0  0  0  0  0
  -21.4189  -29.3040   22.3670 N   0  0  0  0  0  0
  -26.4310  -37.3772   23.9378 N   0  0  0  0  0  0
  -24.6862  -31.0637   22.0940 N   0  0  0  0  0  0
  -23.4200  -28.8170   23.3030 O   0  0  0  0  0  0
  -28.3321  -26.4665   20.1666 O   0  0  0  0  0  0
  -26.5616  -34.8923   22.4692 O   0  0  0  0  0  0
  -23.5404  -32.1388   23.7327 O   0  0  0  0  0  0
  -30.1150  -19.3185   20.4178 C   0  0  0  0  0  0
  -29.7762  -20.7156   20.3761 C   0  0  0  0  0  0
  -28.1075  -18.8948   21.6479 C   0  0  0  0  0  0
  -29.2916  -18.3676   21.0878 C   0  0  0  0  0  0
  -28.5995  -21.2443   20.9886 C   0  0  0  0  0  0
  -27.7548  -20.2685   21.6011 C   0  0  0  0  0  0
  -29.5430  -16.9013   21.4138 C   0  0  0  0  0  0
  -28.2300  -22.7267   21.0911 C   0  0  0  0  0  0
  -29.9113  -15.5711   21.4890 C   0  0  0  0  0  0
  -28.7650  -23.9097   20.6477 C   0  0  0  0  0  0
  -26.4468  -20.6550   22.2813 C   0  0  0  0  0  0
  -28.8243  -25.7197   22.4093 C   0  0  0  0  0  0
  -28.1896  -25.3095   21.0708 C   0  0  1  0  0  0
  -31.4814  -12.5413   19.1361 H   0  0  0  0  0  0
  -30.3913  -11.3855   19.8427 H   0  0  0  0  0  0
  -29.7702  -11.8206   17.4436 H   0  0  0  0  0  0
  -29.6490  -13.5286   17.7735 H   0  0  0  0  0  0
  -27.8524  -11.3146   18.8199 H   0  0  0  0  0  0
  -27.3743  -12.6362   17.7866 H   0  0  0  0  0  0
  -27.6959  -14.2603   19.5802 H   0  0  0  0  0  0
  -28.7112  -11.9458   21.2857 H   0  0  0  0  0  0
  -28.3969  -13.5286   21.8892 H   0  0  0  0  0  0
  -25.2748   -9.5708   22.4753 H   0  0  0  0  0  0
  -24.0004   -7.4640   22.7451 H   0  0  0  0  0  0
  -21.0842   -8.8742   19.8947 H   0  0  0  0  0  0
  -22.3670  -10.9648   19.6144 H   0  0  0  0  0  0
  -21.1998   -7.6147   23.9726 H   0  0  0  0  0  0
  -21.1491   -6.0521   25.9091 H   0  0  0  0  0  0
  -22.0596   -2.7602   23.2850 H   0  0  0  0  0  0
  -22.4098  -11.9844   22.4793 H   0  0  0  0  0  0
  -21.1129  -13.1225   22.2599 H   0  0  0  0  0  0
  -24.6672  -15.8462   20.5287 H   0  0  0  0  0  0
  -26.2939  -15.6306   20.1298 H   0  0  0  0  0  0
  -26.7158  -32.5477   23.1116 H   0  0  0  0  0  0
  -25.0028  -33.9746   25.0419 H   0  0  0  0  0  0
  -22.7134  -31.2993   21.3941 H   0  0  0  0  0  0
  -23.3736  -35.9659   23.3370 H   0  0  0  0  0  0
  -24.3556  -36.8853   22.2042 H   0  0  0  0  0  0
  -23.7284  -37.6547   23.6617 H   0  0  0  0  0  0
  -26.0766  -31.5593   20.5908 H   0  0  0  0  0  0
  -26.8427  -30.8615   21.9869 H   0  0  0  0  0  0
  -28.1233  -29.0137   21.1928 H   0  0  0  0  0  0
  -26.0377  -25.9109   19.0489 H   0  0  0  0  0  0
  -23.9889  -27.2833   19.0264 H   0  0  0  0  0  0
  -23.7500  -30.5801   19.3987 H   0  0  0  0  0  0
  -22.7610  -29.2296   19.8620 H   0  0  0  0  0  0
  -25.1308  -36.1974   25.0839 H   0  0  0  0  0  0
  -20.9979  -28.3265   24.1395 H   0  0  0  0  0  0
  -20.5670  -26.2302   23.3613 H   0  0  0  0  0  0
  -21.6645  -26.7438   22.1202 H   0  0  0  0  0  0
  -19.6917  -25.6289   21.1238 H   0  0  0  0  0  0
  -19.6688  -27.3193   20.6739 H   0  0  0  0  0  0
  -17.4200  -26.6659   21.4026 H   0  0  0  0  0  0
  -18.0332  -26.0070   22.9025 H   0  0  0  0  0  0
  -19.7937  -30.7253   24.2284 H   0  0  0  0  0  0
  -17.5019  -31.6273   24.5153 H   0  0  0  0  0  0
  -15.5350  -30.2999   23.7645 H   0  0  0  0  0  0
  -15.8661  -28.0811   22.7097 H   0  0  0  0  0  0
  -24.5938  -30.6979   25.7746 H   0  0  0  0  0  0
  -24.8823  -32.2844   26.4807 H   0  0  0  0  0  0
  -25.8043  -30.8925   27.0230 H   0  0  0  0  0  0
  -26.2881  -29.6784   24.1147 H   0  0  0  0  0  0
  -27.4046  -29.7259   25.4592 H   0  0  0  0  0  0
  -27.8729  -30.4335   23.9311 H   0  0  0  0  0  0
  -27.2683  -33.3620   26.2051 H   0  0  0  0  0  0
  -28.3870  -32.6839   25.0315 H   0  0  0  0  0  0
  -28.0698  -31.8427   26.5406 H   0  0  0  0  0  0
  -28.2657  -38.0048   24.7430 H   0  0  0  0  0  0
  -28.1000  -36.2582   24.6455 H   0  0  0  0  0  0
  -27.2260  -37.1655   25.8879 H   0  0  0  0  0  0
  -20.9366  -29.8757   21.6870 H   0  0  0  0  0  0
  -26.0208  -38.2871   24.1314 H   0  0  0  0  0  0
  -31.0481  -18.9931   19.9775 H   0  0  0  0  0  0
  -30.4639  -21.3984   19.8948 H   0  0  0  0  0  0
  -27.4502  -18.2099   22.1682 H   0  0  0  0  0  0
  -29.9549  -16.8791   20.4155 H   0  0  0  0  0  0
  -27.3563  -22.8992   21.6983 H   0  0  0  0  0  0
  -29.6123  -15.1370   22.4308 H   0  0  0  0  0  0
  -29.6461  -23.9075   20.0231 H   0  0  0  0  0  0
  -25.8516  -19.7733   22.5218 H   0  0  0  0  0  0
  -25.8309  -21.2851   21.6396 H   0  0  0  0  0  0
  -26.6448  -21.1837   23.2142 H   0  0  0  0  0  0
  -28.6423  -24.9633   23.1748 H   0  0  0  0  0  0
  -28.4191  -26.6608   22.7828 H   0  0  0  0  0  0
  -29.9050  -25.8344   22.3158 H   0  0  0  0  0  0
  -27.1285  -25.1455   21.2661 H   0  0  0  0  0  0
  1 25  1  0  0  0
  1 30  2  0  0  0
  1 79  1  0  0  0
  2  3  1  0  0  0
  2 25  1  0  0  0
  2 84  1  0  0  0
  2 85  1  0  0  0
  3  4  1  0  0  0
  3 86  1  0  0  0
  3 87  1  0  0  0
  4  5  1  0  0  0
  4 88  1  0  0  0
  4 89  1  0  0  0
  5  6  1  0  0  0
  5 26  1  0  0  0
  5 90  1  0  0  0
  6 25  1  0  0  0
  6 91  1  0  0  0
  6 92  1  0  0  0
  7  8  2  0  0  0
  7 26  1  0  0  0
  7 29  1  0  0  0
  8  9  1  0  0  0
  8 22  1  0  0  0
  9 10  1  0  0  0
  9 27  2  0  0  0
 10 11  2  0  0  0
 10 15  1  0  0  0
 11 12  1  0  0  0
 11 93  1  0  0  0
 12 13  2  0  0  0
 12 94  1  0  0  0
 13 14  1  0  0  0
 13 31  1  0  0  0
 14 15  2  0  0  0
 14 95  1  0  0  0
 15 96  1  0  0  0
 16 17  2  0  0  0
 16 21  1  0  0  0
 16 31  1  0  0  0
 17 18  1  0  0  0
 17 97  1  0  0  0
 18 19  2  0  0  0
 18 98  1  0  0  0
 19 20  1  0  0  0
 19 24  1  0  0  0
 20 21  2  0  0  0
 20 99  1  0  0  0
 21 23  1  0  0  0
 22 28  1  0  0  0
 22 32  2  0  0  0
 26 27  1  0  0  0
 28100  1  0  0  0
 28101  1  0  0  0
 29102  1  0  0  0
 29103  1  0  0  0
 33 34  1  0  0  0
 33 66  1  0  0  0
 33 70  2  0  0  0
 34 36  1  0  0  0
 34 59  1  0  0  0
 34104  1  0  0  0
 35 44  2  0  0  0
 35 45  1  0  0  0
 35 68  1  0  0  0
 36 56  1  0  0  0
 36105  1  0  0  0
 37 39  1  0  0  0
 37 47  1  0  0  0
 37 66  1  0  0  0
 37106  1  0  0  0
 38 43  2  0  0  0
 38 46  1  0  0  0
 38 47  1  0  0  0
 39 64  1  0  0  0
 39 67  2  0  0  0
 40 52  1  0  0  0
 40 53  2  0  0  0
 40 58  1  0  0  0
 41107  1  0  0  0
 41108  1  0  0  0
 41109  1  0  0  0
 41 48  1  0  0  0
 42 43  1  0  0  0
 42 66  1  0  0  0
 42110  1  0  0  0
 42111  1  0  0  0
 43 44  1  0  0  0
 44112  1  0  0  0
 45 46  2  0  0  0
 45113  1  0  0  0
 46114  1  0  0  0
 47115  1  0  0  0
 47116  1  0  0  0
 48 56  1  0  0  0
 48 65  1  0  0  0
 48117  1  0  0  0
 49 50  1  0  0  0
 49 53  1  0  0  0
 49 64  1  0  0  0
 49118  1  0  0  0
 50 51  1  0  0  0
 50119  1  0  0  0
 50120  1  0  0  0
 51 52  1  0  0  0
 51121  1  0  0  0
 51122  1  0  0  0
 52123  1  0  0  0
 52124  1  0  0  0
 53 54  1  0  0  0
 54 55  2  0  0  0
 54125  1  0  0  0
 55 57  1  0  0  0
 55126  1  0  0  0
 56 69  2  0  0  0
 57 58  2  0  0  0
 57127  1  0  0  0
 58128  1  0  0  0
 59 60  1  0  0  0
 59 61  1  0  0  0
 59 62  1  0  0  0
 60129  1  0  0  0
 60130  1  0  0  0
 60131  1  0  0  0
 61132  1  0  0  0
 61133  1  0  0  0
 61134  1  0  0  0
 62135  1  0  0  0
 62136  1  0  0  0
 62137  1  0  0  0
 63 65  1  0  0  0
 63138  1  0  0  0
 63139  1  0  0  0
 63140  1  0  0  0
 64141  1  0  0  0
 65142  1  0  0  0
 68 83  1  0  0  0
 71 72  2  0  0  0
 71 74  1  0  0  0
 71143  1  0  0  0
 72 75  1  0  0  0
 72144  1  0  0  0
 73 74  2  0  0  0
 73 76  1  0  0  0
 73145  1  0  0  0
 74 77  1  0  0  0
 75 76  2  0  0  0
 75 78  1  0  0  0
 76 81  1  0  0  0
 77 79  2  0  0  0
 77146  1  0  0  0
 78 80  2  0  0  0
 78147  1  0  0  0
 79148  1  0  0  0
 80 83  1  0  0  0
 80149  1  0  0  0
 81150  1  0  0  0
 81151  1  0  0  0
 81152  1  0  0  0
 82153  1  0  0  0
 82154  1  0  0  0
 82155  1  0  0  0
 82 83  1  0  0  0
 83156  1  0  0  0
M  ISO  4   1 100  68 101  79 100  83 101
M  END
> <chiral flag>
0

> <version>
0

> <s_m_source_file>
/data/baiqing/PycharmProjects/Reinvent-master-3.2/result/LINK_invent/BTK/process_docking_weight1_custom_product_contain_oxygen_bond_distance_aromatic_linkinvent_7_9_3/rearranged_h_0126.sdf

> <i_m_source_file_index>
13

> <r_mmod_Potential_Energy-OPLS-2005>
381.258422851562

> <r_mmod_Stretch_Energy-OPLS-2005>
78.9491195678711

> <r_mmod_Bend_Energy-OPLS-2005>
437.521331787109

> <r_mmod_Torsional_Energy-OPLS-2005>
215.57763671875

> <r_mmod_Improper_Torsional_Energy-OPLS-2005>
3.30625677108765

> <r_mmod_Van_der_Waal_Energy-OPLS-2005>
153.268524169922

> <r_mmod_Electrostatic_Energy-OPLS-2005>
-362.056304931641

> <r_mmod_Solvation_Energy-OPLS-2005>
-186.534164428711

> <b_mmod_Minimization_Converged-OPLS-2005>
0

> <r_mmod_RMS_Derivative-OPLS-2005>
2.78592371940613

$$$$
13
                    3D
 Structure written by MMmdl.
150158  0  0  1  0            999 V2000
  -30.5672  -14.7569   20.5368 C   0  0  0  0  0  0
  -30.4587  -12.4815   19.4565 C   0  0  0  0  0  0
  -29.5187  -12.5535   18.2275 C   0  0  0  0  0  0
  -28.0399  -12.3649   18.6312 C   0  0  0  0  0  0
  -27.6540  -13.2199   19.8660 C   0  0  2  0  0  0
  -28.7007  -13.0491   20.9844 C   0  0  0  0  0  0
  -25.2569  -13.8167   20.5678 C   0  0  0  0  0  0
  -24.1828  -13.0431   20.9170 C   0  0  0  0  0  0
  -24.6402  -11.6901   20.8728 C   0  0  0  0  0  0
  -23.9072  -10.4289   21.0407 C   0  0  0  0  0  0
  -24.3615   -9.4206   21.9187 C   0  0  0  0  0  0
  -23.6292   -8.2238   22.0761 C   0  0  0  0  0  0
  -22.4270   -8.0275   21.3560 C   0  0  0  0  0  0
  -21.9911   -9.0257   20.4658 C   0  0  0  0  0  0
  -22.7244  -10.2124   20.3062 C   0  0  0  0  0  0
  -21.6850   -6.0726   22.5289 C   0  0  0  0  0  0
  -21.4016   -6.5636   23.8216 C   0  0  0  0  0  0
  -21.3664   -5.6790   24.9182 C   0  0  0  0  0  0
  -21.6039   -4.3059   24.7234 C   0  0  0  0  0  0
  -21.8816   -3.8148   23.4362 C   0  0  0  0  0  0
  -21.9199   -4.6961   22.3414 C   0  0  0  0  0  0
  -22.7853  -13.5239   21.1849 C   0  0  0  0  0  0
  -22.1659   -4.2144   21.0991 F   0  0  0  0  0  0
  -21.5635   -3.4543   25.7749 F   0  0  0  0  0  0
  -30.0032  -13.4920   20.4438 N   0  0  0  0  0  0
  -26.2996  -12.9342   20.3310 N   0  0  0  0  0  0
  -25.9332  -11.6493   20.5719 N   0  0  0  0  0  0
  -22.0485  -12.8242   22.0398 N   0  0  0  0  0  0
  -25.4315  -15.1892   20.4145 N   0  0  0  0  0  0
  -31.6917  -14.9484   20.0608 O   0  0  0  0  0  0
  -21.6644   -6.8867   21.4244 O   0  0  0  0  0  0
  -22.3547  -14.5555   20.6720 O   0  0  0  0  0  0
  -24.6337  -31.8539   23.1982 C   0  0  0  0  0  0
  -25.9151  -32.4742   23.8329 C   0  0  1  0  0  0
  -27.2240  -27.2443   20.1064 C   0  0  0  0  0  0
  -25.5931  -33.8547   24.2242 N   0  0  0  0  0  0
  -23.4313  -30.4776   21.5436 C   0  0  2  0  0  0
  -24.8779  -28.9280   20.1094 C   0  0  0  0  0  0
  -22.7512  -29.4589   22.4908 C   0  0  0  0  0  0
  -18.0289  -28.1382   22.8472 C   0  0  0  0  0  0
  -24.1486  -36.7276   23.2639 C   0  0  0  0  0  0
  -25.9816  -30.7566   21.3856 C   0  0  0  0  0  0
  -26.0534  -29.3798   20.7231 C   0  0  0  0  0  0
  -27.2265  -28.5502   20.7153 C   0  0  0  0  0  0
  -26.0180  -26.8772   19.4590 C   0  0  0  0  0  0
  -24.8668  -27.6835   19.4689 C   0  0  0  0  0  0
  -23.6499  -29.8167   20.1591 C   0  0  0  0  0  0
  -25.4112  -36.3060   24.0326 C   0  0  1  0  0  0
  -20.5892  -28.3694   23.1252 C   0  0  2  0  0  0
  -20.6764  -26.9408   22.5397 C   0  0  0  0  0  0
  -19.5741  -26.6379   21.5197 C   0  0  0  0  0  0
  -18.1928  -26.7920   22.1619 C   0  0  0  0  0  0
  -19.1543  -28.8856   23.2856 C   0  0  0  0  0  0
  -18.9466  -30.1457   23.8877 C   0  0  0  0  0  0
  -17.6469  -30.6584   24.0561 C   0  0  0  0  0  0
  -25.9062  -34.9434   23.5090 C   0  0  0  0  0  0
  -16.5357  -29.9082   23.6331 C   0  0  0  0  0  0
  -16.7276  -28.6500   23.0344 C   0  0  0  0  0  0
  -26.4492  -31.6574   25.0731 C   0  0  0  0  0  0
  -25.3701  -31.3734   26.1449 C   0  0  0  0  0  0
  -27.0345  -30.2980   24.6259 C   0  0  0  0  0  0
  -27.6046  -32.4313   25.7509 C   0  0  0  0  0  0
  -27.5579  -37.1781   24.8455 C   0  0  0  0  0  0
  -21.4214  -29.3041   22.3647 N   0  0  0  0  0  0
  -26.4276  -37.3769   23.9425 N   0  0  0  0  0  0
  -24.7014  -31.0476   22.0981 N   0  0  0  0  0  0
  -23.4203  -28.8124   23.3010 O   0  0  0  0  0  0
  -28.3072  -26.3177   20.1530 O   0  0  0  0  0  0
  -26.5647  -34.8916   22.4670 O   0  0  0  0  0  0
  -23.5481  -32.1378   23.7251 O   0  0  0  0  0  0
  -30.7104  -20.7748   19.7627 C   0  0  0  0  0  0
  -29.4244  -20.9651   20.2105 C   0  0  0  0  0  0
  -28.8690  -19.6830   20.6801 C   0  0  0  0  0  0
  -29.7354  -18.5654   20.6207 C   0  0  0  0  0  0
  -28.6672  -22.3245   20.1852 C   0  0  0  0  0  0
  -29.4950  -17.1929   21.1796 C   0  0  0  0  0  0
  -29.7423  -15.8158   21.2318 C   0  0  0  0  0  0
  -29.0266  -23.6544   19.9808 C   0  0  0  0  0  0
  -27.4583  -19.6048   21.2002 C   0  0  0  0  0  0
  -28.0087  -24.8749   19.8130 C   0  0  0  0  0  0
  -31.2292  -19.0794   19.8668 S   0  0  0  0  0  0
  -31.4942  -12.6453   19.1517 H   0  0  0  0  0  0
  -30.4399  -11.4816   19.8944 H   0  0  0  0  0  0
  -29.8055  -11.8077   17.4855 H   0  0  0  0  0  0
  -29.6367  -13.5232   17.7423 H   0  0  0  0  0  0
  -27.8842  -11.3083   18.8502 H   0  0  0  0  0  0
  -27.3852  -12.6008   17.7916 H   0  0  0  0  0  0
  -27.6769  -14.2612   19.5465 H   0  0  0  0  0  0
  -28.7529  -12.0003   21.2803 H   0  0  0  0  0  0
  -28.3906  -13.5593   21.8926 H   0  0  0  0  0  0
  -25.2752   -9.5694   22.4769 H   0  0  0  0  0  0
  -24.0014   -7.4632   22.7477 H   0  0  0  0  0  0
  -21.0846   -8.8779   19.8967 H   0  0  0  0  0  0
  -22.3707  -10.9663   19.6181 H   0  0  0  0  0  0
  -21.1991   -7.6140   23.9721 H   0  0  0  0  0  0
  -21.1493   -6.0522   25.9083 H   0  0  0  0  0  0
  -22.0591   -2.7611   23.2869 H   0  0  0  0  0  0
  -22.4080  -11.9901   22.4791 H   0  0  0  0  0  0
  -21.1118  -13.1302   22.2616 H   0  0  0  0  0  0
  -24.6749  -15.8532   20.5394 H   0  0  0  0  0  0
  -26.2987  -15.6258   20.1301 H   0  0  0  0  0  0
  -26.7219  -32.5376   23.1063 H   0  0  0  0  0  0
  -25.0012  -33.9670   25.0341 H   0  0  0  0  0  0
  -22.7290  -31.3012   21.3987 H   0  0  0  0  0  0
  -23.3758  -35.9595   23.3277 H   0  0  0  0  0  0
  -24.3572  -36.8932   22.2059 H   0  0  0  0  0  0
  -23.7233  -37.6464   23.6686 H   0  0  0  0  0  0
  -26.1278  -31.5175   20.6175 H   0  0  0  0  0  0
  -26.8559  -30.8002   22.0238 H   0  0  0  0  0  0
  -28.1212  -28.8898   21.2182 H   0  0  0  0  0  0
  -25.9140  -25.9379   18.9394 H   0  0  0  0  0  0
  -23.9710  -27.3315   18.9756 H   0  0  0  0  0  0
  -23.7753  -30.5944   19.4047 H   0  0  0  0  0  0
  -22.7673  -29.2519   19.8522 H   0  0  0  0  0  0
  -25.1290  -36.1891   25.0815 H   0  0  0  0  0  0
  -20.9981  -28.3271   24.1375 H   0  0  0  0  0  0
  -20.5624  -26.2315   23.3607 H   0  0  0  0  0  0
  -21.6638  -26.7394   22.1225 H   0  0  0  0  0  0
  -19.6898  -25.6288   21.1236 H   0  0  0  0  0  0
  -19.6676  -27.3179   20.6720 H   0  0  0  0  0  0
  -17.4186  -26.6645   21.4041 H   0  0  0  0  0  0
  -18.0346  -26.0073   22.9028 H   0  0  0  0  0  0
  -19.7951  -30.7270   24.2241 H   0  0  0  0  0  0
  -17.5030  -31.6257   24.5171 H   0  0  0  0  0  0
  -15.5361  -30.2981   23.7664 H   0  0  0  0  0  0
  -15.8676  -28.0824   22.7065 H   0  0  0  0  0  0
  -24.5861  -30.7107   25.7760 H   0  0  0  0  0  0
  -24.8910  -32.2910   26.4873 H   0  0  0  0  0  0
  -25.7997  -30.8890   27.0225 H   0  0  0  0  0  0
  -26.2938  -29.6725   24.1261 H   0  0  0  0  0  0
  -27.3976  -29.7253   25.4800 H   0  0  0  0  0  0
  -27.8843  -30.4236   23.9545 H   0  0  0  0  0  0
  -27.2656  -33.3615   26.2077 H   0  0  0  0  0  0
  -28.3856  -32.6869   25.0336 H   0  0  0  0  0  0
  -28.0714  -31.8448   26.5427 H   0  0  0  0  0  0
  -28.2559  -38.0114   24.7550 H   0  0  0  0  0  0
  -28.1108  -36.2646   24.6207 H   0  0  0  0  0  0
  -27.2303  -37.1350   25.8856 H   0  0  0  0  0  0
  -20.9400  -29.8801   21.6878 H   0  0  0  0  0  0
  -26.0145  -38.2832   24.1459 H   0  0  0  0  0  0
  -31.3832  -21.5110   19.3389 H   0  0  0  0  0  0
  -27.6018  -22.1919   20.3060 H   0  0  0  0  0  0
  -28.7992  -17.3624   21.9889 H   0  0  0  0  0  0
  -29.1738  -15.3994   22.0440 H   0  0  0  0  0  0
  -30.0702  -23.8992   19.8527 H   0  0  0  0  0  0
  -26.7538  -20.0231   20.4807 H   0  0  0  0  0  0
  -27.3495  -20.1637   22.1293 H   0  0  0  0  0  0
  -27.1240  -18.5854   21.3871 H   0  0  0  0  0  0
  -27.0937  -24.5760   20.3248 H   0  0  0  0  0  0
  -27.7843  -24.8650   18.7458 H   0  0  0  0  0  0
  1 25  1  0  0  0
  1 30  2  0  0  0
  1 77  1  0  0  0
  2  3  1  0  0  0
  2 25  1  0  0  0
  2 82  1  0  0  0
  2 83  1  0  0  0
  3  4  1  0  0  0
  3 84  1  0  0  0
  3 85  1  0  0  0
  4  5  1  0  0  0
  4 86  1  0  0  0
  4 87  1  0  0  0
  5  6  1  0  0  0
  5 26  1  0  0  0
  5 88  1  0  0  0
  6 25  1  0  0  0
  6 89  1  0  0  0
  6 90  1  0  0  0
  7  8  2  0  0  0
  7 26  1  0  0  0
  7 29  1  0  0  0
  8  9  1  0  0  0
  8 22  1  0  0  0
  9 10  1  0  0  0
  9 27  2  0  0  0
 10 11  2  0  0  0
 10 15  1  0  0  0
 11 12  1  0  0  0
 11 91  1  0  0  0
 12 13  2  0  0  0
 12 92  1  0  0  0
 13 14  1  0  0  0
 13 31  1  0  0  0
 14 15  2  0  0  0
 14 93  1  0  0  0
 15 94  1  0  0  0
 16 17  2  0  0  0
 16 21  1  0  0  0
 16 31  1  0  0  0
 17 18  1  0  0  0
 17 95  1  0  0  0
 18 19  2  0  0  0
 18 96  1  0  0  0
 19 20  1  0  0  0
 19 24  1  0  0  0
 20 21  2  0  0  0
 20 97  1  0  0  0
 21 23  1  0  0  0
 22 28  1  0  0  0
 22 32  2  0  0  0
 26 27  1  0  0  0
 28 98  1  0  0  0
 28 99  1  0  0  0
 29100  1  0  0  0
 29101  1  0  0  0
 33 34  1  0  0  0
 33 66  1  0  0  0
 33 70  2  0  0  0
 34 36  1  0  0  0
 34 59  1  0  0  0
 34102  1  0  0  0
 35 44  2  0  0  0
 35 45  1  0  0  0
 35 68  1  0  0  0
 36 56  1  0  0  0
 36103  1  0  0  0
 37 39  1  0  0  0
 37 47  1  0  0  0
 37 66  1  0  0  0
 37104  1  0  0  0
 38 43  2  0  0  0
 38 46  1  0  0  0
 38 47  1  0  0  0
 39 64  1  0  0  0
 39 67  2  0  0  0
 40 52  1  0  0  0
 40 53  2  0  0  0
 40 58  1  0  0  0
 41105  1  0  0  0
 41106  1  0  0  0
 41107  1  0  0  0
 41 48  1  0  0  0
 42 43  1  0  0  0
 42 66  1  0  0  0
 42108  1  0  0  0
 42109  1  0  0  0
 43 44  1  0  0  0
 44110  1  0  0  0
 45 46  2  0  0  0
 45111  1  0  0  0
 46112  1  0  0  0
 47113  1  0  0  0
 47114  1  0  0  0
 48 56  1  0  0  0
 48 65  1  0  0  0
 48115  1  0  0  0
 49 50  1  0  0  0
 49 53  1  0  0  0
 49 64  1  0  0  0
 49116  1  0  0  0
 50 51  1  0  0  0
 50117  1  0  0  0
 50118  1  0  0  0
 51 52  1  0  0  0
 51119  1  0  0  0
 51120  1  0  0  0
 52121  1  0  0  0
 52122  1  0  0  0
 53 54  1  0  0  0
 54 55  2  0  0  0
 54123  1  0  0  0
 55 57  1  0  0  0
 55124  1  0  0  0
 56 69  2  0  0  0
 57 58  2  0  0  0
 57125  1  0  0  0
 58126  1  0  0  0
 59 60  1  0  0  0
 59 61  1  0  0  0
 59 62  1  0  0  0
 60127  1  0  0  0
 60128  1  0  0  0
 60129  1  0  0  0
 61130  1  0  0  0
 61131  1  0  0  0
 61132  1  0  0  0
 62133  1  0  0  0
 62134  1  0  0  0
 62135  1  0  0  0
 63 65  1  0  0  0
 63136  1  0  0  0
 63137  1  0  0  0
 63138  1  0  0  0
 64139  1  0  0  0
 65140  1  0  0  0
 68 80  1  0  0  0
 71 72  2  0  0  0
 71 81  1  0  0  0
 71141  1  0  0  0
 72 73  1  0  0  0
 72 75  1  0  0  0
 73 74  2  0  0  0
 73 79  1  0  0  0
 74 76  1  0  0  0
 74 81  1  0  0  0
 75 78  2  0  0  0
 75142  1  0  0  0
 76 77  2  0  0  0
 76143  1  0  0  0
 77144  1  0  0  0
 78 80  1  0  0  0
 78145  1  0  0  0
 79146  1  0  0  0
 79147  1  0  0  0
 79148  1  0  0  0
 80149  1  0  0  0
 80150  1  0  0  0
M  ISO  4   1 100  68 101  77 100  80 101
M  END
> <chiral flag>
0

> <version>
0

> <s_m_source_file>
/data/baiqing/PycharmProjects/Reinvent-master-3.2/result/LINK_invent/BTK/process_docking_weight1_custom_product_contain_oxygen_bond_distance_aromatic_linkinvent_7_9_3/rearranged_h_0126.sdf

> <i_m_source_file_index>
14

> <r_mmod_Potential_Energy-OPLS-2005>
260.054473876953

> <r_mmod_Stretch_Energy-OPLS-2005>
128.556182861328

> <r_mmod_Bend_Energy-OPLS-2005>
263.345581054688

> <r_mmod_Torsional_Energy-OPLS-2005>
185.968963623047

> <r_mmod_Improper_Torsional_Energy-OPLS-2005>
3.33473944664001

> <r_mmod_Van_der_Waal_Energy-OPLS-2005>
132.307342529297

> <r_mmod_Electrostatic_Energy-OPLS-2005>
-339.646026611328

> <r_mmod_Solvation_Energy-OPLS-2005>
-204.98046875

> <b_mmod_Minimization_Converged-OPLS-2005>
0

> <r_mmod_RMS_Derivative-OPLS-2005>
1.84871649742126

$$$$
14
                    3D
 Structure written by MMmdl.
157165  0  0  1  0            999 V2000
  -30.6438  -14.6408   20.4919 C   0  0  0  0  0  0
  -30.4363  -12.3915   19.4507 C   0  0  0  0  0  0
  -29.5010  -12.4922   18.2248 C   0  0  0  0  0  0
  -28.0265  -12.3298   18.6428 C   0  0  0  0  0  0
  -27.6505  -13.2154   19.8600 C   0  0  2  0  0  0
  -28.7011  -13.0872   20.9890 C   0  0  0  0  0  0
  -25.2447  -13.8069   20.5561 C   0  0  0  0  0  0
  -24.1779  -13.0353   20.9222 C   0  0  0  0  0  0
  -24.6399  -11.6852   20.8801 C   0  0  0  0  0  0
  -23.9077  -10.4244   21.0435 C   0  0  0  0  0  0
  -24.3619   -9.4160   21.9217 C   0  0  0  0  0  0
  -23.6279   -8.2201   22.0778 C   0  0  0  0  0  0
  -22.4272   -8.0255   21.3541 C   0  0  0  0  0  0
  -21.9912   -9.0237   20.4657 C   0  0  0  0  0  0
  -22.7250  -10.2107   20.3074 C   0  0  0  0  0  0
  -21.6839   -6.0734   22.5275 C   0  0  0  0  0  0
  -21.4002   -6.5641   23.8209 C   0  0  0  0  0  0
  -21.3647   -5.6794   24.9175 C   0  0  0  0  0  0
  -21.6049   -4.3057   24.7219 C   0  0  0  0  0  0
  -21.8817   -3.8149   23.4337 C   0  0  0  0  0  0
  -21.9185   -4.6966   22.3397 C   0  0  0  0  0  0
  -22.7797  -13.5147   21.1857 C   0  0  0  0  0  0
  -22.1658   -4.2155   21.0966 F   0  0  0  0  0  0
  -21.5629   -3.4538   25.7729 F   0  0  0  0  0  0
  -30.0169  -13.4230   20.4200 N   0  0  0  0  0  0
  -26.2965  -12.9325   20.3324 N   0  0  0  0  0  0
  -25.9343  -11.6490   20.5856 N   0  0  0  0  0  0
  -22.0439  -12.8185   22.0452 N   0  0  0  0  0  0
  -25.3919  -15.1722   20.3618 N   0  0  0  0  0  0
  -31.8091  -14.7823   20.1127 O   0  0  0  0  0  0
  -21.6612   -6.8873   21.4240 O   0  0  0  0  0  0
  -22.3486  -14.5448   20.6689 O   0  0  0  0  0  0
  -24.6255  -31.8590   23.2066 C   0  0  0  0  0  0
  -25.9126  -32.4759   23.8367 C   0  0  1  0  0  0
  -27.2325  -27.3349   20.1130 C   0  0  0  0  0  0
  -25.5966  -33.8558   24.2299 N   0  0  0  0  0  0
  -23.4173  -30.4818   21.5470 C   0  0  2  0  0  0
  -24.8640  -28.9410   20.1080 C   0  0  0  0  0  0
  -22.7477  -29.4589   22.4940 C   0  0  0  0  0  0
  -18.0292  -28.1345   22.8416 C   0  0  0  0  0  0
  -24.1514  -36.7257   23.2642 C   0  0  0  0  0  0
  -25.9572  -30.7922   21.3771 C   0  0  0  0  0  0
  -26.0329  -29.4240   20.7106 C   0  0  0  0  0  0
  -27.2173  -28.6348   20.7019 C   0  0  0  0  0  0
  -26.0391  -26.8964   19.4909 C   0  0  0  0  0  0
  -24.8688  -27.6789   19.4904 C   0  0  0  0  0  0
  -23.6297  -29.8171   20.1616 C   0  0  0  0  0  0
  -25.4129  -36.3052   24.0342 C   0  0  1  0  0  0
  -20.5891  -28.3634   23.1262 C   0  0  2  0  0  0
  -20.6784  -26.9362   22.5374 C   0  0  0  0  0  0
  -19.5765  -26.6341   21.5166 C   0  0  0  0  0  0
  -18.1936  -26.7868   22.1575 C   0  0  0  0  0  0
  -19.1550  -28.8810   23.2800 C   0  0  0  0  0  0
  -18.9481  -30.1405   23.8818 C   0  0  0  0  0  0
  -17.6486  -30.6538   24.0523 C   0  0  0  0  0  0
  -25.9059  -34.9427   23.5091 C   0  0  0  0  0  0
  -16.5367  -29.9011   23.6345 C   0  0  0  0  0  0
  -16.7281  -28.6449   23.0315 C   0  0  0  0  0  0
  -26.4525  -31.6584   25.0748 C   0  0  0  0  0  0
  -25.3771  -31.3711   26.1494 C   0  0  0  0  0  0
  -27.0417  -30.3034   24.6203 C   0  0  0  0  0  0
  -27.6082  -32.4336   25.7513 C   0  0  0  0  0  0
  -27.5573  -37.1783   24.8466 C   0  0  0  0  0  0
  -21.4201  -29.2988   22.3678 N   0  0  0  0  0  0
  -26.4298  -37.3752   23.9417 N   0  0  0  0  0  0
  -24.6847  -31.0605   22.1004 N   0  0  0  0  0  0
  -23.4202  -28.8147   23.3019 O   0  0  0  0  0  0
  -28.3682  -26.5130   20.1555 O   0  0  0  0  0  0
  -26.5584  -34.8893   22.4635 O   0  0  0  0  0  0
  -23.5430  -32.1421   23.7398 O   0  0  0  0  0  0
  -28.9037  -19.4072   20.8551 C   0  0  0  0  0  0
  -31.1514  -17.8394   20.3028 C   0  0  0  0  0  0
  -30.0720  -20.0957   20.4547 C   0  0  0  0  0  0
  -28.8508  -17.9887   20.9882 C   0  0  0  0  0  0
  -31.2061  -19.2646   20.1839 C   0  0  0  0  0  0
  -29.9754  -17.1551   20.7099 C   0  0  0  0  0  0
  -30.1292  -21.6155   20.3304 C   0  0  0  0  0  0
  -29.1772  -22.5810   20.5233 C   0  0  0  0  0  0
  -27.5206  -17.3871   21.3975 C   0  0  0  0  0  0
  -32.5226  -19.8893   19.7508 C   0  0  0  0  0  0
  -29.4094  -24.1280   20.4344 C   0  0  0  0  0  0
  -28.1807  -25.0529   20.0583 C   0  0  0  0  0  0
  -29.8490  -15.6992   20.8425 N   0  0  0  0  0  0
  -31.4762  -12.5119   19.1434 H   0  0  0  0  0  0
  -30.3715  -11.4016   19.9059 H   0  0  0  0  0  0
  -29.7626  -11.7291   17.4908 H   0  0  0  0  0  0
  -29.6388  -13.4522   17.7264 H   0  0  0  0  0  0
  -27.8728  -11.2798   18.8953 H   0  0  0  0  0  0
  -27.3656  -12.5379   17.7991 H   0  0  0  0  0  0
  -27.6630  -14.2459   19.5060 H   0  0  0  0  0  0
  -28.7169  -12.0707   21.3853 H   0  0  0  0  0  0
  -28.4492  -13.7296   21.8344 H   0  0  0  0  0  0
  -25.2768   -9.5623   22.4803 H   0  0  0  0  0  0
  -23.9974   -7.4589   22.7506 H   0  0  0  0  0  0
  -21.0846   -8.8761   19.8966 H   0  0  0  0  0  0
  -22.3725  -10.9655   19.6180 H   0  0  0  0  0  0
  -21.2002   -7.6145   23.9712 H   0  0  0  0  0  0
  -21.1470   -6.0524   25.9074 H   0  0  0  0  0  0
  -22.0614   -2.7611   23.2829 H   0  0  0  0  0  0
  -22.4032  -11.9849   22.4868 H   0  0  0  0  0  0
  -21.1072  -13.1258   22.2667 H   0  0  0  0  0  0
  -24.5871  -15.7888   20.3902 H   0  0  0  0  0  0
  -26.1793  -15.5781   19.8743 H   0  0  0  0  0  0
  -26.7184  -32.5448   23.1106 H   0  0  0  0  0  0
  -25.0278  -33.9712   25.0541 H   0  0  0  0  0  0
  -22.7085  -31.2995   21.4054 H   0  0  0  0  0  0
  -23.3776  -35.9589   23.3303 H   0  0  0  0  0  0
  -24.3602  -36.8878   22.2053 H   0  0  0  0  0  0
  -23.7259  -37.6458   23.6667 H   0  0  0  0  0  0
  -26.0971  -31.5656   20.6205 H   0  0  0  0  0  0
  -26.8326  -30.8274   22.0154 H   0  0  0  0  0  0
  -28.1114  -29.0037   21.1844 H   0  0  0  0  0  0
  -25.9845  -25.9354   19.0038 H   0  0  0  0  0  0
  -23.9746  -27.2956   19.0172 H   0  0  0  0  0  0
  -23.7341  -30.5958   19.4045 H   0  0  0  0  0  0
  -22.7542  -29.2374   19.8688 H   0  0  0  0  0  0
  -25.1295  -36.1902   25.0835 H   0  0  0  0  0  0
  -20.9948  -28.3225   24.1392 H   0  0  0  0  0  0
  -20.5696  -26.2249   23.3571 H   0  0  0  0  0  0
  -21.6646  -26.7382   22.1167 H   0  0  0  0  0  0
  -19.6956  -25.6254   21.1185 H   0  0  0  0  0  0
  -19.6741  -27.3160   20.6709 H   0  0  0  0  0  0
  -17.4211  -26.6590   21.3971 H   0  0  0  0  0  0
  -18.0332  -26.0018   22.8995 H   0  0  0  0  0  0
  -19.7981  -30.7206   24.2166 H   0  0  0  0  0  0
  -17.5056  -31.6236   24.5094 H   0  0  0  0  0  0
  -15.5355  -30.2864   23.7747 H   0  0  0  0  0  0
  -15.8684  -28.0766   22.7021 H   0  0  0  0  0  0
  -24.5927  -30.7074   25.7823 H   0  0  0  0  0  0
  -24.8996  -32.2888   26.4946 H   0  0  0  0  0  0
  -25.8109  -30.8863   27.0253 H   0  0  0  0  0  0
  -26.3020  -29.6721   24.1277 H   0  0  0  0  0  0
  -27.4210  -29.7325   25.4692 H   0  0  0  0  0  0
  -27.8841  -30.4344   23.9395 H   0  0  0  0  0  0
  -27.2685  -33.3637   26.2064 H   0  0  0  0  0  0
  -28.3906  -32.6887   25.0345 H   0  0  0  0  0  0
  -28.0761  -31.8489   26.5453 H   0  0  0  0  0  0
  -28.2556  -38.0107   24.7496 H   0  0  0  0  0  0
  -28.1078  -36.2617   24.6296 H   0  0  0  0  0  0
  -27.2266  -37.1424   25.8861 H   0  0  0  0  0  0
  -20.9405  -29.8694   21.6867 H   0  0  0  0  0  0
  -26.0166  -38.2815   24.1437 H   0  0  0  0  0  0
  -28.0114  -19.9788   21.0677 H   0  0  0  0  0  0
  -32.0392  -17.2681   20.0721 H   0  0  0  0  0  0
  -31.0991  -22.0044   20.0621 H   0  0  0  0  0  0
  -28.1772  -22.2803   20.7992 H   0  0  0  0  0  0
  -26.9593  -18.0610   22.0470 H   0  0  0  0  0  0
  -27.6245  -16.4400   21.9283 H   0  0  0  0  0  0
  -26.9316  -17.2302   20.4956 H   0  0  0  0  0  0
  -33.3055  -19.1404   19.6271 H   0  0  0  0  0  0
  -32.8720  -20.6064   20.4956 H   0  0  0  0  0  0
  -32.4035  -20.4092   18.7989 H   0  0  0  0  0  0
  -30.2303  -24.3157   19.7396 H   0  0  0  0  0  0
  -29.7693  -24.4417   21.4147 H   0  0  0  0  0  0
  -27.3516  -24.7757   20.7103 H   0  0  0  0  0  0
  -27.8779  -24.8062   19.0406 H   0  0  0  0  0  0
  -28.9396  -15.3982   21.1539 H   0  0  0  0  0  0
  1 25  1  0  0  0
  1 30  2  0  0  0
  1 83  1  0  0  0
  2  3  1  0  0  0
  2 25  1  0  0  0
  2 84  1  0  0  0
  2 85  1  0  0  0
  3  4  1  0  0  0
  3 86  1  0  0  0
  3 87  1  0  0  0
  4  5  1  0  0  0
  4 88  1  0  0  0
  4 89  1  0  0  0
  5  6  1  0  0  0
  5 26  1  0  0  0
  5 90  1  0  0  0
  6 25  1  0  0  0
  6 91  1  0  0  0
  6 92  1  0  0  0
  7  8  2  0  0  0
  7 26  1  0  0  0
  7 29  1  0  0  0
  8  9  1  0  0  0
  8 22  1  0  0  0
  9 10  1  0  0  0
  9 27  2  0  0  0
 10 11  2  0  0  0
 10 15  1  0  0  0
 11 12  1  0  0  0
 11 93  1  0  0  0
 12 13  2  0  0  0
 12 94  1  0  0  0
 13 14  1  0  0  0
 13 31  1  0  0  0
 14 15  2  0  0  0
 14 95  1  0  0  0
 15 96  1  0  0  0
 16 17  2  0  0  0
 16 21  1  0  0  0
 16 31  1  0  0  0
 17 18  1  0  0  0
 17 97  1  0  0  0
 18 19  2  0  0  0
 18 98  1  0  0  0
 19 20  1  0  0  0
 19 24  1  0  0  0
 20 21  2  0  0  0
 20 99  1  0  0  0
 21 23  1  0  0  0
 22 28  1  0  0  0
 22 32  2  0  0  0
 26 27  1  0  0  0
 28100  1  0  0  0
 28101  1  0  0  0
 29102  1  0  0  0
 29103  1  0  0  0
 33 34  1  0  0  0
 33 66  1  0  0  0
 33 70  2  0  0  0
 34 36  1  0  0  0
 34 59  1  0  0  0
 34104  1  0  0  0
 35 44  2  0  0  0
 35 45  1  0  0  0
 35 68  1  0  0  0
 36 56  1  0  0  0
 36105  1  0  0  0
 37 39  1  0  0  0
 37 47  1  0  0  0
 37 66  1  0  0  0
 37106  1  0  0  0
 38 43  2  0  0  0
 38 46  1  0  0  0
 38 47  1  0  0  0
 39 64  1  0  0  0
 39 67  2  0  0  0
 40 52  1  0  0  0
 40 53  2  0  0  0
 40 58  1  0  0  0
 41107  1  0  0  0
 41108  1  0  0  0
 41109  1  0  0  0
 41 48  1  0  0  0
 42 43  1  0  0  0
 42 66  1  0  0  0
 42110  1  0  0  0
 42111  1  0  0  0
 43 44  1  0  0  0
 44112  1  0  0  0
 45 46  2  0  0  0
 45113  1  0  0  0
 46114  1  0  0  0
 47115  1  0  0  0
 47116  1  0  0  0
 48 56  1  0  0  0
 48 65  1  0  0  0
 48117  1  0  0  0
 49 50  1  0  0  0
 49 53  1  0  0  0
 49 64  1  0  0  0
 49118  1  0  0  0
 50 51  1  0  0  0
 50119  1  0  0  0
 50120  1  0  0  0
 51 52  1  0  0  0
 51121  1  0  0  0
 51122  1  0  0  0
 52123  1  0  0  0
 52124  1  0  0  0
 53 54  1  0  0  0
 54 55  2  0  0  0
 54125  1  0  0  0
 55 57  1  0  0  0
 55126  1  0  0  0
 56 69  2  0  0  0
 57 58  2  0  0  0
 57127  1  0  0  0
 58128  1  0  0  0
 59 60  1  0  0  0
 59 61  1  0  0  0
 59 62  1  0  0  0
 60129  1  0  0  0
 60130  1  0  0  0
 60131  1  0  0  0
 61132  1  0  0  0
 61133  1  0  0  0
 61134  1  0  0  0
 62135  1  0  0  0
 62136  1  0  0  0
 62137  1  0  0  0
 63 65  1  0  0  0
 63138  1  0  0  0
 63139  1  0  0  0
 63140  1  0  0  0
 64141  1  0  0  0
 65142  1  0  0  0
 68 82  1  0  0  0
 71 73  2  0  0  0
 71 74  1  0  0  0
 71143  1  0  0  0
 72 75  2  0  0  0
 72 76  1  0  0  0
 72144  1  0  0  0
 73 75  1  0  0  0
 73 77  1  0  0  0
 74 76  2  0  0  0
 74 79  1  0  0  0
 75 80  1  0  0  0
 76 83  1  0  0  0
 77 78  2  0  0  0
 77145  1  0  0  0
 78 81  1  0  0  0
 78146  1  0  0  0
 79147  1  0  0  0
 79148  1  0  0  0
 79149  1  0  0  0
 80150  1  0  0  0
 80151  1  0  0  0
 80152  1  0  0  0
 81 82  1  0  0  0
 81153  1  0  0  0
 81154  1  0  0  0
 82155  1  0  0  0
 82156  1  0  0  0
 83157  1  0  0  0
M  ISO  4   1 100  68 101  82 101  83 100
M  END
> <chiral flag>
0

> <version>
0

> <s_m_source_file>
/data/baiqing/PycharmProjects/Reinvent-master-3.2/result/LINK_invent/BTK/process_docking_weight1_custom_product_contain_oxygen_bond_distance_aromatic_linkinvent_7_9_3/rearranged_h_0126.sdf

> <i_m_source_file_index>
15

> <r_mmod_Potential_Energy-OPLS-2005>
26.0015239715576

> <r_mmod_Stretch_Energy-OPLS-2005>
74.2763519287109

> <r_mmod_Bend_Energy-OPLS-2005>
128.627258300781

> <r_mmod_Torsional_Energy-OPLS-2005>
211.235977172852

> <r_mmod_Improper_Torsional_Energy-OPLS-2005>
5.41119766235352

> <r_mmod_Van_der_Waal_Energy-OPLS-2005>
150.989349365234

> <r_mmod_Electrostatic_Energy-OPLS-2005>
-390.564575195312

> <r_mmod_Solvation_Energy-OPLS-2005>
-199.563674926758

> <b_mmod_Minimization_Converged-OPLS-2005>
0

> <r_mmod_RMS_Derivative-OPLS-2005>
3.06903076171875

$$$$
15
                    3D
 Structure written by MMmdl.
149157  0  0  1  0            999 V2000
  -30.4598  -15.1985   20.3672 C   0  0  0  0  0  0
  -30.4417  -12.7508   19.5384 C   0  0  0  0  0  0
  -29.5403  -12.5655   18.2912 C   0  0  0  0  0  0
  -28.0826  -12.3014   18.7078 C   0  0  0  0  0  0
  -27.6150  -13.2724   19.8205 C   0  0  2  0  0  0
  -28.6445  -13.4202   20.9588 C   0  0  0  0  0  0
  -25.2408  -13.8253   20.5726 C   0  0  0  0  0  0
  -24.1752  -13.0448   20.9239 C   0  0  0  0  0  0
  -24.6398  -11.6939   20.8746 C   0  0  0  0  0  0
  -23.9090  -10.4298   21.0400 C   0  0  0  0  0  0
  -24.3635   -9.4212   21.9178 C   0  0  0  0  0  0
  -23.6302   -8.2252   22.0755 C   0  0  0  0  0  0
  -22.4282   -8.0291   21.3548 C   0  0  0  0  0  0
  -21.9918   -9.0262   20.4651 C   0  0  0  0  0  0
  -22.7256  -10.2136   20.3055 C   0  0  0  0  0  0
  -21.6857   -6.0741   22.5278 C   0  0  0  0  0  0
  -21.4019   -6.5641   23.8213 C   0  0  0  0  0  0
  -21.3661   -5.6790   24.9176 C   0  0  0  0  0  0
  -21.6044   -4.3055   24.7223 C   0  0  0  0  0  0
  -21.8819   -3.8146   23.4344 C   0  0  0  0  0  0
  -21.9193   -4.6966   22.3403 C   0  0  0  0  0  0
  -22.7773  -13.5207   21.1896 C   0  0  0  0  0  0
  -22.1661   -4.2153   21.0982 F   0  0  0  0  0  0
  -21.5624   -3.4537   25.7735 F   0  0  0  0  0  0
  -29.9003  -13.8939   20.3571 N   0  0  0  0  0  0
  -26.2828  -12.9519   20.3177 N   0  0  0  0  0  0
  -25.9334  -11.6626   20.5695 N   0  0  0  0  0  0
  -22.0430  -12.8191   22.0457 N   0  0  0  0  0  0
  -25.4059  -15.1990   20.4193 N   0  0  0  0  0  0
  -31.6788  -15.1891   20.1428 O   0  0  0  0  0  0
  -21.6646   -6.8885   21.4242 O   0  0  0  0  0  0
  -22.3450  -14.5508   20.6736 O   0  0  0  0  0  0
  -24.6601  -31.8287   23.1756 C   0  0  0  0  0  0
  -25.9296  -32.4615   23.8207 C   0  0  1  0  0  0
  -27.2136  -26.9668   20.1754 C   0  0  0  0  0  0
  -25.5978  -33.8427   24.2116 N   0  0  0  0  0  0
  -23.4726  -30.4440   21.5245 C   0  0  2  0  0  0
  -24.9253  -28.8436   20.1119 C   0  0  0  0  0  0
  -22.7655  -29.4468   22.4798 C   0  0  0  0  0  0
  -18.0326  -28.1408   22.8470 C   0  0  0  0  0  0
  -24.1497  -36.7221   23.2645 C   0  0  0  0  0  0
  -26.0411  -30.6480   21.4013 C   0  0  0  0  0  0
  -26.1096  -29.2426   20.7442 C   0  0  0  0  0  0
  -27.2507  -28.3249   20.7537 C   0  0  0  0  0  0
  -26.0003  -26.7187   19.4918 C   0  0  0  0  0  0
  -24.8945  -27.6009   19.4651 C   0  0  0  0  0  0
  -23.7105  -29.7670   20.1483 C   0  0  0  0  0  0
  -25.4134  -36.2987   24.0307 C   0  0  1  0  0  0
  -20.5948  -28.3755   23.1193 C   0  0  2  0  0  0
  -20.6810  -26.9443   22.5396 C   0  0  0  0  0  0
  -19.5778  -26.6382   21.5215 C   0  0  0  0  0  0
  -18.1962  -26.7939   22.1631 C   0  0  0  0  0  0
  -19.1584  -28.8901   23.2821 C   0  0  0  0  0  0
  -18.9495  -30.1491   23.8857 C   0  0  0  0  0  0
  -17.6488  -30.6598   24.0557 C   0  0  0  0  0  0
  -25.9096  -34.9365   23.5032 C   0  0  0  0  0  0
  -16.5379  -29.9086   23.6340 C   0  0  0  0  0  0
  -16.7308  -28.6505   23.0361 C   0  0  0  0  0  0
  -26.4556  -31.6535   25.0715 C   0  0  0  0  0  0
  -25.3698  -31.3776   26.1383 C   0  0  0  0  0  0
  -27.0438  -30.2905   24.6413 C   0  0  0  0  0  0
  -27.6067  -32.4324   25.7508 C   0  0  0  0  0  0
  -27.5576  -37.1767   24.8465 C   0  0  0  0  0  0
  -21.4328  -29.3053   22.3545 N   0  0  0  0  0  0
  -26.4286  -37.3716   23.9409 N   0  0  0  0  0  0
  -24.7458  -30.9990   22.0874 N   0  0  0  0  0  0
  -23.4223  -28.8033   23.3019 O   0  0  0  0  0  0
  -28.2015  -25.8588   20.2515 O   0  0  0  0  0  0
  -26.5698  -34.8888   22.4626 O   0  0  0  0  0  0
  -23.5680  -32.1238   23.6871 O   0  0  0  0  0  0
  -29.5673  -20.5970   21.3601 C   0  0  0  0  0  0
  -28.3695  -21.6891   19.1895 C   0  0  0  0  0  0
  -29.3712  -19.5517   20.3546 C   0  0  0  0  0  0
  -28.7510  -20.2532   19.2404 C   0  0  0  0  0  0
  -28.5454  -22.7261   20.2003 C   0  0  0  0  0  0
  -29.1783  -22.0350   21.3152 C   0  0  0  0  0  0
  -29.9960  -17.9810   20.3719 C   0  0  0  0  0  0
  -29.6143  -16.5714   20.4549 C   0  0  0  0  0  0
  -28.4848  -19.4253   17.9970 C   0  0  0  0  0  0
  -27.7879  -24.2901   20.1040 C   0  0  0  0  0  0
  -29.4191  -22.7660   22.4296 F   0  0  0  0  0  0
  -31.4689  -12.9312   19.2198 H   0  0  0  0  0  0
  -30.4774  -11.8346   20.1302 H   0  0  0  0  0  0
  -29.9082  -11.7456   17.6731 H   0  0  0  0  0  0
  -29.5876  -13.4640   17.6740 H   0  0  0  0  0  0
  -28.0257  -11.2745   19.0712 H   0  0  0  0  0  0
  -27.4207  -12.3580   17.8431 H   0  0  0  0  0  0
  -27.5408  -14.2452   19.3326 H   0  0  0  0  0  0
  -28.7848  -12.4790   21.4926 H   0  0  0  0  0  0
  -28.2945  -14.1441   21.6960 H   0  0  0  0  0  0
  -25.2775   -9.5686   22.4760 H   0  0  0  0  0  0
  -24.0003   -7.4645   22.7481 H   0  0  0  0  0  0
  -21.0841   -8.8789   19.8965 H   0  0  0  0  0  0
  -22.3707  -10.9678   19.6171 H   0  0  0  0  0  0
  -21.2015   -7.6145   23.9718 H   0  0  0  0  0  0
  -21.1483   -6.0521   25.9079 H   0  0  0  0  0  0
  -22.0594   -2.7606   23.2846 H   0  0  0  0  0  0
  -22.4045  -11.9853   22.4841 H   0  0  0  0  0  0
  -21.1057  -13.1231   22.2685 H   0  0  0  0  0  0
  -24.6370  -15.8498   20.5384 H   0  0  0  0  0  0
  -26.2542  -15.6442   20.0938 H   0  0  0  0  0  0
  -26.7366  -32.5171   23.0930 H   0  0  0  0  0  0
  -25.0074  -33.9506   25.0229 H   0  0  0  0  0  0
  -22.7848  -31.2757   21.3591 H   0  0  0  0  0  0
  -23.3770  -35.9540   23.3273 H   0  0  0  0  0  0
  -24.3583  -36.8896   22.2067 H   0  0  0  0  0  0
  -23.7237  -37.6398   23.6712 H   0  0  0  0  0  0
  -26.2176  -31.3919   20.6231 H   0  0  0  0  0  0
  -26.9032  -30.7034   22.0540 H   0  0  0  0  0  0
  -28.1458  -28.6268   21.2795 H   0  0  0  0  0  0
  -25.8583  -25.7763   18.9871 H   0  0  0  0  0  0
  -23.9956  -27.2915   18.9494 H   0  0  0  0  0  0
  -23.8652  -30.5390   19.3936 H   0  0  0  0  0  0
  -22.8207  -29.2220   19.8290 H   0  0  0  0  0  0
  -25.1325  -36.1799   25.0797 H   0  0  0  0  0  0
  -21.0040  -28.3361   24.1316 H   0  0  0  0  0  0
  -20.5712  -26.2371   23.3631 H   0  0  0  0  0  0
  -21.6672  -26.7434   22.1189 H   0  0  0  0  0  0
  -19.6940  -25.6282   21.1273 H   0  0  0  0  0  0
  -19.6707  -27.3169   20.6726 H   0  0  0  0  0  0
  -17.4225  -26.6671   21.4044 H   0  0  0  0  0  0
  -18.0369  -26.0094   22.9043 H   0  0  0  0  0  0
  -19.7969  -30.7320   24.2210 H   0  0  0  0  0  0
  -17.5038  -31.6274   24.5167 H   0  0  0  0  0  0
  -15.5377  -30.2979   23.7680 H   0  0  0  0  0  0
  -15.8709  -28.0809   22.7102 H   0  0  0  0  0  0
  -24.5836  -30.7189   25.7675 H   0  0  0  0  0  0
  -24.8946  -32.2982   26.4778 H   0  0  0  0  0  0
  -25.7925  -30.8926   27.0189 H   0  0  0  0  0  0
  -26.3091  -29.6594   24.1402 H   0  0  0  0  0  0
  -27.3966  -29.7253   25.5050 H   0  0  0  0  0  0
  -27.9040  -30.4095   23.9823 H   0  0  0  0  0  0
  -27.2646  -33.3648   26.2011 H   0  0  0  0  0  0
  -28.3915  -32.6845   25.0363 H   0  0  0  0  0  0
  -28.0696  -31.8500   26.5486 H   0  0  0  0  0  0
  -28.2573  -38.0083   24.7522 H   0  0  0  0  0  0
  -28.1093  -36.2611   24.6278 H   0  0  0  0  0  0
  -27.2294  -37.1394   25.8868 H   0  0  0  0  0  0
  -20.9575  -29.8748   21.6679 H   0  0  0  0  0  0
  -26.0141  -38.2778   24.1412 H   0  0  0  0  0  0
  -30.0629  -20.2829   22.2661 H   0  0  0  0  0  0
  -27.8693  -22.0174   18.2893 H   0  0  0  0  0  0
  -31.0672  -18.0489   20.2439 H   0  0  0  0  0  0
  -28.5538  -16.4146   20.5805 H   0  0  0  0  0  0
  -28.0734  -20.0251   17.1851 H   0  0  0  0  0  0
  -27.7784  -18.6248   18.2182 H   0  0  0  0  0  0
  -29.4098  -18.9720   17.6388 H   0  0  0  0  0  0
  -26.9367  -24.1881   20.7775 H   0  0  0  0  0  0
  -27.3528  -24.2456   19.1070 H   0  0  0  0  0  0
  1 25  1  0  0  0
  1 30  2  0  0  0
  1 78  1  0  0  0
  2  3  1  0  0  0
  2 25  1  0  0  0
  2 82  1  0  0  0
  2 83  1  0  0  0
  3  4  1  0  0  0
  3 84  1  0  0  0
  3 85  1  0  0  0
  4  5  1  0  0  0
  4 86  1  0  0  0
  4 87  1  0  0  0
  5  6  1  0  0  0
  5 26  1  0  0  0
  5 88  1  0  0  0
  6 25  1  0  0  0
  6 89  1  0  0  0
  6 90  1  0  0  0
  7  8  2  0  0  0
  7 26  1  0  0  0
  7 29  1  0  0  0
  8  9  1  0  0  0
  8 22  1  0  0  0
  9 10  1  0  0  0
  9 27  2  0  0  0
 10 11  2  0  0  0
 10 15  1  0  0  0
 11 12  1  0  0  0
 11 91  1  0  0  0
 12 13  2  0  0  0
 12 92  1  0  0  0
 13 14  1  0  0  0
 13 31  1  0  0  0
 14 15  2  0  0  0
 14 93  1  0  0  0
 15 94  1  0  0  0
 16 17  2  0  0  0
 16 21  1  0  0  0
 16 31  1  0  0  0
 17 18  1  0  0  0
 17 95  1  0  0  0
 18 19  2  0  0  0
 18 96  1  0  0  0
 19 20  1  0  0  0
 19 24  1  0  0  0
 20 21  2  0  0  0
 20 97  1  0  0  0
 21 23  1  0  0  0
 22 28  1  0  0  0
 22 32  2  0  0  0
 26 27  1  0  0  0
 28 98  1  0  0  0
 28 99  1  0  0  0
 29100  1  0  0  0
 29101  1  0  0  0
 33 34  1  0  0  0
 33 66  1  0  0  0
 33 70  2  0  0  0
 34 36  1  0  0  0
 34 59  1  0  0  0
 34102  1  0  0  0
 35 44  2  0  0  0
 35 45  1  0  0  0
 35 68  1  0  0  0
 36 56  1  0  0  0
 36103  1  0  0  0
 37 39  1  0  0  0
 37 47  1  0  0  0
 37 66  1  0  0  0
 37104  1  0  0  0
 38 43  2  0  0  0
 38 46  1  0  0  0
 38 47  1  0  0  0
 39 64  1  0  0  0
 39 67  2  0  0  0
 40 52  1  0  0  0
 40 53  2  0  0  0
 40 58  1  0  0  0
 41105  1  0  0  0
 41106  1  0  0  0
 41107  1  0  0  0
 41 48  1  0  0  0
 42 43  1  0  0  0
 42 66  1  0  0  0
 42108  1  0  0  0
 42109  1  0  0  0
 43 44  1  0  0  0
 44110  1  0  0  0
 45 46  2  0  0  0
 45111  1  0  0  0
 46112  1  0  0  0
 47113  1  0  0  0
 47114  1  0  0  0
 48 56  1  0  0  0
 48 65  1  0  0  0
 48115  1  0  0  0
 49 50  1  0  0  0
 49 53  1  0  0  0
 49 64  1  0  0  0
 49116  1  0  0  0
 50 51  1  0  0  0
 50117  1  0  0  0
 50118  1  0  0  0
 51 52  1  0  0  0
 51119  1  0  0  0
 51120  1  0  0  0
 52121  1  0  0  0
 52122  1  0  0  0
 53 54  1  0  0  0
 54 55  2  0  0  0
 54123  1  0  0  0
 55 57  1  0  0  0
 55124  1  0  0  0
 56 69  2  0  0  0
 57 58  2  0  0  0
 57125  1  0  0  0
 58126  1  0  0  0
 59 60  1  0  0  0
 59 61  1  0  0  0
 59 62  1  0  0  0
 60127  1  0  0  0
 60128  1  0  0  0
 60129  1  0  0  0
 61130  1  0  0  0
 61131  1  0  0  0
 61132  1  0  0  0
 62133  1  0  0  0
 62134  1  0  0  0
 62135  1  0  0  0
 63 65  1  0  0  0
 63136  1  0  0  0
 63137  1  0  0  0
 63138  1  0  0  0
 64139  1  0  0  0
 65140  1  0  0  0
 68 80  1  0  0  0
 71 73  2  0  0  0
 71 76  1  0  0  0
 71141  1  0  0  0
 72 74  2  0  0  0
 72 75  1  0  0  0
 72142  1  0  0  0
 73 74  1  0  0  0
 73 77  1  0  0  0
 74 79  1  0  0  0
 75 76  2  0  0  0
 75 80  1  0  0  0
 76 81  1  0  0  0
 77 78  2  0  0  0
 77143  1  0  0  0
 78144  1  0  0  0
 79145  1  0  0  0
 79146  1  0  0  0
 79147  1  0  0  0
 80148  1  0  0  0
 80149  1  0  0  0
M  ISO  4   1 100  68 101  78 100  80 101
M  END
> <chiral flag>
0

> <version>
0

> <s_m_source_file>
/data/baiqing/PycharmProjects/Reinvent-master-3.2/result/LINK_invent/BTK/process_docking_weight1_custom_product_contain_oxygen_bond_distance_aromatic_linkinvent_7_9_3/rearranged_h_0126.sdf

> <i_m_source_file_index>
16

> <r_mmod_Potential_Energy-OPLS-2005>
1090.64868164062

> <r_mmod_Stretch_Energy-OPLS-2005>
450.223876953125

> <r_mmod_Bend_Energy-OPLS-2005>
391.208160400391

> <r_mmod_Torsional_Energy-OPLS-2005>
225.187271118164

> <r_mmod_Improper_Torsional_Energy-OPLS-2005>
7.97681856155396

> <r_mmod_Van_der_Waal_Energy-OPLS-2005>
132.384124755859

> <r_mmod_Electrostatic_Energy-OPLS-2005>
-319.419555664062

> <r_mmod_Solvation_Energy-OPLS-2005>
-193.549621582031

> <b_mmod_Minimization_Converged-OPLS-2005>
0

> <r_mmod_RMS_Derivative-OPLS-2005>
0.810854434967041

$$$$
16
                    3D
 Structure written by MMmdl.
150158  0  0  1  0            999 V2000
  -30.5830  -14.7493   20.5077 C   0  0  0  0  0  0
  -30.4562  -12.4589   19.4945 C   0  0  0  0  0  0
  -29.5299  -12.5066   18.2566 C   0  0  0  0  0  0
  -28.0528  -12.3371   18.6639 C   0  0  0  0  0  0
  -27.6596  -13.2222   19.8769 C   0  0  2  0  0  0
  -28.7025  -13.0960   21.0066 C   0  0  0  0  0  0
  -25.2628  -13.8193   20.5750 C   0  0  0  0  0  0
  -24.1874  -13.0422   20.9205 C   0  0  0  0  0  0
  -24.6459  -11.6908   20.8782 C   0  0  0  0  0  0
  -23.9127  -10.4280   21.0468 C   0  0  0  0  0  0
  -24.3665   -9.4175   21.9236 C   0  0  0  0  0  0
  -23.6310   -8.2220   22.0789 C   0  0  0  0  0  0
  -22.4304   -8.0293   21.3563 C   0  0  0  0  0  0
  -21.9964   -9.0268   20.4660 C   0  0  0  0  0  0
  -22.7323  -10.2132   20.3080 C   0  0  0  0  0  0
  -21.6841   -6.0772   22.5277 C   0  0  0  0  0  0
  -21.4017   -6.5668   23.8219 C   0  0  0  0  0  0
  -21.3653   -5.6829   24.9171 C   0  0  0  0  0  0
  -21.6024   -4.3085   24.7227 C   0  0  0  0  0  0
  -21.8830   -3.8180   23.4352 C   0  0  0  0  0  0
  -21.9195   -4.6996   22.3414 C   0  0  0  0  0  0
  -22.7894  -13.5203   21.1853 C   0  0  0  0  0  0
  -22.1658   -4.2182   21.0991 F   0  0  0  0  0  0
  -21.5611   -3.4561   25.7737 F   0  0  0  0  0  0
  -29.9982  -13.4995   20.4500 N   0  0  0  0  0  0
  -26.3051  -12.9362   20.3403 N   0  0  0  0  0  0
  -25.9403  -11.6512   20.5842 N   0  0  0  0  0  0
  -22.0535  -12.8137   22.0372 N   0  0  0  0  0  0
  -25.4366  -15.1899   20.4183 N   0  0  0  0  0  0
  -31.7380  -14.8758   20.0865 O   0  0  0  0  0  0
  -21.6632   -6.8920   21.4257 O   0  0  0  0  0  0
  -22.3544  -14.5503   20.6719 O   0  0  0  0  0  0
  -24.6348  -31.8521   23.2004 C   0  0  0  0  0  0
  -25.9130  -32.4732   23.8377 C   0  0  1  0  0  0
  -27.1956  -27.1942   20.1428 C   0  0  0  0  0  0
  -25.5922  -33.8546   24.2297 N   0  0  0  0  0  0
  -23.4371  -30.4767   21.5416 C   0  0  2  0  0  0
  -24.8883  -28.9334   20.1032 C   0  0  0  0  0  0
  -22.7534  -29.4560   22.4833 C   0  0  0  0  0  0
  -18.0282  -28.1396   22.8522 C   0  0  0  0  0  0
  -24.1481  -36.7250   23.2648 C   0  0  0  0  0  0
  -25.9940  -30.7393   21.4068 C   0  0  0  0  0  0
  -26.0595  -29.3607   20.7427 C   0  0  0  0  0  0
  -27.2134  -28.4989   20.7617 C   0  0  0  0  0  0
  -26.0219  -26.8888   19.4164 C   0  0  0  0  0  0
  -24.8835  -27.7123   19.4190 C   0  0  0  0  0  0
  -23.6616  -29.8239   20.1543 C   0  0  0  0  0  0
  -25.4105  -36.3067   24.0334 C   0  0  1  0  0  0
  -20.5910  -28.3725   23.1274 C   0  0  2  0  0  0
  -20.6785  -26.9422   22.5451 C   0  0  0  0  0  0
  -19.5723  -26.6400   21.5282 C   0  0  0  0  0  0
  -18.1895  -26.7935   22.1676 C   0  0  0  0  0  0
  -19.1552  -28.8870   23.2895 C   0  0  0  0  0  0
  -18.9464  -30.1484   23.8890 C   0  0  0  0  0  0
  -17.6453  -30.6600   24.0596 C   0  0  0  0  0  0
  -25.9047  -34.9426   23.5126 C   0  0  0  0  0  0
  -16.5337  -29.9095   23.6357 C   0  0  0  0  0  0
  -16.7260  -28.6512   23.0371 C   0  0  0  0  0  0
  -26.4509  -31.6543   25.0758 C   0  0  0  0  0  0
  -25.3734  -31.3667   26.1480 C   0  0  0  0  0  0
  -27.0443  -30.2954   24.6332 C   0  0  0  0  0  0
  -27.6043  -32.4329   25.7499 C   0  0  0  0  0  0
  -27.5560  -37.1770   24.8456 C   0  0  0  0  0  0
  -21.4227  -29.3048   22.3609 N   0  0  0  0  0  0
  -26.4273  -37.3771   23.9423 N   0  0  0  0  0  0
  -24.7073  -31.0408   22.1030 N   0  0  0  0  0  0
  -23.4190  -28.8076   23.2941 O   0  0  0  0  0  0
  -28.2270  -26.2144   20.2777 O   0  0  0  0  0  0
  -26.5640  -34.8890   22.4707 O   0  0  0  0  0  0
  -23.5482  -32.1410   23.7215 O   0  0  0  0  0  0
  -28.7618  -18.9457   22.1992 C   0  0  0  0  0  0
  -28.4645  -20.3529   22.1471 C   0  0  0  0  0  0
  -29.3614  -18.5661   21.0258 C   0  0  0  0  0  0
  -28.7777  -20.8297   20.9006 C   0  0  0  0  0  0
  -29.9454  -17.2603   20.5774 C   0  0  0  0  0  0
  -28.5947  -22.1698   20.2513 C   0  0  0  0  0  0
  -29.7734  -15.9382   20.9848 C   0  0  0  0  0  0
  -28.4252  -23.4858   20.6896 C   0  0  0  0  0  0
  -28.5728  -24.6895   18.3854 C   0  0  0  0  0  0
  -28.0227  -24.7731   19.8183 C   0  0  2  0  0  0
  -29.3457  -19.7253   20.2078 O   0  0  0  0  0  0
  -31.4948  -12.5949   19.1913 H   0  0  0  0  0  0
  -30.4257  -11.4771   19.9684 H   0  0  0  0  0  0
  -29.8099  -11.7271   17.5471 H   0  0  0  0  0  0
  -29.6619  -13.4583   17.7385 H   0  0  0  0  0  0
  -27.9050  -11.2849   18.9175 H   0  0  0  0  0  0
  -27.4001  -12.5470   17.8165 H   0  0  0  0  0  0
  -27.6766  -14.2550   19.5309 H   0  0  0  0  0  0
  -28.7561  -12.0637   21.3558 H   0  0  0  0  0  0
  -28.4405  -13.6794   21.8854 H   0  0  0  0  0  0
  -25.2813   -9.5601   22.4814 H   0  0  0  0  0  0
  -23.9997   -7.4607   22.7511 H   0  0  0  0  0  0
  -21.0912   -8.8824   19.8933 H   0  0  0  0  0  0
  -22.3848  -10.9693   19.6178 H   0  0  0  0  0  0
  -21.2025   -7.6186   23.9718 H   0  0  0  0  0  0
  -21.1442   -6.0564   25.9071 H   0  0  0  0  0  0
  -22.0619   -2.7639   23.2851 H   0  0  0  0  0  0
  -22.4164  -11.9760   22.4688 H   0  0  0  0  0  0
  -21.1152  -13.1120   22.2619 H   0  0  0  0  0  0
  -24.6887  -15.8637   20.5499 H   0  0  0  0  0  0
  -26.2995  -15.6155   20.1013 H   0  0  0  0  0  0
  -26.7161  -32.5372   23.1087 H   0  0  0  0  0  0
  -25.0047  -33.9736   25.0433 H   0  0  0  0  0  0
  -22.7390  -31.3037   21.3967 H   0  0  0  0  0  0
  -23.3780  -35.9533   23.3274 H   0  0  0  0  0  0
  -24.3557  -36.8941   22.2068 H   0  0  0  0  0  0
  -23.7179  -37.6405   23.6705 H   0  0  0  0  0  0
  -26.1659  -31.4991   20.6428 H   0  0  0  0  0  0
  -26.8593  -30.7716   22.0589 H   0  0  0  0  0  0
  -28.0985  -28.8004   21.3055 H   0  0  0  0  0  0
  -25.9357  -25.9879   18.8338 H   0  0  0  0  0  0
  -24.0061  -27.4058   18.8692 H   0  0  0  0  0  0
  -23.7894  -30.6116   19.4107 H   0  0  0  0  0  0
  -22.7818  -29.2603   19.8373 H   0  0  0  0  0  0
  -25.1269  -36.1928   25.0821 H   0  0  0  0  0  0
  -21.0037  -28.3353   24.1391 H   0  0  0  0  0  0
  -20.5798  -26.2318   23.3664 H   0  0  0  0  0  0
  -21.6623  -26.7484   22.1170 H   0  0  0  0  0  0
  -19.6904  -25.6349   21.1231 H   0  0  0  0  0  0
  -19.6644  -27.3286   20.6864 H   0  0  0  0  0  0
  -17.4198  -26.6769   21.4033 H   0  0  0  0  0  0
  -18.0224  -26.0055   22.9043 H   0  0  0  0  0  0
  -19.7923  -30.7338   24.2226 H   0  0  0  0  0  0
  -17.4980  -31.6253   24.5256 H   0  0  0  0  0  0
  -15.5334  -30.2997   23.7665 H   0  0  0  0  0  0
  -15.8666  -28.0840   22.7076 H   0  0  0  0  0  0
  -24.5904  -30.7031   25.7768 H   0  0  0  0  0  0
  -24.8941  -32.2840   26.4896 H   0  0  0  0  0  0
  -25.8065  -30.8822   27.0249 H   0  0  0  0  0  0
  -26.3114  -29.6590   24.1360 H   0  0  0  0  0  0
  -27.4125  -29.7275   25.4878 H   0  0  0  0  0  0
  -27.8955  -30.4196   23.9644 H   0  0  0  0  0  0
  -27.2635  -33.3676   26.1956 H   0  0  0  0  0  0
  -28.3862  -32.6826   25.0310 H   0  0  0  0  0  0
  -28.0685  -31.8549   26.5509 H   0  0  0  0  0  0
  -28.2536  -38.0119   24.7569 H   0  0  0  0  0  0
  -28.1138  -36.2642   24.6234 H   0  0  0  0  0  0
  -27.2280  -37.1329   25.8867 H   0  0  0  0  0  0
  -20.9404  -29.8755   21.6807 H   0  0  0  0  0  0
  -26.0155  -38.2828   24.1516 H   0  0  0  0  0  0
  -28.5885  -18.2889   23.0430 H   0  0  0  0  0  0
  -28.0123  -20.9349   22.9385 H   0  0  0  0  0  0
  -30.7013  -17.4023   19.8165 H   0  0  0  0  0  0
  -28.4879  -22.0419   19.1834 H   0  0  0  0  0  0
  -29.0152  -15.7576   21.7336 H   0  0  0  0  0  0
  -28.5103  -23.6654   21.7521 H   0  0  0  0  0  0
  -28.3595  -23.7354   17.9103 H   0  0  0  0  0  0
  -29.6529  -24.8417   18.3764 H   0  0  0  0  0  0
  -28.1260  -25.4460   17.7430 H   0  0  0  0  0  0
  -26.9561  -24.5659   19.7905 H   0  0  0  0  0  0
  1 25  1  0  0  0
  1 30  2  0  0  0
  1 77  1  0  0  0
  2  3  1  0  0  0
  2 25  1  0  0  0
  2 82  1  0  0  0
  2 83  1  0  0  0
  3  4  1  0  0  0
  3 84  1  0  0  0
  3 85  1  0  0  0
  4  5  1  0  0  0
  4 86  1  0  0  0
  4 87  1  0  0  0
  5  6  1  0  0  0
  5 26  1  0  0  0
  5 88  1  0  0  0
  6 25  1  0  0  0
  6 89  1  0  0  0
  6 90  1  0  0  0
  7  8  2  0  0  0
  7 26  1  0  0  0
  7 29  1  0  0  0
  8  9  1  0  0  0
  8 22  1  0  0  0
  9 10  1  0  0  0
  9 27  2  0  0  0
 10 11  2  0  0  0
 10 15  1  0  0  0
 11 12  1  0  0  0
 11 91  1  0  0  0
 12 13  2  0  0  0
 12 92  1  0  0  0
 13 14  1  0  0  0
 13 31  1  0  0  0
 14 15  2  0  0  0
 14 93  1  0  0  0
 15 94  1  0  0  0
 16 17  2  0  0  0
 16 21  1  0  0  0
 16 31  1  0  0  0
 17 18  1  0  0  0
 17 95  1  0  0  0
 18 19  2  0  0  0
 18 96  1  0  0  0
 19 20  1  0  0  0
 19 24  1  0  0  0
 20 21  2  0  0  0
 20 97  1  0  0  0
 21 23  1  0  0  0
 22 28  1  0  0  0
 22 32  2  0  0  0
 26 27  1  0  0  0
 28 98  1  0  0  0
 28 99  1  0  0  0
 29100  1  0  0  0
 29101  1  0  0  0
 33 34  1  0  0  0
 33 66  1  0  0  0
 33 70  2  0  0  0
 34 36  1  0  0  0
 34 59  1  0  0  0
 34102  1  0  0  0
 35 44  2  0  0  0
 35 45  1  0  0  0
 35 68  1  0  0  0
 36 56  1  0  0  0
 36103  1  0  0  0
 37 39  1  0  0  0
 37 47  1  0  0  0
 37 66  1  0  0  0
 37104  1  0  0  0
 38 43  2  0  0  0
 38 46  1  0  0  0
 38 47  1  0  0  0
 39 64  1  0  0  0
 39 67  2  0  0  0
 40 52  1  0  0  0
 40 53  2  0  0  0
 40 58  1  0  0  0
 41105  1  0  0  0
 41106  1  0  0  0
 41107  1  0  0  0
 41 48  1  0  0  0
 42 43  1  0  0  0
 42 66  1  0  0  0
 42108  1  0  0  0
 42109  1  0  0  0
 43 44  1  0  0  0
 44110  1  0  0  0
 45 46  2  0  0  0
 45111  1  0  0  0
 46112  1  0  0  0
 47113  1  0  0  0
 47114  1  0  0  0
 48 56  1  0  0  0
 48 65  1  0  0  0
 48115  1  0  0  0
 49 50  1  0  0  0
 49 53  1  0  0  0
 49 64  1  0  0  0
 49116  1  0  0  0
 50 51  1  0  0  0
 50117  1  0  0  0
 50118  1  0  0  0
 51 52  1  0  0  0
 51119  1  0  0  0
 51120  1  0  0  0
 52121  1  0  0  0
 52122  1  0  0  0
 53 54  1  0  0  0
 54 55  2  0  0  0
 54123  1  0  0  0
 55 57  1  0  0  0
 55124  1  0  0  0
 56 69  2  0  0  0
 57 58  2  0  0  0
 57125  1  0  0  0
 58126  1  0  0  0
 59 60  1  0  0  0
 59 61  1  0  0  0
 59 62  1  0  0  0
 60127  1  0  0  0
 60128  1  0  0  0
 60129  1  0  0  0
 61130  1  0  0  0
 61131  1  0  0  0
 61132  1  0  0  0
 62133  1  0  0  0
 62134  1  0  0  0
 62135  1  0  0  0
 63 65  1  0  0  0
 63136  1  0  0  0
 63137  1  0  0  0
 63138  1  0  0  0
 64139  1  0  0  0
 65140  1  0  0  0
 68 80  1  0  0  0
 71 72  1  0  0  0
 71 73  2  0  0  0
 71141  1  0  0  0
 72 74  2  0  0  0
 72142  1  0  0  0
 73 75  1  0  0  0
 73 81  1  0  0  0
 74 76  1  0  0  0
 74 81  1  0  0  0
 75 77  2  0  0  0
 75143  1  0  0  0
 76 78  2  0  0  0
 76144  1  0  0  0
 77145  1  0  0  0
 78 80  1  0  0  0
 78146  1  0  0  0
 79147  1  0  0  0
 79148  1  0  0  0
 79149  1  0  0  0
 79 80  1  0  0  0
 80150  1  0  0  0
M  ISO  4   1 100  68 101  77 100  80 101
M  END
> <chiral flag>
0

> <version>
0

> <s_m_source_file>
/data/baiqing/PycharmProjects/Reinvent-master-3.2/result/LINK_invent/BTK/process_docking_weight1_custom_product_contain_oxygen_bond_distance_aromatic_linkinvent_7_9_3/rearranged_h_0126.sdf

> <i_m_source_file_index>
17

> <r_mmod_Potential_Energy-OPLS-2005>
179.685012817383

> <r_mmod_Stretch_Energy-OPLS-2005>
132.661819458008

> <r_mmod_Bend_Energy-OPLS-2005>
169.391006469727

> <r_mmod_Torsional_Energy-OPLS-2005>
190.595520019531

> <r_mmod_Improper_Torsional_Energy-OPLS-2005>
4.50768375396729

> <r_mmod_Van_der_Waal_Energy-OPLS-2005>
129.285537719727

> <r_mmod_Electrostatic_Energy-OPLS-2005>
-365.34814453125

> <r_mmod_Solvation_Energy-OPLS-2005>
-195.818756103516

> <b_mmod_Minimization_Converged-OPLS-2005>
0

> <r_mmod_RMS_Derivative-OPLS-2005>
5.43901300430298

$$$$
17
                    3D
 Structure written by MMmdl.
156164  0  0  1  0            999 V2000
  -30.7798  -14.5185   20.4753 C   0  0  0  0  0  0
  -30.3845  -12.3101   19.4730 C   0  0  0  0  0  0
  -29.4944  -12.4785   18.2276 C   0  0  0  0  0  0
  -28.0157  -12.3475   18.6314 C   0  0  0  0  0  0
  -27.6454  -13.2360   19.8511 C   0  0  2  0  0  0
  -28.6875  -13.1446   20.9883 C   0  0  0  0  0  0
  -25.2516  -13.8227   20.5697 C   0  0  0  0  0  0
  -24.1807  -13.0459   20.9196 C   0  0  0  0  0  0
  -24.6401  -11.6939   20.8737 C   0  0  0  0  0  0
  -23.9078  -10.4308   21.0402 C   0  0  0  0  0  0
  -24.3629   -9.4221   21.9183 C   0  0  0  0  0  0
  -23.6300   -8.2256   22.0757 C   0  0  0  0  0  0
  -22.4279   -8.0293   21.3550 C   0  0  0  0  0  0
  -21.9914   -9.0266   20.4649 C   0  0  0  0  0  0
  -22.7247  -10.2144   20.3052 C   0  0  0  0  0  0
  -21.6854   -6.0739   22.5278 C   0  0  0  0  0  0
  -21.4021   -6.5644   23.8213 C   0  0  0  0  0  0
  -21.3662   -5.6795   24.9175 C   0  0  0  0  0  0
  -21.6041   -4.3055   24.7226 C   0  0  0  0  0  0
  -21.8817   -3.8150   23.4346 C   0  0  0  0  0  0
  -21.9193   -4.6967   22.3403 C   0  0  0  0  0  0
  -22.7824  -13.5232   21.1851 C   0  0  0  0  0  0
  -22.1658   -4.2152   21.0980 F   0  0  0  0  0  0
  -21.5627   -3.4541   25.7741 F   0  0  0  0  0  0
  -30.0170  -13.3854   20.4187 N   0  0  0  0  0  0
  -26.2956  -12.9454   20.3290 N   0  0  0  0  0  0
  -25.9334  -11.6584   20.5748 N   0  0  0  0  0  0
  -22.0468  -12.8229   22.0412 N   0  0  0  0  0  0
  -25.4205  -15.1949   20.4136 N   0  0  0  0  0  0
  -31.9650  -14.4423   20.1495 O   0  0  0  0  0  0
  -21.6646   -6.8885   21.4242 O   0  0  0  0  0  0
  -22.3501  -14.5536   20.6692 O   0  0  0  0  0  0
  -24.6194  -31.8676   23.2136 C   0  0  0  0  0  0
  -25.9077  -32.4818   23.8420 C   0  0  1  0  0  0
  -27.2027  -27.3770   20.0923 C   0  0  0  0  0  0
  -25.5928  -33.8618   24.2340 N   0  0  0  0  0  0
  -23.4076  -30.4989   21.5555 C   0  0  2  0  0  0
  -24.8474  -28.9760   20.1088 C   0  0  0  0  0  0
  -22.7437  -29.4663   22.4967 C   0  0  0  0  0  0
  -18.0278  -28.1372   22.8488 C   0  0  0  0  0  0
  -24.1491  -36.7315   23.2636 C   0  0  0  0  0  0
  -25.9472  -30.8123   21.3823 C   0  0  0  0  0  0
  -26.0149  -29.4478   20.7211 C   0  0  0  0  0  0
  -27.1938  -28.6538   20.7182 C   0  0  0  0  0  0
  -26.0189  -26.9724   19.4233 C   0  0  0  0  0  0
  -24.8480  -27.7399   19.4553 C   0  0  0  0  0  0
  -23.6163  -29.8500   20.1650 C   0  0  0  0  0  0
  -25.4110  -36.3110   24.0337 C   0  0  1  0  0  0
  -20.5875  -28.3669   23.1296 C   0  0  2  0  0  0
  -20.6769  -26.9401   22.5406 C   0  0  0  0  0  0
  -19.5748  -26.6380   21.5204 C   0  0  0  0  0  0
  -18.1926  -26.7917   22.1618 C   0  0  0  0  0  0
  -19.1529  -28.8836   23.2890 C   0  0  0  0  0  0
  -18.9455  -30.1439   23.8905 C   0  0  0  0  0  0
  -17.6456  -30.6579   24.0560 C   0  0  0  0  0  0
  -25.9041  -34.9472   23.5131 C   0  0  0  0  0  0
  -16.5347  -29.9079   23.6324 C   0  0  0  0  0  0
  -16.7266  -28.6494   23.0349 C   0  0  0  0  0  0
  -26.4489  -31.6600   25.0757 C   0  0  0  0  0  0
  -25.3744  -31.3721   26.1500 C   0  0  0  0  0  0
  -27.0317  -30.3028   24.6172 C   0  0  0  0  0  0
  -27.6057  -32.4325   25.7518 C   0  0  0  0  0  0
  -27.5584  -37.1813   24.8462 C   0  0  0  0  0  0
  -21.4159  -29.3041   22.3706 N   0  0  0  0  0  0
  -26.4297  -37.3792   23.9407 N   0  0  0  0  0  0
  -24.6764  -31.0744   22.1070 N   0  0  0  0  0  0
  -23.4196  -28.8173   23.2994 O   0  0  0  0  0  0
  -28.3199  -26.5447   20.1612 O   0  0  0  0  0  0
  -26.5593  -34.8921   22.4688 O   0  0  0  0  0  0
  -23.5375  -32.1455   23.7499 O   0  0  0  0  0  0
  -32.0362  -19.0537   19.8866 C   0  0  0  0  0  0
  -31.0809  -21.2583   20.1166 C   0  0  0  0  0  0
  -29.7718  -19.2758   20.7374 C   0  0  0  0  0  0
  -32.1685  -20.4459   19.7579 C   0  0  0  0  0  0
  -30.8592  -18.4301   20.3719 C   0  0  0  0  0  0
  -29.8765  -20.6971   20.5932 C   0  0  0  0  0  0
  -33.6876  -22.2865   18.9586 C   0  0  0  0  0  0
  -33.4320  -20.9965   19.2357 C   0  0  0  0  0  0
  -30.9535  -16.9339   20.3937 C   0  0  0  0  0  0
  -30.1639  -15.8548   20.6949 C   0  0  0  0  0  0
  -28.8509  -24.0540   20.4991 C   0  0  0  0  0  0
  -28.1253  -25.1687   19.7102 C   0  0  0  0  0  0
  -28.5414  -22.6136   19.9987 C   0  0  0  0  0  0
  -29.6014  -24.2867   21.4538 O   0  0  0  0  0  0
  -28.8353  -21.5448   20.9329 O   0  0  0  0  0  0
  -31.4367  -12.3153   19.1849 H   0  0  0  0  0  0
  -30.2188  -11.3341   19.9316 H   0  0  0  0  0  0
  -29.7467  -11.7277   17.4777 H   0  0  0  0  0  0
  -29.6744  -13.4497   17.7647 H   0  0  0  0  0  0
  -27.8359  -11.2984   18.8687 H   0  0  0  0  0  0
  -27.3697  -12.5795   17.7839 H   0  0  0  0  0  0
  -27.6551  -14.2646   19.4897 H   0  0  0  0  0  0
  -28.6610  -12.1602   21.4584 H   0  0  0  0  0  0
  -28.4627  -13.8626   21.7774 H   0  0  0  0  0  0
  -25.2776   -9.5703   22.4753 H   0  0  0  0  0  0
  -24.0015   -7.4648   22.7475 H   0  0  0  0  0  0
  -21.0846   -8.8783   19.8954 H   0  0  0  0  0  0
  -22.3705  -10.9682   19.6158 H   0  0  0  0  0  0
  -21.2019   -7.6152   23.9719 H   0  0  0  0  0  0
  -21.1482   -6.0525   25.9078 H   0  0  0  0  0  0
  -22.0593   -2.7611   23.2843 H   0  0  0  0  0  0
  -22.4086  -11.9909   22.4831 H   0  0  0  0  0  0
  -21.1080  -13.1250   22.2600 H   0  0  0  0  0  0
  -24.6561  -15.8512   20.5321 H   0  0  0  0  0  0
  -26.2783  -15.6390   20.1100 H   0  0  0  0  0  0
  -26.7141  -32.5502   23.1167 H   0  0  0  0  0  0
  -25.0091  -33.9783   25.0496 H   0  0  0  0  0  0
  -22.6978  -31.3184   21.4247 H   0  0  0  0  0  0
  -23.3749  -35.9653   23.3304 H   0  0  0  0  0  0
  -24.3589  -36.8924   22.2050 H   0  0  0  0  0  0
  -23.7249  -37.6525   23.6646 H   0  0  0  0  0  0
  -26.0788  -31.5804   20.6189 H   0  0  0  0  0  0
  -26.8290  -30.8528   22.0098 H   0  0  0  0  0  0
  -28.0857  -29.0047   21.2185 H   0  0  0  0  0  0
  -25.9432  -26.0627   18.8495 H   0  0  0  0  0  0
  -23.9591  -27.3837   18.9527 H   0  0  0  0  0  0
  -23.7327  -30.6342   19.4160 H   0  0  0  0  0  0
  -22.7363  -29.2807   19.8599 H   0  0  0  0  0  0
  -25.1285  -36.1979   25.0829 H   0  0  0  0  0  0
  -20.9967  -28.3233   24.1415 H   0  0  0  0  0  0
  -20.5670  -26.2274   23.3594 H   0  0  0  0  0  0
  -21.6639  -26.7437   22.1199 H   0  0  0  0  0  0
  -19.6910  -25.6292   21.1227 H   0  0  0  0  0  0
  -19.6687  -27.3193   20.6736 H   0  0  0  0  0  0
  -17.4195  -26.6662   21.4021 H   0  0  0  0  0  0
  -18.0333  -26.0054   22.9011 H   0  0  0  0  0  0
  -19.7932  -30.7250   24.2279 H   0  0  0  0  0  0
  -17.5013  -31.6260   24.5160 H   0  0  0  0  0  0
  -15.5348  -30.2984   23.7644 H   0  0  0  0  0  0
  -15.8665  -28.0813   22.7064 H   0  0  0  0  0  0
  -24.5910  -30.7075   25.7843 H   0  0  0  0  0  0
  -24.8946  -32.2881   26.4956 H   0  0  0  0  0  0
  -25.8091  -30.8884   27.0257 H   0  0  0  0  0  0
  -26.2874  -29.6796   24.1201 H   0  0  0  0  0  0
  -27.4033  -29.7264   25.4656 H   0  0  0  0  0  0
  -27.8746  -30.4326   23.9377 H   0  0  0  0  0  0
  -27.2668  -33.3610   26.2129 H   0  0  0  0  0  0
  -28.3849  -32.6912   25.0336 H   0  0  0  0  0  0
  -28.0749  -31.8433   26.5410 H   0  0  0  0  0  0
  -28.2601  -38.0110   24.7509 H   0  0  0  0  0  0
  -28.1081  -36.2641   24.6285 H   0  0  0  0  0  0
  -27.2304  -37.1463   25.8865 H   0  0  0  0  0  0
  -20.9312  -29.8798   21.6964 H   0  0  0  0  0  0
  -26.0187  -38.2874   24.1399 H   0  0  0  0  0  0
  -32.8857  -18.4531   19.5915 H   0  0  0  0  0  0
  -31.1740  -22.3301   20.0402 H   0  0  0  0  0  0
  -28.8552  -18.8390   21.1077 H   0  0  0  0  0  0
  -34.6561  -22.5815   18.5805 H   0  0  0  0  0  0
  -32.9588  -23.0710   19.0941 H   0  0  0  0  0  0
  -34.2275  -20.2834   19.0653 H   0  0  0  0  0  0
  -31.9434  -16.6728   20.0541 H   0  0  0  0  0  0
  -29.1518  -15.9706   21.0505 H   0  0  0  0  0  0
  -27.0938  -24.8496   19.8312 H   0  0  0  0  0  0
  -28.3753  -25.0897   18.6522 H   0  0  0  0  0  0
  -29.0434  -22.4575   19.0429 H   0  0  0  0  0  0
  -27.4753  -22.5618   19.7779 H   0  0  0  0  0  0
  1 25  1  0  0  0
  1 30  2  0  0  0
  1 80  1  0  0  0
  2  3  1  0  0  0
  2 25  1  0  0  0
  2 86  1  0  0  0
  2 87  1  0  0  0
  3  4  1  0  0  0
  3 88  1  0  0  0
  3 89  1  0  0  0
  4  5  1  0  0  0
  4 90  1  0  0  0
  4 91  1  0  0  0
  5  6  1  0  0  0
  5 26  1  0  0  0
  5 92  1  0  0  0
  6 25  1  0  0  0
  6 93  1  0  0  0
  6 94  1  0  0  0
  7  8  2  0  0  0
  7 26  1  0  0  0
  7 29  1  0  0  0
  8  9  1  0  0  0
  8 22  1  0  0  0
  9 10  1  0  0  0
  9 27  2  0  0  0
 10 11  2  0  0  0
 10 15  1  0  0  0
 11 12  1  0  0  0
 11 95  1  0  0  0
 12 13  2  0  0  0
 12 96  1  0  0  0
 13 14  1  0  0  0
 13 31  1  0  0  0
 14 15  2  0  0  0
 14 97  1  0  0  0
 15 98  1  0  0  0
 16 17  2  0  0  0
 16 21  1  0  0  0
 16 31  1  0  0  0
 17 18  1  0  0  0
 17 99  1  0  0  0
 18 19  2  0  0  0
 18100  1  0  0  0
 19 20  1  0  0  0
 19 24  1  0  0  0
 20 21  2  0  0  0
 20101  1  0  0  0
 21 23  1  0  0  0
 22 28  1  0  0  0
 22 32  2  0  0  0
 26 27  1  0  0  0
 28102  1  0  0  0
 28103  1  0  0  0
 29104  1  0  0  0
 29105  1  0  0  0
 33 34  1  0  0  0
 33 66  1  0  0  0
 33 70  2  0  0  0
 34 36  1  0  0  0
 34 59  1  0  0  0
 34106  1  0  0  0
 35 44  2  0  0  0
 35 45  1  0  0  0
 35 68  1  0  0  0
 36 56  1  0  0  0
 36107  1  0  0  0
 37 39  1  0  0  0
 37 47  1  0  0  0
 37 66  1  0  0  0
 37108  1  0  0  0
 38 43  2  0  0  0
 38 46  1  0  0  0
 38 47  1  0  0  0
 39 64  1  0  0  0
 39 67  2  0  0  0
 40 52  1  0  0  0
 40 53  2  0  0  0
 40 58  1  0  0  0
 41109  1  0  0  0
 41110  1  0  0  0
 41111  1  0  0  0
 41 48  1  0  0  0
 42 43  1  0  0  0
 42 66  1  0  0  0
 42112  1  0  0  0
 42113  1  0  0  0
 43 44  1  0  0  0
 44114  1  0  0  0
 45 46  2  0  0  0
 45115  1  0  0  0
 46116  1  0  0  0
 47117  1  0  0  0
 47118  1  0  0  0
 48 56  1  0  0  0
 48 65  1  0  0  0
 48119  1  0  0  0
 49 50  1  0  0  0
 49 53  1  0  0  0
 49 64  1  0  0  0
 49120  1  0  0  0
 50 51  1  0  0  0
 50121  1  0  0  0
 50122  1  0  0  0
 51 52  1  0  0  0
 51123  1  0  0  0
 51124  1  0  0  0
 52125  1  0  0  0
 52126  1  0  0  0
 53 54  1  0  0  0
 54 55  2  0  0  0
 54127  1  0  0  0
 55 57  1  0  0  0
 55128  1  0  0  0
 56 69  2  0  0  0
 57 58  2  0  0  0
 57129  1  0  0  0
 58130  1  0  0  0
 59 60  1  0  0  0
 59 61  1  0  0  0
 59 62  1  0  0  0
 60131  1  0  0  0
 60132  1  0  0  0
 60133  1  0  0  0
 61134  1  0  0  0
 61135  1  0  0  0
 61136  1  0  0  0
 62137  1  0  0  0
 62138  1  0  0  0
 62139  1  0  0  0
 63 65  1  0  0  0
 63140  1  0  0  0
 63141  1  0  0  0
 63142  1  0  0  0
 64143  1  0  0  0
 65144  1  0  0  0
 68 82  1  0  0  0
 71 74  2  0  0  0
 71 75  1  0  0  0
 71145  1  0  0  0
 72 74  1  0  0  0
 72 76  2  0  0  0
 72146  1  0  0  0
 73 75  2  0  0  0
 73 76  1  0  0  0
 73147  1  0  0  0
 74 78  1  0  0  0
 75 79  1  0  0  0
 76 85  1  0  0  0
 77 78  2  0  0  0
 77148  1  0  0  0
 77149  1  0  0  0
 78150  1  0  0  0
 79 80  2  0  0  0
 79151  1  0  0  0
 80152  1  0  0  0
 81 82  1  0  0  0
 81 83  1  0  0  0
 81 84  2  0  0  0
 82153  1  0  0  0
 82154  1  0  0  0
 83 85  1  0  0  0
 83155  1  0  0  0
 83156  1  0  0  0
M  ISO  4   1 100  68 101  80 100  82 101
M  END
> <chiral flag>
0

> <version>
0

> <s_m_source_file>
/data/baiqing/PycharmProjects/Reinvent-master-3.2/result/LINK_invent/BTK/process_docking_weight1_custom_product_contain_oxygen_bond_distance_aromatic_linkinvent_7_9_3/rearranged_h_0126.sdf

> <i_m_source_file_index>
18

> <r_mmod_Potential_Energy-OPLS-2005>
124.037567138672

> <r_mmod_Stretch_Energy-OPLS-2005>
54.1409301757812

> <r_mmod_Bend_Energy-OPLS-2005>
163.089477539062

> <r_mmod_Torsional_Energy-OPLS-2005>
196.633712768555

> <r_mmod_Improper_Torsional_Energy-OPLS-2005>
4.67545366287231

> <r_mmod_Van_der_Waal_Energy-OPLS-2005>
183.384048461914

> <r_mmod_Electrostatic_Energy-OPLS-2005>
-292.26806640625

> <r_mmod_Solvation_Energy-OPLS-2005>
-229.297668457031

> <b_mmod_Minimization_Converged-OPLS-2005>
0

> <r_mmod_RMS_Derivative-OPLS-2005>
0.821783661842346

$$$$
18
                    3D
 Structure written by MMmdl.
156164  0  0  1  0            999 V2000
  -30.6343  -14.6067   20.4913 C   0  0  0  0  0  0
  -30.4465  -12.3861   19.4260 C   0  0  0  0  0  0
  -29.5025  -12.4887   18.2061 C   0  0  0  0  0  0
  -28.0239  -12.3390   18.6257 C   0  0  0  0  0  0
  -27.6523  -13.2146   19.8496 C   0  0  2  0  0  0
  -28.6973  -13.0675   20.9764 C   0  0  0  0  0  0
  -25.2578  -13.8223   20.5657 C   0  0  0  0  0  0
  -24.1820  -13.0479   20.9190 C   0  0  0  0  0  0
  -24.6391  -11.6954   20.8758 C   0  0  0  0  0  0
  -23.9046  -10.4326   21.0398 C   0  0  0  0  0  0
  -24.3610   -9.4252   21.9170 C   0  0  0  0  0  0
  -23.6293   -8.2294   22.0755 C   0  0  0  0  0  0
  -22.4285   -8.0302   21.3534 C   0  0  0  0  0  0
  -21.9907   -9.0285   20.4653 C   0  0  0  0  0  0
  -22.7225  -10.2162   20.3044 C   0  0  0  0  0  0
  -21.6865   -6.0752   22.5274 C   0  0  0  0  0  0
  -21.4032   -6.5644   23.8207 C   0  0  0  0  0  0
  -21.3632   -5.6774   24.9159 C   0  0  0  0  0  0
  -21.6044   -4.3050   24.7205 C   0  0  0  0  0  0
  -21.8816   -3.8155   23.4327 C   0  0  0  0  0  0
  -21.9206   -4.6987   22.3386 C   0  0  0  0  0  0
  -22.7844  -13.5316   21.1783 C   0  0  0  0  0  0
  -22.1664   -4.2156   21.0975 F   0  0  0  0  0  0
  -21.5598   -3.4534   25.7726 F   0  0  0  0  0  0
  -30.0103  -13.3963   20.4083 N   0  0  0  0  0  0
  -26.2970  -12.9374   20.3260 N   0  0  0  0  0  0
  -25.9308  -11.6541   20.5779 N   0  0  0  0  0  0
  -22.0381  -12.8369   22.0339 N   0  0  0  0  0  0
  -25.4365  -15.1922   20.4041 N   0  0  0  0  0  0
  -31.8372  -14.7243   20.2360 O   0  0  0  0  0  0
  -21.6649   -6.8900   21.4232 O   0  0  0  0  0  0
  -22.3555  -14.5592   20.6563 O   0  0  0  0  0  0
  -24.6176  -31.8621   23.2013 C   0  0  0  0  0  0
  -25.9071  -32.4761   23.8322 C   0  0  1  0  0  0
  -27.2216  -27.3882   20.1068 C   0  0  0  0  0  0
  -25.5938  -33.8564   24.2288 N   0  0  0  0  0  0
  -23.4053  -30.4822   21.5433 C   0  0  2  0  0  0
  -24.8460  -28.9418   20.1033 C   0  0  0  0  0  0
  -22.7435  -29.4625   22.4979 C   0  0  0  0  0  0
  -18.0278  -28.1335   22.8474 C   0  0  0  0  0  0
  -24.1495  -36.7315   23.2621 C   0  0  0  0  0  0
  -25.9348  -30.8112   21.3588 C   0  0  0  0  0  0
  -26.0044  -29.4411   20.7098 C   0  0  0  0  0  0
  -27.1911  -28.6701   20.7079 C   0  0  0  0  0  0
  -26.0463  -26.9175   19.4772 C   0  0  0  0  0  0
  -24.8657  -27.6854   19.4746 C   0  0  0  0  0  0
  -23.6056  -29.8046   20.1600 C   0  0  0  0  0  0
  -25.4104  -36.3091   24.0339 C   0  0  1  0  0  0
  -20.5865  -28.3656   23.1284 C   0  0  2  0  0  0
  -20.6747  -26.9397   22.5384 C   0  0  0  0  0  0
  -19.5729  -26.6362   21.5175 C   0  0  0  0  0  0
  -18.1916  -26.7886   22.1597 C   0  0  0  0  0  0
  -19.1524  -28.8814   23.2867 C   0  0  0  0  0  0
  -18.9459  -30.1414   23.8880 C   0  0  0  0  0  0
  -17.6459  -30.6555   24.0543 C   0  0  0  0  0  0
  -25.9046  -34.9450   23.5120 C   0  0  0  0  0  0
  -16.5353  -29.9050   23.6304 C   0  0  0  0  0  0
  -16.7266  -28.6456   23.0354 C   0  0  0  0  0  0
  -26.4496  -31.6531   25.0655 C   0  0  0  0  0  0
  -25.3790  -31.3679   26.1444 C   0  0  0  0  0  0
  -27.0301  -30.2951   24.6029 C   0  0  0  0  0  0
  -27.6069  -32.4253   25.7423 C   0  0  0  0  0  0
  -27.5615  -37.1771   24.8441 C   0  0  0  0  0  0
  -21.4159  -29.3041   22.3738 N   0  0  0  0  0  0
  -26.4285  -37.3792   23.9438 N   0  0  0  0  0  0
  -24.6712  -31.0696   22.0916 N   0  0  0  0  0  0
  -23.4202  -28.8176   23.3037 O   0  0  0  0  0  0
  -28.3927  -26.6516   20.1744 O   0  0  0  0  0  0
  -26.5609  -34.8927   22.4680 O   0  0  0  0  0  0
  -23.5367  -32.1397   23.7391 O   0  0  0  0  0  0
  -30.2171  -19.7836   19.3111 C   0  0  0  0  0  0
  -30.5979  -18.7235   18.4926 C   0  0  0  0  0  0
  -29.5014  -18.1813   20.9978 C   0  0  0  0  0  0
  -29.6114  -19.5479   20.5598 C   0  0  0  0  0  0
  -30.4660  -17.3872   18.9007 C   0  0  0  0  0  0
  -29.9702  -17.0714   20.2045 C   0  0  0  0  0  0
  -29.1331  -20.7551   21.3210 C   0  0  0  0  0  0
  -29.1362  -22.0353   20.8472 C   0  0  0  0  0  0
  -27.8422  -24.2308   20.6876 C   0  0  0  0  0  0
  -30.8120  -16.3696   17.8329 C   0  0  0  0  0  0
  -28.7746  -23.3486   21.5528 C   0  0  0  0  0  0
  -28.4537  -25.2785   19.7105 C   0  0  0  0  0  0
  -29.8188  -15.6904   20.6640 N   0  0  0  0  0  0
  -26.6264  -24.0207   20.7007 O   0  0  0  0  0  0
  -31.4782  -12.5333   19.0981 H   0  0  0  0  0  0
  -30.4121  -11.3876   19.8621 H   0  0  0  0  0  0
  -29.7613  -11.7207   17.4739 H   0  0  0  0  0  0
  -29.6444  -13.4476   17.7042 H   0  0  0  0  0  0
  -27.8568  -11.2891   18.8649 H   0  0  0  0  0  0
  -27.3602  -12.5723   17.7916 H   0  0  0  0  0  0
  -27.6762  -14.2454   19.4962 H   0  0  0  0  0  0
  -28.7001  -12.0502   21.3712 H   0  0  0  0  0  0
  -28.4560  -13.7184   21.8160 H   0  0  0  0  0  0
  -25.2736   -9.5792   22.4751 H   0  0  0  0  0  0
  -23.9991   -7.4732   22.7516 H   0  0  0  0  0  0
  -21.0811   -8.8842   19.9003 H   0  0  0  0  0  0
  -22.3658  -10.9715   19.6178 H   0  0  0  0  0  0
  -21.2026   -7.6147   23.9720 H   0  0  0  0  0  0
  -21.1433   -6.0498   25.9062 H   0  0  0  0  0  0
  -22.0618   -2.7622   23.2823 H   0  0  0  0  0  0
  -22.3890  -12.0052   22.4848 H   0  0  0  0  0  0
  -21.0993  -13.1517   22.2360 H   0  0  0  0  0  0
  -24.6816  -15.8617   20.5057 H   0  0  0  0  0  0
  -26.2864  -15.6158   20.0552 H   0  0  0  0  0  0
  -26.7135  -32.5447   23.1066 H   0  0  0  0  0  0
  -25.0127  -33.9697   25.0469 H   0  0  0  0  0  0
  -22.6959  -31.2996   21.4001 H   0  0  0  0  0  0
  -23.3780  -35.9616   23.3170 H   0  0  0  0  0  0
  -24.3634  -36.9040   22.2063 H   0  0  0  0  0  0
  -23.7200  -37.6471   23.6696 H   0  0  0  0  0  0
  -26.0547  -31.5695   20.5839 H   0  0  0  0  0  0
  -26.8223  -30.8603   21.9775 H   0  0  0  0  0  0
  -28.0882  -29.0407   21.1841 H   0  0  0  0  0  0
  -26.0105  -25.9550   18.9906 H   0  0  0  0  0  0
  -23.9821  -27.3033   18.9805 H   0  0  0  0  0  0
  -23.6904  -30.5624   19.3821 H   0  0  0  0  0  0
  -22.7333  -29.2069   19.8897 H   0  0  0  0  0  0
  -25.1250  -36.1938   25.0826 H   0  0  0  0  0  0
  -20.9944  -28.3209   24.1407 H   0  0  0  0  0  0
  -20.5588  -26.2306   23.3589 H   0  0  0  0  0  0
  -21.6630  -26.7389   22.1228 H   0  0  0  0  0  0
  -19.6898  -25.6272   21.1215 H   0  0  0  0  0  0
  -19.6630  -27.3158   20.6690 H   0  0  0  0  0  0
  -17.4186  -26.6634   21.3999 H   0  0  0  0  0  0
  -18.0325  -26.0003   22.8968 H   0  0  0  0  0  0
  -19.7946  -30.7217   24.2248 H   0  0  0  0  0  0
  -17.5031  -31.6229   24.5154 H   0  0  0  0  0  0
  -15.5353  -30.2960   23.7610 H   0  0  0  0  0  0
  -15.8675  -28.0762   22.7083 H   0  0  0  0  0  0
  -24.5865  -30.7129   25.7816 H   0  0  0  0  0  0
  -24.9108  -32.2862   26.4995 H   0  0  0  0  0  0
  -25.8158  -30.8757   27.0143 H   0  0  0  0  0  0
  -26.2793  -29.6683   24.1190 H   0  0  0  0  0  0
  -27.4184  -29.7212   25.4457 H   0  0  0  0  0  0
  -27.8603  -30.4230   23.9073 H   0  0  0  0  0  0
  -27.2670  -33.3557   26.1987 H   0  0  0  0  0  0
  -28.3884  -32.6794   25.0252 H   0  0  0  0  0  0
  -28.0722  -31.8381   26.5351 H   0  0  0  0  0  0
  -28.2528  -38.0172   24.7647 H   0  0  0  0  0  0
  -28.1218  -36.2718   24.6036 H   0  0  0  0  0  0
  -27.2386  -37.1162   25.8850 H   0  0  0  0  0  0
  -20.9345  -29.8861   21.7022 H   0  0  0  0  0  0
  -26.0171  -38.2865   24.1460 H   0  0  0  0  0  0
  -30.3939  -20.7758   18.9264 H   0  0  0  0  0  0
  -30.9785  -18.9553   17.5109 H   0  0  0  0  0  0
  -29.0494  -17.9875   21.9617 H   0  0  0  0  0  0
  -28.7855  -20.5692   22.3274 H   0  0  0  0  0  0
  -29.4445  -22.2439   19.8375 H   0  0  0  0  0  0
  -31.1193  -16.8679   16.9131 H   0  0  0  0  0  0
  -29.9414  -15.7662   17.5874 H   0  0  0  0  0  0
  -31.6554  -15.7385   18.0948 H   0  0  0  0  0  0
  -29.6981  -23.9030   21.7336 H   0  0  0  0  0  0
  -28.3264  -23.1595   22.5302 H   0  0  0  0  0  0
  -27.9663  -25.1836   18.7407 H   0  0  0  0  0  0
  -29.4992  -25.0138   19.5438 H   0  0  0  0  0  0
  -28.8998  -15.4519   21.0027 H   0  0  0  0  0  0
  1 25  1  0  0  0
  1 30  2  0  0  0
  1 83  1  0  0  0
  2  3  1  0  0  0
  2 25  1  0  0  0
  2 85  1  0  0  0
  2 86  1  0  0  0
  3  4  1  0  0  0
  3 87  1  0  0  0
  3 88  1  0  0  0
  4  5  1  0  0  0
  4 89  1  0  0  0
  4 90  1  0  0  0
  5  6  1  0  0  0
  5 26  1  0  0  0
  5 91  1  0  0  0
  6 25  1  0  0  0
  6 92  1  0  0  0
  6 93  1  0  0  0
  7  8  2  0  0  0
  7 26  1  0  0  0
  7 29  1  0  0  0
  8  9  1  0  0  0
  8 22  1  0  0  0
  9 10  1  0  0  0
  9 27  2  0  0  0
 10 11  2  0  0  0
 10 15  1  0  0  0
 11 12  1  0  0  0
 11 94  1  0  0  0
 12 13  2  0  0  0
 12 95  1  0  0  0
 13 14  1  0  0  0
 13 31  1  0  0  0
 14 15  2  0  0  0
 14 96  1  0  0  0
 15 97  1  0  0  0
 16 17  2  0  0  0
 16 21  1  0  0  0
 16 31  1  0  0  0
 17 18  1  0  0  0
 17 98  1  0  0  0
 18 19  2  0  0  0
 18 99  1  0  0  0
 19 20  1  0  0  0
 19 24  1  0  0  0
 20 21  2  0  0  0
 20100  1  0  0  0
 21 23  1  0  0  0
 22 28  1  0  0  0
 22 32  2  0  0  0
 26 27  1  0  0  0
 28101  1  0  0  0
 28102  1  0  0  0
 29103  1  0  0  0
 29104  1  0  0  0
 33 34  1  0  0  0
 33 66  1  0  0  0
 33 70  2  0  0  0
 34 36  1  0  0  0
 34 59  1  0  0  0
 34105  1  0  0  0
 35 44  2  0  0  0
 35 45  1  0  0  0
 35 68  1  0  0  0
 36 56  1  0  0  0
 36106  1  0  0  0
 37 39  1  0  0  0
 37 47  1  0  0  0
 37 66  1  0  0  0
 37107  1  0  0  0
 38 43  2  0  0  0
 38 46  1  0  0  0
 38 47  1  0  0  0
 39 64  1  0  0  0
 39 67  2  0  0  0
 40 52  1  0  0  0
 40 53  2  0  0  0
 40 58  1  0  0  0
 41108  1  0  0  0
 41109  1  0  0  0
 41110  1  0  0  0
 41 48  1  0  0  0
 42 43  1  0  0  0
 42 66  1  0  0  0
 42111  1  0  0  0
 42112  1  0  0  0
 43 44  1  0  0  0
 44113  1  0  0  0
 45 46  2  0  0  0
 45114  1  0  0  0
 46115  1  0  0  0
 47116  1  0  0  0
 47117  1  0  0  0
 48 56  1  0  0  0
 48 65  1  0  0  0
 48118  1  0  0  0
 49 50  1  0  0  0
 49 53  1  0  0  0
 49 64  1  0  0  0
 49119  1  0  0  0
 50 51  1  0  0  0
 50120  1  0  0  0
 50121  1  0  0  0
 51 52  1  0  0  0
 51122  1  0  0  0
 51123  1  0  0  0
 52124  1  0  0  0
 52125  1  0  0  0
 53 54  1  0  0  0
 54 55  2  0  0  0
 54126  1  0  0  0
 55 57  1  0  0  0
 55127  1  0  0  0
 56 69  2  0  0  0
 57 58  2  0  0  0
 57128  1  0  0  0
 58129  1  0  0  0
 59 60  1  0  0  0
 59 61  1  0  0  0
 59 62  1  0  0  0
 60130  1  0  0  0
 60131  1  0  0  0
 60132  1  0  0  0
 61133  1  0  0  0
 61134  1  0  0  0
 61135  1  0  0  0
 62136  1  0  0  0
 62137  1  0  0  0
 62138  1  0  0  0
 63 65  1  0  0  0
 63139  1  0  0  0
 63140  1  0  0  0
 63141  1  0  0  0
 64142  1  0  0  0
 65143  1  0  0  0
 68 82  1  0  0  0
 71 72  2  0  0  0
 71 74  1  0  0  0
 71144  1  0  0  0
 72 75  1  0  0  0
 72145  1  0  0  0
 73 74  2  0  0  0
 73 76  1  0  0  0
 73146  1  0  0  0
 74 77  1  0  0  0
 75 76  2  0  0  0
 75 80  1  0  0  0
 76 83  1  0  0  0
 77 78  2  0  0  0
 77147  1  0  0  0
 78 81  1  0  0  0
 78148  1  0  0  0
 79 81  1  0  0  0
 79 82  1  0  0  0
 79 84  2  0  0  0
 80149  1  0  0  0
 80150  1  0  0  0
 80151  1  0  0  0
 81152  1  0  0  0
 81153  1  0  0  0
 82154  1  0  0  0
 82155  1  0  0  0
 83156  1  0  0  0
M  ISO  4   1 100  68 101  82 101  83 100
M  END
> <chiral flag>
0

> <version>
0

> <s_m_source_file>
/data/baiqing/PycharmProjects/Reinvent-master-3.2/result/LINK_invent/BTK/process_docking_weight1_custom_product_contain_oxygen_bond_distance_aromatic_linkinvent_7_9_3/rearranged_h_0126.sdf

> <i_m_source_file_index>
19

> <r_mmod_Potential_Energy-OPLS-2005>
51.5753479003906

> <r_mmod_Stretch_Energy-OPLS-2005>
57.3368911743164

> <r_mmod_Bend_Energy-OPLS-2005>
125.646392822266

> <r_mmod_Torsional_Energy-OPLS-2005>
243.757507324219

> <r_mmod_Improper_Torsional_Energy-OPLS-2005>
6.55838346481323

> <r_mmod_Van_der_Waal_Energy-OPLS-2005>
156.673065185547

> <r_mmod_Electrostatic_Energy-OPLS-2005>
-352.252075195312

> <r_mmod_Solvation_Energy-OPLS-2005>
-222.193923950195

> <b_mmod_Minimization_Converged-OPLS-2005>
0

> <r_mmod_RMS_Derivative-OPLS-2005>
6.8261342048645

$$$$
19
                    3D
 Structure written by MMmdl.
153161  0  0  1  0            999 V2000
  -30.6292  -14.6630   20.4932 C   0  0  0  0  0  0
  -30.4434  -12.4069   19.4579 C   0  0  0  0  0  0
  -29.5130  -12.5084   18.2286 C   0  0  0  0  0  0
  -28.0364  -12.3389   18.6420 C   0  0  0  0  0  0
  -27.6520  -13.2171   19.8624 C   0  0  2  0  0  0
  -28.7008  -13.0920   20.9916 C   0  0  0  0  0  0
  -25.2455  -13.8039   20.5551 C   0  0  0  0  0  0
  -24.1788  -13.0342   20.9215 C   0  0  0  0  0  0
  -24.6406  -11.6841   20.8790 C   0  0  0  0  0  0
  -23.9070  -10.4244   21.0439 C   0  0  0  0  0  0
  -24.3613   -9.4158   21.9210 C   0  0  0  0  0  0
  -23.6278   -8.2204   22.0761 C   0  0  0  0  0  0
  -22.4260   -8.0261   21.3543 C   0  0  0  0  0  0
  -21.9900   -9.0239   20.4649 C   0  0  0  0  0  0
  -22.7243  -10.2114   20.3073 C   0  0  0  0  0  0
  -21.6842   -6.0727   22.5281 C   0  0  0  0  0  0
  -21.4015   -6.5638   23.8213 C   0  0  0  0  0  0
  -21.3652   -5.6786   24.9173 C   0  0  0  0  0  0
  -21.6041   -4.3046   24.7223 C   0  0  0  0  0  0
  -21.8821   -3.8137   23.4343 C   0  0  0  0  0  0
  -21.9188   -4.6957   22.3400 C   0  0  0  0  0  0
  -22.7816  -13.5164   21.1846 C   0  0  0  0  0  0
  -22.1656   -4.2145   21.0978 F   0  0  0  0  0  0
  -21.5615   -3.4531   25.7730 F   0  0  0  0  0  0
  -30.0144  -13.4373   20.4249 N   0  0  0  0  0  0
  -26.2974  -12.9302   20.3306 N   0  0  0  0  0  0
  -25.9347  -11.6462   20.5827 N   0  0  0  0  0  0
  -22.0439  -12.8198   22.0423 N   0  0  0  0  0  0
  -25.3915  -15.1686   20.3640 N   0  0  0  0  0  0
  -31.7987  -14.8071   20.1285 O   0  0  0  0  0  0
  -21.6619   -6.8863   21.4238 O   0  0  0  0  0  0
  -22.3526  -14.5472   20.6671 O   0  0  0  0  0  0
  -24.6250  -31.8615   23.2044 C   0  0  0  0  0  0
  -25.9103  -32.4788   23.8380 C   0  0  1  0  0  0
  -27.2303  -27.3370   20.1048 C   0  0  0  0  0  0
  -25.5923  -33.8585   24.2307 N   0  0  0  0  0  0
  -23.4187  -30.4854   21.5477 C   0  0  2  0  0  0
  -24.8655  -28.9462   20.1126 C   0  0  0  0  0  0
  -22.7475  -29.4616   22.4941 C   0  0  0  0  0  0
  -18.0293  -28.1381   22.8485 C   0  0  0  0  0  0
  -24.1490  -36.7297   23.2630 C   0  0  0  0  0  0
  -25.9597  -30.7972   21.3747 C   0  0  0  0  0  0
  -26.0349  -29.4269   20.7144 C   0  0  0  0  0  0
  -27.2201  -28.6340   20.7018 C   0  0  0  0  0  0
  -26.0311  -26.9046   19.4871 C   0  0  0  0  0  0
  -24.8641  -27.6886   19.4922 C   0  0  0  0  0  0
  -23.6336  -29.8246   20.1615 C   0  0  0  0  0  0
  -25.4101  -36.3079   24.0336 C   0  0  1  0  0  0
  -20.5889  -28.3682   23.1277 C   0  0  2  0  0  0
  -20.6781  -26.9406   22.5401 C   0  0  0  0  0  0
  -19.5755  -26.6378   21.5204 C   0  0  0  0  0  0
  -18.1939  -26.7923   22.1622 C   0  0  0  0  0  0
  -19.1545  -28.8849   23.2877 C   0  0  0  0  0  0
  -18.9467  -30.1447   23.8901 C   0  0  0  0  0  0
  -17.6465  -30.6578   24.0559 C   0  0  0  0  0  0
  -25.9045  -34.9453   23.5121 C   0  0  0  0  0  0
  -16.5358  -29.9076   23.6323 C   0  0  0  0  0  0
  -16.7280  -28.6495   23.0350 C   0  0  0  0  0  0
  -26.4497  -31.6587   25.0738 C   0  0  0  0  0  0
  -25.3741  -31.3733   26.1481 C   0  0  0  0  0  0
  -27.0324  -30.3011   24.6174 C   0  0  0  0  0  0
  -27.6087  -32.4300   25.7477 C   0  0  0  0  0  0
  -27.5597  -37.1765   24.8439 C   0  0  0  0  0  0
  -21.4191  -29.3038   22.3679 N   0  0  0  0  0  0
  -26.4271  -37.3782   23.9444 N   0  0  0  0  0  0
  -24.6869  -31.0630   22.0997 N   0  0  0  0  0  0
  -23.4204  -28.8155   23.3013 O   0  0  0  0  0  0
  -28.3566  -26.5005   20.1376 O   0  0  0  0  0  0
  -26.5608  -34.8911   22.4683 O   0  0  0  0  0  0
  -23.5415  -32.1414   23.7375 O   0  0  0  0  0  0
  -31.1796  -19.3136   20.3211 C   0  0  0  0  0  0
  -31.1422  -17.8879   20.4226 C   0  0  0  0  0  0
  -28.8276  -19.4312   20.7316 C   0  0  0  0  0  0
  -30.0265  -20.1322   20.4767 C   0  0  0  0  0  0
  -28.7795  -18.0106   20.8490 C   0  0  0  0  0  0
  -29.9368  -17.1840   20.6885 C   0  0  0  0  0  0
  -30.1043  -21.6476   20.3638 C   0  0  0  0  0  0
  -29.1043  -22.5862   20.2914 C   0  0  0  0  0  0
  -29.3302  -24.0878   20.2145 C   0  0  0  0  0  0
  -27.4191  -17.4115   21.1222 C   0  0  0  0  0  0
  -28.1147  -25.0521   19.9606 C   0  0  0  0  0  0
  -29.8159  -15.7231   20.8124 N   0  0  0  0  0  0
  -30.4574  -24.5813   20.3318 O   0  0  0  0  0  0
  -31.4839  -12.5347   19.1541 H   0  0  0  0  0  0
  -30.3838  -11.4160   19.9109 H   0  0  0  0  0  0
  -29.7817  -11.7509   17.4900 H   0  0  0  0  0  0
  -29.6496  -13.4746   17.7415 H   0  0  0  0  0  0
  -27.8831  -11.2867   18.8848 H   0  0  0  0  0  0
  -27.3816  -12.5537   17.7968 H   0  0  0  0  0  0
  -27.6613  -14.2492   19.5126 H   0  0  0  0  0  0
  -28.7194  -12.0752   21.3872 H   0  0  0  0  0  0
  -28.4460  -13.7354   21.8348 H   0  0  0  0  0  0
  -25.2764   -9.5622   22.4786 H   0  0  0  0  0  0
  -23.9966   -7.4590   22.7488 H   0  0  0  0  0  0
  -21.0823   -8.8787   19.8961 H   0  0  0  0  0  0
  -22.3725  -10.9661   19.6183 H   0  0  0  0  0  0
  -21.2026   -7.6149   23.9718 H   0  0  0  0  0  0
  -21.1463   -6.0515   25.9074 H   0  0  0  0  0  0
  -22.0610   -2.7594   23.2852 H   0  0  0  0  0  0
  -22.4033  -11.9881   22.4850 H   0  0  0  0  0  0
  -21.1062  -13.1274   22.2606 H   0  0  0  0  0  0
  -24.5903  -15.7890   20.4051 H   0  0  0  0  0  0
  -26.1819  -15.5720   19.8805 H   0  0  0  0  0  0
  -26.7177  -32.5467   23.1139 H   0  0  0  0  0  0
  -25.0075  -33.9743   25.0454 H   0  0  0  0  0  0
  -22.7116  -31.3050   21.4068 H   0  0  0  0  0  0
  -23.3764  -35.9611   23.3214 H   0  0  0  0  0  0
  -24.3621  -36.8993   22.2064 H   0  0  0  0  0  0
  -23.7209  -37.6462   23.6697 H   0  0  0  0  0  0
  -26.0905  -31.5632   20.6090 H   0  0  0  0  0  0
  -26.8398  -30.8450   22.0044 H   0  0  0  0  0  0
  -28.1182  -28.9993   21.1811 H   0  0  0  0  0  0
  -25.9605  -25.9477   18.9925 H   0  0  0  0  0  0
  -23.9677  -27.3143   19.0166 H   0  0  0  0  0  0
  -23.7544  -30.6049   19.4091 H   0  0  0  0  0  0
  -22.7546  -29.2556   19.8547 H   0  0  0  0  0  0
  -25.1261  -36.1926   25.0822 H   0  0  0  0  0  0
  -20.9984  -28.3259   24.1392 H   0  0  0  0  0  0
  -20.5671  -26.2298   23.3601 H   0  0  0  0  0  0
  -21.6648  -26.7430   22.1199 H   0  0  0  0  0  0
  -19.6911  -25.6284   21.1234 H   0  0  0  0  0  0
  -19.6684  -27.3185   20.6728 H   0  0  0  0  0  0
  -17.4202  -26.6662   21.4033 H   0  0  0  0  0  0
  -18.0344  -26.0064   22.9019 H   0  0  0  0  0  0
  -19.7941  -30.7260   24.2276 H   0  0  0  0  0  0
  -17.5017  -31.6258   24.5161 H   0  0  0  0  0  0
  -15.5356  -30.2981   23.7627 H   0  0  0  0  0  0
  -15.8684  -28.0798   22.7069 H   0  0  0  0  0  0
  -24.5884  -30.7117   25.7813 H   0  0  0  0  0  0
  -24.8973  -32.2908   26.4945 H   0  0  0  0  0  0
  -25.8063  -30.8872   27.0236 H   0  0  0  0  0  0
  -26.2886  -29.6756   24.1226 H   0  0  0  0  0  0
  -27.4064  -29.7272   25.4662 H   0  0  0  0  0  0
  -27.8742  -30.4305   23.9369 H   0  0  0  0  0  0
  -27.2745  -33.3613   26.2058 H   0  0  0  0  0  0
  -28.3878  -32.6827   25.0273 H   0  0  0  0  0  0
  -28.0772  -31.8418   26.5376 H   0  0  0  0  0  0
  -28.2510  -38.0164   24.7631 H   0  0  0  0  0  0
  -28.1194  -36.2710   24.6053 H   0  0  0  0  0  0
  -27.2354  -37.1153   25.8841 H   0  0  0  0  0  0
  -20.9369  -29.8793   21.6917 H   0  0  0  0  0  0
  -26.0143  -38.2831   24.1539 H   0  0  0  0  0  0
  -32.1294  -19.7879   20.1184 H   0  0  0  0  0  0
  -32.0672  -17.3447   20.2946 H   0  0  0  0  0  0
  -27.9144  -19.9953   20.8568 H   0  0  0  0  0  0
  -31.1151  -22.0329   20.3562 H   0  0  0  0  0  0
  -28.0747  -22.2629   20.2877 H   0  0  0  0  0  0
  -26.7962  -18.0924   21.7046 H   0  0  0  0  0  0
  -27.4737  -16.4721   21.6712 H   0  0  0  0  0  0
  -26.9231  -17.2517   20.1663 H   0  0  0  0  0  0
  -27.3010  -24.7410   20.6170 H   0  0  0  0  0  0
  -27.7861  -24.8747   18.9363 H   0  0  0  0  0  0
  -28.8941  -15.4155   21.0782 H   0  0  0  0  0  0
  1 25  1  0  0  0
  1 30  2  0  0  0
  1 82  1  0  0  0
  2  3  1  0  0  0
  2 25  1  0  0  0
  2 84  1  0  0  0
  2 85  1  0  0  0
  3  4  1  0  0  0
  3 86  1  0  0  0
  3 87  1  0  0  0
  4  5  1  0  0  0
  4 88  1  0  0  0
  4 89  1  0  0  0
  5  6  1  0  0  0
  5 26  1  0  0  0
  5 90  1  0  0  0
  6 25  1  0  0  0
  6 91  1  0  0  0
  6 92  1  0  0  0
  7  8  2  0  0  0
  7 26  1  0  0  0
  7 29  1  0  0  0
  8  9  1  0  0  0
  8 22  1  0  0  0
  9 10  1  0  0  0
  9 27  2  0  0  0
 10 11  2  0  0  0
 10 15  1  0  0  0
 11 12  1  0  0  0
 11 93  1  0  0  0
 12 13  2  0  0  0
 12 94  1  0  0  0
 13 14  1  0  0  0
 13 31  1  0  0  0
 14 15  2  0  0  0
 14 95  1  0  0  0
 15 96  1  0  0  0
 16 17  2  0  0  0
 16 21  1  0  0  0
 16 31  1  0  0  0
 17 18  1  0  0  0
 17 97  1  0  0  0
 18 19  2  0  0  0
 18 98  1  0  0  0
 19 20  1  0  0  0
 19 24  1  0  0  0
 20 21  2  0  0  0
 20 99  1  0  0  0
 21 23  1  0  0  0
 22 28  1  0  0  0
 22 32  2  0  0  0
 26 27  1  0  0  0
 28100  1  0  0  0
 28101  1  0  0  0
 29102  1  0  0  0
 29103  1  0  0  0
 33 34  1  0  0  0
 33 66  1  0  0  0
 33 70  2  0  0  0
 34 36  1  0  0  0
 34 59  1  0  0  0
 34104  1  0  0  0
 35 44  2  0  0  0
 35 45  1  0  0  0
 35 68  1  0  0  0
 36 56  1  0  0  0
 36105  1  0  0  0
 37 39  1  0  0  0
 37 47  1  0  0  0
 37 66  1  0  0  0
 37106  1  0  0  0
 38 43  2  0  0  0
 38 46  1  0  0  0
 38 47  1  0  0  0
 39 64  1  0  0  0
 39 67  2  0  0  0
 40 52  1  0  0  0
 40 53  2  0  0  0
 40 58  1  0  0  0
 41107  1  0  0  0
 41108  1  0  0  0
 41109  1  0  0  0
 41 48  1  0  0  0
 42 43  1  0  0  0
 42 66  1  0  0  0
 42110  1  0  0  0
 42111  1  0  0  0
 43 44  1  0  0  0
 44112  1  0  0  0
 45 46  2  0  0  0
 45113  1  0  0  0
 46114  1  0  0  0
 47115  1  0  0  0
 47116  1  0  0  0
 48 56  1  0  0  0
 48 65  1  0  0  0
 48117  1  0  0  0
 49 50  1  0  0  0
 49 53  1  0  0  0
 49 64  1  0  0  0
 49118  1  0  0  0
 50 51  1  0  0  0
 50119  1  0  0  0
 50120  1  0  0  0
 51 52  1  0  0  0
 51121  1  0  0  0
 51122  1  0  0  0
 52123  1  0  0  0
 52124  1  0  0  0
 53 54  1  0  0  0
 54 55  2  0  0  0
 54125  1  0  0  0
 55 57  1  0  0  0
 55126  1  0  0  0
 56 69  2  0  0  0
 57 58  2  0  0  0
 57127  1  0  0  0
 58128  1  0  0  0
 59 60  1  0  0  0
 59 61  1  0  0  0
 59 62  1  0  0  0
 60129  1  0  0  0
 60130  1  0  0  0
 60131  1  0  0  0
 61132  1  0  0  0
 61133  1  0  0  0
 61134  1  0  0  0
 62135  1  0  0  0
 62136  1  0  0  0
 62137  1  0  0  0
 63 65  1  0  0  0
 63138  1  0  0  0
 63139  1  0  0  0
 63140  1  0  0  0
 64141  1  0  0  0
 65142  1  0  0  0
 68 81  1  0  0  0
 71 72  2  0  0  0
 71 74  1  0  0  0
 71143  1  0  0  0
 72 76  1  0  0  0
 72144  1  0  0  0
 73 74  2  0  0  0
 73 75  1  0  0  0
 73145  1  0  0  0
 74 77  1  0  0  0
 75 76  2  0  0  0
 75 80  1  0  0  0
 76 82  1  0  0  0
 77 78  2  0  0  0
 77146  1  0  0  0
 78 79  1  0  0  0
 78147  1  0  0  0
 79 81  1  0  0  0
 79 83  2  0  0  0
 80148  1  0  0  0
 80149  1  0  0  0
 80150  1  0  0  0
 81151  1  0  0  0
 81152  1  0  0  0
 82153  1  0  0  0
M  ISO  4   1 100  68 101  81 101  82 100
M  END
> <chiral flag>
0

> <version>
0

> <s_m_source_file>
/data/baiqing/PycharmProjects/Reinvent-master-3.2/result/LINK_invent/BTK/process_docking_weight1_custom_product_contain_oxygen_bond_distance_aromatic_linkinvent_7_9_3/rearranged_h_0126.sdf

> <i_m_source_file_index>
20

> <r_mmod_Potential_Energy-OPLS-2005>
17.3762893676758

> <r_mmod_Stretch_Energy-OPLS-2005>
76.2647705078125

> <r_mmod_Bend_Energy-OPLS-2005>
128.889190673828

> <r_mmod_Torsional_Energy-OPLS-2005>
209.611755371094

> <r_mmod_Improper_Torsional_Energy-OPLS-2005>
5.33827304840088

> <r_mmod_Van_der_Waal_Energy-OPLS-2005>
150.311431884766

> <r_mmod_Electrostatic_Energy-OPLS-2005>
-373.359924316406

> <r_mmod_Solvation_Energy-OPLS-2005>
-228.910049438477

> <b_mmod_Minimization_Converged-OPLS-2005>
0

> <r_mmod_RMS_Derivative-OPLS-2005>
1.88998234272003

$$$$
20
                    3D
 Structure written by MMmdl.
156164  0  0  1  0            999 V2000
  -30.6133  -14.6610   20.4682 C   0  0  0  0  0  0
  -30.4407  -12.4006   19.4606 C   0  0  0  0  0  0
  -29.5126  -12.5097   18.2302 C   0  0  0  0  0  0
  -28.0387  -12.3368   18.6445 C   0  0  0  0  0  0
  -27.6539  -13.2164   19.8627 C   0  0  2  0  0  0
  -28.6985  -13.0884   20.9949 C   0  0  0  0  0  0
  -25.2595  -13.8151   20.5800 C   0  0  0  0  0  0
  -24.1821  -13.0431   20.9174 C   0  0  0  0  0  0
  -24.6373  -11.6891   20.8669 C   0  0  0  0  0  0
  -23.9022  -10.4294   21.0354 C   0  0  0  0  0  0
  -24.3578   -9.4229   21.9142 C   0  0  0  0  0  0
  -23.6276   -8.2267   22.0728 C   0  0  0  0  0  0
  -22.4255   -8.0295   21.3539 C   0  0  0  0  0  0
  -21.9845   -9.0252   20.4644 C   0  0  0  0  0  0
  -22.7174  -10.2132   20.3037 C   0  0  0  0  0  0
  -21.6868   -6.0726   22.5262 C   0  0  0  0  0  0
  -21.4032   -6.5623   23.8203 C   0  0  0  0  0  0
  -21.3662   -5.6771   24.9154 C   0  0  0  0  0  0
  -21.6040   -4.3032   24.7223 C   0  0  0  0  0  0
  -21.8824   -3.8130   23.4339 C   0  0  0  0  0  0
  -21.9205   -4.6945   22.3385 C   0  0  0  0  0  0
  -22.7867  -13.5270   21.1835 C   0  0  0  0  0  0
  -22.1669   -4.2130   21.0964 F   0  0  0  0  0  0
  -21.5612   -3.4518   25.7740 F   0  0  0  0  0  0
  -30.0147  -13.4276   20.4322 N   0  0  0  0  0  0
  -26.2998  -12.9326   20.3328 N   0  0  0  0  0  0
  -25.9299  -11.6472   20.5683 N   0  0  0  0  0  0
  -22.0486  -12.8306   22.0407 N   0  0  0  0  0  0
  -25.4372  -15.1887   20.4509 N   0  0  0  0  0  0
  -31.7667  -14.8229   20.0600 O   0  0  0  0  0  0
  -21.6640   -6.8878   21.4238 O   0  0  0  0  0  0
  -22.3581  -14.5592   20.6691 O   0  0  0  0  0  0
  -24.6252  -31.8622   23.2008 C   0  0  0  0  0  0
  -25.9085  -32.4786   23.8373 C   0  0  1  0  0  0
  -27.2344  -27.3376   20.1156 C   0  0  0  0  0  0
  -25.5922  -33.8579   24.2337 N   0  0  0  0  0  0
  -23.4204  -30.4781   21.5450 C   0  0  2  0  0  0
  -24.8697  -28.9328   20.1137 C   0  0  0  0  0  0
  -22.7504  -29.4586   22.4966 C   0  0  0  0  0  0
  -18.0277  -28.1376   22.8463 C   0  0  0  0  0  0
  -24.1484  -36.7280   23.2607 C   0  0  0  0  0  0
  -25.9579  -30.7981   21.3697 C   0  0  0  0  0  0
  -26.0364  -29.4243   20.7145 C   0  0  0  0  0  0
  -27.2256  -28.6387   20.7014 C   0  0  0  0  0  0
  -26.0461  -26.8871   19.5032 C   0  0  0  0  0  0
  -24.8751  -27.6695   19.4995 C   0  0  0  0  0  0
  -23.6339  -29.8083   20.1616 C   0  0  0  0  0  0
  -25.4082  -36.3072   24.0332 C   0  0  1  0  0  0
  -20.5877  -28.3672   23.1272 C   0  0  2  0  0  0
  -20.6777  -26.9409   22.5366 C   0  0  0  0  0  0
  -19.5715  -26.6372   21.5204 C   0  0  0  0  0  0
  -18.1916  -26.7890   22.1660 C   0  0  0  0  0  0
  -19.1529  -28.8849   23.2842 C   0  0  0  0  0  0
  -18.9456  -30.1447   23.8866 C   0  0  0  0  0  0
  -17.6455  -30.6574   24.0541 C   0  0  0  0  0  0
  -25.9057  -34.9445   23.5153 C   0  0  0  0  0  0
  -16.5346  -29.9078   23.6307 C   0  0  0  0  0  0
  -16.7262  -28.6490   23.0340 C   0  0  0  0  0  0
  -26.4478  -31.6572   25.0728 C   0  0  0  0  0  0
  -25.3781  -31.3829   26.1563 C   0  0  0  0  0  0
  -27.0176  -30.2945   24.6179 C   0  0  0  0  0  0
  -27.6191  -32.4186   25.7364 C   0  0  0  0  0  0
  -27.5611  -37.1693   24.8392 C   0  0  0  0  0  0
  -21.4214  -29.3029   22.3710 N   0  0  0  0  0  0
  -26.4224  -37.3803   23.9495 N   0  0  0  0  0  0
  -24.6855  -31.0615   22.0952 N   0  0  0  0  0  0
  -23.4234  -28.8135   23.3046 O   0  0  0  0  0  0
  -28.3606  -26.5120   20.1080 O   0  0  0  0  0  0
  -26.5639  -34.8907   22.4727 O   0  0  0  0  0  0
  -23.5404  -32.1429   23.7319 O   0  0  0  0  0  0
  -28.9862  -19.4339   21.0670 C   0  0  0  0  0  0
  -29.1139  -18.0458   21.3743 C   0  0  0  0  0  0
  -30.3925  -17.7058   19.3710 C   0  0  0  0  0  0
  -29.5123  -20.0032   19.8795 C   0  0  0  0  0  0
  -30.2217  -19.0875   19.0275 C   0  0  0  0  0  0
  -29.8226  -17.1379   20.5402 C   0  0  0  0  0  0
  -29.3295  -21.4827   19.5314 C   0  0  0  0  0  0
  -28.8786  -22.5486   20.2756 C   0  0  0  0  0  0
  -28.7505  -23.9703   19.7355 C   0  0  0  0  0  0
  -29.7069  -19.4993   16.5730 C   0  0  0  0  0  0
  -30.7765  -19.5398   17.6776 C   0  0  0  0  0  0
  -28.1992  -25.1404   20.6387 C   0  0  0  0  0  0
  -29.8200  -15.7080   20.8649 N   0  0  0  0  0  0
  -29.0652  -24.2392   18.5709 O   0  0  0  0  0  0
  -31.4820  -12.5172   19.1600 H   0  0  0  0  0  0
  -30.3720  -11.4112   19.9151 H   0  0  0  0  0  0
  -29.7817  -11.7556   17.4883 H   0  0  0  0  0  0
  -29.6485  -13.4819   17.7512 H   0  0  0  0  0  0
  -27.8927  -11.2851   18.8918 H   0  0  0  0  0  0
  -27.3833  -12.5464   17.7985 H   0  0  0  0  0  0
  -27.6673  -14.2481   19.5104 H   0  0  0  0  0  0
  -28.7129  -12.0701   21.3877 H   0  0  0  0  0  0
  -28.4396  -13.7271   21.8399 H   0  0  0  0  0  0
  -25.2717   -9.5731   22.4718 H   0  0  0  0  0  0
  -23.9989   -7.4664   22.7448 H   0  0  0  0  0  0
  -21.0752   -8.8785   19.8982 H   0  0  0  0  0  0
  -22.3604  -10.9667   19.6165 H   0  0  0  0  0  0
  -21.2034   -7.6133   23.9711 H   0  0  0  0  0  0
  -21.1466   -6.0488   25.9057 H   0  0  0  0  0  0
  -22.0598   -2.7592   23.2862 H   0  0  0  0  0  0
  -22.4077  -12.0007   22.4863 H   0  0  0  0  0  0
  -21.1116  -13.1398   22.2590 H   0  0  0  0  0  0
  -24.6918  -15.8474   20.6478 H   0  0  0  0  0  0
  -26.3206  -15.6379   20.2431 H   0  0  0  0  0  0
  -26.7164  -32.5467   23.1133 H   0  0  0  0  0  0
  -25.0074  -33.9710   25.0488 H   0  0  0  0  0  0
  -22.7123  -31.2959   21.3993 H   0  0  0  0  0  0
  -23.3835  -35.9503   23.3009 H   0  0  0  0  0  0
  -24.3698  -36.9176   22.2093 H   0  0  0  0  0  0
  -23.7075  -37.6324   23.6809 H   0  0  0  0  0  0
  -26.0878  -31.5621   20.6013 H   0  0  0  0  0  0
  -26.8374  -30.8484   21.9991 H   0  0  0  0  0  0
  -28.1278  -29.0140   21.1651 H   0  0  0  0  0  0
  -26.0215  -25.9186   19.0232 H   0  0  0  0  0  0
  -23.9796  -27.2915   19.0242 H   0  0  0  0  0  0
  -23.7537  -30.5816   19.4026 H   0  0  0  0  0  0
  -22.7556  -29.2337   19.8595 H   0  0  0  0  0  0
  -25.1195  -36.1902   25.0802 H   0  0  0  0  0  0
  -20.9920  -28.3229   24.1405 H   0  0  0  0  0  0
  -20.5730  -26.2274   23.3550 H   0  0  0  0  0  0
  -21.6641  -26.7473   22.1124 H   0  0  0  0  0  0
  -19.6893  -25.6291   21.1217 H   0  0  0  0  0  0
  -19.6598  -27.3191   20.6736 H   0  0  0  0  0  0
  -17.4142  -26.6535   21.4120 H   0  0  0  0  0  0
  -18.0402  -26.0073   22.9120 H   0  0  0  0  0  0
  -19.7934  -30.7255   24.2245 H   0  0  0  0  0  0
  -17.5005  -31.6247   24.5151 H   0  0  0  0  0  0
  -15.5341  -30.2978   23.7608 H   0  0  0  0  0  0
  -15.8661  -28.0774   22.7107 H   0  0  0  0  0  0
  -24.5479  -30.7823   25.7834 H   0  0  0  0  0  0
  -24.9632  -32.3090   26.5546 H   0  0  0  0  0  0
  -25.8006  -30.8355   26.9998 H   0  0  0  0  0  0
  -26.2638  -29.6739   24.1322 H   0  0  0  0  0  0
  -27.3921  -29.7199   25.4661 H   0  0  0  0  0  0
  -27.8551  -30.4135   23.9306 H   0  0  0  0  0  0
  -27.3046  -33.3623   26.1820 H   0  0  0  0  0  0
  -28.4012  -32.6465   25.0105 H   0  0  0  0  0  0
  -28.0802  -31.8323   26.5322 H   0  0  0  0  0  0
  -28.2365  -38.0245   24.7875 H   0  0  0  0  0  0
  -28.1370  -36.2837   24.5651 H   0  0  0  0  0  0
  -27.2420  -37.0630   25.8776 H   0  0  0  0  0  0
  -20.9446  -29.8792   21.6914 H   0  0  0  0  0  0
  -26.0092  -38.2801   24.1785 H   0  0  0  0  0  0
  -28.4321  -20.0626   21.7511 H   0  0  0  0  0  0
  -28.6401  -17.6799   22.2729 H   0  0  0  0  0  0
  -30.9374  -17.0609   18.6932 H   0  0  0  0  0  0
  -29.5815  -21.7309   18.5112 H   0  0  0  0  0  0
  -28.5970  -22.4013   21.3081 H   0  0  0  0  0  0
  -30.0993  -19.8665   15.6224 H   0  0  0  0  0  0
  -28.8431  -20.1114   16.8327 H   0  0  0  0  0  0
  -29.3474  -18.4819   16.4066 H   0  0  0  0  0  0
  -31.6051  -18.8889   17.3917 H   0  0  0  0  0  0
  -31.2172  -20.5342   17.7483 H   0  0  0  0  0  0
  -28.7292  -25.1011   21.5905 H   0  0  0  0  0  0
  -27.1554  -24.9352   20.8747 H   0  0  0  0  0  0
  -28.9985  -15.3992   21.3602 H   0  0  0  0  0  0
  1 25  1  0  0  0
  1 30  2  0  0  0
  1 83  1  0  0  0
  2  3  1  0  0  0
  2 25  1  0  0  0
  2 85  1  0  0  0
  2 86  1  0  0  0
  3  4  1  0  0  0
  3 87  1  0  0  0
  3 88  1  0  0  0
  4  5  1  0  0  0
  4 89  1  0  0  0
  4 90  1  0  0  0
  5  6  1  0  0  0
  5 26  1  0  0  0
  5 91  1  0  0  0
  6 25  1  0  0  0
  6 92  1  0  0  0
  6 93  1  0  0  0
  7  8  2  0  0  0
  7 26  1  0  0  0
  7 29  1  0  0  0
  8  9  1  0  0  0
  8 22  1  0  0  0
  9 10  1  0  0  0
  9 27  2  0  0  0
 10 11  2  0  0  0
 10 15  1  0  0  0
 11 12  1  0  0  0
 11 94  1  0  0  0
 12 13  2  0  0  0
 12 95  1  0  0  0
 13 14  1  0  0  0
 13 31  1  0  0  0
 14 15  2  0  0  0
 14 96  1  0  0  0
 15 97  1  0  0  0
 16 17  2  0  0  0
 16 21  1  0  0  0
 16 31  1  0  0  0
 17 18  1  0  0  0
 17 98  1  0  0  0
 18 19  2  0  0  0
 18 99  1  0  0  0
 19 20  1  0  0  0
 19 24  1  0  0  0
 20 21  2  0  0  0
 20100  1  0  0  0
 21 23  1  0  0  0
 22 28  1  0  0  0
 22 32  2  0  0  0
 26 27  1  0  0  0
 28101  1  0  0  0
 28102  1  0  0  0
 29103  1  0  0  0
 29104  1  0  0  0
 33 34  1  0  0  0
 33 66  1  0  0  0
 33 70  2  0  0  0
 34 36  1  0  0  0
 34 59  1  0  0  0
 34105  1  0  0  0
 35 44  2  0  0  0
 35 45  1  0  0  0
 35 68  1  0  0  0
 36 56  1  0  0  0
 36106  1  0  0  0
 37 39  1  0  0  0
 37 47  1  0  0  0
 37 66  1  0  0  0
 37107  1  0  0  0
 38 43  2  0  0  0
 38 46  1  0  0  0
 38 47  1  0  0  0
 39 64  1  0  0  0
 39 67  2  0  0  0
 40 52  1  0  0  0
 40 53  2  0  0  0
 40 58  1  0  0  0
 41108  1  0  0  0
 41109  1  0  0  0
 41110  1  0  0  0
 41 48  1  0  0  0
 42 43  1  0  0  0
 42 66  1  0  0  0
 42111  1  0  0  0
 42112  1  0  0  0
 43 44  1  0  0  0
 44113  1  0  0  0
 45 46  2  0  0  0
 45114  1  0  0  0
 46115  1  0  0  0
 47116  1  0  0  0
 47117  1  0  0  0
 48 56  1  0  0  0
 48 65  1  0  0  0
 48118  1  0  0  0
 49 50  1  0  0  0
 49 53  1  0  0  0
 49 64  1  0  0  0
 49119  1  0  0  0
 50 51  1  0  0  0
 50120  1  0  0  0
 50121  1  0  0  0
 51 52  1  0  0  0
 51122  1  0  0  0
 51123  1  0  0  0
 52124  1  0  0  0
 52125  1  0  0  0
 53 54  1  0  0  0
 54 55  2  0  0  0
 54126  1  0  0  0
 55 57  1  0  0  0
 55127  1  0  0  0
 56 69  2  0  0  0
 57 58  2  0  0  0
 57128  1  0  0  0
 58129  1  0  0  0
 59 60  1  0  0  0
 59 61  1  0  0  0
 59 62  1  0  0  0
 60130  1  0  0  0
 60131  1  0  0  0
 60132  1  0  0  0
 61133  1  0  0  0
 61134  1  0  0  0
 61135  1  0  0  0
 62136  1  0  0  0
 62137  1  0  0  0
 62138  1  0  0  0
 63 65  1  0  0  0
 63139  1  0  0  0
 63140  1  0  0  0
 63141  1  0  0  0
 64142  1  0  0  0
 65143  1  0  0  0
 68 82  1  0  0  0
 71 72  2  0  0  0
 71 74  1  0  0  0
 71144  1  0  0  0
 72 76  1  0  0  0
 72145  1  0  0  0
 73 75  1  0  0  0
 73 76  2  0  0  0
 73146  1  0  0  0
 74 75  2  0  0  0
 74 77  1  0  0  0
 75 81  1  0  0  0
 76 83  1  0  0  0
 77 78  2  0  0  0
 77147  1  0  0  0
 78 79  1  0  0  0
 78148  1  0  0  0
 79 82  1  0  0  0
 79 84  2  0  0  0
 80 81  1  0  0  0
 80149  1  0  0  0
 80150  1  0  0  0
 80151  1  0  0  0
 81152  1  0  0  0
 81153  1  0  0  0
 82154  1  0  0  0
 82155  1  0  0  0
 83156  1  0  0  0
M  ISO  4   1 100  68 101  82 101  83 100
M  END
> <chiral flag>
0

> <version>
0

> <s_m_source_file>
/data/baiqing/PycharmProjects/Reinvent-master-3.2/result/LINK_invent/BTK/process_docking_weight1_custom_product_contain_oxygen_bond_distance_aromatic_linkinvent_7_9_3/rearranged_h_0126.sdf

> <i_m_source_file_index>
21

> <r_mmod_Potential_Energy-OPLS-2005>
47.036205291748

> <r_mmod_Stretch_Energy-OPLS-2005>
79.6889038085938

> <r_mmod_Bend_Energy-OPLS-2005>
127.118347167969

> <r_mmod_Torsional_Energy-OPLS-2005>
238.239944458008

> <r_mmod_Improper_Torsional_Energy-OPLS-2005>
3.73983359336853

> <r_mmod_Van_der_Waal_Energy-OPLS-2005>
140.121109008789

> <r_mmod_Electrostatic_Energy-OPLS-2005>
-363.497924804688

> <r_mmod_Solvation_Energy-OPLS-2005>
-227.189086914062

> <b_mmod_Minimization_Converged-OPLS-2005>
0

> <r_mmod_RMS_Derivative-OPLS-2005>
3.75422501564026

$$$$
21
                    3D
 Structure written by MMmdl.
157165  0  0  1  0            999 V2000
  -30.6060  -14.7200   20.4602 C   0  0  0  0  0  0
  -30.4306  -12.4361   19.4776 C   0  0  0  0  0  0
  -29.5117  -12.5226   18.2377 C   0  0  0  0  0  0
  -28.0321  -12.3633   18.6393 C   0  0  0  0  0  0
  -27.6471  -13.2364   19.8630 C   0  0  2  0  0  0
  -28.6898  -13.1314   20.9990 C   0  0  0  0  0  0
  -25.2525  -13.8210   20.5718 C   0  0  0  0  0  0
  -24.1813  -13.0449   20.9201 C   0  0  0  0  0  0
  -24.6401  -11.6926   20.8718 C   0  0  0  0  0  0
  -23.9075  -10.4298   21.0384 C   0  0  0  0  0  0
  -24.3624   -9.4218   21.9166 C   0  0  0  0  0  0
  -23.6306   -8.2248   22.0736 C   0  0  0  0  0  0
  -22.4288   -8.0277   21.3531 C   0  0  0  0  0  0
  -21.9921   -9.0245   20.4626 C   0  0  0  0  0  0
  -22.7244  -10.2130   20.3039 C   0  0  0  0  0  0
  -21.6861   -6.0726   22.5268 C   0  0  0  0  0  0
  -21.4007   -6.5629   23.8201 C   0  0  0  0  0  0
  -21.3673   -5.6787   24.9173 C   0  0  0  0  0  0
  -21.6061   -4.3050   24.7219 C   0  0  0  0  0  0
  -21.8823   -3.8138   23.4339 C   0  0  0  0  0  0
  -21.9193   -4.6953   22.3395 C   0  0  0  0  0  0
  -22.7835  -13.5217   21.1872 C   0  0  0  0  0  0
  -22.1674   -4.2142   21.0972 F   0  0  0  0  0  0
  -21.5642   -3.4529   25.7735 F   0  0  0  0  0  0
  -29.9994  -13.4841   20.4336 N   0  0  0  0  0  0
  -26.2961  -12.9421   20.3325 N   0  0  0  0  0  0
  -25.9336  -11.6552   20.5733 N   0  0  0  0  0  0
  -22.0509  -12.8175   22.0428 N   0  0  0  0  0  0
  -25.4247  -15.1932   20.4148 N   0  0  0  0  0  0
  -31.7638  -14.8476   20.0508 O   0  0  0  0  0  0
  -21.6657   -6.8869   21.4229 O   0  0  0  0  0  0
  -22.3494  -14.5524   20.6737 O   0  0  0  0  0  0
  -24.6311  -31.8553   23.1994 C   0  0  0  0  0  0
  -25.9148  -32.4741   23.8319 C   0  0  1  0  0  0
  -27.2128  -27.2622   20.1246 C   0  0  0  0  0  0
  -25.5962  -33.8545   24.2260 N   0  0  0  0  0  0
  -23.4256  -30.4810   21.5410 C   0  0  2  0  0  0
  -24.8721  -28.9345   20.1039 C   0  0  0  0  0  0
  -22.7492  -29.4605   22.4885 C   0  0  0  0  0  0
  -18.0300  -28.1362   22.8479 C   0  0  0  0  0  0
  -24.1500  -36.7285   23.2636 C   0  0  0  0  0  0
  -25.9720  -30.7676   21.3808 C   0  0  0  0  0  0
  -26.0417  -29.3919   20.7218 C   0  0  0  0  0  0
  -27.2125  -28.5659   20.7267 C   0  0  0  0  0  0
  -26.0252  -26.8877   19.4520 C   0  0  0  0  0  0
  -24.8700  -27.6906   19.4572 C   0  0  0  0  0  0
  -23.6428  -29.8208   20.1544 C   0  0  0  0  0  0
  -25.4118  -36.3053   24.0323 C   0  0  1  0  0  0
  -20.5898  -28.3686   23.1258 C   0  0  2  0  0  0
  -20.6783  -26.9404   22.5399 C   0  0  0  0  0  0
  -19.5760  -26.6363   21.5204 C   0  0  0  0  0  0
  -18.1941  -26.7901   22.1618 C   0  0  0  0  0  0
  -19.1550  -28.8839   23.2865 C   0  0  0  0  0  0
  -18.9473  -30.1438   23.8886 C   0  0  0  0  0  0
  -17.6471  -30.6565   24.0553 C   0  0  0  0  0  0
  -25.9060  -34.9428   23.5088 C   0  0  0  0  0  0
  -16.5363  -29.9061   23.6320 C   0  0  0  0  0  0
  -16.7285  -28.6477   23.0344 C   0  0  0  0  0  0
  -26.4527  -31.6547   25.0700 C   0  0  0  0  0  0
  -25.3746  -31.3699   26.1415 C   0  0  0  0  0  0
  -27.0383  -30.2957   24.6186 C   0  0  0  0  0  0
  -27.6077  -32.4281   25.7491 C   0  0  0  0  0  0
  -27.5577  -37.1797   24.8461 C   0  0  0  0  0  0
  -21.4198  -29.3042   22.3638 N   0  0  0  0  0  0
  -26.4286  -37.3755   23.9407 N   0  0  0  0  0  0
  -24.6947  -31.0525   22.0967 N   0  0  0  0  0  0
  -23.4201  -28.8137   23.2974 O   0  0  0  0  0  0
  -28.3008  -26.3575   20.2155 O   0  0  0  0  0  0
  -26.5619  -34.8911   22.4649 O   0  0  0  0  0  0
  -23.5468  -32.1383   23.7296 O   0  0  0  0  0  0
  -29.4600  -17.1149   18.7628 C   0  0  0  0  0  0
  -29.1005  -19.5426   18.6811 C   0  0  0  0  0  0
  -29.6681  -18.4564   20.7889 C   0  0  0  0  0  0
  -29.7172  -17.1409   20.1513 C   0  0  0  0  0  0
  -29.3603  -19.6902   20.0636 C   0  0  0  0  0  0
  -29.1566  -18.2885   18.0457 C   0  0  0  0  0  0
  -31.4706  -18.7396   22.5412 C   0  0  0  0  0  0
  -29.9701  -18.5587   22.2748 C   0  0  0  0  0  0
  -28.9443  -23.6910   20.5615 C   0  0  0  0  0  0
  -28.1048  -24.8997   19.8856 C   0  0  0  0  0  0
  -28.7947  -22.1963   19.9525 C   0  0  0  0  0  0
  -29.8610  -15.8276   20.8332 N   0  0  0  0  0  0
  -29.3271  -20.9898   20.6647 O   0  0  0  0  0  0
  -28.8930  -18.2067   16.7197 F   0  0  0  0  0  0
  -31.4731  -12.5527   19.1787 H   0  0  0  0  0  0
  -30.3656  -11.4493   19.9379 H   0  0  0  0  0  0
  -29.7847  -11.7555   17.5111 H   0  0  0  0  0  0
  -29.6571  -13.4827   17.7396 H   0  0  0  0  0  0
  -27.8627  -11.3096   18.8633 H   0  0  0  0  0  0
  -27.3874  -12.6027   17.7928 H   0  0  0  0  0  0
  -27.6531  -14.2682   19.5113 H   0  0  0  0  0  0
  -28.7139  -12.1198   21.4068 H   0  0  0  0  0  0
  -28.4265  -13.7849   21.8323 H   0  0  0  0  0  0
  -25.2779   -9.5697   22.4724 H   0  0  0  0  0  0
  -24.0035   -7.4634   22.7435 H   0  0  0  0  0  0
  -21.0859   -8.8740   19.8919 H   0  0  0  0  0  0
  -22.3689  -10.9660   19.6137 H   0  0  0  0  0  0
  -21.1990   -7.6131   23.9700 H   0  0  0  0  0  0
  -21.1508   -6.0519   25.9077 H   0  0  0  0  0  0
  -22.0592   -2.7593   23.2843 H   0  0  0  0  0  0
  -22.4166  -11.9849   22.4808 H   0  0  0  0  0  0
  -21.1100  -13.1120   22.2627 H   0  0  0  0  0  0
  -24.6633  -15.8539   20.5277 H   0  0  0  0  0  0
  -26.2804  -15.6273   20.0921 H   0  0  0  0  0  0
  -26.7210  -32.5396   23.1055 H   0  0  0  0  0  0
  -25.0138  -33.9682   25.0422 H   0  0  0  0  0  0
  -22.7224  -31.3039   21.3971 H   0  0  0  0  0  0
  -23.3751  -35.9628   23.3275 H   0  0  0  0  0  0
  -24.3605  -36.8927   22.2056 H   0  0  0  0  0  0
  -23.7269  -37.6487   23.6675 H   0  0  0  0  0  0
  -26.1099  -31.5299   20.6123 H   0  0  0  0  0  0
  -26.8500  -30.8150   22.0127 H   0  0  0  0  0  0
  -28.1033  -28.9067   21.2355 H   0  0  0  0  0  0
  -25.9492  -25.9524   18.9191 H   0  0  0  0  0  0
  -23.9785  -27.3421   18.9540 H   0  0  0  0  0  0
  -23.7689  -30.6009   19.4024 H   0  0  0  0  0  0
  -22.7606  -29.2560   19.8464 H   0  0  0  0  0  0
  -25.1300  -36.1888   25.0812 H   0  0  0  0  0  0
  -21.0007  -28.3269   24.1370 H   0  0  0  0  0  0
  -20.5666  -26.2311   23.3606 H   0  0  0  0  0  0
  -21.6653  -26.7407   22.1205 H   0  0  0  0  0  0
  -19.6929  -25.6269   21.1243 H   0  0  0  0  0  0
  -19.6692  -27.3167   20.6722 H   0  0  0  0  0  0
  -17.4210  -26.6654   21.4016 H   0  0  0  0  0  0
  -18.0342  -26.0027   22.8999 H   0  0  0  0  0  0
  -19.7949  -30.7253   24.2251 H   0  0  0  0  0  0
  -17.5024  -31.6250   24.5146 H   0  0  0  0  0  0
  -15.5363  -30.2963   23.7628 H   0  0  0  0  0  0
  -15.8688  -28.0788   22.7062 H   0  0  0  0  0  0
  -24.5951  -30.7015   25.7745 H   0  0  0  0  0  0
  -24.8914  -32.2873   26.4781 H   0  0  0  0  0  0
  -25.8064  -30.8923   27.0217 H   0  0  0  0  0  0
  -26.2971  -29.6679   24.1232 H   0  0  0  0  0  0
  -27.4090  -29.7236   25.4699 H   0  0  0  0  0  0
  -27.8834  -30.4214   23.9415 H   0  0  0  0  0  0
  -27.2682  -33.3590   26.2038 H   0  0  0  0  0  0
  -28.3923  -32.6806   25.0347 H   0  0  0  0  0  0
  -28.0704  -31.8411   26.5437 H   0  0  0  0  0  0
  -28.2568  -38.0116   24.7508 H   0  0  0  0  0  0
  -28.1097  -36.2642   24.6273 H   0  0  0  0  0  0
  -27.2304  -37.1426   25.8866 H   0  0  0  0  0  0
  -20.9368  -29.8781   21.6864 H   0  0  0  0  0  0
  -26.0154  -38.2825   24.1399 H   0  0  0  0  0  0
  -29.4514  -16.1785   18.2249 H   0  0  0  0  0  0
  -28.8582  -20.3879   18.0569 H   0  0  0  0  0  0
  -31.6687  -18.8284   23.6098 H   0  0  0  0  0  0
  -31.8492  -19.6406   22.0581 H   0  0  0  0  0  0
  -32.0471  -17.8936   22.1636 H   0  0  0  0  0  0
  -29.6067  -17.6705   22.7913 H   0  0  0  0  0  0
  -29.4153  -19.3939   22.7034 H   0  0  0  0  0  0
  -28.6684  -23.6505   21.6146 H   0  0  0  0  0  0
  -30.0024  -23.9501   20.5481 H   0  0  0  0  0  0
  -27.0724  -24.6266   20.0992 H   0  0  0  0  0  0
  -28.2184  -24.8206   18.8030 H   0  0  0  0  0  0
  -29.2545  -22.2438   18.9668 H   0  0  0  0  0  0
  -27.7333  -22.0100   19.7834 H   0  0  0  0  0  0
  -29.0716  -15.5870   21.4143 H   0  0  0  0  0  0
  1 25  1  0  0  0
  1 30  2  0  0  0
  1 82  1  0  0  0
  2  3  1  0  0  0
  2 25  1  0  0  0
  2 85  1  0  0  0
  2 86  1  0  0  0
  3  4  1  0  0  0
  3 87  1  0  0  0
  3 88  1  0  0  0
  4  5  1  0  0  0
  4 89  1  0  0  0
  4 90  1  0  0  0
  5  6  1  0  0  0
  5 26  1  0  0  0
  5 91  1  0  0  0
  6 25  1  0  0  0
  6 92  1  0  0  0
  6 93  1  0  0  0
  7  8  2  0  0  0
  7 26  1  0  0  0
  7 29  1  0  0  0
  8  9  1  0  0  0
  8 22  1  0  0  0
  9 10  1  0  0  0
  9 27  2  0  0  0
 10 11  2  0  0  0
 10 15  1  0  0  0
 11 12  1  0  0  0
 11 94  1  0  0  0
 12 13  2  0  0  0
 12 95  1  0  0  0
 13 14  1  0  0  0
 13 31  1  0  0  0
 14 15  2  0  0  0
 14 96  1  0  0  0
 15 97  1  0  0  0
 16 17  2  0  0  0
 16 21  1  0  0  0
 16 31  1  0  0  0
 17 18  1  0  0  0
 17 98  1  0  0  0
 18 19  2  0  0  0
 18 99  1  0  0  0
 19 20  1  0  0  0
 19 24  1  0  0  0
 20 21  2  0  0  0
 20100  1  0  0  0
 21 23  1  0  0  0
 22 28  1  0  0  0
 22 32  2  0  0  0
 26 27  1  0  0  0
 28101  1  0  0  0
 28102  1  0  0  0
 29103  1  0  0  0
 29104  1  0  0  0
 33 34  1  0  0  0
 33 66  1  0  0  0
 33 70  2  0  0  0
 34 36  1  0  0  0
 34 59  1  0  0  0
 34105  1  0  0  0
 35 44  2  0  0  0
 35 45  1  0  0  0
 35 68  1  0  0  0
 36 56  1  0  0  0
 36106  1  0  0  0
 37 39  1  0  0  0
 37 47  1  0  0  0
 37 66  1  0  0  0
 37107  1  0  0  0
 38 43  2  0  0  0
 38 46  1  0  0  0
 38 47  1  0  0  0
 39 64  1  0  0  0
 39 67  2  0  0  0
 40 52  1  0  0  0
 40 53  2  0  0  0
 40 58  1  0  0  0
 41108  1  0  0  0
 41109  1  0  0  0
 41110  1  0  0  0
 41 48  1  0  0  0
 42 43  1  0  0  0
 42 66  1  0  0  0
 42111  1  0  0  0
 42112  1  0  0  0
 43 44  1  0  0  0
 44113  1  0  0  0
 45 46  2  0  0  0
 45114  1  0  0  0
 46115  1  0  0  0
 47116  1  0  0  0
 47117  1  0  0  0
 48 56  1  0  0  0
 48 65  1  0  0  0
 48118  1  0  0  0
 49 50  1  0  0  0
 49 53  1  0  0  0
 49 64  1  0  0  0
 49119  1  0  0  0
 50 51  1  0  0  0
 50120  1  0  0  0
 50121  1  0  0  0
 51 52  1  0  0  0
 51122  1  0  0  0
 51123  1  0  0  0
 52124  1  0  0  0
 52125  1  0  0  0
 53 54  1  0  0  0
 54 55  2  0  0  0
 54126  1  0  0  0
 55 57  1  0  0  0
 55127  1  0  0  0
 56 69  2  0  0  0
 57 58  2  0  0  0
 57128  1  0  0  0
 58129  1  0  0  0
 59 60  1  0  0  0
 59 61  1  0  0  0
 59 62  1  0  0  0
 60130  1  0  0  0
 60131  1  0  0  0
 60132  1  0  0  0
 61133  1  0  0  0
 61134  1  0  0  0
 61135  1  0  0  0
 62136  1  0  0  0
 62137  1  0  0  0
 62138  1  0  0  0
 63 65  1  0  0  0
 63139  1  0  0  0
 63140  1  0  0  0
 63141  1  0  0  0
 64142  1  0  0  0
 65143  1  0  0  0
 68 80  1  0  0  0
 71 74  2  0  0  0
 71 76  1  0  0  0
 71144  1  0  0  0
 72 75  1  0  0  0
 72 76  2  0  0  0
 72145  1  0  0  0
 73 74  1  0  0  0
 73 75  2  0  0  0
 73 78  1  0  0  0
 74 82  1  0  0  0
 75 83  1  0  0  0
 76 84  1  0  0  0
 77 78  1  0  0  0
 77146  1  0  0  0
 77147  1  0  0  0
 77148  1  0  0  0
 78149  1  0  0  0
 78150  1  0  0  0
 79 80  1  0  0  0
 79 81  1  0  0  0
 79151  1  0  0  0
 79152  1  0  0  0
 80153  1  0  0  0
 80154  1  0  0  0
 81 83  1  0  0  0
 81155  1  0  0  0
 81156  1  0  0  0
 82157  1  0  0  0
M  ISO  4   1 100  68 101  80 101  82 100
M  END
> <chiral flag>
0

> <version>
0

> <s_m_source_file>
/data/baiqing/PycharmProjects/Reinvent-master-3.2/result/LINK_invent/BTK/process_docking_weight1_custom_product_contain_oxygen_bond_distance_aromatic_linkinvent_7_9_3/rearranged_h_0126.sdf

> <i_m_source_file_index>
22

> <r_mmod_Potential_Energy-OPLS-2005>
199.103775024414

> <r_mmod_Stretch_Energy-OPLS-2005>
126.774291992188

> <r_mmod_Bend_Energy-OPLS-2005>
165.097915649414

> <r_mmod_Torsional_Energy-OPLS-2005>
244.270767211914

> <r_mmod_Improper_Torsional_Energy-OPLS-2005>
5.13892984390259

> <r_mmod_Van_der_Waal_Energy-OPLS-2005>
140.026016235352

> <r_mmod_Electrostatic_Energy-OPLS-2005>
-352.699615478516

> <r_mmod_Solvation_Energy-OPLS-2005>
-209.906753540039

> <b_mmod_Minimization_Converged-OPLS-2005>
0

> <r_mmod_RMS_Derivative-OPLS-2005>
1.85939574241638

$$$$
22
                    3D
 Structure written by MMmdl.
155163  0  0  1  0            999 V2000
  -30.5902  -14.7454   20.4890 C   0  0  0  0  0  0
  -30.4444  -12.4663   19.4589 C   0  0  0  0  0  0
  -29.5072  -12.4975   18.2297 C   0  0  0  0  0  0
  -28.0367  -12.3110   18.6561 C   0  0  0  0  0  0
  -27.6405  -13.2186   19.8483 C   0  0  2  0  0  0
  -28.6887  -13.1488   20.9791 C   0  0  0  0  0  0
  -25.2511  -13.8158   20.5662 C   0  0  0  0  0  0
  -24.1794  -13.0417   20.9196 C   0  0  0  0  0  0
  -24.6368  -11.6897   20.8757 C   0  0  0  0  0  0
  -23.9039  -10.4278   21.0418 C   0  0  0  0  0  0
  -24.3599   -9.4194   21.9193 C   0  0  0  0  0  0
  -23.6278   -8.2230   22.0757 C   0  0  0  0  0  0
  -22.4263   -8.0265   21.3542 C   0  0  0  0  0  0
  -21.9896   -9.0235   20.4645 C   0  0  0  0  0  0
  -22.7216  -10.2118   20.3060 C   0  0  0  0  0  0
  -21.6849   -6.0723   22.5267 C   0  0  0  0  0  0
  -21.4014   -6.5628   23.8202 C   0  0  0  0  0  0
  -21.3662   -5.6785   24.9164 C   0  0  0  0  0  0
  -21.6042   -4.3046   24.7214 C   0  0  0  0  0  0
  -21.8824   -3.8136   23.4337 C   0  0  0  0  0  0
  -21.9194   -4.6953   22.3392 C   0  0  0  0  0  0
  -22.7822  -13.5217   21.1854 C   0  0  0  0  0  0
  -22.1663   -4.2134   21.0965 F   0  0  0  0  0  0
  -21.5636   -3.4531   25.7735 F   0  0  0  0  0  0
  -29.9818  -13.5166   20.3907 N   0  0  0  0  0  0
  -26.2928  -12.9344   20.3287 N   0  0  0  0  0  0
  -25.9300  -11.6502   20.5779 N   0  0  0  0  0  0
  -22.0473  -12.8203   22.0410 N   0  0  0  0  0  0
  -25.4185  -15.1881   20.4010 N   0  0  0  0  0  0
  -31.7938  -14.8627   20.2393 O   0  0  0  0  0  0
  -21.6632   -6.8861   21.4228 O   0  0  0  0  0  0
  -22.3511  -14.5517   20.6692 O   0  0  0  0  0  0
  -24.6291  -31.8571   23.1970 C   0  0  0  0  0  0
  -25.9126  -32.4759   23.8305 C   0  0  1  0  0  0
  -27.2156  -27.2624   20.1244 C   0  0  0  0  0  0
  -25.5939  -33.8556   24.2238 N   0  0  0  0  0  0
  -23.4243  -30.4787   21.5433 C   0  0  2  0  0  0
  -24.8701  -28.9262   20.1099 C   0  0  0  0  0  0
  -22.7497  -29.4582   22.4910 C   0  0  0  0  0  0
  -18.0300  -28.1356   22.8462 C   0  0  0  0  0  0
  -24.1505  -36.7279   23.2639 C   0  0  0  0  0  0
  -25.9712  -30.7687   21.3756 C   0  0  0  0  0  0
  -26.0453  -29.3929   20.7136 C   0  0  0  0  0  0
  -27.2224  -28.5775   20.7026 C   0  0  0  0  0  0
  -26.0113  -26.8569   19.5068 C   0  0  0  0  0  0
  -24.8588  -27.6654   19.4956 C   0  0  0  0  0  0
  -23.6416  -29.8142   20.1598 C   0  0  0  0  0  0
  -25.4126  -36.3055   24.0319 C   0  0  1  0  0  0
  -20.5901  -28.3676   23.1258 C   0  0  2  0  0  0
  -20.6791  -26.9396   22.5391 C   0  0  0  0  0  0
  -19.5765  -26.6363   21.5186 C   0  0  0  0  0  0
  -18.1944  -26.7896   22.1602 C   0  0  0  0  0  0
  -19.1559  -28.8822   23.2849 C   0  0  0  0  0  0
  -18.9480  -30.1420   23.8863 C   0  0  0  0  0  0
  -17.6486  -30.6561   24.0532 C   0  0  0  0  0  0
  -25.9063  -34.9438   23.5076 C   0  0  0  0  0  0
  -16.5367  -29.9050   23.6334 C   0  0  0  0  0  0
  -16.7289  -28.6473   23.0339 C   0  0  0  0  0  0
  -26.4479  -31.6589   25.0700 C   0  0  0  0  0  0
  -25.3703  -31.3759   26.1417 C   0  0  0  0  0  0
  -27.0340  -30.3013   24.6200 C   0  0  0  0  0  0
  -27.6028  -32.4341   25.7475 C   0  0  0  0  0  0
  -27.5574  -37.1785   24.8464 C   0  0  0  0  0  0
  -21.4203  -29.3022   22.3652 N   0  0  0  0  0  0
  -26.4290  -37.3752   23.9410 N   0  0  0  0  0  0
  -24.6945  -31.0520   22.0950 N   0  0  0  0  0  0
  -23.4215  -28.8110   23.2989 O   0  0  0  0  0  0
  -28.3108  -26.3649   20.1446 O   0  0  0  0  0  0
  -26.5636  -34.8922   22.4642 O   0  0  0  0  0  0
  -23.5439  -32.1401   23.7270 O   0  0  0  0  0  0
  -30.5350  -17.4571   22.2682 C   0  0  0  0  0  0
  -30.1078  -19.8812   22.1596 C   0  0  0  0  0  0
  -29.4714  -18.4435   20.3130 C   0  0  0  0  0  0
  -30.5846  -18.7442   22.8507 C   0  0  0  0  0  0
  -29.9652  -17.2517   20.9930 C   0  0  0  0  0  0
  -29.5431  -19.7921   20.8643 C   0  0  0  0  0  0
  -29.7603  -23.6276   18.9180 C   0  0  0  0  0  0
  -28.9002  -23.6124   19.9567 C   0  0  0  0  0  0
  -31.1141  -18.9090   24.2649 C   0  0  0  0  0  0
  -28.0210  -24.8998   20.3457 C   0  0  0  0  0  0
  -28.8087  -22.2792   20.8195 C   0  0  0  0  0  0
  -29.7553  -15.8531   20.5461 N   0  0  0  0  0  0
  -29.1104  -20.9630   20.1617 O   0  0  0  0  0  0
  -31.4781  -12.6252   19.1480 H   0  0  0  0  0  0
  -30.4186  -11.4898   19.9468 H   0  0  0  0  0  0
  -29.7893  -11.7165   17.5231 H   0  0  0  0  0  0
  -29.6177  -13.4466   17.7027 H   0  0  0  0  0  0
  -27.9114  -11.2651   18.9406 H   0  0  0  0  0  0
  -27.3679  -12.4802   17.8116 H   0  0  0  0  0  0
  -27.6336  -14.2363   19.4570 H   0  0  0  0  0  0
  -28.7354  -12.1470   21.4098 H   0  0  0  0  0  0
  -28.4246  -13.8235   21.7954 H   0  0  0  0  0  0
  -25.2749   -9.5667   22.4769 H   0  0  0  0  0  0
  -23.9984   -7.4621   22.7483 H   0  0  0  0  0  0
  -21.0833   -8.8748   19.8955 H   0  0  0  0  0  0
  -22.3679  -10.9654   19.6169 H   0  0  0  0  0  0
  -21.2011   -7.6141   23.9690 H   0  0  0  0  0  0
  -21.1484   -6.0522   25.9061 H   0  0  0  0  0  0
  -22.0608   -2.7597   23.2835 H   0  0  0  0  0  0
  -22.4110  -11.9856   22.4772 H   0  0  0  0  0  0
  -21.1105  -13.1238   22.2664 H   0  0  0  0  0  0
  -24.6419  -15.8344   20.4884 H   0  0  0  0  0  0
  -26.2505  -15.6215   20.0230 H   0  0  0  0  0  0
  -26.7196  -32.5410   23.1043 H   0  0  0  0  0  0
  -25.0064  -33.9688   25.0364 H   0  0  0  0  0  0
  -22.7182  -31.2992   21.3973 H   0  0  0  0  0  0
  -23.3764  -35.9607   23.3304 H   0  0  0  0  0  0
  -24.3592  -36.8897   22.2054 H   0  0  0  0  0  0
  -23.7288  -37.6486   23.6680 H   0  0  0  0  0  0
  -26.1145  -31.5337   20.6102 H   0  0  0  0  0  0
  -26.8483  -30.8153   22.0108 H   0  0  0  0  0  0
  -28.1242  -28.9364   21.1789 H   0  0  0  0  0  0
  -25.9361  -25.8919   19.0274 H   0  0  0  0  0  0
  -23.9594  -27.2956   19.0217 H   0  0  0  0  0  0
  -23.7639  -30.5940   19.4076 H   0  0  0  0  0  0
  -22.7596  -29.2483   19.8558 H   0  0  0  0  0  0
  -25.1314  -36.1868   25.0811 H   0  0  0  0  0  0
  -20.9993  -28.3250   24.1377 H   0  0  0  0  0  0
  -20.5683  -26.2287   23.3590 H   0  0  0  0  0  0
  -21.6658  -26.7400   22.1178 H   0  0  0  0  0  0
  -19.6950  -25.6278   21.1212 H   0  0  0  0  0  0
  -19.6713  -27.3167   20.6716 H   0  0  0  0  0  0
  -17.4212  -26.6622   21.4007 H   0  0  0  0  0  0
  -18.0343  -26.0017   22.8991 H   0  0  0  0  0  0
  -19.7963  -30.7225   24.2227 H   0  0  0  0  0  0
  -17.5052  -31.6256   24.5127 H   0  0  0  0  0  0
  -15.5368  -30.2946   23.7688 H   0  0  0  0  0  0
  -15.8679  -28.0798   22.7069 H   0  0  0  0  0  0
  -24.5890  -30.7083   25.7771 H   0  0  0  0  0  0
  -24.8857  -32.2931   26.4782 H   0  0  0  0  0  0
  -25.7981  -30.8998   27.0242 H   0  0  0  0  0  0
  -26.2935  -29.6748   24.1213 H   0  0  0  0  0  0
  -27.4045  -29.7271   25.4700 H   0  0  0  0  0  0
  -27.8793  -30.4316   23.9431 H   0  0  0  0  0  0
  -27.2650  -33.3688   26.1953 H   0  0  0  0  0  0
  -28.3863  -32.6821   25.0311 H   0  0  0  0  0  0
  -28.0663  -31.8539   26.5458 H   0  0  0  0  0  0
  -28.2560  -38.0104   24.7493 H   0  0  0  0  0  0
  -28.1091  -36.2627   24.6300 H   0  0  0  0  0  0
  -27.2282  -37.1425   25.8860 H   0  0  0  0  0  0
  -20.9385  -29.8758   21.6871 H   0  0  0  0  0  0
  -26.0159  -38.2805   24.1435 H   0  0  0  0  0  0
  -30.8890  -16.6095   22.8394 H   0  0  0  0  0  0
  -30.1981  -20.8316   22.6610 H   0  0  0  0  0  0
  -29.0106  -18.3261   19.3428 H   0  0  0  0  0  0
  -29.8883  -24.5043   18.3000 H   0  0  0  0  0  0
  -30.3512  -22.7562   18.6713 H   0  0  0  0  0  0
  -30.3274  -18.6878   24.9888 H   0  0  0  0  0  0
  -31.4600  -19.9278   24.4485 H   0  0  0  0  0  0
  -31.9494  -18.2366   24.4608 H   0  0  0  0  0  0
  -27.8659  -24.9538   19.2693 H   0  0  0  0  0  0
  -28.8842  -25.0478   20.9943 H   0  0  0  0  0  0
  -27.7952  -22.2129   21.2192 H   0  0  0  0  0  0
  -29.4599  -22.4592   21.6700 H   0  0  0  0  0  0
  -28.7866  -15.6117   20.4055 H   0  0  0  0  0  0
  1 25  1  0  0  0
  1 30  2  0  0  0
  1 82  1  0  0  0
  2  3  1  0  0  0
  2 25  1  0  0  0
  2 84  1  0  0  0
  2 85  1  0  0  0
  3  4  1  0  0  0
  3 86  1  0  0  0
  3 87  1  0  0  0
  4  5  1  0  0  0
  4 88  1  0  0  0
  4 89  1  0  0  0
  5  6  1  0  0  0
  5 26  1  0  0  0
  5 90  1  0  0  0
  6 25  1  0  0  0
  6 91  1  0  0  0
  6 92  1  0  0  0
  7  8  2  0  0  0
  7 26  1  0  0  0
  7 29  1  0  0  0
  8  9  1  0  0  0
  8 22  1  0  0  0
  9 10  1  0  0  0
  9 27  2  0  0  0
 10 11  2  0  0  0
 10 15  1  0  0  0
 11 12  1  0  0  0
 11 93  1  0  0  0
 12 13  2  0  0  0
 12 94  1  0  0  0
 13 14  1  0  0  0
 13 31  1  0  0  0
 14 15  2  0  0  0
 14 95  1  0  0  0
 15 96  1  0  0  0
 16 17  2  0  0  0
 16 21  1  0  0  0
 16 31  1  0  0  0
 17 18  1  0  0  0
 17 97  1  0  0  0
 18 19  2  0  0  0
 18 98  1  0  0  0
 19 20  1  0  0  0
 19 24  1  0  0  0
 20 21  2  0  0  0
 20 99  1  0  0  0
 21 23  1  0  0  0
 22 28  1  0  0  0
 22 32  2  0  0  0
 26 27  1  0  0  0
 28100  1  0  0  0
 28101  1  0  0  0
 29102  1  0  0  0
 29103  1  0  0  0
 33 34  1  0  0  0
 33 66  1  0  0  0
 33 70  2  0  0  0
 34 36  1  0  0  0
 34 59  1  0  0  0
 34104  1  0  0  0
 35 44  2  0  0  0
 35 45  1  0  0  0
 35 68  1  0  0  0
 36 56  1  0  0  0
 36105  1  0  0  0
 37 39  1  0  0  0
 37 47  1  0  0  0
 37 66  1  0  0  0
 37106  1  0  0  0
 38 43  2  0  0  0
 38 46  1  0  0  0
 38 47  1  0  0  0
 39 64  1  0  0  0
 39 67  2  0  0  0
 40 52  1  0  0  0
 40 53  2  0  0  0
 40 58  1  0  0  0
 41107  1  0  0  0
 41108  1  0  0  0
 41109  1  0  0  0
 41 48  1  0  0  0
 42 43  1  0  0  0
 42 66  1  0  0  0
 42110  1  0  0  0
 42111  1  0  0  0
 43 44  1  0  0  0
 44112  1  0  0  0
 45 46  2  0  0  0
 45113  1  0  0  0
 46114  1  0  0  0
 47115  1  0  0  0
 47116  1  0  0  0
 48 56  1  0  0  0
 48 65  1  0  0  0
 48117  1  0  0  0
 49 50  1  0  0  0
 49 53  1  0  0  0
 49 64  1  0  0  0
 49118  1  0  0  0
 50 51  1  0  0  0
 50119  1  0  0  0
 50120  1  0  0  0
 51 52  1  0  0  0
 51121  1  0  0  0
 51122  1  0  0  0
 52123  1  0  0  0
 52124  1  0  0  0
 53 54  1  0  0  0
 54 55  2  0  0  0
 54125  1  0  0  0
 55 57  1  0  0  0
 55126  1  0  0  0
 56 69  2  0  0  0
 57 58  2  0  0  0
 57127  1  0  0  0
 58128  1  0  0  0
 59 60  1  0  0  0
 59 61  1  0  0  0
 59 62  1  0  0  0
 60129  1  0  0  0
 60130  1  0  0  0
 60131  1  0  0  0
 61132  1  0  0  0
 61133  1  0  0  0
 61134  1  0  0  0
 62135  1  0  0  0
 62136  1  0  0  0
 62137  1  0  0  0
 63 65  1  0  0  0
 63138  1  0  0  0
 63139  1  0  0  0
 63140  1  0  0  0
 64141  1  0  0  0
 65142  1  0  0  0
 68 80  1  0  0  0
 71 74  2  0  0  0
 71 75  1  0  0  0
 71143  1  0  0  0
 72 74  1  0  0  0
 72 76  2  0  0  0
 72144  1  0  0  0
 73 75  2  0  0  0
 73 76  1  0  0  0
 73145  1  0  0  0
 74 79  1  0  0  0
 75 82  1  0  0  0
 76 83  1  0  0  0
 77 78  2  0  0  0
 77146  1  0  0  0
 77147  1  0  0  0
 78 80  1  0  0  0
 78 81  1  0  0  0
 79148  1  0  0  0
 79149  1  0  0  0
 79150  1  0  0  0
 80151  1  0  0  0
 80152  1  0  0  0
 81 83  1  0  0  0
 81153  1  0  0  0
 81154  1  0  0  0
 82155  1  0  0  0
M  ISO  4   1 100  68 101  80 101  82 100
M  END
> <chiral flag>
0

> <version>
0

> <s_m_source_file>
/data/baiqing/PycharmProjects/Reinvent-master-3.2/result/LINK_invent/BTK/process_docking_weight1_custom_product_contain_oxygen_bond_distance_aromatic_linkinvent_7_9_3/rearranged_h_0126.sdf

> <i_m_source_file_index>
23

> <r_mmod_Potential_Energy-OPLS-2005>
433.097991943359

> <r_mmod_Stretch_Energy-OPLS-2005>
125.995803833008

> <r_mmod_Bend_Energy-OPLS-2005>
362.635955810547

> <r_mmod_Torsional_Energy-OPLS-2005>
249.800704956055

> <r_mmod_Improper_Torsional_Energy-OPLS-2005>
9.55832958221436

> <r_mmod_Van_der_Waal_Energy-OPLS-2005>
147.768920898438

> <r_mmod_Electrostatic_Energy-OPLS-2005>
-340.512359619141

> <r_mmod_Solvation_Energy-OPLS-2005>
-209.634231567383

> <b_mmod_Minimization_Converged-OPLS-2005>
0

> <r_mmod_RMS_Derivative-OPLS-2005>
2.75134325027466

$$$$
23
                    3D
 Structure written by MMmdl.
158166  0  0  1  0            999 V2000
  -30.6050  -14.7479   20.4556 C   0  0  0  0  0  0
  -30.4314  -12.4509   19.4919 C   0  0  0  0  0  0
  -29.5171  -12.5139   18.2480 C   0  0  0  0  0  0
  -28.0411  -12.3397   18.6536 C   0  0  0  0  0  0
  -27.6448  -13.2347   19.8580 C   0  0  2  0  0  0
  -28.6836  -13.1626   20.9995 C   0  0  0  0  0  0
  -25.2510  -13.8200   20.5695 C   0  0  0  0  0  0
  -24.1799  -13.0442   20.9196 C   0  0  0  0  0  0
  -24.6390  -11.6919   20.8734 C   0  0  0  0  0  0
  -23.9067  -10.4295   21.0398 C   0  0  0  0  0  0
  -24.3616   -9.4211   21.9179 C   0  0  0  0  0  0
  -23.6292   -8.2246   22.0749 C   0  0  0  0  0  0
  -22.4274   -8.0278   21.3542 C   0  0  0  0  0  0
  -21.9910   -9.0251   20.4646 C   0  0  0  0  0  0
  -22.7237  -10.2130   20.3052 C   0  0  0  0  0  0
  -21.6856   -6.0732   22.5278 C   0  0  0  0  0  0
  -21.4016   -6.5637   23.8210 C   0  0  0  0  0  0
  -21.3662   -5.6791   24.9172 C   0  0  0  0  0  0
  -21.6045   -4.3053   24.7225 C   0  0  0  0  0  0
  -21.8820   -3.8144   23.4346 C   0  0  0  0  0  0
  -21.9193   -4.6959   22.3402 C   0  0  0  0  0  0
  -22.7823  -13.5223   21.1861 C   0  0  0  0  0  0
  -22.1662   -4.2147   21.0979 F   0  0  0  0  0  0
  -21.5628   -3.4536   25.7736 F   0  0  0  0  0  0
  -29.9920  -13.5118   20.4316 N   0  0  0  0  0  0
  -26.2941  -12.9416   20.3291 N   0  0  0  0  0  0
  -25.9322  -11.6554   20.5740 N   0  0  0  0  0  0
  -22.0470  -12.8209   22.0417 N   0  0  0  0  0  0
  -25.4205  -15.1925   20.4126 N   0  0  0  0  0  0
  -31.7807  -14.8410   20.0850 O   0  0  0  0  0  0
  -21.6638   -6.8873   21.4240 O   0  0  0  0  0  0
  -22.3509  -14.5530   20.6710 O   0  0  0  0  0  0
  -24.6331  -31.8545   23.1989 C   0  0  0  0  0  0
  -25.9153  -32.4746   23.8335 C   0  0  1  0  0  0
  -27.2146  -27.2456   20.1282 C   0  0  0  0  0  0
  -25.5948  -33.8548   24.2257 N   0  0  0  0  0  0
  -23.4302  -30.4786   21.5422 C   0  0  2  0  0  0
  -24.8774  -28.9278   20.1073 C   0  0  0  0  0  0
  -22.7514  -29.4597   22.4902 C   0  0  0  0  0  0
  -18.0300  -28.1382   22.8487 C   0  0  0  0  0  0
  -24.1492  -36.7275   23.2640 C   0  0  0  0  0  0
  -25.9784  -30.7612   21.3843 C   0  0  0  0  0  0
  -26.0494  -29.3839   20.7235 C   0  0  0  0  0  0
  -27.2188  -28.5539   20.7265 C   0  0  0  0  0  0
  -26.0219  -26.8729   19.4649 C   0  0  0  0  0  0
  -24.8699  -27.6813   19.4671 C   0  0  0  0  0  0
  -23.6496  -29.8167   20.1570 C   0  0  0  0  0  0
  -25.4119  -36.3060   24.0326 C   0  0  1  0  0  0
  -20.5906  -28.3695   23.1265 C   0  0  2  0  0  0
  -20.6784  -26.9409   22.5407 C   0  0  0  0  0  0
  -19.5755  -26.6379   21.5213 C   0  0  0  0  0  0
  -18.1937  -26.7925   22.1625 C   0  0  0  0  0  0
  -19.1554  -28.8855   23.2872 C   0  0  0  0  0  0
  -18.9471  -30.1458   23.8888 C   0  0  0  0  0  0
  -17.6468  -30.6582   24.0562 C   0  0  0  0  0  0
  -25.9062  -34.9431   23.5090 C   0  0  0  0  0  0
  -16.5360  -29.9075   23.6334 C   0  0  0  0  0  0
  -16.7284  -28.6494   23.0354 C   0  0  0  0  0  0
  -26.4513  -31.6577   25.0733 C   0  0  0  0  0  0
  -25.3732  -31.3736   26.1452 C   0  0  0  0  0  0
  -27.0370  -30.2991   24.6241 C   0  0  0  0  0  0
  -27.6062  -32.4326   25.7507 C   0  0  0  0  0  0
  -27.5581  -37.1791   24.8463 C   0  0  0  0  0  0
  -21.4221  -29.3040   22.3649 N   0  0  0  0  0  0
  -26.4289  -37.3766   23.9411 N   0  0  0  0  0  0
  -24.6995  -31.0498   22.0976 N   0  0  0  0  0  0
  -23.4204  -28.8132   23.3005 O   0  0  0  0  0  0
  -28.2930  -26.3273   20.2137 O   0  0  0  0  0  0
  -26.5631  -34.8907   22.4658 O   0  0  0  0  0  0
  -23.5478  -32.1375   23.7274 O   0  0  0  0  0  0
  -29.6498  -19.6293   18.6471 C   0  0  0  0  0  0
  -30.0010  -17.2255   18.7259 C   0  0  0  0  0  0
  -29.8981  -18.4151   17.9853 C   0  0  0  0  0  0
  -29.4866  -19.6661   20.0456 C   0  0  0  0  0  0
  -29.8417  -17.2208   20.1258 C   0  0  0  0  0  0
  -28.9913  -22.2666   20.0694 C   0  0  0  0  0  0
  -29.2853  -21.0602   20.7223 C   0  0  0  0  0  0
  -28.9280  -23.7319   20.5941 C   0  0  0  0  0  0
  -29.5024  -20.9971   22.2295 C   0  0  0  0  0  0
  -31.5277  -18.2105   16.0615 C   0  0  0  0  0  0
  -30.0630  -18.3807   16.4776 C   0  0  0  0  0  0
  -28.0559  -24.8705   19.8753 C   0  0  0  0  0  0
  -29.5679  -18.4493   20.7438 N   0  0  0  0  0  0
  -29.8549  -15.8789   20.7657 N   0  0  0  0  0  0
  -29.5886  -24.0869   21.5753 O   0  0  0  0  0  0
  -31.4755  -12.5641   19.1951 H   0  0  0  0  0  0
  -30.3648  -11.4714   19.9677 H   0  0  0  0  0  0
  -29.8009  -11.7425   17.5308 H   0  0  0  0  0  0
  -29.6509  -13.4700   17.7397 H   0  0  0  0  0  0
  -27.8935  -11.2900   18.9099 H   0  0  0  0  0  0
  -27.3889  -12.5398   17.8029 H   0  0  0  0  0  0
  -27.6431  -14.2583   19.4827 H   0  0  0  0  0  0
  -28.7121  -12.1630   21.4362 H   0  0  0  0  0  0
  -28.4125  -13.8400   21.8102 H   0  0  0  0  0  0
  -25.2759   -9.5692   22.4754 H   0  0  0  0  0  0
  -24.0005   -7.4638   22.7463 H   0  0  0  0  0  0
  -21.0846   -8.8767   19.8951 H   0  0  0  0  0  0
  -22.3691  -10.9666   19.6162 H   0  0  0  0  0  0
  -21.2008   -7.6145   23.9713 H   0  0  0  0  0  0
  -21.1486   -6.0519   25.9076 H   0  0  0  0  0  0
  -22.0598   -2.7606   23.2844 H   0  0  0  0  0  0
  -22.4086  -11.9877   22.4818 H   0  0  0  0  0  0
  -21.1084  -13.1234   22.2616 H   0  0  0  0  0  0
  -24.6522  -15.8454   20.5211 H   0  0  0  0  0  0
  -26.2658  -15.6334   20.0727 H   0  0  0  0  0  0
  -26.7217  -32.5389   23.1072 H   0  0  0  0  0  0
  -25.0111  -33.9684   25.0412 H   0  0  0  0  0  0
  -22.7277  -31.3022   21.3977 H   0  0  0  0  0  0
  -23.3757  -35.9604   23.3294 H   0  0  0  0  0  0
  -24.3589  -36.8907   22.2057 H   0  0  0  0  0  0
  -23.7237  -37.6470   23.6671 H   0  0  0  0  0  0
  -26.1252  -31.5235   20.6176 H   0  0  0  0  0  0
  -26.8525  -30.8053   22.0221 H   0  0  0  0  0  0
  -28.1111  -28.8928   21.2339 H   0  0  0  0  0  0
  -25.9390  -25.9302   18.9464 H   0  0  0  0  0  0
  -23.9749  -27.3306   18.9718 H   0  0  0  0  0  0
  -23.7774  -30.5950   19.4040 H   0  0  0  0  0  0
  -22.7667  -29.2539   19.8492 H   0  0  0  0  0  0
  -25.1299  -36.1906   25.0819 H   0  0  0  0  0  0
  -21.0010  -28.3270   24.1382 H   0  0  0  0  0  0
  -20.5689  -26.2299   23.3611 H   0  0  0  0  0  0
  -21.6652  -26.7428   22.1199 H   0  0  0  0  0  0
  -19.6915  -25.6290   21.1243 H   0  0  0  0  0  0
  -19.6692  -27.3190   20.6744 H   0  0  0  0  0  0
  -17.4211  -26.6687   21.4022 H   0  0  0  0  0  0
  -18.0328  -26.0064   22.9017 H   0  0  0  0  0  0
  -19.7945  -30.7285   24.2246 H   0  0  0  0  0  0
  -17.5016  -31.6261   24.5164 H   0  0  0  0  0  0
  -15.5355  -30.2967   23.7662 H   0  0  0  0  0  0
  -15.8689  -28.0806   22.7066 H   0  0  0  0  0  0
  -24.5901  -30.7093   25.7783 H   0  0  0  0  0  0
  -24.8933  -32.2910   26.4872 H   0  0  0  0  0  0
  -25.8046  -30.8915   27.0234 H   0  0  0  0  0  0
  -26.2963  -29.6725   24.1259 H   0  0  0  0  0  0
  -27.4039  -29.7272   25.4773 H   0  0  0  0  0  0
  -27.8848  -30.4262   23.9505 H   0  0  0  0  0  0
  -27.2666  -33.3632   26.2067 H   0  0  0  0  0  0
  -28.3881  -32.6876   25.0340 H   0  0  0  0  0  0
  -28.0722  -31.8464   26.5439 H   0  0  0  0  0  0
  -28.2586  -38.0102   24.7527 H   0  0  0  0  0  0
  -28.1090  -36.2633   24.6264 H   0  0  0  0  0  0
  -27.2305  -37.1412   25.8867 H   0  0  0  0  0  0
  -20.9402  -29.8766   21.6862 H   0  0  0  0  0  0
  -26.0164  -38.2837   24.1419 H   0  0  0  0  0  0
  -29.6127  -20.5333   18.0590 H   0  0  0  0  0  0
  -30.1833  -16.3028   18.1919 H   0  0  0  0  0  0
  -28.7998  -22.2116   19.0105 H   0  0  0  0  0  0
  -28.8264  -20.2637   22.6699 H   0  0  0  0  0  0
  -29.3201  -21.9386   22.7414 H   0  0  0  0  0  0
  -30.5244  -20.6853   22.4459 H   0  0  0  0  0  0
  -31.6222  -18.1870   14.9758 H   0  0  0  0  0  0
  -31.9427  -17.2809   16.4522 H   0  0  0  0  0  0
  -32.1392  -19.0335   16.4320 H   0  0  0  0  0  0
  -29.6580  -19.2941   16.0403 H   0  0  0  0  0  0
  -29.4654  -17.5616   16.0750 H   0  0  0  0  0  0
  -27.0296  -24.6100   20.1309 H   0  0  0  0  0  0
  -28.1509  -24.7459   18.7967 H   0  0  0  0  0  0
  -29.0410  -15.6893   21.3288 H   0  0  0  0  0  0
  1 25  1  0  0  0
  1 30  2  0  0  0
  1 84  1  0  0  0
  2  3  1  0  0  0
  2 25  1  0  0  0
  2 86  1  0  0  0
  2 87  1  0  0  0
  3  4  1  0  0  0
  3 88  1  0  0  0
  3 89  1  0  0  0
  4  5  1  0  0  0
  4 90  1  0  0  0
  4 91  1  0  0  0
  5  6  1  0  0  0
  5 26  1  0  0  0
  5 92  1  0  0  0
  6 25  1  0  0  0
  6 93  1  0  0  0
  6 94  1  0  0  0
  7  8  2  0  0  0
  7 26  1  0  0  0
  7 29  1  0  0  0
  8  9  1  0  0  0
  8 22  1  0  0  0
  9 10  1  0  0  0
  9 27  2  0  0  0
 10 11  2  0  0  0
 10 15  1  0  0  0
 11 12  1  0  0  0
 11 95  1  0  0  0
 12 13  2  0  0  0
 12 96  1  0  0  0
 13 14  1  0  0  0
 13 31  1  0  0  0
 14 15  2  0  0  0
 14 97  1  0  0  0
 15 98  1  0  0  0
 16 17  2  0  0  0
 16 21  1  0  0  0
 16 31  1  0  0  0
 17 18  1  0  0  0
 17 99  1  0  0  0
 18 19  2  0  0  0
 18100  1  0  0  0
 19 20  1  0  0  0
 19 24  1  0  0  0
 20 21  2  0  0  0
 20101  1  0  0  0
 21 23  1  0  0  0
 22 28  1  0  0  0
 22 32  2  0  0  0
 26 27  1  0  0  0
 28102  1  0  0  0
 28103  1  0  0  0
 29104  1  0  0  0
 29105  1  0  0  0
 33 34  1  0  0  0
 33 66  1  0  0  0
 33 70  2  0  0  0
 34 36  1  0  0  0
 34 59  1  0  0  0
 34106  1  0  0  0
 35 44  2  0  0  0
 35 45  1  0  0  0
 35 68  1  0  0  0
 36 56  1  0  0  0
 36107  1  0  0  0
 37 39  1  0  0  0
 37 47  1  0  0  0
 37 66  1  0  0  0
 37108  1  0  0  0
 38 43  2  0  0  0
 38 46  1  0  0  0
 38 47  1  0  0  0
 39 64  1  0  0  0
 39 67  2  0  0  0
 40 52  1  0  0  0
 40 53  2  0  0  0
 40 58  1  0  0  0
 41109  1  0  0  0
 41110  1  0  0  0
 41111  1  0  0  0
 41 48  1  0  0  0
 42 43  1  0  0  0
 42 66  1  0  0  0
 42112  1  0  0  0
 42113  1  0  0  0
 43 44  1  0  0  0
 44114  1  0  0  0
 45 46  2  0  0  0
 45115  1  0  0  0
 46116  1  0  0  0
 47117  1  0  0  0
 47118  1  0  0  0
 48 56  1  0  0  0
 48 65  1  0  0  0
 48119  1  0  0  0
 49 50  1  0  0  0
 49 53  1  0  0  0
 49 64  1  0  0  0
 49120  1  0  0  0
 50 51  1  0  0  0
 50121  1  0  0  0
 50122  1  0  0  0
 51 52  1  0  0  0
 51123  1  0  0  0
 51124  1  0  0  0
 52125  1  0  0  0
 52126  1  0  0  0
 53 54  1  0  0  0
 54 55  2  0  0  0
 54127  1  0  0  0
 55 57  1  0  0  0
 55128  1  0  0  0
 56 69  2  0  0  0
 57 58  2  0  0  0
 57129  1  0  0  0
 58130  1  0  0  0
 59 60  1  0  0  0
 59 61  1  0  0  0
 59 62  1  0  0  0
 60131  1  0  0  0
 60132  1  0  0  0
 60133  1  0  0  0
 61134  1  0  0  0
 61135  1  0  0  0
 61136  1  0  0  0
 62137  1  0  0  0
 62138  1  0  0  0
 62139  1  0  0  0
 63 65  1  0  0  0
 63140  1  0  0  0
 63141  1  0  0  0
 63142  1  0  0  0
 64143  1  0  0  0
 65144  1  0  0  0
 68 82  1  0  0  0
 71 73  2  0  0  0
 71 74  1  0  0  0
 71145  1  0  0  0
 72 73  1  0  0  0
 72 75  2  0  0  0
 72146  1  0  0  0
 73 81  1  0  0  0
 74 77  1  0  0  0
 74 83  2  0  0  0
 75 83  1  0  0  0
 75 84  1  0  0  0
 76 77  2  0  0  0
 76 78  1  0  0  0
 76147  1  0  0  0
 77 79  1  0  0  0
 78 82  1  0  0  0
 78 85  2  0  0  0
 79148  1  0  0  0
 79149  1  0  0  0
 79150  1  0  0  0
 80 81  1  0  0  0
 80151  1  0  0  0
 80152  1  0  0  0
 80153  1  0  0  0
 81154  1  0  0  0
 81155  1  0  0  0
 82156  1  0  0  0
 82157  1  0  0  0
 84158  1  0  0  0
M  ISO  4   1 100  68 101  82 101  84 100
M  END
> <chiral flag>
0

> <version>
0

> <s_m_source_file>
/data/baiqing/PycharmProjects/Reinvent-master-3.2/result/LINK_invent/BTK/process_docking_weight1_custom_product_contain_oxygen_bond_distance_aromatic_linkinvent_7_9_3/rearranged_h_0126.sdf

> <i_m_source_file_index>
24

> <r_mmod_Potential_Energy-OPLS-2005>
1.83745586872101

> <r_mmod_Stretch_Energy-OPLS-2005>
138.827545166016

> <r_mmod_Bend_Energy-OPLS-2005>
163.500564575195

> <r_mmod_Torsional_Energy-OPLS-2005>
237.517593383789

> <r_mmod_Improper_Torsional_Energy-OPLS-2005>
4.92982053756714

> <r_mmod_Van_der_Waal_Energy-OPLS-2005>
148.523864746094

> <r_mmod_Electrostatic_Energy-OPLS-2005>
-542.832092285156

> <r_mmod_Solvation_Energy-OPLS-2005>
-240.273773193359

> <b_mmod_Minimization_Converged-OPLS-2005>
0

> <r_mmod_RMS_Derivative-OPLS-2005>
0.770730793476105

$$$$
24
                    3D
 Structure written by MMmdl.
153161  0  0  1  0            999 V2000
  -30.6020  -14.7578   20.4102 C   0  0  0  0  0  0
  -30.4386  -12.4419   19.4907 C   0  0  0  0  0  0
  -29.5215  -12.4540   18.2469 C   0  0  0  0  0  0
  -28.0410  -12.3140   18.6539 C   0  0  0  0  0  0
  -27.6437  -13.2309   19.8417 C   0  0  2  0  0  0
  -28.6855  -13.1801   20.9804 C   0  0  0  0  0  0
  -25.2525  -13.8199   20.5671 C   0  0  0  0  0  0
  -24.1814  -13.0447   20.9199 C   0  0  0  0  0  0
  -24.6405  -11.6926   20.8740 C   0  0  0  0  0  0
  -23.9080  -10.4302   21.0402 C   0  0  0  0  0  0
  -24.3631   -9.4208   21.9180 C   0  0  0  0  0  0
  -23.6307   -8.2238   22.0745 C   0  0  0  0  0  0
  -22.4282   -8.0282   21.3538 C   0  0  0  0  0  0
  -21.9924   -9.0256   20.4638 C   0  0  0  0  0  0
  -22.7255  -10.2134   20.3053 C   0  0  0  0  0  0
  -21.6849   -6.0740   22.5282 C   0  0  0  0  0  0
  -21.4011   -6.5643   23.8216 C   0  0  0  0  0  0
  -21.3660   -5.6790   24.9175 C   0  0  0  0  0  0
  -21.6049   -4.3055   24.7223 C   0  0  0  0  0  0
  -21.8818   -3.8148   23.4341 C   0  0  0  0  0  0
  -21.9189   -4.6967   22.3396 C   0  0  0  0  0  0
  -22.7834  -13.5223   21.1868 C   0  0  0  0  0  0
  -22.1659   -4.2154   21.0974 F   0  0  0  0  0  0
  -21.5632   -3.4539   25.7738 F   0  0  0  0  0  0
  -29.9879  -13.5242   20.3982 N   0  0  0  0  0  0
  -26.2948  -12.9409   20.3225 N   0  0  0  0  0  0
  -25.9334  -11.6554   20.5734 N   0  0  0  0  0  0
  -22.0483  -12.8200   22.0420 N   0  0  0  0  0  0
  -25.4231  -15.1924   20.4090 N   0  0  0  0  0  0
  -31.8031  -14.8385   20.1397 O   0  0  0  0  0  0
  -21.6635   -6.8885   21.4246 O   0  0  0  0  0  0
  -22.3511  -14.5519   20.6715 O   0  0  0  0  0  0
  -24.6306  -31.8560   23.1976 C   0  0  0  0  0  0
  -25.9131  -32.4760   23.8328 C   0  0  1  0  0  0
  -27.2273  -27.2775   20.1188 C   0  0  0  0  0  0
  -25.5926  -33.8560   24.2257 N   0  0  0  0  0  0
  -23.4257  -30.4785   21.5404 C   0  0  2  0  0  0
  -24.8726  -28.9255   20.1094 C   0  0  0  0  0  0
  -22.7496  -29.4613   22.4913 C   0  0  0  0  0  0
  -18.0294  -28.1392   22.8487 C   0  0  0  0  0  0
  -24.1487  -36.7289   23.2640 C   0  0  0  0  0  0
  -25.9686  -30.7767   21.3709 C   0  0  0  0  0  0
  -26.0423  -29.3988   20.7154 C   0  0  0  0  0  0
  -27.2180  -28.5852   20.7115 C   0  0  0  0  0  0
  -26.0274  -26.8639   19.4940 C   0  0  0  0  0  0
  -24.8698  -27.6668   19.4905 C   0  0  0  0  0  0
  -23.6417  -29.8088   20.1573 C   0  0  0  0  0  0
  -25.4113  -36.3071   24.0328 C   0  0  1  0  0  0
  -20.5894  -28.3702   23.1270 C   0  0  2  0  0  0
  -20.6775  -26.9417   22.5406 C   0  0  0  0  0  0
  -19.5747  -26.6386   21.5216 C   0  0  0  0  0  0
  -18.1933  -26.7933   22.1627 C   0  0  0  0  0  0
  -19.1544  -28.8862   23.2873 C   0  0  0  0  0  0
  -18.9467  -30.1461   23.8889 C   0  0  0  0  0  0
  -17.6465  -30.6586   24.0562 C   0  0  0  0  0  0
  -25.9056  -34.9444   23.5098 C   0  0  0  0  0  0
  -16.5359  -29.9085   23.6323 C   0  0  0  0  0  0
  -16.7282  -28.6505   23.0347 C   0  0  0  0  0  0
  -26.4495  -31.6583   25.0717 C   0  0  0  0  0  0
  -25.3713  -31.3755   26.1439 C   0  0  0  0  0  0
  -27.0321  -30.2996   24.6184 C   0  0  0  0  0  0
  -27.6062  -32.4303   25.7486 C   0  0  0  0  0  0
  -27.5575  -37.1798   24.8459 C   0  0  0  0  0  0
  -21.4204  -29.3054   22.3658 N   0  0  0  0  0  0
  -26.4282  -37.3774   23.9410 N   0  0  0  0  0  0
  -24.6941  -31.0547   22.0935 N   0  0  0  0  0  0
  -23.4204  -28.8158   23.3006 O   0  0  0  0  0  0
  -28.3525  -26.4279   20.1999 O   0  0  0  0  0  0
  -26.5621  -34.8917   22.4664 O   0  0  0  0  0  0
  -23.5458  -32.1365   23.7290 O   0  0  0  0  0  0
  -29.8832  -19.8121   18.5498 C   0  0  0  0  0  0
  -30.2153  -18.6283   17.8771 C   0  0  0  0  0  0
  -29.5393  -18.5064   20.5637 C   0  0  0  0  0  0
  -29.5194  -19.8149   19.9101 C   0  0  0  0  0  0
  -30.2026  -17.3700   18.5116 C   0  0  0  0  0  0
  -29.9010  -17.2502   19.9019 C   0  0  0  0  0  0
  -29.1356  -21.1863   20.5242 C   0  0  0  0  0  0
  -28.9628  -22.4113   19.8851 C   0  0  0  0  0  0
  -28.6351  -23.7868   20.4976 C   0  0  0  0  0  0
  -30.4225  -16.1755   17.6014 C   0  0  0  0  0  0
  -28.4221  -25.0699   19.5653 C   0  0  0  0  0  0
  -29.8139  -15.9000   20.5447 N   0  0  0  0  0  0
  -28.5380  -23.9322   21.7200 O   0  0  0  0  0  0
  -31.4816  -12.5604   19.1906 H   0  0  0  0  0  0
  -30.3810  -11.4764   19.9965 H   0  0  0  0  0  0
  -29.7975  -11.6414   17.5736 H   0  0  0  0  0  0
  -29.6717  -13.3660   17.6768 H   0  0  0  0  0  0
  -27.8859  -11.2714   18.9310 H   0  0  0  0  0  0
  -27.3923  -12.4981   17.7971 H   0  0  0  0  0  0
  -27.6371  -14.2479   19.4478 H   0  0  0  0  0  0
  -28.7180  -12.1872   21.4321 H   0  0  0  0  0  0
  -28.4184  -13.8732   21.7796 H   0  0  0  0  0  0
  -25.2781   -9.5673   22.4751 H   0  0  0  0  0  0
  -24.0015   -7.4623   22.7460 H   0  0  0  0  0  0
  -21.0850   -8.8779   19.8951 H   0  0  0  0  0  0
  -22.3718  -10.9670   19.6155 H   0  0  0  0  0  0
  -21.2003   -7.6153   23.9721 H   0  0  0  0  0  0
  -21.1487   -6.0518   25.9078 H   0  0  0  0  0  0
  -22.0597   -2.7613   23.2831 H   0  0  0  0  0  0
  -22.4101  -11.9863   22.4801 H   0  0  0  0  0  0
  -21.1101  -13.1218   22.2639 H   0  0  0  0  0  0
  -24.6554  -15.8469   20.5150 H   0  0  0  0  0  0
  -26.2698  -15.6301   20.0682 H   0  0  0  0  0  0
  -26.7203  -32.5414   23.1080 H   0  0  0  0  0  0
  -25.0072  -33.9699   25.0397 H   0  0  0  0  0  0
  -22.7218  -31.3002   21.3940 H   0  0  0  0  0  0
  -23.3747  -35.9619   23.3290 H   0  0  0  0  0  0
  -24.3585  -36.8921   22.2055 H   0  0  0  0  0  0
  -23.7233  -37.6488   23.6668 H   0  0  0  0  0  0
  -26.0983  -31.5369   20.5990 H   0  0  0  0  0  0
  -26.8491  -30.8319   21.9996 H   0  0  0  0  0  0
  -28.1140  -28.9467   21.1973 H   0  0  0  0  0  0
  -25.9285  -25.8983   19.0269 H   0  0  0  0  0  0
  -23.9702  -27.2972   19.0180 H   0  0  0  0  0  0
  -23.7628  -30.5811   19.3968 H   0  0  0  0  0  0
  -22.7608  -29.2377   19.8571 H   0  0  0  0  0  0
  -25.1295  -36.1919   25.0819 H   0  0  0  0  0  0
  -20.9999  -28.3279   24.1385 H   0  0  0  0  0  0
  -20.5670  -26.2320   23.3619 H   0  0  0  0  0  0
  -21.6641  -26.7433   22.1207 H   0  0  0  0  0  0
  -19.6907  -25.6293   21.1252 H   0  0  0  0  0  0
  -19.6681  -27.3184   20.6735 H   0  0  0  0  0  0
  -17.4204  -26.6678   21.4033 H   0  0  0  0  0  0
  -18.0333  -26.0078   22.9029 H   0  0  0  0  0  0
  -19.7945  -30.7279   24.2253 H   0  0  0  0  0  0
  -17.5024  -31.6266   24.5168 H   0  0  0  0  0  0
  -15.5359  -30.2987   23.7651 H   0  0  0  0  0  0
  -15.8688  -28.0827   22.7056 H   0  0  0  0  0  0
  -24.5861  -30.7142   25.7763 H   0  0  0  0  0  0
  -24.8941  -32.2944   26.4859 H   0  0  0  0  0  0
  -25.8016  -30.8918   27.0219 H   0  0  0  0  0  0
  -26.2894  -29.6762   24.1196 H   0  0  0  0  0  0
  -27.3991  -29.7248   25.4698 H   0  0  0  0  0  0
  -27.8783  -30.4271   23.9427 H   0  0  0  0  0  0
  -27.2697  -33.3625   26.2038 H   0  0  0  0  0  0
  -28.3892  -32.6820   25.0321 H   0  0  0  0  0  0
  -28.0703  -31.8432   26.5421 H   0  0  0  0  0  0
  -28.2588  -38.0099   24.7507 H   0  0  0  0  0  0
  -28.1075  -36.2632   24.6277 H   0  0  0  0  0  0
  -27.2302  -37.1437   25.8864 H   0  0  0  0  0  0
  -20.9391  -29.8798   21.6882 H   0  0  0  0  0  0
  -26.0163  -38.2850   24.1400 H   0  0  0  0  0  0
  -29.9055  -20.7241   17.9737 H   0  0  0  0  0  0
  -30.4490  -18.6988   16.8231 H   0  0  0  0  0  0
  -29.2566  -18.4683   21.6057 H   0  0  0  0  0  0
  -29.0081  -21.1800   21.5982 H   0  0  0  0  0  0
  -29.0713  -22.4493   18.8131 H   0  0  0  0  0  0
  -30.4532  -16.4697   16.5519 H   0  0  0  0  0  0
  -29.5851  -15.4914   17.7069 H   0  0  0  0  0  0
  -31.3593  -15.6632   17.8117 H   0  0  0  0  0  0
  -27.5930  -24.8675   18.8940 H   0  0  0  0  0  0
  -29.2928  -25.1026   18.9095 H   0  0  0  0  0  0
  -28.9301  -15.7205   20.9952 H   0  0  0  0  0  0
  1 25  1  0  0  0
  1 30  2  0  0  0
  1 82  1  0  0  0
  2  3  1  0  0  0
  2 25  1  0  0  0
  2 84  1  0  0  0
  2 85  1  0  0  0
  3  4  1  0  0  0
  3 86  1  0  0  0
  3 87  1  0  0  0
  4  5  1  0  0  0
  4 88  1  0  0  0
  4 89  1  0  0  0
  5  6  1  0  0  0
  5 26  1  0  0  0
  5 90  1  0  0  0
  6 25  1  0  0  0
  6 91  1  0  0  0
  6 92  1  0  0  0
  7  8  2  0  0  0
  7 26  1  0  0  0
  7 29  1  0  0  0
  8  9  1  0  0  0
  8 22  1  0  0  0
  9 10  1  0  0  0
  9 27  2  0  0  0
 10 11  2  0  0  0
 10 15  1  0  0  0
 11 12  1  0  0  0
 11 93  1  0  0  0
 12 13  2  0  0  0
 12 94  1  0  0  0
 13 14  1  0  0  0
 13 31  1  0  0  0
 14 15  2  0  0  0
 14 95  1  0  0  0
 15 96  1  0  0  0
 16 17  2  0  0  0
 16 21  1  0  0  0
 16 31  1  0  0  0
 17 18  1  0  0  0
 17 97  1  0  0  0
 18 19  2  0  0  0
 18 98  1  0  0  0
 19 20  1  0  0  0
 19 24  1  0  0  0
 20 21  2  0  0  0
 20 99  1  0  0  0
 21 23  1  0  0  0
 22 28  1  0  0  0
 22 32  2  0  0  0
 26 27  1  0  0  0
 28100  1  0  0  0
 28101  1  0  0  0
 29102  1  0  0  0
 29103  1  0  0  0
 33 34  1  0  0  0
 33 66  1  0  0  0
 33 70  2  0  0  0
 34 36  1  0  0  0
 34 59  1  0  0  0
 34104  1  0  0  0
 35 44  2  0  0  0
 35 45  1  0  0  0
 35 68  1  0  0  0
 36 56  1  0  0  0
 36105  1  0  0  0
 37 39  1  0  0  0
 37 47  1  0  0  0
 37 66  1  0  0  0
 37106  1  0  0  0
 38 43  2  0  0  0
 38 46  1  0  0  0
 38 47  1  0  0  0
 39 64  1  0  0  0
 39 67  2  0  0  0
 40 52  1  0  0  0
 40 53  2  0  0  0
 40 58  1  0  0  0
 41107  1  0  0  0
 41108  1  0  0  0
 41109  1  0  0  0
 41 48  1  0  0  0
 42 43  1  0  0  0
 42 66  1  0  0  0
 42110  1  0  0  0
 42111  1  0  0  0
 43 44  1  0  0  0
 44112  1  0  0  0
 45 46  2  0  0  0
 45113  1  0  0  0
 46114  1  0  0  0
 47115  1  0  0  0
 47116  1  0  0  0
 48 56  1  0  0  0
 48 65  1  0  0  0
 48117  1  0  0  0
 49 50  1  0  0  0
 49 53  1  0  0  0
 49 64  1  0  0  0
 49118  1  0  0  0
 50 51  1  0  0  0
 50119  1  0  0  0
 50120  1  0  0  0
 51 52  1  0  0  0
 51121  1  0  0  0
 51122  1  0  0  0
 52123  1  0  0  0
 52124  1  0  0  0
 53 54  1  0  0  0
 54 55  2  0  0  0
 54125  1  0  0  0
 55 57  1  0  0  0
 55126  1  0  0  0
 56 69  2  0  0  0
 57 58  2  0  0  0
 57127  1  0  0  0
 58128  1  0  0  0
 59 60  1  0  0  0
 59 61  1  0  0  0
 59 62  1  0  0  0
 60129  1  0  0  0
 60130  1  0  0  0
 60131  1  0  0  0
 61132  1  0  0  0
 61133  1  0  0  0
 61134  1  0  0  0
 62135  1  0  0  0
 62136  1  0  0  0
 62137  1  0  0  0
 63 65  1  0  0  0
 63138  1  0  0  0
 63139  1  0  0  0
 63140  1  0  0  0
 64141  1  0  0  0
 65142  1  0  0  0
 68 81  1  0  0  0
 71 72  2  0  0  0
 71 74  1  0  0  0
 71143  1  0  0  0
 72 75  1  0  0  0
 72144  1  0  0  0
 73 74  2  0  0  0
 73 76  1  0  0  0
 73145  1  0  0  0
 74 77  1  0  0  0
 75 76  2  0  0  0
 75 80  1  0  0  0
 76 82  1  0  0  0
 77 78  2  0  0  0
 77146  1  0  0  0
 78 79  1  0  0  0
 78147  1  0  0  0
 79 81  1  0  0  0
 79 83  2  0  0  0
 80148  1  0  0  0
 80149  1  0  0  0
 80150  1  0  0  0
 81151  1  0  0  0
 81152  1  0  0  0
 82153  1  0  0  0
M  ISO  4   1 100  68 101  81 101  82 100
M  END
> <chiral flag>
0

> <version>
0

> <s_m_source_file>
/data/baiqing/PycharmProjects/Reinvent-master-3.2/result/LINK_invent/BTK/process_docking_weight1_custom_product_contain_oxygen_bond_distance_aromatic_linkinvent_7_9_3/rearranged_h_0126.sdf

> <i_m_source_file_index>
25

> <r_mmod_Potential_Energy-OPLS-2005>
165.492034912109

> <r_mmod_Stretch_Energy-OPLS-2005>
125.623550415039

> <r_mmod_Bend_Energy-OPLS-2005>
162.685928344727

> <r_mmod_Torsional_Energy-OPLS-2005>
235.893569946289

> <r_mmod_Improper_Torsional_Energy-OPLS-2005>
5.52134895324707

> <r_mmod_Van_der_Waal_Energy-OPLS-2005>
145.038269042969

> <r_mmod_Electrostatic_Energy-OPLS-2005>
-358.529541015625

> <r_mmod_Solvation_Energy-OPLS-2005>
-235.611251831055

> <b_mmod_Minimization_Converged-OPLS-2005>
0

> <r_mmod_RMS_Derivative-OPLS-2005>
1.64242672920227

$$$$
25
                    3D
 Structure written by MMmdl.
155163  0  0  1  0            999 V2000
  -30.7046  -14.5610   20.4541 C   0  0  0  0  0  0
  -30.4164  -12.3244   19.4635 C   0  0  0  0  0  0
  -29.5093  -12.4770   18.2243 C   0  0  0  0  0  0
  -28.0284  -12.3379   18.6280 C   0  0  0  0  0  0
  -27.6511  -13.2191   19.8517 C   0  0  2  0  0  0
  -28.6953  -13.0933   20.9847 C   0  0  0  0  0  0
  -25.2521  -13.8140   20.5663 C   0  0  0  0  0  0
  -24.1806  -13.0406   20.9195 C   0  0  0  0  0  0
  -24.6393  -11.6883   20.8725 C   0  0  0  0  0  0
  -23.9058  -10.4276   21.0406 C   0  0  0  0  0  0
  -24.3610   -9.4191   21.9181 C   0  0  0  0  0  0
  -23.6290   -8.2233   22.0749 C   0  0  0  0  0  0
  -22.4269   -8.0278   21.3549 C   0  0  0  0  0  0
  -21.9896   -9.0253   20.4660 C   0  0  0  0  0  0
  -22.7228  -10.2128   20.3066 C   0  0  0  0  0  0
  -21.6855   -6.0734   22.5278 C   0  0  0  0  0  0
  -21.4028   -6.5635   23.8215 C   0  0  0  0  0  0
  -21.3655   -5.6777   24.9168 C   0  0  0  0  0  0
  -21.6038   -4.3035   24.7236 C   0  0  0  0  0  0
  -21.8812   -3.8146   23.4345 C   0  0  0  0  0  0
  -21.9189   -4.6961   22.3398 C   0  0  0  0  0  0
  -22.7836  -13.5211   21.1845 C   0  0  0  0  0  0
  -22.1651   -4.2141   21.0982 F   0  0  0  0  0  0
  -21.5616   -3.4523   25.7746 F   0  0  0  0  0  0
  -30.0228  -13.3742   20.4210 N   0  0  0  0  0  0
  -26.2969  -12.9357   20.3250 N   0  0  0  0  0  0
  -25.9325  -11.6506   20.5738 N   0  0  0  0  0  0
  -22.0460  -12.8255   22.0433 N   0  0  0  0  0  0
  -25.4112  -15.1856   20.4095 N   0  0  0  0  0  0
  -31.8999  -14.5994   20.1568 O   0  0  0  0  0  0
  -21.6628   -6.8880   21.4245 O   0  0  0  0  0  0
  -22.3515  -14.5490   20.6633 O   0  0  0  0  0  0
  -24.6219  -31.8635   23.2087 C   0  0  0  0  0  0
  -25.9089  -32.4787   23.8392 C   0  0  1  0  0  0
  -27.2178  -27.3491   20.0997 C   0  0  0  0  0  0
  -25.5918  -33.8584   24.2290 N   0  0  0  0  0  0
  -23.4145  -30.4913   21.5480 C   0  0  2  0  0  0
  -24.8609  -28.9615   20.1077 C   0  0  0  0  0  0
  -22.7450  -29.4643   22.4922 C   0  0  0  0  0  0
  -18.0286  -28.1385   22.8490 C   0  0  0  0  0  0
  -24.1489  -36.7299   23.2632 C   0  0  0  0  0  0
  -25.9568  -30.7958   21.3873 C   0  0  0  0  0  0
  -26.0275  -29.4297   20.7242 C   0  0  0  0  0  0
  -27.2072  -28.6319   20.7225 C   0  0  0  0  0  0
  -26.0274  -26.9439   19.4429 C   0  0  0  0  0  0
  -24.8619  -27.7213   19.4599 C   0  0  0  0  0  0
  -23.6289  -29.8355   20.1605 C   0  0  0  0  0  0
  -25.4107  -36.3079   24.0323 C   0  0  1  0  0  0
  -20.5881  -28.3681   23.1280 C   0  0  2  0  0  0
  -20.6772  -26.9405   22.5413 C   0  0  0  0  0  0
  -19.5756  -26.6384   21.5203 C   0  0  0  0  0  0
  -18.1934  -26.7933   22.1618 C   0  0  0  0  0  0
  -19.1540  -28.8849   23.2882 C   0  0  0  0  0  0
  -18.9459  -30.1445   23.8904 C   0  0  0  0  0  0
  -17.6464  -30.6594   24.0558 C   0  0  0  0  0  0
  -25.9045  -34.9444   23.5100 C   0  0  0  0  0  0
  -16.5349  -29.9093   23.6329 C   0  0  0  0  0  0
  -16.7274  -28.6503   23.0361 C   0  0  0  0  0  0
  -26.4486  -31.6600   25.0764 C   0  0  0  0  0  0
  -25.3718  -31.3761   26.1494 C   0  0  0  0  0  0
  -27.0329  -30.3010   24.6254 C   0  0  0  0  0  0
  -27.6044  -32.4349   25.7519 C   0  0  0  0  0  0
  -27.5582  -37.1795   24.8446 C   0  0  0  0  0  0
  -21.4170  -29.3044   22.3679 N   0  0  0  0  0  0
  -26.4279  -37.3780   23.9420 N   0  0  0  0  0  0
  -24.6816  -31.0673   22.1029 N   0  0  0  0  0  0
  -23.4189  -28.8163   23.2973 O   0  0  0  0  0  0
  -28.3322  -26.5009   20.1546 O   0  0  0  0  0  0
  -26.5622  -34.8905   22.4669 O   0  0  0  0  0  0
  -23.5387  -32.1421   23.7416 O   0  0  0  0  0  0
  -30.7839  -19.5160   20.5318 C   0  0  0  0  0  0
  -30.3867  -20.8698   20.3509 C   0  0  0  0  0  0
  -28.2372  -20.0902   19.5917 C   0  0  0  0  0  0
  -29.9358  -18.4167   20.2210 C   0  0  0  0  0  0
  -29.0970  -21.1804   19.8648 C   0  0  0  0  0  0
  -28.6358  -18.7372   19.7431 C   0  0  0  0  0  0
  -30.4964  -17.0232   20.3408 C   0  0  0  0  0  0
  -29.9127  -15.8065   20.5741 C   0  0  0  0  0  0
  -27.6661  -17.6648   19.2838 C   0  0  0  0  0  0
  -28.5958  -22.5994   19.4821 C   0  0  0  0  0  0
  -29.0799  -23.9262   20.1758 C   0  0  0  0  0  0
  -28.0791  -25.0911   19.8363 C   0  0  0  0  0  0
  -31.4678  -12.3797   19.1763 H   0  0  0  0  0  0
  -30.2885  -11.3370   19.9108 H   0  0  0  0  0  0
  -29.7676  -11.7264   17.4751 H   0  0  0  0  0  0
  -29.6741  -13.4485   17.7552 H   0  0  0  0  0  0
  -27.8501  -11.2889   18.8643 H   0  0  0  0  0  0
  -27.3825  -12.5702   17.7801 H   0  0  0  0  0  0
  -27.6646  -14.2503   19.5003 H   0  0  0  0  0  0
  -28.6802  -12.0897   21.4102 H   0  0  0  0  0  0
  -28.4655  -13.7662   21.8123 H   0  0  0  0  0  0
  -25.2775   -9.5664   22.4733 H   0  0  0  0  0  0
  -23.9999   -7.4621   22.7471 H   0  0  0  0  0  0
  -21.0807   -8.8788   19.8983 H   0  0  0  0  0  0
  -22.3691  -10.9667   19.6166 H   0  0  0  0  0  0
  -21.2037   -7.6145   23.9722 H   0  0  0  0  0  0
  -21.1472   -6.0505   25.9064 H   0  0  0  0  0  0
  -22.0601   -2.7614   23.2842 H   0  0  0  0  0  0
  -22.4071  -11.9955   22.4908 H   0  0  0  0  0  0
  -21.1093  -13.1317   22.2623 H   0  0  0  0  0  0
  -24.6334  -15.8289   20.5153 H   0  0  0  0  0  0
  -26.2535  -15.6275   20.0708 H   0  0  0  0  0  0
  -26.7153  -32.5459   23.1137 H   0  0  0  0  0  0
  -25.0038  -33.9739   25.0416 H   0  0  0  0  0  0
  -22.7070  -31.3110   21.4090 H   0  0  0  0  0  0
  -23.3751  -35.9631   23.3273 H   0  0  0  0  0  0
  -24.3584  -36.8950   22.2053 H   0  0  0  0  0  0
  -23.7244  -37.6493   23.6670 H   0  0  0  0  0  0
  -26.1005  -31.5635   20.6257 H   0  0  0  0  0  0
  -26.8316  -30.8308   22.0234 H   0  0  0  0  0  0
  -28.0956  -28.9766   21.2313 H   0  0  0  0  0  0
  -25.9510  -26.0122   18.9036 H   0  0  0  0  0  0
  -23.9732  -27.3639   18.9587 H   0  0  0  0  0  0
  -23.7450  -30.6133   19.4048 H   0  0  0  0  0  0
  -22.7527  -29.2601   19.8580 H   0  0  0  0  0  0
  -25.1285  -36.1922   25.0815 H   0  0  0  0  0  0
  -20.9974  -28.3254   24.1394 H   0  0  0  0  0  0
  -20.5662  -26.2279   23.3606 H   0  0  0  0  0  0
  -21.6641  -26.7436   22.1211 H   0  0  0  0  0  0
  -19.6911  -25.6287   21.1251 H   0  0  0  0  0  0
  -19.6708  -27.3177   20.6718 H   0  0  0  0  0  0
  -17.4204  -26.6674   21.4024 H   0  0  0  0  0  0
  -18.0340  -26.0071   22.9008 H   0  0  0  0  0  0
  -19.7929  -30.7252   24.2284 H   0  0  0  0  0  0
  -17.5021  -31.6278   24.5158 H   0  0  0  0  0  0
  -15.5350  -30.3001   23.7650 H   0  0  0  0  0  0
  -15.8669  -28.0821   22.7084 H   0  0  0  0  0  0
  -24.5848  -30.7171   25.7825 H   0  0  0  0  0  0
  -24.8962  -32.2939   26.4954 H   0  0  0  0  0  0
  -25.8024  -30.8899   27.0252 H   0  0  0  0  0  0
  -26.2918  -29.6778   24.1238 H   0  0  0  0  0  0
  -27.3949  -29.7267   25.4793 H   0  0  0  0  0  0
  -27.8826  -30.4282   23.9542 H   0  0  0  0  0  0
  -27.2634  -33.3608   26.2157 H   0  0  0  0  0  0
  -28.3804  -32.6992   25.0326 H   0  0  0  0  0  0
  -28.0776  -31.8461   26.5386 H   0  0  0  0  0  0
  -28.2567  -38.0124   24.7530 H   0  0  0  0  0  0
  -28.1111  -36.2657   24.6208 H   0  0  0  0  0  0
  -27.2314  -37.1368   25.8851 H   0  0  0  0  0  0
  -20.9330  -29.8754   21.6896 H   0  0  0  0  0  0
  -26.0154  -38.2844   24.1464 H   0  0  0  0  0  0
  -31.7894  -19.3190   20.8797 H   0  0  0  0  0  0
  -31.0929  -21.6626   20.5567 H   0  0  0  0  0  0
  -27.2561  -20.2992   19.1883 H   0  0  0  0  0  0
  -31.5588  -17.0101   20.1457 H   0  0  0  0  0  0
  -28.8649  -15.7513   20.8104 H   0  0  0  0  0  0
  -26.7920  -18.0996   18.7991 H   0  0  0  0  0  0
  -27.3096  -17.0937   20.1371 H   0  0  0  0  0  0
  -28.1359  -16.9918   18.5663 H   0  0  0  0  0  0
  -27.5102  -22.5626   19.5866 H   0  0  0  0  0  0
  -28.7675  -22.7062   18.4091 H   0  0  0  0  0  0
  -30.0880  -24.1724   19.8416 H   0  0  0  0  0  0
  -29.1251  -23.7955   21.2570 H   0  0  0  0  0  0
  -27.1516  -24.7980   20.3349 H   0  0  0  0  0  0
  -27.8897  -25.0403   18.7629 H   0  0  0  0  0  0
  1 25  1  0  0  0
  1 30  2  0  0  0
  1 78  1  0  0  0
  2  3  1  0  0  0
  2 25  1  0  0  0
  2 83  1  0  0  0
  2 84  1  0  0  0
  3  4  1  0  0  0
  3 85  1  0  0  0
  3 86  1  0  0  0
  4  5  1  0  0  0
  4 87  1  0  0  0
  4 88  1  0  0  0
  5  6  1  0  0  0
  5 26  1  0  0  0
  5 89  1  0  0  0
  6 25  1  0  0  0
  6 90  1  0  0  0
  6 91  1  0  0  0
  7  8  2  0  0  0
  7 26  1  0  0  0
  7 29  1  0  0  0
  8  9  1  0  0  0
  8 22  1  0  0  0
  9 10  1  0  0  0
  9 27  2  0  0  0
 10 11  2  0  0  0
 10 15  1  0  0  0
 11 12  1  0  0  0
 11 92  1  0  0  0
 12 13  2  0  0  0
 12 93  1  0  0  0
 13 14  1  0  0  0
 13 31  1  0  0  0
 14 15  2  0  0  0
 14 94  1  0  0  0
 15 95  1  0  0  0
 16 17  2  0  0  0
 16 21  1  0  0  0
 16 31  1  0  0  0
 17 18  1  0  0  0
 17 96  1  0  0  0
 18 19  2  0  0  0
 18 97  1  0  0  0
 19 20  1  0  0  0
 19 24  1  0  0  0
 20 21  2  0  0  0
 20 98  1  0  0  0
 21 23  1  0  0  0
 22 28  1  0  0  0
 22 32  2  0  0  0
 26 27  1  0  0  0
 28 99  1  0  0  0
 28100  1  0  0  0
 29101  1  0  0  0
 29102  1  0  0  0
 33 34  1  0  0  0
 33 66  1  0  0  0
 33 70  2  0  0  0
 34 36  1  0  0  0
 34 59  1  0  0  0
 34103  1  0  0  0
 35 44  2  0  0  0
 35 45  1  0  0  0
 35 68  1  0  0  0
 36 56  1  0  0  0
 36104  1  0  0  0
 37 39  1  0  0  0
 37 47  1  0  0  0
 37 66  1  0  0  0
 37105  1  0  0  0
 38 43  2  0  0  0
 38 46  1  0  0  0
 38 47  1  0  0  0
 39 64  1  0  0  0
 39 67  2  0  0  0
 40 52  1  0  0  0
 40 53  2  0  0  0
 40 58  1  0  0  0
 41106  1  0  0  0
 41107  1  0  0  0
 41108  1  0  0  0
 41 48  1  0  0  0
 42 43  1  0  0  0
 42 66  1  0  0  0
 42109  1  0  0  0
 42110  1  0  0  0
 43 44  1  0  0  0
 44111  1  0  0  0
 45 46  2  0  0  0
 45112  1  0  0  0
 46113  1  0  0  0
 47114  1  0  0  0
 47115  1  0  0  0
 48 56  1  0  0  0
 48 65  1  0  0  0
 48116  1  0  0  0
 49 50  1  0  0  0
 49 53  1  0  0  0
 49 64  1  0  0  0
 49117  1  0  0  0
 50 51  1  0  0  0
 50118  1  0  0  0
 50119  1  0  0  0
 51 52  1  0  0  0
 51120  1  0  0  0
 51121  1  0  0  0
 52122  1  0  0  0
 52123  1  0  0  0
 53 54  1  0  0  0
 54 55  2  0  0  0
 54124  1  0  0  0
 55 57  1  0  0  0
 55125  1  0  0  0
 56 69  2  0  0  0
 57 58  2  0  0  0
 57126  1  0  0  0
 58127  1  0  0  0
 59 60  1  0  0  0
 59 61  1  0  0  0
 59 62  1  0  0  0
 60128  1  0  0  0
 60129  1  0  0  0
 60130  1  0  0  0
 61131  1  0  0  0
 61132  1  0  0  0
 61133  1  0  0  0
 62134  1  0  0  0
 62135  1  0  0  0
 62136  1  0  0  0
 63 65  1  0  0  0
 63137  1  0  0  0
 63138  1  0  0  0
 63139  1  0  0  0
 64140  1  0  0  0
 65141  1  0  0  0
 68 82  1  0  0  0
 71 72  2  0  0  0
 71 74  1  0  0  0
 71142  1  0  0  0
 72 75  1  0  0  0
 72143  1  0  0  0
 73 75  2  0  0  0
 73 76  1  0  0  0
 73144  1  0  0  0
 74 76  2  0  0  0
 74 77  1  0  0  0
 75 80  1  0  0  0
 76 79  1  0  0  0
 77 78  2  0  0  0
 77145  1  0  0  0
 78146  1  0  0  0
 79147  1  0  0  0
 79148  1  0  0  0
 79149  1  0  0  0
 80 81  1  0  0  0
 80150  1  0  0  0
 80151  1  0  0  0
 81 82  1  0  0  0
 81152  1  0  0  0
 81153  1  0  0  0
 82154  1  0  0  0
 82155  1  0  0  0
M  ISO  4   1 100  68 101  78 100  82 101
M  END
> <chiral flag>
0

> <version>
0

> <s_m_source_file>
/data/baiqing/PycharmProjects/Reinvent-master-3.2/result/LINK_invent/BTK/process_docking_weight1_custom_product_contain_oxygen_bond_distance_aromatic_linkinvent_7_9_3/rearranged_h_0126.sdf

> <i_m_source_file_index>
26

> <r_mmod_Potential_Energy-OPLS-2005>
65.8363342285156

> <r_mmod_Stretch_Energy-OPLS-2005>
58.2092132568359

> <r_mmod_Bend_Energy-OPLS-2005>
139.730911254883

> <r_mmod_Torsional_Energy-OPLS-2005>
194.04182434082

> <r_mmod_Improper_Torsional_Energy-OPLS-2005>
7.61992740631104

> <r_mmod_Van_der_Waal_Energy-OPLS-2005>
161.931900024414

> <r_mmod_Electrostatic_Energy-OPLS-2005>
-343.298522949219

> <r_mmod_Solvation_Energy-OPLS-2005>
-193.110900878906

> <b_mmod_Minimization_Converged-OPLS-2005>
0

> <r_mmod_RMS_Derivative-OPLS-2005>
2.919677734375

$$$$
26
                    3D
 Structure written by MMmdl.
153161  0  0  1  0            999 V2000
  -30.5978  -14.7461   20.4987 C   0  0  0  0  0  0
  -30.4456  -12.4682   19.4650 C   0  0  0  0  0  0
  -29.5140  -12.5008   18.2339 C   0  0  0  0  0  0
  -28.0437  -12.3134   18.6572 C   0  0  0  0  0  0
  -27.6443  -13.2219   19.8493 C   0  0  2  0  0  0
  -28.6879  -13.1566   20.9842 C   0  0  0  0  0  0
  -25.2544  -13.8180   20.5688 C   0  0  0  0  0  0
  -24.1824  -13.0437   20.9214 C   0  0  0  0  0  0
  -24.6404  -11.6914   20.8761 C   0  0  0  0  0  0
  -23.9080  -10.4293   21.0423 C   0  0  0  0  0  0
  -24.3625   -9.4206   21.9201 C   0  0  0  0  0  0
  -23.6287   -8.2246   22.0764 C   0  0  0  0  0  0
  -22.4272   -8.0289   21.3547 C   0  0  0  0  0  0
  -21.9918   -9.0266   20.4652 C   0  0  0  0  0  0
  -22.7257  -10.2142   20.3066 C   0  0  0  0  0  0
  -21.6853   -6.0742   22.5274 C   0  0  0  0  0  0
  -21.4013   -6.5639   23.8208 C   0  0  0  0  0  0
  -21.3649   -5.6787   24.9167 C   0  0  0  0  0  0
  -21.6051   -4.3050   24.7218 C   0  0  0  0  0  0
  -21.8820   -3.8143   23.4337 C   0  0  0  0  0  0
  -21.9194   -4.6968   22.3395 C   0  0  0  0  0  0
  -22.7857  -13.5243   21.1857 C   0  0  0  0  0  0
  -22.1665   -4.2149   21.0972 F   0  0  0  0  0  0
  -21.5624   -3.4535   25.7734 F   0  0  0  0  0  0
  -29.9838  -13.5195   20.3982 N   0  0  0  0  0  0
  -26.2955  -12.9357   20.3268 N   0  0  0  0  0  0
  -25.9331  -11.6516   20.5766 N   0  0  0  0  0  0
  -22.0485  -12.8223   22.0392 N   0  0  0  0  0  0
  -25.4237  -15.1909   20.4082 N   0  0  0  0  0  0
  -31.7964  -14.8571   20.2188 O   0  0  0  0  0  0
  -21.6638   -6.8889   21.4238 O   0  0  0  0  0  0
  -22.3539  -14.5548   20.6709 O   0  0  0  0  0  0
  -24.6293  -31.8551   23.1976 C   0  0  0  0  0  0
  -25.9120  -32.4761   23.8326 C   0  0  1  0  0  0
  -27.2242  -27.2687   20.1354 C   0  0  0  0  0  0
  -25.5917  -33.8563   24.2261 N   0  0  0  0  0  0
  -23.4280  -30.4730   21.5426 C   0  0  2  0  0  0
  -24.8782  -28.9163   20.1137 C   0  0  0  0  0  0
  -22.7512  -29.4564   22.4924 C   0  0  0  0  0  0
  -18.0285  -28.1379   22.8455 C   0  0  0  0  0  0
  -24.1491  -36.7289   23.2641 C   0  0  0  0  0  0
  -25.9714  -30.7677   21.3795 C   0  0  0  0  0  0
  -26.0472  -29.3893   20.7239 C   0  0  0  0  0  0
  -27.2270  -28.5780   20.7198 C   0  0  0  0  0  0
  -26.0375  -26.8564   19.4982 C   0  0  0  0  0  0
  -24.8774  -27.6592   19.4869 C   0  0  0  0  0  0
  -23.6478  -29.8032   20.1591 C   0  0  0  0  0  0
  -25.4116  -36.3086   24.0326 C   0  0  1  0  0  0
  -20.5879  -28.3697   23.1261 C   0  0  2  0  0  0
  -20.6769  -26.9418   22.5390 C   0  0  0  0  0  0
  -19.5754  -26.6380   21.5183 C   0  0  0  0  0  0
  -18.1935  -26.7917   22.1594 C   0  0  0  0  0  0
  -19.1534  -28.8853   23.2848 C   0  0  0  0  0  0
  -18.9469  -30.1445   23.8876 C   0  0  0  0  0  0
  -17.6476  -30.6577   24.0546 C   0  0  0  0  0  0
  -25.9049  -34.9450   23.5105 C   0  0  0  0  0  0
  -16.5360  -29.9066   23.6329 C   0  0  0  0  0  0
  -16.7275  -28.6486   23.0336 C   0  0  0  0  0  0
  -26.4496  -31.6586   25.0717 C   0  0  0  0  0  0
  -25.3715  -31.3710   26.1437 C   0  0  0  0  0  0
  -27.0362  -30.3012   24.6189 C   0  0  0  0  0  0
  -27.6059  -32.4331   25.7477 C   0  0  0  0  0  0
  -27.5586  -37.1801   24.8464 C   0  0  0  0  0  0
  -21.4216  -29.3045   22.3680 N   0  0  0  0  0  0
  -26.4307  -37.3770   23.9402 N   0  0  0  0  0  0
  -24.6949  -31.0500   22.0968 N   0  0  0  0  0  0
  -23.4214  -28.8084   23.3004 O   0  0  0  0  0  0
  -28.3189  -26.3826   20.1349 O   0  0  0  0  0  0
  -26.5630  -34.8923   22.4679 O   0  0  0  0  0  0
  -23.5442  -32.1392   23.7264 O   0  0  0  0  0  0
  -31.1839  -18.7223   22.6590 C   0  0  0  0  0  0
  -30.9517  -17.4432   22.1269 C   0  0  0  0  0  0
  -29.4725  -18.4755   20.4990 C   0  0  0  0  0  0
  -29.7269  -19.8316   20.9901 C   0  0  0  0  0  0
  -30.6006  -19.8936   22.1212 C   0  0  0  0  0  0
  -30.0853  -17.2612   21.0352 C   0  0  0  0  0  0
  -29.1370  -21.1270   20.3374 C   0  0  0  0  0  0
  -28.9681  -22.4294   20.8114 C   0  0  0  0  0  0
  -28.5241  -23.6998   20.0481 C   0  0  0  0  0  0
  -30.9958  -21.1938   22.8078 C   0  0  0  0  0  0
  -28.1571  -25.0569   20.8216 C   0  0  0  0  0  0
  -29.7841  -15.8653   20.6282 N   0  0  0  0  0  0
  -28.4284  -23.6988   18.8170 O   0  0  0  0  0  0
  -31.4798  -12.6223   19.1535 H   0  0  0  0  0  0
  -30.4188  -11.4916   19.9513 H   0  0  0  0  0  0
  -29.8017  -11.7228   17.5254 H   0  0  0  0  0  0
  -29.6273  -13.4509   17.7098 H   0  0  0  0  0  0
  -27.9203  -11.2675   18.9406 H   0  0  0  0  0  0
  -27.3780  -12.4799   17.8095 H   0  0  0  0  0  0
  -27.6397  -14.2405   19.4612 H   0  0  0  0  0  0
  -28.7326  -12.1604   21.4275 H   0  0  0  0  0  0
  -28.4216  -13.8399   21.7920 H   0  0  0  0  0  0
  -25.2775   -9.5672   22.4773 H   0  0  0  0  0  0
  -23.9990   -7.4642   22.7496 H   0  0  0  0  0  0
  -21.0848   -8.8812   19.8956 H   0  0  0  0  0  0
  -22.3742  -10.9691   19.6169 H   0  0  0  0  0  0
  -21.2008   -7.6151   23.9710 H   0  0  0  0  0  0
  -21.1465   -6.0520   25.9073 H   0  0  0  0  0  0
  -22.0609   -2.7611   23.2841 H   0  0  0  0  0  0
  -22.4076  -11.9863   22.4758 H   0  0  0  0  0  0
  -21.1109  -13.1267   22.2603 H   0  0  0  0  0  0
  -24.6552  -15.8426   20.5242 H   0  0  0  0  0  0
  -26.2584  -15.6301   20.0413 H   0  0  0  0  0  0
  -26.7188  -32.5423   23.1069 H   0  0  0  0  0  0
  -25.0070  -33.9685   25.0412 H   0  0  0  0  0  0
  -22.7238  -31.2942   21.3963 H   0  0  0  0  0  0
  -23.3769  -35.9611   23.3301 H   0  0  0  0  0  0
  -24.3574  -36.8915   22.2057 H   0  0  0  0  0  0
  -23.7227  -37.6476   23.6669 H   0  0  0  0  0  0
  -26.1055  -31.5286   20.6095 H   0  0  0  0  0  0
  -26.8500  -30.8193   22.0112 H   0  0  0  0  0  0
  -28.1296  -28.9345   21.1967 H   0  0  0  0  0  0
  -26.0064  -25.8949   19.0047 H   0  0  0  0  0  0
  -23.9850  -27.2965   18.9932 H   0  0  0  0  0  0
  -23.7729  -30.5791   19.4034 H   0  0  0  0  0  0
  -22.7667  -29.2357   19.8549 H   0  0  0  0  0  0
  -25.1298  -36.1947   25.0819 H   0  0  0  0  0  0
  -20.9951  -28.3273   24.1382 H   0  0  0  0  0  0
  -20.5669  -26.2300   23.3592 H   0  0  0  0  0  0
  -21.6642  -26.7442   22.1184 H   0  0  0  0  0  0
  -19.6932  -25.6292   21.1208 H   0  0  0  0  0  0
  -19.6688  -27.3200   20.6727 H   0  0  0  0  0  0
  -17.4197  -26.6654   21.4002 H   0  0  0  0  0  0
  -18.0339  -26.0066   22.8999 H   0  0  0  0  0  0
  -19.7957  -30.7235   24.2246 H   0  0  0  0  0  0
  -17.5037  -31.6254   24.5166 H   0  0  0  0  0  0
  -15.5359  -30.2955   23.7670 H   0  0  0  0  0  0
  -15.8672  -28.0798   22.7052 H   0  0  0  0  0  0
  -24.5877  -30.7087   25.7733 H   0  0  0  0  0  0
  -24.8923  -32.2876   26.4891 H   0  0  0  0  0  0
  -25.8024  -30.8843   27.0194 H   0  0  0  0  0  0
  -26.2949  -29.6722   24.1249 H   0  0  0  0  0  0
  -27.4105  -29.7295   25.4688 H   0  0  0  0  0  0
  -27.8791  -30.4299   23.9396 H   0  0  0  0  0  0
  -27.2682  -33.3657   26.2001 H   0  0  0  0  0  0
  -28.3879  -32.6839   25.0299 H   0  0  0  0  0  0
  -28.0710  -31.8486   26.5421 H   0  0  0  0  0  0
  -28.2593  -38.0110   24.7519 H   0  0  0  0  0  0
  -28.1098  -36.2635   24.6295 H   0  0  0  0  0  0
  -27.2295  -37.1442   25.8865 H   0  0  0  0  0  0
  -20.9422  -29.8787   21.6895 H   0  0  0  0  0  0
  -26.0201  -38.2848   24.1411 H   0  0  0  0  0  0
  -31.8398  -18.7971   23.5153 H   0  0  0  0  0  0
  -31.4229  -16.5929   22.6020 H   0  0  0  0  0  0
  -28.7891  -18.3649   19.6696 H   0  0  0  0  0  0
  -28.8575  -20.9801   19.3041 H   0  0  0  0  0  0
  -29.1830  -22.6351   21.8429 H   0  0  0  0  0  0
  -31.2974  -21.9582   22.0927 H   0  0  0  0  0  0
  -31.8464  -21.0519   23.4746 H   0  0  0  0  0  0
  -30.1761  -21.5620   23.4259 H   0  0  0  0  0  0
  -28.7647  -25.0912   21.7262 H   0  0  0  0  0  0
  -27.1285  -24.9543   21.1664 H   0  0  0  0  0  0
  -28.8013  -15.6552   20.5487 H   0  0  0  0  0  0
  1 25  1  0  0  0
  1 30  2  0  0  0
  1 82  1  0  0  0
  2  3  1  0  0  0
  2 25  1  0  0  0
  2 84  1  0  0  0
  2 85  1  0  0  0
  3  4  1  0  0  0
  3 86  1  0  0  0
  3 87  1  0  0  0
  4  5  1  0  0  0
  4 88  1  0  0  0
  4 89  1  0  0  0
  5  6  1  0  0  0
  5 26  1  0  0  0
  5 90  1  0  0  0
  6 25  1  0  0  0
  6 91  1  0  0  0
  6 92  1  0  0  0
  7  8  2  0  0  0
  7 26  1  0  0  0
  7 29  1  0  0  0
  8  9  1  0  0  0
  8 22  1  0  0  0
  9 10  1  0  0  0
  9 27  2  0  0  0
 10 11  2  0  0  0
 10 15  1  0  0  0
 11 12  1  0  0  0
 11 93  1  0  0  0
 12 13  2  0  0  0
 12 94  1  0  0  0
 13 14  1  0  0  0
 13 31  1  0  0  0
 14 15  2  0  0  0
 14 95  1  0  0  0
 15 96  1  0  0  0
 16 17  2  0  0  0
 16 21  1  0  0  0
 16 31  1  0  0  0
 17 18  1  0  0  0
 17 97  1  0  0  0
 18 19  2  0  0  0
 18 98  1  0  0  0
 19 20  1  0  0  0
 19 24  1  0  0  0
 20 21  2  0  0  0
 20 99  1  0  0  0
 21 23  1  0  0  0
 22 28  1  0  0  0
 22 32  2  0  0  0
 26 27  1  0  0  0
 28100  1  0  0  0
 28101  1  0  0  0
 29102  1  0  0  0
 29103  1  0  0  0
 33 34  1  0  0  0
 33 66  1  0  0  0
 33 70  2  0  0  0
 34 36  1  0  0  0
 34 59  1  0  0  0
 34104  1  0  0  0
 35 44  2  0  0  0
 35 45  1  0  0  0
 35 68  1  0  0  0
 36 56  1  0  0  0
 36105  1  0  0  0
 37 39  1  0  0  0
 37 47  1  0  0  0
 37 66  1  0  0  0
 37106  1  0  0  0
 38 43  2  0  0  0
 38 46  1  0  0  0
 38 47  1  0  0  0
 39 64  1  0  0  0
 39 67  2  0  0  0
 40 52  1  0  0  0
 40 53  2  0  0  0
 40 58  1  0  0  0
 41107  1  0  0  0
 41108  1  0  0  0
 41109  1  0  0  0
 41 48  1  0  0  0
 42 43  1  0  0  0
 42 66  1  0  0  0
 42110  1  0  0  0
 42111  1  0  0  0
 43 44  1  0  0  0
 44112  1  0  0  0
 45 46  2  0  0  0
 45113  1  0  0  0
 46114  1  0  0  0
 47115  1  0  0  0
 47116  1  0  0  0
 48 56  1  0  0  0
 48 65  1  0  0  0
 48117  1  0  0  0
 49 50  1  0  0  0
 49 53  1  0  0  0
 49 64  1  0  0  0
 49118  1  0  0  0
 50 51  1  0  0  0
 50119  1  0  0  0
 50120  1  0  0  0
 51 52  1  0  0  0
 51121  1  0  0  0
 51122  1  0  0  0
 52123  1  0  0  0
 52124  1  0  0  0
 53 54  1  0  0  0
 54 55  2  0  0  0
 54125  1  0  0  0
 55 57  1  0  0  0
 55126  1  0  0  0
 56 69  2  0  0  0
 57 58  2  0  0  0
 57127  1  0  0  0
 58128  1  0  0  0
 59 60  1  0  0  0
 59 61  1  0  0  0
 59 62  1  0  0  0
 60129  1  0  0  0
 60130  1  0  0  0
 60131  1  0  0  0
 61132  1  0  0  0
 61133  1  0  0  0
 61134  1  0  0  0
 62135  1  0  0  0
 62136  1  0  0  0
 62137  1  0  0  0
 63 65  1  0  0  0
 63138  1  0  0  0
 63139  1  0  0  0
 63140  1  0  0  0
 64141  1  0  0  0
 65142  1  0  0  0
 68 81  1  0  0  0
 71 72  2  0  0  0
 71 75  1  0  0  0
 71143  1  0  0  0
 72 76  1  0  0  0
 72144  1  0  0  0
 73 74  1  0  0  0
 73 76  2  0  0  0
 73145  1  0  0  0
 74 75  2  0  0  0
 74 77  1  0  0  0
 75 80  1  0  0  0
 76 82  1  0  0  0
 77 78  2  0  0  0
 77146  1  0  0  0
 78 79  1  0  0  0
 78147  1  0  0  0
 79 81  1  0  0  0
 79 83  2  0  0  0
 80148  1  0  0  0
 80149  1  0  0  0
 80150  1  0  0  0
 81151  1  0  0  0
 81152  1  0  0  0
 82153  1  0  0  0
M  ISO  4   1 100  68 101  81 101  82 100
M  END
> <chiral flag>
0

> <version>
0

> <s_m_source_file>
/data/baiqing/PycharmProjects/Reinvent-master-3.2/result/LINK_invent/BTK/process_docking_weight1_custom_product_contain_oxygen_bond_distance_aromatic_linkinvent_7_9_3/rearranged_h_0126.sdf

> <i_m_source_file_index>
27

> <r_mmod_Potential_Energy-OPLS-2005>
189.086654663086

> <r_mmod_Stretch_Energy-OPLS-2005>
127.108901977539

> <r_mmod_Bend_Energy-OPLS-2005>
155.250228881836

> <r_mmod_Torsional_Energy-OPLS-2005>
257.496765136719

> <r_mmod_Improper_Torsional_Energy-OPLS-2005>
7.88858795166016

> <r_mmod_Van_der_Waal_Energy-OPLS-2005>
140.42399597168

> <r_mmod_Electrostatic_Energy-OPLS-2005>
-352.946014404297

> <r_mmod_Solvation_Energy-OPLS-2005>
-230.413726806641

> <b_mmod_Minimization_Converged-OPLS-2005>
0

> <r_mmod_RMS_Derivative-OPLS-2005>
2.37896847724915

$$$$
27
                    3D
 Structure written by MMmdl.
154162  0  0  1  0            999 V2000
  -30.5780  -14.6807   20.4448 C   0  0  0  0  0  0
  -30.4438  -12.4130   19.4413 C   0  0  0  0  0  0
  -29.5038  -12.5024   18.2180 C   0  0  0  0  0  0
  -28.0270  -12.3441   18.6330 C   0  0  0  0  0  0
  -27.6482  -13.2167   19.8583 C   0  0  2  0  0  0
  -28.6974  -13.0764   20.9833 C   0  0  0  0  0  0
  -25.2563  -13.8153   20.5801 C   0  0  0  0  0  0
  -24.1814  -13.0426   20.9246 C   0  0  0  0  0  0
  -24.6369  -11.6899   20.8763 C   0  0  0  0  0  0
  -23.9038  -10.4279   21.0399 C   0  0  0  0  0  0
  -24.3604   -9.4192   21.9175 C   0  0  0  0  0  0
  -23.6286   -8.2227   22.0743 C   0  0  0  0  0  0
  -22.4262   -8.0260   21.3534 C   0  0  0  0  0  0
  -21.9881   -9.0243   20.4634 C   0  0  0  0  0  0
  -22.7216  -10.2115   20.3053 C   0  0  0  0  0  0
  -21.6829   -6.0734   22.5289 C   0  0  0  0  0  0
  -21.3997   -6.5629   23.8231 C   0  0  0  0  0  0
  -21.3676   -5.6786   24.9187 C   0  0  0  0  0  0
  -21.6050   -4.3052   24.7232 C   0  0  0  0  0  0
  -21.8819   -3.8137   23.4354 C   0  0  0  0  0  0
  -21.9184   -4.6957   22.3414 C   0  0  0  0  0  0
  -22.7829  -13.5221   21.1911 C   0  0  0  0  0  0
  -22.1648   -4.2141   21.0992 F   0  0  0  0  0  0
  -21.5640   -3.4538   25.7746 F   0  0  0  0  0  0
  -30.0024  -13.4358   20.4114 N   0  0  0  0  0  0
  -26.2967  -12.9338   20.3320 N   0  0  0  0  0  0
  -25.9288  -11.6490   20.5742 N   0  0  0  0  0  0
  -22.0456  -12.8240   22.0473 N   0  0  0  0  0  0
  -25.4338  -15.1889   20.4381 N   0  0  0  0  0  0
  -31.7570  -14.8378   20.1146 O   0  0  0  0  0  0
  -21.6628   -6.8865   21.4241 O   0  0  0  0  0  0
  -22.3524  -14.5547   20.6779 O   0  0  0  0  0  0
  -24.6257  -31.8578   23.2026 C   0  0  0  0  0  0
  -25.9104  -32.4776   23.8342 C   0  0  1  0  0  0
  -27.2646  -27.3464   20.0887 C   0  0  0  0  0  0
  -25.5932  -33.8578   24.2294 N   0  0  0  0  0  0
  -23.4216  -30.4793   21.5428 C   0  0  2  0  0  0
  -24.8764  -28.9262   20.1195 C   0  0  0  0  0  0
  -22.7472  -29.4620   22.4940 C   0  0  0  0  0  0
  -18.0282  -28.1373   22.8481 C   0  0  0  0  0  0
  -24.1499  -36.7284   23.2628 C   0  0  0  0  0  0
  -25.9626  -30.7888   21.3738 C   0  0  0  0  0  0
  -26.0422  -29.4162   20.7187 C   0  0  0  0  0  0
  -27.2362  -28.6376   20.6964 C   0  0  0  0  0  0
  -26.0720  -26.9014   19.4712 C   0  0  0  0  0  0
  -24.8895  -27.6681   19.4931 C   0  0  0  0  0  0
  -23.6403  -29.8035   20.1639 C   0  0  0  0  0  0
  -25.4108  -36.3080   24.0350 C   0  0  1  0  0  0
  -20.5898  -28.3670   23.1287 C   0  0  2  0  0  0
  -20.6786  -26.9402   22.5389 C   0  0  0  0  0  0
  -19.5765  -26.6367   21.5201 C   0  0  0  0  0  0
  -18.1939  -26.7926   22.1600 C   0  0  0  0  0  0
  -19.1551  -28.8839   23.2882 C   0  0  0  0  0  0
  -18.9479  -30.1451   23.8884 C   0  0  0  0  0  0
  -17.6486  -30.6588   24.0570 C   0  0  0  0  0  0
  -25.9034  -34.9452   23.5106 C   0  0  0  0  0  0
  -16.5362  -29.9083   23.6349 C   0  0  0  0  0  0
  -16.7275  -28.6505   23.0335 C   0  0  0  0  0  0
  -26.4488  -31.6578   25.0708 C   0  0  0  0  0  0
  -25.3761  -31.3791   26.1498 C   0  0  0  0  0  0
  -27.0250  -30.2963   24.6133 C   0  0  0  0  0  0
  -27.6090  -32.4267   25.7457 C   0  0  0  0  0  0
  -27.5614  -37.1764   24.8457 C   0  0  0  0  0  0
  -21.4184  -29.3036   22.3682 N   0  0  0  0  0  0
  -26.4279  -37.3771   23.9467 N   0  0  0  0  0  0
  -24.6879  -31.0567   22.0973 N   0  0  0  0  0  0
  -23.4217  -28.8151   23.2994 O   0  0  0  0  0  0
  -28.4284  -26.5648   20.0579 O   0  0  0  0  0  0
  -26.5565  -34.8921   22.4656 O   0  0  0  0  0  0
  -23.5415  -32.1376   23.7328 O   0  0  0  0  0  0
  -30.9641  -19.2742   19.7506 C   0  0  0  0  0  0
  -30.9632  -17.8689   19.9987 C   0  0  0  0  0  0
  -28.6252  -17.9969   20.5319 C   0  0  0  0  0  0
  -29.8076  -20.0873   19.8798 C   0  0  0  0  0  0
  -28.6234  -19.4102   20.2807 C   0  0  0  0  0  0
  -29.7907  -17.1804   20.4013 C   0  0  0  0  0  0
  -29.9032  -21.5771   19.5696 C   0  0  0  0  0  0
  -29.3973  -22.6581   20.2425 C   0  0  0  0  0  0
  -27.3202  -20.1933   20.3970 C   0  0  0  0  0  0
  -29.5355  -24.1713   19.8738 C   0  0  0  0  0  0
  -28.3225  -25.1083   20.2746 C   0  0  0  0  0  0
  -29.7198  -15.7347   20.6755 N   0  0  0  0  0  0
  -31.4768  -12.5687   19.1271 H   0  0  0  0  0  0
  -30.4157  -11.4174   19.8879 H   0  0  0  0  0  0
  -29.7653  -11.7396   17.4831 H   0  0  0  0  0  0
  -29.6431  -13.4640   17.7180 H   0  0  0  0  0  0
  -27.8614  -11.2926   18.8671 H   0  0  0  0  0  0
  -27.3683  -12.5689   17.7932 H   0  0  0  0  0  0
  -27.6553  -14.2505   19.5125 H   0  0  0  0  0  0
  -28.7192  -12.0521   21.3544 H   0  0  0  0  0  0
  -28.4466  -13.6987   21.8435 H   0  0  0  0  0  0
  -25.2736   -9.5680   22.4769 H   0  0  0  0  0  0
  -23.9992   -7.4604   22.7451 H   0  0  0  0  0  0
  -21.0810   -8.8756   19.8947 H   0  0  0  0  0  0
  -22.3653  -10.9668   19.6183 H   0  0  0  0  0  0
  -21.1974   -7.6144   23.9742 H   0  0  0  0  0  0
  -21.1497   -6.0506   25.9099 H   0  0  0  0  0  0
  -22.0586   -2.7597   23.2852 H   0  0  0  0  0  0
  -22.4004  -11.9852   22.4835 H   0  0  0  0  0  0
  -21.1108  -13.1299   22.2740 H   0  0  0  0  0  0
  -24.6893  -15.8509   20.6257 H   0  0  0  0  0  0
  -26.2980  -15.6317   20.1596 H   0  0  0  0  0  0
  -26.7159  -32.5434   23.1064 H   0  0  0  0  0  0
  -25.0259  -33.9716   25.0565 H   0  0  0  0  0  0
  -22.7187  -31.3020   21.3893 H   0  0  0  0  0  0
  -23.3806  -35.9557   23.3154 H   0  0  0  0  0  0
  -24.3658  -36.8979   22.2070 H   0  0  0  0  0  0
  -23.7171  -37.6424   23.6692 H   0  0  0  0  0  0
  -26.0931  -31.5514   20.6065 H   0  0  0  0  0  0
  -26.8443  -30.8383   22.0012 H   0  0  0  0  0  0
  -28.1366  -29.0166   21.1596 H   0  0  0  0  0  0
  -26.0458  -25.9634   18.9370 H   0  0  0  0  0  0
  -24.0006  -27.2851   19.0071 H   0  0  0  0  0  0
  -23.7632  -30.5773   19.4058 H   0  0  0  0  0  0
  -22.7632  -29.2286   19.8583 H   0  0  0  0  0  0
  -25.1260  -36.1897   25.0835 H   0  0  0  0  0  0
  -20.9981  -28.3210   24.1405 H   0  0  0  0  0  0
  -20.5704  -26.2268   23.3573 H   0  0  0  0  0  0
  -21.6653  -26.7435   22.1145 H   0  0  0  0  0  0
  -19.6943  -25.6282   21.1210 H   0  0  0  0  0  0
  -19.6710  -27.3203   20.6764 H   0  0  0  0  0  0
  -17.4214  -26.6663   21.4011 H   0  0  0  0  0  0
  -18.0332  -26.0072   22.9005 H   0  0  0  0  0  0
  -19.7975  -30.7268   24.2211 H   0  0  0  0  0  0
  -17.5057  -31.6279   24.5144 H   0  0  0  0  0  0
  -15.5370  -30.2988   23.7729 H   0  0  0  0  0  0
  -15.8656  -28.0859   22.7008 H   0  0  0  0  0  0
  -24.5869  -30.7171   25.7923 H   0  0  0  0  0  0
  -24.9048  -32.2999   26.4953 H   0  0  0  0  0  0
  -25.8119  -30.8990   27.0269 H   0  0  0  0  0  0
  -26.2759  -29.6759   24.1192 H   0  0  0  0  0  0
  -27.3979  -29.7174   25.4591 H   0  0  0  0  0  0
  -27.8646  -30.4216   23.9297 H   0  0  0  0  0  0
  -27.2769  -33.3657   26.1905 H   0  0  0  0  0  0
  -28.3992  -32.6623   25.0322 H   0  0  0  0  0  0
  -28.0622  -31.8429   26.5469 H   0  0  0  0  0  0
  -28.2504  -38.0182   24.7625 H   0  0  0  0  0  0
  -28.1206  -36.2709   24.6068 H   0  0  0  0  0  0
  -27.2361  -37.1138   25.8851 H   0  0  0  0  0  0
  -20.9337  -29.8799   21.6933 H   0  0  0  0  0  0
  -26.0149  -38.2807   24.1551 H   0  0  0  0  0  0
  -31.8934  -19.7410   19.4540 H   0  0  0  0  0  0
  -31.8878  -17.3293   19.8662 H   0  0  0  0  0  0
  -27.6906  -17.5397   20.8250 H   0  0  0  0  0  0
  -30.4476  -21.7954   18.6596 H   0  0  0  0  0  0
  -28.8696  -22.4796   21.1621 H   0  0  0  0  0  0
  -26.4736  -19.5664   20.6734 H   0  0  0  0  0  0
  -27.0805  -20.6831   19.4489 H   0  0  0  0  0  0
  -27.4036  -20.9620   21.1619 H   0  0  0  0  0  0
  -29.7444  -24.2503   18.8061 H   0  0  0  0  0  0
  -30.4305  -24.5355   20.3809 H   0  0  0  0  0  0
  -28.1565  -24.9854   21.3446 H   0  0  0  0  0  0
  -27.4486  -24.6868   19.7863 H   0  0  0  0  0  0
  -28.8105  -15.4211   20.9809 H   0  0  0  0  0  0
  1 25  1  0  0  0
  1 30  2  0  0  0
  1 82  1  0  0  0
  2  3  1  0  0  0
  2 25  1  0  0  0
  2 83  1  0  0  0
  2 84  1  0  0  0
  3  4  1  0  0  0
  3 85  1  0  0  0
  3 86  1  0  0  0
  4  5  1  0  0  0
  4 87  1  0  0  0
  4 88  1  0  0  0
  5  6  1  0  0  0
  5 26  1  0  0  0
  5 89  1  0  0  0
  6 25  1  0  0  0
  6 90  1  0  0  0
  6 91  1  0  0  0
  7  8  2  0  0  0
  7 26  1  0  0  0
  7 29  1  0  0  0
  8  9  1  0  0  0
  8 22  1  0  0  0
  9 10  1  0  0  0
  9 27  2  0  0  0
 10 11  2  0  0  0
 10 15  1  0  0  0
 11 12  1  0  0  0
 11 92  1  0  0  0
 12 13  2  0  0  0
 12 93  1  0  0  0
 13 14  1  0  0  0
 13 31  1  0  0  0
 14 15  2  0  0  0
 14 94  1  0  0  0
 15 95  1  0  0  0
 16 17  2  0  0  0
 16 21  1  0  0  0
 16 31  1  0  0  0
 17 18  1  0  0  0
 17 96  1  0  0  0
 18 19  2  0  0  0
 18 97  1  0  0  0
 19 20  1  0  0  0
 19 24  1  0  0  0
 20 21  2  0  0  0
 20 98  1  0  0  0
 21 23  1  0  0  0
 22 28  1  0  0  0
 22 32  2  0  0  0
 26 27  1  0  0  0
 28 99  1  0  0  0
 28100  1  0  0  0
 29101  1  0  0  0
 29102  1  0  0  0
 33 34  1  0  0  0
 33 66  1  0  0  0
 33 70  2  0  0  0
 34 36  1  0  0  0
 34 59  1  0  0  0
 34103  1  0  0  0
 35 44  2  0  0  0
 35 45  1  0  0  0
 35 68  1  0  0  0
 36 56  1  0  0  0
 36104  1  0  0  0
 37 39  1  0  0  0
 37 47  1  0  0  0
 37 66  1  0  0  0
 37105  1  0  0  0
 38 43  2  0  0  0
 38 46  1  0  0  0
 38 47  1  0  0  0
 39 64  1  0  0  0
 39 67  2  0  0  0
 40 52  1  0  0  0
 40 53  2  0  0  0
 40 58  1  0  0  0
 41106  1  0  0  0
 41107  1  0  0  0
 41108  1  0  0  0
 41 48  1  0  0  0
 42 43  1  0  0  0
 42 66  1  0  0  0
 42109  1  0  0  0
 42110  1  0  0  0
 43 44  1  0  0  0
 44111  1  0  0  0
 45 46  2  0  0  0
 45112  1  0  0  0
 46113  1  0  0  0
 47114  1  0  0  0
 47115  1  0  0  0
 48 56  1  0  0  0
 48 65  1  0  0  0
 48116  1  0  0  0
 49 50  1  0  0  0
 49 53  1  0  0  0
 49 64  1  0  0  0
 49117  1  0  0  0
 50 51  1  0  0  0
 50118  1  0  0  0
 50119  1  0  0  0
 51 52  1  0  0  0
 51120  1  0  0  0
 51121  1  0  0  0
 52122  1  0  0  0
 52123  1  0  0  0
 53 54  1  0  0  0
 54 55  2  0  0  0
 54124  1  0  0  0
 55 57  1  0  0  0
 55125  1  0  0  0
 56 69  2  0  0  0
 57 58  2  0  0  0
 57126  1  0  0  0
 58127  1  0  0  0
 59 60  1  0  0  0
 59 61  1  0  0  0
 59 62  1  0  0  0
 60128  1  0  0  0
 60129  1  0  0  0
 60130  1  0  0  0
 61131  1  0  0  0
 61132  1  0  0  0
 61133  1  0  0  0
 62134  1  0  0  0
 62135  1  0  0  0
 62136  1  0  0  0
 63 65  1  0  0  0
 63137  1  0  0  0
 63138  1  0  0  0
 63139  1  0  0  0
 64140  1  0  0  0
 65141  1  0  0  0
 68 81  1  0  0  0
 71 72  2  0  0  0
 71 74  1  0  0  0
 71142  1  0  0  0
 72 76  1  0  0  0
 72143  1  0  0  0
 73 75  1  0  0  0
 73 76  2  0  0  0
 73144  1  0  0  0
 74 75  2  0  0  0
 74 77  1  0  0  0
 75 79  1  0  0  0
 76 82  1  0  0  0
 77 78  2  0  0  0
 77145  1  0  0  0
 78 80  1  0  0  0
 78146  1  0  0  0
 79147  1  0  0  0
 79148  1  0  0  0
 79149  1  0  0  0
 80 81  1  0  0  0
 80150  1  0  0  0
 80151  1  0  0  0
 81152  1  0  0  0
 81153  1  0  0  0
 82154  1  0  0  0
M  ISO  4   1 100  68 101  81 101  82 100
M  END
> <chiral flag>
0

> <version>
0

> <s_m_source_file>
/data/baiqing/PycharmProjects/Reinvent-master-3.2/result/LINK_invent/BTK/process_docking_weight1_custom_product_contain_oxygen_bond_distance_aromatic_linkinvent_7_9_3/rearranged_h_0126.sdf

> <i_m_source_file_index>
28

> <r_mmod_Potential_Energy-OPLS-2005>
71.1398239135742

> <r_mmod_Stretch_Energy-OPLS-2005>
77.5974044799805

> <r_mmod_Bend_Energy-OPLS-2005>
131.62223815918

> <r_mmod_Torsional_Energy-OPLS-2005>
235.424072265625

> <r_mmod_Improper_Torsional_Energy-OPLS-2005>
4.80853796005249

> <r_mmod_Van_der_Waal_Energy-OPLS-2005>
144.52473449707

> <r_mmod_Electrostatic_Energy-OPLS-2005>
-369.176666259766

> <r_mmod_Solvation_Energy-OPLS-2005>
-203.934066772461

> <b_mmod_Minimization_Converged-OPLS-2005>
0

> <r_mmod_RMS_Derivative-OPLS-2005>
5.17645502090454

$$$$
28
                    3D
 Structure written by MMmdl.
156164  0  0  1  0            999 V2000
  -30.5739  -14.7735   20.4630 C   0  0  0  0  0  0
  -30.4413  -12.4702   19.4849 C   0  0  0  0  0  0
  -29.5196  -12.5192   18.2439 C   0  0  0  0  0  0
  -28.0430  -12.3338   18.6492 C   0  0  0  0  0  0
  -27.6426  -13.2258   19.8540 C   0  0  2  0  0  0
  -28.6834  -13.1401   20.9900 C   0  0  0  0  0  0
  -25.2513  -13.8177   20.5667 C   0  0  0  0  0  0
  -24.1797  -13.0429   20.9183 C   0  0  0  0  0  0
  -24.6373  -11.6907   20.8719 C   0  0  0  0  0  0
  -23.9042  -10.4294   21.0390 C   0  0  0  0  0  0
  -24.3598   -9.4214   21.9168 C   0  0  0  0  0  0
  -23.6276   -8.2250   22.0743 C   0  0  0  0  0  0
  -22.4267   -8.0271   21.3535 C   0  0  0  0  0  0
  -21.9887   -9.0239   20.4643 C   0  0  0  0  0  0
  -22.7208  -10.2120   20.3047 C   0  0  0  0  0  0
  -21.6854   -6.0717   22.5271 C   0  0  0  0  0  0
  -21.4022   -6.5620   23.8200 C   0  0  0  0  0  0
  -21.3664   -5.6776   24.9160 C   0  0  0  0  0  0
  -21.6050   -4.3043   24.7221 C   0  0  0  0  0  0
  -21.8821   -3.8127   23.4345 C   0  0  0  0  0  0
  -21.9195   -4.6941   22.3401 C   0  0  0  0  0  0
  -22.7828  -13.5219   21.1857 C   0  0  0  0  0  0
  -22.1663   -4.2123   21.0981 F   0  0  0  0  0  0
  -21.5629   -3.4530   25.7738 F   0  0  0  0  0  0
  -29.9859  -13.5225   20.4266 N   0  0  0  0  0  0
  -26.2930  -12.9369   20.3253 N   0  0  0  0  0  0
  -25.9302  -11.6516   20.5720 N   0  0  0  0  0  0
  -22.0475  -12.8214   22.0421 N   0  0  0  0  0  0
  -25.4206  -15.1908   20.4089 N   0  0  0  0  0  0
  -31.7610  -14.8733   20.1327 O   0  0  0  0  0  0
  -21.6644   -6.8863   21.4234 O   0  0  0  0  0  0
  -22.3518  -14.5527   20.6706 O   0  0  0  0  0  0
  -24.6287  -31.8559   23.1970 C   0  0  0  0  0  0
  -25.9121  -32.4759   23.8320 C   0  0  1  0  0  0
  -27.2232  -27.2724   20.1450 C   0  0  0  0  0  0
  -25.5919  -33.8557   24.2250 N   0  0  0  0  0  0
  -23.4257  -30.4773   21.5391 C   0  0  2  0  0  0
  -24.8754  -28.9185   20.1149 C   0  0  0  0  0  0
  -22.7490  -29.4604   22.4897 C   0  0  0  0  0  0
  -18.0295  -28.1390   22.8489 C   0  0  0  0  0  0
  -24.1487  -36.7285   23.2642 C   0  0  0  0  0  0
  -25.9698  -30.7762   21.3727 C   0  0  0  0  0  0
  -26.0455  -29.3969   20.7186 C   0  0  0  0  0  0
  -27.2271  -28.5893   20.7139 C   0  0  0  0  0  0
  -26.0314  -26.8496   19.5225 C   0  0  0  0  0  0
  -24.8727  -27.6531   19.5037 C   0  0  0  0  0  0
  -23.6450  -29.8055   20.1571 C   0  0  0  0  0  0
  -25.4120  -36.3075   24.0326 C   0  0  1  0  0  0
  -20.5896  -28.3697   23.1270 C   0  0  2  0  0  0
  -20.6777  -26.9412   22.5411 C   0  0  0  0  0  0
  -19.5755  -26.6386   21.5211 C   0  0  0  0  0  0
  -18.1936  -26.7935   22.1622 C   0  0  0  0  0  0
  -19.1550  -28.8859   23.2878 C   0  0  0  0  0  0
  -18.9472  -30.1459   23.8900 C   0  0  0  0  0  0
  -17.6471  -30.6584   24.0571 C   0  0  0  0  0  0
  -25.9056  -34.9444   23.5096 C   0  0  0  0  0  0
  -16.5361  -29.9088   23.6332 C   0  0  0  0  0  0
  -16.7283  -28.6508   23.0350 C   0  0  0  0  0  0
  -26.4499  -31.6580   25.0703 C   0  0  0  0  0  0
  -25.3735  -31.3738   26.1440 C   0  0  0  0  0  0
  -27.0348  -30.2995   24.6188 C   0  0  0  0  0  0
  -27.6041  -32.4328   25.7485 C   0  0  0  0  0  0
  -27.5582  -37.1800   24.8466 C   0  0  0  0  0  0
  -21.4202  -29.3047   22.3656 N   0  0  0  0  0  0
  -26.4293  -37.3775   23.9409 N   0  0  0  0  0  0
  -24.6936  -31.0538   22.0933 N   0  0  0  0  0  0
  -23.4204  -28.8152   23.2993 O   0  0  0  0  0  0
  -28.3284  -26.3987   20.1343 O   0  0  0  0  0  0
  -26.5632  -34.8918   22.4665 O   0  0  0  0  0  0
  -23.5444  -32.1366   23.7277 O   0  0  0  0  0  0
  -27.8456  -18.5127   21.1268 C   0  0  0  0  0  0
  -29.6426  -19.9930   20.4735 C   0  0  0  0  0  0
  -27.4748  -20.9493   21.0179 C   0  0  0  0  0  0
  -29.1916  -18.6247   20.7088 C   0  0  0  0  0  0
  -27.0072  -19.6426   21.2827 C   0  0  0  0  0  0
  -28.8046  -21.1811   20.6093 C   0  0  0  0  0  0
  -30.0372  -17.3279   20.5347 C   0  0  0  0  0  0
  -29.6940  -15.9873   20.7113 C   0  0  0  0  0  0
  -25.5836  -19.4565   21.7702 C   0  0  0  0  0  0
  -29.2072  -25.1129   21.9426 C   0  0  0  0  0  0
  -28.4413  -23.6632   19.9360 C   0  0  0  0  0  0
  -28.2219  -25.0429   20.7721 C   0  0  2  0  0  0
  -29.2746  -22.5173   20.4365 O   0  0  0  0  0  0
  -31.4808  -12.6071   19.1836 H   0  0  0  0  0  0
  -30.3961  -11.4889   19.9603 H   0  0  0  0  0  0
  -29.8118  -11.7519   17.5259 H   0  0  0  0  0  0
  -29.6414  -13.4754   17.7331 H   0  0  0  0  0  0
  -27.8998  -11.2840   18.9047 H   0  0  0  0  0  0
  -27.3913  -12.5323   17.7973 H   0  0  0  0  0  0
  -27.6417  -14.2489   19.4805 H   0  0  0  0  0  0
  -28.7295  -12.1286   21.3974 H   0  0  0  0  0  0
  -28.4069  -13.7803   21.8275 H   0  0  0  0  0  0
  -25.2742   -9.5694   22.4730 H   0  0  0  0  0  0
  -23.9986   -7.4651   22.7469 H   0  0  0  0  0  0
  -21.0807   -8.8749   19.8964 H   0  0  0  0  0  0
  -22.3652  -10.9643   19.6159 H   0  0  0  0  0  0
  -21.2023   -7.6130   23.9685 H   0  0  0  0  0  0
  -21.1486   -6.0514   25.9055 H   0  0  0  0  0  0
  -22.0600   -2.7586   23.2854 H   0  0  0  0  0  0
  -22.4102  -11.9895   22.4839 H   0  0  0  0  0  0
  -21.1094  -13.1246   22.2633 H   0  0  0  0  0  0
  -24.6448  -15.8366   20.5032 H   0  0  0  0  0  0
  -26.2593  -15.6258   20.0462 H   0  0  0  0  0  0
  -26.7192  -32.5427   23.1064 H   0  0  0  0  0  0
  -25.0074  -33.9698   25.0401 H   0  0  0  0  0  0
  -22.7205  -31.2982   21.3903 H   0  0  0  0  0  0
  -23.3755  -35.9611   23.3306 H   0  0  0  0  0  0
  -24.3569  -36.8905   22.2053 H   0  0  0  0  0  0
  -23.7231  -37.6482   23.6668 H   0  0  0  0  0  0
  -26.1051  -31.5380   20.6032 H   0  0  0  0  0  0
  -26.8474  -30.8277   22.0051 H   0  0  0  0  0  0
  -28.1313  -28.9579   21.1777 H   0  0  0  0  0  0
  -25.9953  -25.8762   19.0546 H   0  0  0  0  0  0
  -23.9764  -27.2817   19.0253 H   0  0  0  0  0  0
  -23.7688  -30.5787   19.3976 H   0  0  0  0  0  0
  -22.7645  -29.2360   19.8536 H   0  0  0  0  0  0
  -25.1298  -36.1923   25.0816 H   0  0  0  0  0  0
  -21.0002  -28.3283   24.1384 H   0  0  0  0  0  0
  -20.5663  -26.2312   23.3621 H   0  0  0  0  0  0
  -21.6649  -26.7429   22.1215 H   0  0  0  0  0  0
  -19.6914  -25.6295   21.1244 H   0  0  0  0  0  0
  -19.6687  -27.3197   20.6743 H   0  0  0  0  0  0
  -17.4202  -26.6687   21.4026 H   0  0  0  0  0  0
  -18.0337  -26.0071   22.9014 H   0  0  0  0  0  0
  -19.7943  -30.7283   24.2264 H   0  0  0  0  0  0
  -17.5022  -31.6264   24.5176 H   0  0  0  0  0  0
  -15.5365  -30.2993   23.7652 H   0  0  0  0  0  0
  -15.8680  -28.0833   22.7058 H   0  0  0  0  0  0
  -24.5867  -30.7137   25.7772 H   0  0  0  0  0  0
  -24.8990  -32.2925   26.4902 H   0  0  0  0  0  0
  -25.8056  -30.8873   27.0197 H   0  0  0  0  0  0
  -26.2936  -29.6732   24.1214 H   0  0  0  0  0  0
  -27.4040  -29.7259   25.4701 H   0  0  0  0  0  0
  -27.8804  -30.4263   23.9423 H   0  0  0  0  0  0
  -27.2631  -33.3625   26.2055 H   0  0  0  0  0  0
  -28.3862  -32.6903   25.0327 H   0  0  0  0  0  0
  -28.0711  -31.8471   26.5413 H   0  0  0  0  0  0
  -28.2604  -38.0096   24.7515 H   0  0  0  0  0  0
  -28.1072  -36.2626   24.6289 H   0  0  0  0  0  0
  -27.2299  -37.1448   25.8869 H   0  0  0  0  0  0
  -20.9378  -29.8778   21.6872 H   0  0  0  0  0  0
  -26.0173  -38.2846   24.1414 H   0  0  0  0  0  0
  -27.4317  -17.5392   21.3465 H   0  0  0  0  0  0
  -30.6697  -20.1412   20.1718 H   0  0  0  0  0  0
  -26.8042  -21.7825   21.1767 H   0  0  0  0  0  0
  -31.0530  -17.5160   20.2126 H   0  0  0  0  0  0
  -28.6865  -15.7978   21.0387 H   0  0  0  0  0  0
  -25.2421  -18.4312   21.6232 H   0  0  0  0  0  0
  -24.8964  -20.1148   21.2370 H   0  0  0  0  0  0
  -25.5179  -19.6840   22.8347 H   0  0  0  0  0  0
  -29.1170  -24.2389   22.5872 H   0  0  0  0  0  0
  -29.0209  -25.9951   22.5583 H   0  0  0  0  0  0
  -30.2360  -25.1639   21.5849 H   0  0  0  0  0  0
  -28.9359  -23.9578   19.0102 H   0  0  0  0  0  0
  -27.4705  -23.3001   19.6005 H   0  0  0  0  0  0
  -27.2314  -24.9660   21.2233 H   0  0  0  0  0  0
  1 25  1  0  0  0
  1 30  2  0  0  0
  1 78  1  0  0  0
  2  3  1  0  0  0
  2 25  1  0  0  0
  2 84  1  0  0  0
  2 85  1  0  0  0
  3  4  1  0  0  0
  3 86  1  0  0  0
  3 87  1  0  0  0
  4  5  1  0  0  0
  4 88  1  0  0  0
  4 89  1  0  0  0
  5  6  1  0  0  0
  5 26  1  0  0  0
  5 90  1  0  0  0
  6 25  1  0  0  0
  6 91  1  0  0  0
  6 92  1  0  0  0
  7  8  2  0  0  0
  7 26  1  0  0  0
  7 29  1  0  0  0
  8  9  1  0  0  0
  8 22  1  0  0  0
  9 10  1  0  0  0
  9 27  2  0  0  0
 10 11  2  0  0  0
 10 15  1  0  0  0
 11 12  1  0  0  0
 11 93  1  0  0  0
 12 13  2  0  0  0
 12 94  1  0  0  0
 13 14  1  0  0  0
 13 31  1  0  0  0
 14 15  2  0  0  0
 14 95  1  0  0  0
 15 96  1  0  0  0
 16 17  2  0  0  0
 16 21  1  0  0  0
 16 31  1  0  0  0
 17 18  1  0  0  0
 17 97  1  0  0  0
 18 19  2  0  0  0
 18 98  1  0  0  0
 19 20  1  0  0  0
 19 24  1  0  0  0
 20 21  2  0  0  0
 20 99  1  0  0  0
 21 23  1  0  0  0
 22 28  1  0  0  0
 22 32  2  0  0  0
 26 27  1  0  0  0
 28100  1  0  0  0
 28101  1  0  0  0
 29102  1  0  0  0
 29103  1  0  0  0
 33 34  1  0  0  0
 33 66  1  0  0  0
 33 70  2  0  0  0
 34 36  1  0  0  0
 34 59  1  0  0  0
 34104  1  0  0  0
 35 44  2  0  0  0
 35 45  1  0  0  0
 35 68  1  0  0  0
 36 56  1  0  0  0
 36105  1  0  0  0
 37 39  1  0  0  0
 37 47  1  0  0  0
 37 66  1  0  0  0
 37106  1  0  0  0
 38 43  2  0  0  0
 38 46  1  0  0  0
 38 47  1  0  0  0
 39 64  1  0  0  0
 39 67  2  0  0  0
 40 52  1  0  0  0
 40 53  2  0  0  0
 40 58  1  0  0  0
 41107  1  0  0  0
 41108  1  0  0  0
 41109  1  0  0  0
 41 48  1  0  0  0
 42 43  1  0  0  0
 42 66  1  0  0  0
 42110  1  0  0  0
 42111  1  0  0  0
 43 44  1  0  0  0
 44112  1  0  0  0
 45 46  2  0  0  0
 45113  1  0  0  0
 46114  1  0  0  0
 47115  1  0  0  0
 47116  1  0  0  0
 48 56  1  0  0  0
 48 65  1  0  0  0
 48117  1  0  0  0
 49 50  1  0  0  0
 49 53  1  0  0  0
 49 64  1  0  0  0
 49118  1  0  0  0
 50 51  1  0  0  0
 50119  1  0  0  0
 50120  1  0  0  0
 51 52  1  0  0  0
 51121  1  0  0  0
 51122  1  0  0  0
 52123  1  0  0  0
 52124  1  0  0  0
 53 54  1  0  0  0
 54 55  2  0  0  0
 54125  1  0  0  0
 55 57  1  0  0  0
 55126  1  0  0  0
 56 69  2  0  0  0
 57 58  2  0  0  0
 57127  1  0  0  0
 58128  1  0  0  0
 59 60  1  0  0  0
 59 61  1  0  0  0
 59 62  1  0  0  0
 60129  1  0  0  0
 60130  1  0  0  0
 60131  1  0  0  0
 61132  1  0  0  0
 61133  1  0  0  0
 61134  1  0  0  0
 62135  1  0  0  0
 62136  1  0  0  0
 62137  1  0  0  0
 63 65  1  0  0  0
 63138  1  0  0  0
 63139  1  0  0  0
 63140  1  0  0  0
 64141  1  0  0  0
 65142  1  0  0  0
 68 82  1  0  0  0
 71 74  2  0  0  0
 71 75  1  0  0  0
 71143  1  0  0  0
 72 74  1  0  0  0
 72 76  2  0  0  0
 72144  1  0  0  0
 73 75  2  0  0  0
 73 76  1  0  0  0
 73145  1  0  0  0
 74 77  1  0  0  0
 75 79  1  0  0  0
 76 83  1  0  0  0
 77 78  2  0  0  0
 77146  1  0  0  0
 78147  1  0  0  0
 79148  1  0  0  0
 79149  1  0  0  0
 79150  1  0  0  0
 80151  1  0  0  0
 80152  1  0  0  0
 80153  1  0  0  0
 80 82  1  0  0  0
 81 82  1  0  0  0
 81 83  1  0  0  0
 81154  1  0  0  0
 81155  1  0  0  0
 82156  1  0  0  0
M  ISO  4   1 100  68 101  78 100  82 101
M  END
> <chiral flag>
0

> <version>
0

> <s_m_source_file>
/data/baiqing/PycharmProjects/Reinvent-master-3.2/result/LINK_invent/BTK/process_docking_weight1_custom_product_contain_oxygen_bond_distance_aromatic_linkinvent_7_9_3/rearranged_h_0126.sdf

> <i_m_source_file_index>
29

> <r_mmod_Potential_Energy-OPLS-2005>
211.182052612305

> <r_mmod_Stretch_Energy-OPLS-2005>
129.081497192383

> <r_mmod_Bend_Energy-OPLS-2005>
171.877975463867

> <r_mmod_Torsional_Energy-OPLS-2005>
216.112945556641

> <r_mmod_Improper_Torsional_Energy-OPLS-2005>
4.54883718490601

> <r_mmod_Van_der_Waal_Energy-OPLS-2005>
132.540481567383

> <r_mmod_Electrostatic_Energy-OPLS-2005>
-333.107391357422

> <r_mmod_Solvation_Energy-OPLS-2005>
-194.527694702148

> <b_mmod_Minimization_Converged-OPLS-2005>
0

> <r_mmod_RMS_Derivative-OPLS-2005>
1.93939256668091

$$$$
29
                    3D
 Structure written by MMmdl.
153161  0  0  1  0            999 V2000
  -30.5978  -14.7461   20.4987 C   0  0  0  0  0  0
  -30.4456  -12.4682   19.4650 C   0  0  0  0  0  0
  -29.5140  -12.5008   18.2339 C   0  0  0  0  0  0
  -28.0437  -12.3134   18.6572 C   0  0  0  0  0  0
  -27.6443  -13.2219   19.8493 C   0  0  2  0  0  0
  -28.6879  -13.1566   20.9842 C   0  0  0  0  0  0
  -25.2544  -13.8180   20.5688 C   0  0  0  0  0  0
  -24.1824  -13.0437   20.9214 C   0  0  0  0  0  0
  -24.6404  -11.6914   20.8761 C   0  0  0  0  0  0
  -23.9080  -10.4293   21.0423 C   0  0  0  0  0  0
  -24.3625   -9.4206   21.9201 C   0  0  0  0  0  0
  -23.6287   -8.2246   22.0764 C   0  0  0  0  0  0
  -22.4272   -8.0289   21.3547 C   0  0  0  0  0  0
  -21.9918   -9.0266   20.4652 C   0  0  0  0  0  0
  -22.7257  -10.2142   20.3066 C   0  0  0  0  0  0
  -21.6853   -6.0742   22.5274 C   0  0  0  0  0  0
  -21.4013   -6.5639   23.8208 C   0  0  0  0  0  0
  -21.3649   -5.6787   24.9167 C   0  0  0  0  0  0
  -21.6051   -4.3050   24.7218 C   0  0  0  0  0  0
  -21.8820   -3.8143   23.4337 C   0  0  0  0  0  0
  -21.9194   -4.6968   22.3395 C   0  0  0  0  0  0
  -22.7857  -13.5243   21.1857 C   0  0  0  0  0  0
  -22.1665   -4.2149   21.0972 F   0  0  0  0  0  0
  -21.5624   -3.4535   25.7734 F   0  0  0  0  0  0
  -29.9838  -13.5195   20.3982 N   0  0  0  0  0  0
  -26.2955  -12.9357   20.3268 N   0  0  0  0  0  0
  -25.9331  -11.6516   20.5766 N   0  0  0  0  0  0
  -22.0485  -12.8223   22.0392 N   0  0  0  0  0  0
  -25.4237  -15.1909   20.4082 N   0  0  0  0  0  0
  -31.7964  -14.8571   20.2188 O   0  0  0  0  0  0
  -21.6638   -6.8889   21.4238 O   0  0  0  0  0  0
  -22.3539  -14.5548   20.6709 O   0  0  0  0  0  0
  -24.6293  -31.8551   23.1976 C   0  0  0  0  0  0
  -25.9120  -32.4761   23.8326 C   0  0  1  0  0  0
  -27.2242  -27.2687   20.1354 C   0  0  0  0  0  0
  -25.5917  -33.8563   24.2261 N   0  0  0  0  0  0
  -23.4280  -30.4730   21.5426 C   0  0  2  0  0  0
  -24.8782  -28.9163   20.1137 C   0  0  0  0  0  0
  -22.7512  -29.4564   22.4924 C   0  0  0  0  0  0
  -18.0285  -28.1379   22.8455 C   0  0  0  0  0  0
  -24.1491  -36.7289   23.2641 C   0  0  0  0  0  0
  -25.9714  -30.7677   21.3795 C   0  0  0  0  0  0
  -26.0472  -29.3893   20.7239 C   0  0  0  0  0  0
  -27.2270  -28.5780   20.7198 C   0  0  0  0  0  0
  -26.0375  -26.8564   19.4982 C   0  0  0  0  0  0
  -24.8774  -27.6592   19.4869 C   0  0  0  0  0  0
  -23.6478  -29.8032   20.1591 C   0  0  0  0  0  0
  -25.4116  -36.3086   24.0326 C   0  0  1  0  0  0
  -20.5879  -28.3697   23.1261 C   0  0  2  0  0  0
  -20.6769  -26.9418   22.5390 C   0  0  0  0  0  0
  -19.5754  -26.6380   21.5183 C   0  0  0  0  0  0
  -18.1935  -26.7917   22.1594 C   0  0  0  0  0  0
  -19.1534  -28.8853   23.2848 C   0  0  0  0  0  0
  -18.9469  -30.1445   23.8876 C   0  0  0  0  0  0
  -17.6476  -30.6577   24.0546 C   0  0  0  0  0  0
  -25.9049  -34.9450   23.5105 C   0  0  0  0  0  0
  -16.5360  -29.9066   23.6329 C   0  0  0  0  0  0
  -16.7275  -28.6486   23.0336 C   0  0  0  0  0  0
  -26.4496  -31.6586   25.0717 C   0  0  0  0  0  0
  -25.3715  -31.3710   26.1437 C   0  0  0  0  0  0
  -27.0362  -30.3012   24.6189 C   0  0  0  0  0  0
  -27.6059  -32.4331   25.7477 C   0  0  0  0  0  0
  -27.5586  -37.1801   24.8464 C   0  0  0  0  0  0
  -21.4216  -29.3045   22.3680 N   0  0  0  0  0  0
  -26.4307  -37.3770   23.9402 N   0  0  0  0  0  0
  -24.6949  -31.0500   22.0968 N   0  0  0  0  0  0
  -23.4214  -28.8084   23.3004 O   0  0  0  0  0  0
  -28.3189  -26.3826   20.1349 O   0  0  0  0  0  0
  -26.5630  -34.8923   22.4679 O   0  0  0  0  0  0
  -23.5442  -32.1392   23.7264 O   0  0  0  0  0  0
  -31.1839  -18.7223   22.6590 C   0  0  0  0  0  0
  -30.9517  -17.4432   22.1269 C   0  0  0  0  0  0
  -29.4725  -18.4755   20.4990 C   0  0  0  0  0  0
  -29.7269  -19.8316   20.9901 C   0  0  0  0  0  0
  -30.6006  -19.8936   22.1212 C   0  0  0  0  0  0
  -30.0853  -17.2612   21.0352 C   0  0  0  0  0  0
  -29.1370  -21.1270   20.3374 C   0  0  0  0  0  0
  -28.9681  -22.4294   20.8114 C   0  0  0  0  0  0
  -28.5241  -23.6998   20.0481 C   0  0  0  0  0  0
  -30.9958  -21.1938   22.8078 C   0  0  0  0  0  0
  -28.1571  -25.0569   20.8216 C   0  0  0  0  0  0
  -29.7841  -15.8653   20.6282 N   0  0  0  0  0  0
  -28.4284  -23.6988   18.8170 O   0  0  0  0  0  0
  -31.4798  -12.6223   19.1535 H   0  0  0  0  0  0
  -30.4188  -11.4916   19.9513 H   0  0  0  0  0  0
  -29.8017  -11.7228   17.5254 H   0  0  0  0  0  0
  -29.6273  -13.4509   17.7098 H   0  0  0  0  0  0
  -27.9203  -11.2675   18.9406 H   0  0  0  0  0  0
  -27.3780  -12.4799   17.8095 H   0  0  0  0  0  0
  -27.6397  -14.2405   19.4612 H   0  0  0  0  0  0
  -28.7326  -12.1604   21.4275 H   0  0  0  0  0  0
  -28.4216  -13.8399   21.7920 H   0  0  0  0  0  0
  -25.2775   -9.5672   22.4773 H   0  0  0  0  0  0
  -23.9990   -7.4642   22.7496 H   0  0  0  0  0  0
  -21.0848   -8.8812   19.8956 H   0  0  0  0  0  0
  -22.3742  -10.9691   19.6169 H   0  0  0  0  0  0
  -21.2008   -7.6151   23.9710 H   0  0  0  0  0  0
  -21.1465   -6.0520   25.9073 H   0  0  0  0  0  0
  -22.0609   -2.7611   23.2841 H   0  0  0  0  0  0
  -22.4076  -11.9863   22.4758 H   0  0  0  0  0  0
  -21.1109  -13.1267   22.2603 H   0  0  0  0  0  0
  -24.6552  -15.8426   20.5242 H   0  0  0  0  0  0
  -26.2584  -15.6301   20.0413 H   0  0  0  0  0  0
  -26.7188  -32.5423   23.1069 H   0  0  0  0  0  0
  -25.0070  -33.9685   25.0412 H   0  0  0  0  0  0
  -22.7238  -31.2942   21.3963 H   0  0  0  0  0  0
  -23.3769  -35.9611   23.3301 H   0  0  0  0  0  0
  -24.3574  -36.8915   22.2057 H   0  0  0  0  0  0
  -23.7227  -37.6476   23.6669 H   0  0  0  0  0  0
  -26.1055  -31.5286   20.6095 H   0  0  0  0  0  0
  -26.8500  -30.8193   22.0112 H   0  0  0  0  0  0
  -28.1296  -28.9345   21.1967 H   0  0  0  0  0  0
  -26.0064  -25.8949   19.0047 H   0  0  0  0  0  0
  -23.9850  -27.2965   18.9932 H   0  0  0  0  0  0
  -23.7729  -30.5791   19.4034 H   0  0  0  0  0  0
  -22.7667  -29.2357   19.8549 H   0  0  0  0  0  0
  -25.1298  -36.1947   25.0819 H   0  0  0  0  0  0
  -20.9951  -28.3273   24.1382 H   0  0  0  0  0  0
  -20.5669  -26.2300   23.3592 H   0  0  0  0  0  0
  -21.6642  -26.7442   22.1184 H   0  0  0  0  0  0
  -19.6932  -25.6292   21.1208 H   0  0  0  0  0  0
  -19.6688  -27.3200   20.6727 H   0  0  0  0  0  0
  -17.4197  -26.6654   21.4002 H   0  0  0  0  0  0
  -18.0339  -26.0066   22.8999 H   0  0  0  0  0  0
  -19.7957  -30.7235   24.2246 H   0  0  0  0  0  0
  -17.5037  -31.6254   24.5166 H   0  0  0  0  0  0
  -15.5359  -30.2955   23.7670 H   0  0  0  0  0  0
  -15.8672  -28.0798   22.7052 H   0  0  0  0  0  0
  -24.5877  -30.7087   25.7733 H   0  0  0  0  0  0
  -24.8923  -32.2876   26.4891 H   0  0  0  0  0  0
  -25.8024  -30.8843   27.0194 H   0  0  0  0  0  0
  -26.2949  -29.6722   24.1249 H   0  0  0  0  0  0
  -27.4105  -29.7295   25.4688 H   0  0  0  0  0  0
  -27.8791  -30.4299   23.9396 H   0  0  0  0  0  0
  -27.2682  -33.3657   26.2001 H   0  0  0  0  0  0
  -28.3879  -32.6839   25.0299 H   0  0  0  0  0  0
  -28.0710  -31.8486   26.5421 H   0  0  0  0  0  0
  -28.2593  -38.0110   24.7519 H   0  0  0  0  0  0
  -28.1098  -36.2635   24.6295 H   0  0  0  0  0  0
  -27.2295  -37.1442   25.8865 H   0  0  0  0  0  0
  -20.9422  -29.8787   21.6895 H   0  0  0  0  0  0
  -26.0201  -38.2848   24.1411 H   0  0  0  0  0  0
  -31.8398  -18.7971   23.5153 H   0  0  0  0  0  0
  -31.4229  -16.5929   22.6020 H   0  0  0  0  0  0
  -28.7891  -18.3649   19.6696 H   0  0  0  0  0  0
  -28.8575  -20.9801   19.3041 H   0  0  0  0  0  0
  -29.1830  -22.6351   21.8429 H   0  0  0  0  0  0
  -31.2974  -21.9582   22.0927 H   0  0  0  0  0  0
  -31.8464  -21.0519   23.4746 H   0  0  0  0  0  0
  -30.1761  -21.5620   23.4259 H   0  0  0  0  0  0
  -28.7647  -25.0912   21.7262 H   0  0  0  0  0  0
  -27.1285  -24.9543   21.1664 H   0  0  0  0  0  0
  -28.8013  -15.6552   20.5487 H   0  0  0  0  0  0
  1 25  1  0  0  0
  1 30  2  0  0  0
  1 82  1  0  0  0
  2  3  1  0  0  0
  2 25  1  0  0  0
  2 84  1  0  0  0
  2 85  1  0  0  0
  3  4  1  0  0  0
  3 86  1  0  0  0
  3 87  1  0  0  0
  4  5  1  0  0  0
  4 88  1  0  0  0
  4 89  1  0  0  0
  5  6  1  0  0  0
  5 26  1  0  0  0
  5 90  1  0  0  0
  6 25  1  0  0  0
  6 91  1  0  0  0
  6 92  1  0  0  0
  7  8  2  0  0  0
  7 26  1  0  0  0
  7 29  1  0  0  0
  8  9  1  0  0  0
  8 22  1  0  0  0
  9 10  1  0  0  0
  9 27  2  0  0  0
 10 11  2  0  0  0
 10 15  1  0  0  0
 11 12  1  0  0  0
 11 93  1  0  0  0
 12 13  2  0  0  0
 12 94  1  0  0  0
 13 14  1  0  0  0
 13 31  1  0  0  0
 14 15  2  0  0  0
 14 95  1  0  0  0
 15 96  1  0  0  0
 16 17  2  0  0  0
 16 21  1  0  0  0
 16 31  1  0  0  0
 17 18  1  0  0  0
 17 97  1  0  0  0
 18 19  2  0  0  0
 18 98  1  0  0  0
 19 20  1  0  0  0
 19 24  1  0  0  0
 20 21  2  0  0  0
 20 99  1  0  0  0
 21 23  1  0  0  0
 22 28  1  0  0  0
 22 32  2  0  0  0
 26 27  1  0  0  0
 28100  1  0  0  0
 28101  1  0  0  0
 29102  1  0  0  0
 29103  1  0  0  0
 33 34  1  0  0  0
 33 66  1  0  0  0
 33 70  2  0  0  0
 34 36  1  0  0  0
 34 59  1  0  0  0
 34104  1  0  0  0
 35 44  2  0  0  0
 35 45  1  0  0  0
 35 68  1  0  0  0
 36 56  1  0  0  0
 36105  1  0  0  0
 37 39  1  0  0  0
 37 47  1  0  0  0
 37 66  1  0  0  0
 37106  1  0  0  0
 38 43  2  0  0  0
 38 46  1  0  0  0
 38 47  1  0  0  0
 39 64  1  0  0  0
 39 67  2  0  0  0
 40 52  1  0  0  0
 40 53  2  0  0  0
 40 58  1  0  0  0
 41107  1  0  0  0
 41108  1  0  0  0
 41109  1  0  0  0
 41 48  1  0  0  0
 42 43  1  0  0  0
 42 66  1  0  0  0
 42110  1  0  0  0
 42111  1  0  0  0
 43 44  1  0  0  0
 44112  1  0  0  0
 45 46  2  0  0  0
 45113  1  0  0  0
 46114  1  0  0  0
 47115  1  0  0  0
 47116  1  0  0  0
 48 56  1  0  0  0
 48 65  1  0  0  0
 48117  1  0  0  0
 49 50  1  0  0  0
 49 53  1  0  0  0
 49 64  1  0  0  0
 49118  1  0  0  0
 50 51  1  0  0  0
 50119  1  0  0  0
 50120  1  0  0  0
 51 52  1  0  0  0
 51121  1  0  0  0
 51122  1  0  0  0
 52123  1  0  0  0
 52124  1  0  0  0
 53 54  1  0  0  0
 54 55  2  0  0  0
 54125  1  0  0  0
 55 57  1  0  0  0
 55126  1  0  0  0
 56 69  2  0  0  0
 57 58  2  0  0  0
 57127  1  0  0  0
 58128  1  0  0  0
 59 60  1  0  0  0
 59 61  1  0  0  0
 59 62  1  0  0  0
 60129  1  0  0  0
 60130  1  0  0  0
 60131  1  0  0  0
 61132  1  0  0  0
 61133  1  0  0  0
 61134  1  0  0  0
 62135  1  0  0  0
 62136  1  0  0  0
 62137  1  0  0  0
 63 65  1  0  0  0
 63138  1  0  0  0
 63139  1  0  0  0
 63140  1  0  0  0
 64141  1  0  0  0
 65142  1  0  0  0
 68 81  1  0  0  0
 71 72  2  0  0  0
 71 75  1  0  0  0
 71143  1  0  0  0
 72 76  1  0  0  0
 72144  1  0  0  0
 73 74  1  0  0  0
 73 76  2  0  0  0
 73145  1  0  0  0
 74 75  2  0  0  0
 74 77  1  0  0  0
 75 80  1  0  0  0
 76 82  1  0  0  0
 77 78  2  0  0  0
 77146  1  0  0  0
 78 79  1  0  0  0
 78147  1  0  0  0
 79 81  1  0  0  0
 79 83  2  0  0  0
 80148  1  0  0  0
 80149  1  0  0  0
 80150  1  0  0  0
 81151  1  0  0  0
 81152  1  0  0  0
 82153  1  0  0  0
M  ISO  4   1 100  68 101  81 101  82 100
M  END
> <chiral flag>
0

> <version>
0

> <s_m_source_file>
/data/baiqing/PycharmProjects/Reinvent-master-3.2/result/LINK_invent/BTK/process_docking_weight1_custom_product_contain_oxygen_bond_distance_aromatic_linkinvent_7_9_3/rearranged_h_0126.sdf

> <i_m_source_file_index>
30

> <r_mmod_Potential_Energy-OPLS-2005>
189.086654663086

> <r_mmod_Stretch_Energy-OPLS-2005>
127.108901977539

> <r_mmod_Bend_Energy-OPLS-2005>
155.250228881836

> <r_mmod_Torsional_Energy-OPLS-2005>
257.496765136719

> <r_mmod_Improper_Torsional_Energy-OPLS-2005>
7.88858795166016

> <r_mmod_Van_der_Waal_Energy-OPLS-2005>
140.42399597168

> <r_mmod_Electrostatic_Energy-OPLS-2005>
-352.946014404297

> <r_mmod_Solvation_Energy-OPLS-2005>
-230.413726806641

> <b_mmod_Minimization_Converged-OPLS-2005>
0

> <r_mmod_RMS_Derivative-OPLS-2005>
2.37896847724915

$$$$
30
                    3D
 Structure written by MMmdl.
157165  0  0  1  0            999 V2000
  -30.5226  -14.9082   20.4118 C   0  0  0  0  0  0
  -30.4463  -12.5553   19.4881 C   0  0  0  0  0  0
  -29.5236  -12.5331   18.2479 C   0  0  0  0  0  0
  -28.0520  -12.3291   18.6589 C   0  0  0  0  0  0
  -27.6361  -13.2420   19.8418 C   0  0  2  0  0  0
  -28.6799  -13.2265   20.9785 C   0  0  0  0  0  0
  -25.2497  -13.8203   20.5721 C   0  0  0  0  0  0
  -24.1795  -13.0437   20.9216 C   0  0  0  0  0  0
  -24.6392  -11.6916   20.8726 C   0  0  0  0  0  0
  -23.9070  -10.4295   21.0381 C   0  0  0  0  0  0
  -24.3611   -9.4214   21.9164 C   0  0  0  0  0  0
  -23.6286   -8.2251   22.0749 C   0  0  0  0  0  0
  -22.4267   -8.0279   21.3543 C   0  0  0  0  0  0
  -21.9900   -9.0252   20.4647 C   0  0  0  0  0  0
  -22.7234  -10.2127   20.3044 C   0  0  0  0  0  0
  -21.6862   -6.0725   22.5267 C   0  0  0  0  0  0
  -21.4029   -6.5625   23.8206 C   0  0  0  0  0  0
  -21.3659   -5.6772   24.9167 C   0  0  0  0  0  0
  -21.6041   -4.3039   24.7215 C   0  0  0  0  0  0
  -21.8822   -3.8134   23.4339 C   0  0  0  0  0  0
  -21.9202   -4.6953   22.3396 C   0  0  0  0  0  0
  -22.7811  -13.5222   21.1856 C   0  0  0  0  0  0
  -22.1666   -4.2134   21.0975 F   0  0  0  0  0  0
  -21.5622   -3.4531   25.7733 F   0  0  0  0  0  0
  -29.9641  -13.6345   20.3919 N   0  0  0  0  0  0
  -26.2910  -12.9424   20.3232 N   0  0  0  0  0  0
  -25.9324  -11.6554   20.5694 N   0  0  0  0  0  0
  -22.0450  -12.8225   22.0412 N   0  0  0  0  0  0
  -25.4184  -15.1934   20.4196 N   0  0  0  0  0  0
  -31.7164  -15.0138   20.1096 O   0  0  0  0  0  0
  -21.6648   -6.8864   21.4232 O   0  0  0  0  0  0
  -22.3500  -14.5525   20.6700 O   0  0  0  0  0  0
  -24.6418  -31.8455   23.1911 C   0  0  0  0  0  0
  -25.9212  -32.4692   23.8279 C   0  0  1  0  0  0
  -27.2165  -27.1530   20.1303 C   0  0  0  0  0  0
  -25.5976  -33.8495   24.2197 N   0  0  0  0  0  0
  -23.4431  -30.4664   21.5383 C   0  0  2  0  0  0
  -24.8892  -28.9012   20.1061 C   0  0  0  0  0  0
  -22.7560  -29.4550   22.4884 C   0  0  0  0  0  0
  -18.0301  -28.1425   22.8457 C   0  0  0  0  0  0
  -24.1486  -36.7246   23.2638 C   0  0  0  0  0  0
  -25.9984  -30.7229   21.3882 C   0  0  0  0  0  0
  -26.0666  -29.3374   20.7247 C   0  0  0  0  0  0
  -27.2259  -28.4771   20.7257 C   0  0  0  0  0  0
  -26.0068  -26.8141   19.4805 C   0  0  0  0  0  0
  -24.8715  -27.6513   19.4724 C   0  0  0  0  0  0
  -23.6653  -29.8015   20.1549 C   0  0  0  0  0  0
  -25.4116  -36.3022   24.0312 C   0  0  1  0  0  0
  -20.5912  -28.3735   23.1251 C   0  0  2  0  0  0
  -20.6791  -26.9437   22.5420 C   0  0  0  0  0  0
  -19.5772  -26.6397   21.5219 C   0  0  0  0  0  0
  -18.1945  -26.7966   22.1610 C   0  0  0  0  0  0
  -19.1556  -28.8899   23.2845 C   0  0  0  0  0  0
  -18.9468  -30.1502   23.8868 C   0  0  0  0  0  0
  -17.6458  -30.6607   24.0568 C   0  0  0  0  0  0
  -25.9066  -34.9395   23.5056 C   0  0  0  0  0  0
  -16.5356  -29.9091   23.6352 C   0  0  0  0  0  0
  -16.7281  -28.6530   23.0336 C   0  0  0  0  0  0
  -26.4541  -31.6560   25.0720 C   0  0  0  0  0  0
  -25.3710  -31.3778   26.1411 C   0  0  0  0  0  0
  -27.0400  -30.2948   24.6312 C   0  0  0  0  0  0
  -27.6081  -32.4318   25.7495 C   0  0  0  0  0  0
  -27.5575  -37.1772   24.8454 C   0  0  0  0  0  0
  -21.4253  -29.3045   22.3618 N   0  0  0  0  0  0
  -26.4282  -37.3732   23.9402 N   0  0  0  0  0  0
  -24.7142  -31.0319   22.0944 N   0  0  0  0  0  0
  -23.4208  -28.8091   23.3025 O   0  0  0  0  0  0
  -28.2855  -26.1917   20.2383 O   0  0  0  0  0  0
  -26.5647  -34.8897   22.4629 O   0  0  0  0  0  0
  -23.5546  -32.1330   23.7149 O   0  0  0  0  0  0
  -30.1470  -19.7724   19.3396 C   0  0  0  0  0  0
  -28.6146  -19.8240   21.1084 C   0  0  0  0  0  0
  -29.2684  -20.6103   20.1101 C   0  0  0  0  0  0
  -30.3374  -18.3384   19.4939 C   0  0  0  0  0  0
  -28.7572  -18.3793   21.2715 C   0  0  0  0  0  0
  -29.6453  -17.5468   20.4776 C   0  0  0  0  0  0
  -29.0829  -22.1632   19.7656 C   0  0  0  0  0  0
  -28.4906  -23.3363   20.2924 C   0  0  0  0  0  0
  -31.2815  -17.6611   18.5164 C   0  0  0  0  0  0
  -26.4287  -18.1753   22.3604 C   0  0  0  0  0  0
  -27.8985  -17.7220   22.3568 C   0  0  0  0  0  0
  -28.3332  -24.7986   19.5630 C   0  0  0  0  0  0
  -29.6721  -16.0175   20.6383 N   0  0  0  0  0  0
  -31.4806  -12.7148   19.1768 H   0  0  0  0  0  0
  -30.4327  -11.5916   19.9991 H   0  0  0  0  0  0
  -29.8318  -11.7489   17.5550 H   0  0  0  0  0  0
  -29.6214  -13.4756   17.7077 H   0  0  0  0  0  0
  -27.9305  -11.2825   18.9405 H   0  0  0  0  0  0
  -27.3959  -12.4958   17.8043 H   0  0  0  0  0  0
  -27.6111  -14.2527   19.4327 H   0  0  0  0  0  0
  -28.7549  -12.2348   21.4283 H   0  0  0  0  0  0
  -28.3866  -13.9050   21.7810 H   0  0  0  0  0  0
  -25.2752   -9.5701   22.4736 H   0  0  0  0  0  0
  -24.0001   -7.4649   22.7471 H   0  0  0  0  0  0
  -21.0832   -8.8761   19.8950 H   0  0  0  0  0  0
  -22.3675  -10.9659   19.6156 H   0  0  0  0  0  0
  -21.2025   -7.6127   23.9701 H   0  0  0  0  0  0
  -21.1477   -6.0506   25.9067 H   0  0  0  0  0  0
  -22.0603   -2.7595   23.2846 H   0  0  0  0  0  0
  -22.4057  -11.9892   22.4811 H   0  0  0  0  0  0
  -21.1070  -13.1259   22.2591 H   0  0  0  0  0  0
  -24.6535  -15.8451   20.5512 H   0  0  0  0  0  0
  -26.2598  -15.6399   20.0790 H   0  0  0  0  0  0
  -26.7276  -32.5302   23.1001 H   0  0  0  0  0  0
  -25.0121  -33.9611   25.0350 H   0  0  0  0  0  0
  -22.7445  -31.2933   21.3907 H   0  0  0  0  0  0
  -23.3752  -35.9572   23.3276 H   0  0  0  0  0  0
  -24.3579  -36.8893   22.2055 H   0  0  0  0  0  0
  -23.7236  -37.6430   23.6695 H   0  0  0  0  0  0
  -26.1529  -31.4798   20.6184 H   0  0  0  0  0  0
  -26.8695  -30.7700   22.0297 H   0  0  0  0  0  0
  -28.1204  -28.8034   21.2368 H   0  0  0  0  0  0
  -25.8714  -25.8579   19.0058 H   0  0  0  0  0  0
  -23.9682  -27.3054   18.9869 H   0  0  0  0  0  0
  -23.7992  -30.5799   19.4025 H   0  0  0  0  0  0
  -22.7782  -29.2451   19.8465 H   0  0  0  0  0  0
  -25.1300  -36.1838   25.0802 H   0  0  0  0  0  0
  -20.9997  -28.3331   24.1374 H   0  0  0  0  0  0
  -20.5698  -26.2330   23.3630 H   0  0  0  0  0  0
  -21.6655  -26.7464   22.1211 H   0  0  0  0  0  0
  -19.6923  -25.6296   21.1273 H   0  0  0  0  0  0
  -19.6726  -27.3183   20.6732 H   0  0  0  0  0  0
  -17.4218  -26.6714   21.4004 H   0  0  0  0  0  0
  -18.0324  -26.0137   22.9030 H   0  0  0  0  0  0
  -19.7938  -30.7344   24.2202 H   0  0  0  0  0  0
  -17.5003  -31.6283   24.5184 H   0  0  0  0  0  0
  -15.5347  -30.2968   23.7720 H   0  0  0  0  0  0
  -15.8689  -28.0855   22.7035 H   0  0  0  0  0  0
  -24.5892  -30.7122   25.7737 H   0  0  0  0  0  0
  -24.8901  -32.2973   26.4753 H   0  0  0  0  0  0
  -25.7972  -30.9008   27.0242 H   0  0  0  0  0  0
  -26.3024  -29.6665   24.1309 H   0  0  0  0  0  0
  -27.3987  -29.7261   25.4903 H   0  0  0  0  0  0
  -27.8939  -30.4171   23.9644 H   0  0  0  0  0  0
  -27.2696  -33.3641   26.2028 H   0  0  0  0  0  0
  -28.3916  -32.6834   25.0334 H   0  0  0  0  0  0
  -28.0727  -31.8467   26.5443 H   0  0  0  0  0  0
  -28.2572  -38.0088   24.7517 H   0  0  0  0  0  0
  -28.1095  -36.2621   24.6252 H   0  0  0  0  0  0
  -27.2308  -37.1386   25.8861 H   0  0  0  0  0  0
  -20.9469  -29.8722   21.6772 H   0  0  0  0  0  0
  -26.0141  -38.2789   24.1436 H   0  0  0  0  0  0
  -30.6976  -20.2594   18.5475 H   0  0  0  0  0  0
  -27.9340  -20.3555   21.7562 H   0  0  0  0  0  0
  -29.5147  -22.3640   18.7955 H   0  0  0  0  0  0
  -28.0214  -23.2701   21.2638 H   0  0  0  0  0  0
  -31.5387  -18.3172   17.6840 H   0  0  0  0  0  0
  -30.8301  -16.7634   18.0952 H   0  0  0  0  0  0
  -32.2087  -17.3825   19.0162 H   0  0  0  0  0  0
  -25.8457  -17.5780   23.0617 H   0  0  0  0  0  0
  -25.9747  -18.0602   21.3750 H   0  0  0  0  0  0
  -26.3149  -19.2147   22.6665 H   0  0  0  0  0  0
  -28.3505  -17.9270   23.3284 H   0  0  0  0  0  0
  -27.8927  -16.6385   22.2565 H   0  0  0  0  0  0
  -27.4982  -24.6774   18.8814 H   0  0  0  0  0  0
  -29.1850  -24.8603   18.8861 H   0  0  0  0  0  0
  -28.7967  -15.6746   21.0008 H   0  0  0  0  0  0
  1 25  1  0  0  0
  1 30  2  0  0  0
  1 83  1  0  0  0
  2  3  1  0  0  0
  2 25  1  0  0  0
  2 84  1  0  0  0
  2 85  1  0  0  0
  3  4  1  0  0  0
  3 86  1  0  0  0
  3 87  1  0  0  0
  4  5  1  0  0  0
  4 88  1  0  0  0
  4 89  1  0  0  0
  5  6  1  0  0  0
  5 26  1  0  0  0
  5 90  1  0  0  0
  6 25  1  0  0  0
  6 91  1  0  0  0
  6 92  1  0  0  0
  7  8  2  0  0  0
  7 26  1  0  0  0
  7 29  1  0  0  0
  8  9  1  0  0  0
  8 22  1  0  0  0
  9 10  1  0  0  0
  9 27  2  0  0  0
 10 11  2  0  0  0
 10 15  1  0  0  0
 11 12  1  0  0  0
 11 93  1  0  0  0
 12 13  2  0  0  0
 12 94  1  0  0  0
 13 14  1  0  0  0
 13 31  1  0  0  0
 14 15  2  0  0  0
 14 95  1  0  0  0
 15 96  1  0  0  0
 16 17  2  0  0  0
 16 21  1  0  0  0
 16 31  1  0  0  0
 17 18  1  0  0  0
 17 97  1  0  0  0
 18 19  2  0  0  0
 18 98  1  0  0  0
 19 20  1  0  0  0
 19 24  1  0  0  0
 20 21  2  0  0  0
 20 99  1  0  0  0
 21 23  1  0  0  0
 22 28  1  0  0  0
 22 32  2  0  0  0
 26 27  1  0  0  0
 28100  1  0  0  0
 28101  1  0  0  0
 29102  1  0  0  0
 29103  1  0  0  0
 33 34  1  0  0  0
 33 66  1  0  0  0
 33 70  2  0  0  0
 34 36  1  0  0  0
 34 59  1  0  0  0
 34104  1  0  0  0
 35 44  2  0  0  0
 35 45  1  0  0  0
 35 68  1  0  0  0
 36 56  1  0  0  0
 36105  1  0  0  0
 37 39  1  0  0  0
 37 47  1  0  0  0
 37 66  1  0  0  0
 37106  1  0  0  0
 38 43  2  0  0  0
 38 46  1  0  0  0
 38 47  1  0  0  0
 39 64  1  0  0  0
 39 67  2  0  0  0
 40 52  1  0  0  0
 40 53  2  0  0  0
 40 58  1  0  0  0
 41107  1  0  0  0
 41108  1  0  0  0
 41109  1  0  0  0
 41 48  1  0  0  0
 42 43  1  0  0  0
 42 66  1  0  0  0
 42110  1  0  0  0
 42111  1  0  0  0
 43 44  1  0  0  0
 44112  1  0  0  0
 45 46  2  0  0  0
 45113  1  0  0  0
 46114  1  0  0  0
 47115  1  0  0  0
 47116  1  0  0  0
 48 56  1  0  0  0
 48 65  1  0  0  0
 48117  1  0  0  0
 49 50  1  0  0  0
 49 53  1  0  0  0
 49 64  1  0  0  0
 49118  1  0  0  0
 50 51  1  0  0  0
 50119  1  0  0  0
 50120  1  0  0  0
 51 52  1  0  0  0
 51121  1  0  0  0
 51122  1  0  0  0
 52123  1  0  0  0
 52124  1  0  0  0
 53 54  1  0  0  0
 54 55  2  0  0  0
 54125  1  0  0  0
 55 57  1  0  0  0
 55126  1  0  0  0
 56 69  2  0  0  0
 57 58  2  0  0  0
 57127  1  0  0  0
 58128  1  0  0  0
 59 60  1  0  0  0
 59 61  1  0  0  0
 59 62  1  0  0  0
 60129  1  0  0  0
 60130  1  0  0  0
 60131  1  0  0  0
 61132  1  0  0  0
 61133  1  0  0  0
 61134  1  0  0  0
 62135  1  0  0  0
 62136  1  0  0  0
 62137  1  0  0  0
 63 65  1  0  0  0
 63138  1  0  0  0
 63139  1  0  0  0
 63140  1  0  0  0
 64141  1  0  0  0
 65142  1  0  0  0
 68 82  1  0  0  0
 71 73  2  0  0  0
 71 74  1  0  0  0
 71143  1  0  0  0
 72 73  1  0  0  0
 72 75  2  0  0  0
 72144  1  0  0  0
 73 77  1  0  0  0
 74 76  2  0  0  0
 74 79  1  0  0  0
 75 76  1  0  0  0
 75 81  1  0  0  0
 76 83  1  0  0  0
 77 78  2  0  0  0
 77145  1  0  0  0
 78 82  1  0  0  0
 78146  1  0  0  0
 79147  1  0  0  0
 79148  1  0  0  0
 79149  1  0  0  0
 80 81  1  0  0  0
 80150  1  0  0  0
 80151  1  0  0  0
 80152  1  0  0  0
 81153  1  0  0  0
 81154  1  0  0  0
 82155  1  0  0  0
 82156  1  0  0  0
 83157  1  0  0  0
M  ISO  4   1 100  68 101  82 101  83 100
M  END
> <chiral flag>
0

> <version>
0

> <s_m_source_file>
/data/baiqing/PycharmProjects/Reinvent-master-3.2/result/LINK_invent/BTK/process_docking_weight1_custom_product_contain_oxygen_bond_distance_aromatic_linkinvent_7_9_3/rearranged_h_0126.sdf

> <i_m_source_file_index>
31

> <r_mmod_Potential_Energy-OPLS-2005>
414.904632568359

> <r_mmod_Stretch_Energy-OPLS-2005>
215.625442504883

> <r_mmod_Bend_Energy-OPLS-2005>
264.305786132812

> <r_mmod_Torsional_Energy-OPLS-2005>
221.458145141602

> <r_mmod_Improper_Torsional_Energy-OPLS-2005>
4.69788551330566

> <r_mmod_Van_der_Waal_Energy-OPLS-2005>
135.886901855469

> <r_mmod_Electrostatic_Energy-OPLS-2005>
-397.075500488281

> <r_mmod_Solvation_Energy-OPLS-2005>
-200.354644775391

> <b_mmod_Minimization_Converged-OPLS-2005>
0

> <r_mmod_RMS_Derivative-OPLS-2005>
1.96651017665863

$$$$
31
                    3D
 Structure written by MMmdl.
158166  0  0  1  0            999 V2000
  -30.7114  -14.4314   20.6155 C   0  0  0  0  0  0
  -30.4200  -12.2915   19.4075 C   0  0  0  0  0  0
  -29.4912  -12.5190   18.1987 C   0  0  0  0  0  0
  -28.0134  -12.3730   18.6119 C   0  0  0  0  0  0
  -27.6662  -13.2005   19.8792 C   0  0  2  0  0  0
  -28.7082  -12.9591   20.9951 C   0  0  0  0  0  0
  -25.2632  -13.8148   20.5680 C   0  0  0  0  0  0
  -24.1872  -13.0433   20.9162 C   0  0  0  0  0  0
  -24.6408  -11.6897   20.8724 C   0  0  0  0  0  0
  -23.9063  -10.4292   21.0396 C   0  0  0  0  0  0
  -24.3611   -9.4214   21.9185 C   0  0  0  0  0  0
  -23.6287   -8.2253   22.0766 C   0  0  0  0  0  0
  -22.4281   -8.0283   21.3540 C   0  0  0  0  0  0
  -21.9904   -9.0257   20.4645 C   0  0  0  0  0  0
  -22.7229  -10.2137   20.3052 C   0  0  0  0  0  0
  -21.6862   -6.0739   22.5279 C   0  0  0  0  0  0
  -21.4015   -6.5639   23.8213 C   0  0  0  0  0  0
  -21.3661   -5.6794   24.9174 C   0  0  0  0  0  0
  -21.6042   -4.3057   24.7227 C   0  0  0  0  0  0
  -21.8822   -3.8149   23.4351 C   0  0  0  0  0  0
  -21.9196   -4.6966   22.3405 C   0  0  0  0  0  0
  -22.7892  -13.5239   21.1819 C   0  0  0  0  0  0
  -22.1662   -4.2147   21.0986 F   0  0  0  0  0  0
  -21.5617   -3.4543   25.7742 F   0  0  0  0  0  0
  -30.0384  -13.2611   20.4463 N   0  0  0  0  0  0
  -26.3057  -12.9296   20.3381 N   0  0  0  0  0  0
  -25.9333  -11.6455   20.5758 N   0  0  0  0  0  0
  -22.0516  -12.8246   22.0370 N   0  0  0  0  0  0
  -25.4387  -15.1866   20.4094 N   0  0  0  0  0  0
  -31.8113  -14.6122   20.0778 O   0  0  0  0  0  0
  -21.6643   -6.8885   21.4243 O   0  0  0  0  0  0
  -22.3583  -14.5549   20.6662 O   0  0  0  0  0  0
  -24.6146  -31.8699   23.2128 C   0  0  0  0  0  0
  -25.9052  -32.4826   23.8416 C   0  0  1  0  0  0
  -27.2270  -27.4405   20.0875 C   0  0  0  0  0  0
  -25.5911  -33.8625   24.2348 N   0  0  0  0  0  0
  -23.4005  -30.4959   21.5538 C   0  0  2  0  0  0
  -24.8423  -28.9650   20.1170 C   0  0  0  0  0  0
  -22.7403  -29.4680   22.5006 C   0  0  0  0  0  0
  -18.0272  -28.1389   22.8497 C   0  0  0  0  0  0
  -24.1490  -36.7311   23.2639 C   0  0  0  0  0  0
  -25.9295  -30.8379   21.3639 C   0  0  0  0  0  0
  -26.0038  -29.4733   20.7097 C   0  0  0  0  0  0
  -27.1982  -28.7179   20.6918 C   0  0  0  0  0  0
  -26.0397  -26.9442   19.4962 C   0  0  0  0  0  0
  -24.8541  -27.6990   19.5102 C   0  0  0  0  0  0
  -23.6069  -29.8325   20.1671 C   0  0  0  0  0  0
  -25.4110  -36.3114   24.0339 C   0  0  1  0  0  0
  -20.5859  -28.3676   23.1324 C   0  0  2  0  0  0
  -20.6773  -26.9419   22.5415 C   0  0  0  0  0  0
  -19.5744  -26.6398   21.5220 C   0  0  0  0  0  0
  -18.1919  -26.7938   22.1626 C   0  0  0  0  0  0
  -19.1521  -28.8849   23.2906 C   0  0  0  0  0  0
  -18.9448  -30.1453   23.8919 C   0  0  0  0  0  0
  -17.6451  -30.6594   24.0570 C   0  0  0  0  0  0
  -25.9035  -34.9477   23.5140 C   0  0  0  0  0  0
  -16.5342  -29.9098   23.6328 C   0  0  0  0  0  0
  -16.7261  -28.6514   23.0353 C   0  0  0  0  0  0
  -26.4485  -31.6597   25.0730 C   0  0  0  0  0  0
  -25.3752  -31.3683   26.1474 C   0  0  0  0  0  0
  -27.0310  -30.3043   24.6090 C   0  0  0  0  0  0
  -27.6067  -32.4304   25.7491 C   0  0  0  0  0  0
  -27.5582  -37.1809   24.8467 C   0  0  0  0  0  0
  -21.4133  -29.3043   22.3734 N   0  0  0  0  0  0
  -26.4292  -37.3797   23.9411 N   0  0  0  0  0  0
  -24.6667  -31.0819   22.1019 N   0  0  0  0  0  0
  -23.4182  -28.8214   23.3039 O   0  0  0  0  0  0
  -28.4071  -26.7257   20.0930 O   0  0  0  0  0  0
  -26.5585  -34.8922   22.4695 O   0  0  0  0  0  0
  -23.5340  -32.1449   23.7529 O   0  0  0  0  0  0
  -32.0073  -20.8037   18.0616 C   0  0  0  0  0  0
  -30.4008  -20.1154   19.7626 C   0  0  0  0  0  0
  -31.6149  -18.4360   18.4592 C   0  0  0  0  0  0
  -31.0873  -21.1469   19.0740 C   0  0  0  0  0  0
  -32.2622  -19.4572   17.7405 C   0  0  0  0  0  0
  -30.6977  -18.7589   19.4813 C   0  0  0  0  0  0
  -30.8652  -22.5827   19.3215 C   0  0  0  0  0  0
  -29.7352  -23.1724   19.7586 C   0  0  0  0  0  0
  -29.6825  -24.6352   19.9586 C   0  0  0  0  0  0
  -30.6891  -16.9224   21.0861 C   0  0  0  0  0  0
  -33.2291  -19.1051   16.6277 C   0  0  0  0  0  0
  -28.3195  -25.3221   19.8060 C   0  0  0  0  0  0
  -30.0449  -15.5672   21.4428 C   0  0  0  0  0  0
  -30.0660  -17.7016   20.1809 N   0  0  0  0  0  0
  -30.6860  -25.3090   20.2205 O   0  0  0  0  0  0
  -31.7107  -17.2912   21.6767 O   0  0  0  0  0  0
  -31.4653  -12.3833   19.1053 H   0  0  0  0  0  0
  -30.3121  -11.2745   19.7868 H   0  0  0  0  0  0
  -29.7309  -11.8154   17.4008 H   0  0  0  0  0  0
  -29.6603  -13.5162   17.7901 H   0  0  0  0  0  0
  -27.8216  -11.3154   18.7956 H   0  0  0  0  0  0
  -27.3628  -12.6588   17.7847 H   0  0  0  0  0  0
  -27.7179  -14.2514   19.5955 H   0  0  0  0  0  0
  -28.6793  -11.9174   21.3177 H   0  0  0  0  0  0
  -28.4750  -13.5394   21.8878 H   0  0  0  0  0  0
  -25.2752   -9.5690   22.4760 H   0  0  0  0  0  0
  -23.9993   -7.4655   22.7500 H   0  0  0  0  0  0
  -21.0833   -8.8770   19.8956 H   0  0  0  0  0  0
  -22.3685  -10.9675   19.6165 H   0  0  0  0  0  0
  -21.2008   -7.6146   23.9708 H   0  0  0  0  0  0
  -21.1471   -6.0528   25.9072 H   0  0  0  0  0  0
  -22.0598   -2.7611   23.2860 H   0  0  0  0  0  0
  -22.4116  -11.9896   22.4743 H   0  0  0  0  0  0
  -21.1139  -13.1287   22.2576 H   0  0  0  0  0  0
  -24.6757  -15.8461   20.5183 H   0  0  0  0  0  0
  -26.2931  -15.6213   20.0833 H   0  0  0  0  0  0
  -26.7122  -32.5549   23.1182 H   0  0  0  0  0  0
  -25.0083  -33.9795   25.0505 H   0  0  0  0  0  0
  -22.6885  -31.3123   21.4177 H   0  0  0  0  0  0
  -23.3749  -35.9647   23.3307 H   0  0  0  0  0  0
  -24.3585  -36.8918   22.2052 H   0  0  0  0  0  0
  -23.7245  -37.6519   23.6646 H   0  0  0  0  0  0
  -26.0402  -31.6064   20.5975 H   0  0  0  0  0  0
  -26.8183  -30.8900   21.9807 H   0  0  0  0  0  0
  -28.0957  -29.1094   21.1498 H   0  0  0  0  0  0
  -26.0010  -25.9796   19.0129 H   0  0  0  0  0  0
  -23.9589  -27.3012   19.0521 H   0  0  0  0  0  0
  -23.7176  -30.6092   19.4097 H   0  0  0  0  0  0
  -22.7302  -29.2546   19.8697 H   0  0  0  0  0  0
  -25.1289  -36.1981   25.0831 H   0  0  0  0  0  0
  -20.9942  -28.3246   24.1450 H   0  0  0  0  0  0
  -20.5707  -26.2286   23.3601 H   0  0  0  0  0  0
  -21.6643  -26.7483   22.1198 H   0  0  0  0  0  0
  -19.6909  -25.6314   21.1242 H   0  0  0  0  0  0
  -19.6682  -27.3217   20.6758 H   0  0  0  0  0  0
  -17.4195  -26.6701   21.4018 H   0  0  0  0  0  0
  -18.0297  -26.0075   22.9013 H   0  0  0  0  0  0
  -19.7918  -30.7266   24.2306 H   0  0  0  0  0  0
  -17.5002  -31.6278   24.5166 H   0  0  0  0  0  0
  -15.5344  -30.3008   23.7642 H   0  0  0  0  0  0
  -15.8661  -28.0840   22.7059 H   0  0  0  0  0  0
  -24.5930  -30.7033   25.7797 H   0  0  0  0  0  0
  -24.8936  -32.2825   26.4946 H   0  0  0  0  0  0
  -25.8104  -30.8828   27.0215 H   0  0  0  0  0  0
  -26.2844  -29.6798   24.1164 H   0  0  0  0  0  0
  -27.4112  -29.7285   25.4539 H   0  0  0  0  0  0
  -27.8669  -30.4371   23.9213 H   0  0  0  0  0  0
  -27.2699  -33.3588   26.2118 H   0  0  0  0  0  0
  -28.3854  -32.6889   25.0299 H   0  0  0  0  0  0
  -28.0763  -31.8392   26.5365 H   0  0  0  0  0  0
  -28.2606  -38.0103   24.7516 H   0  0  0  0  0  0
  -28.1075  -36.2632   24.6294 H   0  0  0  0  0  0
  -27.2296  -37.1465   25.8870 H   0  0  0  0  0  0
  -20.9296  -29.8759   21.6951 H   0  0  0  0  0  0
  -26.0182  -38.2876   24.1409 H   0  0  0  0  0  0
  -32.5129  -21.5869   17.5135 H   0  0  0  0  0  0
  -29.6828  -20.3612   20.5325 H   0  0  0  0  0  0
  -31.8244  -17.4006   18.2257 H   0  0  0  0  0  0
  -31.7274  -23.2101   19.1333 H   0  0  0  0  0  0
  -28.8404  -22.6009   19.9578 H   0  0  0  0  0  0
  -33.4913  -19.9814   16.0329 H   0  0  0  0  0  0
  -32.7856  -18.3684   15.9569 H   0  0  0  0  0  0
  -34.1466  -18.6842   17.0393 H   0  0  0  0  0  0
  -27.6003  -24.8419   20.4703 H   0  0  0  0  0  0
  -27.9849  -25.1719   18.7797 H   0  0  0  0  0  0
  -28.9764  -15.6298   21.2370 H   0  0  0  0  0  0
  -30.1652  -15.3605   22.5059 H   0  0  0  0  0  0
  -29.1631  -17.4028   19.8350 H   0  0  0  0  0  0
  1 25  1  0  0  0
  1 30  2  0  0  0
  1 83  1  0  0  0
  2  3  1  0  0  0
  2 25  1  0  0  0
  2 87  1  0  0  0
  2 88  1  0  0  0
  3  4  1  0  0  0
  3 89  1  0  0  0
  3 90  1  0  0  0
  4  5  1  0  0  0
  4 91  1  0  0  0
  4 92  1  0  0  0
  5  6  1  0  0  0
  5 26  1  0  0  0
  5 93  1  0  0  0
  6 25  1  0  0  0
  6 94  1  0  0  0
  6 95  1  0  0  0
  7  8  2  0  0  0
  7 26  1  0  0  0
  7 29  1  0  0  0
  8  9  1  0  0  0
  8 22  1  0  0  0
  9 10  1  0  0  0
  9 27  2  0  0  0
 10 11  2  0  0  0
 10 15  1  0  0  0
 11 12  1  0  0  0
 11 96  1  0  0  0
 12 13  2  0  0  0
 12 97  1  0  0  0
 13 14  1  0  0  0
 13 31  1  0  0  0
 14 15  2  0  0  0
 14 98  1  0  0  0
 15 99  1  0  0  0
 16 17  2  0  0  0
 16 21  1  0  0  0
 16 31  1  0  0  0
 17 18  1  0  0  0
 17100  1  0  0  0
 18 19  2  0  0  0
 18101  1  0  0  0
 19 20  1  0  0  0
 19 24  1  0  0  0
 20 21  2  0  0  0
 20102  1  0  0  0
 21 23  1  0  0  0
 22 28  1  0  0  0
 22 32  2  0  0  0
 26 27  1  0  0  0
 28103  1  0  0  0
 28104  1  0  0  0
 29105  1  0  0  0
 29106  1  0  0  0
 33 34  1  0  0  0
 33 66  1  0  0  0
 33 70  2  0  0  0
 34 36  1  0  0  0
 34 59  1  0  0  0
 34107  1  0  0  0
 35 44  2  0  0  0
 35 45  1  0  0  0
 35 68  1  0  0  0
 36 56  1  0  0  0
 36108  1  0  0  0
 37 39  1  0  0  0
 37 47  1  0  0  0
 37 66  1  0  0  0
 37109  1  0  0  0
 38 43  2  0  0  0
 38 46  1  0  0  0
 38 47  1  0  0  0
 39 64  1  0  0  0
 39 67  2  0  0  0
 40 52  1  0  0  0
 40 53  2  0  0  0
 40 58  1  0  0  0
 41110  1  0  0  0
 41111  1  0  0  0
 41112  1  0  0  0
 41 48  1  0  0  0
 42 43  1  0  0  0
 42 66  1  0  0  0
 42113  1  0  0  0
 42114  1  0  0  0
 43 44  1  0  0  0
 44115  1  0  0  0
 45 46  2  0  0  0
 45116  1  0  0  0
 46117  1  0  0  0
 47118  1  0  0  0
 47119  1  0  0  0
 48 56  1  0  0  0
 48 65  1  0  0  0
 48120  1  0  0  0
 49 50  1  0  0  0
 49 53  1  0  0  0
 49 64  1  0  0  0
 49121  1  0  0  0
 50 51  1  0  0  0
 50122  1  0  0  0
 50123  1  0  0  0
 51 52  1  0  0  0
 51124  1  0  0  0
 51125  1  0  0  0
 52126  1  0  0  0
 52127  1  0  0  0
 53 54  1  0  0  0
 54 55  2  0  0  0
 54128  1  0  0  0
 55 57  1  0  0  0
 55129  1  0  0  0
 56 69  2  0  0  0
 57 58  2  0  0  0
 57130  1  0  0  0
 58131  1  0  0  0
 59 60  1  0  0  0
 59 61  1  0  0  0
 59 62  1  0  0  0
 60132  1  0  0  0
 60133  1  0  0  0
 60134  1  0  0  0
 61135  1  0  0  0
 61136  1  0  0  0
 61137  1  0  0  0
 62138  1  0  0  0
 62139  1  0  0  0
 62140  1  0  0  0
 63 65  1  0  0  0
 63141  1  0  0  0
 63142  1  0  0  0
 63143  1  0  0  0
 64144  1  0  0  0
 65145  1  0  0  0
 68 82  1  0  0  0
 71 74  2  0  0  0
 71 75  1  0  0  0
 71146  1  0  0  0
 72 74  1  0  0  0
 72 76  2  0  0  0
 72147  1  0  0  0
 73 75  2  0  0  0
 73 76  1  0  0  0
 73148  1  0  0  0
 74 77  1  0  0  0
 75 81  1  0  0  0
 76 84  1  0  0  0
 77 78  2  0  0  0
 77149  1  0  0  0
 78 79  1  0  0  0
 78150  1  0  0  0
 79 82  1  0  0  0
 79 85  2  0  0  0
 80 83  1  0  0  0
 80 84  1  0  0  0
 80 86  2  0  0  0
 81151  1  0  0  0
 81152  1  0  0  0
 81153  1  0  0  0
 82154  1  0  0  0
 82155  1  0  0  0
 83156  1  0  0  0
 83157  1  0  0  0
 84158  1  0  0  0
M  ISO  4   1 100  68 101  82 101  83 100
M  END
> <chiral flag>
0

> <version>
0

> <s_m_source_file>
/data/baiqing/PycharmProjects/Reinvent-master-3.2/result/LINK_invent/BTK/process_docking_weight1_custom_product_contain_oxygen_bond_distance_aromatic_linkinvent_7_9_3/rearranged_h_0126.sdf

> <i_m_source_file_index>
32

> <r_mmod_Potential_Energy-OPLS-2005>
-39.6082191467285

> <r_mmod_Stretch_Energy-OPLS-2005>
35.7856140136719

> <r_mmod_Bend_Energy-OPLS-2005>
90.6827850341797

> <r_mmod_Torsional_Energy-OPLS-2005>
217.782760620117

> <r_mmod_Improper_Torsional_Energy-OPLS-2005>
3.02059459686279

> <r_mmod_Van_der_Waal_Energy-OPLS-2005>
160.32780456543

> <r_mmod_Electrostatic_Energy-OPLS-2005>
-294.789855957031

> <r_mmod_Solvation_Energy-OPLS-2005>
-262.353149414062

> <b_mmod_Minimization_Converged-OPLS-2005>
0

> <r_mmod_RMS_Derivative-OPLS-2005>
1.42770206928253

$$$$
32
                    3D
 Structure written by MMmdl.
155163  0  0  1  0            999 V2000
  -30.7379  -14.5448   20.6205 C   0  0  0  0  0  0
  -30.4343  -12.3658   19.4670 C   0  0  0  0  0  0
  -29.4984  -12.4848   18.2477 C   0  0  0  0  0  0
  -28.0292  -12.3172   18.6661 C   0  0  0  0  0  0
  -27.6612  -13.2046   19.8859 C   0  0  2  0  0  0
  -28.6968  -13.0835   21.0268 C   0  0  0  0  0  0
  -25.2651  -13.8178   20.5750 C   0  0  0  0  0  0
  -24.1892  -13.0405   20.9135 C   0  0  0  0  0  0
  -24.6493  -11.6889   20.8748 C   0  0  0  0  0  0
  -23.9177  -10.4286   21.0454 C   0  0  0  0  0  0
  -24.3683   -9.4209   21.9247 C   0  0  0  0  0  0
  -23.6331   -8.2245   22.0786 C   0  0  0  0  0  0
  -22.4294   -8.0346   21.3559 C   0  0  0  0  0  0
  -21.9975   -9.0344   20.4673 C   0  0  0  0  0  0
  -22.7333  -10.2213   20.3102 C   0  0  0  0  0  0
  -21.6837   -6.0801   22.5309 C   0  0  0  0  0  0
  -21.3980   -6.5677   23.8245 C   0  0  0  0  0  0
  -21.3632   -5.6816   24.9181 C   0  0  0  0  0  0
  -21.6015   -4.3088   24.7208 C   0  0  0  0  0  0
  -21.8834   -3.8196   23.4326 C   0  0  0  0  0  0
  -21.9185   -4.7035   22.3393 C   0  0  0  0  0  0
  -22.7919  -13.5216   21.1756 C   0  0  0  0  0  0
  -22.1675   -4.2205   21.0968 F   0  0  0  0  0  0
  -21.5613   -3.4568   25.7729 F   0  0  0  0  0  0
  -30.0375  -13.3727   20.4768 N   0  0  0  0  0  0
  -26.3043  -12.9303   20.3462 N   0  0  0  0  0  0
  -25.9414  -11.6476   20.5847 N   0  0  0  0  0  0
  -22.0556  -12.8229   22.0368 N   0  0  0  0  0  0
  -25.4432  -15.1882   20.4350 N   0  0  0  0  0  0
  -31.7780  -14.7445   19.9854 O   0  0  0  0  0  0
  -21.6641   -6.8954   21.4268 O   0  0  0  0  0  0
  -22.3648  -14.5576   20.6682 O   0  0  0  0  0  0
  -24.6255  -31.8648   23.2130 C   0  0  0  0  0  0
  -25.9154  -32.4799   23.8401 C   0  0  1  0  0  0
  -27.2052  -27.3445   20.0984 C   0  0  0  0  0  0
  -25.5990  -33.8592   24.2321 N   0  0  0  0  0  0
  -23.4131  -30.4969   21.5555 C   0  0  2  0  0  0
  -24.8543  -28.9685   20.1073 C   0  0  0  0  0  0
  -22.7484  -29.4620   22.4932 C   0  0  0  0  0  0
  -18.0298  -28.1392   22.8468 C   0  0  0  0  0  0
  -24.1500  -36.7278   23.2640 C   0  0  0  0  0  0
  -25.9563  -30.8032   21.3832 C   0  0  0  0  0  0
  -26.0262  -29.4391   20.7084 C   0  0  0  0  0  0
  -27.2089  -28.6435   20.6872 C   0  0  0  0  0  0
  -25.9982  -26.9144   19.4886 C   0  0  0  0  0  0
  -24.8371  -27.7086   19.4947 C   0  0  0  0  0  0
  -23.6275  -29.8516   20.1611 C   0  0  0  0  0  0
  -25.4136  -36.3109   24.0334 C   0  0  1  0  0  0
  -20.5914  -28.3686   23.1272 C   0  0  2  0  0  0
  -20.6785  -26.9413   22.5398 C   0  0  0  0  0  0
  -19.5774  -26.6387   21.5195 C   0  0  0  0  0  0
  -18.1958  -26.7932   22.1593 C   0  0  0  0  0  0
  -19.1565  -28.8864   23.2880 C   0  0  0  0  0  0
  -18.9451  -30.1454   23.8893 C   0  0  0  0  0  0
  -17.6459  -30.6602   24.0552 C   0  0  0  0  0  0
  -25.9069  -34.9468   23.5128 C   0  0  0  0  0  0
  -16.5346  -29.9074   23.6328 C   0  0  0  0  0  0
  -16.7273  -28.6496   23.0335 C   0  0  0  0  0  0
  -26.4507  -31.6632   25.0787 C   0  0  0  0  0  0
  -25.3704  -31.3773   26.1493 C   0  0  0  0  0  0
  -27.0360  -30.3067   24.6266 C   0  0  0  0  0  0
  -27.6080  -32.4352   25.7535 C   0  0  0  0  0  0
  -27.5566  -37.1810   24.8457 C   0  0  0  0  0  0
  -21.4209  -29.3051   22.3696 N   0  0  0  0  0  0
  -26.4312  -37.3781   23.9394 N   0  0  0  0  0  0
  -24.6813  -31.0700   22.1066 N   0  0  0  0  0  0
  -23.4229  -28.8147   23.3000 O   0  0  0  0  0  0
  -28.3215  -26.4939   20.1402 O   0  0  0  0  0  0
  -26.5598  -34.8901   22.4658 O   0  0  0  0  0  0
  -23.5447  -32.1415   23.7524 O   0  0  0  0  0  0
  -28.9184  -19.5875   18.7982 C   0  0  0  0  0  0
  -28.4374  -18.7457   17.7758 C   0  0  0  0  0  0
  -29.0904  -16.8323   19.0755 C   0  0  0  0  0  0
  -29.4109  -19.0902   20.0403 C   0  0  0  0  0  0
  -29.4769  -17.6332   20.1769 C   0  0  0  0  0  0
  -28.5294  -17.3613   17.9153 C   0  0  0  0  0  0
  -29.8246  -16.8372   21.4079 C   0  0  0  0  0  0
  -30.2551  -15.5404   21.6003 C   0  0  0  0  0  0
  -29.8791  -21.6698   20.8702 C   0  0  0  0  0  0
  -28.9552  -22.5601   20.3953 C   0  0  0  0  0  0
  -29.8509  -20.1536   21.0594 C   0  0  0  0  0  0
  -29.2039  -24.0606   20.3491 C   0  0  0  0  0  0
  -28.0037  -25.0514   20.1633 C   0  0  0  0  0  0
  -30.3416  -19.8070   22.1761 N   0  0  0  0  0  0
  -30.3424  -24.5298   20.4597 O   0  0  0  0  0  0
  -28.0559  -16.5249   16.9587 F   0  0  0  0  0  0
  -31.4676  -12.4805   19.1287 H   0  0  0  0  0  0
  -30.3798  -11.3724   19.9200 H   0  0  0  0  0  0
  -29.7748  -11.7409   17.4942 H   0  0  0  0  0  0
  -29.6184  -13.4682   17.7838 H   0  0  0  0  0  0
  -27.8749  -11.2609   18.9104 H   0  0  0  0  0  0
  -27.3722  -12.5309   17.8243 H   0  0  0  0  0  0
  -27.6761  -14.2430   19.5534 H   0  0  0  0  0  0
  -28.6552  -12.0955   21.4957 H   0  0  0  0  0  0
  -28.4252  -13.7900   21.8080 H   0  0  0  0  0  0
  -25.2841   -9.5613   22.4861 H   0  0  0  0  0  0
  -24.0022   -7.4575   22.7487 H   0  0  0  0  0  0
  -21.0868   -8.8873   19.8970 H   0  0  0  0  0  0
  -22.3821  -10.9762   19.6223 H   0  0  0  0  0  0
  -21.2010   -7.6190   23.9769 H   0  0  0  0  0  0
  -21.1382   -6.0517   25.9075 H   0  0  0  0  0  0
  -22.0645   -2.7668   23.2781 H   0  0  0  0  0  0
  -22.4146  -11.9843   22.4675 H   0  0  0  0  0  0
  -21.1258  -13.1365   22.2759 H   0  0  0  0  0  0
  -24.6980  -15.8589   20.5887 H   0  0  0  0  0  0
  -26.3396  -15.6260   20.2452 H   0  0  0  0  0  0
  -26.7194  -32.5462   23.1107 H   0  0  0  0  0  0
  -25.0183  -33.9729   25.0502 H   0  0  0  0  0  0
  -22.7030  -31.3200   21.4276 H   0  0  0  0  0  0
  -23.3768  -35.9586   23.3328 H   0  0  0  0  0  0
  -24.3558  -36.8857   22.2031 H   0  0  0  0  0  0
  -23.7206  -37.6470   23.6631 H   0  0  0  0  0  0
  -26.1078  -31.5774   20.6296 H   0  0  0  0  0  0
  -26.8324  -30.8283   22.0220 H   0  0  0  0  0  0
  -28.1089  -29.0070   21.1614 H   0  0  0  0  0  0
  -25.9002  -25.9560   19.0039 H   0  0  0  0  0  0
  -23.9313  -27.3489   19.0279 H   0  0  0  0  0  0
  -23.7611  -30.6425   19.4255 H   0  0  0  0  0  0
  -22.7393  -29.3029   19.8403 H   0  0  0  0  0  0
  -25.1304  -36.1943   25.0809 H   0  0  0  0  0  0
  -20.9951  -28.3248   24.1421 H   0  0  0  0  0  0
  -20.5736  -26.2253   23.3592 H   0  0  0  0  0  0
  -21.6659  -26.7497   22.1162 H   0  0  0  0  0  0
  -19.6958  -25.6298   21.1227 H   0  0  0  0  0  0
  -19.6730  -27.3188   20.6749 H   0  0  0  0  0  0
  -17.4207  -26.6665   21.3993 H   0  0  0  0  0  0
  -18.0371  -26.0105   22.9030 H   0  0  0  0  0  0
  -19.7925  -30.7265   24.2279 H   0  0  0  0  0  0
  -17.5007  -31.6300   24.5121 H   0  0  0  0  0  0
  -15.5345  -30.2982   23.7717 H   0  0  0  0  0  0
  -15.8642  -28.0837   22.7097 H   0  0  0  0  0  0
  -24.5912  -30.7104   25.7770 H   0  0  0  0  0  0
  -24.8887  -32.2949   26.4879 H   0  0  0  0  0  0
  -25.8023  -30.8946   27.0273 H   0  0  0  0  0  0
  -26.2968  -29.6805   24.1284 H   0  0  0  0  0  0
  -27.4000  -29.7344   25.4801 H   0  0  0  0  0  0
  -27.8842  -30.4330   23.9549 H   0  0  0  0  0  0
  -27.2746  -33.3656   26.2115 H   0  0  0  0  0  0
  -28.3909  -32.6881   25.0385 H   0  0  0  0  0  0
  -28.0737  -31.8478   26.5445 H   0  0  0  0  0  0
  -28.2629  -38.0077   24.7528 H   0  0  0  0  0  0
  -28.1061  -36.2614   24.6324 H   0  0  0  0  0  0
  -27.2298  -37.1485   25.8871 H   0  0  0  0  0  0
  -20.9402  -29.8680   21.6799 H   0  0  0  0  0  0
  -26.0208  -38.2847   24.1413 H   0  0  0  0  0  0
  -28.8794  -20.6453   18.5964 H   0  0  0  0  0  0
  -27.9963  -19.1513   16.8752 H   0  0  0  0  0  0
  -29.1426  -15.7644   19.0947 H   0  0  0  0  0  0
  -29.6015  -17.3675   22.3268 H   0  0  0  0  0  0
  -30.3154  -15.2049   22.6243 H   0  0  0  0  0  0
  -30.8073  -22.1014   21.2164 H   0  0  0  0  0  0
  -28.0004  -22.1954   20.0445 H   0  0  0  0  0  0
  -27.4976  -24.7472   19.2508 H   0  0  0  0  0  0
  -27.3064  -24.8749   20.9823 H   0  0  0  0  0  0
  -30.3628  -18.8020   22.2901 H   0  0  0  0  0  0
  1 25  1  0  0  0
  1 30  2  0  0  0
  1 78  1  0  0  0
  2  3  1  0  0  0
  2 25  1  0  0  0
  2 87  1  0  0  0
  2 88  1  0  0  0
  3  4  1  0  0  0
  3 89  1  0  0  0
  3 90  1  0  0  0
  4  5  1  0  0  0
  4 91  1  0  0  0
  4 92  1  0  0  0
  5  6  1  0  0  0
  5 26  1  0  0  0
  5 93  1  0  0  0
  6 25  1  0  0  0
  6 94  1  0  0  0
  6 95  1  0  0  0
  7  8  2  0  0  0
  7 26  1  0  0  0
  7 29  1  0  0  0
  8  9  1  0  0  0
  8 22  1  0  0  0
  9 10  1  0  0  0
  9 27  2  0  0  0
 10 11  2  0  0  0
 10 15  1  0  0  0
 11 12  1  0  0  0
 11 96  1  0  0  0
 12 13  2  0  0  0
 12 97  1  0  0  0
 13 14  1  0  0  0
 13 31  1  0  0  0
 14 15  2  0  0  0
 14 98  1  0  0  0
 15 99  1  0  0  0
 16 17  2  0  0  0
 16 21  1  0  0  0
 16 31  1  0  0  0
 17 18  1  0  0  0
 17100  1  0  0  0
 18 19  2  0  0  0
 18101  1  0  0  0
 19 20  1  0  0  0
 19 24  1  0  0  0
 20 21  2  0  0  0
 20102  1  0  0  0
 21 23  1  0  0  0
 22 28  1  0  0  0
 22 32  2  0  0  0
 26 27  1  0  0  0
 28103  1  0  0  0
 28104  1  0  0  0
 29105  1  0  0  0
 29106  1  0  0  0
 33 34  1  0  0  0
 33 66  1  0  0  0
 33 70  2  0  0  0
 34 36  1  0  0  0
 34 59  1  0  0  0
 34107  1  0  0  0
 35 44  2  0  0  0
 35 45  1  0  0  0
 35 68  1  0  0  0
 36 56  1  0  0  0
 36108  1  0  0  0
 37 39  1  0  0  0
 37 47  1  0  0  0
 37 66  1  0  0  0
 37109  1  0  0  0
 38 43  2  0  0  0
 38 46  1  0  0  0
 38 47  1  0  0  0
 39 64  1  0  0  0
 39 67  2  0  0  0
 40 52  1  0  0  0
 40 53  2  0  0  0
 40 58  1  0  0  0
 41110  1  0  0  0
 41111  1  0  0  0
 41112  1  0  0  0
 41 48  1  0  0  0
 42 43  1  0  0  0
 42 66  1  0  0  0
 42113  1  0  0  0
 42114  1  0  0  0
 43 44  1  0  0  0
 44115  1  0  0  0
 45 46  2  0  0  0
 45116  1  0  0  0
 46117  1  0  0  0
 47118  1  0  0  0
 47119  1  0  0  0
 48 56  1  0  0  0
 48 65  1  0  0  0
 48120  1  0  0  0
 49 50  1  0  0  0
 49 53  1  0  0  0
 49 64  1  0  0  0
 49121  1  0  0  0
 50 51  1  0  0  0
 50122  1  0  0  0
 50123  1  0  0  0
 51 52  1  0  0  0
 51124  1  0  0  0
 51125  1  0  0  0
 52126  1  0  0  0
 52127  1  0  0  0
 53 54  1  0  0  0
 54 55  2  0  0  0
 54128  1  0  0  0
 55 57  1  0  0  0
 55129  1  0  0  0
 56 69  2  0  0  0
 57 58  2  0  0  0
 57130  1  0  0  0
 58131  1  0  0  0
 59 60  1  0  0  0
 59 61  1  0  0  0
 59 62  1  0  0  0
 60132  1  0  0  0
 60133  1  0  0  0
 60134  1  0  0  0
 61135  1  0  0  0
 61136  1  0  0  0
 61137  1  0  0  0
 62138  1  0  0  0
 62139  1  0  0  0
 62140  1  0  0  0
 63 65  1  0  0  0
 63141  1  0  0  0
 63142  1  0  0  0
 63143  1  0  0  0
 64144  1  0  0  0
 65145  1  0  0  0
 68 83  1  0  0  0
 71 72  2  0  0  0
 71 74  1  0  0  0
 71146  1  0  0  0
 72 76  1  0  0  0
 72147  1  0  0  0
 73 75  1  0  0  0
 73 76  2  0  0  0
 73148  1  0  0  0
 74 75  2  0  0  0
 74 81  1  0  0  0
 75 77  1  0  0  0
 76 86  1  0  0  0
 77 78  2  0  0  0
 77149  1  0  0  0
 78150  1  0  0  0
 79 80  2  0  0  0
 79 81  1  0  0  0
 79151  1  0  0  0
 80 82  1  0  0  0
 80152  1  0  0  0
 81 84  2  0  0  0
 82 83  1  0  0  0
 82 85  2  0  0  0
 83153  1  0  0  0
 83154  1  0  0  0
 84155  1  0  0  0
M  ISO  4   1 100  68 101  78 100  83 101
M  END
> <chiral flag>
0

> <version>
0

> <s_m_source_file>
/data/baiqing/PycharmProjects/Reinvent-master-3.2/result/LINK_invent/BTK/process_docking_weight1_custom_product_contain_oxygen_bond_distance_aromatic_linkinvent_7_9_3/rearranged_h_0126.sdf

> <i_m_source_file_index>
33

> <r_mmod_Potential_Energy-OPLS-2005>
105.050155639648

> <r_mmod_Stretch_Energy-OPLS-2005>
84.2360229492188

> <r_mmod_Bend_Energy-OPLS-2005>
164.133178710938

> <r_mmod_Torsional_Energy-OPLS-2005>
214.468048095703

> <r_mmod_Improper_Torsional_Energy-OPLS-2005>
4.65055751800537

> <r_mmod_Van_der_Waal_Energy-OPLS-2005>
159.498764038086

> <r_mmod_Electrostatic_Energy-OPLS-2005>
-324.011352539062

> <r_mmod_Solvation_Energy-OPLS-2005>
-232.804046630859

> <b_mmod_Minimization_Converged-OPLS-2005>
0

> <r_mmod_RMS_Derivative-OPLS-2005>
9.97602081298828

$$$$
33
                    3D
 Structure written by MMmdl.
163171  0  0  1  0            999 V2000
  -30.7629  -14.4833   20.5011 C   0  0  0  0  0  0
  -30.4065  -12.2843   19.4770 C   0  0  0  0  0  0
  -29.5159  -12.4869   18.2375 C   0  0  0  0  0  0
  -28.0321  -12.3554   18.6280 C   0  0  0  0  0  0
  -27.6593  -13.2228   19.8616 C   0  0  2  0  0  0
  -28.6975  -13.0768   21.0001 C   0  0  0  0  0  0
  -25.2559  -13.8186   20.5634 C   0  0  0  0  0  0
  -24.1802  -13.0463   20.9132 C   0  0  0  0  0  0
  -24.6356  -11.6938   20.8700 C   0  0  0  0  0  0
  -23.8995  -10.4318   21.0382 C   0  0  0  0  0  0
  -24.3558   -9.4263   21.9185 C   0  0  0  0  0  0
  -23.6283   -8.2275   22.0776 C   0  0  0  0  0  0
  -22.4270   -8.0251   21.3557 C   0  0  0  0  0  0
  -21.9870   -9.0208   20.4665 C   0  0  0  0  0  0
  -22.7163  -10.2123   20.3064 C   0  0  0  0  0  0
  -21.6841   -6.0728   22.5292 C   0  0  0  0  0  0
  -21.3989   -6.5640   23.8209 C   0  0  0  0  0  0
  -21.3654   -5.6795   24.9171 C   0  0  0  0  0  0
  -21.6071   -4.3060   24.7224 C   0  0  0  0  0  0
  -21.8808   -3.8139   23.4327 C   0  0  0  0  0  0
  -21.9171   -4.6957   22.3385 C   0  0  0  0  0  0
  -22.7815  -13.5265   21.1759 C   0  0  0  0  0  0
  -22.1661   -4.2152   21.0955 F   0  0  0  0  0  0
  -21.5639   -3.4530   25.7729 F   0  0  0  0  0  0
  -30.0344  -13.3333   20.4437 N   0  0  0  0  0  0
  -26.2991  -12.9398   20.3272 N   0  0  0  0  0  0
  -25.9288  -11.6544   20.5717 N   0  0  0  0  0  0
  -22.0381  -12.8352   22.0333 N   0  0  0  0  0  0
  -25.4323  -15.1907   20.4076 N   0  0  0  0  0  0
  -31.9291  -14.5018   20.0978 O   0  0  0  0  0  0
  -21.6639   -6.8854   21.4261 O   0  0  0  0  0  0
  -22.3551  -14.5534   20.6528 O   0  0  0  0  0  0
  -24.6133  -31.8692   23.2112 C   0  0  0  0  0  0
  -25.9008  -32.4827   23.8418 C   0  0  1  0  0  0
  -27.2758  -27.4603   20.0968 C   0  0  0  0  0  0
  -25.5823  -33.8623   24.2316 N   0  0  0  0  0  0
  -23.4040  -30.4907   21.5510 C   0  0  2  0  0  0
  -24.8647  -28.9599   20.1182 C   0  0  0  0  0  0
  -22.7415  -29.4658   22.5002 C   0  0  0  0  0  0
  -18.0245  -28.1409   22.8504 C   0  0  0  0  0  0
  -24.1433  -36.7307   23.2647 C   0  0  0  0  0  0
  -25.9344  -30.8386   21.3664 C   0  0  0  0  0  0
  -26.0229  -29.4754   20.7160 C   0  0  0  0  0  0
  -27.2291  -28.7339   20.7123 C   0  0  0  0  0  0
  -26.0976  -26.9556   19.5027 C   0  0  0  0  0  0
  -24.8958  -27.6911   19.5118 C   0  0  0  0  0  0
  -23.6194  -29.8204   20.1672 C   0  0  0  0  0  0
  -25.4056  -36.3102   24.0348 C   0  0  1  0  0  0
  -20.5843  -28.3667   23.1343 C   0  0  2  0  0  0
  -20.6713  -26.9403   22.5434 C   0  0  0  0  0  0
  -19.5693  -26.6413   21.5215 C   0  0  0  0  0  0
  -18.1877  -26.7968   22.1629 C   0  0  0  0  0  0
  -19.1506  -28.8854   23.2920 C   0  0  0  0  0  0
  -18.9454  -30.1470   23.8918 C   0  0  0  0  0  0
  -17.6462  -30.6623   24.0579 C   0  0  0  0  0  0
  -25.9010  -34.9471   23.5142 C   0  0  0  0  0  0
  -16.5344  -29.9139   23.6342 C   0  0  0  0  0  0
  -16.7244  -28.6554   23.0357 C   0  0  0  0  0  0
  -26.4394  -31.6622   25.0768 C   0  0  0  0  0  0
  -25.3663  -31.3809   26.1547 C   0  0  0  0  0  0
  -27.0176  -30.3032   24.6171 C   0  0  0  0  0  0
  -27.6000  -32.4322   25.7485 C   0  0  0  0  0  0
  -27.5552  -37.1784   24.8453 C   0  0  0  0  0  0
  -21.4133  -29.3040   22.3765 N   0  0  0  0  0  0
  -26.4233  -37.3802   23.9443 N   0  0  0  0  0  0
  -24.6680  -31.0810   22.1001 N   0  0  0  0  0  0
  -23.4189  -28.8182   23.3022 O   0  0  0  0  0  0
  -28.3798  -26.6273   20.0695 O   0  0  0  0  0  0
  -26.5644  -34.8931   22.4742 O   0  0  0  0  0  0
  -23.5328  -32.1421   23.7519 O   0  0  0  0  0  0
  -31.2155  -19.3191   20.3833 C   0  0  0  0  0  0
  -30.9385  -20.6810   20.6097 C   0  0  0  0  0  0
  -29.0752  -18.7139   21.3451 C   0  0  0  0  0  0
  -30.2959  -18.3154   20.7567 C   0  0  0  0  0  0
  -28.7930  -20.0838   21.5947 C   0  0  0  0  0  0
  -29.7343  -21.0912   21.2330 C   0  0  0  0  0  0
  -30.6976  -16.9074   20.5306 C   0  0  0  0  0  0
  -30.0883  -15.7399   20.8718 C   0  0  0  0  0  0
  -29.6389  -27.0126   20.4720 C   0  0  0  0  0  0
  -30.4121  -26.2200   21.2548 C   0  0  0  0  0  0
  -30.0439  -23.5888   21.0313 C   0  0  0  0  0  0
  -31.8556  -26.5846   21.6298 C   0  0  0  0  0  0
  -27.5280  -20.2622   23.7958 C   0  0  0  0  0  0
  -27.4624  -20.4162   22.2693 C   0  0  0  0  0  0
  -29.8829  -24.8983   21.8385 C   0  0  0  0  0  0
  -29.5193  -22.4666   21.5860 N   0  0  0  0  0  0
  -30.5956  -23.6075   19.9282 O   0  0  0  0  0  0
  -31.4617  -12.2986   19.2062 H   0  0  0  0  0  0
  -30.2370  -11.2969   19.9097 H   0  0  0  0  0  0
  -29.7707  -11.7515   17.4731 H   0  0  0  0  0  0
  -29.7099  -13.4710   17.8023 H   0  0  0  0  0  0
  -27.8393  -11.3024   18.8486 H   0  0  0  0  0  0
  -27.3962  -12.6110   17.7816 H   0  0  0  0  0  0
  -27.6874  -14.2623   19.5289 H   0  0  0  0  0  0
  -28.6674  -12.0724   21.4241 H   0  0  0  0  0  0
  -28.4617  -13.7419   21.8305 H   0  0  0  0  0  0
  -25.2679   -9.5785   22.4783 H   0  0  0  0  0  0
  -23.9998   -7.4669   22.7510 H   0  0  0  0  0  0
  -21.0794   -8.8661   19.8986 H   0  0  0  0  0  0
  -22.3550  -10.9617   19.6163 H   0  0  0  0  0  0
  -21.1994   -7.6176   23.9695 H   0  0  0  0  0  0
  -21.1498   -6.0542   25.9069 H   0  0  0  0  0  0
  -22.0598   -2.7617   23.2785 H   0  0  0  0  0  0
  -22.3911  -12.0046   22.4851 H   0  0  0  0  0  0
  -21.0978  -13.1484   22.2390 H   0  0  0  0  0  0
  -24.6792  -15.8571   20.5296 H   0  0  0  0  0  0
  -26.2943  -15.6158   20.0846 H   0  0  0  0  0  0
  -26.7112  -32.5540   23.1221 H   0  0  0  0  0  0
  -24.9762  -33.9752   25.0308 H   0  0  0  0  0  0
  -22.6904  -31.3057   21.4121 H   0  0  0  0  0  0
  -23.3714  -35.9621   23.3279 H   0  0  0  0  0  0
  -24.3530  -36.8978   22.2077 H   0  0  0  0  0  0
  -23.7154  -37.6481   23.6697 H   0  0  0  0  0  0
  -26.0497  -31.6002   20.5939 H   0  0  0  0  0  0
  -26.8222  -30.8939   21.9857 H   0  0  0  0  0  0
  -28.1104  -29.1371   21.1904 H   0  0  0  0  0  0
  -26.1124  -25.9775   19.0397 H   0  0  0  0  0  0
  -24.0046  -27.2780   19.0592 H   0  0  0  0  0  0
  -23.7247  -30.5981   19.4098 H   0  0  0  0  0  0
  -22.7427  -29.2403   19.8717 H   0  0  0  0  0  0
  -25.1220  -36.1950   25.0838 H   0  0  0  0  0  0
  -20.9932  -28.3225   24.1467 H   0  0  0  0  0  0
  -20.5587  -26.2277   23.3617 H   0  0  0  0  0  0
  -21.6585  -26.7417   22.1247 H   0  0  0  0  0  0
  -19.6826  -25.6329   21.1225 H   0  0  0  0  0  0
  -19.6643  -27.3240   20.6762 H   0  0  0  0  0  0
  -17.4146  -26.6758   21.4025 H   0  0  0  0  0  0
  -18.0244  -26.0103   22.9015 H   0  0  0  0  0  0
  -19.7934  -30.7266   24.2293 H   0  0  0  0  0  0
  -17.5035  -31.6300   24.5186 H   0  0  0  0  0  0
  -15.5355  -30.3061   23.7646 H   0  0  0  0  0  0
  -15.8638  -28.0895   22.7054 H   0  0  0  0  0  0
  -24.5716  -30.7269   25.7931 H   0  0  0  0  0  0
  -24.8965  -32.3007   26.5059 H   0  0  0  0  0  0
  -25.7986  -30.8915   27.0284 H   0  0  0  0  0  0
  -26.2718  -29.6865   24.1128 H   0  0  0  0  0  0
  -27.3798  -29.7217   25.4666 H   0  0  0  0  0  0
  -27.8630  -30.4323   23.9405 H   0  0  0  0  0  0
  -27.2656  -33.3668   26.2002 H   0  0  0  0  0  0
  -28.3797  -32.6806   25.0275 H   0  0  0  0  0  0
  -28.0638  -31.8462   26.5427 H   0  0  0  0  0  0
  -28.2566  -38.0084   24.7512 H   0  0  0  0  0  0
  -28.1022  -36.2619   24.6194 H   0  0  0  0  0  0
  -27.2302  -37.1375   25.8863 H   0  0  0  0  0  0
  -20.9286  -29.8839   21.7057 H   0  0  0  0  0  0
  -26.0113  -38.2869   24.1479 H   0  0  0  0  0  0
  -32.1643  -19.0541   19.9381 H   0  0  0  0  0  0
  -31.6964  -21.3978   20.3274 H   0  0  0  0  0  0
  -28.3502  -17.9645   21.6245 H   0  0  0  0  0  0
  -31.6402  -16.8429   19.9991 H   0  0  0  0  0  0
  -29.1452  -15.7496   21.3930 H   0  0  0  0  0  0
  -29.9422  -27.9678   20.0633 H   0  0  0  0  0  0
  -32.2153  -27.4787   21.1139 H   0  0  0  0  0  0
  -32.5413  -25.7751   21.3664 H   0  0  0  0  0  0
  -31.9649  -26.7606   22.7025 H   0  0  0  0  0  0
  -26.5568  -20.4601   24.2540 H   0  0  0  0  0  0
  -28.2465  -20.9512   24.2411 H   0  0  0  0  0  0
  -27.8181  -19.2484   24.0717 H   0  0  0  0  0  0
  -26.7054  -19.7324   21.8781 H   0  0  0  0  0  0
  -27.1201  -21.4157   21.9982 H   0  0  0  0  0  0
  -28.8138  -25.0287   22.0123 H   0  0  0  0  0  0
  -30.3228  -24.7592   22.8286 H   0  0  0  0  0  0
  -28.9426  -22.6113   22.4028 H   0  0  0  0  0  0
  1 25  1  0  0  0
  1 30  2  0  0  0
  1 78  1  0  0  0
  2  3  1  0  0  0
  2 25  1  0  0  0
  2 88  1  0  0  0
  2 89  1  0  0  0
  3  4  1  0  0  0
  3 90  1  0  0  0
  3 91  1  0  0  0
  4  5  1  0  0  0
  4 92  1  0  0  0
  4 93  1  0  0  0
  5  6  1  0  0  0
  5 26  1  0  0  0
  5 94  1  0  0  0
  6 25  1  0  0  0
  6 95  1  0  0  0
  6 96  1  0  0  0
  7  8  2  0  0  0
  7 26  1  0  0  0
  7 29  1  0  0  0
  8  9  1  0  0  0
  8 22  1  0  0  0
  9 10  1  0  0  0
  9 27  2  0  0  0
 10 11  2  0  0  0
 10 15  1  0  0  0
 11 12  1  0  0  0
 11 97  1  0  0  0
 12 13  2  0  0  0
 12 98  1  0  0  0
 13 14  1  0  0  0
 13 31  1  0  0  0
 14 15  2  0  0  0
 14 99  1  0  0  0
 15100  1  0  0  0
 16 17  2  0  0  0
 16 21  1  0  0  0
 16 31  1  0  0  0
 17 18  1  0  0  0
 17101  1  0  0  0
 18 19  2  0  0  0
 18102  1  0  0  0
 19 20  1  0  0  0
 19 24  1  0  0  0
 20 21  2  0  0  0
 20103  1  0  0  0
 21 23  1  0  0  0
 22 28  1  0  0  0
 22 32  2  0  0  0
 26 27  1  0  0  0
 28104  1  0  0  0
 28105  1  0  0  0
 29106  1  0  0  0
 29107  1  0  0  0
 33 34  1  0  0  0
 33 66  1  0  0  0
 33 70  2  0  0  0
 34 36  1  0  0  0
 34 59  1  0  0  0
 34108  1  0  0  0
 35 44  2  0  0  0
 35 45  1  0  0  0
 35 68  1  0  0  0
 36 56  1  0  0  0
 36109  1  0  0  0
 37 39  1  0  0  0
 37 47  1  0  0  0
 37 66  1  0  0  0
 37110  1  0  0  0
 38 43  2  0  0  0
 38 46  1  0  0  0
 38 47  1  0  0  0
 39 64  1  0  0  0
 39 67  2  0  0  0
 40 52  1  0  0  0
 40 53  2  0  0  0
 40 58  1  0  0  0
 41111  1  0  0  0
 41112  1  0  0  0
 41113  1  0  0  0
 41 48  1  0  0  0
 42 43  1  0  0  0
 42 66  1  0  0  0
 42114  1  0  0  0
 42115  1  0  0  0
 43 44  1  0  0  0
 44116  1  0  0  0
 45 46  2  0  0  0
 45117  1  0  0  0
 46118  1  0  0  0
 47119  1  0  0  0
 47120  1  0  0  0
 48 56  1  0  0  0
 48 65  1  0  0  0
 48121  1  0  0  0
 49 50  1  0  0  0
 49 53  1  0  0  0
 49 64  1  0  0  0
 49122  1  0  0  0
 50 51  1  0  0  0
 50123  1  0  0  0
 50124  1  0  0  0
 51 52  1  0  0  0
 51125  1  0  0  0
 51126  1  0  0  0
 52127  1  0  0  0
 52128  1  0  0  0
 53 54  1  0  0  0
 54 55  2  0  0  0
 54129  1  0  0  0
 55 57  1  0  0  0
 55130  1  0  0  0
 56 69  2  0  0  0
 57 58  2  0  0  0
 57131  1  0  0  0
 58132  1  0  0  0
 59 60  1  0  0  0
 59 61  1  0  0  0
 59 62  1  0  0  0
 60133  1  0  0  0
 60134  1  0  0  0
 60135  1  0  0  0
 61136  1  0  0  0
 61137  1  0  0  0
 61138  1  0  0  0
 62139  1  0  0  0
 62140  1  0  0  0
 62141  1  0  0  0
 63 65  1  0  0  0
 63142  1  0  0  0
 63143  1  0  0  0
 63144  1  0  0  0
 64145  1  0  0  0
 65146  1  0  0  0
 68 79  1  0  0  0
 71 72  2  0  0  0
 71 74  1  0  0  0
 71147  1  0  0  0
 72 76  1  0  0  0
 72148  1  0  0  0
 73 74  2  0  0  0
 73 75  1  0  0  0
 73149  1  0  0  0
 74 77  1  0  0  0
 75 76  2  0  0  0
 75 84  1  0  0  0
 76 86  1  0  0  0
 77 78  2  0  0  0
 77150  1  0  0  0
 78151  1  0  0  0
 79 80  2  0  0  0
 79152  1  0  0  0
 80 82  1  0  0  0
 80 85  1  0  0  0
 81 85  1  0  0  0
 81 86  1  0  0  0
 81 87  2  0  0  0
 82153  1  0  0  0
 82154  1  0  0  0
 82155  1  0  0  0
 83 84  1  0  0  0
 83156  1  0  0  0
 83157  1  0  0  0
 83158  1  0  0  0
 84159  1  0  0  0
 84160  1  0  0  0
 85161  1  0  0  0
 85162  1  0  0  0
 86163  1  0  0  0
M  ISO  4   1 100  68 101  78 100  79 101
M  END
> <chiral flag>
0

> <version>
0

> <s_m_source_file>
/data/baiqing/PycharmProjects/Reinvent-master-3.2/result/LINK_invent/BTK/process_docking_weight1_custom_product_contain_oxygen_bond_distance_aromatic_linkinvent_7_9_3/rearranged_h_0126.sdf

> <i_m_source_file_index>
34

> <r_mmod_Potential_Energy-OPLS-2005>
-42.8835830688477

> <r_mmod_Stretch_Energy-OPLS-2005>
44.243953704834

> <r_mmod_Bend_Energy-OPLS-2005>
127.350631713867

> <r_mmod_Torsional_Energy-OPLS-2005>
187.509414672852

> <r_mmod_Improper_Torsional_Energy-OPLS-2005>
4.57616853713989

> <r_mmod_Van_der_Waal_Energy-OPLS-2005>
155.978118896484

> <r_mmod_Electrostatic_Energy-OPLS-2005>
-375.134704589844

> <r_mmod_Solvation_Energy-OPLS-2005>
-210.040145874023

> <b_mmod_Minimization_Converged-OPLS-2005>
0

> <r_mmod_RMS_Derivative-OPLS-2005>
6.00902557373047

$$$$
34
                    3D
 Structure written by MMmdl.
150158  0  0  1  0            999 V2000
  -30.6248  -14.6240   20.5057 C   0  0  0  0  0  0
  -30.4355  -12.3844   19.4462 C   0  0  0  0  0  0
  -29.5063  -12.5139   18.2185 C   0  0  0  0  0  0
  -28.0249  -12.3644   18.6237 C   0  0  0  0  0  0
  -27.6536  -13.2179   19.8663 C   0  0  2  0  0  0
  -28.6991  -13.0537   20.9922 C   0  0  0  0  0  0
  -25.2553  -13.8179   20.5683 C   0  0  0  0  0  0
  -24.1825  -13.0438   20.9183 C   0  0  0  0  0  0
  -24.6394  -11.6912   20.8731 C   0  0  0  0  0  0
  -23.9056  -10.4298   21.0404 C   0  0  0  0  0  0
  -24.3617   -9.4214   21.9180 C   0  0  0  0  0  0
  -23.6289   -8.2249   22.0746 C   0  0  0  0  0  0
  -22.4272   -8.0285   21.3541 C   0  0  0  0  0  0
  -21.9900   -9.0259   20.4645 C   0  0  0  0  0  0
  -22.7222  -10.2144   20.3060 C   0  0  0  0  0  0
  -21.6861   -6.0734   22.5275 C   0  0  0  0  0  0
  -21.4024   -6.5644   23.8209 C   0  0  0  0  0  0
  -21.3655   -5.6791   24.9169 C   0  0  0  0  0  0
  -21.6044   -4.3054   24.7219 C   0  0  0  0  0  0
  -21.8819   -3.8141   23.4341 C   0  0  0  0  0  0
  -21.9196   -4.6961   22.3399 C   0  0  0  0  0  0
  -22.7844  -13.5233   21.1853 C   0  0  0  0  0  0
  -22.1660   -4.2147   21.0977 F   0  0  0  0  0  0
  -21.5622   -3.4537   25.7727 F   0  0  0  0  0  0
  -30.0158  -13.3988   20.4326 N   0  0  0  0  0  0
  -26.2986  -12.9360   20.3324 N   0  0  0  0  0  0
  -25.9323  -11.6510   20.5753 N   0  0  0  0  0  0
  -22.0493  -12.8236   22.0418 N   0  0  0  0  0  0
  -25.4248  -15.1902   20.4115 N   0  0  0  0  0  0
  -31.7829  -14.7881   20.1127 O   0  0  0  0  0  0
  -21.6644   -6.8875   21.4237 O   0  0  0  0  0  0
  -22.3528  -14.5540   20.6693 O   0  0  0  0  0  0
  -24.6253  -31.8617   23.2054 C   0  0  0  0  0  0
  -25.9103  -32.4786   23.8380 C   0  0  1  0  0  0
  -27.2125  -27.3195   20.1117 C   0  0  0  0  0  0
  -25.5925  -33.8589   24.2300 N   0  0  0  0  0  0
  -23.4184  -30.4876   21.5486 C   0  0  2  0  0  0
  -24.8624  -28.9491   20.1100 C   0  0  0  0  0  0
  -22.7470  -29.4626   22.4935 C   0  0  0  0  0  0
  -18.0292  -28.1375   22.8485 C   0  0  0  0  0  0
  -24.1483  -36.7296   23.2631 C   0  0  0  0  0  0
  -25.9614  -30.7915   21.3792 C   0  0  0  0  0  0
  -26.0333  -29.4211   20.7172 C   0  0  0  0  0  0
  -27.2126  -28.6176   20.7097 C   0  0  0  0  0  0
  -26.0168  -26.9052   19.4780 C   0  0  0  0  0  0
  -24.8562  -27.6971   19.4817 C   0  0  0  0  0  0
  -23.6330  -29.8310   20.1615 C   0  0  0  0  0  0
  -25.4100  -36.3082   24.0332 C   0  0  1  0  0  0
  -20.5890  -28.3679   23.1277 C   0  0  2  0  0  0
  -20.6775  -26.9400   22.5403 C   0  0  0  0  0  0
  -19.5752  -26.6371   21.5204 C   0  0  0  0  0  0
  -18.1940  -26.7912   22.1632 C   0  0  0  0  0  0
  -19.1543  -28.8842   23.2879 C   0  0  0  0  0  0
  -18.9465  -30.1442   23.8901 C   0  0  0  0  0  0
  -17.6465  -30.6576   24.0560 C   0  0  0  0  0  0
  -25.9048  -34.9454   23.5111 C   0  0  0  0  0  0
  -16.5357  -29.9077   23.6322 C   0  0  0  0  0  0
  -16.7280  -28.6493   23.0348 C   0  0  0  0  0  0
  -26.4484  -31.6596   25.0749 C   0  0  0  0  0  0
  -25.3723  -31.3766   26.1490 C   0  0  0  0  0  0
  -27.0319  -30.3012   24.6211 C   0  0  0  0  0  0
  -27.6057  -32.4325   25.7504 C   0  0  0  0  0  0
  -27.5597  -37.1768   24.8438 C   0  0  0  0  0  0
  -21.4186  -29.3036   22.3674 N   0  0  0  0  0  0
  -26.4268  -37.3790   23.9445 N   0  0  0  0  0  0
  -24.6872  -31.0624   22.1012 N   0  0  0  0  0  0
  -23.4197  -28.8154   23.3003 O   0  0  0  0  0  0
  -28.3192  -26.4577   20.1575 O   0  0  0  0  0  0
  -26.5612  -34.8917   22.4677 O   0  0  0  0  0  0
  -23.5415  -32.1428   23.7371 O   0  0  0  0  0  0
  -28.8122  -19.3407   21.0473 C   0  0  0  0  0  0
  -30.9590  -19.2343   19.9844 C   0  0  0  0  0  0
  -28.8259  -17.9210   21.1885 C   0  0  0  0  0  0
  -30.9744  -17.8140   20.1178 C   0  0  0  0  0  0
  -29.8861  -20.0458   20.4472 C   0  0  0  0  0  0
  -29.9036  -17.1132   20.7306 C   0  0  0  0  0  0
  -29.9400  -21.5577   20.2740 C   0  0  0  0  0  0
  -28.9945  -22.5278   20.4891 C   0  0  0  0  0  0
  -29.2331  -24.0184   20.2852 C   0  0  0  0  0  0
  -28.0194  -25.0045   20.1193 C   0  0  0  0  0  0
  -29.8201  -15.6619   20.8963 N   0  0  0  0  0  0
  -30.3764  -24.4855   20.2260 O   0  0  0  0  0  0
  -31.4766  -12.5100   19.1445 H   0  0  0  0  0  0
  -30.3686  -11.3850   19.8793 H   0  0  0  0  0  0
  -29.7643  -11.7635   17.4693 H   0  0  0  0  0  0
  -29.6604  -13.4842   17.7439 H   0  0  0  0  0  0
  -27.8402  -11.3100   18.8270 H   0  0  0  0  0  0
  -27.3810  -12.6285   17.7837 H   0  0  0  0  0  0
  -27.6750  -14.2580   19.5422 H   0  0  0  0  0  0
  -28.7076  -12.0256   21.3575 H   0  0  0  0  0  0
  -28.4484  -13.6720   21.8552 H   0  0  0  0  0  0
  -25.2773   -9.5686   22.4739 H   0  0  0  0  0  0
  -23.9999   -7.4647   22.7474 H   0  0  0  0  0  0
  -21.0821   -8.8781   19.8965 H   0  0  0  0  0  0
  -22.3677  -10.9683   19.6169 H   0  0  0  0  0  0
  -21.2030   -7.6153   23.9711 H   0  0  0  0  0  0
  -21.1471   -6.0523   25.9070 H   0  0  0  0  0  0
  -22.0603   -2.7600   23.2848 H   0  0  0  0  0  0
  -22.4122  -11.9913   22.4825 H   0  0  0  0  0  0
  -21.1115  -13.1272   22.2633 H   0  0  0  0  0  0
  -24.6548  -15.8417   20.5169 H   0  0  0  0  0  0
  -26.2663  -15.6300   20.0590 H   0  0  0  0  0  0
  -26.7174  -32.5453   23.1136 H   0  0  0  0  0  0
  -25.0070  -33.9744   25.0439 H   0  0  0  0  0  0
  -22.7112  -31.3078   21.4099 H   0  0  0  0  0  0
  -23.3758  -35.9611   23.3224 H   0  0  0  0  0  0
  -24.3606  -36.8986   22.2063 H   0  0  0  0  0  0
  -23.7201  -37.6465   23.6690 H   0  0  0  0  0  0
  -26.0976  -31.5578   20.6146 H   0  0  0  0  0  0
  -26.8398  -30.8354   22.0119 H   0  0  0  0  0  0
  -28.1095  -28.9710   21.1995 H   0  0  0  0  0  0
  -25.9408  -25.9572   18.9685 H   0  0  0  0  0  0
  -23.9601  -27.3350   18.9967 H   0  0  0  0  0  0
  -23.7542  -30.6133   19.4114 H   0  0  0  0  0  0
  -22.7521  -29.2652   19.8532 H   0  0  0  0  0  0
  -25.1259  -36.1928   25.0818 H   0  0  0  0  0  0
  -20.9986  -28.3252   24.1394 H   0  0  0  0  0  0
  -20.5664  -26.2289   23.3603 H   0  0  0  0  0  0
  -21.6644  -26.7419   22.1203 H   0  0  0  0  0  0
  -19.6908  -25.6276   21.1238 H   0  0  0  0  0  0
  -19.6682  -27.3178   20.6728 H   0  0  0  0  0  0
  -17.4193  -26.6632   21.4059 H   0  0  0  0  0  0
  -18.0369  -26.0066   22.9047 H   0  0  0  0  0  0
  -19.7941  -30.7252   24.2280 H   0  0  0  0  0  0
  -17.5020  -31.6255   24.5162 H   0  0  0  0  0  0
  -15.5357  -30.2981   23.7633 H   0  0  0  0  0  0
  -15.8687  -28.0806   22.7065 H   0  0  0  0  0  0
  -24.5843  -30.7177   25.7824 H   0  0  0  0  0  0
  -24.8988  -32.2958   26.4952 H   0  0  0  0  0  0
  -25.8036  -30.8899   27.0247 H   0  0  0  0  0  0
  -26.2900  -29.6774   24.1214 H   0  0  0  0  0  0
  -27.3986  -29.7259   25.4722 H   0  0  0  0  0  0
  -27.8784  -30.4291   23.9462 H   0  0  0  0  0  0
  -27.2680  -33.3629   26.2083 H   0  0  0  0  0  0
  -28.3861  -32.6881   25.0321 H   0  0  0  0  0  0
  -28.0731  -31.8454   26.5421 H   0  0  0  0  0  0
  -28.2503  -38.0173   24.7638 H   0  0  0  0  0  0
  -28.1201  -36.2717   24.6043 H   0  0  0  0  0  0
  -27.2354  -37.1147   25.8841 H   0  0  0  0  0  0
  -20.9345  -29.8794   21.6927 H   0  0  0  0  0  0
  -26.0138  -38.2837   24.1551 H   0  0  0  0  0  0
  -27.9585  -19.8896   21.4184 H   0  0  0  0  0  0
  -31.8060  -19.7071   19.5070 H   0  0  0  0  0  0
  -27.9741  -17.4517   21.6606 H   0  0  0  0  0  0
  -31.8288  -17.2760   19.7341 H   0  0  0  0  0  0
  -30.9012  -21.9145   19.9279 H   0  0  0  0  0  0
  -28.0103  -22.2418   20.8288 H   0  0  0  0  0  0
  -27.2730  -24.7659   20.8795 H   0  0  0  0  0  0
  -27.5773  -24.7511   19.1556 H   0  0  0  0  0  0
  -28.9371  -15.3372   21.2593 H   0  0  0  0  0  0
  1 25  1  0  0  0
  1 30  2  0  0  0
  1 81  1  0  0  0
  2  3  1  0  0  0
  2 25  1  0  0  0
  2 83  1  0  0  0
  2 84  1  0  0  0
  3  4  1  0  0  0
  3 85  1  0  0  0
  3 86  1  0  0  0
  4  5  1  0  0  0
  4 87  1  0  0  0
  4 88  1  0  0  0
  5  6  1  0  0  0
  5 26  1  0  0  0
  5 89  1  0  0  0
  6 25  1  0  0  0
  6 90  1  0  0  0
  6 91  1  0  0  0
  7  8  2  0  0  0
  7 26  1  0  0  0
  7 29  1  0  0  0
  8  9  1  0  0  0
  8 22  1  0  0  0
  9 10  1  0  0  0
  9 27  2  0  0  0
 10 11  2  0  0  0
 10 15  1  0  0  0
 11 12  1  0  0  0
 11 92  1  0  0  0
 12 13  2  0  0  0
 12 93  1  0  0  0
 13 14  1  0  0  0
 13 31  1  0  0  0
 14 15  2  0  0  0
 14 94  1  0  0  0
 15 95  1  0  0  0
 16 17  2  0  0  0
 16 21  1  0  0  0
 16 31  1  0  0  0
 17 18  1  0  0  0
 17 96  1  0  0  0
 18 19  2  0  0  0
 18 97  1  0  0  0
 19 20  1  0  0  0
 19 24  1  0  0  0
 20 21  2  0  0  0
 20 98  1  0  0  0
 21 23  1  0  0  0
 22 28  1  0  0  0
 22 32  2  0  0  0
 26 27  1  0  0  0
 28 99  1  0  0  0
 28100  1  0  0  0
 29101  1  0  0  0
 29102  1  0  0  0
 33 34  1  0  0  0
 33 66  1  0  0  0
 33 70  2  0  0  0
 34 36  1  0  0  0
 34 59  1  0  0  0
 34103  1  0  0  0
 35 44  2  0  0  0
 35 45  1  0  0  0
 35 68  1  0  0  0
 36 56  1  0  0  0
 36104  1  0  0  0
 37 39  1  0  0  0
 37 47  1  0  0  0
 37 66  1  0  0  0
 37105  1  0  0  0
 38 43  2  0  0  0
 38 46  1  0  0  0
 38 47  1  0  0  0
 39 64  1  0  0  0
 39 67  2  0  0  0
 40 52  1  0  0  0
 40 53  2  0  0  0
 40 58  1  0  0  0
 41106  1  0  0  0
 41107  1  0  0  0
 41108  1  0  0  0
 41 48  1  0  0  0
 42 43  1  0  0  0
 42 66  1  0  0  0
 42109  1  0  0  0
 42110  1  0  0  0
 43 44  1  0  0  0
 44111  1  0  0  0
 45 46  2  0  0  0
 45112  1  0  0  0
 46113  1  0  0  0
 47114  1  0  0  0
 47115  1  0  0  0
 48 56  1  0  0  0
 48 65  1  0  0  0
 48116  1  0  0  0
 49 50  1  0  0  0
 49 53  1  0  0  0
 49 64  1  0  0  0
 49117  1  0  0  0
 50 51  1  0  0  0
 50118  1  0  0  0
 50119  1  0  0  0
 51 52  1  0  0  0
 51120  1  0  0  0
 51121  1  0  0  0
 52122  1  0  0  0
 52123  1  0  0  0
 53 54  1  0  0  0
 54 55  2  0  0  0
 54124  1  0  0  0
 55 57  1  0  0  0
 55125  1  0  0  0
 56 69  2  0  0  0
 57 58  2  0  0  0
 57126  1  0  0  0
 58127  1  0  0  0
 59 60  1  0  0  0
 59 61  1  0  0  0
 59 62  1  0  0  0
 60128  1  0  0  0
 60129  1  0  0  0
 60130  1  0  0  0
 61131  1  0  0  0
 61132  1  0  0  0
 61133  1  0  0  0
 62134  1  0  0  0
 62135  1  0  0  0
 62136  1  0  0  0
 63 65  1  0  0  0
 63137  1  0  0  0
 63138  1  0  0  0
 63139  1  0  0  0
 64140  1  0  0  0
 65141  1  0  0  0
 68 80  1  0  0  0
 71 73  2  0  0  0
 71 75  1  0  0  0
 71142  1  0  0  0
 72 74  1  0  0  0
 72 75  2  0  0  0
 72143  1  0  0  0
 73 76  1  0  0  0
 73144  1  0  0  0
 74 76  2  0  0  0
 74145  1  0  0  0
 75 77  1  0  0  0
 76 81  1  0  0  0
 77 78  2  0  0  0
 77146  1  0  0  0
 78 79  1  0  0  0
 78147  1  0  0  0
 79 80  1  0  0  0
 79 82  2  0  0  0
 80148  1  0  0  0
 80149  1  0  0  0
 81150  1  0  0  0
M  ISO  4   1 100  68 101  80 101  81 100
M  END
> <chiral flag>
0

> <version>
0

> <s_m_source_file>
/data/baiqing/PycharmProjects/Reinvent-master-3.2/result/LINK_invent/BTK/process_docking_weight1_custom_product_contain_oxygen_bond_distance_aromatic_linkinvent_7_9_3/rearranged_h_0126.sdf

> <i_m_source_file_index>
35

> <r_mmod_Potential_Energy-OPLS-2005>
23.8420696258545

> <r_mmod_Stretch_Energy-OPLS-2005>
74.4892730712891

> <r_mmod_Bend_Energy-OPLS-2005>
126.707992553711

> <r_mmod_Torsional_Energy-OPLS-2005>
212.977691650391

> <r_mmod_Improper_Torsional_Energy-OPLS-2005>
3.77723622322083

> <r_mmod_Van_der_Waal_Energy-OPLS-2005>
147.550506591797

> <r_mmod_Electrostatic_Energy-OPLS-2005>
-355.719909667969

> <r_mmod_Solvation_Energy-OPLS-2005>
-232.577606201172

> <b_mmod_Minimization_Converged-OPLS-2005>
0

> <r_mmod_RMS_Derivative-OPLS-2005>
1.78848600387573

$$$$
35
                    3D
 Structure written by MMmdl.
148156  0  0  1  0            999 V2000
  -30.4848  -15.0615   20.4244 C   0  0  0  0  0  0
  -30.4585  -12.6715   19.4995 C   0  0  0  0  0  0
  -29.5309  -12.5575   18.2621 C   0  0  0  0  0  0
  -28.0654  -12.3134   18.6763 C   0  0  0  0  0  0
  -27.6306  -13.2387   19.8401 C   0  0  2  0  0  0
  -28.6849  -13.2434   20.9719 C   0  0  0  0  0  0
  -25.2369  -13.8110   20.5557 C   0  0  0  0  0  0
  -24.1739  -13.0364   20.9222 C   0  0  0  0  0  0
  -24.6389  -11.6872   20.8790 C   0  0  0  0  0  0
  -23.9075  -10.4258   21.0435 C   0  0  0  0  0  0
  -24.3624   -9.4175   21.9208 C   0  0  0  0  0  0
  -23.6289   -8.2218   22.0767 C   0  0  0  0  0  0
  -22.4272   -8.0272   21.3552 C   0  0  0  0  0  0
  -21.9913   -9.0245   20.4652 C   0  0  0  0  0  0
  -22.7253  -10.2115   20.3068 C   0  0  0  0  0  0
  -21.6849   -6.0730   22.5281 C   0  0  0  0  0  0
  -21.4009   -6.5633   23.8214 C   0  0  0  0  0  0
  -21.3656   -5.6786   24.9175 C   0  0  0  0  0  0
  -21.6045   -4.3050   24.7224 C   0  0  0  0  0  0
  -21.8819   -3.8140   23.4344 C   0  0  0  0  0  0
  -21.9189   -4.6958   22.3400 C   0  0  0  0  0  0
  -22.7761  -13.5157   21.1871 C   0  0  0  0  0  0
  -22.1664   -4.2147   21.0977 F   0  0  0  0  0  0
  -21.5629   -3.4534   25.7734 F   0  0  0  0  0  0
  -29.9338  -13.7606   20.3869 N   0  0  0  0  0  0
  -26.2875  -12.9380   20.3229 N   0  0  0  0  0  0
  -25.9334  -11.6526   20.5790 N   0  0  0  0  0  0
  -22.0410  -12.8180   22.0453 N   0  0  0  0  0  0
  -25.3742  -15.1796   20.3650 N   0  0  0  0  0  0
  -31.6926  -15.1088   20.1542 O   0  0  0  0  0  0
  -21.6632   -6.8874   21.4246 O   0  0  0  0  0  0
  -22.3449  -14.5458   20.6699 O   0  0  0  0  0  0
  -24.6467  -31.8404   23.1836 C   0  0  0  0  0  0
  -25.9220  -32.4681   23.8246 C   0  0  1  0  0  0
  -27.2281  -27.0980   20.1722 C   0  0  0  0  0  0
  -25.5957  -33.8486   24.2168 N   0  0  0  0  0  0
  -23.4536  -30.4545   21.5304 C   0  0  2  0  0  0
  -24.9057  -28.8645   20.1221 C   0  0  0  0  0  0
  -22.7588  -29.4518   22.4861 C   0  0  0  0  0  0
  -18.0307  -28.1388   22.8481 C   0  0  0  0  0  0
  -24.1493  -36.7246   23.2643 C   0  0  0  0  0  0
  -26.0110  -30.7020   21.3870 C   0  0  0  0  0  0
  -26.0845  -29.3049   20.7382 C   0  0  0  0  0  0
  -27.2487  -28.4412   20.7379 C   0  0  0  0  0  0
  -26.0195  -26.7566   19.5319 C   0  0  0  0  0  0
  -24.8871  -27.6039   19.5028 C   0  0  0  0  0  0
  -23.6840  -29.7734   20.1548 C   0  0  0  0  0  0
  -25.4128  -36.3024   24.0313 C   0  0  1  0  0  0
  -20.5920  -28.3715   23.1236 C   0  0  2  0  0  0
  -20.6787  -26.9414   22.5406 C   0  0  0  0  0  0
  -19.5759  -26.6371   21.5215 C   0  0  0  0  0  0
  -18.1943  -26.7926   22.1627 C   0  0  0  0  0  0
  -19.1564  -28.8870   23.2846 C   0  0  0  0  0  0
  -18.9477  -30.1465   23.8870 C   0  0  0  0  0  0
  -17.6472  -30.6585   24.0552 C   0  0  0  0  0  0
  -25.9080  -34.9399   23.5051 C   0  0  0  0  0  0
  -16.5365  -29.9073   23.6336 C   0  0  0  0  0  0
  -16.7289  -28.6489   23.0365 C   0  0  0  0  0  0
  -26.4525  -31.6557   25.0701 C   0  0  0  0  0  0
  -25.3701  -31.3759   26.1394 C   0  0  0  0  0  0
  -27.0396  -30.2951   24.6299 C   0  0  0  0  0  0
  -27.6050  -32.4327   25.7492 C   0  0  0  0  0  0
  -27.5574  -37.1780   24.8464 C   0  0  0  0  0  0
  -21.4274  -29.3039   22.3609 N   0  0  0  0  0  0
  -26.4288  -37.3739   23.9405 N   0  0  0  0  0  0
  -24.7235  -31.0223   22.0886 N   0  0  0  0  0  0
  -23.4211  -28.8077   23.3036 O   0  0  0  0  0  0
  -28.2976  -26.1226   20.1196 O   0  0  0  0  0  0
  -26.5667  -34.8905   22.4632 O   0  0  0  0  0  0
  -23.5575  -32.1295   23.7031 O   0  0  0  0  0  0
  -28.3010  -16.5047   20.9041 C   0  0  0  0  0  0
  -27.5086  -17.6771   20.9702 C   0  0  0  0  0  0
  -30.1722  -17.9009   20.3960 C   0  0  0  0  0  0
  -29.6772  -16.4898   20.5702 C   0  0  0  0  0  0
  -29.3814  -19.1849   20.5097 C   0  0  0  0  0  0
  -28.0154  -18.9749   20.7639 C   0  0  0  0  0  0
  -29.8985  -20.7125   20.5018 C   0  0  0  0  0  0
  -29.5925  -22.1230   20.4241 C   0  0  0  0  0  0
  -28.4433  -23.2022   20.1131 C   0  0  0  0  0  0
  -28.2596  -24.7176   20.8201 C   0  0  0  0  0  0
  -27.5887  -22.9113   19.2713 O   0  0  0  0  0  0
  -27.1789  -20.0334   20.8886 F   0  0  0  0  0  0
  -30.5118  -11.7213   20.0330 H   0  0  0  0  0  0
  -31.4785  -12.8724   19.1693 H   0  0  0  0  0  0
  -29.8728  -11.7570   17.6049 H   0  0  0  0  0  0
  -29.5937  -13.4785   17.6801 H   0  0  0  0  0  0
  -27.9763  -11.2712   18.9856 H   0  0  0  0  0  0
  -27.4024  -12.4363   17.8191 H   0  0  0  0  0  0
  -27.5912  -14.2349   19.4021 H   0  0  0  0  0  0
  -28.3847  -13.8174   21.8461 H   0  0  0  0  0  0
  -28.8206  -12.2325   21.3579 H   0  0  0  0  0  0
  -25.2769   -9.5648   22.4784 H   0  0  0  0  0  0
  -23.9995   -7.4599   22.7477 H   0  0  0  0  0  0
  -21.0846   -8.8767   19.8951 H   0  0  0  0  0  0
  -22.3722  -10.9658   19.6174 H   0  0  0  0  0  0
  -21.2006   -7.6139   23.9720 H   0  0  0  0  0  0
  -21.1481   -6.0512   25.9078 H   0  0  0  0  0  0
  -22.0600   -2.7605   23.2839 H   0  0  0  0  0  0
  -22.4026  -11.9863   22.4876 H   0  0  0  0  0  0
  -21.1022  -13.1213   22.2632 H   0  0  0  0  0  0
  -24.5716  -15.7962   20.4275 H   0  0  0  0  0  0
  -26.1747  -15.6158   19.9278 H   0  0  0  0  0  0
  -26.7285  -32.5282   23.0973 H   0  0  0  0  0  0
  -25.0095  -33.9594   25.0310 H   0  0  0  0  0  0
  -22.7573  -31.2800   21.3693 H   0  0  0  0  0  0
  -23.3763  -35.9567   23.3290 H   0  0  0  0  0  0
  -24.3572  -36.8895   22.2058 H   0  0  0  0  0  0
  -23.7239  -37.6431   23.6695 H   0  0  0  0  0  0
  -26.1672  -31.4501   20.6082 H   0  0  0  0  0  0
  -26.8802  -30.7594   22.0306 H   0  0  0  0  0  0
  -28.1559  -28.7860   21.2142 H   0  0  0  0  0  0
  -25.9433  -25.7902   19.0538 H   0  0  0  0  0  0
  -23.9881  -27.2599   19.0099 H   0  0  0  0  0  0
  -23.8264  -30.5422   19.3945 H   0  0  0  0  0  0
  -22.7982  -29.2164   19.8444 H   0  0  0  0  0  0
  -25.1319  -36.1846   25.0804 H   0  0  0  0  0  0
  -21.0008  -28.3298   24.1357 H   0  0  0  0  0  0
  -20.5678  -26.2324   23.3625 H   0  0  0  0  0  0
  -21.6654  -26.7413   22.1204 H   0  0  0  0  0  0
  -19.6918  -25.6274   21.1259 H   0  0  0  0  0  0
  -19.6699  -27.3166   20.6733 H   0  0  0  0  0  0
  -17.4214  -26.6670   21.4028 H   0  0  0  0  0  0
  -18.0340  -26.0068   22.9024 H   0  0  0  0  0  0
  -19.7954  -30.7290   24.2230 H   0  0  0  0  0  0
  -17.5025  -31.6266   24.5149 H   0  0  0  0  0  0
  -15.5361  -30.2967   23.7670 H   0  0  0  0  0  0
  -15.8691  -28.0793   22.7104 H   0  0  0  0  0  0
  -24.5874  -30.7122   25.7703 H   0  0  0  0  0  0
  -24.8906  -32.2952   26.4769 H   0  0  0  0  0  0
  -25.7975  -30.8952   27.0204 H   0  0  0  0  0  0
  -26.3021  -29.6670   24.1295 H   0  0  0  0  0  0
  -27.3987  -29.7260   25.4881 H   0  0  0  0  0  0
  -27.8937  -30.4179   23.9637 H   0  0  0  0  0  0
  -27.2634  -33.3646   26.2008 H   0  0  0  0  0  0
  -28.3895  -32.6857   25.0349 H   0  0  0  0  0  0
  -28.0681  -31.8497   26.5462 H   0  0  0  0  0  0
  -28.2584  -38.0084   24.7518 H   0  0  0  0  0  0
  -28.1081  -36.2614   24.6293 H   0  0  0  0  0  0
  -27.2292  -37.1427   25.8868 H   0  0  0  0  0  0
  -20.9494  -29.8746   21.6778 H   0  0  0  0  0  0
  -26.0152  -38.2805   24.1412 H   0  0  0  0  0  0
  -27.7807  -15.5991   21.1238 H   0  0  0  0  0  0
  -26.4614  -17.5821   21.2177 H   0  0  0  0  0  0
  -31.2270  -18.0062   20.1852 H   0  0  0  0  0  0
  -30.9580  -20.6406   20.7035 H   0  0  0  0  0  0
  -30.4947  -22.6891   20.6058 H   0  0  0  0  0  0
  -29.0075  -24.7625   21.6109 H   0  0  0  0  0  0
  -27.3068  -24.6744   21.3482 H   0  0  0  0  0  0
  1 25  1  0  0  0
  1 30  2  0  0  0
  1 74  1  0  0  0
  2  3  1  0  0  0
  2 25  1  0  0  0
  2 83  1  0  0  0
  2 84  1  0  0  0
  3  4  1  0  0  0
  3 85  1  0  0  0
  3 86  1  0  0  0
  4  5  1  0  0  0
  4 87  1  0  0  0
  4 88  1  0  0  0
  5  6  1  0  0  0
  5 26  1  0  0  0
  5 89  1  0  0  0
  6 25  1  0  0  0
  6 90  1  0  0  0
  6 91  1  0  0  0
  7  8  2  0  0  0
  7 26  1  0  0  0
  7 29  1  0  0  0
  8  9  1  0  0  0
  8 22  1  0  0  0
  9 10  1  0  0  0
  9 27  2  0  0  0
 10 11  2  0  0  0
 10 15  1  0  0  0
 11 12  1  0  0  0
 11 92  1  0  0  0
 12 13  2  0  0  0
 12 93  1  0  0  0
 13 14  1  0  0  0
 13 31  1  0  0  0
 14 15  2  0  0  0
 14 94  1  0  0  0
 15 95  1  0  0  0
 16 17  2  0  0  0
 16 21  1  0  0  0
 16 31  1  0  0  0
 17 18  1  0  0  0
 17 96  1  0  0  0
 18 19  2  0  0  0
 18 97  1  0  0  0
 19 20  1  0  0  0
 19 24  1  0  0  0
 20 21  2  0  0  0
 20 98  1  0  0  0
 21 23  1  0  0  0
 22 28  1  0  0  0
 22 32  2  0  0  0
 26 27  1  0  0  0
 28 99  1  0  0  0
 28100  1  0  0  0
 29101  1  0  0  0
 29102  1  0  0  0
 33 34  1  0  0  0
 33 66  1  0  0  0
 33 70  2  0  0  0
 34 36  1  0  0  0
 34 59  1  0  0  0
 34103  1  0  0  0
 35 44  2  0  0  0
 35 45  1  0  0  0
 35 68  1  0  0  0
 36 56  1  0  0  0
 36104  1  0  0  0
 37 39  1  0  0  0
 37 47  1  0  0  0
 37 66  1  0  0  0
 37105  1  0  0  0
 38 43  2  0  0  0
 38 46  1  0  0  0
 38 47  1  0  0  0
 39 64  1  0  0  0
 39 67  2  0  0  0
 40 52  1  0  0  0
 40 53  2  0  0  0
 40 58  1  0  0  0
 41106  1  0  0  0
 41107  1  0  0  0
 41108  1  0  0  0
 41 48  1  0  0  0
 42 43  1  0  0  0
 42 66  1  0  0  0
 42109  1  0  0  0
 42110  1  0  0  0
 43 44  1  0  0  0
 44111  1  0  0  0
 45 46  2  0  0  0
 45112  1  0  0  0
 46113  1  0  0  0
 47114  1  0  0  0
 47115  1  0  0  0
 48 56  1  0  0  0
 48 65  1  0  0  0
 48116  1  0  0  0
 49 50  1  0  0  0
 49 53  1  0  0  0
 49 64  1  0  0  0
 49117  1  0  0  0
 50 51  1  0  0  0
 50118  1  0  0  0
 50119  1  0  0  0
 51 52  1  0  0  0
 51120  1  0  0  0
 51121  1  0  0  0
 52122  1  0  0  0
 52123  1  0  0  0
 53 54  1  0  0  0
 54 55  2  0  0  0
 54124  1  0  0  0
 55 57  1  0  0  0
 55125  1  0  0  0
 56 69  2  0  0  0
 57 58  2  0  0  0
 57126  1  0  0  0
 58127  1  0  0  0
 59 60  1  0  0  0
 59 61  1  0  0  0
 59 62  1  0  0  0
 60128  1  0  0  0
 60129  1  0  0  0
 60130  1  0  0  0
 61131  1  0  0  0
 61132  1  0  0  0
 61133  1  0  0  0
 62134  1  0  0  0
 62135  1  0  0  0
 62136  1  0  0  0
 63 65  1  0  0  0
 63137  1  0  0  0
 63138  1  0  0  0
 63139  1  0  0  0
 64140  1  0  0  0
 65141  1  0  0  0
 68 80  1  0  0  0
 71 72  2  0  0  0
 71 74  1  0  0  0
 71142  1  0  0  0
 72 76  1  0  0  0
 72143  1  0  0  0
 73 74  2  0  0  0
 73 75  1  0  0  0
 73144  1  0  0  0
 75 76  2  0  0  0
 75 77  1  0  0  0
 76 82  1  0  0  0
 77 78  2  0  0  0
 77145  1  0  0  0
 78 79  1  0  0  0
 78146  1  0  0  0
 79 80  1  0  0  0
 79 81  2  0  0  0
 80147  1  0  0  0
 80148  1  0  0  0
M  ISO  4   1 100  68 101  74 100  80 101
M  END
> <chiral flag>
0

> <version>
0

> <s_m_source_file>
/data/baiqing/PycharmProjects/Reinvent-master-3.2/result/LINK_invent/BTK/process_docking_weight1_custom_product_contain_oxygen_bond_distance_aromatic_linkinvent_7_9_3/rearranged_h_0126.sdf

> <i_m_source_file_index>
36

> <r_mmod_Potential_Energy-OPLS-2005>
826.665649414062

> <r_mmod_Stretch_Energy-OPLS-2005>
315.778594970703

> <r_mmod_Bend_Energy-OPLS-2005>
377.014862060547

> <r_mmod_Torsional_Energy-OPLS-2005>
232.774002075195

> <r_mmod_Improper_Torsional_Energy-OPLS-2005>
5.87499856948853

> <r_mmod_Van_der_Waal_Energy-OPLS-2005>
132.563781738281

> <r_mmod_Electrostatic_Energy-OPLS-2005>
-268.785522460938

> <r_mmod_Solvation_Energy-OPLS-2005>
-209.221878051758

> <b_mmod_Minimization_Converged-OPLS-2005>
0

> <r_mmod_RMS_Derivative-OPLS-2005>
1.00156223773956

$$$$
36
                    3D
 Structure written by MMmdl.
159167  0  0  1  0            999 V2000
  -30.6771  -14.4774   20.5656 C   0  0  0  0  0  0
  -30.4261  -12.3043   19.4203 C   0  0  0  0  0  0
  -29.4914  -12.4932   18.2065 C   0  0  0  0  0  0
  -28.0134  -12.3499   18.6207 C   0  0  0  0  0  0
  -27.6593  -13.1920   19.8754 C   0  0  2  0  0  0
  -28.7010  -12.9665   20.9945 C   0  0  0  0  0  0
  -25.2591  -13.8088   20.5708 C   0  0  0  0  0  0
  -24.1813  -13.0394   20.9168 C   0  0  0  0  0  0
  -24.6340  -11.6864   20.8702 C   0  0  0  0  0  0
  -23.9006  -10.4270   21.0390 C   0  0  0  0  0  0
  -24.3587   -9.4205   21.9174 C   0  0  0  0  0  0
  -23.6281   -8.2235   22.0754 C   0  0  0  0  0  0
  -22.4262   -8.0272   21.3547 C   0  0  0  0  0  0
  -21.9880   -9.0230   20.4642 C   0  0  0  0  0  0
  -22.7180  -10.2118   20.3041 C   0  0  0  0  0  0
  -21.6853   -6.0730   22.5278 C   0  0  0  0  0  0
  -21.4011   -6.5634   23.8209 C   0  0  0  0  0  0
  -21.3657   -5.6783   24.9172 C   0  0  0  0  0  0
  -21.6049   -4.3049   24.7222 C   0  0  0  0  0  0
  -21.8822   -3.8141   23.4341 C   0  0  0  0  0  0
  -21.9190   -4.6961   22.3400 C   0  0  0  0  0  0
  -22.7853  -13.5235   21.1844 C   0  0  0  0  0  0
  -22.1662   -4.2145   21.0980 F   0  0  0  0  0  0
  -21.5637   -3.4538   25.7739 F   0  0  0  0  0  0
  -30.0344  -13.2821   20.4471 N   0  0  0  0  0  0
  -26.3000  -12.9234   20.3354 N   0  0  0  0  0  0
  -25.9259  -11.6411   20.5729 N   0  0  0  0  0  0
  -22.0491  -12.8234   22.0405 N   0  0  0  0  0  0
  -25.4334  -15.1793   20.4238 N   0  0  0  0  0  0
  -31.8005  -14.6895   20.1002 O   0  0  0  0  0  0
  -21.6631   -6.8873   21.4242 O   0  0  0  0  0  0
  -22.3571  -14.5561   20.6719 O   0  0  0  0  0  0
  -24.6149  -31.8668   23.2099 C   0  0  0  0  0  0
  -25.9049  -32.4807   23.8386 C   0  0  1  0  0  0
  -27.2395  -27.4309   20.0826 C   0  0  0  0  0  0
  -25.5909  -33.8609   24.2319 N   0  0  0  0  0  0
  -23.4008  -30.4892   21.5512 C   0  0  2  0  0  0
  -24.8455  -28.9519   20.1182 C   0  0  0  0  0  0
  -22.7401  -29.4653   22.5020 C   0  0  0  0  0  0
  -18.0278  -28.1364   22.8532 C   0  0  0  0  0  0
  -24.1489  -36.7303   23.2632 C   0  0  0  0  0  0
  -25.9308  -30.8273   21.3666 C   0  0  0  0  0  0
  -26.0055  -29.4614   20.7127 C   0  0  0  0  0  0
  -27.2006  -28.7069   20.6936 C   0  0  0  0  0  0
  -26.0489  -26.9251   19.5061 C   0  0  0  0  0  0
  -24.8622  -27.6820   19.5174 C   0  0  0  0  0  0
  -23.6069  -29.8165   20.1684 C   0  0  0  0  0  0
  -25.4108  -36.3095   24.0328 C   0  0  1  0  0  0
  -20.5864  -28.3649   23.1353 C   0  0  2  0  0  0
  -20.6755  -26.9381   22.5476 C   0  0  0  0  0  0
  -19.5748  -26.6414   21.5245 C   0  0  0  0  0  0
  -18.1949  -26.7890   22.1711 C   0  0  0  0  0  0
  -19.1525  -28.8838   23.2930 C   0  0  0  0  0  0
  -18.9452  -30.1465   23.8899 C   0  0  0  0  0  0
  -17.6455  -30.6594   24.0550 C   0  0  0  0  0  0
  -25.9028  -34.9459   23.5109 C   0  0  0  0  0  0
  -16.5346  -29.9070   23.6339 C   0  0  0  0  0  0
  -16.7264  -28.6481   23.0374 C   0  0  0  0  0  0
  -26.4482  -31.6599   25.0723 C   0  0  0  0  0  0
  -25.3754  -31.3717   26.1478 C   0  0  0  0  0  0
  -27.0307  -30.3033   24.6115 C   0  0  0  0  0  0
  -27.6059  -32.4328   25.7487 C   0  0  0  0  0  0
  -27.5578  -37.1793   24.8455 C   0  0  0  0  0  0
  -21.4141  -29.2984   22.3718 N   0  0  0  0  0  0
  -26.4290  -37.3774   23.9401 N   0  0  0  0  0  0
  -24.6664  -31.0769   22.0996 N   0  0  0  0  0  0
  -23.4178  -28.8240   23.3092 O   0  0  0  0  0  0
  -28.4417  -26.7467   20.0840 O   0  0  0  0  0  0
  -26.5595  -34.8905   22.4672 O   0  0  0  0  0  0
  -23.5349  -32.1448   23.7498 O   0  0  0  0  0  0
  -30.5217  -17.6438   22.0182 C   0  0  0  0  0  0
  -30.4911  -19.0549   21.9639 C   0  0  0  0  0  0
  -29.5470  -18.9473   19.7348 C   0  0  0  0  0  0
  -29.5756  -17.5317   19.7699 C   0  0  0  0  0  0
  -30.0554  -16.8651   20.9356 C   0  0  0  0  0  0
  -29.9581  -19.7222   20.8416 C   0  0  0  0  0  0
  -28.5845  -24.2818   20.3159 C   0  0  0  0  0  0
  -27.5874  -17.1228   18.2274 C   0  0  0  0  0  0
  -29.0504  -16.7858   18.5475 C   0  0  0  0  0  0
  -28.5967  -22.8929   19.6461 C   0  0  0  0  0  0
  -28.5877  -25.5030   19.3713 C   0  0  0  0  0  0
  -28.5579  -21.6474   20.5706 C   0  0  0  0  0  0
  -29.9341  -15.4548   21.1203 N   0  0  0  0  0  0
  -28.5704  -24.4180   21.5438 O   0  0  0  0  0  0
  -29.8603  -21.1019   20.8479 O   0  0  0  0  0  0
  -31.4677  -12.4145   19.1157 H   0  0  0  0  0  0
  -30.3380  -11.2920   19.8180 H   0  0  0  0  0  0
  -29.7324  -11.7637   17.4316 H   0  0  0  0  0  0
  -29.6548  -13.4742   17.7598 H   0  0  0  0  0  0
  -27.8276  -11.2940   18.8198 H   0  0  0  0  0  0
  -27.3587  -12.6184   17.7905 H   0  0  0  0  0  0
  -27.6989  -14.2370   19.5763 H   0  0  0  0  0  0
  -28.6790  -11.9261   21.3253 H   0  0  0  0  0  0
  -28.4554  -13.5511   21.8812 H   0  0  0  0  0  0
  -25.2746   -9.5706   22.4728 H   0  0  0  0  0  0
  -24.0005   -7.4631   22.7473 H   0  0  0  0  0  0
  -21.0812   -8.8727   19.8948 H   0  0  0  0  0  0
  -22.3625  -10.9658   19.6149 H   0  0  0  0  0  0
  -21.2003   -7.6141   23.9721 H   0  0  0  0  0  0
  -21.1479   -6.0510   25.9074 H   0  0  0  0  0  0
  -22.0603   -2.7606   23.2834 H   0  0  0  0  0  0
  -22.4103  -11.9884   22.4774 H   0  0  0  0  0  0
  -21.1125  -13.1289   22.2638 H   0  0  0  0  0  0
  -24.6718  -15.8366   20.5514 H   0  0  0  0  0  0
  -26.2982  -15.6207   20.1385 H   0  0  0  0  0  0
  -26.7123  -32.5508   23.1154 H   0  0  0  0  0  0
  -25.0064  -33.9766   25.0474 H   0  0  0  0  0  0
  -22.6906  -31.3067   21.4130 H   0  0  0  0  0  0
  -23.3736  -35.9647   23.3306 H   0  0  0  0  0  0
  -24.3581  -36.8907   22.2039 H   0  0  0  0  0  0
  -23.7261  -37.6513   23.6651 H   0  0  0  0  0  0
  -26.0504  -31.5971   20.6022 H   0  0  0  0  0  0
  -26.8156  -30.8748   21.9900 H   0  0  0  0  0  0
  -28.0969  -29.1027   21.1510 H   0  0  0  0  0  0
  -25.9985  -25.9463   19.0537 H   0  0  0  0  0  0
  -23.9656  -27.2764   19.0696 H   0  0  0  0  0  0
  -23.7103  -30.5854   19.4030 H   0  0  0  0  0  0
  -22.7329  -29.2289   19.8807 H   0  0  0  0  0  0
  -25.1303  -36.1939   25.0822 H   0  0  0  0  0  0
  -20.9948  -28.3211   24.1479 H   0  0  0  0  0  0
  -20.5574  -26.2273   23.3665 H   0  0  0  0  0  0
  -21.6644  -26.7373   22.1330 H   0  0  0  0  0  0
  -19.6912  -25.6368   21.1175 H   0  0  0  0  0  0
  -19.6641  -27.3311   20.6838 H   0  0  0  0  0  0
  -17.4173  -26.6534   21.4184 H   0  0  0  0  0  0
  -18.0468  -26.0051   22.9160 H   0  0  0  0  0  0
  -19.7931  -30.7304   24.2225 H   0  0  0  0  0  0
  -17.5002  -31.6292   24.5117 H   0  0  0  0  0  0
  -15.5348  -30.2965   23.7675 H   0  0  0  0  0  0
  -15.8663  -28.0773   22.7110 H   0  0  0  0  0  0
  -24.5917  -30.7076   25.7821 H   0  0  0  0  0  0
  -24.8968  -32.2878   26.4940 H   0  0  0  0  0  0
  -25.8114  -30.8873   27.0225 H   0  0  0  0  0  0
  -26.2846  -29.6794   24.1169 H   0  0  0  0  0  0
  -27.4065  -29.7274   25.4584 H   0  0  0  0  0  0
  -27.8700  -30.4345   23.9279 H   0  0  0  0  0  0
  -27.2662  -33.3608   26.2108 H   0  0  0  0  0  0
  -28.3837  -32.6924   25.0292 H   0  0  0  0  0  0
  -28.0763  -31.8432   26.5362 H   0  0  0  0  0  0
  -28.2603  -38.0085   24.7496 H   0  0  0  0  0  0
  -28.1073  -36.2612   24.6305 H   0  0  0  0  0  0
  -27.2288  -37.1466   25.8856 H   0  0  0  0  0  0
  -20.9322  -29.8586   21.6827 H   0  0  0  0  0  0
  -26.0176  -38.2852   24.1398 H   0  0  0  0  0  0
  -30.8766  -17.1612   22.9186 H   0  0  0  0  0  0
  -30.8411  -19.6254   22.8122 H   0  0  0  0  0  0
  -29.1780  -19.4476   18.8504 H   0  0  0  0  0  0
  -27.2092  -16.4849   17.4270 H   0  0  0  0  0  0
  -27.4697  -18.1591   17.9088 H   0  0  0  0  0  0
  -26.9534  -16.9763   19.0988 H   0  0  0  0  0  0
  -29.1521  -15.7106   18.6574 H   0  0  0  0  0  0
  -29.6761  -17.0457   17.6933 H   0  0  0  0  0  0
  -29.4443  -22.8265   18.9654 H   0  0  0  0  0  0
  -27.7103  -22.8668   19.0141 H   0  0  0  0  0  0
  -27.8676  -25.3667   18.5680 H   0  0  0  0  0  0
  -29.5580  -25.5306   18.8761 H   0  0  0  0  0  0
  -27.8992  -20.9112   20.1077 H   0  0  0  0  0  0
  -28.0770  -21.8783   21.5229 H   0  0  0  0  0  0
  -29.0642  -15.1415   21.5238 H   0  0  0  0  0  0
  1 25  1  0  0  0
  1 30  2  0  0  0
  1 83  1  0  0  0
  2  3  1  0  0  0
  2 25  1  0  0  0
  2 86  1  0  0  0
  2 87  1  0  0  0
  3  4  1  0  0  0
  3 88  1  0  0  0
  3 89  1  0  0  0
  4  5  1  0  0  0
  4 90  1  0  0  0
  4 91  1  0  0  0
  5  6  1  0  0  0
  5 26  1  0  0  0
  5 92  1  0  0  0
  6 25  1  0  0  0
  6 93  1  0  0  0
  6 94  1  0  0  0
  7  8  2  0  0  0
  7 26  1  0  0  0
  7 29  1  0  0  0
  8  9  1  0  0  0
  8 22  1  0  0  0
  9 10  1  0  0  0
  9 27  2  0  0  0
 10 11  2  0  0  0
 10 15  1  0  0  0
 11 12  1  0  0  0
 11 95  1  0  0  0
 12 13  2  0  0  0
 12 96  1  0  0  0
 13 14  1  0  0  0
 13 31  1  0  0  0
 14 15  2  0  0  0
 14 97  1  0  0  0
 15 98  1  0  0  0
 16 17  2  0  0  0
 16 21  1  0  0  0
 16 31  1  0  0  0
 17 18  1  0  0  0
 17 99  1  0  0  0
 18 19  2  0  0  0
 18100  1  0  0  0
 19 20  1  0  0  0
 19 24  1  0  0  0
 20 21  2  0  0  0
 20101  1  0  0  0
 21 23  1  0  0  0
 22 28  1  0  0  0
 22 32  2  0  0  0
 26 27  1  0  0  0
 28102  1  0  0  0
 28103  1  0  0  0
 29104  1  0  0  0
 29105  1  0  0  0
 33 34  1  0  0  0
 33 66  1  0  0  0
 33 70  2  0  0  0
 34 36  1  0  0  0
 34 59  1  0  0  0
 34106  1  0  0  0
 35 44  2  0  0  0
 35 45  1  0  0  0
 35 68  1  0  0  0
 36 56  1  0  0  0
 36107  1  0  0  0
 37 39  1  0  0  0
 37 47  1  0  0  0
 37 66  1  0  0  0
 37108  1  0  0  0
 38 43  2  0  0  0
 38 46  1  0  0  0
 38 47  1  0  0  0
 39 64  1  0  0  0
 39 67  2  0  0  0
 40 52  1  0  0  0
 40 53  2  0  0  0
 40 58  1  0  0  0
 41109  1  0  0  0
 41110  1  0  0  0
 41111  1  0  0  0
 41 48  1  0  0  0
 42 43  1  0  0  0
 42 66  1  0  0  0
 42112  1  0  0  0
 42113  1  0  0  0
 43 44  1  0  0  0
 44114  1  0  0  0
 45 46  2  0  0  0
 45115  1  0  0  0
 46116  1  0  0  0
 47117  1  0  0  0
 47118  1  0  0  0
 48 56  1  0  0  0
 48 65  1  0  0  0
 48119  1  0  0  0
 49 50  1  0  0  0
 49 53  1  0  0  0
 49 64  1  0  0  0
 49120  1  0  0  0
 50 51  1  0  0  0
 50121  1  0  0  0
 50122  1  0  0  0
 51 52  1  0  0  0
 51123  1  0  0  0
 51124  1  0  0  0
 52125  1  0  0  0
 52126  1  0  0  0
 53 54  1  0  0  0
 54 55  2  0  0  0
 54127  1  0  0  0
 55 57  1  0  0  0
 55128  1  0  0  0
 56 69  2  0  0  0
 57 58  2  0  0  0
 57129  1  0  0  0
 58130  1  0  0  0
 59 60  1  0  0  0
 59 61  1  0  0  0
 59 62  1  0  0  0
 60131  1  0  0  0
 60132  1  0  0  0
 60133  1  0  0  0
 61134  1  0  0  0
 61135  1  0  0  0
 61136  1  0  0  0
 62137  1  0  0  0
 62138  1  0  0  0
 62139  1  0  0  0
 63 65  1  0  0  0
 63140  1  0  0  0
 63141  1  0  0  0
 63142  1  0  0  0
 64143  1  0  0  0
 65144  1  0  0  0
 68 81  1  0  0  0
 71 72  2  0  0  0
 71 75  1  0  0  0
 71145  1  0  0  0
 72 76  1  0  0  0
 72146  1  0  0  0
 73 74  1  0  0  0
 73 76  2  0  0  0
 73147  1  0  0  0
 74 75  2  0  0  0
 74 79  1  0  0  0
 75 83  1  0  0  0
 76 85  1  0  0  0
 77 80  1  0  0  0
 77 81  1  0  0  0
 77 84  2  0  0  0
 78 79  1  0  0  0
 78148  1  0  0  0
 78149  1  0  0  0
 78150  1  0  0  0
 79151  1  0  0  0
 79152  1  0  0  0
 80 82  1  0  0  0
 80153  1  0  0  0
 80154  1  0  0  0
 81155  1  0  0  0
 81156  1  0  0  0
 82 85  1  0  0  0
 82157  1  0  0  0
 82158  1  0  0  0
 83159  1  0  0  0
M  ISO  4   1 100  68 101  81 101  83 100
M  END
> <chiral flag>
0

> <version>
0

> <s_m_source_file>
/data/baiqing/PycharmProjects/Reinvent-master-3.2/result/LINK_invent/BTK/process_docking_weight1_custom_product_contain_oxygen_bond_distance_aromatic_linkinvent_7_9_3/rearranged_h_0126.sdf

> <i_m_source_file_index>
37

> <r_mmod_Potential_Energy-OPLS-2005>
-47.8006820678711

> <r_mmod_Stretch_Energy-OPLS-2005>
39.6549186706543

> <r_mmod_Bend_Energy-OPLS-2005>
109.193923950195

> <r_mmod_Torsional_Energy-OPLS-2005>
251.005065917969

> <r_mmod_Improper_Torsional_Energy-OPLS-2005>
4.28558492660522

> <r_mmod_Van_der_Waal_Energy-OPLS-2005>
149.070556640625

> <r_mmod_Electrostatic_Energy-OPLS-2005>
-377.056762695312

> <r_mmod_Solvation_Energy-OPLS-2005>
-237.174285888672

> <b_mmod_Minimization_Converged-OPLS-2005>
0

> <r_mmod_RMS_Derivative-OPLS-2005>
2.05389618873596

$$$$
37
                    3D
 Structure written by MMmdl.
162171  0  0  1  0            999 V2000
  -30.5916  -14.6827   20.4918 C   0  0  0  0  0  0
  -30.4489  -12.4186   19.4568 C   0  0  0  0  0  0
  -29.5200  -12.5141   18.2252 C   0  0  0  0  0  0
  -28.0413  -12.3432   18.6301 C   0  0  0  0  0  0
  -27.6537  -13.2195   19.8516 C   0  0  2  0  0  0
  -28.6947  -13.0832   20.9850 C   0  0  0  0  0  0
  -25.2585  -13.8169   20.5627 C   0  0  0  0  0  0
  -24.1859  -13.0429   20.9151 C   0  0  0  0  0  0
  -24.6434  -11.6902   20.8695 C   0  0  0  0  0  0
  -23.9107  -10.4287   21.0390 C   0  0  0  0  0  0
  -24.3649   -9.4190   21.9167 C   0  0  0  0  0  0
  -23.6296   -8.2241   22.0760 C   0  0  0  0  0  0
  -22.4274   -8.0291   21.3551 C   0  0  0  0  0  0
  -21.9919   -9.0274   20.4654 C   0  0  0  0  0  0
  -22.7276  -10.2134   20.3042 C   0  0  0  0  0  0
  -21.6853   -6.0742   22.5277 C   0  0  0  0  0  0
  -21.4022   -6.5643   23.8215 C   0  0  0  0  0  0
  -21.3643   -5.6790   24.9166 C   0  0  0  0  0  0
  -21.6039   -4.3053   24.7218 C   0  0  0  0  0  0
  -21.8820   -3.8150   23.4336 C   0  0  0  0  0  0
  -21.9195   -4.6972   22.3391 C   0  0  0  0  0  0
  -22.7877  -13.5219   21.1810 C   0  0  0  0  0  0
  -22.1659   -4.2163   21.0970 F   0  0  0  0  0  0
  -21.5618   -3.4526   25.7725 F   0  0  0  0  0  0
  -30.0081  -13.4411   20.4287 N   0  0  0  0  0  0
  -26.3001  -12.9345   20.3217 N   0  0  0  0  0  0
  -25.9356  -11.6501   20.5705 N   0  0  0  0  0  0
  -22.0513  -12.8229   22.0377 N   0  0  0  0  0  0
  -25.4312  -15.1889   20.4044 N   0  0  0  0  0  0
  -31.7641  -14.8389   20.1399 O   0  0  0  0  0  0
  -21.6630   -6.8888   21.4243 O   0  0  0  0  0  0
  -22.3549  -14.5507   20.6627 O   0  0  0  0  0  0
  -24.6263  -31.8592   23.2012 C   0  0  0  0  0  0
  -25.9100  -32.4779   23.8351 C   0  0  1  0  0  0
  -27.2270  -27.3023   20.1527 C   0  0  0  0  0  0
  -25.5917  -33.8585   24.2287 N   0  0  0  0  0  0
  -23.4221  -30.4800   21.5411 C   0  0  2  0  0  0
  -24.8709  -28.9179   20.1266 C   0  0  0  0  0  0
  -22.7484  -29.4623   22.4920 C   0  0  0  0  0  0
  -18.0299  -28.1427   22.8490 C   0  0  0  0  0  0
  -24.1474  -36.7293   23.2638 C   0  0  0  0  0  0
  -25.9624  -30.7865   21.3723 C   0  0  0  0  0  0
  -26.0362  -29.4037   20.7348 C   0  0  0  0  0  0
  -27.2192  -28.6077   20.7318 C   0  0  0  0  0  0
  -26.0441  -26.8598   19.5305 C   0  0  0  0  0  0
  -24.8764  -27.6508   19.5166 C   0  0  0  0  0  0
  -23.6432  -29.8068   20.1601 C   0  0  0  0  0  0
  -25.4101  -36.3089   24.0330 C   0  0  1  0  0  0
  -20.5905  -28.3731   23.1295 C   0  0  2  0  0  0
  -20.6801  -26.9451   22.5424 C   0  0  0  0  0  0
  -19.5764  -26.6413   21.5235 C   0  0  0  0  0  0
  -18.1940  -26.7968   22.1635 C   0  0  0  0  0  0
  -19.1548  -28.8896   23.2892 C   0  0  0  0  0  0
  -18.9456  -30.1492   23.8907 C   0  0  0  0  0  0
  -17.6456  -30.6612   24.0585 C   0  0  0  0  0  0
  -25.9046  -34.9451   23.5115 C   0  0  0  0  0  0
  -16.5356  -29.9117   23.6326 C   0  0  0  0  0  0
  -16.7287  -28.6547   23.0332 C   0  0  0  0  0  0
  -26.4486  -31.6598   25.0732 C   0  0  0  0  0  0
  -25.3727  -31.3733   26.1469 C   0  0  0  0  0  0
  -27.0337  -30.3028   24.6176 C   0  0  0  0  0  0
  -27.6056  -32.4332   25.7493 C   0  0  0  0  0  0
  -27.5571  -37.1802   24.8464 C   0  0  0  0  0  0
  -21.4199  -29.3072   22.3660 N   0  0  0  0  0  0
  -26.4283  -37.3783   23.9414 N   0  0  0  0  0  0
  -24.6887  -31.0613   22.0953 N   0  0  0  0  0  0
  -23.4207  -28.8173   23.2999 O   0  0  0  0  0  0
  -28.3852  -26.5350   20.0208 O   0  0  0  0  0  0
  -26.5600  -34.8918   22.4680 O   0  0  0  0  0  0
  -23.5425  -32.1413   23.7319 O   0  0  0  0  0  0
  -28.5304  -19.3187   21.3065 C   0  0  0  0  0  0
  -28.7968  -17.9228   21.4728 C   0  0  0  0  0  0
  -30.0657  -19.3663   19.4823 C   0  0  0  0  0  0
  -29.1710  -20.1031   20.3099 C   0  0  0  0  0  0
  -30.3254  -17.9606   19.6206 C   0  0  0  0  0  0
  -29.6942  -17.1847   20.6460 C   0  0  0  0  0  0
  -26.7882  -23.8327   21.7051 C   0  0  0  0  0  0
  -25.4997  -24.2051   21.6462 C   0  0  0  0  0  0
  -28.7941  -21.5743   19.9477 C   0  0  0  0  0  0
  -27.4057  -23.1100   22.8761 C   0  0  0  0  0  0
  -28.6836  -22.4827   22.3108 C   0  0  0  0  0  0
  -27.8019  -23.8837   20.5775 C   0  0  1  0  0  0
  -31.2290  -17.3291   18.5773 C   0  0  0  0  0  0
  -28.6453  -25.2409   20.6957 C   0  0  0  0  0  0
  -28.5667  -22.5936   20.8541 N   0  0  0  0  0  0
  -29.7539  -15.7197   20.8503 N   0  0  0  0  0  0
  -28.6961  -21.8198   18.7409 O   0  0  0  0  0  0
  -31.4878  -12.5631   19.1533 H   0  0  0  0  0  0
  -30.4060  -11.4239   19.9017 H   0  0  0  0  0  0
  -29.7980  -11.7632   17.4840 H   0  0  0  0  0  0
  -29.6563  -13.4832   17.7423 H   0  0  0  0  0  0
  -27.8803  -11.2906   18.8665 H   0  0  0  0  0  0
  -27.3937  -12.5677   17.7811 H   0  0  0  0  0  0
  -27.6687  -14.2520   19.4995 H   0  0  0  0  0  0
  -28.7129  -12.0610   21.3656 H   0  0  0  0  0  0
  -28.4310  -13.7141   21.8341 H   0  0  0  0  0  0
  -25.2803   -9.5639   22.4734 H   0  0  0  0  0  0
  -23.9991   -7.4625   22.7478 H   0  0  0  0  0  0
  -21.0844   -8.8799   19.8967 H   0  0  0  0  0  0
  -22.3747  -10.9666   19.6139 H   0  0  0  0  0  0
  -21.2032   -7.6153   23.9719 H   0  0  0  0  0  0
  -21.1458   -6.0516   25.9068 H   0  0  0  0  0  0
  -22.0621   -2.7617   23.2827 H   0  0  0  0  0  0
  -22.4135  -11.9919   22.4795 H   0  0  0  0  0  0
  -21.1138  -13.1278   22.2561 H   0  0  0  0  0  0
  -24.6661  -15.8456   20.5196 H   0  0  0  0  0  0
  -26.2764  -15.6251   20.0586 H   0  0  0  0  0  0
  -26.7189  -32.5463   23.1119 H   0  0  0  0  0  0
  -25.0103  -33.9711   25.0452 H   0  0  0  0  0  0
  -22.7173  -31.3004   21.3902 H   0  0  0  0  0  0
  -23.3726  -35.9638   23.3316 H   0  0  0  0  0  0
  -24.3579  -36.8901   22.2054 H   0  0  0  0  0  0
  -23.7216  -37.6495   23.6654 H   0  0  0  0  0  0
  -26.0899  -31.5378   20.5907 H   0  0  0  0  0  0
  -26.8480  -30.8533   21.9932 H   0  0  0  0  0  0
  -28.1272  -28.9876   21.1793 H   0  0  0  0  0  0
  -26.0295  -25.8947   19.0421 H   0  0  0  0  0  0
  -23.9842  -27.2756   19.0325 H   0  0  0  0  0  0
  -23.7773  -30.5812   19.4041 H   0  0  0  0  0  0
  -22.7629  -29.2429   19.8455 H   0  0  0  0  0  0
  -25.1269  -36.1956   25.0821 H   0  0  0  0  0  0
  -21.0015  -28.3325   24.1408 H   0  0  0  0  0  0
  -20.5737  -26.2330   23.3626 H   0  0  0  0  0  0
  -21.6658  -26.7497   22.1178 H   0  0  0  0  0  0
  -19.6912  -25.6319   21.1264 H   0  0  0  0  0  0
  -19.6700  -27.3222   20.6763 H   0  0  0  0  0  0
  -17.4211  -26.6741   21.4034 H   0  0  0  0  0  0
  -18.0322  -26.0128   22.9044 H   0  0  0  0  0  0
  -19.7926  -30.7323   24.2278 H   0  0  0  0  0  0
  -17.4999  -31.6275   24.5210 H   0  0  0  0  0  0
  -15.5351  -30.3020   23.7638 H   0  0  0  0  0  0
  -15.8694  -28.0872   22.7025 H   0  0  0  0  0  0
  -24.5887  -30.7100   25.7791 H   0  0  0  0  0  0
  -24.8921  -32.2901   26.4904 H   0  0  0  0  0  0
  -25.8060  -30.8896   27.0235 H   0  0  0  0  0  0
  -26.2927  -29.6777   24.1190 H   0  0  0  0  0  0
  -27.4034  -29.7282   25.4672 H   0  0  0  0  0  0
  -27.8781  -30.4309   23.9406 H   0  0  0  0  0  0
  -27.2677  -33.3623   26.2088 H   0  0  0  0  0  0
  -28.3852  -32.6918   25.0319 H   0  0  0  0  0  0
  -28.0752  -31.8456   26.5387 H   0  0  0  0  0  0
  -28.2590  -38.0096   24.7521 H   0  0  0  0  0  0
  -28.1067  -36.2633   24.6284 H   0  0  0  0  0  0
  -27.2308  -37.1446   25.8872 H   0  0  0  0  0  0
  -20.9399  -29.8756   21.6822 H   0  0  0  0  0  0
  -26.0163  -38.2855   24.1436 H   0  0  0  0  0  0
  -27.7768  -19.7722   21.9327 H   0  0  0  0  0  0
  -28.2475  -17.4007   22.2443 H   0  0  0  0  0  0
  -30.5281  -19.8964   18.6617 H   0  0  0  0  0  0
  -24.8459  -24.0622   22.4944 H   0  0  0  0  0  0
  -25.0689  -24.6444   20.7593 H   0  0  0  0  0  0
  -26.7197  -22.3448   23.2395 H   0  0  0  0  0  0
  -27.6234  -23.7924   23.6971 H   0  0  0  0  0  0
  -28.8580  -21.4858   22.7081 H   0  0  0  0  0  0
  -29.5492  -23.0771   22.6087 H   0  0  0  0  0  0
  -27.2984  -23.8316   19.6115 H   0  0  0  0  0  0
  -32.2089  -17.0977   18.9974 H   0  0  0  0  0  0
  -31.3822  -17.9961   17.7279 H   0  0  0  0  0  0
  -30.7865  -16.4133   18.1869 H   0  0  0  0  0  0
  -29.6351  -24.9849   20.3192 H   0  0  0  0  0  0
  -28.8201  -25.4622   21.7492 H   0  0  0  0  0  0
  -28.9202  -15.3561   21.2872 H   0  0  0  0  0  0
  1 25  1  0  0  0
  1 30  2  0  0  0
  1 86  1  0  0  0
  2  3  1  0  0  0
  2 25  1  0  0  0
  2 88  1  0  0  0
  2 89  1  0  0  0
  3  4  1  0  0  0
  3 90  1  0  0  0
  3 91  1  0  0  0
  4  5  1  0  0  0
  4 92  1  0  0  0
  4 93  1  0  0  0
  5  6  1  0  0  0
  5 26  1  0  0  0
  5 94  1  0  0  0
  6 25  1  0  0  0
  6 95  1  0  0  0
  6 96  1  0  0  0
  7  8  2  0  0  0
  7 26  1  0  0  0
  7 29  1  0  0  0
  8  9  1  0  0  0
  8 22  1  0  0  0
  9 10  1  0  0  0
  9 27  2  0  0  0
 10 11  2  0  0  0
 10 15  1  0  0  0
 11 12  1  0  0  0
 11 97  1  0  0  0
 12 13  2  0  0  0
 12 98  1  0  0  0
 13 14  1  0  0  0
 13 31  1  0  0  0
 14 15  2  0  0  0
 14 99  1  0  0  0
 15100  1  0  0  0
 16 17  2  0  0  0
 16 21  1  0  0  0
 16 31  1  0  0  0
 17 18  1  0  0  0
 17101  1  0  0  0
 18 19  2  0  0  0
 18102  1  0  0  0
 19 20  1  0  0  0
 19 24  1  0  0  0
 20 21  2  0  0  0
 20103  1  0  0  0
 21 23  1  0  0  0
 22 28  1  0  0  0
 22 32  2  0  0  0
 26 27  1  0  0  0
 28104  1  0  0  0
 28105  1  0  0  0
 29106  1  0  0  0
 29107  1  0  0  0
 33 34  1  0  0  0
 33 66  1  0  0  0
 33 70  2  0  0  0
 34 36  1  0  0  0
 34 59  1  0  0  0
 34108  1  0  0  0
 35 44  2  0  0  0
 35 45  1  0  0  0
 35 68  1  0  0  0
 36 56  1  0  0  0
 36109  1  0  0  0
 37 39  1  0  0  0
 37 47  1  0  0  0
 37 66  1  0  0  0
 37110  1  0  0  0
 38 43  2  0  0  0
 38 46  1  0  0  0
 38 47  1  0  0  0
 39 64  1  0  0  0
 39 67  2  0  0  0
 40 52  1  0  0  0
 40 53  2  0  0  0
 40 58  1  0  0  0
 41111  1  0  0  0
 41112  1  0  0  0
 41113  1  0  0  0
 41 48  1  0  0  0
 42 43  1  0  0  0
 42 66  1  0  0  0
 42114  1  0  0  0
 42115  1  0  0  0
 43 44  1  0  0  0
 44116  1  0  0  0
 45 46  2  0  0  0
 45117  1  0  0  0
 46118  1  0  0  0
 47119  1  0  0  0
 47120  1  0  0  0
 48 56  1  0  0  0
 48 65  1  0  0  0
 48121  1  0  0  0
 49 50  1  0  0  0
 49 53  1  0  0  0
 49 64  1  0  0  0
 49122  1  0  0  0
 50 51  1  0  0  0
 50123  1  0  0  0
 50124  1  0  0  0
 51 52  1  0  0  0
 51125  1  0  0  0
 51126  1  0  0  0
 52127  1  0  0  0
 52128  1  0  0  0
 53 54  1  0  0  0
 54 55  2  0  0  0
 54129  1  0  0  0
 55 57  1  0  0  0
 55130  1  0  0  0
 56 69  2  0  0  0
 57 58  2  0  0  0
 57131  1  0  0  0
 58132  1  0  0  0
 59 60  1  0  0  0
 59 61  1  0  0  0
 59 62  1  0  0  0
 60133  1  0  0  0
 60134  1  0  0  0
 60135  1  0  0  0
 61136  1  0  0  0
 61137  1  0  0  0
 61138  1  0  0  0
 62139  1  0  0  0
 62140  1  0  0  0
 62141  1  0  0  0
 63 65  1  0  0  0
 63142  1  0  0  0
 63143  1  0  0  0
 63144  1  0  0  0
 64145  1  0  0  0
 65146  1  0  0  0
 68 84  1  0  0  0
 71 72  2  0  0  0
 71 74  1  0  0  0
 71147  1  0  0  0
 72 76  1  0  0  0
 72148  1  0  0  0
 73 74  2  0  0  0
 73 75  1  0  0  0
 73149  1  0  0  0
 74 79  1  0  0  0
 75 76  2  0  0  0
 75 83  1  0  0  0
 76 86  1  0  0  0
 77 78  2  0  0  0
 77 80  1  0  0  0
 77 82  1  0  0  0
 78150  1  0  0  0
 78151  1  0  0  0
 79 85  1  0  0  0
 79 87  2  0  0  0
 80 81  1  0  0  0
 80152  1  0  0  0
 80153  1  0  0  0
 81 85  1  0  0  0
 81154  1  0  0  0
 81155  1  0  0  0
 82 84  1  0  0  0
 82 85  1  0  0  0
 82156  1  0  0  0
 83157  1  0  0  0
 83158  1  0  0  0
 83159  1  0  0  0
 84160  1  0  0  0
 84161  1  0  0  0
 86162  1  0  0  0
M  ISO  4   1 100  68 101  84 101  86 100
M  END
> <chiral flag>
0

> <version>
0

> <s_m_source_file>
/data/baiqing/PycharmProjects/Reinvent-master-3.2/result/LINK_invent/BTK/process_docking_weight1_custom_product_contain_oxygen_bond_distance_aromatic_linkinvent_7_9_3/rearranged_h_0126.sdf

> <i_m_source_file_index>
38

> <r_mmod_Potential_Energy-OPLS-2005>
255.070861816406

> <r_mmod_Stretch_Energy-OPLS-2005>
94.9312591552734

> <r_mmod_Bend_Energy-OPLS-2005>
233.88102722168

> <r_mmod_Torsional_Energy-OPLS-2005>
321.797515869141

> <r_mmod_Improper_Torsional_Energy-OPLS-2005>
6.72127723693848

> <r_mmod_Van_der_Waal_Energy-OPLS-2005>
131.400573730469

> <r_mmod_Electrostatic_Energy-OPLS-2005>
-366.534759521484

> <r_mmod_Solvation_Energy-OPLS-2005>
-220.331573486328

> <b_mmod_Minimization_Converged-OPLS-2005>
0

> <r_mmod_RMS_Derivative-OPLS-2005>
2.82903480529785

$$$$
38
                    3D
 Structure written by MMmdl.
150158  0  0  1  0            999 V2000
  -30.6175  -14.7401   20.4208 C   0  0  0  0  0  0
  -30.4222  -12.4439   19.4774 C   0  0  0  0  0  0
  -29.5042  -12.4978   18.2373 C   0  0  0  0  0  0
  -28.0311  -12.3274   18.6510 C   0  0  0  0  0  0
  -27.6381  -13.2333   19.8486 C   0  0  2  0  0  0
  -28.6819  -13.1801   20.9851 C   0  0  0  0  0  0
  -25.2482  -13.8207   20.5682 C   0  0  0  0  0  0
  -24.1789  -13.0454   20.9198 C   0  0  0  0  0  0
  -24.6391  -11.6928   20.8761 C   0  0  0  0  0  0
  -23.9076  -10.4306   21.0416 C   0  0  0  0  0  0
  -24.3618   -9.4220   21.9200 C   0  0  0  0  0  0
  -23.6287   -8.2255   22.0767 C   0  0  0  0  0  0
  -22.4278   -8.0284   21.3536 C   0  0  0  0  0  0
  -21.9927   -9.0262   20.4632 C   0  0  0  0  0  0
  -22.7255  -10.2144   20.3051 C   0  0  0  0  0  0
  -21.6855   -6.0740   22.5277 C   0  0  0  0  0  0
  -21.4015   -6.5641   23.8210 C   0  0  0  0  0  0
  -21.3656   -5.6791   24.9168 C   0  0  0  0  0  0
  -21.6047   -4.3056   24.7220 C   0  0  0  0  0  0
  -21.8821   -3.8151   23.4338 C   0  0  0  0  0  0
  -21.9192   -4.6968   22.3396 C   0  0  0  0  0  0
  -22.7809  -13.5218   21.1861 C   0  0  0  0  0  0
  -22.1656   -4.2151   21.0974 F   0  0  0  0  0  0
  -21.5632   -3.4532   25.7731 F   0  0  0  0  0  0
  -29.9851  -13.5170   20.4012 N   0  0  0  0  0  0
  -26.2913  -12.9421   20.3270 N   0  0  0  0  0  0
  -25.9316  -11.6560   20.5758 N   0  0  0  0  0  0
  -22.0466  -12.8182   22.0403 N   0  0  0  0  0  0
  -25.4182  -15.1934   20.4086 N   0  0  0  0  0  0
  -31.8163  -14.7991   20.1342 O   0  0  0  0  0  0
  -21.6628   -6.8886   21.4239 O   0  0  0  0  0  0
  -22.3494  -14.5541   20.6741 O   0  0  0  0  0  0
  -24.6314  -31.8545   23.1988 C   0  0  0  0  0  0
  -25.9165  -32.4740   23.8318 C   0  0  1  0  0  0
  -27.2282  -27.2724   20.1061 C   0  0  0  0  0  0
  -25.5976  -33.8543   24.2243 N   0  0  0  0  0  0
  -23.4252  -30.4736   21.5438 C   0  0  2  0  0  0
  -24.8716  -28.9156   20.1135 C   0  0  0  0  0  0
  -22.7484  -29.4597   22.4960 C   0  0  0  0  0  0
  -18.0273  -28.1381   22.8505 C   0  0  0  0  0  0
  -24.1465  -36.7238   23.2656 C   0  0  0  0  0  0
  -25.9694  -30.7643   21.3794 C   0  0  0  0  0  0
  -26.0417  -29.3890   20.7176 C   0  0  0  0  0  0
  -27.2188  -28.5772   20.7049 C   0  0  0  0  0  0
  -26.0293  -26.8573   19.4845 C   0  0  0  0  0  0
  -24.8687  -27.6569   19.4918 C   0  0  0  0  0  0
  -23.6406  -29.7996   20.1636 C   0  0  0  0  0  0
  -25.4104  -36.3044   24.0324 C   0  0  1  0  0  0
  -20.5862  -28.3698   23.1283 C   0  0  2  0  0  0
  -20.6760  -26.9416   22.5413 C   0  0  0  0  0  0
  -19.5729  -26.6383   21.5225 C   0  0  0  0  0  0
  -18.1905  -26.7950   22.1610 C   0  0  0  0  0  0
  -19.1525  -28.8868   23.2877 C   0  0  0  0  0  0
  -18.9463  -30.1478   23.8884 C   0  0  0  0  0  0
  -17.6468  -30.6607   24.0565 C   0  0  0  0  0  0
  -25.9059  -34.9425   23.5072 C   0  0  0  0  0  0
  -16.5347  -29.9088   23.6371 C   0  0  0  0  0  0
  -16.7259  -28.6488   23.0406 C   0  0  0  0  0  0
  -26.4572  -31.6591   25.0713 C   0  0  0  0  0  0
  -25.3810  -31.3690   26.1429 C   0  0  0  0  0  0
  -27.0566  -30.3070   24.6224 C   0  0  0  0  0  0
  -27.6040  -32.4435   25.7531 C   0  0  0  0  0  0
  -27.5551  -37.1764   24.8483 C   0  0  0  0  0  0
  -21.4192  -29.3041   22.3685 N   0  0  0  0  0  0
  -26.4270  -37.3742   23.9426 N   0  0  0  0  0  0
  -24.6939  -31.0499   22.0969 N   0  0  0  0  0  0
  -23.4181  -28.8148   23.3071 O   0  0  0  0  0  0
  -28.3540  -26.4228   20.1791 O   0  0  0  0  0  0
  -26.5587  -34.8898   22.4615 O   0  0  0  0  0  0
  -23.5458  -32.1376   23.7279 O   0  0  0  0  0  0
  -31.1948  -18.7156   18.3802 C   0  0  0  0  0  0
  -30.5412  -19.8694   18.8539 C   0  0  0  0  0  0
  -30.9731  -17.4517   18.9598 C   0  0  0  0  0  0
  -29.4210  -18.4928   20.5133 C   0  0  0  0  0  0
  -29.6357  -19.8211   19.9388 C   0  0  0  0  0  0
  -30.0890  -17.2763   20.0511 C   0  0  0  0  0  0
  -28.9937  -21.1580   20.3995 C   0  0  0  0  0  0
  -29.0574  -22.4271   19.8259 C   0  0  0  0  0  0
  -28.4560  -23.7485   20.3580 C   0  0  0  0  0  0
  -28.4630  -25.0943   19.4851 C   0  0  0  0  0  0
  -29.8608  -15.8988   20.5813 N   0  0  0  0  0  0
  -27.9472  -23.7987   21.4824 O   0  0  0  0  0  0
  -31.4631  -12.5589   19.1697 H   0  0  0  0  0  0
  -30.3597  -11.4710   19.9687 H   0  0  0  0  0  0
  -29.7848  -11.7231   17.5234 H   0  0  0  0  0  0
  -29.6296  -13.4517   17.7240 H   0  0  0  0  0  0
  -27.8848  -11.2805   18.9170 H   0  0  0  0  0  0
  -27.3758  -12.5204   17.8007 H   0  0  0  0  0  0
  -27.6303  -14.2513   19.4589 H   0  0  0  0  0  0
  -28.7125  -12.1890   21.4422 H   0  0  0  0  0  0
  -28.4233  -13.8792   21.7817 H   0  0  0  0  0  0
  -25.2763   -9.5691   22.4775 H   0  0  0  0  0  0
  -23.9984   -7.4652   22.7504 H   0  0  0  0  0  0
  -21.0868   -8.8781   19.8923 H   0  0  0  0  0  0
  -22.3723  -10.9683   19.6147 H   0  0  0  0  0  0
  -21.2013   -7.6153   23.9707 H   0  0  0  0  0  0
  -21.1474   -6.0524   25.9065 H   0  0  0  0  0  0
  -22.0608   -2.7615   23.2839 H   0  0  0  0  0  0
  -22.4069  -11.9788   22.4703 H   0  0  0  0  0  0
  -21.1103  -13.1213   22.2667 H   0  0  0  0  0  0
  -24.6522  -15.8493   20.5168 H   0  0  0  0  0  0
  -26.2639  -15.6291   20.0648 H   0  0  0  0  0  0
  -26.7206  -32.5394   23.1030 H   0  0  0  0  0  0
  -25.0288  -33.9684   25.0504 H   0  0  0  0  0  0
  -22.7214  -31.2952   21.3937 H   0  0  0  0  0  0
  -23.3760  -35.9541   23.3327 H   0  0  0  0  0  0
  -24.3518  -36.8883   22.2072 H   0  0  0  0  0  0
  -23.7181  -37.6407   23.6702 H   0  0  0  0  0  0
  -26.1082  -31.5235   20.6087 H   0  0  0  0  0  0
  -26.8460  -30.8094   22.0134 H   0  0  0  0  0  0
  -28.1180  -28.9355   21.1864 H   0  0  0  0  0  0
  -25.9462  -25.8899   19.0173 H   0  0  0  0  0  0
  -23.9638  -27.2853   19.0305 H   0  0  0  0  0  0
  -23.7579  -30.5713   19.4018 H   0  0  0  0  0  0
  -22.7599  -29.2272   19.8662 H   0  0  0  0  0  0
  -25.1270  -36.1885   25.0803 H   0  0  0  0  0  0
  -20.9906  -28.3294   24.1426 H   0  0  0  0  0  0
  -20.5708  -26.2295   23.3612 H   0  0  0  0  0  0
  -21.6614  -26.7469   22.1185 H   0  0  0  0  0  0
  -19.6888  -25.6292   21.1269 H   0  0  0  0  0  0
  -19.6698  -27.3171   20.6746 H   0  0  0  0  0  0
  -17.4185  -26.6767   21.3985 H   0  0  0  0  0  0
  -18.0247  -26.0073   22.8970 H   0  0  0  0  0  0
  -19.7934  -30.7294   24.2231 H   0  0  0  0  0  0
  -17.5026  -31.6290   24.5160 H   0  0  0  0  0  0
  -15.5341  -30.2981   23.7738 H   0  0  0  0  0  0
  -15.8646  -28.0794   22.7164 H   0  0  0  0  0  0
  -24.5996  -30.7036   25.7743 H   0  0  0  0  0  0
  -24.8993  -32.2850   26.4860 H   0  0  0  0  0  0
  -25.8163  -30.8875   27.0199 H   0  0  0  0  0  0
  -26.3223  -29.6684   24.1309 H   0  0  0  0  0  0
  -27.4416  -29.7439   25.4735 H   0  0  0  0  0  0
  -27.8965  -30.4457   23.9415 H   0  0  0  0  0  0
  -27.2578  -33.3797   26.1930 H   0  0  0  0  0  0
  -28.3940  -32.6933   25.0436 H   0  0  0  0  0  0
  -28.0608  -31.8712   26.5618 H   0  0  0  0  0  0
  -28.2541  -38.0086   24.7551 H   0  0  0  0  0  0
  -28.1077  -36.2604   24.6315 H   0  0  0  0  0  0
  -27.2255  -37.1397   25.8883 H   0  0  0  0  0  0
  -20.9397  -29.8763   21.6875 H   0  0  0  0  0  0
  -26.0157  -38.2808   24.1474 H   0  0  0  0  0  0
  -31.8848  -18.8010   17.5511 H   0  0  0  0  0  0
  -30.7660  -20.8069   18.3656 H   0  0  0  0  0  0
  -31.4975  -16.6150   18.5232 H   0  0  0  0  0  0
  -28.7277  -18.4097   21.3380 H   0  0  0  0  0  0
  -28.4320  -21.0817   21.3194 H   0  0  0  0  0  0
  -29.5953  -22.5414   18.8971 H   0  0  0  0  0  0
  -27.7364  -25.0024   18.6801 H   0  0  0  0  0  0
  -29.4275  -25.1083   18.9762 H   0  0  0  0  0  0
  -28.9540  -15.7433   20.9953 H   0  0  0  0  0  0
  1 25  1  0  0  0
  1 30  2  0  0  0
  1 81  1  0  0  0
  2  3  1  0  0  0
  2 25  1  0  0  0
  2 83  1  0  0  0
  2 84  1  0  0  0
  3  4  1  0  0  0
  3 85  1  0  0  0
  3 86  1  0  0  0
  4  5  1  0  0  0
  4 87  1  0  0  0
  4 88  1  0  0  0
  5  6  1  0  0  0
  5 26  1  0  0  0
  5 89  1  0  0  0
  6 25  1  0  0  0
  6 90  1  0  0  0
  6 91  1  0  0  0
  7  8  2  0  0  0
  7 26  1  0  0  0
  7 29  1  0  0  0
  8  9  1  0  0  0
  8 22  1  0  0  0
  9 10  1  0  0  0
  9 27  2  0  0  0
 10 11  2  0  0  0
 10 15  1  0  0  0
 11 12  1  0  0  0
 11 92  1  0  0  0
 12 13  2  0  0  0
 12 93  1  0  0  0
 13 14  1  0  0  0
 13 31  1  0  0  0
 14 15  2  0  0  0
 14 94  1  0  0  0
 15 95  1  0  0  0
 16 17  2  0  0  0
 16 21  1  0  0  0
 16 31  1  0  0  0
 17 18  1  0  0  0
 17 96  1  0  0  0
 18 19  2  0  0  0
 18 97  1  0  0  0
 19 20  1  0  0  0
 19 24  1  0  0  0
 20 21  2  0  0  0
 20 98  1  0  0  0
 21 23  1  0  0  0
 22 28  1  0  0  0
 22 32  2  0  0  0
 26 27  1  0  0  0
 28 99  1  0  0  0
 28100  1  0  0  0
 29101  1  0  0  0
 29102  1  0  0  0
 33 34  1  0  0  0
 33 66  1  0  0  0
 33 70  2  0  0  0
 34 36  1  0  0  0
 34 59  1  0  0  0
 34103  1  0  0  0
 35 44  2  0  0  0
 35 45  1  0  0  0
 35 68  1  0  0  0
 36 56  1  0  0  0
 36104  1  0  0  0
 37 39  1  0  0  0
 37 47  1  0  0  0
 37 66  1  0  0  0
 37105  1  0  0  0
 38 43  2  0  0  0
 38 46  1  0  0  0
 38 47  1  0  0  0
 39 64  1  0  0  0
 39 67  2  0  0  0
 40 52  1  0  0  0
 40 53  2  0  0  0
 40 58  1  0  0  0
 41106  1  0  0  0
 41107  1  0  0  0
 41108  1  0  0  0
 41 48  1  0  0  0
 42 43  1  0  0  0
 42 66  1  0  0  0
 42109  1  0  0  0
 42110  1  0  0  0
 43 44  1  0  0  0
 44111  1  0  0  0
 45 46  2  0  0  0
 45112  1  0  0  0
 46113  1  0  0  0
 47114  1  0  0  0
 47115  1  0  0  0
 48 56  1  0  0  0
 48 65  1  0  0  0
 48116  1  0  0  0
 49 50  1  0  0  0
 49 53  1  0  0  0
 49 64  1  0  0  0
 49117  1  0  0  0
 50 51  1  0  0  0
 50118  1  0  0  0
 50119  1  0  0  0
 51 52  1  0  0  0
 51120  1  0  0  0
 51121  1  0  0  0
 52122  1  0  0  0
 52123  1  0  0  0
 53 54  1  0  0  0
 54 55  2  0  0  0
 54124  1  0  0  0
 55 57  1  0  0  0
 55125  1  0  0  0
 56 69  2  0  0  0
 57 58  2  0  0  0
 57126  1  0  0  0
 58127  1  0  0  0
 59 60  1  0  0  0
 59 61  1  0  0  0
 59 62  1  0  0  0
 60128  1  0  0  0
 60129  1  0  0  0
 60130  1  0  0  0
 61131  1  0  0  0
 61132  1  0  0  0
 61133  1  0  0  0
 62134  1  0  0  0
 62135  1  0  0  0
 62136  1  0  0  0
 63 65  1  0  0  0
 63137  1  0  0  0
 63138  1  0  0  0
 63139  1  0  0  0
 64140  1  0  0  0
 65141  1  0  0  0
 68 80  1  0  0  0
 71 72  2  0  0  0
 71 73  1  0  0  0
 71142  1  0  0  0
 72 75  1  0  0  0
 72143  1  0  0  0
 73 76  2  0  0  0
 73144  1  0  0  0
 74 75  2  0  0  0
 74 76  1  0  0  0
 74145  1  0  0  0
 75 77  1  0  0  0
 76 81  1  0  0  0
 77 78  2  0  0  0
 77146  1  0  0  0
 78 79  1  0  0  0
 78147  1  0  0  0
 79 80  1  0  0  0
 79 82  2  0  0  0
 80148  1  0  0  0
 80149  1  0  0  0
 81150  1  0  0  0
M  ISO  4   1 100  68 101  80 101  81 100
M  END
> <chiral flag>
0

> <version>
0

> <s_m_source_file>
/data/baiqing/PycharmProjects/Reinvent-master-3.2/result/LINK_invent/BTK/process_docking_weight1_custom_product_contain_oxygen_bond_distance_aromatic_linkinvent_7_9_3/rearranged_h_0126.sdf

> <i_m_source_file_index>
39

> <r_mmod_Potential_Energy-OPLS-2005>
158.894226074219

> <r_mmod_Stretch_Energy-OPLS-2005>
125.783477783203

> <r_mmod_Bend_Energy-OPLS-2005>
158.296600341797

> <r_mmod_Torsional_Energy-OPLS-2005>
219.759475708008

> <r_mmod_Improper_Torsional_Energy-OPLS-2005>
4.52798843383789

> <r_mmod_Van_der_Waal_Energy-OPLS-2005>
142.111434936523

> <r_mmod_Electrostatic_Energy-OPLS-2005>
-338.413818359375

> <r_mmod_Solvation_Energy-OPLS-2005>
-233.75764465332

> <b_mmod_Minimization_Converged-OPLS-2005>
0

> <r_mmod_RMS_Derivative-OPLS-2005>
2.81232237815857

$$$$
39
                    3D
 Structure written by MMmdl.
151159  0  0  1  0            999 V2000
  -30.6325  -14.6899   20.4960 C   0  0  0  0  0  0
  -30.4368  -12.4248   19.4772 C   0  0  0  0  0  0
  -29.5152  -12.5265   18.2393 C   0  0  0  0  0  0
  -28.0356  -12.3556   18.6391 C   0  0  0  0  0  0
  -27.6515  -13.2229   19.8672 C   0  0  2  0  0  0
  -28.6923  -13.0722   20.9958 C   0  0  0  0  0  0
  -25.2545  -13.8179   20.5704 C   0  0  0  0  0  0
  -24.1816  -13.0433   20.9181 C   0  0  0  0  0  0
  -24.6394  -11.6907   20.8726 C   0  0  0  0  0  0
  -23.9068  -10.4290   21.0396 C   0  0  0  0  0  0
  -24.3618   -9.4206   21.9174 C   0  0  0  0  0  0
  -23.6289   -8.2245   22.0750 C   0  0  0  0  0  0
  -22.4267   -8.0287   21.3548 C   0  0  0  0  0  0
  -21.9906   -9.0259   20.4646 C   0  0  0  0  0  0
  -22.7239  -10.2133   20.3049 C   0  0  0  0  0  0
  -21.6852   -6.0736   22.5280 C   0  0  0  0  0  0
  -21.4016   -6.5641   23.8215 C   0  0  0  0  0  0
  -21.3659   -5.6794   24.9178 C   0  0  0  0  0  0
  -21.6043   -4.3057   24.7224 C   0  0  0  0  0  0
  -21.8818   -3.8149   23.4345 C   0  0  0  0  0  0
  -21.9192   -4.6965   22.3403 C   0  0  0  0  0  0
  -22.7838  -13.5221   21.1857 C   0  0  0  0  0  0
  -22.1662   -4.2151   21.0980 F   0  0  0  0  0  0
  -21.5628   -3.4540   25.7736 F   0  0  0  0  0  0
  -30.0047  -13.4579   20.4507 N   0  0  0  0  0  0
  -26.2979  -12.9374   20.3329 N   0  0  0  0  0  0
  -25.9323  -11.6517   20.5730 N   0  0  0  0  0  0
  -22.0489  -12.8209   22.0416 N   0  0  0  0  0  0
  -25.4250  -15.1905   20.4169 N   0  0  0  0  0  0
  -31.7817  -14.8082   20.0556 O   0  0  0  0  0  0
  -21.6637   -6.8879   21.4243 O   0  0  0  0  0  0
  -22.3515  -14.5528   20.6712 O   0  0  0  0  0  0
  -24.6284  -31.8587   23.2006 C   0  0  0  0  0  0
  -25.9126  -32.4770   23.8339 C   0  0  1  0  0  0
  -27.2237  -27.2895   20.1091 C   0  0  0  0  0  0
  -25.5931  -33.8570   24.2266 N   0  0  0  0  0  0
  -23.4230  -30.4828   21.5443 C   0  0  2  0  0  0
  -24.8685  -28.9365   20.1095 C   0  0  0  0  0  0
  -22.7485  -29.4623   22.4926 C   0  0  0  0  0  0
  -18.0292  -28.1385   22.8491 C   0  0  0  0  0  0
  -24.1492  -36.7295   23.2637 C   0  0  0  0  0  0
  -25.9673  -30.7778   21.3780 C   0  0  0  0  0  0
  -26.0382  -29.4025   20.7206 C   0  0  0  0  0  0
  -27.2128  -28.5880   20.7181 C   0  0  0  0  0  0
  -26.0288  -26.8948   19.4595 C   0  0  0  0  0  0
  -24.8674  -27.6886   19.4725 C   0  0  0  0  0  0
  -23.6380  -29.8190   20.1594 C   0  0  0  0  0  0
  -25.4116  -36.3079   24.0325 C   0  0  1  0  0  0
  -20.5893  -28.3697   23.1278 C   0  0  2  0  0  0
  -20.6780  -26.9417   22.5414 C   0  0  0  0  0  0
  -19.5753  -26.6382   21.5220 C   0  0  0  0  0  0
  -18.1933  -26.7928   22.1631 C   0  0  0  0  0  0
  -19.1544  -28.8858   23.2879 C   0  0  0  0  0  0
  -18.9463  -30.1458   23.8900 C   0  0  0  0  0  0
  -17.6463  -30.6588   24.0562 C   0  0  0  0  0  0
  -25.9055  -34.9449   23.5098 C   0  0  0  0  0  0
  -16.5355  -29.9087   23.6326 C   0  0  0  0  0  0
  -16.7278  -28.6501   23.0355 C   0  0  0  0  0  0
  -26.4495  -31.6579   25.0718 C   0  0  0  0  0  0
  -25.3715  -31.3742   26.1438 C   0  0  0  0  0  0
  -27.0328  -30.2992   24.6192 C   0  0  0  0  0  0
  -27.6054  -32.4309   25.7495 C   0  0  0  0  0  0
  -27.5581  -37.1803   24.8460 C   0  0  0  0  0  0
  -21.4197  -29.3049   22.3668 N   0  0  0  0  0  0
  -26.4293  -37.3775   23.9404 N   0  0  0  0  0  0
  -24.6921  -31.0571   22.0973 N   0  0  0  0  0  0
  -23.4199  -28.8164   23.3015 O   0  0  0  0  0  0
  -28.3427  -26.4315   20.1862 O   0  0  0  0  0  0
  -26.5631  -34.8921   22.4670 O   0  0  0  0  0  0
  -23.5441  -32.1403   23.7315 O   0  0  0  0  0  0
  -30.2313  -18.5036   18.0654 C   0  0  0  0  0  0
  -29.9475  -19.7565   18.6440 C   0  0  0  0  0  0
  -30.2266  -17.3204   18.8314 C   0  0  0  0  0  0
  -29.6579  -18.6487   20.7788 C   0  0  0  0  0  0
  -29.6576  -19.8849   20.0196 C   0  0  0  0  0  0
  -29.9435  -17.3352   20.2170 C   0  0  0  0  0  0
  -29.3646  -21.2848   20.5869 C   0  0  0  0  0  0
  -29.1189  -22.4681   19.9110 C   0  0  0  0  0  0
  -29.8591  -15.9954   21.0045 C   0  0  0  0  0  0
  -28.8988  -23.8600   20.5165 C   0  0  0  0  0  0
  -28.3089  -25.0413   19.6318 C   0  0  0  0  0  0
  -29.1856  -15.9851   22.0782 N   0  0  0  0  0  0
  -29.1629  -24.0916   21.7008 O   0  0  0  0  0  0
  -31.4797  -12.5397   19.1778 H   0  0  0  0  0  0
  -30.3739  -11.4304   19.9226 H   0  0  0  0  0  0
  -29.7913  -11.7754   17.4978 H   0  0  0  0  0  0
  -29.6542  -13.4966   17.7599 H   0  0  0  0  0  0
  -27.8764  -11.3009   18.8678 H   0  0  0  0  0  0
  -27.3853  -12.5856   17.7944 H   0  0  0  0  0  0
  -27.6702  -14.2611   19.5358 H   0  0  0  0  0  0
  -28.7217  -12.0382   21.3425 H   0  0  0  0  0  0
  -28.4068  -13.6457   21.8739 H   0  0  0  0  0  0
  -25.2766   -9.5684   22.4742 H   0  0  0  0  0  0
  -24.0005   -7.4633   22.7461 H   0  0  0  0  0  0
  -21.0843   -8.8774   19.8944 H   0  0  0  0  0  0
  -22.3699  -10.9671   19.6156 H   0  0  0  0  0  0
  -21.2010   -7.6148   23.9721 H   0  0  0  0  0  0
  -21.1483   -6.0524   25.9082 H   0  0  0  0  0  0
  -22.0596   -2.7610   23.2846 H   0  0  0  0  0  0
  -22.4118  -11.9874   22.4806 H   0  0  0  0  0  0
  -21.1109  -13.1233   22.2631 H   0  0  0  0  0  0
  -24.6670  -15.8504   20.5539 H   0  0  0  0  0  0
  -26.2977  -15.6361   20.1630 H   0  0  0  0  0  0
  -26.7197  -32.5429   23.1085 H   0  0  0  0  0  0
  -25.0052  -33.9709   25.0394 H   0  0  0  0  0  0
  -22.7182  -31.3043   21.4010 H   0  0  0  0  0  0
  -23.3752  -35.9628   23.3288 H   0  0  0  0  0  0
  -24.3586  -36.8932   22.2054 H   0  0  0  0  0  0
  -23.7244  -37.6493   23.6672 H   0  0  0  0  0  0
  -26.1026  -31.5381   20.6074 H   0  0  0  0  0  0
  -26.8469  -30.8274   22.0080 H   0  0  0  0  0  0
  -28.1060  -28.9392   21.2158 H   0  0  0  0  0  0
  -25.9334  -25.9619   18.9311 H   0  0  0  0  0  0
  -23.9728  -27.3291   18.9826 H   0  0  0  0  0  0
  -23.7582  -30.5958   19.4034 H   0  0  0  0  0  0
  -22.7572  -29.2498   19.8572 H   0  0  0  0  0  0
  -25.1295  -36.1930   25.0818 H   0  0  0  0  0  0
  -20.9990  -28.3277   24.1395 H   0  0  0  0  0  0
  -20.5687  -26.2309   23.3618 H   0  0  0  0  0  0
  -21.6646  -26.7444   22.1203 H   0  0  0  0  0  0
  -19.6913  -25.6290   21.1253 H   0  0  0  0  0  0
  -19.6686  -27.3190   20.6747 H   0  0  0  0  0  0
  -17.4203  -26.6678   21.4034 H   0  0  0  0  0  0
  -18.0329  -26.0070   22.9028 H   0  0  0  0  0  0
  -19.7939  -30.7273   24.2269 H   0  0  0  0  0  0
  -17.5018  -31.6269   24.5164 H   0  0  0  0  0  0
  -15.5356  -30.2991   23.7642 H   0  0  0  0  0  0
  -15.8678  -28.0818   22.7071 H   0  0  0  0  0  0
  -24.5871  -30.7117   25.7759 H   0  0  0  0  0  0
  -24.8929  -32.2922   26.4857 H   0  0  0  0  0  0
  -25.8017  -30.8908   27.0216 H   0  0  0  0  0  0
  -26.2902  -29.6747   24.1210 H   0  0  0  0  0  0
  -27.4002  -29.7249   25.4705 H   0  0  0  0  0  0
  -27.8787  -30.4258   23.9431 H   0  0  0  0  0  0
  -27.2666  -33.3612   26.2063 H   0  0  0  0  0  0
  -28.3872  -32.6857   25.0330 H   0  0  0  0  0  0
  -28.0707  -31.8432   26.5418 H   0  0  0  0  0  0
  -28.2589  -38.0110   24.7511 H   0  0  0  0  0  0
  -28.1089  -36.2639   24.6278 H   0  0  0  0  0  0
  -27.2303  -37.1442   25.8864 H   0  0  0  0  0  0
  -20.9376  -29.8775   21.6879 H   0  0  0  0  0  0
  -26.0172  -38.2851   24.1401 H   0  0  0  0  0  0
  -30.4500  -18.4479   17.0079 H   0  0  0  0  0  0
  -29.9733  -20.6264   18.0047 H   0  0  0  0  0  0
  -30.4275  -16.3881   18.3225 H   0  0  0  0  0  0
  -29.4263  -18.7131   21.8323 H   0  0  0  0  0  0
  -29.3821  -21.3413   21.6667 H   0  0  0  0  0  0
  -29.0799  -22.4455   18.8329 H   0  0  0  0  0  0
  -27.3048  -24.7035   19.4046 H   0  0  0  0  0  0
  -28.8468  -25.0507   18.6840 H   0  0  0  0  0  0
  -28.7693  -16.8907   22.2543 H   0  0  0  0  0  0
  1 25  1  0  0  0
  1 30  2  0  0  0
  1 79  1  0  0  0
  2  3  1  0  0  0
  2 25  1  0  0  0
  2 84  1  0  0  0
  2 85  1  0  0  0
  3  4  1  0  0  0
  3 86  1  0  0  0
  3 87  1  0  0  0
  4  5  1  0  0  0
  4 88  1  0  0  0
  4 89  1  0  0  0
  5  6  1  0  0  0
  5 26  1  0  0  0
  5 90  1  0  0  0
  6 25  1  0  0  0
  6 91  1  0  0  0
  6 92  1  0  0  0
  7  8  2  0  0  0
  7 26  1  0  0  0
  7 29  1  0  0  0
  8  9  1  0  0  0
  8 22  1  0  0  0
  9 10  1  0  0  0
  9 27  2  0  0  0
 10 11  2  0  0  0
 10 15  1  0  0  0
 11 12  1  0  0  0
 11 93  1  0  0  0
 12 13  2  0  0  0
 12 94  1  0  0  0
 13 14  1  0  0  0
 13 31  1  0  0  0
 14 15  2  0  0  0
 14 95  1  0  0  0
 15 96  1  0  0  0
 16 17  2  0  0  0
 16 21  1  0  0  0
 16 31  1  0  0  0
 17 18  1  0  0  0
 17 97  1  0  0  0
 18 19  2  0  0  0
 18 98  1  0  0  0
 19 20  1  0  0  0
 19 24  1  0  0  0
 20 21  2  0  0  0
 20 99  1  0  0  0
 21 23  1  0  0  0
 22 28  1  0  0  0
 22 32  2  0  0  0
 26 27  1  0  0  0
 28100  1  0  0  0
 28101  1  0  0  0
 29102  1  0  0  0
 29103  1  0  0  0
 33 34  1  0  0  0
 33 66  1  0  0  0
 33 70  2  0  0  0
 34 36  1  0  0  0
 34 59  1  0  0  0
 34104  1  0  0  0
 35 44  2  0  0  0
 35 45  1  0  0  0
 35 68  1  0  0  0
 36 56  1  0  0  0
 36105  1  0  0  0
 37 39  1  0  0  0
 37 47  1  0  0  0
 37 66  1  0  0  0
 37106  1  0  0  0
 38 43  2  0  0  0
 38 46  1  0  0  0
 38 47  1  0  0  0
 39 64  1  0  0  0
 39 67  2  0  0  0
 40 52  1  0  0  0
 40 53  2  0  0  0
 40 58  1  0  0  0
 41107  1  0  0  0
 41108  1  0  0  0
 41109  1  0  0  0
 41 48  1  0  0  0
 42 43  1  0  0  0
 42 66  1  0  0  0
 42110  1  0  0  0
 42111  1  0  0  0
 43 44  1  0  0  0
 44112  1  0  0  0
 45 46  2  0  0  0
 45113  1  0  0  0
 46114  1  0  0  0
 47115  1  0  0  0
 47116  1  0  0  0
 48 56  1  0  0  0
 48 65  1  0  0  0
 48117  1  0  0  0
 49 50  1  0  0  0
 49 53  1  0  0  0
 49 64  1  0  0  0
 49118  1  0  0  0
 50 51  1  0  0  0
 50119  1  0  0  0
 50120  1  0  0  0
 51 52  1  0  0  0
 51121  1  0  0  0
 51122  1  0  0  0
 52123  1  0  0  0
 52124  1  0  0  0
 53 54  1  0  0  0
 54 55  2  0  0  0
 54125  1  0  0  0
 55 57  1  0  0  0
 55126  1  0  0  0
 56 69  2  0  0  0
 57 58  2  0  0  0
 57127  1  0  0  0
 58128  1  0  0  0
 59 60  1  0  0  0
 59 61  1  0  0  0
 59 62  1  0  0  0
 60129  1  0  0  0
 60130  1  0  0  0
 60131  1  0  0  0
 61132  1  0  0  0
 61133  1  0  0  0
 61134  1  0  0  0
 62135  1  0  0  0
 62136  1  0  0  0
 62137  1  0  0  0
 63 65  1  0  0  0
 63138  1  0  0  0
 63139  1  0  0  0
 63140  1  0  0  0
 64141  1  0  0  0
 65142  1  0  0  0
 68 81  1  0  0  0
 71 72  2  0  0  0
 71 73  1  0  0  0
 71143  1  0  0  0
 72 75  1  0  0  0
 72144  1  0  0  0
 73 76  2  0  0  0
 73145  1  0  0  0
 74 75  2  0  0  0
 74 76  1  0  0  0
 74146  1  0  0  0
 75 77  1  0  0  0
 76 79  1  0  0  0
 77 78  2  0  0  0
 77147  1  0  0  0
 78 80  1  0  0  0
 78148  1  0  0  0
 79 82  2  0  0  0
 80 81  1  0  0  0
 80 83  2  0  0  0
 81149  1  0  0  0
 81150  1  0  0  0
 82151  1  0  0  0
M  ISO  4   1 100  68 101  79 100  81 101
M  END
> <chiral flag>
0

> <version>
0

> <s_m_source_file>
/data/baiqing/PycharmProjects/Reinvent-master-3.2/result/LINK_invent/BTK/process_docking_weight1_custom_product_contain_oxygen_bond_distance_aromatic_linkinvent_7_9_3/rearranged_h_0126.sdf

> <i_m_source_file_index>
40

> <r_mmod_Potential_Energy-OPLS-2005>
251.221313476562

> <r_mmod_Stretch_Energy-OPLS-2005>
116.692314147949

> <r_mmod_Bend_Energy-OPLS-2005>
152.332183837891

> <r_mmod_Torsional_Energy-OPLS-2005>
194.853973388672

> <r_mmod_Improper_Torsional_Energy-OPLS-2005>
2.9155740737915

> <r_mmod_Van_der_Waal_Energy-OPLS-2005>
150.354217529297

> <r_mmod_Electrostatic_Energy-OPLS-2005>
-203.153900146484

> <r_mmod_Solvation_Energy-OPLS-2005>
-223.993530273438

> <b_mmod_Minimization_Converged-OPLS-2005>
0

> <r_mmod_RMS_Derivative-OPLS-2005>
0.687828779220581

$$$$
40
                    3D
 Structure written by MMmdl.
152160  0  0  1  0            999 V2000
  -30.6591  -14.5769   20.5425 C   0  0  0  0  0  0
  -30.4143  -12.3909   19.4231 C   0  0  0  0  0  0
  -29.4794  -12.5496   18.2029 C   0  0  0  0  0  0
  -27.9958  -12.3972   18.6040 C   0  0  0  0  0  0
  -27.6445  -13.2122   19.8767 C   0  0  2  0  0  0
  -28.6887  -12.9721   20.9835 C   0  0  0  0  0  0
  -25.2563  -13.8137   20.5818 C   0  0  0  0  0  0
  -24.1791  -13.0362   20.9180 C   0  0  0  0  0  0
  -24.6360  -11.6864   20.8675 C   0  0  0  0  0  0
  -23.9052  -10.4264   21.0332 C   0  0  0  0  0  0
  -24.3606   -9.4234   21.9137 C   0  0  0  0  0  0
  -23.6308   -8.2262   22.0728 C   0  0  0  0  0  0
  -22.4301   -8.0274   21.3518 C   0  0  0  0  0  0
  -21.9914   -9.0239   20.4623 C   0  0  0  0  0  0
  -22.7221  -10.2119   20.3015 C   0  0  0  0  0  0
  -21.6864   -6.0747   22.5288 C   0  0  0  0  0  0
  -21.4015   -6.5664   23.8215 C   0  0  0  0  0  0
  -21.3668   -5.6811   24.9172 C   0  0  0  0  0  0
  -21.6026   -4.3066   24.7219 C   0  0  0  0  0  0
  -21.8844   -3.8174   23.4345 C   0  0  0  0  0  0
  -21.9219   -4.6984   22.3404 C   0  0  0  0  0  0
  -22.7851  -13.5188   21.1859 C   0  0  0  0  0  0
  -22.1677   -4.2183   21.0969 F   0  0  0  0  0  0
  -21.5643   -3.4537   25.7730 F   0  0  0  0  0  0
  -30.0018  -13.3701   20.4502 N   0  0  0  0  0  0
  -26.2944  -12.9285   20.3415 N   0  0  0  0  0  0
  -25.9275  -11.6443   20.5709 N   0  0  0  0  0  0
  -22.0557  -12.8100   22.0429 N   0  0  0  0  0  0
  -25.4334  -15.1858   20.4532 N   0  0  0  0  0  0
  -31.8061  -14.6690   20.0963 O   0  0  0  0  0  0
  -21.6659   -6.8877   21.4245 O   0  0  0  0  0  0
  -22.3508  -14.5516   20.6778 O   0  0  0  0  0  0
  -24.6169  -31.8663   23.2060 C   0  0  0  0  0  0
  -25.9069  -32.4820   23.8359 C   0  0  1  0  0  0
  -27.2408  -27.3843   20.0511 C   0  0  0  0  0  0
  -25.5925  -33.8612   24.2348 N   0  0  0  0  0  0
  -23.4136  -30.4884   21.5514 C   0  0  2  0  0  0
  -24.8572  -28.9536   20.1211 C   0  0  0  0  0  0
  -22.7466  -29.4642   22.4972 C   0  0  0  0  0  0
  -18.0307  -28.1382   22.8524 C   0  0  0  0  0  0
  -24.1511  -36.7303   23.2643 C   0  0  0  0  0  0
  -25.9527  -30.8093   21.3710 C   0  0  0  0  0  0
  -26.0285  -29.4450   20.7047 C   0  0  0  0  0  0
  -27.2204  -28.6702   20.6611 C   0  0  0  0  0  0
  -26.0267  -26.9137   19.4896 C   0  0  0  0  0  0
  -24.8521  -27.6851   19.5242 C   0  0  0  0  0  0
  -23.6281  -29.8296   20.1683 C   0  0  0  0  0  0
  -25.4144  -36.3134   24.0325 C   0  0  1  0  0  0
  -20.5910  -28.3645   23.1365 C   0  0  2  0  0  0
  -20.6732  -26.9370   22.5441 C   0  0  0  0  0  0
  -19.5688  -26.6403   21.5228 C   0  0  0  0  0  0
  -18.1881  -26.7967   22.1613 C   0  0  0  0  0  0
  -19.1585  -28.8837   23.2925 C   0  0  0  0  0  0
  -18.9552  -30.1393   23.9029 C   0  0  0  0  0  0
  -17.6559  -30.6588   24.0626 C   0  0  0  0  0  0
  -25.9053  -34.9467   23.5124 C   0  0  0  0  0  0
  -16.5428  -29.9143   23.6360 C   0  0  0  0  0  0
  -16.7308  -28.6505   23.0432 C   0  0  0  0  0  0
  -26.4444  -31.6580   25.0699 C   0  0  0  0  0  0
  -25.3698  -31.3729   26.1426 C   0  0  0  0  0  0
  -27.0268  -30.3002   24.6149 C   0  0  0  0  0  0
  -27.6040  -32.4258   25.7509 C   0  0  0  0  0  0
  -27.5604  -37.1832   24.8477 C   0  0  0  0  0  0
  -21.4179  -29.3062   22.3809 N   0  0  0  0  0  0
  -26.4341  -37.3797   23.9388 N   0  0  0  0  0  0
  -24.6803  -31.0691   22.1007 N   0  0  0  0  0  0
  -23.4242  -28.8093   23.2944 O   0  0  0  0  0  0
  -28.4271  -26.6513   20.0091 O   0  0  0  0  0  0
  -26.5605  -34.8896   22.4687 O   0  0  0  0  0  0
  -23.5351  -32.1450   23.7409 O   0  0  0  0  0  0
  -29.3146  -18.3562   20.6798 C   0  0  0  0  0  0
  -30.8940  -19.9117   19.7078 C   0  0  0  0  0  0
  -31.5043  -17.5798   20.0218 C   0  0  0  0  0  0
  -29.6316  -19.6968   20.2838 C   0  0  0  0  0  0
  -30.2404  -17.2564   20.5740 C   0  0  0  0  0  0
  -31.8150  -18.8743   19.5786 C   0  0  0  0  0  0
  -28.6978  -20.8260   20.5917 C   0  0  0  0  0  0
  -28.6542  -22.1687   20.3268 C   0  0  0  0  0  0
  -29.5343  -24.4982   19.8499 C   0  0  0  0  0  0
  -28.4723  -25.3104   19.6279 C   0  0  0  0  0  0
  -29.9137  -15.8528   21.1172 C   0  0  0  0  0  0
  -29.5238  -23.0553   19.4985 C   0  0  0  0  0  0
  -29.0434  -15.7713   22.0356 N   0  0  0  0  0  0
  -30.1693  -22.6628   18.5237 O   0  0  0  0  0  0
  -33.0392  -19.1513   19.0807 F   0  0  0  0  0  0
  -31.4512  -12.5235   19.1039 H   0  0  0  0  0  0
  -30.3568  -11.3757   19.8136 H   0  0  0  0  0  0
  -29.7327  -11.8161   17.4383 H   0  0  0  0  0  0
  -29.6349  -13.5297   17.7444 H   0  0  0  0  0  0
  -27.7823  -11.3357   18.7523 H   0  0  0  0  0  0
  -27.3585  -12.7174   17.7793 H   0  0  0  0  0  0
  -27.6815  -14.2660   19.6025 H   0  0  0  0  0  0
  -28.7049  -11.9088   21.2267 H   0  0  0  0  0  0
  -28.4084  -13.4446   21.9219 H   0  0  0  0  0  0
  -25.2744   -9.5777   22.4666 H   0  0  0  0  0  0
  -24.0066   -7.4692   22.7416 H   0  0  0  0  0  0
  -21.0881   -8.8750   19.8888 H   0  0  0  0  0  0
  -22.3684  -10.9655   19.6117 H   0  0  0  0  0  0
  -21.1978   -7.6165   23.9730 H   0  0  0  0  0  0
  -21.1445   -6.0514   25.9070 H   0  0  0  0  0  0
  -22.0606   -2.7634   23.2835 H   0  0  0  0  0  0
  -22.4217  -11.9742   22.4743 H   0  0  0  0  0  0
  -21.1174  -13.1039   22.2644 H   0  0  0  0  0  0
  -24.6950  -15.8309   20.7072 H   0  0  0  0  0  0
  -26.3483  -15.6196   20.4269 H   0  0  0  0  0  0
  -26.7145  -32.5506   23.1102 H   0  0  0  0  0  0
  -25.0023  -33.9780   25.0456 H   0  0  0  0  0  0
  -22.7066  -31.3034   21.4058 H   0  0  0  0  0  0
  -23.3753  -35.9651   23.3354 H   0  0  0  0  0  0
  -24.3626  -36.8873   22.2063 H   0  0  0  0  0  0
  -23.7263  -37.6529   23.6600 H   0  0  0  0  0  0
  -26.0896  -31.5889   20.6190 H   0  0  0  0  0  0
  -26.8259  -30.8441   22.0050 H   0  0  0  0  0  0
  -28.1279  -29.0661   21.0887 H   0  0  0  0  0  0
  -25.9237  -25.9549   19.0047 H   0  0  0  0  0  0
  -23.9433  -27.2958   19.0880 H   0  0  0  0  0  0
  -23.7595  -30.6091   19.4169 H   0  0  0  0  0  0
  -22.7484  -29.2633   19.8564 H   0  0  0  0  0  0
  -25.1335  -36.2031   25.0817 H   0  0  0  0  0  0
  -21.0003  -28.3171   24.1477 H   0  0  0  0  0  0
  -20.5650  -26.2191   23.3571 H   0  0  0  0  0  0
  -21.6555  -26.7361   22.1199 H   0  0  0  0  0  0
  -19.6695  -25.6305   21.1186 H   0  0  0  0  0  0
  -19.6714  -27.3298   20.6811 H   0  0  0  0  0  0
  -17.4211  -26.6706   21.3933 H   0  0  0  0  0  0
  -18.0228  -26.0106   22.9005 H   0  0  0  0  0  0
  -19.8107  -30.7051   24.2541 H   0  0  0  0  0  0
  -17.5217  -31.6283   24.5169 H   0  0  0  0  0  0
  -15.5424  -30.3142   23.7468 H   0  0  0  0  0  0
  -15.8679  -28.0796   22.7219 H   0  0  0  0  0  0
  -24.5880  -30.7073   25.7765 H   0  0  0  0  0  0
  -24.8820  -32.2889   26.4792 H   0  0  0  0  0  0
  -25.7981  -30.8966   27.0260 H   0  0  0  0  0  0
  -26.2851  -29.6797   24.1110 H   0  0  0  0  0  0
  -27.3933  -29.7195   25.4638 H   0  0  0  0  0  0
  -27.8731  -30.4296   23.9392 H   0  0  0  0  0  0
  -27.2703  -33.3548   26.2134 H   0  0  0  0  0  0
  -28.3845  -32.6832   25.0340 H   0  0  0  0  0  0
  -28.0685  -31.8326   26.5407 H   0  0  0  0  0  0
  -28.2658  -38.0099   24.7468 H   0  0  0  0  0  0
  -28.1063  -36.2611   24.6374 H   0  0  0  0  0  0
  -27.2292  -37.1571   25.8880 H   0  0  0  0  0  0
  -20.9268  -29.9004   21.7264 H   0  0  0  0  0  0
  -26.0233  -38.2897   24.1303 H   0  0  0  0  0  0
  -28.3373  -18.2008   21.1239 H   0  0  0  0  0  0
  -31.2524  -20.8796   19.4246 H   0  0  0  0  0  0
  -32.3065  -16.8693   19.9510 H   0  0  0  0  0  0
  -27.8880  -20.5127   21.2332 H   0  0  0  0  0  0
  -27.8478  -22.7047   20.8047 H   0  0  0  0  0  0
  -30.4323  -24.8745   20.3075 H   0  0  0  0  0  0
  -27.6039  -24.9361   19.1102 H   0  0  0  0  0  0
  -28.6828  -16.6751   22.3164 H   0  0  0  0  0  0
  1 25  1  0  0  0
  1 30  2  0  0  0
  1 81  1  0  0  0
  2  3  1  0  0  0
  2 25  1  0  0  0
  2 86  1  0  0  0
  2 87  1  0  0  0
  3  4  1  0  0  0
  3 88  1  0  0  0
  3 89  1  0  0  0
  4  5  1  0  0  0
  4 90  1  0  0  0
  4 91  1  0  0  0
  5  6  1  0  0  0
  5 26  1  0  0  0
  5 92  1  0  0  0
  6 25  1  0  0  0
  6 93  1  0  0  0
  6 94  1  0  0  0
  7  8  2  0  0  0
  7 26  1  0  0  0
  7 29  1  0  0  0
  8  9  1  0  0  0
  8 22  1  0  0  0
  9 10  1  0  0  0
  9 27  2  0  0  0
 10 11  2  0  0  0
 10 15  1  0  0  0
 11 12  1  0  0  0
 11 95  1  0  0  0
 12 13  2  0  0  0
 12 96  1  0  0  0
 13 14  1  0  0  0
 13 31  1  0  0  0
 14 15  2  0  0  0
 14 97  1  0  0  0
 15 98  1  0  0  0
 16 17  2  0  0  0
 16 21  1  0  0  0
 16 31  1  0  0  0
 17 18  1  0  0  0
 17 99  1  0  0  0
 18 19  2  0  0  0
 18100  1  0  0  0
 19 20  1  0  0  0
 19 24  1  0  0  0
 20 21  2  0  0  0
 20101  1  0  0  0
 21 23  1  0  0  0
 22 28  1  0  0  0
 22 32  2  0  0  0
 26 27  1  0  0  0
 28102  1  0  0  0
 28103  1  0  0  0
 29104  1  0  0  0
 29105  1  0  0  0
 33 34  1  0  0  0
 33 66  1  0  0  0
 33 70  2  0  0  0
 34 36  1  0  0  0
 34 59  1  0  0  0
 34106  1  0  0  0
 35 44  2  0  0  0
 35 45  1  0  0  0
 35 68  1  0  0  0
 36 56  1  0  0  0
 36107  1  0  0  0
 37 39  1  0  0  0
 37 47  1  0  0  0
 37 66  1  0  0  0
 37108  1  0  0  0
 38 43  2  0  0  0
 38 46  1  0  0  0
 38 47  1  0  0  0
 39 64  1  0  0  0
 39 67  2  0  0  0
 40 52  1  0  0  0
 40 53  2  0  0  0
 40 58  1  0  0  0
 41109  1  0  0  0
 41110  1  0  0  0
 41111  1  0  0  0
 41 48  1  0  0  0
 42 43  1  0  0  0
 42 66  1  0  0  0
 42112  1  0  0  0
 42113  1  0  0  0
 43 44  1  0  0  0
 44114  1  0  0  0
 45 46  2  0  0  0
 45115  1  0  0  0
 46116  1  0  0  0
 47117  1  0  0  0
 47118  1  0  0  0
 48 56  1  0  0  0
 48 65  1  0  0  0
 48119  1  0  0  0
 49 50  1  0  0  0
 49 53  1  0  0  0
 49 64  1  0  0  0
 49120  1  0  0  0
 50 51  1  0  0  0
 50121  1  0  0  0
 50122  1  0  0  0
 51 52  1  0  0  0
 51123  1  0  0  0
 51124  1  0  0  0
 52125  1  0  0  0
 52126  1  0  0  0
 53 54  1  0  0  0
 54 55  2  0  0  0
 54127  1  0  0  0
 55 57  1  0  0  0
 55128  1  0  0  0
 56 69  2  0  0  0
 57 58  2  0  0  0
 57129  1  0  0  0
 58130  1  0  0  0
 59 60  1  0  0  0
 59 61  1  0  0  0
 59 62  1  0  0  0
 60131  1  0  0  0
 60132  1  0  0  0
 60133  1  0  0  0
 61134  1  0  0  0
 61135  1  0  0  0
 61136  1  0  0  0
 62137  1  0  0  0
 62138  1  0  0  0
 62139  1  0  0  0
 63 65  1  0  0  0
 63140  1  0  0  0
 63141  1  0  0  0
 63142  1  0  0  0
 64143  1  0  0  0
 65144  1  0  0  0
 68 80  1  0  0  0
 71 74  2  0  0  0
 71 75  1  0  0  0
 71145  1  0  0  0
 72 74  1  0  0  0
 72 76  2  0  0  0
 72146  1  0  0  0
 73 75  2  0  0  0
 73 76  1  0  0  0
 73147  1  0  0  0
 74 77  1  0  0  0
 75 81  1  0  0  0
 76 85  1  0  0  0
 77 78  2  0  0  0
 77148  1  0  0  0
 78 82  1  0  0  0
 78149  1  0  0  0
 79 80  2  0  0  0
 79 82  1  0  0  0
 79150  1  0  0  0
 80151  1  0  0  0
 81 83  2  0  0  0
 82 84  2  0  0  0
 83152  1  0  0  0
M  ISO  4   1 100  68 101  80 101  81 100
M  END
> <chiral flag>
0

> <version>
0

> <s_m_source_file>
/data/baiqing/PycharmProjects/Reinvent-master-3.2/result/LINK_invent/BTK/process_docking_weight1_custom_product_contain_oxygen_bond_distance_aromatic_linkinvent_7_9_3/rearranged_h_0126.sdf

> <i_m_source_file_index>
41

> <r_mmod_Potential_Energy-OPLS-2005>
179.747192382812

> <r_mmod_Stretch_Energy-OPLS-2005>
68.8618774414062

> <r_mmod_Bend_Energy-OPLS-2005>
160.91650390625

> <r_mmod_Torsional_Energy-OPLS-2005>
214.209365844727

> <r_mmod_Improper_Torsional_Energy-OPLS-2005>
5.13368511199951

> <r_mmod_Van_der_Waal_Energy-OPLS-2005>
180.194595336914

> <r_mmod_Electrostatic_Energy-OPLS-2005>
-266.748657226562

> <r_mmod_Solvation_Energy-OPLS-2005>
-207.994903564453

> <b_mmod_Minimization_Converged-OPLS-2005>
0

> <r_mmod_RMS_Derivative-OPLS-2005>
9.63466835021973

$$$$
41
                    3D
 Structure written by MMmdl.
155163  0  0  1  0            999 V2000
  -30.6646  -14.5670   20.5861 C   0  0  0  0  0  0
  -30.4377  -12.3720   19.4311 C   0  0  0  0  0  0
  -29.5028  -12.5269   18.2106 C   0  0  0  0  0  0
  -28.0238  -12.3667   18.6171 C   0  0  0  0  0  0
  -27.6624  -13.2048   19.8719 C   0  0  2  0  0  0
  -28.7031  -12.9880   20.9887 C   0  0  0  0  0  0
  -25.2615  -13.8137   20.5658 C   0  0  0  0  0  0
  -24.1857  -13.0433   20.9136 C   0  0  0  0  0  0
  -24.6404  -11.6897   20.8707 C   0  0  0  0  0  0
  -23.9063  -10.4296   21.0394 C   0  0  0  0  0  0
  -24.3621   -9.4213   21.9173 C   0  0  0  0  0  0
  -23.6289   -8.2254   22.0761 C   0  0  0  0  0  0
  -22.4268   -8.0294   21.3549 C   0  0  0  0  0  0
  -21.9901   -9.0265   20.4647 C   0  0  0  0  0  0
  -22.7231  -10.2141   20.3048 C   0  0  0  0  0  0
  -21.6862   -6.0735   22.5279 C   0  0  0  0  0  0
  -21.4014   -6.5638   23.8210 C   0  0  0  0  0  0
  -21.3662   -5.6791   24.9176 C   0  0  0  0  0  0
  -21.6044   -4.3054   24.7225 C   0  0  0  0  0  0
  -21.8821   -3.8143   23.4349 C   0  0  0  0  0  0
  -21.9195   -4.6961   22.3402 C   0  0  0  0  0  0
  -22.7887  -13.5263   21.1807 C   0  0  0  0  0  0
  -22.1666   -4.2144   21.0981 F   0  0  0  0  0  0
  -21.5629   -3.4542   25.7741 F   0  0  0  0  0  0
  -30.0253  -13.3596   20.4493 N   0  0  0  0  0  0
  -26.3042  -12.9297   20.3332 N   0  0  0  0  0  0
  -25.9333  -11.6462   20.5728 N   0  0  0  0  0  0
  -22.0528  -12.8274   22.0369 N   0  0  0  0  0  0
  -25.4358  -15.1860   20.4106 N   0  0  0  0  0  0
  -31.7816  -14.7449   20.0900 O   0  0  0  0  0  0
  -21.6643   -6.8886   21.4243 O   0  0  0  0  0  0
  -22.3589  -14.5576   20.6662 O   0  0  0  0  0  0
  -24.6215  -31.8617   23.2069 C   0  0  0  0  0  0
  -25.9079  -32.4786   23.8383 C   0  0  1  0  0  0
  -27.2325  -27.3626   20.1149 C   0  0  0  0  0  0
  -25.5924  -33.8594   24.2309 N   0  0  0  0  0  0
  -23.4144  -30.4855   21.5450 C   0  0  2  0  0  0
  -24.8630  -28.9452   20.1155 C   0  0  0  0  0  0
  -22.7440  -29.4625   22.4929 C   0  0  0  0  0  0
  -18.0279  -28.1397   22.8461 C   0  0  0  0  0  0
  -24.1491  -36.7304   23.2637 C   0  0  0  0  0  0
  -25.9511  -30.8074   21.3720 C   0  0  0  0  0  0
  -26.0285  -29.4366   20.7182 C   0  0  0  0  0  0
  -27.2166  -28.6550   20.7101 C   0  0  0  0  0  0
  -26.0463  -26.9135   19.4902 C   0  0  0  0  0  0
  -24.8718  -27.6877   19.4932 C   0  0  0  0  0  0
  -23.6299  -29.8212   20.1597 C   0  0  0  0  0  0
  -25.4111  -36.3090   24.0334 C   0  0  1  0  0  0
  -20.5873  -28.3690   23.1282 C   0  0  2  0  0  0
  -20.6777  -26.9418   22.5406 C   0  0  0  0  0  0
  -19.5760  -26.6390   21.5200 C   0  0  0  0  0  0
  -18.1933  -26.7938   22.1605 C   0  0  0  0  0  0
  -19.1530  -28.8857   23.2867 C   0  0  0  0  0  0
  -18.9459  -30.1462   23.8877 C   0  0  0  0  0  0
  -17.6462  -30.6593   24.0563 C   0  0  0  0  0  0
  -25.9042  -34.9456   23.5114 C   0  0  0  0  0  0
  -16.5350  -29.9093   23.6334 C   0  0  0  0  0  0
  -16.7265  -28.6523   23.0324 C   0  0  0  0  0  0
  -26.4502  -31.6582   25.0722 C   0  0  0  0  0  0
  -25.3784  -31.3693   26.1480 C   0  0  0  0  0  0
  -27.0342  -30.3012   24.6144 C   0  0  0  0  0  0
  -27.6060  -32.4314   25.7494 C   0  0  0  0  0  0
  -27.5575  -37.1811   24.8463 C   0  0  0  0  0  0
  -21.4154  -29.3050   22.3676 N   0  0  0  0  0  0
  -26.4289  -37.3775   23.9406 N   0  0  0  0  0  0
  -24.6803  -31.0673   22.0987 N   0  0  0  0  0  0
  -23.4175  -28.8159   23.2996 O   0  0  0  0  0  0
  -28.3716  -26.5604   20.1306 O   0  0  0  0  0  0
  -26.5583  -34.8908   22.4661 O   0  0  0  0  0  0
  -23.5385  -32.1395   23.7418 O   0  0  0  0  0  0
  -29.9720  -19.4026   20.4108 C   0  0  0  0  0  0
  -31.1848  -20.0263   18.4081 C   0  0  0  0  0  0
  -30.9935  -17.6733   19.0266 C   0  0  0  0  0  0
  -30.4455  -20.4342   19.5382 C   0  0  0  0  0  0
  -30.2635  -18.0092   20.1859 C   0  0  0  0  0  0
  -31.4566  -18.6702   18.1480 C   0  0  0  0  0  0
  -30.2588  -21.9271   19.6422 C   0  0  0  0  0  0
  -29.8093  -16.9643   21.1709 C   0  0  0  0  0  0
  -29.3148  -22.7300   20.2103 C   0  0  0  0  0  0
  -29.9385  -15.6070   21.3509 C   0  0  0  0  0  0
  -29.4130  -24.2381   20.1134 C   0  0  0  0  0  0
  -32.2576  -18.2787   16.9221 C   0  0  0  0  0  0
  -28.1674  -25.1308   20.3985 C   0  0  0  0  0  0
  -30.4692  -24.8003   19.8001 O   0  0  0  0  0  0
  -31.4774  -12.4947   19.1236 H   0  0  0  0  0  0
  -30.3702  -11.3607   19.8353 H   0  0  0  0  0  0
  -29.7598  -11.7964   17.4420 H   0  0  0  0  0  0
  -29.6520  -13.5094   17.7583 H   0  0  0  0  0  0
  -27.8465  -11.3082   18.8138 H   0  0  0  0  0  0
  -27.3753  -12.6343   17.7823 H   0  0  0  0  0  0
  -27.7087  -14.2548   19.5835 H   0  0  0  0  0  0
  -28.7130  -11.9404   21.2928 H   0  0  0  0  0  0
  -28.4160  -13.5251   21.8890 H   0  0  0  0  0  0
  -25.2786   -9.5689   22.4735 H   0  0  0  0  0  0
  -24.0001   -7.4653   22.7495 H   0  0  0  0  0  0
  -21.0828   -8.8774   19.8965 H   0  0  0  0  0  0
  -22.3687  -10.9673   19.6149 H   0  0  0  0  0  0
  -21.2007   -7.6149   23.9709 H   0  0  0  0  0  0
  -21.1480   -6.0526   25.9074 H   0  0  0  0  0  0
  -22.0598   -2.7608   23.2850 H   0  0  0  0  0  0
  -22.4159  -11.9947   22.4759 H   0  0  0  0  0  0
  -21.1146  -13.1300   22.2581 H   0  0  0  0  0  0
  -24.6744  -15.8453   20.5313 H   0  0  0  0  0  0
  -26.3028  -15.6257   20.1259 H   0  0  0  0  0  0
  -26.7143  -32.5486   23.1139 H   0  0  0  0  0  0
  -25.0130  -33.9766   25.0491 H   0  0  0  0  0  0
  -22.7074  -31.3051   21.4019 H   0  0  0  0  0  0
  -23.3740  -35.9651   23.3305 H   0  0  0  0  0  0
  -24.3584  -36.8910   22.2050 H   0  0  0  0  0  0
  -23.7273  -37.6519   23.6653 H   0  0  0  0  0  0
  -26.0772  -31.5715   20.6040 H   0  0  0  0  0  0
  -26.8342  -30.8587   21.9969 H   0  0  0  0  0  0
  -28.1146  -29.0238   21.1864 H   0  0  0  0  0  0
  -26.0084  -25.9637   18.9799 H   0  0  0  0  0  0
  -23.9817  -27.3101   19.0082 H   0  0  0  0  0  0
  -23.7508  -30.5988   19.4043 H   0  0  0  0  0  0
  -22.7530  -29.2482   19.8516 H   0  0  0  0  0  0
  -25.1299  -36.1939   25.0829 H   0  0  0  0  0  0
  -20.9973  -28.3280   24.1397 H   0  0  0  0  0  0
  -20.5681  -26.2299   23.3601 H   0  0  0  0  0  0
  -21.6651  -26.7455   22.1201 H   0  0  0  0  0  0
  -19.6931  -25.6297   21.1236 H   0  0  0  0  0  0
  -19.6721  -27.3193   20.6724 H   0  0  0  0  0  0
  -17.4206  -26.6651   21.4011 H   0  0  0  0  0  0
  -18.0345  -26.0099   22.9021 H   0  0  0  0  0  0
  -19.7939  -30.7280   24.2231 H   0  0  0  0  0  0
  -17.5022  -31.6269   24.5179 H   0  0  0  0  0  0
  -15.5354  -30.2991   23.7693 H   0  0  0  0  0  0
  -15.8655  -28.0865   22.7019 H   0  0  0  0  0  0
  -24.5955  -30.7032   25.7835 H   0  0  0  0  0  0
  -24.8991  -32.2848   26.4954 H   0  0  0  0  0  0
  -25.8172  -30.8857   27.0218 H   0  0  0  0  0  0
  -26.2894  -29.6747   24.1217 H   0  0  0  0  0  0
  -27.4100  -29.7281   25.4631 H   0  0  0  0  0  0
  -27.8741  -30.4294   23.9312 H   0  0  0  0  0  0
  -27.2657  -33.3596   26.2096 H   0  0  0  0  0  0
  -28.3865  -32.6902   25.0328 H   0  0  0  0  0  0
  -28.0732  -31.8427   26.5396 H   0  0  0  0  0  0
  -28.2595  -38.0102   24.7485 H   0  0  0  0  0  0
  -28.1071  -36.2633   24.6320 H   0  0  0  0  0  0
  -27.2290  -37.1494   25.8864 H   0  0  0  0  0  0
  -20.9316  -29.8790   21.6911 H   0  0  0  0  0  0
  -26.0167  -38.2844   24.1412 H   0  0  0  0  0  0
  -29.4016  -19.6874   21.2831 H   0  0  0  0  0  0
  -31.5514  -20.7737   17.7171 H   0  0  0  0  0  0
  -31.2075  -16.6455   18.7865 H   0  0  0  0  0  0
  -31.0641  -22.4609   19.1537 H   0  0  0  0  0  0
  -29.2079  -17.4090   21.9506 H   0  0  0  0  0  0
  -28.4660  -22.3090   20.7294 H   0  0  0  0  0  0
  -29.4373  -15.2601   22.2401 H   0  0  0  0  0  0
  -32.7020  -19.1497   16.4389 H   0  0  0  0  0  0
  -31.6224  -17.7728   16.1946 H   0  0  0  0  0  0
  -33.0669  -17.6018   17.1973 H   0  0  0  0  0  0
  -27.8993  -25.0133   21.4489 H   0  0  0  0  0  0
  -27.3569  -24.7125   19.8064 H   0  0  0  0  0  0
  1 25  1  0  0  0
  1 30  2  0  0  0
  1 80  1  0  0  0
  2  3  1  0  0  0
  2 25  1  0  0  0
  2 85  1  0  0  0
  2 86  1  0  0  0
  3  4  1  0  0  0
  3 87  1  0  0  0
  3 88  1  0  0  0
  4  5  1  0  0  0
  4 89  1  0  0  0
  4 90  1  0  0  0
  5  6  1  0  0  0
  5 26  1  0  0  0
  5 91  1  0  0  0
  6 25  1  0  0  0
  6 92  1  0  0  0
  6 93  1  0  0  0
  7  8  2  0  0  0
  7 26  1  0  0  0
  7 29  1  0  0  0
  8  9  1  0  0  0
  8 22  1  0  0  0
  9 10  1  0  0  0
  9 27  2  0  0  0
 10 11  2  0  0  0
 10 15  1  0  0  0
 11 12  1  0  0  0
 11 94  1  0  0  0
 12 13  2  0  0  0
 12 95  1  0  0  0
 13 14  1  0  0  0
 13 31  1  0  0  0
 14 15  2  0  0  0
 14 96  1  0  0  0
 15 97  1  0  0  0
 16 17  2  0  0  0
 16 21  1  0  0  0
 16 31  1  0  0  0
 17 18  1  0  0  0
 17 98  1  0  0  0
 18 19  2  0  0  0
 18 99  1  0  0  0
 19 20  1  0  0  0
 19 24  1  0  0  0
 20 21  2  0  0  0
 20100  1  0  0  0
 21 23  1  0  0  0
 22 28  1  0  0  0
 22 32  2  0  0  0
 26 27  1  0  0  0
 28101  1  0  0  0
 28102  1  0  0  0
 29103  1  0  0  0
 29104  1  0  0  0
 33 34  1  0  0  0
 33 66  1  0  0  0
 33 70  2  0  0  0
 34 36  1  0  0  0
 34 59  1  0  0  0
 34105  1  0  0  0
 35 44  2  0  0  0
 35 45  1  0  0  0
 35 68  1  0  0  0
 36 56  1  0  0  0
 36106  1  0  0  0
 37 39  1  0  0  0
 37 47  1  0  0  0
 37 66  1  0  0  0
 37107  1  0  0  0
 38 43  2  0  0  0
 38 46  1  0  0  0
 38 47  1  0  0  0
 39 64  1  0  0  0
 39 67  2  0  0  0
 40 52  1  0  0  0
 40 53  2  0  0  0
 40 58  1  0  0  0
 41108  1  0  0  0
 41109  1  0  0  0
 41110  1  0  0  0
 41 48  1  0  0  0
 42 43  1  0  0  0
 42 66  1  0  0  0
 42111  1  0  0  0
 42112  1  0  0  0
 43 44  1  0  0  0
 44113  1  0  0  0
 45 46  2  0  0  0
 45114  1  0  0  0
 46115  1  0  0  0
 47116  1  0  0  0
 47117  1  0  0  0
 48 56  1  0  0  0
 48 65  1  0  0  0
 48118  1  0  0  0
 49 50  1  0  0  0
 49 53  1  0  0  0
 49 64  1  0  0  0
 49119  1  0  0  0
 50 51  1  0  0  0
 50120  1  0  0  0
 50121  1  0  0  0
 51 52  1  0  0  0
 51122  1  0  0  0
 51123  1  0  0  0
 52124  1  0  0  0
 52125  1  0  0  0
 53 54  1  0  0  0
 54 55  2  0  0  0
 54126  1  0  0  0
 55 57  1  0  0  0
 55127  1  0  0  0
 56 69  2  0  0  0
 57 58  2  0  0  0
 57128  1  0  0  0
 58129  1  0  0  0
 59 60  1  0  0  0
 59 61  1  0  0  0
 59 62  1  0  0  0
 60130  1  0  0  0
 60131  1  0  0  0
 60132  1  0  0  0
 61133  1  0  0  0
 61134  1  0  0  0
 61135  1  0  0  0
 62136  1  0  0  0
 62137  1  0  0  0
 62138  1  0  0  0
 63 65  1  0  0  0
 63139  1  0  0  0
 63140  1  0  0  0
 63141  1  0  0  0
 64142  1  0  0  0
 65143  1  0  0  0
 68 83  1  0  0  0
 71 74  2  0  0  0
 71 75  1  0  0  0
 71144  1  0  0  0
 72 74  1  0  0  0
 72 76  2  0  0  0
 72145  1  0  0  0
 73 75  2  0  0  0
 73 76  1  0  0  0
 73146  1  0  0  0
 74 77  1  0  0  0
 75 78  1  0  0  0
 76 82  1  0  0  0
 77 79  2  0  0  0
 77147  1  0  0  0
 78 80  2  0  0  0
 78148  1  0  0  0
 79 81  1  0  0  0
 79149  1  0  0  0
 80150  1  0  0  0
 81 83  1  0  0  0
 81 84  2  0  0  0
 82151  1  0  0  0
 82152  1  0  0  0
 82153  1  0  0  0
 83154  1  0  0  0
 83155  1  0  0  0
M  ISO  4   1 100  68 101  80 100  83 101
M  END
> <chiral flag>
0

> <version>
0

> <s_m_source_file>
/data/baiqing/PycharmProjects/Reinvent-master-3.2/result/LINK_invent/BTK/process_docking_weight1_custom_product_contain_oxygen_bond_distance_aromatic_linkinvent_7_9_3/rearranged_h_0126.sdf

> <i_m_source_file_index>
42

> <r_mmod_Potential_Energy-OPLS-2005>
69.2755584716797

> <r_mmod_Stretch_Energy-OPLS-2005>
63.7347793579102

> <r_mmod_Bend_Energy-OPLS-2005>
157.100204467773

> <r_mmod_Torsional_Energy-OPLS-2005>
195.385620117188

> <r_mmod_Improper_Torsional_Energy-OPLS-2005>
1.95292520523071

> <r_mmod_Van_der_Waal_Energy-OPLS-2005>
154.194686889648

> <r_mmod_Electrostatic_Energy-OPLS-2005>
-311.874450683594

> <r_mmod_Solvation_Energy-OPLS-2005>
-218.05094909668

> <b_mmod_Minimization_Converged-OPLS-2005>
0

> <r_mmod_RMS_Derivative-OPLS-2005>
2.09699583053589

$$$$
42
                    3D
 Structure written by MMmdl.
156164  0  0  1  0            999 V2000
  -30.7562  -14.4138   20.6655 C   0  0  0  0  0  0
  -30.4188  -12.3093   19.4142 C   0  0  0  0  0  0
  -29.4876  -12.5203   18.2051 C   0  0  0  0  0  0
  -28.0128  -12.3729   18.6197 C   0  0  0  0  0  0
  -27.6639  -13.2071   19.8801 C   0  0  2  0  0  0
  -28.7017  -12.9757   21.0009 C   0  0  0  0  0  0
  -25.2591  -13.8166   20.5679 C   0  0  0  0  0  0
  -24.1837  -13.0440   20.9159 C   0  0  0  0  0  0
  -24.6397  -11.6909   20.8737 C   0  0  0  0  0  0
  -23.9068  -10.4292   21.0411 C   0  0  0  0  0  0
  -24.3620   -9.4206   21.9185 C   0  0  0  0  0  0
  -23.6294   -8.2247   22.0761 C   0  0  0  0  0  0
  -22.4279   -8.0282   21.3550 C   0  0  0  0  0  0
  -21.9913   -9.0258   20.4652 C   0  0  0  0  0  0
  -22.7246  -10.2136   20.3058 C   0  0  0  0  0  0
  -21.6843   -6.0736   22.5277 C   0  0  0  0  0  0
  -21.4015   -6.5644   23.8211 C   0  0  0  0  0  0
  -21.3656   -5.6798   24.9172 C   0  0  0  0  0  0
  -21.6042   -4.3061   24.7225 C   0  0  0  0  0  0
  -21.8818   -3.8151   23.4347 C   0  0  0  0  0  0
  -21.9197   -4.6966   22.3401 C   0  0  0  0  0  0
  -22.7860  -13.5241   21.1824 C   0  0  0  0  0  0
  -22.1659   -4.2156   21.0976 F   0  0  0  0  0  0
  -21.5629   -3.4541   25.7736 F   0  0  0  0  0  0
  -30.0387  -13.2760   20.4582 N   0  0  0  0  0  0
  -26.3036  -12.9338   20.3396 N   0  0  0  0  0  0
  -25.9326  -11.6496   20.5781 N   0  0  0  0  0  0
  -22.0504  -12.8236   22.0384 N   0  0  0  0  0  0
  -25.4336  -15.1880   20.4079 N   0  0  0  0  0  0
  -31.8171  -14.6441   20.0748 O   0  0  0  0  0  0
  -21.6636   -6.8882   21.4244 O   0  0  0  0  0  0
  -22.3543  -14.5543   20.6664 O   0  0  0  0  0  0
  -24.6124  -31.8690   23.2103 C   0  0  0  0  0  0
  -25.9015  -32.4831   23.8392 C   0  0  1  0  0  0
  -27.2326  -27.4350   20.0939 C   0  0  0  0  0  0
  -25.5895  -33.8620   24.2336 N   0  0  0  0  0  0
  -23.3996  -30.4920   21.5502 C   0  0  2  0  0  0
  -24.8441  -28.9580   20.1123 C   0  0  0  0  0  0
  -22.7409  -29.4659   22.4992 C   0  0  0  0  0  0
  -18.0272  -28.1372   22.8483 C   0  0  0  0  0  0
  -24.1496  -36.7313   23.2638 C   0  0  0  0  0  0
  -25.9254  -30.8362   21.3589 C   0  0  0  0  0  0
  -26.0019  -29.4689   20.7099 C   0  0  0  0  0  0
  -27.1958  -28.7143   20.6954 C   0  0  0  0  0  0
  -26.0499  -26.9342   19.4993 C   0  0  0  0  0  0
  -24.8614  -27.6900   19.5069 C   0  0  0  0  0  0
  -23.6062  -29.8237   20.1643 C   0  0  0  0  0  0
  -25.4115  -36.3104   24.0336 C   0  0  1  0  0  0
  -20.5860  -28.3658   23.1319 C   0  0  2  0  0  0
  -20.6752  -26.9402   22.5413 C   0  0  0  0  0  0
  -19.5737  -26.6382   21.5203 C   0  0  0  0  0  0
  -18.1916  -26.7922   22.1612 C   0  0  0  0  0  0
  -19.1523  -28.8832   23.2896 C   0  0  0  0  0  0
  -18.9457  -30.1434   23.8902 C   0  0  0  0  0  0
  -17.6469  -30.6576   24.0564 C   0  0  0  0  0  0
  -25.9030  -34.9474   23.5126 C   0  0  0  0  0  0
  -16.5346  -29.9088   23.6327 C   0  0  0  0  0  0
  -16.7265  -28.6504   23.0333 C   0  0  0  0  0  0
  -26.4460  -31.6591   25.0698 C   0  0  0  0  0  0
  -25.3741  -31.3668   26.1458 C   0  0  0  0  0  0
  -27.0292  -30.3049   24.6029 C   0  0  0  0  0  0
  -27.6062  -32.4290   25.7460 C   0  0  0  0  0  0
  -27.5585  -37.1801   24.8461 C   0  0  0  0  0  0
  -21.4137  -29.3024   22.3733 N   0  0  0  0  0  0
  -26.4301  -37.3793   23.9407 N   0  0  0  0  0  0
  -24.6647  -31.0804   22.0989 N   0  0  0  0  0  0
  -23.4189  -28.8209   23.3036 O   0  0  0  0  0  0
  -28.4324  -26.7483   20.1121 O   0  0  0  0  0  0
  -26.5611  -34.8920   22.4695 O   0  0  0  0  0  0
  -23.5322  -32.1436   23.7493 O   0  0  0  0  0  0
  -32.8014  -17.5274   23.0920 C   0  0  0  0  0  0
  -32.1227  -18.7579   23.1169 C   0  0  0  0  0  0
  -32.1753  -16.3902   22.5542 C   0  0  0  0  0  0
  -30.1838  -17.7202   22.0665 C   0  0  0  0  0  0
  -30.8110  -18.8718   22.6110 C   0  0  0  0  0  0
  -30.8649  -16.4750   22.0289 C   0  0  0  0  0  0
  -30.1929  -20.2142   22.6443 C   0  0  0  0  0  0
  -29.2177  -20.6965   21.8505 C   0  0  0  0  0  0
  -28.2130  -24.3954   20.8522 C   0  0  0  0  0  0
  -28.6313  -22.0980   21.9934 C   0  0  0  0  0  0
  -28.7632  -22.9619   20.7155 C   0  0  0  0  0  0
  -28.5071  -25.3730   19.6966 C   0  0  0  0  0  0
  -30.2197  -15.3089   21.5186 N   0  0  0  0  0  0
  -27.5586  -24.7403   21.8431 O   0  0  0  0  0  0
  -31.4615  -12.4111   19.1071 H   0  0  0  0  0  0
  -30.3261  -11.2932   19.8005 H   0  0  0  0  0  0
  -29.7277  -11.8065   17.4168 H   0  0  0  0  0  0
  -29.6528  -13.5128   17.7828 H   0  0  0  0  0  0
  -27.8254  -11.3164   18.8124 H   0  0  0  0  0  0
  -27.3592  -12.6513   17.7933 H   0  0  0  0  0  0
  -27.7143  -14.2573   19.5925 H   0  0  0  0  0  0
  -28.6730  -11.9361   21.3310 H   0  0  0  0  0  0
  -28.4523  -13.5648   21.8841 H   0  0  0  0  0  0
  -25.2764   -9.5672   22.4760 H   0  0  0  0  0  0
  -23.9995   -7.4635   22.7480 H   0  0  0  0  0  0
  -21.0844   -8.8780   19.8953 H   0  0  0  0  0  0
  -22.3707  -10.9677   19.6168 H   0  0  0  0  0  0
  -21.2006   -7.6153   23.9716 H   0  0  0  0  0  0
  -21.1476   -6.0527   25.9075 H   0  0  0  0  0  0
  -22.0604   -2.7617   23.2842 H   0  0  0  0  0  0
  -22.4120  -11.9892   22.4758 H   0  0  0  0  0  0
  -21.1133  -13.1273   22.2607 H   0  0  0  0  0  0
  -24.6726  -15.8505   20.5123 H   0  0  0  0  0  0
  -26.2952  -15.6212   20.0979 H   0  0  0  0  0  0
  -26.7077  -32.5569   23.1158 H   0  0  0  0  0  0
  -25.0034  -33.9788   25.0469 H   0  0  0  0  0  0
  -22.6869  -31.3089   21.4111 H   0  0  0  0  0  0
  -23.3750  -35.9653   23.3302 H   0  0  0  0  0  0
  -24.3584  -36.8930   22.2048 H   0  0  0  0  0  0
  -23.7252  -37.6517   23.6657 H   0  0  0  0  0  0
  -26.0292  -31.6020   20.5893 H   0  0  0  0  0  0
  -26.8172  -30.8960   21.9704 H   0  0  0  0  0  0
  -28.0917  -29.1058   21.1559 H   0  0  0  0  0  0
  -26.0154  -25.9676   19.0199 H   0  0  0  0  0  0
  -23.9677  -27.2954   19.0423 H   0  0  0  0  0  0
  -23.7115  -30.5983   19.4038 H   0  0  0  0  0  0
  -22.7310  -29.2413   19.8713 H   0  0  0  0  0  0
  -25.1283  -36.1972   25.0828 H   0  0  0  0  0  0
  -20.9949  -28.3226   24.1446 H   0  0  0  0  0  0
  -20.5653  -26.2276   23.3600 H   0  0  0  0  0  0
  -21.6626  -26.7439   22.1213 H   0  0  0  0  0  0
  -19.6910  -25.6304   21.1220 H   0  0  0  0  0  0
  -19.6679  -27.3204   20.6743 H   0  0  0  0  0  0
  -17.4185  -26.6678   21.4011 H   0  0  0  0  0  0
  -18.0310  -26.0071   22.9012 H   0  0  0  0  0  0
  -19.7940  -30.7226   24.2306 H   0  0  0  0  0  0
  -17.5021  -31.6271   24.5152 H   0  0  0  0  0  0
  -15.5348  -30.2974   23.7648 H   0  0  0  0  0  0
  -15.8670  -28.0814   22.7042 H   0  0  0  0  0  0
  -24.5948  -30.6982   25.7778 H   0  0  0  0  0  0
  -24.8890  -32.2801   26.4911 H   0  0  0  0  0  0
  -25.8106  -30.8838   27.0214 H   0  0  0  0  0  0
  -26.2803  -29.6804   24.1146 H   0  0  0  0  0  0
  -27.4157  -29.7283   25.4443 H   0  0  0  0  0  0
  -27.8596  -30.4384   23.9094 H   0  0  0  0  0  0
  -27.2729  -33.3615   26.2032 H   0  0  0  0  0  0
  -28.3885  -32.6805   25.0281 H   0  0  0  0  0  0
  -28.0716  -31.8405   26.5380 H   0  0  0  0  0  0
  -28.2584  -38.0116   24.7522 H   0  0  0  0  0  0
  -28.1100  -36.2640   24.6271 H   0  0  0  0  0  0
  -27.2300  -37.1424   25.8865 H   0  0  0  0  0  0
  -20.9306  -29.8770   21.6971 H   0  0  0  0  0  0
  -26.0188  -38.2867   24.1429 H   0  0  0  0  0  0
  -33.8055  -17.4572   23.4875 H   0  0  0  0  0  0
  -32.6247  -19.6239   23.5272 H   0  0  0  0  0  0
  -32.7128  -15.4518   22.5537 H   0  0  0  0  0  0
  -29.1767  -17.7937   21.6827 H   0  0  0  0  0  0
  -30.5715  -20.8675   23.4183 H   0  0  0  0  0  0
  -28.8076  -20.0801   21.0630 H   0  0  0  0  0  0
  -29.1200  -22.6072   22.8269 H   0  0  0  0  0  0
  -27.5811  -21.9981   22.2698 H   0  0  0  0  0  0
  -29.8139  -23.0347   20.4329 H   0  0  0  0  0  0
  -28.2474  -22.4779   19.8857 H   0  0  0  0  0  0
  -27.8803  -25.1516   18.8352 H   0  0  0  0  0  0
  -29.5288  -25.1916   19.3662 H   0  0  0  0  0  0
  -29.2839  -15.1176   21.8446 H   0  0  0  0  0  0
  1 25  1  0  0  0
  1 30  2  0  0  0
  1 83  1  0  0  0
  2  3  1  0  0  0
  2 25  1  0  0  0
  2 85  1  0  0  0
  2 86  1  0  0  0
  3  4  1  0  0  0
  3 87  1  0  0  0
  3 88  1  0  0  0
  4  5  1  0  0  0
  4 89  1  0  0  0
  4 90  1  0  0  0
  5  6  1  0  0  0
  5 26  1  0  0  0
  5 91  1  0  0  0
  6 25  1  0  0  0
  6 92  1  0  0  0
  6 93  1  0  0  0
  7  8  2  0  0  0
  7 26  1  0  0  0
  7 29  1  0  0  0
  8  9  1  0  0  0
  8 22  1  0  0  0
  9 10  1  0  0  0
  9 27  2  0  0  0
 10 11  2  0  0  0
 10 15  1  0  0  0
 11 12  1  0  0  0
 11 94  1  0  0  0
 12 13  2  0  0  0
 12 95  1  0  0  0
 13 14  1  0  0  0
 13 31  1  0  0  0
 14 15  2  0  0  0
 14 96  1  0  0  0
 15 97  1  0  0  0
 16 17  2  0  0  0
 16 21  1  0  0  0
 16 31  1  0  0  0
 17 18  1  0  0  0
 17 98  1  0  0  0
 18 19  2  0  0  0
 18 99  1  0  0  0
 19 20  1  0  0  0
 19 24  1  0  0  0
 20 21  2  0  0  0
 20100  1  0  0  0
 21 23  1  0  0  0
 22 28  1  0  0  0
 22 32  2  0  0  0
 26 27  1  0  0  0
 28101  1  0  0  0
 28102  1  0  0  0
 29103  1  0  0  0
 29104  1  0  0  0
 33 34  1  0  0  0
 33 66  1  0  0  0
 33 70  2  0  0  0
 34 36  1  0  0  0
 34 59  1  0  0  0
 34105  1  0  0  0
 35 44  2  0  0  0
 35 45  1  0  0  0
 35 68  1  0  0  0
 36 56  1  0  0  0
 36106  1  0  0  0
 37 39  1  0  0  0
 37 47  1  0  0  0
 37 66  1  0  0  0
 37107  1  0  0  0
 38 43  2  0  0  0
 38 46  1  0  0  0
 38 47  1  0  0  0
 39 64  1  0  0  0
 39 67  2  0  0  0
 40 52  1  0  0  0
 40 53  2  0  0  0
 40 58  1  0  0  0
 41108  1  0  0  0
 41109  1  0  0  0
 41110  1  0  0  0
 41 48  1  0  0  0
 42 43  1  0  0  0
 42 66  1  0  0  0
 42111  1  0  0  0
 42112  1  0  0  0
 43 44  1  0  0  0
 44113  1  0  0  0
 45 46  2  0  0  0
 45114  1  0  0  0
 46115  1  0  0  0
 47116  1  0  0  0
 47117  1  0  0  0
 48 56  1  0  0  0
 48 65  1  0  0  0
 48118  1  0  0  0
 49 50  1  0  0  0
 49 53  1  0  0  0
 49 64  1  0  0  0
 49119  1  0  0  0
 50 51  1  0  0  0
 50120  1  0  0  0
 50121  1  0  0  0
 51 52  1  0  0  0
 51122  1  0  0  0
 51123  1  0  0  0
 52124  1  0  0  0
 52125  1  0  0  0
 53 54  1  0  0  0
 54 55  2  0  0  0
 54126  1  0  0  0
 55 57  1  0  0  0
 55127  1  0  0  0
 56 69  2  0  0  0
 57 58  2  0  0  0
 57128  1  0  0  0
 58129  1  0  0  0
 59 60  1  0  0  0
 59 61  1  0  0  0
 59 62  1  0  0  0
 60130  1  0  0  0
 60131  1  0  0  0
 60132  1  0  0  0
 61133  1  0  0  0
 61134  1  0  0  0
 61135  1  0  0  0
 62136  1  0  0  0
 62137  1  0  0  0
 62138  1  0  0  0
 63 65  1  0  0  0
 63139  1  0  0  0
 63140  1  0  0  0
 63141  1  0  0  0
 64142  1  0  0  0
 65143  1  0  0  0
 68 82  1  0  0  0
 71 72  2  0  0  0
 71 73  1  0  0  0
 71144  1  0  0  0
 72 75  1  0  0  0
 72145  1  0  0  0
 73 76  2  0  0  0
 73146  1  0  0  0
 74 75  2  0  0  0
 74 76  1  0  0  0
 74147  1  0  0  0
 75 77  1  0  0  0
 76 83  1  0  0  0
 77 78  2  0  0  0
 77148  1  0  0  0
 78 80  1  0  0  0
 78149  1  0  0  0
 79 81  1  0  0  0
 79 82  1  0  0  0
 79 84  2  0  0  0
 80 81  1  0  0  0
 80150  1  0  0  0
 80151  1  0  0  0
 81152  1  0  0  0
 81153  1  0  0  0
 82154  1  0  0  0
 82155  1  0  0  0
 83156  1  0  0  0
M  ISO  4   1 100  68 101  82 101  83 100
M  END
> <chiral flag>
0

> <version>
0

> <s_m_source_file>
/data/baiqing/PycharmProjects/Reinvent-master-3.2/result/LINK_invent/BTK/process_docking_weight1_custom_product_contain_oxygen_bond_distance_aromatic_linkinvent_7_9_3/rearranged_h_0126.sdf

> <i_m_source_file_index>
43

> <r_mmod_Potential_Energy-OPLS-2005>
-36.7422332763672

> <r_mmod_Stretch_Energy-OPLS-2005>
36.7411270141602

> <r_mmod_Bend_Energy-OPLS-2005>
100.79598236084

> <r_mmod_Torsional_Energy-OPLS-2005>
211.100814819336

> <r_mmod_Improper_Torsional_Energy-OPLS-2005>
1.88980948925018

> <r_mmod_Van_der_Waal_Energy-OPLS-2005>
155.253433227539

> <r_mmod_Electrostatic_Energy-OPLS-2005>
-324.245056152344

> <r_mmod_Solvation_Energy-OPLS-2005>
-227.876602172852

> <b_mmod_Minimization_Converged-OPLS-2005>
0

> <r_mmod_RMS_Derivative-OPLS-2005>
2.33442234992981

$$$$
43
                    3D
 Structure written by MMmdl.
155163  0  0  1  0            999 V2000
  -30.6201  -14.6145   20.4853 C   0  0  0  0  0  0
  -30.4378  -12.3711   19.4442 C   0  0  0  0  0  0
  -29.5058  -12.5076   18.2180 C   0  0  0  0  0  0
  -28.0290  -12.3469   18.6304 C   0  0  0  0  0  0
  -27.6568  -13.2106   19.8647 C   0  0  2  0  0  0
  -28.7013  -13.0448   20.9926 C   0  0  0  0  0  0
  -25.2583  -13.8159   20.5700 C   0  0  0  0  0  0
  -24.1833  -13.0440   20.9181 C   0  0  0  0  0  0
  -24.6400  -11.6905   20.8735 C   0  0  0  0  0  0
  -23.9076  -10.4288   21.0411 C   0  0  0  0  0  0
  -24.3616   -9.4202   21.9194 C   0  0  0  0  0  0
  -23.6281   -8.2238   22.0764 C   0  0  0  0  0  0
  -22.4260   -8.0285   21.3549 C   0  0  0  0  0  0
  -21.9907   -9.0273   20.4652 C   0  0  0  0  0  0
  -22.7246  -10.2148   20.3065 C   0  0  0  0  0  0
  -21.6854   -6.0739   22.5282 C   0  0  0  0  0  0
  -21.4020   -6.5647   23.8217 C   0  0  0  0  0  0
  -21.3654   -5.6800   24.9178 C   0  0  0  0  0  0
  -21.6040   -4.3060   24.7233 C   0  0  0  0  0  0
  -21.8811   -3.8151   23.4356 C   0  0  0  0  0  0
  -21.9196   -4.6968   22.3413 C   0  0  0  0  0  0
  -22.7852  -13.5244   21.1850 C   0  0  0  0  0  0
  -22.1658   -4.2150   21.0985 F   0  0  0  0  0  0
  -21.5629   -3.4545   25.7749 F   0  0  0  0  0  0
  -30.0229  -13.3834   20.4343 N   0  0  0  0  0  0
  -26.3001  -12.9332   20.3308 N   0  0  0  0  0  0
  -25.9321  -11.6495   20.5730 N   0  0  0  0  0  0
  -22.0484  -12.8243   22.0397 N   0  0  0  0  0  0
  -25.4301  -15.1880   20.4166 N   0  0  0  0  0  0
  -31.7737  -14.7913   20.0808 O   0  0  0  0  0  0
  -21.6621   -6.8885   21.4243 O   0  0  0  0  0  0
  -22.3549  -14.5557   20.6707 O   0  0  0  0  0  0
  -24.6240  -31.8620   23.2017 C   0  0  0  0  0  0
  -25.9095  -32.4784   23.8343 C   0  0  1  0  0  0
  -27.2313  -27.3474   20.1065 C   0  0  0  0  0  0
  -25.5928  -33.8585   24.2276 N   0  0  0  0  0  0
  -23.4173  -30.4814   21.5449 C   0  0  2  0  0  0
  -24.8651  -28.9333   20.1151 C   0  0  0  0  0  0
  -22.7468  -29.4605   22.4956 C   0  0  0  0  0  0
  -18.0293  -28.1390   22.8468 C   0  0  0  0  0  0
  -24.1490  -36.7298   23.2635 C   0  0  0  0  0  0
  -25.9552  -30.7981   21.3691 C   0  0  0  0  0  0
  -26.0326  -29.4264   20.7134 C   0  0  0  0  0  0
  -27.2229  -28.6452   20.6957 C   0  0  0  0  0  0
  -26.0438  -26.8915   19.4972 C   0  0  0  0  0  0
  -24.8692  -27.6703   19.5002 C   0  0  0  0  0  0
  -23.6324  -29.8111   20.1621 C   0  0  0  0  0  0
  -25.4115  -36.3082   24.0319 C   0  0  1  0  0  0
  -20.5874  -28.3689   23.1282 C   0  0  2  0  0  0
  -20.6781  -26.9409   22.5427 C   0  0  0  0  0  0
  -19.5777  -26.6365   21.5219 C   0  0  0  0  0  0
  -18.1953  -26.7926   22.1620 C   0  0  0  0  0  0
  -19.1538  -28.8857   23.2860 C   0  0  0  0  0  0
  -18.9461  -30.1451   23.8873 C   0  0  0  0  0  0
  -17.6453  -30.6592   24.0536 C   0  0  0  0  0  0
  -25.9049  -34.9456   23.5100 C   0  0  0  0  0  0
  -16.5344  -29.9081   23.6311 C   0  0  0  0  0  0
  -16.7270  -28.6489   23.0328 C   0  0  0  0  0  0
  -26.4489  -31.6590   25.0713 C   0  0  0  0  0  0
  -25.3710  -31.3744   26.1436 C   0  0  0  0  0  0
  -27.0331  -30.3009   24.6166 C   0  0  0  0  0  0
  -27.6051  -32.4328   25.7486 C   0  0  0  0  0  0
  -27.5576  -37.1813   24.8466 C   0  0  0  0  0  0
  -21.4188  -29.3022   22.3681 N   0  0  0  0  0  0
  -26.4300  -37.3772   23.9393 N   0  0  0  0  0  0
  -24.6841  -31.0639   22.0958 N   0  0  0  0  0  0
  -23.4202  -28.8142   23.3029 O   0  0  0  0  0  0
  -28.3635  -26.5328   20.0886 O   0  0  0  0  0  0
  -26.5620  -34.8928   22.4666 O   0  0  0  0  0  0
  -23.5410  -32.1431   23.7348 O   0  0  0  0  0  0
  -30.4697  -19.1166   19.3545 C   0  0  0  0  0  0
  -30.6535  -17.7382   19.6745 C   0  0  0  0  0  0
  -28.7354  -17.8511   21.1231 C   0  0  0  0  0  0
  -29.4083  -19.8983   19.8909 C   0  0  0  0  0  0
  -28.5403  -19.2262   20.7955 C   0  0  0  0  0  0
  -29.7751  -17.0635   20.5626 C   0  0  0  0  0  0
  -28.7681  -24.0079   19.6991 C   0  0  0  0  0  0
  -27.3530  -19.9502   21.4017 C   0  0  0  0  0  0
  -29.1515  -21.3576   19.3575 C   0  0  0  0  0  0
  -29.0600  -22.5989   20.3407 C   0  0  0  0  0  0
  -28.2076  -25.1625   20.6063 C   0  0  0  0  0  0
  -29.8125  -15.6407   20.8853 N   0  0  0  0  0  0
  -28.9558  -24.1962   18.4928 O   0  0  0  0  0  0
  -31.4809  -12.4914   19.1433 H   0  0  0  0  0  0
  -30.3642  -11.3704   19.8728 H   0  0  0  0  0  0
  -29.7647  -11.7639   17.4638 H   0  0  0  0  0  0
  -29.6522  -13.4807   17.7454 H   0  0  0  0  0  0
  -27.8657  -11.2922   18.8566 H   0  0  0  0  0  0
  -27.3737  -12.5813   17.7902 H   0  0  0  0  0  0
  -27.6811  -14.2489   19.5359 H   0  0  0  0  0  0
  -28.7056  -12.0165   21.3587 H   0  0  0  0  0  0
  -28.4505  -13.6636   21.8555 H   0  0  0  0  0  0
  -25.2771   -9.5668   22.4763 H   0  0  0  0  0  0
  -23.9993   -7.4632   22.7486 H   0  0  0  0  0  0
  -21.0842   -8.8801   19.8962 H   0  0  0  0  0  0
  -22.3716  -10.9688   19.6169 H   0  0  0  0  0  0
  -21.2004   -7.6144   23.9726 H   0  0  0  0  0  0
  -21.1481   -6.0519   25.9077 H   0  0  0  0  0  0
  -22.0591   -2.7603   23.2857 H   0  0  0  0  0  0
  -22.4092  -11.9897   22.4785 H   0  0  0  0  0  0
  -21.1113  -13.1287   22.2604 H   0  0  0  0  0  0
  -24.6656  -15.8433   20.5383 H   0  0  0  0  0  0
  -26.2839  -15.6297   20.1022 H   0  0  0  0  0  0
  -26.7161  -32.5447   23.1094 H   0  0  0  0  0  0
  -25.0065  -33.9724   25.0415 H   0  0  0  0  0  0
  -22.7098  -31.3003   21.3972 H   0  0  0  0  0  0
  -23.3745  -35.9645   23.3336 H   0  0  0  0  0  0
  -24.3562  -36.8884   22.2041 H   0  0  0  0  0  0
  -23.7282  -37.6524   23.6642 H   0  0  0  0  0  0
  -26.0837  -31.5589   20.5982 H   0  0  0  0  0  0
  -26.8370  -30.8493   21.9970 H   0  0  0  0  0  0
  -28.1256  -29.0227   21.1578 H   0  0  0  0  0  0
  -26.0213  -25.9251   19.0121 H   0  0  0  0  0  0
  -23.9722  -27.2878   19.0311 H   0  0  0  0  0  0
  -23.7504  -30.5838   19.4018 H   0  0  0  0  0  0
  -22.7540  -29.2371   19.8613 H   0  0  0  0  0  0
  -25.1305  -36.1933   25.0815 H   0  0  0  0  0  0
  -20.9936  -28.3293   24.1414 H   0  0  0  0  0  0
  -20.5675  -26.2284   23.3615 H   0  0  0  0  0  0
  -21.6645  -26.7447   22.1218 H   0  0  0  0  0  0
  -19.6943  -25.6267   21.1259 H   0  0  0  0  0  0
  -19.6739  -27.3186   20.6752 H   0  0  0  0  0  0
  -17.4251  -26.6661   21.3998 H   0  0  0  0  0  0
  -18.0345  -26.0082   22.9027 H   0  0  0  0  0  0
  -19.7923  -30.7261   24.2273 H   0  0  0  0  0  0
  -17.5005  -31.6258   24.5147 H   0  0  0  0  0  0
  -15.5348  -30.2976   23.7638 H   0  0  0  0  0  0
  -15.8666  -28.0803   22.7054 H   0  0  0  0  0  0
  -24.5873  -30.7110   25.7766 H   0  0  0  0  0  0
  -24.8902  -32.2911   26.4853 H   0  0  0  0  0  0
  -25.8005  -30.8919   27.0218 H   0  0  0  0  0  0
  -26.2908  -29.6766   24.1178 H   0  0  0  0  0  0
  -27.4026  -29.7266   25.4673 H   0  0  0  0  0  0
  -27.8773  -30.4307   23.9389 H   0  0  0  0  0  0
  -27.2662  -33.3625   26.2077 H   0  0  0  0  0  0
  -28.3852  -32.6901   25.0304 H   0  0  0  0  0  0
  -28.0743  -31.8444   26.5389 H   0  0  0  0  0  0
  -28.2626  -38.0077   24.7460 H   0  0  0  0  0  0
  -28.1039  -36.2607   24.6358 H   0  0  0  0  0  0
  -27.2276  -37.1543   25.8865 H   0  0  0  0  0  0
  -20.9384  -29.8760   21.6891 H   0  0  0  0  0  0
  -26.0184  -38.2856   24.1364 H   0  0  0  0  0  0
  -31.1447  -19.5643   18.6373 H   0  0  0  0  0  0
  -31.4607  -17.2041   19.1954 H   0  0  0  0  0  0
  -28.0414  -17.3799   21.8065 H   0  0  0  0  0  0
  -27.6882  -20.6581   22.1594 H   0  0  0  0  0  0
  -26.6576  -19.2569   21.8759 H   0  0  0  0  0  0
  -26.8028  -20.4945   20.6338 H   0  0  0  0  0  0
  -28.2295  -21.3204   18.7752 H   0  0  0  0  0  0
  -29.9285  -21.5748   18.6218 H   0  0  0  0  0  0
  -28.2812  -22.4380   21.0821 H   0  0  0  0  0  0
  -29.9956  -22.6762   20.8936 H   0  0  0  0  0  0
  -28.7220  -25.1093   21.5666 H   0  0  0  0  0  0
  -27.1625  -24.9398   20.8191 H   0  0  0  0  0  0
  -28.9747  -15.3037   21.3368 H   0  0  0  0  0  0
  1 25  1  0  0  0
  1 30  2  0  0  0
  1 82  1  0  0  0
  2  3  1  0  0  0
  2 25  1  0  0  0
  2 84  1  0  0  0
  2 85  1  0  0  0
  3  4  1  0  0  0
  3 86  1  0  0  0
  3 87  1  0  0  0
  4  5  1  0  0  0
  4 88  1  0  0  0
  4 89  1  0  0  0
  5  6  1  0  0  0
  5 26  1  0  0  0
  5 90  1  0  0  0
  6 25  1  0  0  0
  6 91  1  0  0  0
  6 92  1  0  0  0
  7  8  2  0  0  0
  7 26  1  0  0  0
  7 29  1  0  0  0
  8  9  1  0  0  0
  8 22  1  0  0  0
  9 10  1  0  0  0
  9 27  2  0  0  0
 10 11  2  0  0  0
 10 15  1  0  0  0
 11 12  1  0  0  0
 11 93  1  0  0  0
 12 13  2  0  0  0
 12 94  1  0  0  0
 13 14  1  0  0  0
 13 31  1  0  0  0
 14 15  2  0  0  0
 14 95  1  0  0  0
 15 96  1  0  0  0
 16 17  2  0  0  0
 16 21  1  0  0  0
 16 31  1  0  0  0
 17 18  1  0  0  0
 17 97  1  0  0  0
 18 19  2  0  0  0
 18 98  1  0  0  0
 19 20  1  0  0  0
 19 24  1  0  0  0
 20 21  2  0  0  0
 20 99  1  0  0  0
 21 23  1  0  0  0
 22 28  1  0  0  0
 22 32  2  0  0  0
 26 27  1  0  0  0
 28100  1  0  0  0
 28101  1  0  0  0
 29102  1  0  0  0
 29103  1  0  0  0
 33 34  1  0  0  0
 33 66  1  0  0  0
 33 70  2  0  0  0
 34 36  1  0  0  0
 34 59  1  0  0  0
 34104  1  0  0  0
 35 44  2  0  0  0
 35 45  1  0  0  0
 35 68  1  0  0  0
 36 56  1  0  0  0
 36105  1  0  0  0
 37 39  1  0  0  0
 37 47  1  0  0  0
 37 66  1  0  0  0
 37106  1  0  0  0
 38 43  2  0  0  0
 38 46  1  0  0  0
 38 47  1  0  0  0
 39 64  1  0  0  0
 39 67  2  0  0  0
 40 52  1  0  0  0
 40 53  2  0  0  0
 40 58  1  0  0  0
 41107  1  0  0  0
 41108  1  0  0  0
 41109  1  0  0  0
 41 48  1  0  0  0
 42 43  1  0  0  0
 42 66  1  0  0  0
 42110  1  0  0  0
 42111  1  0  0  0
 43 44  1  0  0  0
 44112  1  0  0  0
 45 46  2  0  0  0
 45113  1  0  0  0
 46114  1  0  0  0
 47115  1  0  0  0
 47116  1  0  0  0
 48 56  1  0  0  0
 48 65  1  0  0  0
 48117  1  0  0  0
 49 50  1  0  0  0
 49 53  1  0  0  0
 49 64  1  0  0  0
 49118  1  0  0  0
 50 51  1  0  0  0
 50119  1  0  0  0
 50120  1  0  0  0
 51 52  1  0  0  0
 51121  1  0  0  0
 51122  1  0  0  0
 52123  1  0  0  0
 52124  1  0  0  0
 53 54  1  0  0  0
 54 55  2  0  0  0
 54125  1  0  0  0
 55 57  1  0  0  0
 55126  1  0  0  0
 56 69  2  0  0  0
 57 58  2  0  0  0
 57127  1  0  0  0
 58128  1  0  0  0
 59 60  1  0  0  0
 59 61  1  0  0  0
 59 62  1  0  0  0
 60129  1  0  0  0
 60130  1  0  0  0
 60131  1  0  0  0
 61132  1  0  0  0
 61133  1  0  0  0
 61134  1  0  0  0
 62135  1  0  0  0
 62136  1  0  0  0
 62137  1  0  0  0
 63 65  1  0  0  0
 63138  1  0  0  0
 63139  1  0  0  0
 63140  1  0  0  0
 64141  1  0  0  0
 65142  1  0  0  0
 68 81  1  0  0  0
 71 72  2  0  0  0
 71 74  1  0  0  0
 71143  1  0  0  0
 72 76  1  0  0  0
 72144  1  0  0  0
 73 75  1  0  0  0
 73 76  2  0  0  0
 73145  1  0  0  0
 74 75  2  0  0  0
 74 79  1  0  0  0
 75 78  1  0  0  0
 76 82  1  0  0  0
 77 80  1  0  0  0
 77 81  1  0  0  0
 77 83  2  0  0  0
 78146  1  0  0  0
 78147  1  0  0  0
 78148  1  0  0  0
 79 80  1  0  0  0
 79149  1  0  0  0
 79150  1  0  0  0
 80151  1  0  0  0
 80152  1  0  0  0
 81153  1  0  0  0
 81154  1  0  0  0
 82155  1  0  0  0
M  ISO  4   1 100  68 101  81 101  82 100
M  END
> <chiral flag>
0

> <version>
0

> <s_m_source_file>
/data/baiqing/PycharmProjects/Reinvent-master-3.2/result/LINK_invent/BTK/process_docking_weight1_custom_product_contain_oxygen_bond_distance_aromatic_linkinvent_7_9_3/rearranged_h_0126.sdf

> <i_m_source_file_index>
44

> <r_mmod_Potential_Energy-OPLS-2005>
17.9788208007812

> <r_mmod_Stretch_Energy-OPLS-2005>
70.0582809448242

> <r_mmod_Bend_Energy-OPLS-2005>
128.25260925293

> <r_mmod_Torsional_Energy-OPLS-2005>
231.685317993164

> <r_mmod_Improper_Torsional_Energy-OPLS-2005>
4.53714799880981

> <r_mmod_Van_der_Waal_Energy-OPLS-2005>
139.167221069336

> <r_mmod_Electrostatic_Energy-OPLS-2005>
-369.249572753906

> <r_mmod_Solvation_Energy-OPLS-2005>
-224.110153198242

> <b_mmod_Minimization_Converged-OPLS-2005>
0

> <r_mmod_RMS_Derivative-OPLS-2005>
2.68675065040588

$$$$
44
                    3D
 Structure written by MMmdl.
154162  0  0  1  0            999 V2000
  -30.6184  -14.6424   20.5114 C   0  0  0  0  0  0
  -30.4428  -12.3946   19.4571 C   0  0  0  0  0  0
  -29.5118  -12.5084   18.2283 C   0  0  0  0  0  0
  -28.0339  -12.3445   18.6377 C   0  0  0  0  0  0
  -27.6559  -13.2150   19.8654 C   0  0  2  0  0  0
  -28.6997  -13.0631   20.9958 C   0  0  0  0  0  0
  -25.2575  -13.8166   20.5675 C   0  0  0  0  0  0
  -24.1835  -13.0433   20.9184 C   0  0  0  0  0  0
  -24.6398  -11.6905   20.8731 C   0  0  0  0  0  0
  -23.9065  -10.4287   21.0400 C   0  0  0  0  0  0
  -24.3616   -9.4206   21.9180 C   0  0  0  0  0  0
  -23.6289   -8.2243   22.0755 C   0  0  0  0  0  0
  -22.4273   -8.0279   21.3546 C   0  0  0  0  0  0
  -21.9907   -9.0251   20.4648 C   0  0  0  0  0  0
  -22.7236  -10.2128   20.3052 C   0  0  0  0  0  0
  -21.6851   -6.0733   22.5277 C   0  0  0  0  0  0
  -21.4014   -6.5639   23.8212 C   0  0  0  0  0  0
  -21.3660   -5.6794   24.9176 C   0  0  0  0  0  0
  -21.6044   -4.3058   24.7227 C   0  0  0  0  0  0
  -21.8819   -3.8146   23.4350 C   0  0  0  0  0  0
  -21.9193   -4.6961   22.3404 C   0  0  0  0  0  0
  -22.7856  -13.5230   21.1844 C   0  0  0  0  0  0
  -22.1661   -4.2145   21.0982 F   0  0  0  0  0  0
  -21.5628   -3.4541   25.7743 F   0  0  0  0  0  0
  -30.0173  -13.4119   20.4389 N   0  0  0  0  0  0
  -26.3002  -12.9340   20.3316 N   0  0  0  0  0  0
  -25.9330  -11.6496   20.5753 N   0  0  0  0  0  0
  -22.0502  -12.8221   22.0403 N   0  0  0  0  0  0
  -25.4286  -15.1885   20.4079 N   0  0  0  0  0  0
  -31.7696  -14.8178   20.1008 O   0  0  0  0  0  0
  -21.6639   -6.8875   21.4240 O   0  0  0  0  0  0
  -22.3539  -14.5535   20.6694 O   0  0  0  0  0  0
  -24.6253  -31.8612   23.2048 C   0  0  0  0  0  0
  -25.9111  -32.4788   23.8365 C   0  0  1  0  0  0
  -27.2209  -27.3243   20.1078 C   0  0  0  0  0  0
  -25.5928  -33.8585   24.2292 N   0  0  0  0  0  0
  -23.4175  -30.4879   21.5470 C   0  0  2  0  0  0
  -24.8632  -28.9477   20.1098 C   0  0  0  0  0  0
  -22.7474  -29.4640   22.4937 C   0  0  0  0  0  0
  -18.0285  -28.1389   22.8485 C   0  0  0  0  0  0
  -24.1493  -36.7294   23.2640 C   0  0  0  0  0  0
  -25.9597  -30.7948   21.3742 C   0  0  0  0  0  0
  -26.0337  -29.4232   20.7142 C   0  0  0  0  0  0
  -27.2156  -28.6232   20.7043 C   0  0  0  0  0  0
  -26.0237  -26.9045   19.4799 C   0  0  0  0  0  0
  -24.8596  -27.6930   19.4857 C   0  0  0  0  0  0
  -23.6322  -29.8285   20.1609 C   0  0  0  0  0  0
  -25.4117  -36.3089   24.0331 C   0  0  1  0  0  0
  -20.5884  -28.3691   23.1284 C   0  0  2  0  0  0
  -20.6778  -26.9413   22.5409 C   0  0  0  0  0  0
  -19.5756  -26.6389   21.5209 C   0  0  0  0  0  0
  -18.1932  -26.7938   22.1619 C   0  0  0  0  0  0
  -19.1541  -28.8856   23.2882 C   0  0  0  0  0  0
  -18.9466  -30.1458   23.8903 C   0  0  0  0  0  0
  -17.6465  -30.6595   24.0566 C   0  0  0  0  0  0
  -25.9049  -34.9456   23.5110 C   0  0  0  0  0  0
  -16.5357  -29.9094   23.6327 C   0  0  0  0  0  0
  -16.7273  -28.6512   23.0349 C   0  0  0  0  0  0
  -26.4502  -31.6587   25.0726 C   0  0  0  0  0  0
  -25.3732  -31.3726   26.1451 C   0  0  0  0  0  0
  -27.0332  -30.3012   24.6156 C   0  0  0  0  0  0
  -27.6079  -32.4307   25.7486 C   0  0  0  0  0  0
  -27.5580  -37.1803   24.8467 C   0  0  0  0  0  0
  -21.4184  -29.3054   22.3684 N   0  0  0  0  0  0
  -26.4294  -37.3777   23.9410 N   0  0  0  0  0  0
  -24.6864  -31.0642   22.0988 N   0  0  0  0  0  0
  -23.4207  -28.8165   23.3000 O   0  0  0  0  0  0
  -28.3368  -26.4705   20.1582 O   0  0  0  0  0  0
  -26.5617  -34.8916   22.4674 O   0  0  0  0  0  0
  -23.5420  -32.1417   23.7379 O   0  0  0  0  0  0
  -28.8441  -17.9074   21.4063 C   0  0  0  0  0  0
  -30.8622  -17.8736   20.1082 C   0  0  0  0  0  0
  -28.8026  -19.3362   21.3564 C   0  0  0  0  0  0
  -29.8717  -17.1316   20.8035 C   0  0  0  0  0  0
  -29.7920  -20.0778   20.6429 C   0  0  0  0  0  0
  -30.8208  -19.2998   20.0357 C   0  0  0  0  0  0
  -27.7185  -20.0367   22.1569 C   0  0  0  0  0  0
  -29.2175  -23.9608   20.3709 C   0  0  0  0  0  0
  -28.0998  -25.0179   19.9787 C   0  0  0  0  0  0
  -28.8535  -22.4121   20.2289 C   0  0  0  0  0  0
  -29.8150  -15.6703   20.9337 N   0  0  0  0  0  0
  -29.9178  -21.4878   20.6336 O   0  0  0  0  0  0
  -31.8159  -19.9411   19.3757 F   0  0  0  0  0  0
  -31.4840  -12.5223   19.1560 H   0  0  0  0  0  0
  -30.3809  -11.3982   19.8969 H   0  0  0  0  0  0
  -29.7784  -11.7571   17.4833 H   0  0  0  0  0  0
  -29.6539  -13.4781   17.7482 H   0  0  0  0  0  0
  -27.8708  -11.2910   18.8681 H   0  0  0  0  0  0
  -27.3810  -12.5745   17.7951 H   0  0  0  0  0  0
  -27.6761  -14.2515   19.5273 H   0  0  0  0  0  0
  -28.7115  -12.0378   21.3692 H   0  0  0  0  0  0
  -28.4399  -13.6842   21.8547 H   0  0  0  0  0  0
  -25.2760   -9.5681   22.4756 H   0  0  0  0  0  0
  -23.9998   -7.4634   22.7476 H   0  0  0  0  0  0
  -21.0840   -8.8764   19.8955 H   0  0  0  0  0  0
  -22.3691  -10.9665   19.6161 H   0  0  0  0  0  0
  -21.2008   -7.6147   23.9711 H   0  0  0  0  0  0
  -21.1482   -6.0527   25.9078 H   0  0  0  0  0  0
  -22.0599   -2.7606   23.2852 H   0  0  0  0  0  0
  -22.4120  -11.9884   22.4790 H   0  0  0  0  0  0
  -21.1119  -13.1240   22.2612 H   0  0  0  0  0  0
  -24.6574  -15.8402   20.5070 H   0  0  0  0  0  0
  -26.2723  -15.6249   20.0578 H   0  0  0  0  0  0
  -26.7172  -32.5473   23.1110 H   0  0  0  0  0  0
  -25.0078  -33.9738   25.0439 H   0  0  0  0  0  0
  -22.7102  -31.3076   21.4074 H   0  0  0  0  0  0
  -23.3752  -35.9632   23.3307 H   0  0  0  0  0  0
  -24.3583  -36.8913   22.2054 H   0  0  0  0  0  0
  -23.7250  -37.6499   23.6659 H   0  0  0  0  0  0
  -26.0873  -31.5590   20.6064 H   0  0  0  0  0  0
  -26.8418  -30.8455   22.0006 H   0  0  0  0  0  0
  -28.1124  -28.9843   21.1883 H   0  0  0  0  0  0
  -25.9501  -25.9495   18.9834 H   0  0  0  0  0  0
  -23.9626  -27.3232   19.0093 H   0  0  0  0  0  0
  -23.7532  -30.6090   19.4086 H   0  0  0  0  0  0
  -22.7517  -29.2614   19.8550 H   0  0  0  0  0  0
  -25.1291  -36.1943   25.0824 H   0  0  0  0  0  0
  -20.9975  -28.3268   24.1406 H   0  0  0  0  0  0
  -20.5683  -26.2298   23.3609 H   0  0  0  0  0  0
  -21.6645  -26.7455   22.1195 H   0  0  0  0  0  0
  -19.6915  -25.6298   21.1241 H   0  0  0  0  0  0
  -19.6695  -27.3201   20.6744 H   0  0  0  0  0  0
  -17.4199  -26.6684   21.4020 H   0  0  0  0  0  0
  -18.0326  -26.0078   22.9019 H   0  0  0  0  0  0
  -19.7945  -30.7262   24.2279 H   0  0  0  0  0  0
  -17.5031  -31.6277   24.5163 H   0  0  0  0  0  0
  -15.5359  -30.3006   23.7657 H   0  0  0  0  0  0
  -15.8671  -28.0842   22.7060 H   0  0  0  0  0  0
  -24.5922  -30.7055   25.7782 H   0  0  0  0  0  0
  -24.8897  -32.2891   26.4846 H   0  0  0  0  0  0
  -25.8058  -30.8929   27.0241 H   0  0  0  0  0  0
  -26.2889  -29.6762   24.1206 H   0  0  0  0  0  0
  -27.4070  -29.7272   25.4645 H   0  0  0  0  0  0
  -27.8749  -30.4306   23.9348 H   0  0  0  0  0  0
  -27.2724  -33.3634   26.2032 H   0  0  0  0  0  0
  -28.3907  -32.6813   25.0314 H   0  0  0  0  0  0
  -28.0719  -31.8433   26.5421 H   0  0  0  0  0  0
  -28.2600  -38.0098   24.7499 H   0  0  0  0  0  0
  -28.1070  -36.2622   24.6306 H   0  0  0  0  0  0
  -27.2289  -37.1464   25.8870 H   0  0  0  0  0  0
  -20.9350  -29.8797   21.6920 H   0  0  0  0  0  0
  -26.0174  -38.2851   24.1420 H   0  0  0  0  0  0
  -28.0697  -17.3925   21.9593 H   0  0  0  0  0  0
  -31.6789  -17.3630   19.6218 H   0  0  0  0  0  0
  -27.3366  -19.3917   22.9490 H   0  0  0  0  0  0
  -26.8783  -20.3104   21.5183 H   0  0  0  0  0  0
  -28.1065  -20.9335   22.6409 H   0  0  0  0  0  0
  -29.5097  -24.1451   21.4038 H   0  0  0  0  0  0
  -30.1060  -24.1618   19.7719 H   0  0  0  0  0  0
  -27.8553  -24.8472   18.9294 H   0  0  0  0  0  0
  -27.2095  -24.7487   20.5500 H   0  0  0  0  0  0
  -28.6086  -22.2003   19.1877 H   0  0  0  0  0  0
  -27.9414  -22.2317   20.7905 H   0  0  0  0  0  0
  -28.9525  -15.3265   21.3274 H   0  0  0  0  0  0
  1 25  1  0  0  0
  1 30  2  0  0  0
  1 81  1  0  0  0
  2  3  1  0  0  0
  2 25  1  0  0  0
  2 84  1  0  0  0
  2 85  1  0  0  0
  3  4  1  0  0  0
  3 86  1  0  0  0
  3 87  1  0  0  0
  4  5  1  0  0  0
  4 88  1  0  0  0
  4 89  1  0  0  0
  5  6  1  0  0  0
  5 26  1  0  0  0
  5 90  1  0  0  0
  6 25  1  0  0  0
  6 91  1  0  0  0
  6 92  1  0  0  0
  7  8  2  0  0  0
  7 26  1  0  0  0
  7 29  1  0  0  0
  8  9  1  0  0  0
  8 22  1  0  0  0
  9 10  1  0  0  0
  9 27  2  0  0  0
 10 11  2  0  0  0
 10 15  1  0  0  0
 11 12  1  0  0  0
 11 93  1  0  0  0
 12 13  2  0  0  0
 12 94  1  0  0  0
 13 14  1  0  0  0
 13 31  1  0  0  0
 14 15  2  0  0  0
 14 95  1  0  0  0
 15 96  1  0  0  0
 16 17  2  0  0  0
 16 21  1  0  0  0
 16 31  1  0  0  0
 17 18  1  0  0  0
 17 97  1  0  0  0
 18 19  2  0  0  0
 18 98  1  0  0  0
 19 20  1  0  0  0
 19 24  1  0  0  0
 20 21  2  0  0  0
 20 99  1  0  0  0
 21 23  1  0  0  0
 22 28  1  0  0  0
 22 32  2  0  0  0
 26 27  1  0  0  0
 28100  1  0  0  0
 28101  1  0  0  0
 29102  1  0  0  0
 29103  1  0  0  0
 33 34  1  0  0  0
 33 66  1  0  0  0
 33 70  2  0  0  0
 34 36  1  0  0  0
 34 59  1  0  0  0
 34104  1  0  0  0
 35 44  2  0  0  0
 35 45  1  0  0  0
 35 68  1  0  0  0
 36 56  1  0  0  0
 36105  1  0  0  0
 37 39  1  0  0  0
 37 47  1  0  0  0
 37 66  1  0  0  0
 37106  1  0  0  0
 38 43  2  0  0  0
 38 46  1  0  0  0
 38 47  1  0  0  0
 39 64  1  0  0  0
 39 67  2  0  0  0
 40 52  1  0  0  0
 40 53  2  0  0  0
 40 58  1  0  0  0
 41107  1  0  0  0
 41108  1  0  0  0
 41109  1  0  0  0
 41 48  1  0  0  0
 42 43  1  0  0  0
 42 66  1  0  0  0
 42110  1  0  0  0
 42111  1  0  0  0
 43 44  1  0  0  0
 44112  1  0  0  0
 45 46  2  0  0  0
 45113  1  0  0  0
 46114  1  0  0  0
 47115  1  0  0  0
 47116  1  0  0  0
 48 56  1  0  0  0
 48 65  1  0  0  0
 48117  1  0  0  0
 49 50  1  0  0  0
 49 53  1  0  0  0
 49 64  1  0  0  0
 49118  1  0  0  0
 50 51  1  0  0  0
 50119  1  0  0  0
 50120  1  0  0  0
 51 52  1  0  0  0
 51121  1  0  0  0
 51122  1  0  0  0
 52123  1  0  0  0
 52124  1  0  0  0
 53 54  1  0  0  0
 54 55  2  0  0  0
 54125  1  0  0  0
 55 57  1  0  0  0
 55126  1  0  0  0
 56 69  2  0  0  0
 57 58  2  0  0  0
 57127  1  0  0  0
 58128  1  0  0  0
 59 60  1  0  0  0
 59 61  1  0  0  0
 59 62  1  0  0  0
 60129  1  0  0  0
 60130  1  0  0  0
 60131  1  0  0  0
 61132  1  0  0  0
 61133  1  0  0  0
 61134  1  0  0  0
 62135  1  0  0  0
 62136  1  0  0  0
 62137  1  0  0  0
 63 65  1  0  0  0
 63138  1  0  0  0
 63139  1  0  0  0
 63140  1  0  0  0
 64141  1  0  0  0
 65142  1  0  0  0
 68 79  1  0  0  0
 71 73  2  0  0  0
 71 74  1  0  0  0
 71143  1  0  0  0
 72 74  2  0  0  0
 72 76  1  0  0  0
 72144  1  0  0  0
 73 75  1  0  0  0
 73 77  1  0  0  0
 74 81  1  0  0  0
 75 76  2  0  0  0
 75 82  1  0  0  0
 76 83  1  0  0  0
 77145  1  0  0  0
 77146  1  0  0  0
 77147  1  0  0  0
 78 79  1  0  0  0
 78 80  1  0  0  0
 78148  1  0  0  0
 78149  1  0  0  0
 79150  1  0  0  0
 79151  1  0  0  0
 80 82  1  0  0  0
 80152  1  0  0  0
 80153  1  0  0  0
 81154  1  0  0  0
M  ISO  4   1 100  68 101  79 101  81 100
M  END
> <chiral flag>
0

> <version>
0

> <s_m_source_file>
/data/baiqing/PycharmProjects/Reinvent-master-3.2/result/LINK_invent/BTK/process_docking_weight1_custom_product_contain_oxygen_bond_distance_aromatic_linkinvent_7_9_3/rearranged_h_0126.sdf

> <i_m_source_file_index>
45

> <r_mmod_Potential_Energy-OPLS-2005>
97.6240081787109

> <r_mmod_Stretch_Energy-OPLS-2005>
80.2969284057617

> <r_mmod_Bend_Energy-OPLS-2005>
147.787628173828

> <r_mmod_Torsional_Energy-OPLS-2005>
227.492523193359

> <r_mmod_Improper_Torsional_Energy-OPLS-2005>
4.35130310058594

> <r_mmod_Van_der_Waal_Energy-OPLS-2005>
146.465698242188

> <r_mmod_Electrostatic_Energy-OPLS-2005>
-345.383575439453

> <r_mmod_Solvation_Energy-OPLS-2005>
-211.436828613281

> <b_mmod_Minimization_Converged-OPLS-2005>
0

> <r_mmod_RMS_Derivative-OPLS-2005>
1.16711008548737

$$$$
45
                    3D
 Structure written by MMmdl.
153161  0  0  1  0            999 V2000
  -30.6292  -14.6630   20.4932 C   0  0  0  0  0  0
  -30.4434  -12.4069   19.4579 C   0  0  0  0  0  0
  -29.5130  -12.5084   18.2286 C   0  0  0  0  0  0
  -28.0364  -12.3389   18.6420 C   0  0  0  0  0  0
  -27.6520  -13.2171   19.8624 C   0  0  2  0  0  0
  -28.7008  -13.0920   20.9916 C   0  0  0  0  0  0
  -25.2455  -13.8039   20.5551 C   0  0  0  0  0  0
  -24.1788  -13.0342   20.9215 C   0  0  0  0  0  0
  -24.6406  -11.6841   20.8790 C   0  0  0  0  0  0
  -23.9070  -10.4244   21.0439 C   0  0  0  0  0  0
  -24.3613   -9.4158   21.9210 C   0  0  0  0  0  0
  -23.6278   -8.2204   22.0761 C   0  0  0  0  0  0
  -22.4260   -8.0261   21.3543 C   0  0  0  0  0  0
  -21.9900   -9.0239   20.4649 C   0  0  0  0  0  0
  -22.7243  -10.2114   20.3073 C   0  0  0  0  0  0
  -21.6842   -6.0727   22.5281 C   0  0  0  0  0  0
  -21.4015   -6.5638   23.8213 C   0  0  0  0  0  0
  -21.3652   -5.6786   24.9173 C   0  0  0  0  0  0
  -21.6041   -4.3046   24.7223 C   0  0  0  0  0  0
  -21.8821   -3.8137   23.4343 C   0  0  0  0  0  0
  -21.9188   -4.6957   22.3400 C   0  0  0  0  0  0
  -22.7816  -13.5164   21.1846 C   0  0  0  0  0  0
  -22.1656   -4.2145   21.0978 F   0  0  0  0  0  0
  -21.5615   -3.4531   25.7730 F   0  0  0  0  0  0
  -30.0144  -13.4373   20.4249 N   0  0  0  0  0  0
  -26.2974  -12.9302   20.3306 N   0  0  0  0  0  0
  -25.9347  -11.6462   20.5827 N   0  0  0  0  0  0
  -22.0439  -12.8198   22.0423 N   0  0  0  0  0  0
  -25.3915  -15.1686   20.3640 N   0  0  0  0  0  0
  -31.7987  -14.8071   20.1285 O   0  0  0  0  0  0
  -21.6619   -6.8863   21.4238 O   0  0  0  0  0  0
  -22.3526  -14.5472   20.6671 O   0  0  0  0  0  0
  -24.6250  -31.8615   23.2044 C   0  0  0  0  0  0
  -25.9103  -32.4788   23.8380 C   0  0  1  0  0  0
  -27.2303  -27.3370   20.1048 C   0  0  0  0  0  0
  -25.5923  -33.8585   24.2307 N   0  0  0  0  0  0
  -23.4187  -30.4854   21.5477 C   0  0  2  0  0  0
  -24.8655  -28.9462   20.1126 C   0  0  0  0  0  0
  -22.7475  -29.4616   22.4941 C   0  0  0  0  0  0
  -18.0293  -28.1381   22.8485 C   0  0  0  0  0  0
  -24.1490  -36.7297   23.2630 C   0  0  0  0  0  0
  -25.9597  -30.7972   21.3747 C   0  0  0  0  0  0
  -26.0349  -29.4269   20.7144 C   0  0  0  0  0  0
  -27.2201  -28.6340   20.7018 C   0  0  0  0  0  0
  -26.0311  -26.9046   19.4871 C   0  0  0  0  0  0
  -24.8641  -27.6886   19.4922 C   0  0  0  0  0  0
  -23.6336  -29.8246   20.1615 C   0  0  0  0  0  0
  -25.4101  -36.3079   24.0336 C   0  0  1  0  0  0
  -20.5889  -28.3682   23.1277 C   0  0  2  0  0  0
  -20.6781  -26.9406   22.5401 C   0  0  0  0  0  0
  -19.5755  -26.6378   21.5204 C   0  0  0  0  0  0
  -18.1939  -26.7923   22.1622 C   0  0  0  0  0  0
  -19.1545  -28.8849   23.2877 C   0  0  0  0  0  0
  -18.9467  -30.1447   23.8901 C   0  0  0  0  0  0
  -17.6465  -30.6578   24.0559 C   0  0  0  0  0  0
  -25.9045  -34.9453   23.5121 C   0  0  0  0  0  0
  -16.5358  -29.9076   23.6323 C   0  0  0  0  0  0
  -16.7280  -28.6495   23.0350 C   0  0  0  0  0  0
  -26.4497  -31.6587   25.0738 C   0  0  0  0  0  0
  -25.3741  -31.3733   26.1481 C   0  0  0  0  0  0
  -27.0324  -30.3011   24.6174 C   0  0  0  0  0  0
  -27.6087  -32.4300   25.7477 C   0  0  0  0  0  0
  -27.5597  -37.1765   24.8439 C   0  0  0  0  0  0
  -21.4191  -29.3038   22.3679 N   0  0  0  0  0  0
  -26.4271  -37.3782   23.9444 N   0  0  0  0  0  0
  -24.6869  -31.0630   22.0997 N   0  0  0  0  0  0
  -23.4204  -28.8155   23.3013 O   0  0  0  0  0  0
  -28.3566  -26.5005   20.1376 O   0  0  0  0  0  0
  -26.5608  -34.8911   22.4683 O   0  0  0  0  0  0
  -23.5415  -32.1414   23.7375 O   0  0  0  0  0  0
  -31.1796  -19.3136   20.3211 C   0  0  0  0  0  0
  -31.1422  -17.8879   20.4226 C   0  0  0  0  0  0
  -28.8276  -19.4312   20.7316 C   0  0  0  0  0  0
  -30.0265  -20.1322   20.4767 C   0  0  0  0  0  0
  -28.7795  -18.0106   20.8490 C   0  0  0  0  0  0
  -29.9368  -17.1840   20.6885 C   0  0  0  0  0  0
  -30.1043  -21.6476   20.3638 C   0  0  0  0  0  0
  -29.1043  -22.5862   20.2914 C   0  0  0  0  0  0
  -29.3302  -24.0878   20.2145 C   0  0  0  0  0  0
  -27.4191  -17.4115   21.1222 C   0  0  0  0  0  0
  -28.1147  -25.0521   19.9606 C   0  0  0  0  0  0
  -29.8159  -15.7231   20.8124 N   0  0  0  0  0  0
  -30.4574  -24.5813   20.3318 O   0  0  0  0  0  0
  -31.4839  -12.5347   19.1541 H   0  0  0  0  0  0
  -30.3838  -11.4160   19.9109 H   0  0  0  0  0  0
  -29.7817  -11.7509   17.4900 H   0  0  0  0  0  0
  -29.6496  -13.4746   17.7415 H   0  0  0  0  0  0
  -27.8831  -11.2867   18.8848 H   0  0  0  0  0  0
  -27.3816  -12.5537   17.7968 H   0  0  0  0  0  0
  -27.6613  -14.2492   19.5126 H   0  0  0  0  0  0
  -28.7194  -12.0752   21.3872 H   0  0  0  0  0  0
  -28.4460  -13.7354   21.8348 H   0  0  0  0  0  0
  -25.2764   -9.5622   22.4786 H   0  0  0  0  0  0
  -23.9966   -7.4590   22.7488 H   0  0  0  0  0  0
  -21.0823   -8.8787   19.8961 H   0  0  0  0  0  0
  -22.3725  -10.9661   19.6183 H   0  0  0  0  0  0
  -21.2026   -7.6149   23.9718 H   0  0  0  0  0  0
  -21.1463   -6.0515   25.9074 H   0  0  0  0  0  0
  -22.0610   -2.7594   23.2852 H   0  0  0  0  0  0
  -22.4033  -11.9881   22.4850 H   0  0  0  0  0  0
  -21.1062  -13.1274   22.2606 H   0  0  0  0  0  0
  -24.5903  -15.7890   20.4051 H   0  0  0  0  0  0
  -26.1819  -15.5720   19.8805 H   0  0  0  0  0  0
  -26.7177  -32.5467   23.1139 H   0  0  0  0  0  0
  -25.0075  -33.9743   25.0454 H   0  0  0  0  0  0
  -22.7116  -31.3050   21.4068 H   0  0  0  0  0  0
  -23.3764  -35.9611   23.3214 H   0  0  0  0  0  0
  -24.3621  -36.8993   22.2064 H   0  0  0  0  0  0
  -23.7209  -37.6462   23.6697 H   0  0  0  0  0  0
  -26.0905  -31.5632   20.6090 H   0  0  0  0  0  0
  -26.8398  -30.8450   22.0044 H   0  0  0  0  0  0
  -28.1182  -28.9993   21.1811 H   0  0  0  0  0  0
  -25.9605  -25.9477   18.9925 H   0  0  0  0  0  0
  -23.9677  -27.3143   19.0166 H   0  0  0  0  0  0
  -23.7544  -30.6049   19.4091 H   0  0  0  0  0  0
  -22.7546  -29.2556   19.8547 H   0  0  0  0  0  0
  -25.1261  -36.1926   25.0822 H   0  0  0  0  0  0
  -20.9984  -28.3259   24.1392 H   0  0  0  0  0  0
  -20.5671  -26.2298   23.3601 H   0  0  0  0  0  0
  -21.6648  -26.7430   22.1199 H   0  0  0  0  0  0
  -19.6911  -25.6284   21.1234 H   0  0  0  0  0  0
  -19.6684  -27.3185   20.6728 H   0  0  0  0  0  0
  -17.4202  -26.6662   21.4033 H   0  0  0  0  0  0
  -18.0344  -26.0064   22.9019 H   0  0  0  0  0  0
  -19.7941  -30.7260   24.2276 H   0  0  0  0  0  0
  -17.5017  -31.6258   24.5161 H   0  0  0  0  0  0
  -15.5356  -30.2981   23.7627 H   0  0  0  0  0  0
  -15.8684  -28.0798   22.7069 H   0  0  0  0  0  0
  -24.5884  -30.7117   25.7813 H   0  0  0  0  0  0
  -24.8973  -32.2908   26.4945 H   0  0  0  0  0  0
  -25.8063  -30.8872   27.0236 H   0  0  0  0  0  0
  -26.2886  -29.6756   24.1226 H   0  0  0  0  0  0
  -27.4064  -29.7272   25.4662 H   0  0  0  0  0  0
  -27.8742  -30.4305   23.9369 H   0  0  0  0  0  0
  -27.2745  -33.3613   26.2058 H   0  0  0  0  0  0
  -28.3878  -32.6827   25.0273 H   0  0  0  0  0  0
  -28.0772  -31.8418   26.5376 H   0  0  0  0  0  0
  -28.2510  -38.0164   24.7631 H   0  0  0  0  0  0
  -28.1194  -36.2710   24.6053 H   0  0  0  0  0  0
  -27.2354  -37.1153   25.8841 H   0  0  0  0  0  0
  -20.9369  -29.8793   21.6917 H   0  0  0  0  0  0
  -26.0143  -38.2831   24.1539 H   0  0  0  0  0  0
  -32.1294  -19.7879   20.1184 H   0  0  0  0  0  0
  -32.0672  -17.3447   20.2946 H   0  0  0  0  0  0
  -27.9144  -19.9953   20.8568 H   0  0  0  0  0  0
  -31.1151  -22.0329   20.3562 H   0  0  0  0  0  0
  -28.0747  -22.2629   20.2877 H   0  0  0  0  0  0
  -26.7962  -18.0924   21.7046 H   0  0  0  0  0  0
  -27.4737  -16.4721   21.6712 H   0  0  0  0  0  0
  -26.9231  -17.2517   20.1663 H   0  0  0  0  0  0
  -27.3010  -24.7410   20.6170 H   0  0  0  0  0  0
  -27.7861  -24.8747   18.9363 H   0  0  0  0  0  0
  -28.8941  -15.4155   21.0782 H   0  0  0  0  0  0
  1 25  1  0  0  0
  1 30  2  0  0  0
  1 82  1  0  0  0
  2  3  1  0  0  0
  2 25  1  0  0  0
  2 84  1  0  0  0
  2 85  1  0  0  0
  3  4  1  0  0  0
  3 86  1  0  0  0
  3 87  1  0  0  0
  4  5  1  0  0  0
  4 88  1  0  0  0
  4 89  1  0  0  0
  5  6  1  0  0  0
  5 26  1  0  0  0
  5 90  1  0  0  0
  6 25  1  0  0  0
  6 91  1  0  0  0
  6 92  1  0  0  0
  7  8  2  0  0  0
  7 26  1  0  0  0
  7 29  1  0  0  0
  8  9  1  0  0  0
  8 22  1  0  0  0
  9 10  1  0  0  0
  9 27  2  0  0  0
 10 11  2  0  0  0
 10 15  1  0  0  0
 11 12  1  0  0  0
 11 93  1  0  0  0
 12 13  2  0  0  0
 12 94  1  0  0  0
 13 14  1  0  0  0
 13 31  1  0  0  0
 14 15  2  0  0  0
 14 95  1  0  0  0
 15 96  1  0  0  0
 16 17  2  0  0  0
 16 21  1  0  0  0
 16 31  1  0  0  0
 17 18  1  0  0  0
 17 97  1  0  0  0
 18 19  2  0  0  0
 18 98  1  0  0  0
 19 20  1  0  0  0
 19 24  1  0  0  0
 20 21  2  0  0  0
 20 99  1  0  0  0
 21 23  1  0  0  0
 22 28  1  0  0  0
 22 32  2  0  0  0
 26 27  1  0  0  0
 28100  1  0  0  0
 28101  1  0  0  0
 29102  1  0  0  0
 29103  1  0  0  0
 33 34  1  0  0  0
 33 66  1  0  0  0
 33 70  2  0  0  0
 34 36  1  0  0  0
 34 59  1  0  0  0
 34104  1  0  0  0
 35 44  2  0  0  0
 35 45  1  0  0  0
 35 68  1  0  0  0
 36 56  1  0  0  0
 36105  1  0  0  0
 37 39  1  0  0  0
 37 47  1  0  0  0
 37 66  1  0  0  0
 37106  1  0  0  0
 38 43  2  0  0  0
 38 46  1  0  0  0
 38 47  1  0  0  0
 39 64  1  0  0  0
 39 67  2  0  0  0
 40 52  1  0  0  0
 40 53  2  0  0  0
 40 58  1  0  0  0
 41107  1  0  0  0
 41108  1  0  0  0
 41109  1  0  0  0
 41 48  1  0  0  0
 42 43  1  0  0  0
 42 66  1  0  0  0
 42110  1  0  0  0
 42111  1  0  0  0
 43 44  1  0  0  0
 44112  1  0  0  0
 45 46  2  0  0  0
 45113  1  0  0  0
 46114  1  0  0  0
 47115  1  0  0  0
 47116  1  0  0  0
 48 56  1  0  0  0
 48 65  1  0  0  0
 48117  1  0  0  0
 49 50  1  0  0  0
 49 53  1  0  0  0
 49 64  1  0  0  0
 49118  1  0  0  0
 50 51  1  0  0  0
 50119  1  0  0  0
 50120  1  0  0  0
 51 52  1  0  0  0
 51121  1  0  0  0
 51122  1  0  0  0
 52123  1  0  0  0
 52124  1  0  0  0
 53 54  1  0  0  0
 54 55  2  0  0  0
 54125  1  0  0  0
 55 57  1  0  0  0
 55126  1  0  0  0
 56 69  2  0  0  0
 57 58  2  0  0  0
 57127  1  0  0  0
 58128  1  0  0  0
 59 60  1  0  0  0
 59 61  1  0  0  0
 59 62  1  0  0  0
 60129  1  0  0  0
 60130  1  0  0  0
 60131  1  0  0  0
 61132  1  0  0  0
 61133  1  0  0  0
 61134  1  0  0  0
 62135  1  0  0  0
 62136  1  0  0  0
 62137  1  0  0  0
 63 65  1  0  0  0
 63138  1  0  0  0
 63139  1  0  0  0
 63140  1  0  0  0
 64141  1  0  0  0
 65142  1  0  0  0
 68 81  1  0  0  0
 71 72  2  0  0  0
 71 74  1  0  0  0
 71143  1  0  0  0
 72 76  1  0  0  0
 72144  1  0  0  0
 73 74  2  0  0  0
 73 75  1  0  0  0
 73145  1  0  0  0
 74 77  1  0  0  0
 75 76  2  0  0  0
 75 80  1  0  0  0
 76 82  1  0  0  0
 77 78  2  0  0  0
 77146  1  0  0  0
 78 79  1  0  0  0
 78147  1  0  0  0
 79 81  1  0  0  0
 79 83  2  0  0  0
 80148  1  0  0  0
 80149  1  0  0  0
 80150  1  0  0  0
 81151  1  0  0  0
 81152  1  0  0  0
 82153  1  0  0  0
M  ISO  4   1 100  68 101  81 101  82 100
M  END
> <chiral flag>
0

> <version>
0

> <s_m_source_file>
/data/baiqing/PycharmProjects/Reinvent-master-3.2/result/LINK_invent/BTK/process_docking_weight1_custom_product_contain_oxygen_bond_distance_aromatic_linkinvent_7_9_3/rearranged_h_0126.sdf

> <i_m_source_file_index>
46

> <r_mmod_Potential_Energy-OPLS-2005>
17.3762893676758

> <r_mmod_Stretch_Energy-OPLS-2005>
76.2647705078125

> <r_mmod_Bend_Energy-OPLS-2005>
128.889190673828

> <r_mmod_Torsional_Energy-OPLS-2005>
209.611755371094

> <r_mmod_Improper_Torsional_Energy-OPLS-2005>
5.33827304840088

> <r_mmod_Van_der_Waal_Energy-OPLS-2005>
150.311431884766

> <r_mmod_Electrostatic_Energy-OPLS-2005>
-373.359924316406

> <r_mmod_Solvation_Energy-OPLS-2005>
-228.910049438477

> <b_mmod_Minimization_Converged-OPLS-2005>
0

> <r_mmod_RMS_Derivative-OPLS-2005>
1.88998234272003

$$$$
46
                    3D
 Structure written by MMmdl.
150158  0  0  1  0            999 V2000
  -30.6262  -14.7174   20.4564 C   0  0  0  0  0  0
  -30.4209  -12.4362   19.4747 C   0  0  0  0  0  0
  -29.5036  -12.5295   18.2350 C   0  0  0  0  0  0
  -28.0300  -12.3495   18.6443 C   0  0  0  0  0  0
  -27.6430  -13.2368   19.8580 C   0  0  2  0  0  0
  -28.6861  -13.1549   20.9956 C   0  0  0  0  0  0
  -25.2494  -13.8210   20.5689 C   0  0  0  0  0  0
  -24.1788  -13.0446   20.9188 C   0  0  0  0  0  0
  -24.6382  -11.6924   20.8727 C   0  0  0  0  0  0
  -23.9067  -10.4292   21.0383 C   0  0  0  0  0  0
  -24.3614   -9.4213   21.9167 C   0  0  0  0  0  0
  -23.6282   -8.2253   22.0747 C   0  0  0  0  0  0
  -22.4256   -8.0291   21.3556 C   0  0  0  0  0  0
  -21.9900   -9.0257   20.4641 C   0  0  0  0  0  0
  -22.7233  -10.2129   20.3042 C   0  0  0  0  0  0
  -21.6854   -6.0729   22.5274 C   0  0  0  0  0  0
  -21.4026   -6.5633   23.8209 C   0  0  0  0  0  0
  -21.3664   -5.6784   24.9173 C   0  0  0  0  0  0
  -21.6047   -4.3051   24.7225 C   0  0  0  0  0  0
  -21.8819   -3.8141   23.4348 C   0  0  0  0  0  0
  -21.9196   -4.6956   22.3400 C   0  0  0  0  0  0
  -22.7812  -13.5216   21.1861 C   0  0  0  0  0  0
  -22.1648   -4.2139   21.0975 F   0  0  0  0  0  0
  -21.5632   -3.4537   25.7740 F   0  0  0  0  0  0
  -29.9975  -13.4915   20.4258 N   0  0  0  0  0  0
  -26.2940  -12.9428   20.3314 N   0  0  0  0  0  0
  -25.9319  -11.6555   20.5744 N   0  0  0  0  0  0
  -22.0466  -12.8192   22.0409 N   0  0  0  0  0  0
  -25.4179  -15.1936   20.4102 N   0  0  0  0  0  0
  -31.7928  -14.8166   20.0673 O   0  0  0  0  0  0
  -21.6645   -6.8874   21.4236 O   0  0  0  0  0  0
  -22.3490  -14.5522   20.6713 O   0  0  0  0  0  0
  -24.6321  -31.8553   23.2006 C   0  0  0  0  0  0
  -25.9150  -32.4749   23.8343 C   0  0  1  0  0  0
  -27.2149  -27.2598   20.1194 C   0  0  0  0  0  0
  -25.5953  -33.8555   24.2264 N   0  0  0  0  0  0
  -23.4289  -30.4822   21.5413 C   0  0  2  0  0  0
  -24.8767  -28.9371   20.1055 C   0  0  0  0  0  0
  -22.7499  -29.4620   22.4877 C   0  0  0  0  0  0
  -18.0290  -28.1392   22.8461 C   0  0  0  0  0  0
  -24.1502  -36.7287   23.2636 C   0  0  0  0  0  0
  -25.9781  -30.7642   21.3882 C   0  0  0  0  0  0
  -26.0480  -29.3894   20.7268 C   0  0  0  0  0  0
  -27.2166  -28.5597   20.7320 C   0  0  0  0  0  0
  -26.0285  -26.9000   19.4370 C   0  0  0  0  0  0
  -24.8724  -27.6995   19.4517 C   0  0  0  0  0  0
  -23.6501  -29.8252   20.1550 C   0  0  0  0  0  0
  -25.4128  -36.3067   24.0321 C   0  0  1  0  0  0
  -20.5894  -28.3721   23.1242 C   0  0  2  0  0  0
  -20.6793  -26.9434   22.5397 C   0  0  0  0  0  0
  -19.5782  -26.6383   21.5193 C   0  0  0  0  0  0
  -18.1949  -26.7926   22.1595 C   0  0  0  0  0  0
  -19.1541  -28.8866   23.2851 C   0  0  0  0  0  0
  -18.9468  -30.1446   23.8905 C   0  0  0  0  0  0
  -17.6475  -30.6592   24.0555 C   0  0  0  0  0  0
  -25.9068  -34.9434   23.5094 C   0  0  0  0  0  0
  -16.5363  -29.9100   23.6317 C   0  0  0  0  0  0
  -16.7276  -28.6510   23.0349 C   0  0  0  0  0  0
  -26.4518  -31.6569   25.0728 C   0  0  0  0  0  0
  -25.3732  -31.3732   26.1439 C   0  0  0  0  0  0
  -27.0363  -30.2978   24.6235 C   0  0  0  0  0  0
  -27.6083  -32.4298   25.7501 C   0  0  0  0  0  0
  -27.5583  -37.1801   24.8456 C   0  0  0  0  0  0
  -21.4205  -29.3066   22.3624 N   0  0  0  0  0  0
  -26.4300  -37.3767   23.9398 N   0  0  0  0  0  0
  -24.6980  -31.0522   22.0988 N   0  0  0  0  0  0
  -23.4188  -28.8132   23.2961 O   0  0  0  0  0  0
  -28.2902  -26.3366   20.2113 O   0  0  0  0  0  0
  -26.5632  -34.8904   22.4656 O   0  0  0  0  0  0
  -23.5470  -32.1387   23.7301 O   0  0  0  0  0  0
  -29.6353  -18.4574   20.8593 C   0  0  0  0  0  0
  -29.8576  -19.7476   18.8052 C   0  0  0  0  0  0
  -30.2190  -17.3153   18.7966 C   0  0  0  0  0  0
  -29.6001  -19.7560   20.1929 C   0  0  0  0  0  0
  -29.9462  -17.2066   20.1798 C   0  0  0  0  0  0
  -30.1679  -18.5547   18.1244 C   0  0  0  0  0  0
  -28.7982  -22.3652   20.1357 C   0  0  0  0  0  0
  -28.7622  -23.6828   20.5787 C   0  0  0  0  0  0
  -29.3391  -21.1285   20.8852 C   0  0  0  0  0  0
  -28.0308  -24.8935   19.8648 C   0  0  0  0  0  0
  -29.8963  -15.8500   20.7866 N   0  0  0  0  0  0
  -29.5479  -21.2182   22.0984 O   0  0  0  0  0  0
  -30.4221  -18.6008   16.7949 F   0  0  0  0  0  0
  -31.4659  -12.5370   19.1765 H   0  0  0  0  0  0
  -30.3386  -11.4519   19.9366 H   0  0  0  0  0  0
  -29.7798  -11.7790   17.4937 H   0  0  0  0  0  0
  -29.6336  -13.4986   17.7509 H   0  0  0  0  0  0
  -27.8835  -11.2968   18.8886 H   0  0  0  0  0  0
  -27.3719  -12.5587   17.7994 H   0  0  0  0  0  0
  -27.6413  -14.2633   19.4911 H   0  0  0  0  0  0
  -28.7042  -12.1548   21.4307 H   0  0  0  0  0  0
  -28.4228  -13.8347   21.8077 H   0  0  0  0  0  0
  -25.2764   -9.5692   22.4736 H   0  0  0  0  0  0
  -23.9998   -7.4648   22.7462 H   0  0  0  0  0  0
  -21.0837   -8.8772   19.8941 H   0  0  0  0  0  0
  -22.3697  -10.9661   19.6142 H   0  0  0  0  0  0
  -21.2019   -7.6141   23.9718 H   0  0  0  0  0  0
  -21.1483   -6.0514   25.9077 H   0  0  0  0  0  0
  -22.0593   -2.7603   23.2855 H   0  0  0  0  0  0
  -22.4073  -11.9830   22.4770 H   0  0  0  0  0  0
  -21.1089  -13.1211   22.2633 H   0  0  0  0  0  0
  -24.6509  -15.8485   20.5177 H   0  0  0  0  0  0
  -26.2711  -15.6345   20.0898 H   0  0  0  0  0  0
  -26.7204  -32.5401   23.1069 H   0  0  0  0  0  0
  -25.0122  -33.9699   25.0421 H   0  0  0  0  0  0
  -22.7267  -31.3055   21.3958 H   0  0  0  0  0  0
  -23.3766  -35.9614   23.3283 H   0  0  0  0  0  0
  -24.3589  -36.8932   22.2052 H   0  0  0  0  0  0
  -23.7257  -37.6482   23.6675 H   0  0  0  0  0  0
  -26.1248  -31.5262   20.6214 H   0  0  0  0  0  0
  -26.8538  -30.8075   22.0237 H   0  0  0  0  0  0
  -28.1051  -28.8926   21.2498 H   0  0  0  0  0  0
  -25.9488  -25.9768   18.8842 H   0  0  0  0  0  0
  -23.9820  -27.3566   18.9431 H   0  0  0  0  0  0
  -23.7813  -30.6068   19.4059 H   0  0  0  0  0  0
  -22.7691  -29.2636   19.8401 H   0  0  0  0  0  0
  -25.1312  -36.1918   25.0816 H   0  0  0  0  0  0
  -20.9976  -28.3318   24.1368 H   0  0  0  0  0  0
  -20.5689  -26.2338   23.3609 H   0  0  0  0  0  0
  -21.6665  -26.7468   22.1195 H   0  0  0  0  0  0
  -19.6964  -25.6288   21.1243 H   0  0  0  0  0  0
  -19.6728  -27.3173   20.6705 H   0  0  0  0  0  0
  -17.4216  -26.6644   21.4002 H   0  0  0  0  0  0
  -18.0370  -26.0072   22.9000 H   0  0  0  0  0  0
  -19.7951  -30.7232   24.2309 H   0  0  0  0  0  0
  -17.5043  -31.6277   24.5152 H   0  0  0  0  0  0
  -15.5371  -30.3021   23.7644 H   0  0  0  0  0  0
  -15.8663  -28.0834   22.7091 H   0  0  0  0  0  0
  -24.5905  -30.7090   25.7755 H   0  0  0  0  0  0
  -24.8930  -32.2909   26.4846 H   0  0  0  0  0  0
  -25.8035  -30.8907   27.0222 H   0  0  0  0  0  0
  -26.2948  -29.6710   24.1266 H   0  0  0  0  0  0
  -27.4032  -29.7263   25.4769 H   0  0  0  0  0  0
  -27.8838  -30.4228   23.9492 H   0  0  0  0  0  0
  -27.2711  -33.3621   26.2039 H   0  0  0  0  0  0
  -28.3922  -32.6807   25.0342 H   0  0  0  0  0  0
  -28.0700  -31.8426   26.5445 H   0  0  0  0  0  0
  -28.2588  -38.0106   24.7504 H   0  0  0  0  0  0
  -28.1092  -36.2638   24.6286 H   0  0  0  0  0  0
  -27.2291  -37.1455   25.8853 H   0  0  0  0  0  0
  -20.9385  -29.8804   21.6848 H   0  0  0  0  0  0
  -26.0179  -38.2842   24.1390 H   0  0  0  0  0  0
  -29.4251  -18.4289   21.9199 H   0  0  0  0  0  0
  -29.8539  -20.6692   18.2417 H   0  0  0  0  0  0
  -30.4451  -16.4358   18.2122 H   0  0  0  0  0  0
  -28.3554  -22.1579   19.1734 H   0  0  0  0  0  0
  -29.2092  -23.9189   21.5338 H   0  0  0  0  0  0
  -26.9986  -24.6610   20.1224 H   0  0  0  0  0  0
  -28.1163  -24.7706   18.7839 H   0  0  0  0  0  0
  -29.0753  -15.6640   21.3432 H   0  0  0  0  0  0
  1 25  1  0  0  0
  1 30  2  0  0  0
  1 81  1  0  0  0
  2  3  1  0  0  0
  2 25  1  0  0  0
  2 84  1  0  0  0
  2 85  1  0  0  0
  3  4  1  0  0  0
  3 86  1  0  0  0
  3 87  1  0  0  0
  4  5  1  0  0  0
  4 88  1  0  0  0
  4 89  1  0  0  0
  5  6  1  0  0  0
  5 26  1  0  0  0
  5 90  1  0  0  0
  6 25  1  0  0  0
  6 91  1  0  0  0
  6 92  1  0  0  0
  7  8  2  0  0  0
  7 26  1  0  0  0
  7 29  1  0  0  0
  8  9  1  0  0  0
  8 22  1  0  0  0
  9 10  1  0  0  0
  9 27  2  0  0  0
 10 11  2  0  0  0
 10 15  1  0  0  0
 11 12  1  0  0  0
 11 93  1  0  0  0
 12 13  2  0  0  0
 12 94  1  0  0  0
 13 14  1  0  0  0
 13 31  1  0  0  0
 14 15  2  0  0  0
 14 95  1  0  0  0
 15 96  1  0  0  0
 16 17  2  0  0  0
 16 21  1  0  0  0
 16 31  1  0  0  0
 17 18  1  0  0  0
 17 97  1  0  0  0
 18 19  2  0  0  0
 18 98  1  0  0  0
 19 20  1  0  0  0
 19 24  1  0  0  0
 20 21  2  0  0  0
 20 99  1  0  0  0
 21 23  1  0  0  0
 22 28  1  0  0  0
 22 32  2  0  0  0
 26 27  1  0  0  0
 28100  1  0  0  0
 28101  1  0  0  0
 29102  1  0  0  0
 29103  1  0  0  0
 33 34  1  0  0  0
 33 66  1  0  0  0
 33 70  2  0  0  0
 34 36  1  0  0  0
 34 59  1  0  0  0
 34104  1  0  0  0
 35 44  2  0  0  0
 35 45  1  0  0  0
 35 68  1  0  0  0
 36 56  1  0  0  0
 36105  1  0  0  0
 37 39  1  0  0  0
 37 47  1  0  0  0
 37 66  1  0  0  0
 37106  1  0  0  0
 38 43  2  0  0  0
 38 46  1  0  0  0
 38 47  1  0  0  0
 39 64  1  0  0  0
 39 67  2  0  0  0
 40 52  1  0  0  0
 40 53  2  0  0  0
 40 58  1  0  0  0
 41107  1  0  0  0
 41108  1  0  0  0
 41109  1  0  0  0
 41 48  1  0  0  0
 42 43  1  0  0  0
 42 66  1  0  0  0
 42110  1  0  0  0
 42111  1  0  0  0
 43 44  1  0  0  0
 44112  1  0  0  0
 45 46  2  0  0  0
 45113  1  0  0  0
 46114  1  0  0  0
 47115  1  0  0  0
 47116  1  0  0  0
 48 56  1  0  0  0
 48 65  1  0  0  0
 48117  1  0  0  0
 49 50  1  0  0  0
 49 53  1  0  0  0
 49 64  1  0  0  0
 49118  1  0  0  0
 50 51  1  0  0  0
 50119  1  0  0  0
 50120  1  0  0  0
 51 52  1  0  0  0
 51121  1  0  0  0
 51122  1  0  0  0
 52123  1  0  0  0
 52124  1  0  0  0
 53 54  1  0  0  0
 54 55  2  0  0  0
 54125  1  0  0  0
 55 57  1  0  0  0
 55126  1  0  0  0
 56 69  2  0  0  0
 57 58  2  0  0  0
 57127  1  0  0  0
 58128  1  0  0  0
 59 60  1  0  0  0
 59 61  1  0  0  0
 59 62  1  0  0  0
 60129  1  0  0  0
 60130  1  0  0  0
 60131  1  0  0  0
 61132  1  0  0  0
 61133  1  0  0  0
 61134  1  0  0  0
 62135  1  0  0  0
 62136  1  0  0  0
 62137  1  0  0  0
 63 65  1  0  0  0
 63138  1  0  0  0
 63139  1  0  0  0
 63140  1  0  0  0
 64141  1  0  0  0
 65142  1  0  0  0
 68 80  1  0  0  0
 71 74  2  0  0  0
 71 75  1  0  0  0
 71143  1  0  0  0
 72 74  1  0  0  0
 72 76  2  0  0  0
 72144  1  0  0  0
 73 75  2  0  0  0
 73 76  1  0  0  0
 73145  1  0  0  0
 74 79  1  0  0  0
 75 81  1  0  0  0
 76 83  1  0  0  0
 77 78  2  0  0  0
 77 79  1  0  0  0
 77146  1  0  0  0
 78 80  1  0  0  0
 78147  1  0  0  0
 79 82  2  0  0  0
 80148  1  0  0  0
 80149  1  0  0  0
 81150  1  0  0  0
M  ISO  4   1 100  68 101  80 101  81 100
M  END
> <chiral flag>
0

> <version>
0

> <s_m_source_file>
/data/baiqing/PycharmProjects/Reinvent-master-3.2/result/LINK_invent/BTK/process_docking_weight1_custom_product_contain_oxygen_bond_distance_aromatic_linkinvent_7_9_3/rearranged_h_0126.sdf

> <i_m_source_file_index>
47

> <r_mmod_Potential_Energy-OPLS-2005>
132.350219726562

> <r_mmod_Stretch_Energy-OPLS-2005>
119.63452911377

> <r_mmod_Bend_Energy-OPLS-2005>
151.686340332031

> <r_mmod_Torsional_Energy-OPLS-2005>
236.836364746094

> <r_mmod_Improper_Torsional_Energy-OPLS-2005>
5.3673882484436

> <r_mmod_Van_der_Waal_Energy-OPLS-2005>
146.269561767578

> <r_mmod_Electrostatic_Energy-OPLS-2005>
-387.701904296875

> <r_mmod_Solvation_Energy-OPLS-2005>
-222.564666748047

> <b_mmod_Minimization_Converged-OPLS-2005>
0

> <r_mmod_RMS_Derivative-OPLS-2005>
1.7106055021286

$$$$
47
                    3D
 Structure written by MMmdl.
163171  0  0  1  0            999 V2000
  -30.6736  -14.5406   20.4283 C   0  0  0  0  0  0
  -30.4157  -12.3103   19.4289 C   0  0  0  0  0  0
  -29.4713  -12.4049   18.2087 C   0  0  0  0  0  0
  -28.0008  -12.2782   18.6423 C   0  0  0  0  0  0
  -27.6412  -13.1958   19.8419 C   0  0  2  0  0  0
  -28.6903  -13.0667   20.9672 C   0  0  0  0  0  0
  -25.2517  -13.8154   20.5638 C   0  0  0  0  0  0
  -24.1778  -13.0464   20.9228 C   0  0  0  0  0  0
  -24.6324  -11.6921   20.8792 C   0  0  0  0  0  0
  -23.9004  -10.4309   21.0422 C   0  0  0  0  0  0
  -24.3584   -9.4215   21.9165 C   0  0  0  0  0  0
  -23.6266   -8.2250   22.0744 C   0  0  0  0  0  0
  -22.4245   -8.0298   21.3540 C   0  0  0  0  0  0
  -21.9876   -9.0264   20.4625 C   0  0  0  0  0  0
  -22.7198  -10.2147   20.3033 C   0  0  0  0  0  0
  -21.6856   -6.0737   22.5260 C   0  0  0  0  0  0
  -21.4029   -6.5626   23.8202 C   0  0  0  0  0  0
  -21.3646   -5.6762   24.9141 C   0  0  0  0  0  0
  -21.6025   -4.3032   24.7171 C   0  0  0  0  0  0
  -21.8835   -3.8141   23.4288 C   0  0  0  0  0  0
  -21.9200   -4.6971   22.3369 C   0  0  0  0  0  0
  -22.7791  -13.5264   21.1853 C   0  0  0  0  0  0
  -22.1671   -4.2180   21.0934 F   0  0  0  0  0  0
  -21.5610   -3.4494   25.7670 F   0  0  0  0  0  0
  -30.0096  -13.3532   20.3864 N   0  0  0  0  0  0
  -26.2909  -12.9301   20.3263 N   0  0  0  0  0  0
  -25.9237  -11.6485   20.5820 N   0  0  0  0  0  0
  -22.0409  -12.8295   22.0436 N   0  0  0  0  0  0
  -25.4235  -15.1866   20.3915 N   0  0  0  0  0  0
  -31.8887  -14.6152   20.2382 O   0  0  0  0  0  0
  -21.6611   -6.8894   21.4237 O   0  0  0  0  0  0
  -22.3471  -14.5540   20.6656 O   0  0  0  0  0  0
  -24.6156  -31.8671   23.2094 C   0  0  0  0  0  0
  -25.9048  -32.4817   23.8397 C   0  0  1  0  0  0
  -27.2302  -27.4272   20.1153 C   0  0  0  0  0  0
  -25.5902  -33.8612   24.2324 N   0  0  0  0  0  0
  -23.4030  -30.4910   21.5494 C   0  0  2  0  0  0
  -24.8520  -28.9579   20.1131 C   0  0  0  0  0  0
  -22.7420  -29.4655   22.4983 C   0  0  0  0  0  0
  -18.0273  -28.1379   22.8498 C   0  0  0  0  0  0
  -24.1480  -36.7317   23.2642 C   0  0  0  0  0  0
  -25.9327  -30.8344   21.3627 C   0  0  0  0  0  0
  -26.0123  -29.4680   20.7104 C   0  0  0  0  0  0
  -27.2078  -28.7112   20.7059 C   0  0  0  0  0  0
  -26.0580  -26.9311   19.5094 C   0  0  0  0  0  0
  -24.8708  -27.6894   19.5051 C   0  0  0  0  0  0
  -23.6128  -29.8249   20.1627 C   0  0  0  0  0  0
  -25.4097  -36.3106   24.0344 C   0  0  1  0  0  0
  -20.5867  -28.3661   23.1317 C   0  0  2  0  0  0
  -20.6764  -26.9401   22.5416 C   0  0  0  0  0  0
  -19.5744  -26.6382   21.5218 C   0  0  0  0  0  0
  -18.1917  -26.7920   22.1626 C   0  0  0  0  0  0
  -19.1522  -28.8835   23.2901 C   0  0  0  0  0  0
  -18.9454  -30.1446   23.8906 C   0  0  0  0  0  0
  -17.6457  -30.6588   24.0557 C   0  0  0  0  0  0
  -25.9035  -34.9477   23.5133 C   0  0  0  0  0  0
  -16.5345  -29.9093   23.6328 C   0  0  0  0  0  0
  -16.7262  -28.6506   23.0351 C   0  0  0  0  0  0
  -26.4478  -31.6594   25.0725 C   0  0  0  0  0  0
  -25.3749  -31.3722   26.1483 C   0  0  0  0  0  0
  -27.0318  -30.3034   24.6119 C   0  0  0  0  0  0
  -27.6059  -32.4300   25.7484 C   0  0  0  0  0  0
  -27.5574  -37.1804   24.8461 C   0  0  0  0  0  0
  -21.4146  -29.3026   22.3728 N   0  0  0  0  0  0
  -26.4281  -37.3790   23.9415 N   0  0  0  0  0  0
  -24.6682  -31.0779   22.0996 N   0  0  0  0  0  0
  -23.4191  -28.8202   23.3021 O   0  0  0  0  0  0
  -28.3643  -26.6449   20.1148 O   0  0  0  0  0  0
  -26.5600  -34.8925   22.4697 O   0  0  0  0  0  0
  -23.5341  -32.1432   23.7491 O   0  0  0  0  0  0
  -30.4132  -19.5214   18.5891 C   0  0  0  0  0  0
  -30.9713  -18.3914   17.9843 C   0  0  0  0  0  0
  -29.5919  -18.1235   20.3987 C   0  0  0  0  0  0
  -29.6932  -19.4161   19.7955 C   0  0  0  0  0  0
  -30.8262  -17.1111   18.5483 C   0  0  0  0  0  0
  -30.1491  -16.9476   19.7991 C   0  0  0  0  0  0
  -29.0379  -20.6439   20.3429 C   0  0  0  0  0  0
  -29.3293  -21.9240   19.9877 C   0  0  0  0  0  0
  -31.3717  -15.9735   17.7003 C   0  0  0  0  0  0
  -30.0231  -24.0385   22.2273 C   0  0  0  0  0  0
  -30.4585  -24.8489   19.9091 C   0  0  0  0  0  0
  -28.5413  -23.1854   20.3660 C   0  0  0  0  0  0
  -28.3740  -25.6317   21.1409 C   0  0  0  0  0  0
  -29.3463  -24.4208   20.8921 C   0  0  0  0  0  0
  -29.8970  -15.6552   20.4174 N   0  0  0  0  0  0
  -31.4520  -12.4219   19.1059 H   0  0  0  0  0  0
  -30.3504  -11.3228   19.8921 H   0  0  0  0  0  0
  -29.7114  -11.6212   17.4899 H   0  0  0  0  0  0
  -29.6037  -13.3421   17.6783 H   0  0  0  0  0  0
  -27.8381  -11.2345   18.9158 H   0  0  0  0  0  0
  -27.3371  -12.4714   17.7988 H   0  0  0  0  0  0
  -27.6562  -14.2192   19.4676 H   0  0  0  0  0  0
  -28.6786  -12.0566   21.3793 H   0  0  0  0  0  0
  -28.4625  -13.7330   21.7994 H   0  0  0  0  0  0
  -25.2760   -9.5683   22.4685 H   0  0  0  0  0  0
  -23.9989   -7.4633   22.7451 H   0  0  0  0  0  0
  -21.0821   -8.8780   19.8909 H   0  0  0  0  0  0
  -22.3699  -10.9675   19.6103 H   0  0  0  0  0  0
  -21.2064   -7.6142   23.9736 H   0  0  0  0  0  0
  -21.1439   -6.0457   25.9051 H   0  0  0  0  0  0
  -22.0642   -2.7617   23.2748 H   0  0  0  0  0  0
  -22.3983  -11.9941   22.4830 H   0  0  0  0  0  0
  -21.1005  -13.1312   22.2578 H   0  0  0  0  0  0
  -24.6411  -15.8276   20.4600 H   0  0  0  0  0  0
  -26.2491  -15.6187   19.9972 H   0  0  0  0  0  0
  -26.7121  -32.5527   23.1160 H   0  0  0  0  0  0
  -25.0019  -33.9764   25.0448 H   0  0  0  0  0  0
  -22.6928  -31.3088   21.4121 H   0  0  0  0  0  0
  -23.3736  -35.9656   23.3306 H   0  0  0  0  0  0
  -24.3576  -36.8928   22.2056 H   0  0  0  0  0  0
  -23.7239  -37.6529   23.6648 H   0  0  0  0  0  0
  -26.0456  -31.6020   20.5955 H   0  0  0  0  0  0
  -26.8188  -30.8855   21.9830 H   0  0  0  0  0  0
  -28.1033  -29.1031   21.1688 H   0  0  0  0  0  0
  -26.0635  -25.9521   19.0527 H   0  0  0  0  0  0
  -23.9791  -27.2918   19.0398 H   0  0  0  0  0  0
  -23.7191  -30.6023   19.4050 H   0  0  0  0  0  0
  -22.7368  -29.2450   19.8656 H   0  0  0  0  0  0
  -25.1272  -36.1970   25.0837 H   0  0  0  0  0  0
  -20.9956  -28.3216   24.1437 H   0  0  0  0  0  0
  -20.5668  -26.2271   23.3602 H   0  0  0  0  0  0
  -21.6631  -26.7441   22.1199 H   0  0  0  0  0  0
  -19.6900  -25.6295   21.1241 H   0  0  0  0  0  0
  -19.6688  -27.3199   20.6755 H   0  0  0  0  0  0
  -17.4198  -26.6676   21.4023 H   0  0  0  0  0  0
  -18.0315  -26.0054   22.9013 H   0  0  0  0  0  0
  -19.7938  -30.7249   24.2272 H   0  0  0  0  0  0
  -17.5022  -31.6275   24.5157 H   0  0  0  0  0  0
  -15.5346  -30.2997   23.7646 H   0  0  0  0  0  0
  -15.8660  -28.0826   22.7059 H   0  0  0  0  0  0
  -24.5851  -30.7162   25.7808 H   0  0  0  0  0  0
  -24.9037  -32.2904   26.4997 H   0  0  0  0  0  0
  -25.8079  -30.8805   27.0204 H   0  0  0  0  0  0
  -26.2883  -29.6778   24.1168 H   0  0  0  0  0  0
  -27.4091  -29.7276   25.4582 H   0  0  0  0  0  0
  -27.8708  -30.4353   23.9281 H   0  0  0  0  0  0
  -27.2685  -33.3566   26.2134 H   0  0  0  0  0  0
  -28.3837  -32.6911   25.0297 H   0  0  0  0  0  0
  -28.0775  -31.8387   26.5344 H   0  0  0  0  0  0
  -28.2591  -38.0101   24.7506 H   0  0  0  0  0  0
  -28.1068  -36.2635   24.6275 H   0  0  0  0  0  0
  -27.2302  -37.1442   25.8866 H   0  0  0  0  0  0
  -20.9310  -29.8763   21.6964 H   0  0  0  0  0  0
  -26.0177  -38.2869   24.1414 H   0  0  0  0  0  0
  -30.4973  -20.4604   18.0615 H   0  0  0  0  0  0
  -31.4791  -18.5152   17.0363 H   0  0  0  0  0  0
  -29.0474  -18.0267   21.3273 H   0  0  0  0  0  0
  -28.2173  -20.4759   21.0274 H   0  0  0  0  0  0
  -30.1636  -22.1171   19.3312 H   0  0  0  0  0  0
  -32.3631  -15.6707   18.0387 H   0  0  0  0  0  0
  -31.4576  -16.2749   16.6555 H   0  0  0  0  0  0
  -30.7088  -15.1184   17.7226 H   0  0  0  0  0  0
  -30.8018  -23.2867   22.0904 H   0  0  0  0  0  0
  -29.3084  -23.6382   22.9470 H   0  0  0  0  0  0
  -30.5045  -24.9018   22.6884 H   0  0  0  0  0  0
  -31.2558  -24.1096   19.8334 H   0  0  0  0  0  0
  -30.9290  -25.7768   20.2365 H   0  0  0  0  0  0
  -30.0692  -25.0194   18.9049 H   0  0  0  0  0  0
  -27.7635  -22.9133   21.0817 H   0  0  0  0  0  0
  -28.0082  -23.4934   19.4641 H   0  0  0  0  0  0
  -28.6503  -26.1447   22.0622 H   0  0  0  0  0  0
  -27.3662  -25.2545   21.3257 H   0  0  0  0  0  0
  -28.9564  -15.5099   20.7514 H   0  0  0  0  0  0
  1 25  1  0  0  0
  1 30  2  0  0  0
  1 85  1  0  0  0
  2  3  1  0  0  0
  2 25  1  0  0  0
  2 86  1  0  0  0
  2 87  1  0  0  0
  3  4  1  0  0  0
  3 88  1  0  0  0
  3 89  1  0  0  0
  4  5  1  0  0  0
  4 90  1  0  0  0
  4 91  1  0  0  0
  5  6  1  0  0  0
  5 26  1  0  0  0
  5 92  1  0  0  0
  6 25  1  0  0  0
  6 93  1  0  0  0
  6 94  1  0  0  0
  7  8  2  0  0  0
  7 26  1  0  0  0
  7 29  1  0  0  0
  8  9  1  0  0  0
  8 22  1  0  0  0
  9 10  1  0  0  0
  9 27  2  0  0  0
 10 11  2  0  0  0
 10 15  1  0  0  0
 11 12  1  0  0  0
 11 95  1  0  0  0
 12 13  2  0  0  0
 12 96  1  0  0  0
 13 14  1  0  0  0
 13 31  1  0  0  0
 14 15  2  0  0  0
 14 97  1  0  0  0
 15 98  1  0  0  0
 16 17  2  0  0  0
 16 21  1  0  0  0
 16 31  1  0  0  0
 17 18  1  0  0  0
 17 99  1  0  0  0
 18 19  2  0  0  0
 18100  1  0  0  0
 19 20  1  0  0  0
 19 24  1  0  0  0
 20 21  2  0  0  0
 20101  1  0  0  0
 21 23  1  0  0  0
 22 28  1  0  0  0
 22 32  2  0  0  0
 26 27  1  0  0  0
 28102  1  0  0  0
 28103  1  0  0  0
 29104  1  0  0  0
 29105  1  0  0  0
 33 34  1  0  0  0
 33 66  1  0  0  0
 33 70  2  0  0  0
 34 36  1  0  0  0
 34 59  1  0  0  0
 34106  1  0  0  0
 35 44  2  0  0  0
 35 45  1  0  0  0
 35 68  1  0  0  0
 36 56  1  0  0  0
 36107  1  0  0  0
 37 39  1  0  0  0
 37 47  1  0  0  0
 37 66  1  0  0  0
 37108  1  0  0  0
 38 43  2  0  0  0
 38 46  1  0  0  0
 38 47  1  0  0  0
 39 64  1  0  0  0
 39 67  2  0  0  0
 40 52  1  0  0  0
 40 53  2  0  0  0
 40 58  1  0  0  0
 41109  1  0  0  0
 41110  1  0  0  0
 41111  1  0  0  0
 41 48  1  0  0  0
 42 43  1  0  0  0
 42 66  1  0  0  0
 42112  1  0  0  0
 42113  1  0  0  0
 43 44  1  0  0  0
 44114  1  0  0  0
 45 46  2  0  0  0
 45115  1  0  0  0
 46116  1  0  0  0
 47117  1  0  0  0
 47118  1  0  0  0
 48 56  1  0  0  0
 48 65  1  0  0  0
 48119  1  0  0  0
 49 50  1  0  0  0
 49 53  1  0  0  0
 49 64  1  0  0  0
 49120  1  0  0  0
 50 51  1  0  0  0
 50121  1  0  0  0
 50122  1  0  0  0
 51 52  1  0  0  0
 51123  1  0  0  0
 51124  1  0  0  0
 52125  1  0  0  0
 52126  1  0  0  0
 53 54  1  0  0  0
 54 55  2  0  0  0
 54127  1  0  0  0
 55 57  1  0  0  0
 55128  1  0  0  0
 56 69  2  0  0  0
 57 58  2  0  0  0
 57129  1  0  0  0
 58130  1  0  0  0
 59 60  1  0  0  0
 59 61  1  0  0  0
 59 62  1  0  0  0
 60131  1  0  0  0
 60132  1  0  0  0
 60133  1  0  0  0
 61134  1  0  0  0
 61135  1  0  0  0
 61136  1  0  0  0
 62137  1  0  0  0
 62138  1  0  0  0
 62139  1  0  0  0
 63 65  1  0  0  0
 63140  1  0  0  0
 63141  1  0  0  0
 63142  1  0  0  0
 64143  1  0  0  0
 65144  1  0  0  0
 68 83  1  0  0  0
 71 72  2  0  0  0
 71 74  1  0  0  0
 71145  1  0  0  0
 72 75  1  0  0  0
 72146  1  0  0  0
 73 74  2  0  0  0
 73 76  1  0  0  0
 73147  1  0  0  0
 74 77  1  0  0  0
 75 76  2  0  0  0
 75 79  1  0  0  0
 76 85  1  0  0  0
 77 78  2  0  0  0
 77148  1  0  0  0
 78 82  1  0  0  0
 78149  1  0  0  0
 79150  1  0  0  0
 79151  1  0  0  0
 79152  1  0  0  0
 80153  1  0  0  0
 80154  1  0  0  0
 80155  1  0  0  0
 80 84  1  0  0  0
 81 84  1  0  0  0
 81156  1  0  0  0
 81157  1  0  0  0
 81158  1  0  0  0
 82 84  1  0  0  0
 82159  1  0  0  0
 82160  1  0  0  0
 83 84  1  0  0  0
 83161  1  0  0  0
 83162  1  0  0  0
 85163  1  0  0  0
M  ISO  4   1 100  68 101  83 101  85 100
M  END
> <chiral flag>
0

> <version>
0

> <s_m_source_file>
/data/baiqing/PycharmProjects/Reinvent-master-3.2/result/LINK_invent/BTK/process_docking_weight1_custom_product_contain_oxygen_bond_distance_aromatic_linkinvent_7_9_3/rearranged_h_0126.sdf

> <i_m_source_file_index>
48

> <r_mmod_Potential_Energy-OPLS-2005>
67.4587173461914

> <r_mmod_Stretch_Energy-OPLS-2005>
49.5769348144531

> <r_mmod_Bend_Energy-OPLS-2005>
110.377456665039

> <r_mmod_Torsional_Energy-OPLS-2005>
289.015472412109

> <r_mmod_Improper_Torsional_Energy-OPLS-2005>
8.6077127456665

> <r_mmod_Van_der_Waal_Energy-OPLS-2005>
157.628555297852

> <r_mmod_Electrostatic_Energy-OPLS-2005>
-386.421325683594

> <r_mmod_Solvation_Energy-OPLS-2005>
-193.26188659668

> <b_mmod_Minimization_Converged-OPLS-2005>
0

> <r_mmod_RMS_Derivative-OPLS-2005>
3.50275659561157

$$$$
48
                    3D
 Structure written by MMmdl.
153161  0  0  1  0            999 V2000
  -30.6521  -14.5194   20.5230 C   0  0  0  0  0  0
  -30.4175  -12.3231   19.4323 C   0  0  0  0  0  0
  -29.4963  -12.5240   18.2098 C   0  0  0  0  0  0
  -28.0124  -12.3959   18.6074 C   0  0  0  0  0  0
  -27.6596  -13.2187   19.8759 C   0  0  2  0  0  0
  -28.6966  -13.0000   21.0000 C   0  0  0  0  0  0
  -25.2573  -13.8160   20.5705 C   0  0  0  0  0  0
  -24.1847  -13.0427   20.9178 C   0  0  0  0  0  0
  -24.6402  -11.6901   20.8713 C   0  0  0  0  0  0
  -23.9074  -10.4288   21.0404 C   0  0  0  0  0  0
  -24.3627   -9.4194   21.9177 C   0  0  0  0  0  0
  -23.6299   -8.2233   22.0749 C   0  0  0  0  0  0
  -22.4274   -8.0283   21.3547 C   0  0  0  0  0  0
  -21.9915   -9.0247   20.4633 C   0  0  0  0  0  0
  -22.7251  -10.2126   20.3047 C   0  0  0  0  0  0
  -21.6871   -6.0731   22.5273 C   0  0  0  0  0  0
  -21.4020   -6.5645   23.8204 C   0  0  0  0  0  0
  -21.3658   -5.6805   24.9180 C   0  0  0  0  0  0
  -21.6052   -4.3065   24.7237 C   0  0  0  0  0  0
  -21.8829   -3.8151   23.4364 C   0  0  0  0  0  0
  -21.9199   -4.6956   22.3415 C   0  0  0  0  0  0
  -22.7873  -13.5219   21.1845 C   0  0  0  0  0  0
  -22.1681   -4.2147   21.0980 F   0  0  0  0  0  0
  -21.5616   -3.4550   25.7734 F   0  0  0  0  0  0
  -30.0232  -13.3127   20.4520 N   0  0  0  0  0  0
  -26.3016  -12.9368   20.3364 N   0  0  0  0  0  0
  -25.9321  -11.6514   20.5731 N   0  0  0  0  0  0
  -22.0542  -12.8172   22.0403 N   0  0  0  0  0  0
  -25.4330  -15.1872   20.4088 N   0  0  0  0  0  0
  -31.8055  -14.6850   20.1112 O   0  0  0  0  0  0
  -21.6646   -6.8876   21.4235 O   0  0  0  0  0  0
  -22.3539  -14.5525   20.6703 O   0  0  0  0  0  0
  -24.6165  -31.8644   23.2054 C   0  0  0  0  0  0
  -25.9038  -32.4809   23.8376 C   0  0  1  0  0  0
  -27.2416  -27.4032   20.1137 C   0  0  0  0  0  0
  -25.5880  -33.8613   24.2321 N   0  0  0  0  0  0
  -23.4061  -30.4844   21.5464 C   0  0  2  0  0  0
  -24.8550  -28.9454   20.1092 C   0  0  0  0  0  0
  -22.7405  -29.4629   22.4972 C   0  0  0  0  0  0
  -18.0267  -28.1364   22.8505 C   0  0  0  0  0  0
  -24.1483  -36.7318   23.2635 C   0  0  0  0  0  0
  -25.9335  -30.8248   21.3568 C   0  0  0  0  0  0
  -26.0117  -29.4524   20.7111 C   0  0  0  0  0  0
  -27.2040  -28.6878   20.7089 C   0  0  0  0  0  0
  -26.0695  -26.9201   19.4911 C   0  0  0  0  0  0
  -24.8811  -27.6812   19.4924 C   0  0  0  0  0  0
  -23.6145  -29.8110   20.1630 C   0  0  0  0  0  0
  -25.4104  -36.3111   24.0338 C   0  0  1  0  0  0
  -20.5860  -28.3667   23.1314 C   0  0  2  0  0  0
  -20.6755  -26.9397   22.5429 C   0  0  0  0  0  0
  -19.5741  -26.6381   21.5219 C   0  0  0  0  0  0
  -18.1919  -26.7925   22.1619 C   0  0  0  0  0  0
  -19.1517  -28.8837   23.2914 C   0  0  0  0  0  0
  -18.9439  -30.1442   23.8928 C   0  0  0  0  0  0
  -17.6439  -30.6589   24.0559 C   0  0  0  0  0  0
  -25.9051  -34.9474   23.5145 C   0  0  0  0  0  0
  -16.5334  -29.9092   23.6297 C   0  0  0  0  0  0
  -16.7256  -28.6490   23.0355 C   0  0  0  0  0  0
  -26.4459  -31.6570   25.0707 C   0  0  0  0  0  0
  -25.3715  -31.3651   26.1450 C   0  0  0  0  0  0
  -27.0285  -30.3013   24.6070 C   0  0  0  0  0  0
  -27.6064  -32.4248   25.7480 C   0  0  0  0  0  0
  -27.5578  -37.1811   24.8458 C   0  0  0  0  0  0
  -21.4128  -29.3026   22.3712 N   0  0  0  0  0  0
  -26.4288  -37.3792   23.9413 N   0  0  0  0  0  0
  -24.6700  -31.0747   22.0944 N   0  0  0  0  0  0
  -23.4161  -28.8170   23.3029 O   0  0  0  0  0  0
  -28.4205  -26.6779   20.1861 O   0  0  0  0  0  0
  -26.5632  -34.8911   22.4712 O   0  0  0  0  0  0
  -23.5351  -32.1408   23.7432 O   0  0  0  0  0  0
  -29.9778  -18.2757   18.2867 C   0  0  0  0  0  0
  -29.6109  -19.4158   19.0298 C   0  0  0  0  0  0
  -30.0971  -17.0217   18.9135 C   0  0  0  0  0  0
  -29.4672  -18.0344   21.0370 C   0  0  0  0  0  0
  -29.3641  -19.3205   20.4183 C   0  0  0  0  0  0
  -29.8413  -16.8730   20.2983 C   0  0  0  0  0  0
  -28.3758  -21.7333   20.5538 C   0  0  0  0  0  0
  -28.4328  -22.9951   21.0614 C   0  0  0  0  0  0
  -29.0344  -20.5598   21.2213 C   0  0  0  0  0  0
  -27.6817  -24.2412   20.5462 C   0  0  0  0  0  0
  -28.5192  -25.2980   19.7614 C   0  0  0  0  0  0
  -29.8877  -15.5700   20.9168 N   0  0  0  0  0  0
  -29.2793  -20.5890   22.4322 O   0  0  0  0  0  0
  -31.4627  -12.4243   19.1331 H   0  0  0  0  0  0
  -30.3185  -11.3091   19.8241 H   0  0  0  0  0  0
  -29.7276  -11.8073   17.4215 H   0  0  0  0  0  0
  -29.6730  -13.5147   17.7867 H   0  0  0  0  0  0
  -27.7964  -11.3409   18.7736 H   0  0  0  0  0  0
  -27.3762  -12.7149   17.7795 H   0  0  0  0  0  0
  -27.6967  -14.2691   19.5802 H   0  0  0  0  0  0
  -28.6705  -11.9626   21.3392 H   0  0  0  0  0  0
  -28.4625  -13.6043   21.8762 H   0  0  0  0  0  0
  -25.2776   -9.5667   22.4730 H   0  0  0  0  0  0
  -24.0019   -7.4635   22.7460 H   0  0  0  0  0  0
  -21.0867   -8.8771   19.8916 H   0  0  0  0  0  0
  -22.3735  -10.9666   19.6140 H   0  0  0  0  0  0
  -21.2026   -7.6156   23.9702 H   0  0  0  0  0  0
  -21.1461   -6.0543   25.9077 H   0  0  0  0  0  0
  -22.0603   -2.7611   23.2861 H   0  0  0  0  0  0
  -22.4223  -11.9844   22.4743 H   0  0  0  0  0  0
  -21.1126  -13.1108   22.2606 H   0  0  0  0  0  0
  -24.6725  -15.8513   20.5083 H   0  0  0  0  0  0
  -26.2911  -15.6140   20.0805 H   0  0  0  0  0  0
  -26.7121  -32.5533   23.1155 H   0  0  0  0  0  0
  -24.9976  -33.9756   25.0431 H   0  0  0  0  0  0
  -22.6961  -31.3009   21.4037 H   0  0  0  0  0  0
  -23.3737  -35.9654   23.3283 H   0  0  0  0  0  0
  -24.3584  -36.8955   22.2050 H   0  0  0  0  0  0
  -23.7242  -37.6515   23.6671 H   0  0  0  0  0  0
  -26.0388  -31.5833   20.5785 H   0  0  0  0  0  0
  -26.8234  -30.8901   21.9716 H   0  0  0  0  0  0
  -28.0937  -29.0758   21.1849 H   0  0  0  0  0  0
  -26.0573  -25.9538   19.0095 H   0  0  0  0  0  0
  -23.9939  -27.2854   19.0182 H   0  0  0  0  0  0
  -23.7134  -30.5804   19.3976 H   0  0  0  0  0  0
  -22.7407  -29.2237   19.8764 H   0  0  0  0  0  0
  -25.1276  -36.1963   25.0831 H   0  0  0  0  0  0
  -20.9964  -28.3252   24.1427 H   0  0  0  0  0  0
  -20.5634  -26.2285   23.3625 H   0  0  0  0  0  0
  -21.6635  -26.7426   22.1243 H   0  0  0  0  0  0
  -19.6909  -25.6295   21.1235 H   0  0  0  0  0  0
  -19.6681  -27.3199   20.6755 H   0  0  0  0  0  0
  -17.4182  -26.6677   21.4001 H   0  0  0  0  0  0
  -18.0303  -26.0061   22.9008 H   0  0  0  0  0  0
  -19.7922  -30.7243   24.2320 H   0  0  0  0  0  0
  -17.5000  -31.6269   24.5162 H   0  0  0  0  0  0
  -15.5344  -30.3001   23.7615 H   0  0  0  0  0  0
  -15.8650  -28.0814   22.7069 H   0  0  0  0  0  0
  -24.5932  -30.6956   25.7765 H   0  0  0  0  0  0
  -24.8859  -32.2791   26.4883 H   0  0  0  0  0  0
  -25.8076  -30.8831   27.0218 H   0  0  0  0  0  0
  -26.2832  -29.6780   24.1119 H   0  0  0  0  0  0
  -27.4046  -29.7234   25.4530 H   0  0  0  0  0  0
  -27.8667  -30.4328   23.9220 H   0  0  0  0  0  0
  -27.2727  -33.3543   26.2097 H   0  0  0  0  0  0
  -28.3866  -32.6786   25.0293 H   0  0  0  0  0  0
  -28.0730  -31.8319   26.5356 H   0  0  0  0  0  0
  -28.2587  -38.0113   24.7523 H   0  0  0  0  0  0
  -28.1080  -36.2654   24.6260 H   0  0  0  0  0  0
  -27.2309  -37.1433   25.8860 H   0  0  0  0  0  0
  -20.9280  -29.8763   21.6953 H   0  0  0  0  0  0
  -26.0169  -38.2863   24.1410 H   0  0  0  0  0  0
  -30.1758  -18.3636   17.2262 H   0  0  0  0  0  0
  -29.5569  -20.3703   18.5237 H   0  0  0  0  0  0
  -30.3717  -16.1745   18.3043 H   0  0  0  0  0  0
  -29.2573  -17.9425   22.0949 H   0  0  0  0  0  0
  -27.8204  -21.5416   19.6484 H   0  0  0  0  0  0
  -29.0319  -23.1685   21.9454 H   0  0  0  0  0  0
  -27.2283  -24.7157   21.4188 H   0  0  0  0  0  0
  -26.8471  -23.9141   19.9233 H   0  0  0  0  0  0
  -28.3207  -25.2263   18.6915 H   0  0  0  0  0  0
  -29.5741  -25.0397   19.8665 H   0  0  0  0  0  0
  -29.0808  -15.3281   21.4738 H   0  0  0  0  0  0
  1 25  1  0  0  0
  1 30  2  0  0  0
  1 82  1  0  0  0
  2  3  1  0  0  0
  2 25  1  0  0  0
  2 84  1  0  0  0
  2 85  1  0  0  0
  3  4  1  0  0  0
  3 86  1  0  0  0
  3 87  1  0  0  0
  4  5  1  0  0  0
  4 88  1  0  0  0
  4 89  1  0  0  0
  5  6  1  0  0  0
  5 26  1  0  0  0
  5 90  1  0  0  0
  6 25  1  0  0  0
  6 91  1  0  0  0
  6 92  1  0  0  0
  7  8  2  0  0  0
  7 26  1  0  0  0
  7 29  1  0  0  0
  8  9  1  0  0  0
  8 22  1  0  0  0
  9 10  1  0  0  0
  9 27  2  0  0  0
 10 11  2  0  0  0
 10 15  1  0  0  0
 11 12  1  0  0  0
 11 93  1  0  0  0
 12 13  2  0  0  0
 12 94  1  0  0  0
 13 14  1  0  0  0
 13 31  1  0  0  0
 14 15  2  0  0  0
 14 95  1  0  0  0
 15 96  1  0  0  0
 16 17  2  0  0  0
 16 21  1  0  0  0
 16 31  1  0  0  0
 17 18  1  0  0  0
 17 97  1  0  0  0
 18 19  2  0  0  0
 18 98  1  0  0  0
 19 20  1  0  0  0
 19 24  1  0  0  0
 20 21  2  0  0  0
 20 99  1  0  0  0
 21 23  1  0  0  0
 22 28  1  0  0  0
 22 32  2  0  0  0
 26 27  1  0  0  0
 28100  1  0  0  0
 28101  1  0  0  0
 29102  1  0  0  0
 29103  1  0  0  0
 33 34  1  0  0  0
 33 66  1  0  0  0
 33 70  2  0  0  0
 34 36  1  0  0  0
 34 59  1  0  0  0
 34104  1  0  0  0
 35 44  2  0  0  0
 35 45  1  0  0  0
 35 68  1  0  0  0
 36 56  1  0  0  0
 36105  1  0  0  0
 37 39  1  0  0  0
 37 47  1  0  0  0
 37 66  1  0  0  0
 37106  1  0  0  0
 38 43  2  0  0  0
 38 46  1  0  0  0
 38 47  1  0  0  0
 39 64  1  0  0  0
 39 67  2  0  0  0
 40 52  1  0  0  0
 40 53  2  0  0  0
 40 58  1  0  0  0
 41107  1  0  0  0
 41108  1  0  0  0
 41109  1  0  0  0
 41 48  1  0  0  0
 42 43  1  0  0  0
 42 66  1  0  0  0
 42110  1  0  0  0
 42111  1  0  0  0
 43 44  1  0  0  0
 44112  1  0  0  0
 45 46  2  0  0  0
 45113  1  0  0  0
 46114  1  0  0  0
 47115  1  0  0  0
 47116  1  0  0  0
 48 56  1  0  0  0
 48 65  1  0  0  0
 48117  1  0  0  0
 49 50  1  0  0  0
 49 53  1  0  0  0
 49 64  1  0  0  0
 49118  1  0  0  0
 50 51  1  0  0  0
 50119  1  0  0  0
 50120  1  0  0  0
 51 52  1  0  0  0
 51121  1  0  0  0
 51122  1  0  0  0
 52123  1  0  0  0
 52124  1  0  0  0
 53 54  1  0  0  0
 54 55  2  0  0  0
 54125  1  0  0  0
 55 57  1  0  0  0
 55126  1  0  0  0
 56 69  2  0  0  0
 57 58  2  0  0  0
 57127  1  0  0  0
 58128  1  0  0  0
 59 60  1  0  0  0
 59 61  1  0  0  0
 59 62  1  0  0  0
 60129  1  0  0  0
 60130  1  0  0  0
 60131  1  0  0  0
 61132  1  0  0  0
 61133  1  0  0  0
 61134  1  0  0  0
 62135  1  0  0  0
 62136  1  0  0  0
 62137  1  0  0  0
 63 65  1  0  0  0
 63138  1  0  0  0
 63139  1  0  0  0
 63140  1  0  0  0
 64141  1  0  0  0
 65142  1  0  0  0
 68 81  1  0  0  0
 71 72  2  0  0  0
 71 73  1  0  0  0
 71143  1  0  0  0
 72 75  1  0  0  0
 72144  1  0  0  0
 73 76  2  0  0  0
 73145  1  0  0  0
 74 75  2  0  0  0
 74 76  1  0  0  0
 74146  1  0  0  0
 75 79  1  0  0  0
 76 82  1  0  0  0
 77 78  2  0  0  0
 77 79  1  0  0  0
 77147  1  0  0  0
 78 80  1  0  0  0
 78148  1  0  0  0
 79 83  2  0  0  0
 80 81  1  0  0  0
 80149  1  0  0  0
 80150  1  0  0  0
 81151  1  0  0  0
 81152  1  0  0  0
 82153  1  0  0  0
M  ISO  4   1 100  68 101  81 101  82 100
M  END
> <chiral flag>
0

> <version>
0

> <s_m_source_file>
/data/baiqing/PycharmProjects/Reinvent-master-3.2/result/LINK_invent/BTK/process_docking_weight1_custom_product_contain_oxygen_bond_distance_aromatic_linkinvent_7_9_3/rearranged_h_0126.sdf

> <i_m_source_file_index>
49

> <r_mmod_Potential_Energy-OPLS-2005>
2.06150460243225

> <r_mmod_Stretch_Energy-OPLS-2005>
49.2951431274414

> <r_mmod_Bend_Energy-OPLS-2005>
111.693908691406

> <r_mmod_Torsional_Energy-OPLS-2005>
238.139282226562

> <r_mmod_Improper_Torsional_Energy-OPLS-2005>
5.58048486709595

> <r_mmod_Van_der_Waal_Energy-OPLS-2005>
148.922668457031

> <r_mmod_Electrostatic_Energy-OPLS-2005>
-351.665344238281

> <r_mmod_Solvation_Energy-OPLS-2005>
-219.756271362305

> <b_mmod_Minimization_Converged-OPLS-2005>
0

> <r_mmod_RMS_Derivative-OPLS-2005>
3.82309460639954

$$$$
49
                    3D
 Structure written by MMmdl.
153161  0  0  1  0            999 V2000
  -30.6333  -14.6619   20.4953 C   0  0  0  0  0  0
  -30.4428  -12.4075   19.4571 C   0  0  0  0  0  0
  -29.5121  -12.5083   18.2283 C   0  0  0  0  0  0
  -28.0356  -12.3411   18.6418 C   0  0  0  0  0  0
  -27.6516  -13.2187   19.8627 C   0  0  2  0  0  0
  -28.7009  -13.0948   20.9921 C   0  0  0  0  0  0
  -25.2440  -13.8027   20.5560 C   0  0  0  0  0  0
  -24.1780  -13.0324   20.9220 C   0  0  0  0  0  0
  -24.6408  -11.6832   20.8792 C   0  0  0  0  0  0
  -23.9075  -10.4233   21.0433 C   0  0  0  0  0  0
  -24.3619   -9.4151   21.9211 C   0  0  0  0  0  0
  -23.6277   -8.2200   22.0764 C   0  0  0  0  0  0
  -22.4263   -8.0256   21.3542 C   0  0  0  0  0  0
  -21.9904   -9.0238   20.4652 C   0  0  0  0  0  0
  -22.7247  -10.2106   20.3072 C   0  0  0  0  0  0
  -21.6843   -6.0728   22.5279 C   0  0  0  0  0  0
  -21.4013   -6.5637   23.8213 C   0  0  0  0  0  0
  -21.3651   -5.6785   24.9173 C   0  0  0  0  0  0
  -21.6042   -4.3048   24.7222 C   0  0  0  0  0  0
  -21.8821   -3.8137   23.4345 C   0  0  0  0  0  0
  -21.9187   -4.6956   22.3402 C   0  0  0  0  0  0
  -22.7807  -13.5147   21.1853 C   0  0  0  0  0  0
  -22.1657   -4.2144   21.0978 F   0  0  0  0  0  0
  -21.5617   -3.4530   25.7734 F   0  0  0  0  0  0
  -30.0157  -13.4385   20.4248 N   0  0  0  0  0  0
  -26.2972  -12.9305   20.3313 N   0  0  0  0  0  0
  -25.9350  -11.6464   20.5824 N   0  0  0  0  0  0
  -22.0438  -12.8189   22.0432 N   0  0  0  0  0  0
  -25.3854  -15.1671   20.3655 N   0  0  0  0  0  0
  -31.8021  -14.8079   20.1285 O   0  0  0  0  0  0
  -21.6616   -6.8864   21.4241 O   0  0  0  0  0  0
  -22.3511  -14.5456   20.6676 O   0  0  0  0  0  0
  -24.6249  -31.8612   23.2047 C   0  0  0  0  0  0
  -25.9101  -32.4786   23.8378 C   0  0  1  0  0  0
  -27.2312  -27.3370   20.1069 C   0  0  0  0  0  0
  -25.5921  -33.8586   24.2303 N   0  0  0  0  0  0
  -23.4187  -30.4854   21.5473 C   0  0  2  0  0  0
  -24.8664  -28.9455   20.1123 C   0  0  0  0  0  0
  -22.7475  -29.4620   22.4942 C   0  0  0  0  0  0
  -18.0293  -28.1380   22.8486 C   0  0  0  0  0  0
  -24.1490  -36.7297   23.2631 C   0  0  0  0  0  0
  -25.9596  -30.7974   21.3746 C   0  0  0  0  0  0
  -26.0354  -29.4267   20.7144 C   0  0  0  0  0  0
  -27.2206  -28.6341   20.7025 C   0  0  0  0  0  0
  -26.0329  -26.9040   19.4876 C   0  0  0  0  0  0
  -24.8662  -27.6878   19.4920 C   0  0  0  0  0  0
  -23.6341  -29.8237   20.1613 C   0  0  0  0  0  0
  -25.4104  -36.3080   24.0333 C   0  0  1  0  0  0
  -20.5888  -28.3683   23.1278 C   0  0  2  0  0  0
  -20.6779  -26.9406   22.5404 C   0  0  0  0  0  0
  -19.5754  -26.6379   21.5206 C   0  0  0  0  0  0
  -18.1938  -26.7925   22.1623 C   0  0  0  0  0  0
  -19.1545  -28.8849   23.2880 C   0  0  0  0  0  0
  -18.9466  -30.1450   23.8902 C   0  0  0  0  0  0
  -17.6464  -30.6577   24.0560 C   0  0  0  0  0  0
  -25.9045  -34.9450   23.5115 C   0  0  0  0  0  0
  -16.5358  -29.9078   23.6322 C   0  0  0  0  0  0
  -16.7280  -28.6495   23.0350 C   0  0  0  0  0  0
  -26.4496  -31.6587   25.0736 C   0  0  0  0  0  0
  -25.3741  -31.3731   26.1477 C   0  0  0  0  0  0
  -27.0327  -30.3012   24.6172 C   0  0  0  0  0  0
  -27.6079  -32.4306   25.7481 C   0  0  0  0  0  0
  -27.5596  -37.1770   24.8440 C   0  0  0  0  0  0
  -21.4189  -29.3038   22.3676 N   0  0  0  0  0  0
  -26.4274  -37.3782   23.9437 N   0  0  0  0  0  0
  -24.6866  -31.0632   22.0994 N   0  0  0  0  0  0
  -23.4202  -28.8152   23.3009 O   0  0  0  0  0  0
  -28.3578  -26.5015   20.1425 O   0  0  0  0  0  0
  -26.5610  -34.8911   22.4679 O   0  0  0  0  0  0
  -23.5410  -32.1410   23.7371 O   0  0  0  0  0  0
  -28.8393  -19.4299   20.7016 C   0  0  0  0  0  0
  -31.1679  -17.8940   20.4879 C   0  0  0  0  0  0
  -30.0473  -20.1347   20.5043 C   0  0  0  0  0  0
  -28.7904  -18.0100   20.8089 C   0  0  0  0  0  0
  -29.9533  -17.1869   20.6965 C   0  0  0  0  0  0
  -31.2128  -19.3207   20.3958 C   0  0  0  0  0  0
  -30.1163  -21.6533   20.4038 C   0  0  0  0  0  0
  -29.1135  -22.5872   20.3082 C   0  0  0  0  0  0
  -29.3331  -24.0912   20.2460 C   0  0  0  0  0  0
  -27.4259  -17.3949   21.0094 C   0  0  0  0  0  0
  -28.1182  -25.0518   19.9737 C   0  0  0  0  0  0
  -29.8237  -15.7245   20.8150 N   0  0  0  0  0  0
  -30.4549  -24.5884   20.3919 O   0  0  0  0  0  0
  -32.4135  -19.9171   20.1970 F   0  0  0  0  0  0
  -31.4832  -12.5345   19.1531 H   0  0  0  0  0  0
  -30.3826  -11.4164   19.9096 H   0  0  0  0  0  0
  -29.7800  -11.7519   17.4889 H   0  0  0  0  0  0
  -29.6495  -13.4748   17.7415 H   0  0  0  0  0  0
  -27.8793  -11.2880   18.8810 H   0  0  0  0  0  0
  -27.3811  -12.5591   17.7976 H   0  0  0  0  0  0
  -27.6596  -14.2518   19.5148 H   0  0  0  0  0  0
  -28.7188  -12.0780   21.3872 H   0  0  0  0  0  0
  -28.4453  -13.7373   21.8359 H   0  0  0  0  0  0
  -25.2767   -9.5609   22.4788 H   0  0  0  0  0  0
  -23.9963   -7.4584   22.7489 H   0  0  0  0  0  0
  -21.0827   -8.8781   19.8964 H   0  0  0  0  0  0
  -22.3729  -10.9656   19.6180 H   0  0  0  0  0  0
  -21.2024   -7.6149   23.9716 H   0  0  0  0  0  0
  -21.1464   -6.0517   25.9073 H   0  0  0  0  0  0
  -22.0610   -2.7596   23.2852 H   0  0  0  0  0  0
  -22.4033  -11.9860   22.4854 H   0  0  0  0  0  0
  -21.1062  -13.1254   22.2611 H   0  0  0  0  0  0
  -24.5795  -15.7812   20.4033 H   0  0  0  0  0  0
  -26.1706  -15.5713   19.8747 H   0  0  0  0  0  0
  -26.7172  -32.5467   23.1134 H   0  0  0  0  0  0
  -25.0071  -33.9743   25.0448 H   0  0  0  0  0  0
  -22.7114  -31.3050   21.4060 H   0  0  0  0  0  0
  -23.3761  -35.9615   23.3224 H   0  0  0  0  0  0
  -24.3617  -36.8984   22.2063 H   0  0  0  0  0  0
  -23.7214  -37.6466   23.6696 H   0  0  0  0  0  0
  -26.0898  -31.5636   20.6088 H   0  0  0  0  0  0
  -26.8396  -30.8453   22.0043 H   0  0  0  0  0  0
  -28.1184  -29.0005   21.1816 H   0  0  0  0  0  0
  -25.9638  -25.9472   18.9934 H   0  0  0  0  0  0
  -23.9698  -27.3132   19.0168 H   0  0  0  0  0  0
  -23.7541  -30.6040   19.4086 H   0  0  0  0  0  0
  -22.7549  -29.2545   19.8548 H   0  0  0  0  0  0
  -25.1266  -36.1926   25.0821 H   0  0  0  0  0  0
  -20.9988  -28.3261   24.1394 H   0  0  0  0  0  0
  -20.5671  -26.2297   23.3606 H   0  0  0  0  0  0
  -21.6646  -26.7430   22.1202 H   0  0  0  0  0  0
  -19.6910  -25.6287   21.1236 H   0  0  0  0  0  0
  -19.6686  -27.3190   20.6733 H   0  0  0  0  0  0
  -17.4202  -26.6669   21.4031 H   0  0  0  0  0  0
  -18.0341  -26.0067   22.9021 H   0  0  0  0  0  0
  -19.7941  -30.7264   24.2276 H   0  0  0  0  0  0
  -17.5016  -31.6258   24.5164 H   0  0  0  0  0  0
  -15.5357  -30.2981   23.7631 H   0  0  0  0  0  0
  -15.8686  -28.0805   22.7065 H   0  0  0  0  0  0
  -24.5890  -30.7110   25.7809 H   0  0  0  0  0  0
  -24.8968  -32.2903   26.4936 H   0  0  0  0  0  0
  -25.8067  -30.8877   27.0235 H   0  0  0  0  0  0
  -26.2891  -29.6759   24.1218 H   0  0  0  0  0  0
  -27.4059  -29.7271   25.4662 H   0  0  0  0  0  0
  -27.8749  -30.4306   23.9371 H   0  0  0  0  0  0
  -27.2724  -33.3613   26.2068 H   0  0  0  0  0  0
  -28.3872  -32.6848   25.0284 H   0  0  0  0  0  0
  -28.0766  -31.8423   26.5379 H   0  0  0  0  0  0
  -28.2517  -38.0162   24.7615 H   0  0  0  0  0  0
  -28.1184  -36.2701   24.6078 H   0  0  0  0  0  0
  -27.2346  -37.1183   25.8843 H   0  0  0  0  0  0
  -20.9366  -29.8790   21.6914 H   0  0  0  0  0  0
  -26.0143  -38.2832   24.1528 H   0  0  0  0  0  0
  -27.9200  -19.9918   20.7851 H   0  0  0  0  0  0
  -32.0976  -17.3524   20.4011 H   0  0  0  0  0  0
  -31.1251  -22.0435   20.4266 H   0  0  0  0  0  0
  -28.0854  -22.2605   20.2730 H   0  0  0  0  0  0
  -26.7223  -18.1080   21.4407 H   0  0  0  0  0  0
  -27.4551  -16.5270   21.6682 H   0  0  0  0  0  0
  -27.0461  -17.1055   20.0314 H   0  0  0  0  0  0
  -27.3005  -24.7451   20.6272 H   0  0  0  0  0  0
  -27.7971  -24.8657   18.9487 H   0  0  0  0  0  0
  -28.8988  -15.4189   21.0737 H   0  0  0  0  0  0
  1 25  1  0  0  0
  1 30  2  0  0  0
  1 82  1  0  0  0
  2  3  1  0  0  0
  2 25  1  0  0  0
  2 85  1  0  0  0
  2 86  1  0  0  0
  3  4  1  0  0  0
  3 87  1  0  0  0
  3 88  1  0  0  0
  4  5  1  0  0  0
  4 89  1  0  0  0
  4 90  1  0  0  0
  5  6  1  0  0  0
  5 26  1  0  0  0
  5 91  1  0  0  0
  6 25  1  0  0  0
  6 92  1  0  0  0
  6 93  1  0  0  0
  7  8  2  0  0  0
  7 26  1  0  0  0
  7 29  1  0  0  0
  8  9  1  0  0  0
  8 22  1  0  0  0
  9 10  1  0  0  0
  9 27  2  0  0  0
 10 11  2  0  0  0
 10 15  1  0  0  0
 11 12  1  0  0  0
 11 94  1  0  0  0
 12 13  2  0  0  0
 12 95  1  0  0  0
 13 14  1  0  0  0
 13 31  1  0  0  0
 14 15  2  0  0  0
 14 96  1  0  0  0
 15 97  1  0  0  0
 16 17  2  0  0  0
 16 21  1  0  0  0
 16 31  1  0  0  0
 17 18  1  0  0  0
 17 98  1  0  0  0
 18 19  2  0  0  0
 18 99  1  0  0  0
 19 20  1  0  0  0
 19 24  1  0  0  0
 20 21  2  0  0  0
 20100  1  0  0  0
 21 23  1  0  0  0
 22 28  1  0  0  0
 22 32  2  0  0  0
 26 27  1  0  0  0
 28101  1  0  0  0
 28102  1  0  0  0
 29103  1  0  0  0
 29104  1  0  0  0
 33 34  1  0  0  0
 33 66  1  0  0  0
 33 70  2  0  0  0
 34 36  1  0  0  0
 34 59  1  0  0  0
 34105  1  0  0  0
 35 44  2  0  0  0
 35 45  1  0  0  0
 35 68  1  0  0  0
 36 56  1  0  0  0
 36106  1  0  0  0
 37 39  1  0  0  0
 37 47  1  0  0  0
 37 66  1  0  0  0
 37107  1  0  0  0
 38 43  2  0  0  0
 38 46  1  0  0  0
 38 47  1  0  0  0
 39 64  1  0  0  0
 39 67  2  0  0  0
 40 52  1  0  0  0
 40 53  2  0  0  0
 40 58  1  0  0  0
 41108  1  0  0  0
 41109  1  0  0  0
 41110  1  0  0  0
 41 48  1  0  0  0
 42 43  1  0  0  0
 42 66  1  0  0  0
 42111  1  0  0  0
 42112  1  0  0  0
 43 44  1  0  0  0
 44113  1  0  0  0
 45 46  2  0  0  0
 45114  1  0  0  0
 46115  1  0  0  0
 47116  1  0  0  0
 47117  1  0  0  0
 48 56  1  0  0  0
 48 65  1  0  0  0
 48118  1  0  0  0
 49 50  1  0  0  0
 49 53  1  0  0  0
 49 64  1  0  0  0
 49119  1  0  0  0
 50 51  1  0  0  0
 50120  1  0  0  0
 50121  1  0  0  0
 51 52  1  0  0  0
 51122  1  0  0  0
 51123  1  0  0  0
 52124  1  0  0  0
 52125  1  0  0  0
 53 54  1  0  0  0
 54 55  2  0  0  0
 54126  1  0  0  0
 55 57  1  0  0  0
 55127  1  0  0  0
 56 69  2  0  0  0
 57 58  2  0  0  0
 57128  1  0  0  0
 58129  1  0  0  0
 59 60  1  0  0  0
 59 61  1  0  0  0
 59 62  1  0  0  0
 60130  1  0  0  0
 60131  1  0  0  0
 60132  1  0  0  0
 61133  1  0  0  0
 61134  1  0  0  0
 61135  1  0  0  0
 62136  1  0  0  0
 62137  1  0  0  0
 62138  1  0  0  0
 63 65  1  0  0  0
 63139  1  0  0  0
 63140  1  0  0  0
 63141  1  0  0  0
 64142  1  0  0  0
 65143  1  0  0  0
 68 81  1  0  0  0
 71 73  2  0  0  0
 71 74  1  0  0  0
 71144  1  0  0  0
 72 75  1  0  0  0
 72 76  2  0  0  0
 72145  1  0  0  0
 73 76  1  0  0  0
 73 77  1  0  0  0
 74 75  2  0  0  0
 74 80  1  0  0  0
 75 82  1  0  0  0
 76 84  1  0  0  0
 77 78  2  0  0  0
 77146  1  0  0  0
 78 79  1  0  0  0
 78147  1  0  0  0
 79 81  1  0  0  0
 79 83  2  0  0  0
 80148  1  0  0  0
 80149  1  0  0  0
 80150  1  0  0  0
 81151  1  0  0  0
 81152  1  0  0  0
 82153  1  0  0  0
M  ISO  4   1 100  68 101  81 101  82 100
M  END
> <chiral flag>
0

> <version>
0

> <s_m_source_file>
/data/baiqing/PycharmProjects/Reinvent-master-3.2/result/LINK_invent/BTK/process_docking_weight1_custom_product_contain_oxygen_bond_distance_aromatic_linkinvent_7_9_3/rearranged_h_0126.sdf

> <i_m_source_file_index>
50

> <r_mmod_Potential_Energy-OPLS-2005>
43.7322998046875

> <r_mmod_Stretch_Energy-OPLS-2005>
76.9804992675781

> <r_mmod_Bend_Energy-OPLS-2005>
128.48127746582

> <r_mmod_Torsional_Energy-OPLS-2005>
210.044097900391

> <r_mmod_Improper_Torsional_Energy-OPLS-2005>
5.53771257400513

> <r_mmod_Van_der_Waal_Energy-OPLS-2005>
150.730072021484

> <r_mmod_Electrostatic_Energy-OPLS-2005>
-347.121185302734

> <r_mmod_Solvation_Energy-OPLS-2005>
-230.090316772461

> <b_mmod_Minimization_Converged-OPLS-2005>
0

> <r_mmod_RMS_Derivative-OPLS-2005>
1.47317123413086

$$$$
50
                    3D
 Structure written by MMmdl.
152160  0  0  1  0            999 V2000
  -30.5736  -14.7748   20.4315 C   0  0  0  0  0  0
  -30.4291  -12.4636   19.4933 C   0  0  0  0  0  0
  -29.5143  -12.5121   18.2492 C   0  0  0  0  0  0
  -28.0374  -12.3310   18.6521 C   0  0  0  0  0  0
  -27.6365  -13.2342   19.8499 C   0  0  2  0  0  0
  -28.6743  -13.1743   20.9909 C   0  0  0  0  0  0
  -25.2482  -13.8191   20.5675 C   0  0  0  0  0  0
  -24.1784  -13.0452   20.9163 C   0  0  0  0  0  0
  -24.6381  -11.6928   20.8732 C   0  0  0  0  0  0
  -23.9075  -10.4288   21.0366 C   0  0  0  0  0  0
  -24.3615   -9.4193   21.9152 C   0  0  0  0  0  0
  -23.6277   -8.2237   22.0749 C   0  0  0  0  0  0
  -22.4270   -8.0260   21.3530 C   0  0  0  0  0  0
  -21.9890   -9.0237   20.4652 C   0  0  0  0  0  0
  -22.7226  -10.2110   20.3040 C   0  0  0  0  0  0
  -21.6859   -6.0709   22.5267 C   0  0  0  0  0  0
  -21.4018   -6.5627   23.8190 C   0  0  0  0  0  0
  -21.3657   -5.6787   24.9159 C   0  0  0  0  0  0
  -21.6042   -4.3046   24.7224 C   0  0  0  0  0  0
  -21.8821   -3.8128   23.4348 C   0  0  0  0  0  0
  -21.9192   -4.6937   22.3393 C   0  0  0  0  0  0
  -22.7794  -13.5213   21.1848 C   0  0  0  0  0  0
  -22.1658   -4.2123   21.0970 F   0  0  0  0  0  0
  -21.5625   -3.4536   25.7735 F   0  0  0  0  0  0
  -29.9777  -13.5311   20.4187 N   0  0  0  0  0  0
  -26.2906  -12.9415   20.3237 N   0  0  0  0  0  0
  -25.9310  -11.6555   20.5713 N   0  0  0  0  0  0
  -22.0484  -12.8196   22.0432 N   0  0  0  0  0  0
  -25.4167  -15.1929   20.4100 N   0  0  0  0  0  0
  -31.7576  -14.8717   20.0908 O   0  0  0  0  0  0
  -21.6636   -6.8857   21.4237 O   0  0  0  0  0  0
  -22.3455  -14.5514   20.6679 O   0  0  0  0  0  0
  -24.6313  -31.8479   23.1951 C   0  0  0  0  0  0
  -25.9125  -32.4726   23.8292 C   0  0  1  0  0  0
  -27.2259  -27.2539   20.1045 C   0  0  0  0  0  0
  -25.5897  -33.8532   24.2210 N   0  0  0  0  0  0
  -23.4314  -30.4689   21.5406 C   0  0  2  0  0  0
  -24.8807  -28.9141   20.1116 C   0  0  0  0  0  0
  -22.7527  -29.4548   22.4916 C   0  0  0  0  0  0
  -18.0286  -28.1417   22.8475 C   0  0  0  0  0  0
  -24.1483  -36.7290   23.2639 C   0  0  0  0  0  0
  -25.9773  -30.7591   21.3770 C   0  0  0  0  0  0
  -26.0517  -29.3812   20.7187 C   0  0  0  0  0  0
  -27.2261  -28.5607   20.7062 C   0  0  0  0  0  0
  -26.0247  -26.8468   19.4864 C   0  0  0  0  0  0
  -24.8710  -27.6559   19.4922 C   0  0  0  0  0  0
  -23.6526  -29.7987   20.1582 C   0  0  0  0  0  0
  -25.4103  -36.3067   24.0325 C   0  0  1  0  0  0
  -20.5890  -28.3703   23.1309 C   0  0  2  0  0  0
  -20.6765  -26.9422   22.5437 C   0  0  0  0  0  0
  -19.5743  -26.6390   21.5249 C   0  0  0  0  0  0
  -18.1912  -26.7940   22.1637 C   0  0  0  0  0  0
  -19.1539  -28.8880   23.2863 C   0  0  0  0  0  0
  -18.9459  -30.1476   23.8883 C   0  0  0  0  0  0
  -17.6467  -30.6604   24.0569 C   0  0  0  0  0  0
  -25.9062  -34.9424   23.5082 C   0  0  0  0  0  0
  -16.5358  -29.9109   23.6348 C   0  0  0  0  0  0
  -16.7273  -28.6542   23.0333 C   0  0  0  0  0  0
  -26.4480  -31.6591   25.0709 C   0  0  0  0  0  0
  -25.3689  -31.3816   26.1431 C   0  0  0  0  0  0
  -27.0286  -30.2973   24.6231 C   0  0  0  0  0  0
  -27.6028  -32.4340   25.7464 C   0  0  0  0  0  0
  -27.5570  -37.1765   24.8455 C   0  0  0  0  0  0
  -21.4231  -29.3030   22.3692 N   0  0  0  0  0  0
  -26.4279  -37.3765   23.9413 N   0  0  0  0  0  0
  -24.6996  -31.0434   22.0941 N   0  0  0  0  0  0
  -23.4221  -28.8080   23.3014 O   0  0  0  0  0  0
  -28.3287  -26.3669   20.1819 O   0  0  0  0  0  0
  -26.5658  -34.8900   22.4666 O   0  0  0  0  0  0
  -23.5459  -32.1299   23.7251 O   0  0  0  0  0  0
  -29.9156  -19.7354   18.5227 C   0  0  0  0  0  0
  -30.3122  -17.3167   18.6889 C   0  0  0  0  0  0
  -29.4601  -19.8234   19.8563 C   0  0  0  0  0  0
  -29.3839  -18.5447   20.5806 C   0  0  0  0  0  0
  -29.8465  -17.2650   20.0216 C   0  0  0  0  0  0
  -30.3298  -18.5157   17.9519 C   0  0  0  0  0  0
  -29.1315  -21.2559   20.3876 C   0  0  0  0  0  0
  -28.8640  -22.4550   19.7239 C   0  0  0  0  0  0
  -28.7157  -23.8597   20.2975 C   0  0  0  0  0  0
  -28.3254  -25.0349   19.6576 C   0  0  0  0  0  0
  -28.7887  -18.5621   21.9781 C   0  0  0  0  0  0
  -29.7930  -15.9111   20.6674 N   0  0  0  0  0  0
  -30.7614  -18.4940   16.6671 F   0  0  0  0  0  0
  -31.4715  -12.5864   19.1979 H   0  0  0  0  0  0
  -30.3745  -11.4860   19.9765 H   0  0  0  0  0  0
  -29.8010  -11.7410   17.5347 H   0  0  0  0  0  0
  -29.6386  -13.4658   17.7337 H   0  0  0  0  0  0
  -27.8959  -11.2839   18.9174 H   0  0  0  0  0  0
  -27.3831  -12.5130   17.7979 H   0  0  0  0  0  0
  -27.6286  -14.2541   19.4659 H   0  0  0  0  0  0
  -28.7079  -12.1772   21.4299 H   0  0  0  0  0  0
  -28.4027  -13.8499   21.8031 H   0  0  0  0  0  0
  -25.2765   -9.5663   22.4722 H   0  0  0  0  0  0
  -23.9977   -7.4631   22.7487 H   0  0  0  0  0  0
  -21.0796   -8.8746   19.8979 H   0  0  0  0  0  0
  -22.3653  -10.9638   19.6141 H   0  0  0  0  0  0
  -21.2023   -7.6142   23.9691 H   0  0  0  0  0  0
  -21.1480   -6.0516   25.9052 H   0  0  0  0  0  0
  -22.0612   -2.7598   23.2856 H   0  0  0  0  0  0
  -22.4122  -11.9845   22.4787 H   0  0  0  0  0  0
  -21.1107  -13.1199   22.2717 H   0  0  0  0  0  0
  -24.6458  -15.8444   20.5075 H   0  0  0  0  0  0
  -26.2661  -15.6330   20.0820 H   0  0  0  0  0  0
  -26.7180  -32.5344   23.1021 H   0  0  0  0  0  0
  -24.9992  -33.9703   25.0307 H   0  0  0  0  0  0
  -22.7246  -31.2878   21.3896 H   0  0  0  0  0  0
  -23.3769  -35.9607   23.3302 H   0  0  0  0  0  0
  -24.3593  -36.8926   22.2068 H   0  0  0  0  0  0
  -23.7213  -37.6460   23.6694 H   0  0  0  0  0  0
  -26.1123  -31.5190   20.6059 H   0  0  0  0  0  0
  -26.8546  -30.8098   22.0103 H   0  0  0  0  0  0
  -28.1251  -28.9044   21.1978 H   0  0  0  0  0  0
  -25.9481  -25.8740   19.0230 H   0  0  0  0  0  0
  -23.9667  -27.2912   19.0262 H   0  0  0  0  0  0
  -23.7767  -30.5694   19.3965 H   0  0  0  0  0  0
  -22.7695  -29.2302   19.8594 H   0  0  0  0  0  0
  -25.1289  -36.1906   25.0825 H   0  0  0  0  0  0
  -20.9929  -28.3261   24.1455 H   0  0  0  0  0  0
  -20.5686  -26.2305   23.3631 H   0  0  0  0  0  0
  -21.6621  -26.7425   22.1208 H   0  0  0  0  0  0
  -19.6905  -25.6304   21.1267 H   0  0  0  0  0  0
  -19.6711  -27.3217   20.6796 H   0  0  0  0  0  0
  -17.4186  -26.6736   21.4039 H   0  0  0  0  0  0
  -18.0251  -26.0092   22.9031 H   0  0  0  0  0  0
  -19.7944  -30.7292   24.2245 H   0  0  0  0  0  0
  -17.5018  -31.6267   24.5181 H   0  0  0  0  0  0
  -15.5348  -30.2998   23.7685 H   0  0  0  0  0  0
  -15.8663  -28.0871   22.7039 H   0  0  0  0  0  0
  -24.5864  -30.7164   25.7754 H   0  0  0  0  0  0
  -24.8896  -32.3040   26.4732 H   0  0  0  0  0  0
  -25.7951  -30.9059   27.0267 H   0  0  0  0  0  0
  -26.2857  -29.6743   24.1229 H   0  0  0  0  0  0
  -27.3897  -29.7226   25.4753 H   0  0  0  0  0  0
  -27.8766  -30.4202   23.9493 H   0  0  0  0  0  0
  -27.2646  -33.3676   26.1977 H   0  0  0  0  0  0
  -28.3850  -32.6837   25.0292 H   0  0  0  0  0  0
  -28.0685  -31.8516   26.5435 H   0  0  0  0  0  0
  -28.2551  -38.0081   24.7487 H   0  0  0  0  0  0
  -28.1080  -36.2602   24.6276 H   0  0  0  0  0  0
  -27.2313  -37.1401   25.8862 H   0  0  0  0  0  0
  -20.9440  -29.8767   21.6900 H   0  0  0  0  0  0
  -26.0172  -38.2825   24.1467 H   0  0  0  0  0  0
  -29.9873  -20.6259   17.9139 H   0  0  0  0  0  0
  -30.6394  -16.4171   18.1870 H   0  0  0  0  0  0
  -29.1760  -21.3324   21.4633 H   0  0  0  0  0  0
  -28.7861  -22.3931   18.6457 H   0  0  0  0  0  0
  -28.9947  -23.9702   21.3365 H   0  0  0  0  0  0
  -28.0165  -25.0352   18.6198 H   0  0  0  0  0  0
  -28.0477  -19.3578   22.0777 H   0  0  0  0  0  0
  -29.5634  -18.7276   22.7238 H   0  0  0  0  0  0
  -28.2773  -17.6295   22.2090 H   0  0  0  0  0  0
  -28.9456  -15.7209   21.1807 H   0  0  0  0  0  0
  1 25  1  0  0  0
  1 30  2  0  0  0
  1 82  1  0  0  0
  2  3  1  0  0  0
  2 25  1  0  0  0
  2 84  1  0  0  0
  2 85  1  0  0  0
  3  4  1  0  0  0
  3 86  1  0  0  0
  3 87  1  0  0  0
  4  5  1  0  0  0
  4 88  1  0  0  0
  4 89  1  0  0  0
  5  6  1  0  0  0
  5 26  1  0  0  0
  5 90  1  0  0  0
  6 25  1  0  0  0
  6 91  1  0  0  0
  6 92  1  0  0  0
  7  8  2  0  0  0
  7 26  1  0  0  0
  7 29  1  0  0  0
  8  9  1  0  0  0
  8 22  1  0  0  0
  9 10  1  0  0  0
  9 27  2  0  0  0
 10 11  2  0  0  0
 10 15  1  0  0  0
 11 12  1  0  0  0
 11 93  1  0  0  0
 12 13  2  0  0  0
 12 94  1  0  0  0
 13 14  1  0  0  0
 13 31  1  0  0  0
 14 15  2  0  0  0
 14 95  1  0  0  0
 15 96  1  0  0  0
 16 17  2  0  0  0
 16 21  1  0  0  0
 16 31  1  0  0  0
 17 18  1  0  0  0
 17 97  1  0  0  0
 18 19  2  0  0  0
 18 98  1  0  0  0
 19 20  1  0  0  0
 19 24  1  0  0  0
 20 21  2  0  0  0
 20 99  1  0  0  0
 21 23  1  0  0  0
 22 28  1  0  0  0
 22 32  2  0  0  0
 26 27  1  0  0  0
 28100  1  0  0  0
 28101  1  0  0  0
 29102  1  0  0  0
 29103  1  0  0  0
 33 34  1  0  0  0
 33 66  1  0  0  0
 33 70  2  0  0  0
 34 36  1  0  0  0
 34 59  1  0  0  0
 34104  1  0  0  0
 35 44  2  0  0  0
 35 45  1  0  0  0
 35 68  1  0  0  0
 36 56  1  0  0  0
 36105  1  0  0  0
 37 39  1  0  0  0
 37 47  1  0  0  0
 37 66  1  0  0  0
 37106  1  0  0  0
 38 43  2  0  0  0
 38 46  1  0  0  0
 38 47  1  0  0  0
 39 64  1  0  0  0
 39 67  2  0  0  0
 40 52  1  0  0  0
 40 53  2  0  0  0
 40 58  1  0  0  0
 41107  1  0  0  0
 41108  1  0  0  0
 41109  1  0  0  0
 41 48  1  0  0  0
 42 43  1  0  0  0
 42 66  1  0  0  0
 42110  1  0  0  0
 42111  1  0  0  0
 43 44  1  0  0  0
 44112  1  0  0  0
 45 46  2  0  0  0
 45113  1  0  0  0
 46114  1  0  0  0
 47115  1  0  0  0
 47116  1  0  0  0
 48 56  1  0  0  0
 48 65  1  0  0  0
 48117  1  0  0  0
 49 50  1  0  0  0
 49 53  1  0  0  0
 49 64  1  0  0  0
 49118  1  0  0  0
 50 51  1  0  0  0
 50119  1  0  0  0
 50120  1  0  0  0
 51 52  1  0  0  0
 51121  1  0  0  0
 51122  1  0  0  0
 52123  1  0  0  0
 52124  1  0  0  0
 53 54  1  0  0  0
 54 55  2  0  0  0
 54125  1  0  0  0
 55 57  1  0  0  0
 55126  1  0  0  0
 56 69  2  0  0  0
 57 58  2  0  0  0
 57127  1  0  0  0
 58128  1  0  0  0
 59 60  1  0  0  0
 59 61  1  0  0  0
 59 62  1  0  0  0
 60129  1  0  0  0
 60130  1  0  0  0
 60131  1  0  0  0
 61132  1  0  0  0
 61133  1  0  0  0
 61134  1  0  0  0
 62135  1  0  0  0
 62136  1  0  0  0
 62137  1  0  0  0
 63 65  1  0  0  0
 63138  1  0  0  0
 63139  1  0  0  0
 63140  1  0  0  0
 64141  1  0  0  0
 65142  1  0  0  0
 68 80  1  0  0  0
 71 73  2  0  0  0
 71 76  1  0  0  0
 71143  1  0  0  0
 72 75  1  0  0  0
 72 76  2  0  0  0
 72144  1  0  0  0
 73 74  1  0  0  0
 73 77  1  0  0  0
 74 75  2  0  0  0
 74 81  1  0  0  0
 75 82  1  0  0  0
 76 83  1  0  0  0
 77 78  2  0  0  0
 77145  1  0  0  0
 78 79  1  0  0  0
 78146  1  0  0  0
 79 80  2  0  0  0
 79147  1  0  0  0
 80148  1  0  0  0
 81149  1  0  0  0
 81150  1  0  0  0
 81151  1  0  0  0
 82152  1  0  0  0
M  ISO  4   1 100  68 101  80 101  82 100
M  END
> <chiral flag>
0

> <version>
0

> <s_m_source_file>
/data/baiqing/PycharmProjects/Reinvent-master-3.2/result/LINK_invent/BTK/process_docking_weight1_custom_product_contain_oxygen_bond_distance_aromatic_linkinvent_7_9_3/rearranged_h_0126.sdf

> <i_m_source_file_index>
51

> <r_mmod_Potential_Energy-OPLS-2005>
205.154556274414

> <r_mmod_Stretch_Energy-OPLS-2005>
135.356948852539

> <r_mmod_Bend_Energy-OPLS-2005>
150.720504760742

> <r_mmod_Torsional_Energy-OPLS-2005>
237.349273681641

> <r_mmod_Improper_Torsional_Energy-OPLS-2005>
5.88082933425903

> <r_mmod_Van_der_Waal_Energy-OPLS-2005>
139.52507019043

> <r_mmod_Electrostatic_Energy-OPLS-2005>
-358.114929199219

> <r_mmod_Solvation_Energy-OPLS-2005>
-200.903594970703

> <b_mmod_Minimization_Converged-OPLS-2005>
0

> <r_mmod_RMS_Derivative-OPLS-2005>
4.4460506439209

$$$$
51
                    3D
 Structure written by MMmdl.
158166  0  0  1  0            999 V2000
  -30.6376  -14.5861   20.3817 C   0  0  0  0  0  0
  -30.4142  -12.3245   19.4625 C   0  0  0  0  0  0
  -29.5072  -12.4782   18.2217 C   0  0  0  0  0  0
  -28.0269  -12.3035   18.6175 C   0  0  0  0  0  0
  -27.6330  -13.1916   19.8261 C   0  0  2  0  0  0
  -28.6767  -13.1069   20.9682 C   0  0  0  0  0  0
  -25.2541  -13.8116   20.5618 C   0  0  0  0  0  0
  -24.1791  -13.0425   20.9178 C   0  0  0  0  0  0
  -24.6343  -11.6891   20.8759 C   0  0  0  0  0  0
  -23.9030  -10.4307   21.0425 C   0  0  0  0  0  0
  -24.3599   -9.4232   21.9201 C   0  0  0  0  0  0
  -23.6337   -8.2230   22.0762 C   0  0  0  0  0  0
  -22.4323   -8.0274   21.3538 C   0  0  0  0  0  0
  -21.9934   -9.0242   20.4655 C   0  0  0  0  0  0
  -22.7226  -10.2125   20.3065 C   0  0  0  0  0  0
  -21.6851   -6.0753   22.5301 C   0  0  0  0  0  0
  -21.3998   -6.5651   23.8237 C   0  0  0  0  0  0
  -21.3638   -5.6811   24.9190 C   0  0  0  0  0  0
  -21.6050   -4.3068   24.7223 C   0  0  0  0  0  0
  -21.8831   -3.8167   23.4350 C   0  0  0  0  0  0
  -21.9182   -4.6996   22.3417 C   0  0  0  0  0  0
  -22.7828  -13.5238   21.1889 C   0  0  0  0  0  0
  -22.1664   -4.2185   21.0985 F   0  0  0  0  0  0
  -21.5629   -3.4536   25.7736 F   0  0  0  0  0  0
  -30.0090  -13.3775   20.4108 N   0  0  0  0  0  0
  -26.2871  -12.9208   20.3141 N   0  0  0  0  0  0
  -25.9232  -11.6429   20.5711 N   0  0  0  0  0  0
  -22.0423  -12.8258   22.0425 N   0  0  0  0  0  0
  -25.4365  -15.1843   20.4088 N   0  0  0  0  0  0
  -31.8528  -14.6666   20.1787 O   0  0  0  0  0  0
  -21.6676   -6.8886   21.4259 O   0  0  0  0  0  0
  -22.3561  -14.5516   20.6692 O   0  0  0  0  0  0
  -24.6174  -31.8660   23.2064 C   0  0  0  0  0  0
  -25.9033  -32.4786   23.8398 C   0  0  1  0  0  0
  -27.2298  -27.4043   20.1032 C   0  0  0  0  0  0
  -25.5889  -33.8580   24.2274 N   0  0  0  0  0  0
  -23.4083  -30.4895   21.5501 C   0  0  2  0  0  0
  -24.8526  -28.9551   20.1113 C   0  0  0  0  0  0
  -22.7443  -29.4668   22.4993 C   0  0  0  0  0  0
  -18.0270  -28.1393   22.8499 C   0  0  0  0  0  0
  -24.1483  -36.7302   23.2656 C   0  0  0  0  0  0
  -25.9438  -30.8185   21.3736 C   0  0  0  0  0  0
  -26.0177  -29.4587   20.7050 C   0  0  0  0  0  0
  -27.2121  -28.6956   20.6864 C   0  0  0  0  0  0
  -26.0466  -26.9335   19.4864 C   0  0  0  0  0  0
  -24.8651  -27.6952   19.4955 C   0  0  0  0  0  0
  -23.6130  -29.8164   20.1669 C   0  0  0  0  0  0
  -25.4103  -36.3084   24.0350 C   0  0  1  0  0  0
  -20.5868  -28.3693   23.1313 C   0  0  2  0  0  0
  -20.6743  -26.9426   22.5426 C   0  0  0  0  0  0
  -19.5731  -26.6380   21.5231 C   0  0  0  0  0  0
  -18.1902  -26.7967   22.1592 C   0  0  0  0  0  0
  -19.1522  -28.8859   23.2888 C   0  0  0  0  0  0
  -18.9433  -30.1477   23.8863 C   0  0  0  0  0  0
  -17.6442  -30.6592   24.0551 C   0  0  0  0  0  0
  -25.9047  -34.9455   23.5103 C   0  0  0  0  0  0
  -16.5348  -29.9071   23.6359 C   0  0  0  0  0  0
  -16.7275  -28.6505   23.0384 C   0  0  0  0  0  0
  -26.4413  -31.6606   25.0769 C   0  0  0  0  0  0
  -25.3644  -31.3776   26.1502 C   0  0  0  0  0  0
  -27.0236  -30.3009   24.6253 C   0  0  0  0  0  0
  -27.5986  -32.4381   25.7517 C   0  0  0  0  0  0
  -27.5598  -37.1768   24.8423 C   0  0  0  0  0  0
  -21.4174  -29.3021   22.3710 N   0  0  0  0  0  0
  -26.4272  -37.3785   23.9442 N   0  0  0  0  0  0
  -24.6737  -31.0745   22.0971 N   0  0  0  0  0  0
  -23.4207  -28.8236   23.3071 O   0  0  0  0  0  0
  -28.3696  -26.6148   20.1533 O   0  0  0  0  0  0
  -26.5638  -34.8931   22.4677 O   0  0  0  0  0  0
  -23.5344  -32.1405   23.7432 O   0  0  0  0  0  0
  -30.0101  -19.5054   20.1071 C   0  0  0  0  0  0
  -27.8255  -19.5462   18.3780 C   0  0  0  0  0  0
  -29.5211  -18.2658   19.6039 C   0  0  0  0  0  0
  -28.4072  -18.3046   18.7153 C   0  0  0  0  0  0
  -28.3429  -20.7682   18.8536 C   0  0  0  0  0  0
  -29.4345  -20.7605   19.7653 C   0  0  0  0  0  0
  -30.2597  -17.0084   19.9590 C   0  0  0  0  0  0
  -29.7609  -15.7762   20.2539 C   0  0  0  0  0  0
  -29.3635  -24.3261   20.5589 C   0  0  0  0  0  0
  -27.8818  -17.0696   17.9887 C   0  0  0  0  0  0
  -27.7520  -22.0601   18.2971 C   0  0  0  0  0  0
  -28.1112  -25.2305   20.5028 C   0  0  0  0  0  0
  -29.1165  -22.8433   20.9479 C   0  0  0  0  0  0
  -30.4981  -24.7603   20.3264 O   0  0  0  0  0  0
  -29.9983  -21.9263   20.2645 O   0  0  0  0  0  0
  -31.4644  -12.4004   19.1849 H   0  0  0  0  0  0
  -30.2955  -11.3356   19.9103 H   0  0  0  0  0  0
  -29.7920  -11.7612   17.4487 H   0  0  0  0  0  0
  -29.6524  -13.4695   17.7858 H   0  0  0  0  0  0
  -27.8608  -11.2504   18.8461 H   0  0  0  0  0  0
  -27.3809  -12.5310   17.7690 H   0  0  0  0  0  0
  -27.6120  -14.1942   19.4160 H   0  0  0  0  0  0
  -28.6701  -12.1182   21.4297 H   0  0  0  0  0  0
  -28.4360  -13.8167   21.7615 H   0  0  0  0  0  0
  -25.2725   -9.5776   22.4767 H   0  0  0  0  0  0
  -24.0092   -7.4629   22.7431 H   0  0  0  0  0  0
  -21.0871   -8.8739   19.8956 H   0  0  0  0  0  0
  -22.3684  -10.9665   19.6150 H   0  0  0  0  0  0
  -21.1994   -7.6156   23.9799 H   0  0  0  0  0  0
  -21.1434   -6.0485   25.9111 H   0  0  0  0  0  0
  -22.0614   -2.7642   23.2814 H   0  0  0  0  0  0
  -22.4002  -11.9911   22.4858 H   0  0  0  0  0  0
  -21.1027  -13.1321   22.2590 H   0  0  0  0  0  0
  -24.6842  -15.8519   20.5415 H   0  0  0  0  0  0
  -26.3080  -15.6144   20.1310 H   0  0  0  0  0  0
  -26.7127  -32.5445   23.1197 H   0  0  0  0  0  0
  -24.9953  -33.9742   25.0367 H   0  0  0  0  0  0
  -22.6971  -31.3057   21.4058 H   0  0  0  0  0  0
  -23.3760  -35.9608   23.3225 H   0  0  0  0  0  0
  -24.3588  -36.9013   22.2081 H   0  0  0  0  0  0
  -23.7194  -37.6461   23.6738 H   0  0  0  0  0  0
  -26.0877  -31.5976   20.6232 H   0  0  0  0  0  0
  -26.8206  -30.8412   22.0124 H   0  0  0  0  0  0
  -28.1129  -29.0774   21.1436 H   0  0  0  0  0  0
  -26.0107  -25.9763   18.9872 H   0  0  0  0  0  0
  -23.9714  -27.3064   19.0256 H   0  0  0  0  0  0
  -23.7040  -30.5806   19.3948 H   0  0  0  0  0  0
  -22.7418  -29.2227   19.8876 H   0  0  0  0  0  0
  -25.1267  -36.1927   25.0847 H   0  0  0  0  0  0
  -20.9935  -28.3249   24.1454 H   0  0  0  0  0  0
  -20.5659  -26.2317   23.3617 H   0  0  0  0  0  0
  -21.6614  -26.7471   22.1235 H   0  0  0  0  0  0
  -19.6885  -25.6271   21.1302 H   0  0  0  0  0  0
  -19.6726  -27.3160   20.6747 H   0  0  0  0  0  0
  -17.4223  -26.6834   21.3925 H   0  0  0  0  0  0
  -18.0210  -26.0092   22.8944 H   0  0  0  0  0  0
  -19.7898  -30.7322   24.2221 H   0  0  0  0  0  0
  -17.4982  -31.6279   24.5143 H   0  0  0  0  0  0
  -15.5338  -30.2953   23.7713 H   0  0  0  0  0  0
  -15.8676  -28.0821   22.7098 H   0  0  0  0  0  0
  -24.5843  -30.7097   25.7825 H   0  0  0  0  0  0
  -24.8827  -32.2955   26.4889 H   0  0  0  0  0  0
  -25.7953  -30.8976   27.0297 H   0  0  0  0  0  0
  -26.2800  -29.6807   24.1225 H   0  0  0  0  0  0
  -27.3788  -29.7241   25.4799 H   0  0  0  0  0  0
  -27.8770  -30.4224   23.9583 H   0  0  0  0  0  0
  -27.2553  -33.3663   26.2114 H   0  0  0  0  0  0
  -28.3780  -32.6970   25.0336 H   0  0  0  0  0  0
  -28.0703  -31.8528   26.5420 H   0  0  0  0  0  0
  -28.2518  -38.0156   24.7597 H   0  0  0  0  0  0
  -28.1191  -36.2701   24.6053 H   0  0  0  0  0  0
  -27.2372  -37.1157   25.8830 H   0  0  0  0  0  0
  -20.9364  -29.8674   21.6854 H   0  0  0  0  0  0
  -26.0142  -38.2864   24.1440 H   0  0  0  0  0  0
  -30.8755  -19.4948   20.7562 H   0  0  0  0  0  0
  -27.0060  -19.5735   17.6720 H   0  0  0  0  0  0
  -31.3367  -17.1105   19.9042 H   0  0  0  0  0  0
  -28.6939  -15.6854   20.3449 H   0  0  0  0  0  0
  -27.3569  -17.3373   17.0675 H   0  0  0  0  0  0
  -27.1806  -16.5048   18.6004 H   0  0  0  0  0  0
  -28.6968  -16.4121   17.6875 H   0  0  0  0  0  0
  -27.4124  -21.9391   17.2679 H   0  0  0  0  0  0
  -28.4967  -22.8543   18.2759 H   0  0  0  0  0  0
  -26.8943  -22.3855   18.8865 H   0  0  0  0  0  0
  -27.6180  -25.1874   21.4750 H   0  0  0  0  0  0
  -27.4432  -24.7637   19.7807 H   0  0  0  0  0  0
  -28.0689  -22.5968   20.7809 H   0  0  0  0  0  0
  -29.2793  -22.7294   22.0211 H   0  0  0  0  0  0
  1 25  1  0  0  0
  1 30  2  0  0  0
  1 78  1  0  0  0
  2  3  1  0  0  0
  2 25  1  0  0  0
  2 86  1  0  0  0
  2 87  1  0  0  0
  3  4  1  0  0  0
  3 88  1  0  0  0
  3 89  1  0  0  0
  4  5  1  0  0  0
  4 90  1  0  0  0
  4 91  1  0  0  0
  5  6  1  0  0  0
  5 26  1  0  0  0
  5 92  1  0  0  0
  6 25  1  0  0  0
  6 93  1  0  0  0
  6 94  1  0  0  0
  7  8  2  0  0  0
  7 26  1  0  0  0
  7 29  1  0  0  0
  8  9  1  0  0  0
  8 22  1  0  0  0
  9 10  1  0  0  0
  9 27  2  0  0  0
 10 11  2  0  0  0
 10 15  1  0  0  0
 11 12  1  0  0  0
 11 95  1  0  0  0
 12 13  2  0  0  0
 12 96  1  0  0  0
 13 14  1  0  0  0
 13 31  1  0  0  0
 14 15  2  0  0  0
 14 97  1  0  0  0
 15 98  1  0  0  0
 16 17  2  0  0  0
 16 21  1  0  0  0
 16 31  1  0  0  0
 17 18  1  0  0  0
 17 99  1  0  0  0
 18 19  2  0  0  0
 18100  1  0  0  0
 19 20  1  0  0  0
 19 24  1  0  0  0
 20 21  2  0  0  0
 20101  1  0  0  0
 21 23  1  0  0  0
 22 28  1  0  0  0
 22 32  2  0  0  0
 26 27  1  0  0  0
 28102  1  0  0  0
 28103  1  0  0  0
 29104  1  0  0  0
 29105  1  0  0  0
 33 34  1  0  0  0
 33 66  1  0  0  0
 33 70  2  0  0  0
 34 36  1  0  0  0
 34 59  1  0  0  0
 34106  1  0  0  0
 35 44  2  0  0  0
 35 45  1  0  0  0
 35 68  1  0  0  0
 36 56  1  0  0  0
 36107  1  0  0  0
 37 39  1  0  0  0
 37 47  1  0  0  0
 37 66  1  0  0  0
 37108  1  0  0  0
 38 43  2  0  0  0
 38 46  1  0  0  0
 38 47  1  0  0  0
 39 64  1  0  0  0
 39 67  2  0  0  0
 40 52  1  0  0  0
 40 53  2  0  0  0
 40 58  1  0  0  0
 41109  1  0  0  0
 41110  1  0  0  0
 41111  1  0  0  0
 41 48  1  0  0  0
 42 43  1  0  0  0
 42 66  1  0  0  0
 42112  1  0  0  0
 42113  1  0  0  0
 43 44  1  0  0  0
 44114  1  0  0  0
 45 46  2  0  0  0
 45115  1  0  0  0
 46116  1  0  0  0
 47117  1  0  0  0
 47118  1  0  0  0
 48 56  1  0  0  0
 48 65  1  0  0  0
 48119  1  0  0  0
 49 50  1  0  0  0
 49 53  1  0  0  0
 49 64  1  0  0  0
 49120  1  0  0  0
 50 51  1  0  0  0
 50121  1  0  0  0
 50122  1  0  0  0
 51 52  1  0  0  0
 51123  1  0  0  0
 51124  1  0  0  0
 52125  1  0  0  0
 52126  1  0  0  0
 53 54  1  0  0  0
 54 55  2  0  0  0
 54127  1  0  0  0
 55 57  1  0  0  0
 55128  1  0  0  0
 56 69  2  0  0  0
 57 58  2  0  0  0
 57129  1  0  0  0
 58130  1  0  0  0
 59 60  1  0  0  0
 59 61  1  0  0  0
 59 62  1  0  0  0
 60131  1  0  0  0
 60132  1  0  0  0
 60133  1  0  0  0
 61134  1  0  0  0
 61135  1  0  0  0
 61136  1  0  0  0
 62137  1  0  0  0
 62138  1  0  0  0
 62139  1  0  0  0
 63 65  1  0  0  0
 63140  1  0  0  0
 63141  1  0  0  0
 63142  1  0  0  0
 64143  1  0  0  0
 65144  1  0  0  0
 68 82  1  0  0  0
 71 73  2  0  0  0
 71 76  1  0  0  0
 71145  1  0  0  0
 72 74  2  0  0  0
 72 75  1  0  0  0
 72146  1  0  0  0
 73 74  1  0  0  0
 73 77  1  0  0  0
 74 80  1  0  0  0
 75 76  2  0  0  0
 75 81  1  0  0  0
 76 85  1  0  0  0
 77 78  2  0  0  0
 77147  1  0  0  0
 78148  1  0  0  0
 79 82  1  0  0  0
 79 83  1  0  0  0
 79 84  2  0  0  0
 80149  1  0  0  0
 80150  1  0  0  0
 80151  1  0  0  0
 81152  1  0  0  0
 81153  1  0  0  0
 81154  1  0  0  0
 82155  1  0  0  0
 82156  1  0  0  0
 83 85  1  0  0  0
 83157  1  0  0  0
 83158  1  0  0  0
M  ISO  4   1 100  68 101  78 100  82 101
M  END
> <chiral flag>
0

> <version>
0

> <s_m_source_file>
/data/baiqing/PycharmProjects/Reinvent-master-3.2/result/LINK_invent/BTK/process_docking_weight1_custom_product_contain_oxygen_bond_distance_aromatic_linkinvent_7_9_3/rearranged_h_0126.sdf

> <i_m_source_file_index>
52

> <r_mmod_Potential_Energy-OPLS-2005>
62.3993225097656

> <r_mmod_Stretch_Energy-OPLS-2005>
48.7308387756348

> <r_mmod_Bend_Energy-OPLS-2005>
107.691062927246

> <r_mmod_Torsional_Energy-OPLS-2005>
246.235885620117

> <r_mmod_Improper_Torsional_Energy-OPLS-2005>
10.0241870880127

> <r_mmod_Van_der_Waal_Energy-OPLS-2005>
153.513122558594

> <r_mmod_Electrostatic_Energy-OPLS-2005>
-312.588989257812

> <r_mmod_Solvation_Energy-OPLS-2005>
-229.571044921875

> <b_mmod_Minimization_Converged-OPLS-2005>
0

> <r_mmod_RMS_Derivative-OPLS-2005>
6.40731334686279

$$$$
52
                    3D
 Structure written by MMmdl.
158166  0  0  1  0            999 V2000
  -30.5744  -14.8579   20.5072 C   0  0  0  0  0  0
  -30.4476  -12.5380   19.5031 C   0  0  0  0  0  0
  -29.5254  -12.5463   18.2597 C   0  0  0  0  0  0
  -28.0526  -12.3397   18.6625 C   0  0  0  0  0  0
  -27.6450  -13.2353   19.8597 C   0  0  2  0  0  0
  -28.6824  -13.1610   20.9988 C   0  0  0  0  0  0
  -25.2507  -13.8188   20.5673 C   0  0  0  0  0  0
  -24.1804  -13.0434   20.9197 C   0  0  0  0  0  0
  -24.6402  -11.6912   20.8741 C   0  0  0  0  0  0
  -23.9075  -10.4290   21.0405 C   0  0  0  0  0  0
  -24.3622   -9.4204   21.9184 C   0  0  0  0  0  0
  -23.6294   -8.2242   22.0755 C   0  0  0  0  0  0
  -22.4276   -8.0282   21.3545 C   0  0  0  0  0  0
  -21.9914   -9.0255   20.4645 C   0  0  0  0  0  0
  -22.7246  -10.2132   20.3055 C   0  0  0  0  0  0
  -21.6854   -6.0735   22.5275 C   0  0  0  0  0  0
  -21.4015   -6.5637   23.8209 C   0  0  0  0  0  0
  -21.3659   -5.6792   24.9172 C   0  0  0  0  0  0
  -21.6044   -4.3054   24.7224 C   0  0  0  0  0  0
  -21.8820   -3.8145   23.4345 C   0  0  0  0  0  0
  -21.9193   -4.6963   22.3400 C   0  0  0  0  0  0
  -22.7825  -13.5216   21.1864 C   0  0  0  0  0  0
  -22.1661   -4.2149   21.0979 F   0  0  0  0  0  0
  -21.5630   -3.4537   25.7737 F   0  0  0  0  0  0
  -29.9821  -13.5931   20.4507 N   0  0  0  0  0  0
  -26.2945  -12.9402   20.3287 N   0  0  0  0  0  0
  -25.9337  -11.6538   20.5747 N   0  0  0  0  0  0
  -22.0477  -12.8206   22.0427 N   0  0  0  0  0  0
  -25.4171  -15.1903   20.4035 N   0  0  0  0  0  0
  -31.6909  -14.9998   19.9930 O   0  0  0  0  0  0
  -21.6639   -6.8879   21.4237 O   0  0  0  0  0  0
  -22.3503  -14.5519   20.6714 O   0  0  0  0  0  0
  -24.6406  -31.8479   23.1938 C   0  0  0  0  0  0
  -25.9193  -32.4715   23.8310 C   0  0  1  0  0  0
  -27.2163  -27.1666   20.1300 C   0  0  0  0  0  0
  -25.5959  -33.8524   24.2221 N   0  0  0  0  0  0
  -23.4422  -30.4712   21.5383 C   0  0  2  0  0  0
  -24.8910  -28.9123   20.1066 C   0  0  0  0  0  0
  -22.7549  -29.4568   22.4862 C   0  0  0  0  0  0
  -18.0302  -28.1400   22.8481 C   0  0  0  0  0  0
  -24.1483  -36.7259   23.2641 C   0  0  0  0  0  0
  -25.9982  -30.7263   21.3954 C   0  0  0  0  0  0
  -26.0660  -29.3425   20.7341 C   0  0  0  0  0  0
  -27.2235  -28.4811   20.7426 C   0  0  0  0  0  0
  -26.0199  -26.8525   19.4396 C   0  0  0  0  0  0
  -24.8797  -27.6780   19.4480 C   0  0  0  0  0  0
  -23.6666  -29.8097   20.1543 C   0  0  0  0  0  0
  -25.4116  -36.3044   24.0317 C   0  0  1  0  0  0
  -20.5915  -28.3721   23.1235 C   0  0  2  0  0  0
  -20.6795  -26.9427   22.5397 C   0  0  0  0  0  0
  -19.5763  -26.6385   21.5213 C   0  0  0  0  0  0
  -18.1943  -26.7939   22.1625 C   0  0  0  0  0  0
  -19.1560  -28.8880   23.2852 C   0  0  0  0  0  0
  -18.9480  -30.1477   23.8878 C   0  0  0  0  0  0
  -17.6477  -30.6598   24.0562 C   0  0  0  0  0  0
  -25.9066  -34.9417   23.5070 C   0  0  0  0  0  0
  -16.5367  -29.9089   23.6344 C   0  0  0  0  0  0
  -16.7288  -28.6509   23.0364 C   0  0  0  0  0  0
  -26.4524  -31.6584   25.0746 C   0  0  0  0  0  0
  -25.3713  -31.3769   26.1446 C   0  0  0  0  0  0
  -27.0395  -30.2982   24.6327 C   0  0  0  0  0  0
  -27.6058  -32.4354   25.7518 C   0  0  0  0  0  0
  -27.5572  -37.1785   24.8466 C   0  0  0  0  0  0
  -21.4248  -29.3054   22.3611 N   0  0  0  0  0  0
  -26.4282  -37.3757   23.9411 N   0  0  0  0  0  0
  -24.7130  -31.0355   22.0973 N   0  0  0  0  0  0
  -23.4204  -28.8105   23.2997 O   0  0  0  0  0  0
  -28.2719  -26.1911   20.2457 O   0  0  0  0  0  0
  -26.5641  -34.8903   22.4641 O   0  0  0  0  0  0
  -23.5528  -32.1353   23.7163 O   0  0  0  0  0  0
  -30.4535  -19.8593   19.8156 C   0  0  0  0  0  0
  -30.6049  -18.4399   20.0904 C   0  0  0  0  0  0
  -28.4363  -19.9042   21.0085 C   0  0  0  0  0  0
  -29.3608  -20.6812   20.2569 C   0  0  0  0  0  0
  -29.6697  -17.6453   20.8326 C   0  0  0  0  0  0
  -28.5503  -18.4782   21.2611 C   0  0  0  0  0  0
  -29.1698  -22.2009   19.8377 C   0  0  0  0  0  0
  -28.5720  -23.3628   20.3668 C   0  0  0  0  0  0
  -29.8817  -16.1101   21.3054 C   0  0  0  0  0  0
  -27.3631  -18.2264   23.5055 C   0  0  0  0  0  0
  -28.8215  -24.8971   18.2342 C   0  0  0  0  0  0
  -27.3507  -17.8940   22.0063 C   0  0  0  0  0  0
  -28.1991  -24.7768   19.6317 C   0  0  2  0  0  0
  -29.5279  -15.8570   22.4956 N   0  0  0  0  0  0
  -31.4839  -12.6886   19.1965 H   0  0  0  0  0  0
  -30.4304  -11.5599   19.9865 H   0  0  0  0  0  0
  -29.8329  -11.7716   17.5560 H   0  0  0  0  0  0
  -29.6305  -13.4969   17.7351 H   0  0  0  0  0  0
  -27.9270  -11.2896   18.9302 H   0  0  0  0  0  0
  -27.3950  -12.5181   17.8107 H   0  0  0  0  0  0
  -27.6418  -14.2603   19.4887 H   0  0  0  0  0  0
  -28.7505  -12.1441   21.3881 H   0  0  0  0  0  0
  -28.3528  -13.7640   21.8409 H   0  0  0  0  0  0
  -25.2768   -9.5681   22.4758 H   0  0  0  0  0  0
  -24.0002   -7.4634   22.7476 H   0  0  0  0  0  0
  -21.0843   -8.8776   19.8951 H   0  0  0  0  0  0
  -22.3705  -10.9672   19.6163 H   0  0  0  0  0  0
  -21.2006   -7.6144   23.9714 H   0  0  0  0  0  0
  -21.1480   -6.0520   25.9077 H   0  0  0  0  0  0
  -22.0599   -2.7606   23.2845 H   0  0  0  0  0  0
  -22.4102  -11.9864   22.4801 H   0  0  0  0  0  0
  -21.1100  -13.1233   22.2652 H   0  0  0  0  0  0
  -24.6469  -15.8418   20.5044 H   0  0  0  0  0  0
  -26.2624  -15.6244   20.0570 H   0  0  0  0  0  0
  -26.7255  -32.5325   23.1035 H   0  0  0  0  0  0
  -25.0124  -33.9654   25.0380 H   0  0  0  0  0  0
  -22.7438  -31.2975   21.3893 H   0  0  0  0  0  0
  -23.3756  -35.9582   23.3296 H   0  0  0  0  0  0
  -24.3570  -36.8896   22.2059 H   0  0  0  0  0  0
  -23.7226  -37.6448   23.6681 H   0  0  0  0  0  0
  -26.1560  -31.4820   20.6248 H   0  0  0  0  0  0
  -26.8688  -30.7713   22.0383 H   0  0  0  0  0  0
  -28.1116  -28.7998   21.2708 H   0  0  0  0  0  0
  -25.8952  -25.9398   18.8838 H   0  0  0  0  0  0
  -23.9882  -27.3484   18.9325 H   0  0  0  0  0  0
  -23.7994  -30.5894   19.4032 H   0  0  0  0  0  0
  -22.7827  -29.2505   19.8427 H   0  0  0  0  0  0
  -25.1295  -36.1883   25.0809 H   0  0  0  0  0  0
  -21.0013  -28.3321   24.1353 H   0  0  0  0  0  0
  -20.5709  -26.2333   23.3616 H   0  0  0  0  0  0
  -21.6659  -26.7447   22.1181 H   0  0  0  0  0  0
  -19.6924  -25.6291   21.1259 H   0  0  0  0  0  0
  -19.6706  -27.3187   20.6738 H   0  0  0  0  0  0
  -17.4213  -26.6694   21.4025 H   0  0  0  0  0  0
  -18.0337  -26.0080   22.9020 H   0  0  0  0  0  0
  -19.7955  -30.7300   24.2239 H   0  0  0  0  0  0
  -17.5030  -31.6279   24.5164 H   0  0  0  0  0  0
  -15.5369  -30.2987   23.7681 H   0  0  0  0  0  0
  -15.8686  -28.0821   22.7094 H   0  0  0  0  0  0
  -24.5893  -30.7113   25.7775 H   0  0  0  0  0  0
  -24.8900  -32.2949   26.4830 H   0  0  0  0  0  0
  -25.8000  -30.8976   27.0256 H   0  0  0  0  0  0
  -26.3019  -29.6706   24.1316 H   0  0  0  0  0  0
  -27.3992  -29.7283   25.4905 H   0  0  0  0  0  0
  -27.8929  -30.4222   23.9657 H   0  0  0  0  0  0
  -27.2661  -33.3686   26.2022 H   0  0  0  0  0  0
  -28.3902  -32.6871   25.0366 H   0  0  0  0  0  0
  -28.0688  -31.8531   26.5495 H   0  0  0  0  0  0
  -28.2580  -38.0090   24.7519 H   0  0  0  0  0  0
  -28.1074  -36.2622   24.6283 H   0  0  0  0  0  0
  -27.2287  -37.1416   25.8866 H   0  0  0  0  0  0
  -20.9454  -29.8771   21.6799 H   0  0  0  0  0  0
  -26.0150  -38.2820   24.1439 H   0  0  0  0  0  0
  -31.2267  -20.3324   19.2264 H   0  0  0  0  0  0
  -31.4984  -17.9510   19.7278 H   0  0  0  0  0  0
  -27.5549  -20.4159   21.3697 H   0  0  0  0  0  0
  -29.5305  -22.3405   18.8293 H   0  0  0  0  0  0
  -28.2090  -23.3005   21.3827 H   0  0  0  0  0  0
  -26.4907  -17.8014   24.0024 H   0  0  0  0  0  0
  -27.3413  -19.3040   23.6713 H   0  0  0  0  0  0
  -28.2494  -17.8346   24.0032 H   0  0  0  0  0  0
  -28.6291  -24.0139   17.6252 H   0  0  0  0  0  0
  -29.8998  -25.0422   18.2965 H   0  0  0  0  0  0
  -28.4035  -25.7485   17.6961 H   0  0  0  0  0  0
  -27.2528  -16.8214   21.8490 H   0  0  0  0  0  0
  -26.4428  -18.3094   21.5658 H   0  0  0  0  0  0
  -27.1516  -24.5459   19.4841 H   0  0  0  0  0  0
  -29.1391  -16.6851   22.9291 H   0  0  0  0  0  0
  1 25  1  0  0  0
  1 30  2  0  0  0
  1 79  1  0  0  0
  2  3  1  0  0  0
  2 25  1  0  0  0
  2 85  1  0  0  0
  2 86  1  0  0  0
  3  4  1  0  0  0
  3 87  1  0  0  0
  3 88  1  0  0  0
  4  5  1  0  0  0
  4 89  1  0  0  0
  4 90  1  0  0  0
  5  6  1  0  0  0
  5 26  1  0  0  0
  5 91  1  0  0  0
  6 25  1  0  0  0
  6 92  1  0  0  0
  6 93  1  0  0  0
  7  8  2  0  0  0
  7 26  1  0  0  0
  7 29  1  0  0  0
  8  9  1  0  0  0
  8 22  1  0  0  0
  9 10  1  0  0  0
  9 27  2  0  0  0
 10 11  2  0  0  0
 10 15  1  0  0  0
 11 12  1  0  0  0
 11 94  1  0  0  0
 12 13  2  0  0  0
 12 95  1  0  0  0
 13 14  1  0  0  0
 13 31  1  0  0  0
 14 15  2  0  0  0
 14 96  1  0  0  0
 15 97  1  0  0  0
 16 17  2  0  0  0
 16 21  1  0  0  0
 16 31  1  0  0  0
 17 18  1  0  0  0
 17 98  1  0  0  0
 18 19  2  0  0  0
 18 99  1  0  0  0
 19 20  1  0  0  0
 19 24  1  0  0  0
 20 21  2  0  0  0
 20100  1  0  0  0
 21 23  1  0  0  0
 22 28  1  0  0  0
 22 32  2  0  0  0
 26 27  1  0  0  0
 28101  1  0  0  0
 28102  1  0  0  0
 29103  1  0  0  0
 29104  1  0  0  0
 33 34  1  0  0  0
 33 66  1  0  0  0
 33 70  2  0  0  0
 34 36  1  0  0  0
 34 59  1  0  0  0
 34105  1  0  0  0
 35 44  2  0  0  0
 35 45  1  0  0  0
 35 68  1  0  0  0
 36 56  1  0  0  0
 36106  1  0  0  0
 37 39  1  0  0  0
 37 47  1  0  0  0
 37 66  1  0  0  0
 37107  1  0  0  0
 38 43  2  0  0  0
 38 46  1  0  0  0
 38 47  1  0  0  0
 39 64  1  0  0  0
 39 67  2  0  0  0
 40 52  1  0  0  0
 40 53  2  0  0  0
 40 58  1  0  0  0
 41108  1  0  0  0
 41109  1  0  0  0
 41110  1  0  0  0
 41 48  1  0  0  0
 42 43  1  0  0  0
 42 66  1  0  0  0
 42111  1  0  0  0
 42112  1  0  0  0
 43 44  1  0  0  0
 44113  1  0  0  0
 45 46  2  0  0  0
 45114  1  0  0  0
 46115  1  0  0  0
 47116  1  0  0  0
 47117  1  0  0  0
 48 56  1  0  0  0
 48 65  1  0  0  0
 48118  1  0  0  0
 49 50  1  0  0  0
 49 53  1  0  0  0
 49 64  1  0  0  0
 49119  1  0  0  0
 50 51  1  0  0  0
 50120  1  0  0  0
 50121  1  0  0  0
 51 52  1  0  0  0
 51122  1  0  0  0
 51123  1  0  0  0
 52124  1  0  0  0
 52125  1  0  0  0
 53 54  1  0  0  0
 54 55  2  0  0  0
 54126  1  0  0  0
 55 57  1  0  0  0
 55127  1  0  0  0
 56 69  2  0  0  0
 57 58  2  0  0  0
 57128  1  0  0  0
 58129  1  0  0  0
 59 60  1  0  0  0
 59 61  1  0  0  0
 59 62  1  0  0  0
 60130  1  0  0  0
 60131  1  0  0  0
 60132  1  0  0  0
 61133  1  0  0  0
 61134  1  0  0  0
 61135  1  0  0  0
 62136  1  0  0  0
 62137  1  0  0  0
 62138  1  0  0  0
 63 65  1  0  0  0
 63139  1  0  0  0
 63140  1  0  0  0
 63141  1  0  0  0
 64142  1  0  0  0
 65143  1  0  0  0
 68 83  1  0  0  0
 71 72  2  0  0  0
 71 74  1  0  0  0
 71144  1  0  0  0
 72 75  1  0  0  0
 72145  1  0  0  0
 73 74  2  0  0  0
 73 76  1  0  0  0
 73146  1  0  0  0
 74 77  1  0  0  0
 75 76  2  0  0  0
 75 79  1  0  0  0
 76 82  1  0  0  0
 77 78  2  0  0  0
 77147  1  0  0  0
 78 83  1  0  0  0
 78148  1  0  0  0
 79 84  2  0  0  0
 80 82  1  0  0  0
 80149  1  0  0  0
 80150  1  0  0  0
 80151  1  0  0  0
 81152  1  0  0  0
 81153  1  0  0  0
 81154  1  0  0  0
 81 83  1  0  0  0
 82155  1  0  0  0
 82156  1  0  0  0
 83157  1  0  0  0
 84158  1  0  0  0
M  ISO  4   1 100  68 101  79 100  83 101
M  END
> <chiral flag>
0

> <version>
0

> <s_m_source_file>
/data/baiqing/PycharmProjects/Reinvent-master-3.2/result/LINK_invent/BTK/process_docking_weight1_custom_product_contain_oxygen_bond_distance_aromatic_linkinvent_7_9_3/rearranged_h_0126.sdf

> <i_m_source_file_index>
53

> <r_mmod_Potential_Energy-OPLS-2005>
572.686767578125

> <r_mmod_Stretch_Energy-OPLS-2005>
220.509735107422

> <r_mmod_Bend_Energy-OPLS-2005>
260.064178466797

> <r_mmod_Torsional_Energy-OPLS-2005>
210.831787109375

> <r_mmod_Improper_Torsional_Energy-OPLS-2005>
6.26255702972412

> <r_mmod_Van_der_Waal_Energy-OPLS-2005>
147.385787963867

> <r_mmod_Electrostatic_Energy-OPLS-2005>
-234.262802124023

> <r_mmod_Solvation_Energy-OPLS-2005>
-186.756683349609

> <b_mmod_Minimization_Converged-OPLS-2005>
0

> <r_mmod_RMS_Derivative-OPLS-2005>
0.851642489433289

$$$$
53
                    3D
 Structure written by MMmdl.
154162  0  0  1  0            999 V2000
  -30.6166  -14.7180   20.4584 C   0  0  0  0  0  0
  -30.4296  -12.4326   19.4859 C   0  0  0  0  0  0
  -29.5143  -12.5157   18.2438 C   0  0  0  0  0  0
  -28.0369  -12.3496   18.6470 C   0  0  0  0  0  0
  -27.6471  -13.2341   19.8618 C   0  0  2  0  0  0
  -28.6884  -13.1451   21.0008 C   0  0  0  0  0  0
  -25.2523  -13.8211   20.5709 C   0  0  0  0  0  0
  -24.1806  -13.0451   20.9197 C   0  0  0  0  0  0
  -24.6398  -11.6929   20.8735 C   0  0  0  0  0  0
  -23.9069  -10.4305   21.0393 C   0  0  0  0  0  0
  -24.3622   -9.4221   21.9172 C   0  0  0  0  0  0
  -23.6301   -8.2253   22.0747 C   0  0  0  0  0  0
  -22.4281   -8.0286   21.3543 C   0  0  0  0  0  0
  -21.9914   -9.0256   20.4641 C   0  0  0  0  0  0
  -22.7238  -10.2139   20.3046 C   0  0  0  0  0  0
  -21.6861   -6.0732   22.5279 C   0  0  0  0  0  0
  -21.4014   -6.5637   23.8211 C   0  0  0  0  0  0
  -21.3667   -5.6789   24.9173 C   0  0  0  0  0  0
  -21.6048   -4.3052   24.7222 C   0  0  0  0  0  0
  -21.8817   -3.8142   23.4345 C   0  0  0  0  0  0
  -21.9194   -4.6958   22.3401 C   0  0  0  0  0  0
  -22.7827  -13.5227   21.1863 C   0  0  0  0  0  0
  -22.1660   -4.2142   21.0976 F   0  0  0  0  0  0
  -21.5640   -3.4536   25.7735 F   0  0  0  0  0  0
  -29.9998  -13.4870   20.4346 N   0  0  0  0  0  0
  -26.2959  -12.9422   20.3315 N   0  0  0  0  0  0
  -25.9333  -11.6560   20.5754 N   0  0  0  0  0  0
  -22.0479  -12.8212   22.0425 N   0  0  0  0  0  0
  -25.4223  -15.1940   20.4156 N   0  0  0  0  0  0
  -31.7823  -14.8293   20.0669 O   0  0  0  0  0  0
  -21.6652   -6.8878   21.4242 O   0  0  0  0  0  0
  -22.3504  -14.5527   20.6706 O   0  0  0  0  0  0
  -24.6313  -31.8561   23.1998 C   0  0  0  0  0  0
  -25.9145  -32.4754   23.8338 C   0  0  1  0  0  0
  -27.2173  -27.2624   20.1224 C   0  0  0  0  0  0
  -25.5940  -33.8555   24.2262 N   0  0  0  0  0  0
  -23.4275  -30.4817   21.5417 C   0  0  2  0  0  0
  -24.8744  -28.9328   20.1059 C   0  0  0  0  0  0
  -22.7501  -29.4617   22.4889 C   0  0  0  0  0  0
  -18.0299  -28.1387   22.8486 C   0  0  0  0  0  0
  -24.1493  -36.7287   23.2639 C   0  0  0  0  0  0
  -25.9740  -30.7669   21.3835 C   0  0  0  0  0  0
  -26.0444  -29.3906   20.7243 C   0  0  0  0  0  0
  -27.2146  -28.5653   20.7285 C   0  0  0  0  0  0
  -26.0305  -26.8904   19.4480 C   0  0  0  0  0  0
  -24.8730  -27.6905   19.4576 C   0  0  0  0  0  0
  -23.6462  -29.8202   20.1559 C   0  0  0  0  0  0
  -25.4114  -36.3065   24.0328 C   0  0  1  0  0  0
  -20.5904  -28.3704   23.1261 C   0  0  2  0  0  0
  -20.6787  -26.9421   22.5402 C   0  0  0  0  0  0
  -19.5756  -26.6383   21.5212 C   0  0  0  0  0  0
  -18.1940  -26.7929   22.1630 C   0  0  0  0  0  0
  -19.1554  -28.8860   23.2874 C   0  0  0  0  0  0
  -18.9473  -30.1458   23.8895 C   0  0  0  0  0  0
  -17.6472  -30.6585   24.0563 C   0  0  0  0  0  0
  -25.9054  -34.9438   23.5093 C   0  0  0  0  0  0
  -16.5364  -29.9083   23.6327 C   0  0  0  0  0  0
  -16.7288  -28.6503   23.0348 C   0  0  0  0  0  0
  -26.4506  -31.6574   25.0726 C   0  0  0  0  0  0
  -25.3724  -31.3733   26.1441 C   0  0  0  0  0  0
  -27.0352  -30.2984   24.6224 C   0  0  0  0  0  0
  -27.6054  -32.4316   25.7506 C   0  0  0  0  0  0
  -27.5577  -37.1802   24.8464 C   0  0  0  0  0  0
  -21.4207  -29.3054   22.3639 N   0  0  0  0  0  0
  -26.4288  -37.3764   23.9407 N   0  0  0  0  0  0
  -24.6964  -31.0529   22.0977 N   0  0  0  0  0  0
  -23.4203  -28.8150   23.2985 O   0  0  0  0  0  0
  -28.3100  -26.3635   20.2145 O   0  0  0  0  0  0
  -26.5622  -34.8915   22.4658 O   0  0  0  0  0  0
  -23.5465  -32.1384   23.7293 O   0  0  0  0  0  0
  -29.9403  -17.1955   18.7154 C   0  0  0  0  0  0
  -29.5587  -19.6186   18.6365 C   0  0  0  0  0  0
  -29.6048  -18.4560   20.7756 C   0  0  0  0  0  0
  -29.8425  -17.1698   20.1238 C   0  0  0  0  0  0
  -29.4691  -19.7173   20.0453 C   0  0  0  0  0  0
  -29.7961  -18.3917   17.9891 C   0  0  0  0  0  0
  -29.5068  -18.4805   22.2899 C   0  0  0  0  0  0
  -28.9341  -23.7000   20.5785 C   0  0  0  0  0  0
  -28.1531  -24.9111   19.8439 C   0  0  0  0  0  0
  -28.9063  -22.2257   19.9041 C   0  0  0  0  0  0
  -29.8725  -15.8405   20.7878 N   0  0  0  0  0  0
  -29.2785  -20.9928   20.6689 O   0  0  0  0  0  0
  -29.8773  -18.3613   16.6369 F   0  0  0  0  0  0
  -31.4747  -12.5398   19.1913 H   0  0  0  0  0  0
  -30.3546  -11.4495   19.9538 H   0  0  0  0  0  0
  -29.7923  -11.7506   17.5180 H   0  0  0  0  0  0
  -29.6543  -13.4758   17.7446 H   0  0  0  0  0  0
  -27.8791  -11.2979   18.8881 H   0  0  0  0  0  0
  -27.3866  -12.5665   17.7980 H   0  0  0  0  0  0
  -27.6493  -14.2625   19.4997 H   0  0  0  0  0  0
  -28.7111  -12.1413   21.4269 H   0  0  0  0  0  0
  -28.4245  -13.8154   21.8198 H   0  0  0  0  0  0
  -25.2765   -9.5706   22.4746 H   0  0  0  0  0  0
  -24.0019   -7.4646   22.7462 H   0  0  0  0  0  0
  -21.0848   -8.8761   19.8949 H   0  0  0  0  0  0
  -22.3683  -10.9671   19.6157 H   0  0  0  0  0  0
  -21.1999   -7.6142   23.9709 H   0  0  0  0  0  0
  -21.1501   -6.0521   25.9077 H   0  0  0  0  0  0
  -22.0591   -2.7602   23.2843 H   0  0  0  0  0  0
  -22.4102  -11.9879   22.4816 H   0  0  0  0  0  0
  -21.1090  -13.1222   22.2620 H   0  0  0  0  0  0
  -24.6560  -15.8486   20.5298 H   0  0  0  0  0  0
  -26.2758  -15.6366   20.0998 H   0  0  0  0  0  0
  -26.7209  -32.5403   23.1075 H   0  0  0  0  0  0
  -25.0084  -33.9688   25.0405 H   0  0  0  0  0  0
  -22.7247  -31.3049   21.3974 H   0  0  0  0  0  0
  -23.3747  -35.9628   23.3294 H   0  0  0  0  0  0
  -24.3588  -36.8913   22.2055 H   0  0  0  0  0  0
  -23.7260  -37.6494   23.6665 H   0  0  0  0  0  0
  -26.1165  -31.5286   20.6155 H   0  0  0  0  0  0
  -26.8510  -30.8129   22.0175 H   0  0  0  0  0  0
  -28.1049  -28.9053   21.2383 H   0  0  0  0  0  0
  -25.9551  -25.9621   18.9036 H   0  0  0  0  0  0
  -23.9826  -27.3422   18.9519 H   0  0  0  0  0  0
  -23.7735  -30.5998   19.4038 H   0  0  0  0  0  0
  -22.7632  -29.2574   19.8471 H   0  0  0  0  0  0
  -25.1298  -36.1905   25.0822 H   0  0  0  0  0  0
  -21.0017  -28.3291   24.1373 H   0  0  0  0  0  0
  -20.5688  -26.2321   23.3614 H   0  0  0  0  0  0
  -21.6654  -26.7435   22.1195 H   0  0  0  0  0  0
  -19.6916  -25.6290   21.1250 H   0  0  0  0  0  0
  -19.6687  -27.3188   20.6739 H   0  0  0  0  0  0
  -17.4209  -26.6682   21.4033 H   0  0  0  0  0  0
  -18.0336  -26.0066   22.9024 H   0  0  0  0  0  0
  -19.7949  -30.7277   24.2261 H   0  0  0  0  0  0
  -17.5026  -31.6264   24.5166 H   0  0  0  0  0  0
  -15.5365  -30.2986   23.7641 H   0  0  0  0  0  0
  -15.8693  -28.0822   22.7052 H   0  0  0  0  0  0
  -24.5907  -30.7068   25.7773 H   0  0  0  0  0  0
  -24.8905  -32.2907   26.4832 H   0  0  0  0  0  0
  -25.8037  -30.8937   27.0236 H   0  0  0  0  0  0
  -26.2939  -29.6728   24.1237 H   0  0  0  0  0  0
  -27.4009  -29.7250   25.4752 H   0  0  0  0  0  0
  -27.8832  -30.4241   23.9488 H   0  0  0  0  0  0
  -27.2652  -33.3619   26.2066 H   0  0  0  0  0  0
  -28.3881  -32.6866   25.0350 H   0  0  0  0  0  0
  -28.0702  -31.8452   26.5440 H   0  0  0  0  0  0
  -28.2586  -38.0105   24.7497 H   0  0  0  0  0  0
  -28.1079  -36.2632   24.6297 H   0  0  0  0  0  0
  -27.2297  -37.1460   25.8868 H   0  0  0  0  0  0
  -20.9380  -29.8786   21.6858 H   0  0  0  0  0  0
  -26.0161  -38.2838   24.1394 H   0  0  0  0  0  0
  -30.0925  -16.2818   18.1593 H   0  0  0  0  0  0
  -29.4596  -20.4833   18.0011 H   0  0  0  0  0  0
  -28.8230  -17.7098   22.6449 H   0  0  0  0  0  0
  -29.1454  -19.4403   22.6596 H   0  0  0  0  0  0
  -30.4870  -18.2948   22.7304 H   0  0  0  0  0  0
  -28.5325  -23.6166   21.5887 H   0  0  0  0  0  0
  -29.9774  -23.9891   20.7075 H   0  0  0  0  0  0
  -27.1113  -24.6167   19.9479 H   0  0  0  0  0  0
  -28.3733  -24.8498   18.7776 H   0  0  0  0  0  0
  -29.5551  -22.3056   19.0338 H   0  0  0  0  0  0
  -27.9011  -22.0549   19.5171 H   0  0  0  0  0  0
  -29.0630  -15.6401   21.3559 H   0  0  0  0  0  0
  1 25  1  0  0  0
  1 30  2  0  0  0
  1 81  1  0  0  0
  2  3  1  0  0  0
  2 25  1  0  0  0
  2 84  1  0  0  0
  2 85  1  0  0  0
  3  4  1  0  0  0
  3 86  1  0  0  0
  3 87  1  0  0  0
  4  5  1  0  0  0
  4 88  1  0  0  0
  4 89  1  0  0  0
  5  6  1  0  0  0
  5 26  1  0  0  0
  5 90  1  0  0  0
  6 25  1  0  0  0
  6 91  1  0  0  0
  6 92  1  0  0  0
  7  8  2  0  0  0
  7 26  1  0  0  0
  7 29  1  0  0  0
  8  9  1  0  0  0
  8 22  1  0  0  0
  9 10  1  0  0  0
  9 27  2  0  0  0
 10 11  2  0  0  0
 10 15  1  0  0  0
 11 12  1  0  0  0
 11 93  1  0  0  0
 12 13  2  0  0  0
 12 94  1  0  0  0
 13 14  1  0  0  0
 13 31  1  0  0  0
 14 15  2  0  0  0
 14 95  1  0  0  0
 15 96  1  0  0  0
 16 17  2  0  0  0
 16 21  1  0  0  0
 16 31  1  0  0  0
 17 18  1  0  0  0
 17 97  1  0  0  0
 18 19  2  0  0  0
 18 98  1  0  0  0
 19 20  1  0  0  0
 19 24  1  0  0  0
 20 21  2  0  0  0
 20 99  1  0  0  0
 21 23  1  0  0  0
 22 28  1  0  0  0
 22 32  2  0  0  0
 26 27  1  0  0  0
 28100  1  0  0  0
 28101  1  0  0  0
 29102  1  0  0  0
 29103  1  0  0  0
 33 34  1  0  0  0
 33 66  1  0  0  0
 33 70  2  0  0  0
 34 36  1  0  0  0
 34 59  1  0  0  0
 34104  1  0  0  0
 35 44  2  0  0  0
 35 45  1  0  0  0
 35 68  1  0  0  0
 36 56  1  0  0  0
 36105  1  0  0  0
 37 39  1  0  0  0
 37 47  1  0  0  0
 37 66  1  0  0  0
 37106  1  0  0  0
 38 43  2  0  0  0
 38 46  1  0  0  0
 38 47  1  0  0  0
 39 64  1  0  0  0
 39 67  2  0  0  0
 40 52  1  0  0  0
 40 53  2  0  0  0
 40 58  1  0  0  0
 41107  1  0  0  0
 41108  1  0  0  0
 41109  1  0  0  0
 41 48  1  0  0  0
 42 43  1  0  0  0
 42 66  1  0  0  0
 42110  1  0  0  0
 42111  1  0  0  0
 43 44  1  0  0  0
 44112  1  0  0  0
 45 46  2  0  0  0
 45113  1  0  0  0
 46114  1  0  0  0
 47115  1  0  0  0
 47116  1  0  0  0
 48 56  1  0  0  0
 48 65  1  0  0  0
 48117  1  0  0  0
 49 50  1  0  0  0
 49 53  1  0  0  0
 49 64  1  0  0  0
 49118  1  0  0  0
 50 51  1  0  0  0
 50119  1  0  0  0
 50120  1  0  0  0
 51 52  1  0  0  0
 51121  1  0  0  0
 51122  1  0  0  0
 52123  1  0  0  0
 52124  1  0  0  0
 53 54  1  0  0  0
 54 55  2  0  0  0
 54125  1  0  0  0
 55 57  1  0  0  0
 55126  1  0  0  0
 56 69  2  0  0  0
 57 58  2  0  0  0
 57127  1  0  0  0
 58128  1  0  0  0
 59 60  1  0  0  0
 59 61  1  0  0  0
 59 62  1  0  0  0
 60129  1  0  0  0
 60130  1  0  0  0
 60131  1  0  0  0
 61132  1  0  0  0
 61133  1  0  0  0
 61134  1  0  0  0
 62135  1  0  0  0
 62136  1  0  0  0
 62137  1  0  0  0
 63 65  1  0  0  0
 63138  1  0  0  0
 63139  1  0  0  0
 63140  1  0  0  0
 64141  1  0  0  0
 65142  1  0  0  0
 68 79  1  0  0  0
 71 74  2  0  0  0
 71 76  1  0  0  0
 71143  1  0  0  0
 72 75  1  0  0  0
 72 76  2  0  0  0
 72144  1  0  0  0
 73 74  1  0  0  0
 73 75  2  0  0  0
 73 77  1  0  0  0
 74 81  1  0  0  0
 75 82  1  0  0  0
 76 83  1  0  0  0
 77145  1  0  0  0
 77146  1  0  0  0
 77147  1  0  0  0
 78 79  1  0  0  0
 78 80  1  0  0  0
 78148  1  0  0  0
 78149  1  0  0  0
 79150  1  0  0  0
 79151  1  0  0  0
 80 82  1  0  0  0
 80152  1  0  0  0
 80153  1  0  0  0
 81154  1  0  0  0
M  ISO  4   1 100  68 101  79 101  81 100
M  END
> <chiral flag>
0

> <version>
0

> <s_m_source_file>
/data/baiqing/PycharmProjects/Reinvent-master-3.2/result/LINK_invent/BTK/process_docking_weight1_custom_product_contain_oxygen_bond_distance_aromatic_linkinvent_7_9_3/rearranged_h_0126.sdf

> <i_m_source_file_index>
54

> <r_mmod_Potential_Energy-OPLS-2005>
177.002029418945

> <r_mmod_Stretch_Energy-OPLS-2005>
125.523475646973

> <r_mmod_Bend_Energy-OPLS-2005>
165.668655395508

> <r_mmod_Torsional_Energy-OPLS-2005>
237.996444702148

> <r_mmod_Improper_Torsional_Energy-OPLS-2005>
4.63980150222778

> <r_mmod_Van_der_Waal_Energy-OPLS-2005>
145.436859130859

> <r_mmod_Electrostatic_Energy-OPLS-2005>
-370.771392822266

> <r_mmod_Solvation_Energy-OPLS-2005>
-211.318756103516

> <b_mmod_Minimization_Converged-OPLS-2005>
0

> <r_mmod_RMS_Derivative-OPLS-2005>
1.00577008724213

$$$$
54
                    3D
 Structure written by MMmdl.
156164  0  0  1  0            999 V2000
  -30.6436  -14.6634   20.4749 C   0  0  0  0  0  0
  -30.4405  -12.4050   19.4525 C   0  0  0  0  0  0
  -29.5079  -12.5073   18.2250 C   0  0  0  0  0  0
  -28.0318  -12.3440   18.6400 C   0  0  0  0  0  0
  -27.6482  -13.2190   19.8634 C   0  0  2  0  0  0
  -28.7043  -13.1030   20.9882 C   0  0  0  0  0  0
  -25.2374  -13.7993   20.5628 C   0  0  0  0  0  0
  -24.1732  -13.0271   20.9246 C   0  0  0  0  0  0
  -24.6388  -11.6797   20.8795 C   0  0  0  0  0  0
  -23.9069  -10.4206   21.0424 C   0  0  0  0  0  0
  -24.3617   -9.4138   21.9204 C   0  0  0  0  0  0
  -23.6273   -8.2191   22.0767 C   0  0  0  0  0  0
  -22.4259   -8.0250   21.3545 C   0  0  0  0  0  0
  -21.9897   -9.0227   20.4648 C   0  0  0  0  0  0
  -22.7246  -10.2087   20.3062 C   0  0  0  0  0  0
  -21.6836   -6.0720   22.5279 C   0  0  0  0  0  0
  -21.4010   -6.5629   23.8211 C   0  0  0  0  0  0
  -21.3654   -5.6782   24.9171 C   0  0  0  0  0  0
  -21.6042   -4.3045   24.7220 C   0  0  0  0  0  0
  -21.8822   -3.8133   23.4343 C   0  0  0  0  0  0
  -21.9188   -4.6951   22.3400 C   0  0  0  0  0  0
  -22.7760  -13.5096   21.1873 C   0  0  0  0  0  0
  -22.1659   -4.2142   21.0973 F   0  0  0  0  0  0
  -21.5625   -3.4527   25.7732 F   0  0  0  0  0  0
  -30.0184  -13.4418   20.4135 N   0  0  0  0  0  0
  -26.2941  -12.9302   20.3342 N   0  0  0  0  0  0
  -25.9338  -11.6453   20.5833 N   0  0  0  0  0  0
  -22.0393  -12.8146   22.0452 N   0  0  0  0  0  0
  -25.3621  -15.1652   20.3823 N   0  0  0  0  0  0
  -31.8221  -14.7983   20.1349 O   0  0  0  0  0  0
  -21.6613   -6.8860   21.4241 O   0  0  0  0  0  0
  -22.3477  -14.5408   20.6697 O   0  0  0  0  0  0
  -24.6246  -31.8607   23.2039 C   0  0  0  0  0  0
  -25.9097  -32.4782   23.8371 C   0  0  1  0  0  0
  -27.2370  -27.3366   20.1043 C   0  0  0  0  0  0
  -25.5916  -33.8579   24.2300 N   0  0  0  0  0  0
  -23.4191  -30.4840   21.5459 C   0  0  2  0  0  0
  -24.8674  -28.9414   20.1127 C   0  0  0  0  0  0
  -22.7473  -29.4618   22.4930 C   0  0  0  0  0  0
  -18.0292  -28.1383   22.8481 C   0  0  0  0  0  0
  -24.1491  -36.7296   23.2636 C   0  0  0  0  0  0
  -25.9598  -30.7951   21.3752 C   0  0  0  0  0  0
  -26.0362  -29.4242   20.7158 C   0  0  0  0  0  0
  -27.2221  -28.6330   20.7038 C   0  0  0  0  0  0
  -26.0402  -26.9024   19.4845 C   0  0  0  0  0  0
  -24.8700  -27.6843   19.4921 C   0  0  0  0  0  0
  -23.6355  -29.8211   20.1607 C   0  0  0  0  0  0
  -25.4107  -36.3081   24.0337 C   0  0  1  0  0  0
  -20.5888  -28.3686   23.1273 C   0  0  2  0  0  0
  -20.6780  -26.9410   22.5400 C   0  0  0  0  0  0
  -19.5754  -26.6382   21.5202 C   0  0  0  0  0  0
  -18.1938  -26.7925   22.1624 C   0  0  0  0  0  0
  -19.1542  -28.8851   23.2876 C   0  0  0  0  0  0
  -18.9467  -30.1453   23.8896 C   0  0  0  0  0  0
  -17.6466  -30.6581   24.0563 C   0  0  0  0  0  0
  -25.9044  -34.9449   23.5120 C   0  0  0  0  0  0
  -16.5358  -29.9080   23.6326 C   0  0  0  0  0  0
  -16.7278  -28.6498   23.0345 C   0  0  0  0  0  0
  -26.4493  -31.6582   25.0730 C   0  0  0  0  0  0
  -25.3738  -31.3725   26.1472 C   0  0  0  0  0  0
  -27.0331  -30.3008   24.6174 C   0  0  0  0  0  0
  -27.6080  -32.4299   25.7474 C   0  0  0  0  0  0
  -27.5586  -37.1789   24.8456 C   0  0  0  0  0  0
  -21.4186  -29.3041   22.3670 N   0  0  0  0  0  0
  -26.4284  -37.3776   23.9419 N   0  0  0  0  0  0
  -24.6865  -31.0625   22.0992 N   0  0  0  0  0  0
  -23.4199  -28.8153   23.3007 O   0  0  0  0  0  0
  -28.3696  -26.5070   20.1400 O   0  0  0  0  0  0
  -26.5610  -34.8910   22.4685 O   0  0  0  0  0  0
  -23.5410  -32.1399   23.7370 O   0  0  0  0  0  0
  -31.2314  -19.3421   20.7370 C   0  0  0  0  0  0
  -31.1867  -17.9127   20.7971 C   0  0  0  0  0  0
  -28.9087  -19.4207   20.1753 C   0  0  0  0  0  0
  -30.0906  -20.1437   20.4443 C   0  0  0  0  0  0
  -28.8516  -17.9994   20.2369 C   0  0  0  0  0  0
  -29.9844  -17.1923   20.5655 C   0  0  0  0  0  0
  -30.1510  -21.6646   20.4451 C   0  0  0  0  0  0
  -29.1706  -22.5917   20.1853 C   0  0  0  0  0  0
  -29.3556  -24.1004   20.2574 C   0  0  0  0  0  0
  -27.4346  -16.9071   18.4617 C   0  0  0  0  0  0
  -27.5188  -17.3648   19.9252 C   0  0  0  0  0  0
  -28.1623  -25.0626   19.8954 C   0  0  0  0  0  0
  -29.8295  -15.7374   20.7234 N   0  0  0  0  0  0
  -30.4317  -24.6033   20.5982 O   0  0  0  0  0  0
  -31.4814  -12.5248   19.1462 H   0  0  0  0  0  0
  -30.3740  -11.4158   19.9091 H   0  0  0  0  0  0
  -29.7725  -11.7495   17.4861 H   0  0  0  0  0  0
  -29.6469  -13.4739   17.7361 H   0  0  0  0  0  0
  -27.8744  -11.2909   18.8788 H   0  0  0  0  0  0
  -27.3764  -12.5648   17.7967 H   0  0  0  0  0  0
  -27.6503  -14.2487   19.5135 H   0  0  0  0  0  0
  -28.7215  -12.0900   21.3936 H   0  0  0  0  0  0
  -28.4551  -13.7559   21.8259 H   0  0  0  0  0  0
  -25.2763   -9.5610   22.4781 H   0  0  0  0  0  0
  -23.9963   -7.4579   22.7491 H   0  0  0  0  0  0
  -21.0822   -8.8766   19.8956 H   0  0  0  0  0  0
  -22.3730  -10.9636   19.6169 H   0  0  0  0  0  0
  -21.2014   -7.6143   23.9714 H   0  0  0  0  0  0
  -21.1466   -6.0510   25.9073 H   0  0  0  0  0  0
  -22.0609   -2.7594   23.2844 H   0  0  0  0  0  0
  -22.3983  -11.9817   22.4878 H   0  0  0  0  0  0
  -21.1018  -13.1213   22.2635 H   0  0  0  0  0  0
  -24.5451  -15.7650   20.4260 H   0  0  0  0  0  0
  -26.1364  -15.5875   19.8903 H   0  0  0  0  0  0
  -26.7167  -32.5465   23.1125 H   0  0  0  0  0  0
  -25.0062  -33.9730   25.0445 H   0  0  0  0  0  0
  -22.7123  -31.3041   21.4031 H   0  0  0  0  0  0
  -23.3750  -35.9630   23.3278 H   0  0  0  0  0  0
  -24.3603  -36.8930   22.2056 H   0  0  0  0  0  0
  -23.7238  -37.6492   23.6666 H   0  0  0  0  0  0
  -26.0916  -31.5610   20.6097 H   0  0  0  0  0  0
  -26.8391  -30.8421   22.0056 H   0  0  0  0  0  0
  -28.1187  -28.9996   21.1843 H   0  0  0  0  0  0
  -25.9777  -25.9458   18.9882 H   0  0  0  0  0  0
  -23.9741  -27.3081   19.0158 H   0  0  0  0  0  0
  -23.7578  -30.5995   19.4066 H   0  0  0  0  0  0
  -22.7561  -29.2520   19.8539 H   0  0  0  0  0  0
  -25.1277  -36.1941   25.0828 H   0  0  0  0  0  0
  -20.9985  -28.3268   24.1394 H   0  0  0  0  0  0
  -20.5678  -26.2301   23.3601 H   0  0  0  0  0  0
  -21.6652  -26.7436   22.1197 H   0  0  0  0  0  0
  -19.6915  -25.6293   21.1233 H   0  0  0  0  0  0
  -19.6684  -27.3190   20.6730 H   0  0  0  0  0  0
  -17.4201  -26.6655   21.4039 H   0  0  0  0  0  0
  -18.0351  -26.0070   22.9023 H   0  0  0  0  0  0
  -19.7945  -30.7268   24.2266 H   0  0  0  0  0  0
  -17.5021  -31.6262   24.5164 H   0  0  0  0  0  0
  -15.5359  -30.2984   23.7640 H   0  0  0  0  0  0
  -15.8682  -28.0814   22.7058 H   0  0  0  0  0  0
  -24.5876  -30.7117   25.7799 H   0  0  0  0  0  0
  -24.8977  -32.2898   26.4949 H   0  0  0  0  0  0
  -25.8060  -30.8848   27.0218 H   0  0  0  0  0  0
  -26.2899  -29.6746   24.1224 H   0  0  0  0  0  0
  -27.4066  -29.7276   25.4669 H   0  0  0  0  0  0
  -27.8756  -30.4303   23.9376 H   0  0  0  0  0  0
  -27.2733  -33.3612   26.2053 H   0  0  0  0  0  0
  -28.3878  -32.6822   25.0276 H   0  0  0  0  0  0
  -28.0757  -31.8414   26.5377 H   0  0  0  0  0  0
  -28.2569  -38.0120   24.7548 H   0  0  0  0  0  0
  -28.1115  -36.2655   24.6213 H   0  0  0  0  0  0
  -27.2319  -37.1353   25.8860 H   0  0  0  0  0  0
  -20.9362  -29.8791   21.6901 H   0  0  0  0  0  0
  -26.0166  -38.2845   24.1443 H   0  0  0  0  0  0
  -32.1730  -19.8331   20.9404 H   0  0  0  0  0  0
  -32.0891  -17.3769   21.0553 H   0  0  0  0  0  0
  -28.0084  -19.9646   19.9282 H   0  0  0  0  0  0
  -31.1237  -22.0611   20.7042 H   0  0  0  0  0  0
  -28.1822  -22.2528   19.9139 H   0  0  0  0  0  0
  -26.4579  -16.4848   18.2283 H   0  0  0  0  0  0
  -28.1904  -16.1566   18.2303 H   0  0  0  0  0  0
  -27.5913  -17.7473   17.7847 H   0  0  0  0  0  0
  -26.7116  -18.0680   20.1387 H   0  0  0  0  0  0
  -27.3851  -16.5477   20.6266 H   0  0  0  0  0  0
  -27.2953  -24.7236   20.4634 H   0  0  0  0  0  0
  -27.9324  -24.9161   18.8399 H   0  0  0  0  0  0
  -28.8832  -15.4443   20.9062 H   0  0  0  0  0  0
  1 25  1  0  0  0
  1 30  2  0  0  0
  1 83  1  0  0  0
  2  3  1  0  0  0
  2 25  1  0  0  0
  2 85  1  0  0  0
  2 86  1  0  0  0
  3  4  1  0  0  0
  3 87  1  0  0  0
  3 88  1  0  0  0
  4  5  1  0  0  0
  4 89  1  0  0  0
  4 90  1  0  0  0
  5  6  1  0  0  0
  5 26  1  0  0  0
  5 91  1  0  0  0
  6 25  1  0  0  0
  6 92  1  0  0  0
  6 93  1  0  0  0
  7  8  2  0  0  0
  7 26  1  0  0  0
  7 29  1  0  0  0
  8  9  1  0  0  0
  8 22  1  0  0  0
  9 10  1  0  0  0
  9 27  2  0  0  0
 10 11  2  0  0  0
 10 15  1  0  0  0
 11 12  1  0  0  0
 11 94  1  0  0  0
 12 13  2  0  0  0
 12 95  1  0  0  0
 13 14  1  0  0  0
 13 31  1  0  0  0
 14 15  2  0  0  0
 14 96  1  0  0  0
 15 97  1  0  0  0
 16 17  2  0  0  0
 16 21  1  0  0  0
 16 31  1  0  0  0
 17 18  1  0  0  0
 17 98  1  0  0  0
 18 19  2  0  0  0
 18 99  1  0  0  0
 19 20  1  0  0  0
 19 24  1  0  0  0
 20 21  2  0  0  0
 20100  1  0  0  0
 21 23  1  0  0  0
 22 28  1  0  0  0
 22 32  2  0  0  0
 26 27  1  0  0  0
 28101  1  0  0  0
 28102  1  0  0  0
 29103  1  0  0  0
 29104  1  0  0  0
 33 34  1  0  0  0
 33 66  1  0  0  0
 33 70  2  0  0  0
 34 36  1  0  0  0
 34 59  1  0  0  0
 34105  1  0  0  0
 35 44  2  0  0  0
 35 45  1  0  0  0
 35 68  1  0  0  0
 36 56  1  0  0  0
 36106  1  0  0  0
 37 39  1  0  0  0
 37 47  1  0  0  0
 37 66  1  0  0  0
 37107  1  0  0  0
 38 43  2  0  0  0
 38 46  1  0  0  0
 38 47  1  0  0  0
 39 64  1  0  0  0
 39 67  2  0  0  0
 40 52  1  0  0  0
 40 53  2  0  0  0
 40 58  1  0  0  0
 41108  1  0  0  0
 41109  1  0  0  0
 41110  1  0  0  0
 41 48  1  0  0  0
 42 43  1  0  0  0
 42 66  1  0  0  0
 42111  1  0  0  0
 42112  1  0  0  0
 43 44  1  0  0  0
 44113  1  0  0  0
 45 46  2  0  0  0
 45114  1  0  0  0
 46115  1  0  0  0
 47116  1  0  0  0
 47117  1  0  0  0
 48 56  1  0  0  0
 48 65  1  0  0  0
 48118  1  0  0  0
 49 50  1  0  0  0
 49 53  1  0  0  0
 49 64  1  0  0  0
 49119  1  0  0  0
 50 51  1  0  0  0
 50120  1  0  0  0
 50121  1  0  0  0
 51 52  1  0  0  0
 51122  1  0  0  0
 51123  1  0  0  0
 52124  1  0  0  0
 52125  1  0  0  0
 53 54  1  0  0  0
 54 55  2  0  0  0
 54126  1  0  0  0
 55 57  1  0  0  0
 55127  1  0  0  0
 56 69  2  0  0  0
 57 58  2  0  0  0
 57128  1  0  0  0
 58129  1  0  0  0
 59 60  1  0  0  0
 59 61  1  0  0  0
 59 62  1  0  0  0
 60130  1  0  0  0
 60131  1  0  0  0
 60132  1  0  0  0
 61133  1  0  0  0
 61134  1  0  0  0
 61135  1  0  0  0
 62136  1  0  0  0
 62137  1  0  0  0
 62138  1  0  0  0
 63 65  1  0  0  0
 63139  1  0  0  0
 63140  1  0  0  0
 63141  1  0  0  0
 64142  1  0  0  0
 65143  1  0  0  0
 68 82  1  0  0  0
 71 72  2  0  0  0
 71 74  1  0  0  0
 71144  1  0  0  0
 72 76  1  0  0  0
 72145  1  0  0  0
 73 74  2  0  0  0
 73 75  1  0  0  0
 73146  1  0  0  0
 74 77  1  0  0  0
 75 76  2  0  0  0
 75 81  1  0  0  0
 76 83  1  0  0  0
 77 78  2  0  0  0
 77147  1  0  0  0
 78 79  1  0  0  0
 78148  1  0  0  0
 79 82  1  0  0  0
 79 84  2  0  0  0
 80 81  1  0  0  0
 80149  1  0  0  0
 80150  1  0  0  0
 80151  1  0  0  0
 81152  1  0  0  0
 81153  1  0  0  0
 82154  1  0  0  0
 82155  1  0  0  0
 83156  1  0  0  0
M  ISO  4   1 100  68 101  82 101  83 100
M  END
> <chiral flag>
0

> <version>
0

> <s_m_source_file>
/data/baiqing/PycharmProjects/Reinvent-master-3.2/result/LINK_invent/BTK/process_docking_weight1_custom_product_contain_oxygen_bond_distance_aromatic_linkinvent_7_9_3/rearranged_h_0126.sdf

> <i_m_source_file_index>
55

> <r_mmod_Potential_Energy-OPLS-2005>
31.8995704650879

> <r_mmod_Stretch_Energy-OPLS-2005>
77.0539016723633

> <r_mmod_Bend_Energy-OPLS-2005>
127.921928405762

> <r_mmod_Torsional_Energy-OPLS-2005>
216.776718139648

> <r_mmod_Improper_Torsional_Energy-OPLS-2005>
6.49543905258179

> <r_mmod_Van_der_Waal_Energy-OPLS-2005>
146.129379272461

> <r_mmod_Electrostatic_Energy-OPLS-2005>
-364.775726318359

> <r_mmod_Solvation_Energy-OPLS-2005>
-227.465255737305

> <b_mmod_Minimization_Converged-OPLS-2005>
0

> <r_mmod_RMS_Derivative-OPLS-2005>
1.43183290958405

$$$$
55
                    3D
 Structure written by MMmdl.
155163  0  0  1  0            999 V2000
  -30.6117  -14.6325   20.5245 C   0  0  0  0  0  0
  -30.4435  -12.3926   19.4479 C   0  0  0  0  0  0
  -29.5075  -12.5175   18.2237 C   0  0  0  0  0  0
  -28.0304  -12.3535   18.6353 C   0  0  0  0  0  0
  -27.6582  -13.2130   19.8722 C   0  0  2  0  0  0
  -28.7030  -13.0395   20.9981 C   0  0  0  0  0  0
  -25.2578  -13.8162   20.5691 C   0  0  0  0  0  0
  -24.1833  -13.0435   20.9179 C   0  0  0  0  0  0
  -24.6401  -11.6905   20.8744 C   0  0  0  0  0  0
  -23.9069  -10.4290   21.0410 C   0  0  0  0  0  0
  -24.3617   -9.4206   21.9189 C   0  0  0  0  0  0
  -23.6290   -8.2246   22.0757 C   0  0  0  0  0  0
  -22.4273   -8.0285   21.3548 C   0  0  0  0  0  0
  -21.9913   -9.0261   20.4651 C   0  0  0  0  0  0
  -22.7243  -10.2138   20.3061 C   0  0  0  0  0  0
  -21.6852   -6.0741   22.5280 C   0  0  0  0  0  0
  -21.4014   -6.5642   23.8214 C   0  0  0  0  0  0
  -21.3659   -5.6794   24.9175 C   0  0  0  0  0  0
  -21.6042   -4.3056   24.7225 C   0  0  0  0  0  0
  -21.8819   -3.8151   23.4345 C   0  0  0  0  0  0
  -21.9191   -4.6969   22.3402 C   0  0  0  0  0  0
  -22.7858  -13.5234   21.1843 C   0  0  0  0  0  0
  -22.1659   -4.2155   21.0980 F   0  0  0  0  0  0
  -21.5629   -3.4540   25.7737 F   0  0  0  0  0  0
  -30.0212  -13.3966   20.4450 N   0  0  0  0  0  0
  -26.3014  -12.9340   20.3363 N   0  0  0  0  0  0
  -25.9329  -11.6497   20.5772 N   0  0  0  0  0  0
  -22.0498  -12.8233   22.0405 N   0  0  0  0  0  0
  -25.4309  -15.1883   20.4114 N   0  0  0  0  0  0
  -31.7441  -14.8385   20.0758 O   0  0  0  0  0  0
  -21.6636   -6.8885   21.4242 O   0  0  0  0  0  0
  -22.3550  -14.5545   20.6692 O   0  0  0  0  0  0
  -24.6252  -31.8601   23.2026 C   0  0  0  0  0  0
  -25.9105  -32.4772   23.8353 C   0  0  1  0  0  0
  -27.2325  -27.3258   20.1118 C   0  0  0  0  0  0
  -25.5922  -33.8573   24.2281 N   0  0  0  0  0  0
  -23.4190  -30.4808   21.5458 C   0  0  2  0  0  0
  -24.8670  -28.9366   20.1108 C   0  0  0  0  0  0
  -22.7480  -29.4604   22.4954 C   0  0  0  0  0  0
  -18.0285  -28.1374   22.8473 C   0  0  0  0  0  0
  -24.1489  -36.7293   23.2639 C   0  0  0  0  0  0
  -25.9584  -30.7918   21.3727 C   0  0  0  0  0  0
  -26.0348  -29.4189   20.7155 C   0  0  0  0  0  0
  -27.2187  -28.6247   20.7077 C   0  0  0  0  0  0
  -26.0403  -26.8948   19.4843 C   0  0  0  0  0  0
  -24.8714  -27.6789   19.4880 C   0  0  0  0  0  0
  -23.6336  -29.8149   20.1607 C   0  0  0  0  0  0
  -25.4107  -36.3073   24.0328 C   0  0  1  0  0  0
  -20.5882  -28.3670   23.1286 C   0  0  2  0  0  0
  -20.6770  -26.9395   22.5409 C   0  0  0  0  0  0
  -19.5749  -26.6373   21.5203 C   0  0  0  0  0  0
  -18.1930  -26.7915   22.1615 C   0  0  0  0  0  0
  -19.1536  -28.8842   23.2868 C   0  0  0  0  0  0
  -18.9461  -30.1448   23.8875 C   0  0  0  0  0  0
  -17.6462  -30.6579   24.0551 C   0  0  0  0  0  0
  -25.9046  -34.9444   23.5105 C   0  0  0  0  0  0
  -16.5352  -29.9077   23.6324 C   0  0  0  0  0  0
  -16.7270  -28.6497   23.0334 C   0  0  0  0  0  0
  -26.4495  -31.6577   25.0717 C   0  0  0  0  0  0
  -25.3722  -31.3721   26.1440 C   0  0  0  0  0  0
  -27.0338  -30.3001   24.6157 C   0  0  0  0  0  0
  -27.6053  -32.4314   25.7490 C   0  0  0  0  0  0
  -27.5574  -37.1797   24.8463 C   0  0  0  0  0  0
  -21.4194  -29.3023   22.3690 N   0  0  0  0  0  0
  -26.4286  -37.3762   23.9407 N   0  0  0  0  0  0
  -24.6859  -31.0610   22.0972 N   0  0  0  0  0  0
  -23.4207  -28.8153   23.3038 O   0  0  0  0  0  0
  -28.3613  -26.4918   20.1605 O   0  0  0  0  0  0
  -26.5615  -34.8918   22.4673 O   0  0  0  0  0  0
  -23.5415  -32.1405   23.7355 O   0  0  0  0  0  0
  -30.1880  -19.3094   19.9166 C   0  0  0  0  0  0
  -30.3511  -17.8845   19.9257 C   0  0  0  0  0  0
  -29.1306  -17.7864   21.9885 C   0  0  0  0  0  0
  -29.5255  -20.0174   20.9624 C   0  0  0  0  0  0
  -28.9787  -19.2024   22.0037 C   0  0  0  0  0  0
  -29.8250  -17.0836   20.9753 C   0  0  0  0  0  0
  -27.2895  -20.7377   23.0757 C   0  0  0  0  0  0
  -29.4628  -21.5417   21.0527 C   0  0  0  0  0  0
  -28.1865  -19.7381   23.1297 C   0  0  0  0  0  0
  -29.2947  -22.5403   20.1305 C   0  0  0  0  0  0
  -29.3691  -24.0842   20.4207 C   0  0  0  0  0  0
  -28.1867  -25.0350   19.9596 C   0  0  0  0  0  0
  -29.8257  -15.6223   21.0470 N   0  0  0  0  0  0
  -31.4828  -12.5279   19.1444 H   0  0  0  0  0  0
  -30.3860  -11.3902   19.8744 H   0  0  0  0  0  0
  -29.7683  -11.7726   17.4708 H   0  0  0  0  0  0
  -29.6484  -13.4912   17.7520 H   0  0  0  0  0  0
  -27.8640  -11.2985   18.8564 H   0  0  0  0  0  0
  -27.3741  -12.5935   17.7980 H   0  0  0  0  0  0
  -27.6854  -14.2533   19.5477 H   0  0  0  0  0  0
  -28.7146  -12.0067   21.3493 H   0  0  0  0  0  0
  -28.4415  -13.6388   21.8712 H   0  0  0  0  0  0
  -25.2764   -9.5677   22.4766 H   0  0  0  0  0  0
  -23.9996   -7.4636   22.7479 H   0  0  0  0  0  0
  -21.0844   -8.8787   19.8959 H   0  0  0  0  0  0
  -22.3708  -10.9681   19.6172 H   0  0  0  0  0  0
  -21.2007   -7.6151   23.9719 H   0  0  0  0  0  0
  -21.1480   -6.0525   25.9078 H   0  0  0  0  0  0
  -22.0598   -2.7614   23.2842 H   0  0  0  0  0  0
  -22.4103  -11.9878   22.4775 H   0  0  0  0  0  0
  -21.1130  -13.1281   22.2630 H   0  0  0  0  0  0
  -24.6657  -15.8452   20.5208 H   0  0  0  0  0  0
  -26.2880  -15.6289   20.1014 H   0  0  0  0  0  0
  -26.7171  -32.5451   23.1102 H   0  0  0  0  0  0
  -25.0058  -33.9716   25.0416 H   0  0  0  0  0  0
  -22.7112  -31.2994   21.4029 H   0  0  0  0  0  0
  -23.3741  -35.9636   23.3299 H   0  0  0  0  0  0
  -24.3586  -36.8914   22.2055 H   0  0  0  0  0  0
  -23.7262  -37.6499   23.6669 H   0  0  0  0  0  0
  -26.0863  -31.5551   20.6041 H   0  0  0  0  0  0
  -26.8398  -30.8432   22.0000 H   0  0  0  0  0  0
  -28.1142  -28.9914   21.1901 H   0  0  0  0  0  0
  -25.9862  -25.9361   18.9905 H   0  0  0  0  0  0
  -23.9768  -27.3019   19.0117 H   0  0  0  0  0  0
  -23.7527  -30.5927   19.4054 H   0  0  0  0  0  0
  -22.7541  -29.2425   19.8591 H   0  0  0  0  0  0
  -25.1288  -36.1914   25.0817 H   0  0  0  0  0  0
  -20.9953  -28.3239   24.1414 H   0  0  0  0  0  0
  -20.5667  -26.2282   23.3609 H   0  0  0  0  0  0
  -21.6642  -26.7426   22.1203 H   0  0  0  0  0  0
  -19.6912  -25.6281   21.1238 H   0  0  0  0  0  0
  -19.6689  -27.3179   20.6729 H   0  0  0  0  0  0
  -17.4195  -26.6643   21.4022 H   0  0  0  0  0  0
  -18.0330  -26.0069   22.9024 H   0  0  0  0  0  0
  -19.7945  -30.7260   24.2241 H   0  0  0  0  0  0
  -17.5023  -31.6261   24.5156 H   0  0  0  0  0  0
  -15.5351  -30.2968   23.7672 H   0  0  0  0  0  0
  -15.8671  -28.0827   22.7035 H   0  0  0  0  0  0
  -24.5906  -30.7051   25.7781 H   0  0  0  0  0  0
  -24.8899  -32.2890   26.4838 H   0  0  0  0  0  0
  -25.8039  -30.8928   27.0237 H   0  0  0  0  0  0
  -26.2906  -29.6748   24.1188 H   0  0  0  0  0  0
  -27.4053  -29.7252   25.4653 H   0  0  0  0  0  0
  -27.8772  -30.4291   23.9365 H   0  0  0  0  0  0
  -27.2657  -33.3621   26.2049 H   0  0  0  0  0  0
  -28.3874  -32.6857   25.0323 H   0  0  0  0  0  0
  -28.0708  -31.8446   26.5420 H   0  0  0  0  0  0
  -28.2581  -38.0104   24.7503 H   0  0  0  0  0  0
  -28.1081  -36.2632   24.6288 H   0  0  0  0  0  0
  -27.2300  -37.1442   25.8870 H   0  0  0  0  0  0
  -20.9375  -29.8763   21.6911 H   0  0  0  0  0  0
  -26.0162  -38.2834   24.1406 H   0  0  0  0  0  0
  -30.6200  -19.8717   19.1006 H   0  0  0  0  0  0
  -30.8702  -17.4120   19.1032 H   0  0  0  0  0  0
  -28.6800  -17.2178   22.7903 H   0  0  0  0  0  0
  -26.7714  -21.0641   23.9662 H   0  0  0  0  0  0
  -27.0503  -21.2432   22.1511 H   0  0  0  0  0  0
  -29.6260  -21.8945   22.0611 H   0  0  0  0  0  0
  -28.3678  -19.2756   24.0911 H   0  0  0  0  0  0
  -29.1277  -22.2690   19.0974 H   0  0  0  0  0  0
  -30.2798  -24.4379   19.9373 H   0  0  0  0  0  0
  -29.5312  -24.2263   21.4898 H   0  0  0  0  0  0
  -27.2908  -24.7106   20.4913 H   0  0  0  0  0  0
  -28.0017  -24.8597   18.8986 H   0  0  0  0  0  0
  -29.0242  -15.2402   21.5251 H   0  0  0  0  0  0
  1 25  1  0  0  0
  1 30  2  0  0  0
  1 83  1  0  0  0
  2  3  1  0  0  0
  2 25  1  0  0  0
  2 84  1  0  0  0
  2 85  1  0  0  0
  3  4  1  0  0  0
  3 86  1  0  0  0
  3 87  1  0  0  0
  4  5  1  0  0  0
  4 88  1  0  0  0
  4 89  1  0  0  0
  5  6  1  0  0  0
  5 26  1  0  0  0
  5 90  1  0  0  0
  6 25  1  0  0  0
  6 91  1  0  0  0
  6 92  1  0  0  0
  7  8  2  0  0  0
  7 26  1  0  0  0
  7 29  1  0  0  0
  8  9  1  0  0  0
  8 22  1  0  0  0
  9 10  1  0  0  0
  9 27  2  0  0  0
 10 11  2  0  0  0
 10 15  1  0  0  0
 11 12  1  0  0  0
 11 93  1  0  0  0
 12 13  2  0  0  0
 12 94  1  0  0  0
 13 14  1  0  0  0
 13 31  1  0  0  0
 14 15  2  0  0  0
 14 95  1  0  0  0
 15 96  1  0  0  0
 16 17  2  0  0  0
 16 21  1  0  0  0
 16 31  1  0  0  0
 17 18  1  0  0  0
 17 97  1  0  0  0
 18 19  2  0  0  0
 18 98  1  0  0  0
 19 20  1  0  0  0
 19 24  1  0  0  0
 20 21  2  0  0  0
 20 99  1  0  0  0
 21 23  1  0  0  0
 22 28  1  0  0  0
 22 32  2  0  0  0
 26 27  1  0  0  0
 28100  1  0  0  0
 28101  1  0  0  0
 29102  1  0  0  0
 29103  1  0  0  0
 33 34  1  0  0  0
 33 66  1  0  0  0
 33 70  2  0  0  0
 34 36  1  0  0  0
 34 59  1  0  0  0
 34104  1  0  0  0
 35 44  2  0  0  0
 35 45  1  0  0  0
 35 68  1  0  0  0
 36 56  1  0  0  0
 36105  1  0  0  0
 37 39  1  0  0  0
 37 47  1  0  0  0
 37 66  1  0  0  0
 37106  1  0  0  0
 38 43  2  0  0  0
 38 46  1  0  0  0
 38 47  1  0  0  0
 39 64  1  0  0  0
 39 67  2  0  0  0
 40 52  1  0  0  0
 40 53  2  0  0  0
 40 58  1  0  0  0
 41107  1  0  0  0
 41108  1  0  0  0
 41109  1  0  0  0
 41 48  1  0  0  0
 42 43  1  0  0  0
 42 66  1  0  0  0
 42110  1  0  0  0
 42111  1  0  0  0
 43 44  1  0  0  0
 44112  1  0  0  0
 45 46  2  0  0  0
 45113  1  0  0  0
 46114  1  0  0  0
 47115  1  0  0  0
 47116  1  0  0  0
 48 56  1  0  0  0
 48 65  1  0  0  0
 48117  1  0  0  0
 49 50  1  0  0  0
 49 53  1  0  0  0
 49 64  1  0  0  0
 49118  1  0  0  0
 50 51  1  0  0  0
 50119  1  0  0  0
 50120  1  0  0  0
 51 52  1  0  0  0
 51121  1  0  0  0
 51122  1  0  0  0
 52123  1  0  0  0
 52124  1  0  0  0
 53 54  1  0  0  0
 54 55  2  0  0  0
 54125  1  0  0  0
 55 57  1  0  0  0
 55126  1  0  0  0
 56 69  2  0  0  0
 57 58  2  0  0  0
 57127  1  0  0  0
 58128  1  0  0  0
 59 60  1  0  0  0
 59 61  1  0  0  0
 59 62  1  0  0  0
 60129  1  0  0  0
 60130  1  0  0  0
 60131  1  0  0  0
 61132  1  0  0  0
 61133  1  0  0  0
 61134  1  0  0  0
 62135  1  0  0  0
 62136  1  0  0  0
 62137  1  0  0  0
 63 65  1  0  0  0
 63138  1  0  0  0
 63139  1  0  0  0
 63140  1  0  0  0
 64141  1  0  0  0
 65142  1  0  0  0
 68 82  1  0  0  0
 71 72  2  0  0  0
 71 74  1  0  0  0
 71143  1  0  0  0
 72 76  1  0  0  0
 72144  1  0  0  0
 73 75  1  0  0  0
 73 76  2  0  0  0
 73145  1  0  0  0
 74 75  2  0  0  0
 74 78  1  0  0  0
 75 79  1  0  0  0
 76 83  1  0  0  0
 77 79  2  0  0  0
 77146  1  0  0  0
 77147  1  0  0  0
 78 80  2  0  0  0
 78148  1  0  0  0
 79149  1  0  0  0
 80 81  1  0  0  0
 80150  1  0  0  0
 81 82  1  0  0  0
 81151  1  0  0  0
 81152  1  0  0  0
 82153  1  0  0  0
 82154  1  0  0  0
 83155  1  0  0  0
M  ISO  4   1 100  68 101  82 101  83 100
M  END
> <chiral flag>
0

> <version>
0

> <s_m_source_file>
/data/baiqing/PycharmProjects/Reinvent-master-3.2/result/LINK_invent/BTK/process_docking_weight1_custom_product_contain_oxygen_bond_distance_aromatic_linkinvent_7_9_3/rearranged_h_0126.sdf

> <i_m_source_file_index>
56

> <r_mmod_Potential_Energy-OPLS-2005>
92.7104568481445

> <r_mmod_Stretch_Energy-OPLS-2005>
77.3972320556641

> <r_mmod_Bend_Energy-OPLS-2005>
143.764663696289

> <r_mmod_Torsional_Energy-OPLS-2005>
237.850738525391

> <r_mmod_Improper_Torsional_Energy-OPLS-2005>
3.64954113960266

> <r_mmod_Van_der_Waal_Energy-OPLS-2005>
147.207458496094

> <r_mmod_Electrostatic_Energy-OPLS-2005>
-358.514831542969

> <r_mmod_Solvation_Energy-OPLS-2005>
-203.616561889648

> <b_mmod_Minimization_Converged-OPLS-2005>
0

> <r_mmod_RMS_Derivative-OPLS-2005>
1.03292071819305

$$$$
56
                    3D
 Structure written by MMmdl.
159167  0  0  1  0            999 V2000
  -30.6236  -14.6788   20.4744 C   0  0  0  0  0  0
  -30.4372  -12.4151   19.4492 C   0  0  0  0  0  0
  -29.5027  -12.5112   18.2218 C   0  0  0  0  0  0
  -28.0257  -12.3449   18.6349 C   0  0  0  0  0  0
  -27.6419  -13.2217   19.8575 C   0  0  2  0  0  0
  -28.6962  -13.1032   20.9833 C   0  0  0  0  0  0
  -25.2323  -13.7922   20.5676 C   0  0  0  0  0  0
  -24.1689  -13.0204   20.9265 C   0  0  0  0  0  0
  -24.6373  -11.6749   20.8788 C   0  0  0  0  0  0
  -23.9065  -10.4162   21.0418 C   0  0  0  0  0  0
  -24.3612   -9.4102   21.9203 C   0  0  0  0  0  0
  -23.6272   -8.2160   22.0762 C   0  0  0  0  0  0
  -22.4255   -8.0223   21.3545 C   0  0  0  0  0  0
  -21.9896   -9.0195   20.4644 C   0  0  0  0  0  0
  -22.7241  -10.2056   20.3054 C   0  0  0  0  0  0
  -21.6822   -6.0719   22.5289 C   0  0  0  0  0  0
  -21.3984   -6.5625   23.8225 C   0  0  0  0  0  0
  -21.3652   -5.6780   24.9189 C   0  0  0  0  0  0
  -21.6048   -4.3047   24.7237 C   0  0  0  0  0  0
  -21.8818   -3.8136   23.4360 C   0  0  0  0  0  0
  -21.9186   -4.6951   22.3414 C   0  0  0  0  0  0
  -22.7723  -13.5044   21.1904 C   0  0  0  0  0  0
  -22.1653   -4.2143   21.0991 F   0  0  0  0  0  0
  -21.5647   -3.4533   25.7754 F   0  0  0  0  0  0
  -30.0086  -13.4504   20.4108 N   0  0  0  0  0  0
  -26.2902  -12.9276   20.3320 N   0  0  0  0  0  0
  -25.9315  -11.6417   20.5797 N   0  0  0  0  0  0
  -22.0358  -12.8084   22.0480 N   0  0  0  0  0  0
  -25.3493  -15.1569   20.3971 N   0  0  0  0  0  0
  -31.8034  -14.8172   20.1406 O   0  0  0  0  0  0
  -21.6599   -6.8846   21.4244 O   0  0  0  0  0  0
  -22.3449  -14.5383   20.6762 O   0  0  0  0  0  0
  -24.6251  -31.8600   23.1998 C   0  0  0  0  0  0
  -25.9099  -32.4784   23.8321 C   0  0  1  0  0  0
  -27.2381  -27.3229   20.1135 C   0  0  0  0  0  0
  -25.5912  -33.8583   24.2257 N   0  0  0  0  0  0
  -23.4190  -30.4832   21.5421 C   0  0  2  0  0  0
  -24.8682  -28.9335   20.1130 C   0  0  0  0  0  0
  -22.7464  -29.4635   22.4917 C   0  0  0  0  0  0
  -18.0291  -28.1371   22.8493 C   0  0  0  0  0  0
  -24.1489  -36.7282   23.2642 C   0  0  0  0  0  0
  -25.9593  -30.7937   21.3671 C   0  0  0  0  0  0
  -26.0369  -29.4200   20.7112 C   0  0  0  0  0  0
  -27.2234  -28.6277   20.6988 C   0  0  0  0  0  0
  -26.0412  -26.8860   19.4988 C   0  0  0  0  0  0
  -24.8717  -27.6710   19.5005 C   0  0  0  0  0  0
  -23.6350  -29.8134   20.1595 C   0  0  0  0  0  0
  -25.4109  -36.3079   24.0336 C   0  0  1  0  0  0
  -20.5890  -28.3683   23.1274 C   0  0  2  0  0  0
  -20.6785  -26.9408   22.5403 C   0  0  0  0  0  0
  -19.5759  -26.6370   21.5212 C   0  0  0  0  0  0
  -18.1934  -26.7912   22.1628 C   0  0  0  0  0  0
  -19.1544  -28.8837   23.2886 C   0  0  0  0  0  0
  -18.9482  -30.1439   23.8909 C   0  0  0  0  0  0
  -17.6487  -30.6585   24.0557 C   0  0  0  0  0  0
  -25.9048  -34.9458   23.5098 C   0  0  0  0  0  0
  -16.5376  -29.9088   23.6328 C   0  0  0  0  0  0
  -16.7279  -28.6498   23.0359 C   0  0  0  0  0  0
  -26.4479  -31.6593   25.0690 C   0  0  0  0  0  0
  -25.3707  -31.3746   26.1411 C   0  0  0  0  0  0
  -27.0315  -30.3023   24.6114 C   0  0  0  0  0  0
  -27.6042  -32.4317   25.7467 C   0  0  0  0  0  0
  -27.5570  -37.1791   24.8466 C   0  0  0  0  0  0
  -21.4176  -29.3058   22.3667 N   0  0  0  0  0  0
  -26.4278  -37.3780   23.9417 N   0  0  0  0  0  0
  -24.6874  -31.0615   22.0941 N   0  0  0  0  0  0
  -23.4191  -28.8174   23.2997 O   0  0  0  0  0  0
  -28.3743  -26.4955   20.1569 O   0  0  0  0  0  0
  -26.5631  -34.8941   22.4670 O   0  0  0  0  0  0
  -23.5419  -32.1392   23.7332 O   0  0  0  0  0  0
  -31.1980  -19.3630   20.6571 C   0  0  0  0  0  0
  -31.1557  -17.9314   20.7024 C   0  0  0  0  0  0
  -28.8276  -19.4634   20.3874 C   0  0  0  0  0  0
  -28.7741  -18.0384   20.4369 C   0  0  0  0  0  0
  -30.0397  -20.1811   20.5036 C   0  0  0  0  0  0
  -29.9333  -17.2152   20.6039 C   0  0  0  0  0  0
  -29.2221  -22.5106   20.3303 C   0  0  0  0  0  0
  -27.0876  -17.2564   18.7546 C   0  0  0  0  0  0
  -30.6393  -24.4494   19.4311 C   0  0  0  0  0  0
  -27.4079  -17.4286   20.2481 C   0  0  0  0  0  0
  -28.2090  -25.0266   20.0146 C   0  0  0  0  0  0
  -29.4547  -24.0827   20.3434 C   0  0  1  0  0  0
  -30.1648  -21.6180   20.4812 N   0  0  0  0  0  0
  -29.7957  -15.7485   20.7138 N   0  0  0  0  0  0
  -31.4765  -12.5452   19.1432 H   0  0  0  0  0  0
  -30.3800  -11.4251   19.9043 H   0  0  0  0  0  0
  -29.7707  -11.7544   17.4837 H   0  0  0  0  0  0
  -29.6375  -13.4764   17.7312 H   0  0  0  0  0  0
  -27.8667  -11.2919   18.8689 H   0  0  0  0  0  0
  -27.3718  -12.5688   17.7910 H   0  0  0  0  0  0
  -27.6403  -14.2529   19.5055 H   0  0  0  0  0  0
  -28.7167  -12.0868   21.3805 H   0  0  0  0  0  0
  -28.4420  -13.7480   21.8258 H   0  0  0  0  0  0
  -25.2747   -9.5591   22.4790 H   0  0  0  0  0  0
  -23.9971   -7.4546   22.7471 H   0  0  0  0  0  0
  -21.0836   -8.8717   19.8942 H   0  0  0  0  0  0
  -22.3705  -10.9614   19.6175 H   0  0  0  0  0  0
  -21.1938   -7.6127   23.9726 H   0  0  0  0  0  0
  -21.1481   -6.0510   25.9097 H   0  0  0  0  0  0
  -22.0604   -2.7598   23.2862 H   0  0  0  0  0  0
  -22.3950  -11.9737   22.4868 H   0  0  0  0  0  0
  -21.0983  -13.1138   22.2676 H   0  0  0  0  0  0
  -24.5290  -15.7506   20.4565 H   0  0  0  0  0  0
  -26.1283  -15.6028   19.9327 H   0  0  0  0  0  0
  -26.7166  -32.5462   23.1071 H   0  0  0  0  0  0
  -25.0034  -33.9730   25.0383 H   0  0  0  0  0  0
  -22.7131  -31.3038   21.3958 H   0  0  0  0  0  0
  -23.3766  -35.9601   23.3301 H   0  0  0  0  0  0
  -24.3579  -36.8901   22.2057 H   0  0  0  0  0  0
  -23.7235  -37.6481   23.6660 H   0  0  0  0  0  0
  -26.0819  -31.5577   20.5972 H   0  0  0  0  0  0
  -26.8426  -30.8477   21.9916 H   0  0  0  0  0  0
  -28.1216  -29.0007   21.1690 H   0  0  0  0  0  0
  -25.9813  -25.9226   19.0155 H   0  0  0  0  0  0
  -23.9734  -27.2887   19.0348 H   0  0  0  0  0  0
  -23.7531  -30.5888   19.4014 H   0  0  0  0  0  0
  -22.7554  -29.2423   19.8576 H   0  0  0  0  0  0
  -25.1297  -36.1921   25.0832 H   0  0  0  0  0  0
  -20.9995  -28.3266   24.1389 H   0  0  0  0  0  0
  -20.5673  -26.2308   23.3611 H   0  0  0  0  0  0
  -21.6652  -26.7422   22.1205 H   0  0  0  0  0  0
  -19.6928  -25.6277   21.1252 H   0  0  0  0  0  0
  -19.6695  -27.3178   20.6742 H   0  0  0  0  0  0
  -17.4202  -26.6666   21.4030 H   0  0  0  0  0  0
  -18.0335  -26.0040   22.9013 H   0  0  0  0  0  0
  -19.7969  -30.7236   24.2291 H   0  0  0  0  0  0
  -17.5060  -31.6282   24.5135 H   0  0  0  0  0  0
  -15.5380  -30.3013   23.7637 H   0  0  0  0  0  0
  -15.8675  -28.0820   22.7083 H   0  0  0  0  0  0
  -24.5889  -30.7084   25.7734 H   0  0  0  0  0  0
  -24.8884  -32.2928   26.4784 H   0  0  0  0  0  0
  -25.8012  -30.8952   27.0214 H   0  0  0  0  0  0
  -26.2876  -29.6784   24.1136 H   0  0  0  0  0  0
  -27.4048  -29.7256   25.4590 H   0  0  0  0  0  0
  -27.8727  -30.4331   23.9300 H   0  0  0  0  0  0
  -27.2652  -33.3626   26.2020 H   0  0  0  0  0  0
  -28.3862  -32.6851   25.0299 H   0  0  0  0  0  0
  -28.0682  -31.8447   26.5403 H   0  0  0  0  0  0
  -28.2583  -38.0093   24.7520 H   0  0  0  0  0  0
  -28.1077  -36.2630   24.6279 H   0  0  0  0  0  0
  -27.2296  -37.1412   25.8873 H   0  0  0  0  0  0
  -20.9335  -29.8776   21.6884 H   0  0  0  0  0  0
  -26.0164  -38.2851   24.1447 H   0  0  0  0  0  0
  -32.1624  -19.8417   20.7497 H   0  0  0  0  0  0
  -32.0825  -17.3906   20.8323 H   0  0  0  0  0  0
  -27.8999  -20.0006   20.2520 H   0  0  0  0  0  0
  -28.1758  -22.2265   20.1890 H   0  0  0  0  0  0
  -26.0827  -16.8711   18.5872 H   0  0  0  0  0  0
  -27.7933  -16.5785   18.2728 H   0  0  0  0  0  0
  -27.1426  -18.2153   18.2382 H   0  0  0  0  0  0
  -31.5419  -23.9050   19.7112 H   0  0  0  0  0  0
  -30.8714  -25.5129   19.4965 H   0  0  0  0  0  0
  -30.4249  -24.2168   18.3871 H   0  0  0  0  0  0
  -26.6530  -18.0632   20.7162 H   0  0  0  0  0  0
  -27.3769  -16.4929   20.7975 H   0  0  0  0  0  0
  -27.3855  -24.7213   20.6610 H   0  0  0  0  0  0
  -27.8938  -24.8150   18.9923 H   0  0  0  0  0  0
  -29.7507  -24.3243   21.3645 H   0  0  0  0  0  0
  -28.8515  -15.4433   20.8872 H   0  0  0  0  0  0
  1 25  1  0  0  0
  1 30  2  0  0  0
  1 84  1  0  0  0
  2  3  1  0  0  0
  2 25  1  0  0  0
  2 85  1  0  0  0
  2 86  1  0  0  0
  3  4  1  0  0  0
  3 87  1  0  0  0
  3 88  1  0  0  0
  4  5  1  0  0  0
  4 89  1  0  0  0
  4 90  1  0  0  0
  5  6  1  0  0  0
  5 26  1  0  0  0
  5 91  1  0  0  0
  6 25  1  0  0  0
  6 92  1  0  0  0
  6 93  1  0  0  0
  7  8  2  0  0  0
  7 26  1  0  0  0
  7 29  1  0  0  0
  8  9  1  0  0  0
  8 22  1  0  0  0
  9 10  1  0  0  0
  9 27  2  0  0  0
 10 11  2  0  0  0
 10 15  1  0  0  0
 11 12  1  0  0  0
 11 94  1  0  0  0
 12 13  2  0  0  0
 12 95  1  0  0  0
 13 14  1  0  0  0
 13 31  1  0  0  0
 14 15  2  0  0  0
 14 96  1  0  0  0
 15 97  1  0  0  0
 16 17  2  0  0  0
 16 21  1  0  0  0
 16 31  1  0  0  0
 17 18  1  0  0  0
 17 98  1  0  0  0
 18 19  2  0  0  0
 18 99  1  0  0  0
 19 20  1  0  0  0
 19 24  1  0  0  0
 20 21  2  0  0  0
 20100  1  0  0  0
 21 23  1  0  0  0
 22 28  1  0  0  0
 22 32  2  0  0  0
 26 27  1  0  0  0
 28101  1  0  0  0
 28102  1  0  0  0
 29103  1  0  0  0
 29104  1  0  0  0
 33 34  1  0  0  0
 33 66  1  0  0  0
 33 70  2  0  0  0
 34 36  1  0  0  0
 34 59  1  0  0  0
 34105  1  0  0  0
 35 44  2  0  0  0
 35 45  1  0  0  0
 35 68  1  0  0  0
 36 56  1  0  0  0
 36106  1  0  0  0
 37 39  1  0  0  0
 37 47  1  0  0  0
 37 66  1  0  0  0
 37107  1  0  0  0
 38 43  2  0  0  0
 38 46  1  0  0  0
 38 47  1  0  0  0
 39 64  1  0  0  0
 39 67  2  0  0  0
 40 52  1  0  0  0
 40 53  2  0  0  0
 40 58  1  0  0  0
 41108  1  0  0  0
 41109  1  0  0  0
 41110  1  0  0  0
 41 48  1  0  0  0
 42 43  1  0  0  0
 42 66  1  0  0  0
 42111  1  0  0  0
 42112  1  0  0  0
 43 44  1  0  0  0
 44113  1  0  0  0
 45 46  2  0  0  0
 45114  1  0  0  0
 46115  1  0  0  0
 47116  1  0  0  0
 47117  1  0  0  0
 48 56  1  0  0  0
 48 65  1  0  0  0
 48118  1  0  0  0
 49 50  1  0  0  0
 49 53  1  0  0  0
 49 64  1  0  0  0
 49119  1  0  0  0
 50 51  1  0  0  0
 50120  1  0  0  0
 50121  1  0  0  0
 51 52  1  0  0  0
 51122  1  0  0  0
 51123  1  0  0  0
 52124  1  0  0  0
 52125  1  0  0  0
 53 54  1  0  0  0
 54 55  2  0  0  0
 54126  1  0  0  0
 55 57  1  0  0  0
 55127  1  0  0  0
 56 69  2  0  0  0
 57 58  2  0  0  0
 57128  1  0  0  0
 58129  1  0  0  0
 59 60  1  0  0  0
 59 61  1  0  0  0
 59 62  1  0  0  0
 60130  1  0  0  0
 60131  1  0  0  0
 60132  1  0  0  0
 61133  1  0  0  0
 61134  1  0  0  0
 61135  1  0  0  0
 62136  1  0  0  0
 62137  1  0  0  0
 62138  1  0  0  0
 63 65  1  0  0  0
 63139  1  0  0  0
 63140  1  0  0  0
 63141  1  0  0  0
 64142  1  0  0  0
 65143  1  0  0  0
 68 81  1  0  0  0
 71 72  2  0  0  0
 71 75  1  0  0  0
 71144  1  0  0  0
 72 76  1  0  0  0
 72145  1  0  0  0
 73 74  1  0  0  0
 73 75  2  0  0  0
 73146  1  0  0  0
 74 76  2  0  0  0
 74 80  1  0  0  0
 75 83  1  0  0  0
 76 84  1  0  0  0
 77 82  1  0  0  0
 77 83  2  0  0  0
 77147  1  0  0  0
 78 80  1  0  0  0
 78148  1  0  0  0
 78149  1  0  0  0
 78150  1  0  0  0
 79151  1  0  0  0
 79152  1  0  0  0
 79153  1  0  0  0
 79 82  1  0  0  0
 80154  1  0  0  0
 80155  1  0  0  0
 81 82  1  0  0  0
 81156  1  0  0  0
 81157  1  0  0  0
 82158  1  0  0  0
 84159  1  0  0  0
M  ISO  4   1 100  68 101  81 101  84 100
M  END
> <chiral flag>
0

> <version>
0

> <s_m_source_file>
/data/baiqing/PycharmProjects/Reinvent-master-3.2/result/LINK_invent/BTK/process_docking_weight1_custom_product_contain_oxygen_bond_distance_aromatic_linkinvent_7_9_3/rearranged_h_0126.sdf

> <i_m_source_file_index>
57

> <r_mmod_Potential_Energy-OPLS-2005>
57.7992095947266

> <r_mmod_Stretch_Energy-OPLS-2005>
88.2916030883789

> <r_mmod_Bend_Energy-OPLS-2005>
152.129211425781

> <r_mmod_Torsional_Energy-OPLS-2005>
213.991683959961

> <r_mmod_Improper_Torsional_Energy-OPLS-2005>
6.1581563949585

> <r_mmod_Van_der_Waal_Energy-OPLS-2005>
150.013595581055

> <r_mmod_Electrostatic_Energy-OPLS-2005>
-400.753692626953

> <r_mmod_Solvation_Energy-OPLS-2005>
-206.79069519043

> <b_mmod_Minimization_Converged-OPLS-2005>
0

> <r_mmod_RMS_Derivative-OPLS-2005>
1.75916588306427

$$$$
57
                    3D
 Structure written by MMmdl.
155163  0  0  1  0            999 V2000
  -30.6646  -14.5670   20.5861 C   0  0  0  0  0  0
  -30.4377  -12.3720   19.4311 C   0  0  0  0  0  0
  -29.5028  -12.5269   18.2106 C   0  0  0  0  0  0
  -28.0238  -12.3667   18.6171 C   0  0  0  0  0  0
  -27.6624  -13.2048   19.8719 C   0  0  2  0  0  0
  -28.7031  -12.9880   20.9887 C   0  0  0  0  0  0
  -25.2615  -13.8137   20.5658 C   0  0  0  0  0  0
  -24.1857  -13.0433   20.9136 C   0  0  0  0  0  0
  -24.6404  -11.6897   20.8707 C   0  0  0  0  0  0
  -23.9063  -10.4296   21.0394 C   0  0  0  0  0  0
  -24.3621   -9.4213   21.9173 C   0  0  0  0  0  0
  -23.6289   -8.2254   22.0761 C   0  0  0  0  0  0
  -22.4268   -8.0294   21.3549 C   0  0  0  0  0  0
  -21.9901   -9.0265   20.4647 C   0  0  0  0  0  0
  -22.7231  -10.2141   20.3048 C   0  0  0  0  0  0
  -21.6862   -6.0735   22.5279 C   0  0  0  0  0  0
  -21.4014   -6.5638   23.8210 C   0  0  0  0  0  0
  -21.3662   -5.6791   24.9176 C   0  0  0  0  0  0
  -21.6044   -4.3054   24.7225 C   0  0  0  0  0  0
  -21.8821   -3.8143   23.4349 C   0  0  0  0  0  0
  -21.9195   -4.6961   22.3402 C   0  0  0  0  0  0
  -22.7887  -13.5263   21.1807 C   0  0  0  0  0  0
  -22.1666   -4.2144   21.0981 F   0  0  0  0  0  0
  -21.5629   -3.4542   25.7741 F   0  0  0  0  0  0
  -30.0253  -13.3596   20.4493 N   0  0  0  0  0  0
  -26.3042  -12.9297   20.3332 N   0  0  0  0  0  0
  -25.9333  -11.6462   20.5728 N   0  0  0  0  0  0
  -22.0528  -12.8274   22.0369 N   0  0  0  0  0  0
  -25.4358  -15.1860   20.4106 N   0  0  0  0  0  0
  -31.7816  -14.7449   20.0900 O   0  0  0  0  0  0
  -21.6643   -6.8886   21.4243 O   0  0  0  0  0  0
  -22.3589  -14.5576   20.6662 O   0  0  0  0  0  0
  -24.6215  -31.8617   23.2069 C   0  0  0  0  0  0
  -25.9079  -32.4786   23.8383 C   0  0  1  0  0  0
  -27.2325  -27.3626   20.1149 C   0  0  0  0  0  0
  -25.5924  -33.8594   24.2309 N   0  0  0  0  0  0
  -23.4144  -30.4855   21.5450 C   0  0  2  0  0  0
  -24.8630  -28.9452   20.1155 C   0  0  0  0  0  0
  -22.7440  -29.4625   22.4929 C   0  0  0  0  0  0
  -18.0279  -28.1397   22.8461 C   0  0  0  0  0  0
  -24.1491  -36.7304   23.2637 C   0  0  0  0  0  0
  -25.9511  -30.8074   21.3720 C   0  0  0  0  0  0
  -26.0285  -29.4366   20.7182 C   0  0  0  0  0  0
  -27.2166  -28.6550   20.7101 C   0  0  0  0  0  0
  -26.0463  -26.9135   19.4902 C   0  0  0  0  0  0
  -24.8718  -27.6877   19.4932 C   0  0  0  0  0  0
  -23.6299  -29.8212   20.1597 C   0  0  0  0  0  0
  -25.4111  -36.3090   24.0334 C   0  0  1  0  0  0
  -20.5873  -28.3690   23.1282 C   0  0  2  0  0  0
  -20.6777  -26.9418   22.5406 C   0  0  0  0  0  0
  -19.5760  -26.6390   21.5200 C   0  0  0  0  0  0
  -18.1933  -26.7938   22.1605 C   0  0  0  0  0  0
  -19.1530  -28.8857   23.2867 C   0  0  0  0  0  0
  -18.9459  -30.1462   23.8877 C   0  0  0  0  0  0
  -17.6462  -30.6593   24.0563 C   0  0  0  0  0  0
  -25.9042  -34.9456   23.5114 C   0  0  0  0  0  0
  -16.5350  -29.9093   23.6334 C   0  0  0  0  0  0
  -16.7265  -28.6523   23.0324 C   0  0  0  0  0  0
  -26.4502  -31.6582   25.0722 C   0  0  0  0  0  0
  -25.3784  -31.3693   26.1480 C   0  0  0  0  0  0
  -27.0342  -30.3012   24.6144 C   0  0  0  0  0  0
  -27.6060  -32.4314   25.7494 C   0  0  0  0  0  0
  -27.5575  -37.1811   24.8463 C   0  0  0  0  0  0
  -21.4154  -29.3050   22.3676 N   0  0  0  0  0  0
  -26.4289  -37.3775   23.9406 N   0  0  0  0  0  0
  -24.6803  -31.0673   22.0987 N   0  0  0  0  0  0
  -23.4175  -28.8159   23.2996 O   0  0  0  0  0  0
  -28.3716  -26.5604   20.1306 O   0  0  0  0  0  0
  -26.5583  -34.8908   22.4661 O   0  0  0  0  0  0
  -23.5385  -32.1395   23.7418 O   0  0  0  0  0  0
  -29.9720  -19.4026   20.4108 C   0  0  0  0  0  0
  -31.1848  -20.0263   18.4081 C   0  0  0  0  0  0
  -30.9935  -17.6733   19.0266 C   0  0  0  0  0  0
  -30.4455  -20.4342   19.5382 C   0  0  0  0  0  0
  -30.2635  -18.0092   20.1859 C   0  0  0  0  0  0
  -31.4566  -18.6702   18.1480 C   0  0  0  0  0  0
  -30.2588  -21.9271   19.6422 C   0  0  0  0  0  0
  -29.8093  -16.9643   21.1709 C   0  0  0  0  0  0
  -29.3148  -22.7300   20.2103 C   0  0  0  0  0  0
  -29.9385  -15.6070   21.3509 C   0  0  0  0  0  0
  -29.4130  -24.2381   20.1134 C   0  0  0  0  0  0
  -32.2576  -18.2787   16.9221 C   0  0  0  0  0  0
  -28.1674  -25.1308   20.3985 C   0  0  0  0  0  0
  -30.4692  -24.8003   19.8001 O   0  0  0  0  0  0
  -31.4774  -12.4947   19.1236 H   0  0  0  0  0  0
  -30.3702  -11.3607   19.8353 H   0  0  0  0  0  0
  -29.7598  -11.7964   17.4420 H   0  0  0  0  0  0
  -29.6520  -13.5094   17.7583 H   0  0  0  0  0  0
  -27.8465  -11.3082   18.8138 H   0  0  0  0  0  0
  -27.3753  -12.6343   17.7823 H   0  0  0  0  0  0
  -27.7087  -14.2548   19.5835 H   0  0  0  0  0  0
  -28.7130  -11.9404   21.2928 H   0  0  0  0  0  0
  -28.4160  -13.5251   21.8890 H   0  0  0  0  0  0
  -25.2786   -9.5689   22.4735 H   0  0  0  0  0  0
  -24.0001   -7.4653   22.7495 H   0  0  0  0  0  0
  -21.0828   -8.8774   19.8965 H   0  0  0  0  0  0
  -22.3687  -10.9673   19.6149 H   0  0  0  0  0  0
  -21.2007   -7.6149   23.9709 H   0  0  0  0  0  0
  -21.1480   -6.0526   25.9074 H   0  0  0  0  0  0
  -22.0598   -2.7608   23.2850 H   0  0  0  0  0  0
  -22.4159  -11.9947   22.4759 H   0  0  0  0  0  0
  -21.1146  -13.1300   22.2581 H   0  0  0  0  0  0
  -24.6744  -15.8453   20.5313 H   0  0  0  0  0  0
  -26.3028  -15.6257   20.1259 H   0  0  0  0  0  0
  -26.7143  -32.5486   23.1139 H   0  0  0  0  0  0
  -25.0130  -33.9766   25.0491 H   0  0  0  0  0  0
  -22.7074  -31.3051   21.4019 H   0  0  0  0  0  0
  -23.3740  -35.9651   23.3305 H   0  0  0  0  0  0
  -24.3584  -36.8910   22.2050 H   0  0  0  0  0  0
  -23.7273  -37.6519   23.6653 H   0  0  0  0  0  0
  -26.0772  -31.5715   20.6040 H   0  0  0  0  0  0
  -26.8342  -30.8587   21.9969 H   0  0  0  0  0  0
  -28.1146  -29.0238   21.1864 H   0  0  0  0  0  0
  -26.0084  -25.9637   18.9799 H   0  0  0  0  0  0
  -23.9817  -27.3101   19.0082 H   0  0  0  0  0  0
  -23.7508  -30.5988   19.4043 H   0  0  0  0  0  0
  -22.7530  -29.2482   19.8516 H   0  0  0  0  0  0
  -25.1299  -36.1939   25.0829 H   0  0  0  0  0  0
  -20.9973  -28.3280   24.1397 H   0  0  0  0  0  0
  -20.5681  -26.2299   23.3601 H   0  0  0  0  0  0
  -21.6651  -26.7455   22.1201 H   0  0  0  0  0  0
  -19.6931  -25.6297   21.1236 H   0  0  0  0  0  0
  -19.6721  -27.3193   20.6724 H   0  0  0  0  0  0
  -17.4206  -26.6651   21.4011 H   0  0  0  0  0  0
  -18.0345  -26.0099   22.9021 H   0  0  0  0  0  0
  -19.7939  -30.7280   24.2231 H   0  0  0  0  0  0
  -17.5022  -31.6269   24.5179 H   0  0  0  0  0  0
  -15.5354  -30.2991   23.7693 H   0  0  0  0  0  0
  -15.8655  -28.0865   22.7019 H   0  0  0  0  0  0
  -24.5955  -30.7032   25.7835 H   0  0  0  0  0  0
  -24.8991  -32.2848   26.4954 H   0  0  0  0  0  0
  -25.8172  -30.8857   27.0218 H   0  0  0  0  0  0
  -26.2894  -29.6747   24.1217 H   0  0  0  0  0  0
  -27.4100  -29.7281   25.4631 H   0  0  0  0  0  0
  -27.8741  -30.4294   23.9312 H   0  0  0  0  0  0
  -27.2657  -33.3596   26.2096 H   0  0  0  0  0  0
  -28.3865  -32.6902   25.0328 H   0  0  0  0  0  0
  -28.0732  -31.8427   26.5396 H   0  0  0  0  0  0
  -28.2595  -38.0102   24.7485 H   0  0  0  0  0  0
  -28.1071  -36.2633   24.6320 H   0  0  0  0  0  0
  -27.2290  -37.1494   25.8864 H   0  0  0  0  0  0
  -20.9316  -29.8790   21.6911 H   0  0  0  0  0  0
  -26.0167  -38.2844   24.1412 H   0  0  0  0  0  0
  -29.4016  -19.6874   21.2831 H   0  0  0  0  0  0
  -31.5514  -20.7737   17.7171 H   0  0  0  0  0  0
  -31.2075  -16.6455   18.7865 H   0  0  0  0  0  0
  -31.0641  -22.4609   19.1537 H   0  0  0  0  0  0
  -29.2079  -17.4090   21.9506 H   0  0  0  0  0  0
  -28.4660  -22.3090   20.7294 H   0  0  0  0  0  0
  -29.4373  -15.2601   22.2401 H   0  0  0  0  0  0
  -32.7020  -19.1497   16.4389 H   0  0  0  0  0  0
  -31.6224  -17.7728   16.1946 H   0  0  0  0  0  0
  -33.0669  -17.6018   17.1973 H   0  0  0  0  0  0
  -27.8993  -25.0133   21.4489 H   0  0  0  0  0  0
  -27.3569  -24.7125   19.8064 H   0  0  0  0  0  0
  1 25  1  0  0  0
  1 30  2  0  0  0
  1 80  1  0  0  0
  2  3  1  0  0  0
  2 25  1  0  0  0
  2 85  1  0  0  0
  2 86  1  0  0  0
  3  4  1  0  0  0
  3 87  1  0  0  0
  3 88  1  0  0  0
  4  5  1  0  0  0
  4 89  1  0  0  0
  4 90  1  0  0  0
  5  6  1  0  0  0
  5 26  1  0  0  0
  5 91  1  0  0  0
  6 25  1  0  0  0
  6 92  1  0  0  0
  6 93  1  0  0  0
  7  8  2  0  0  0
  7 26  1  0  0  0
  7 29  1  0  0  0
  8  9  1  0  0  0
  8 22  1  0  0  0
  9 10  1  0  0  0
  9 27  2  0  0  0
 10 11  2  0  0  0
 10 15  1  0  0  0
 11 12  1  0  0  0
 11 94  1  0  0  0
 12 13  2  0  0  0
 12 95  1  0  0  0
 13 14  1  0  0  0
 13 31  1  0  0  0
 14 15  2  0  0  0
 14 96  1  0  0  0
 15 97  1  0  0  0
 16 17  2  0  0  0
 16 21  1  0  0  0
 16 31  1  0  0  0
 17 18  1  0  0  0
 17 98  1  0  0  0
 18 19  2  0  0  0
 18 99  1  0  0  0
 19 20  1  0  0  0
 19 24  1  0  0  0
 20 21  2  0  0  0
 20100  1  0  0  0
 21 23  1  0  0  0
 22 28  1  0  0  0
 22 32  2  0  0  0
 26 27  1  0  0  0
 28101  1  0  0  0
 28102  1  0  0  0
 29103  1  0  0  0
 29104  1  0  0  0
 33 34  1  0  0  0
 33 66  1  0  0  0
 33 70  2  0  0  0
 34 36  1  0  0  0
 34 59  1  0  0  0
 34105  1  0  0  0
 35 44  2  0  0  0
 35 45  1  0  0  0
 35 68  1  0  0  0
 36 56  1  0  0  0
 36106  1  0  0  0
 37 39  1  0  0  0
 37 47  1  0  0  0
 37 66  1  0  0  0
 37107  1  0  0  0
 38 43  2  0  0  0
 38 46  1  0  0  0
 38 47  1  0  0  0
 39 64  1  0  0  0
 39 67  2  0  0  0
 40 52  1  0  0  0
 40 53  2  0  0  0
 40 58  1  0  0  0
 41108  1  0  0  0
 41109  1  0  0  0
 41110  1  0  0  0
 41 48  1  0  0  0
 42 43  1  0  0  0
 42 66  1  0  0  0
 42111  1  0  0  0
 42112  1  0  0  0
 43 44  1  0  0  0
 44113  1  0  0  0
 45 46  2  0  0  0
 45114  1  0  0  0
 46115  1  0  0  0
 47116  1  0  0  0
 47117  1  0  0  0
 48 56  1  0  0  0
 48 65  1  0  0  0
 48118  1  0  0  0
 49 50  1  0  0  0
 49 53  1  0  0  0
 49 64  1  0  0  0
 49119  1  0  0  0
 50 51  1  0  0  0
 50120  1  0  0  0
 50121  1  0  0  0
 51 52  1  0  0  0
 51122  1  0  0  0
 51123  1  0  0  0
 52124  1  0  0  0
 52125  1  0  0  0
 53 54  1  0  0  0
 54 55  2  0  0  0
 54126  1  0  0  0
 55 57  1  0  0  0
 55127  1  0  0  0
 56 69  2  0  0  0
 57 58  2  0  0  0
 57128  1  0  0  0
 58129  1  0  0  0
 59 60  1  0  0  0
 59 61  1  0  0  0
 59 62  1  0  0  0
 60130  1  0  0  0
 60131  1  0  0  0
 60132  1  0  0  0
 61133  1  0  0  0
 61134  1  0  0  0
 61135  1  0  0  0
 62136  1  0  0  0
 62137  1  0  0  0
 62138  1  0  0  0
 63 65  1  0  0  0
 63139  1  0  0  0
 63140  1  0  0  0
 63141  1  0  0  0
 64142  1  0  0  0
 65143  1  0  0  0
 68 83  1  0  0  0
 71 74  2  0  0  0
 71 75  1  0  0  0
 71144  1  0  0  0
 72 74  1  0  0  0
 72 76  2  0  0  0
 72145  1  0  0  0
 73 75  2  0  0  0
 73 76  1  0  0  0
 73146  1  0  0  0
 74 77  1  0  0  0
 75 78  1  0  0  0
 76 82  1  0  0  0
 77 79  2  0  0  0
 77147  1  0  0  0
 78 80  2  0  0  0
 78148  1  0  0  0
 79 81  1  0  0  0
 79149  1  0  0  0
 80150  1  0  0  0
 81 83  1  0  0  0
 81 84  2  0  0  0
 82151  1  0  0  0
 82152  1  0  0  0
 82153  1  0  0  0
 83154  1  0  0  0
 83155  1  0  0  0
M  ISO  4   1 100  68 101  80 100  83 101
M  END
> <chiral flag>
0

> <version>
0

> <s_m_source_file>
/data/baiqing/PycharmProjects/Reinvent-master-3.2/result/LINK_invent/BTK/process_docking_weight1_custom_product_contain_oxygen_bond_distance_aromatic_linkinvent_7_9_3/rearranged_h_0126.sdf

> <i_m_source_file_index>
58

> <r_mmod_Potential_Energy-OPLS-2005>
69.2755584716797

> <r_mmod_Stretch_Energy-OPLS-2005>
63.7347793579102

> <r_mmod_Bend_Energy-OPLS-2005>
157.100204467773

> <r_mmod_Torsional_Energy-OPLS-2005>
195.385620117188

> <r_mmod_Improper_Torsional_Energy-OPLS-2005>
1.95292520523071

> <r_mmod_Van_der_Waal_Energy-OPLS-2005>
154.194686889648

> <r_mmod_Electrostatic_Energy-OPLS-2005>
-311.874450683594

> <r_mmod_Solvation_Energy-OPLS-2005>
-218.05094909668

> <b_mmod_Minimization_Converged-OPLS-2005>
0

> <r_mmod_RMS_Derivative-OPLS-2005>
2.09699583053589

$$$$
58
                    3D
 Structure written by MMmdl.
160168  0  0  1  0            999 V2000
  -30.7177  -14.4717   20.4653 C   0  0  0  0  0  0
  -30.4121  -12.2790   19.4418 C   0  0  0  0  0  0
  -29.5111  -12.4884   18.2072 C   0  0  0  0  0  0
  -28.0164  -12.3669   18.5836 C   0  0  0  0  0  0
  -27.6390  -13.2016   19.8349 C   0  0  2  0  0  0
  -28.6898  -13.0614   20.9683 C   0  0  0  0  0  0
  -25.2550  -13.8133   20.5700 C   0  0  0  0  0  0
  -24.1814  -13.0403   20.9295 C   0  0  0  0  0  0
  -24.6387  -11.6884   20.8828 C   0  0  0  0  0  0
  -23.9036  -10.4282   21.0445 C   0  0  0  0  0  0
  -24.3620   -9.4202   21.9179 C   0  0  0  0  0  0
  -23.6324   -8.2214   22.0688 C   0  0  0  0  0  0
  -22.4297   -8.0265   21.3501 C   0  0  0  0  0  0
  -21.9937   -9.0241   20.4627 C   0  0  0  0  0  0
  -22.7228  -10.2139   20.3070 C   0  0  0  0  0  0
  -21.6869   -6.0742   22.5285 C   0  0  0  0  0  0
  -21.4006   -6.5633   23.8222 C   0  0  0  0  0  0
  -21.3684   -5.6772   24.9189 C   0  0  0  0  0  0
  -21.6038   -4.3028   24.7223 C   0  0  0  0  0  0
  -21.8826   -3.8143   23.4346 C   0  0  0  0  0  0
  -21.9198   -4.6965   22.3415 C   0  0  0  0  0  0
  -22.7838  -13.5216   21.1918 C   0  0  0  0  0  0
  -22.1652   -4.2139   21.0990 F   0  0  0  0  0  0
  -21.5663   -3.4500   25.7733 F   0  0  0  0  0  0
  -30.0333  -13.2999   20.4206 N   0  0  0  0  0  0
  -26.2928  -12.9242   20.3233 N   0  0  0  0  0  0
  -25.9287  -11.6418   20.5719 N   0  0  0  0  0  0
  -22.0423  -12.8243   22.0491 N   0  0  0  0  0  0
  -25.4223  -15.1836   20.4147 N   0  0  0  0  0  0
  -31.9247  -14.5455   20.2251 O   0  0  0  0  0  0
  -21.6625   -6.8889   21.4244 O   0  0  0  0  0  0
  -22.3539  -14.5494   20.6716 O   0  0  0  0  0  0
  -24.6157  -31.8708   23.2147 C   0  0  0  0  0  0
  -25.9076  -32.4794   23.8401 C   0  0  1  0  0  0
  -27.2247  -27.4535   20.0933 C   0  0  0  0  0  0
  -25.5900  -33.8588   24.2319 N   0  0  0  0  0  0
  -23.3956  -30.5065   21.5514 C   0  0  2  0  0  0
  -24.8350  -28.9833   20.1109 C   0  0  0  0  0  0
  -22.7385  -29.4714   22.4945 C   0  0  0  0  0  0
  -18.0261  -28.1366   22.8473 C   0  0  0  0  0  0
  -24.1448  -36.7348   23.2646 C   0  0  0  0  0  0
  -25.9262  -30.8455   21.3637 C   0  0  0  0  0  0
  -25.9991  -29.4873   20.7037 C   0  0  0  0  0  0
  -27.1953  -28.7338   20.6890 C   0  0  0  0  0  0
  -26.0374  -26.9853   19.4627 C   0  0  0  0  0  0
  -24.8502  -27.7290   19.4873 C   0  0  0  0  0  0
  -23.6011  -29.8523   20.1616 C   0  0  0  0  0  0
  -25.4070  -36.3084   24.0331 C   0  0  1  0  0  0
  -20.5854  -28.3678   23.1275 C   0  0  2  0  0  0
  -20.6717  -26.9413   22.5432 C   0  0  0  0  0  0
  -19.5718  -26.6352   21.5213 C   0  0  0  0  0  0
  -18.1891  -26.7896   22.1644 C   0  0  0  0  0  0
  -19.1507  -28.8833   23.2870 C   0  0  0  0  0  0
  -18.9463  -30.1429   23.8910 C   0  0  0  0  0  0
  -17.6481  -30.6590   24.0556 C   0  0  0  0  0  0
  -25.9044  -34.9459   23.5126 C   0  0  0  0  0  0
  -16.5358  -29.9127   23.6290 C   0  0  0  0  0  0
  -16.7256  -28.6520   23.0325 C   0  0  0  0  0  0
  -26.4474  -31.6547   25.0739 C   0  0  0  0  0  0
  -25.3753  -31.3730   26.1509 C   0  0  0  0  0  0
  -27.0308  -30.2964   24.6144 C   0  0  0  0  0  0
  -27.5980  -32.4308   25.7571 C   0  0  0  0  0  0
  -27.5561  -37.1828   24.8450 C   0  0  0  0  0  0
  -21.4103  -29.3062   22.3673 N   0  0  0  0  0  0
  -26.4240  -37.3816   23.9433 N   0  0  0  0  0  0
  -24.6645  -31.0887   22.1010 N   0  0  0  0  0  0
  -23.4169  -28.8270   23.2978 O   0  0  0  0  0  0
  -28.3772  -26.6927   20.1620 O   0  0  0  0  0  0
  -26.5629  -34.8931   22.4732 O   0  0  0  0  0  0
  -23.5363  -32.1465   23.7548 O   0  0  0  0  0  0
  -27.8616  -19.0925   18.7560 C   0  0  0  0  0  0
  -28.0670  -20.3279   19.3752 C   0  0  0  0  0  0
  -28.6589  -18.0054   19.1367 C   0  0  0  0  0  0
  -29.0513  -20.4940   20.3752 C   0  0  0  0  0  0
  -29.6162  -18.1156   20.1792 C   0  0  0  0  0  0
  -29.7949  -19.3651   20.8345 C   0  0  0  0  0  0
  -30.0564  -24.6596   21.4688 C   0  0  0  0  0  0
  -29.2522  -21.8683   20.8626 C   0  0  0  0  0  0
  -30.3823  -16.9015   20.5437 C   0  0  0  0  0  0
  -29.0960  -22.9484   20.0670 C   0  0  0  0  0  0
  -29.8803  -15.6611   20.4017 C   0  0  0  0  0  0
  -29.1768  -24.3235   20.5106 C   0  0  0  0  0  0
  -32.1864  -19.6093   21.8341 C   0  0  0  0  0  0
  -30.6799  -19.4710   22.0851 C   0  0  0  0  0  0
  -28.2089  -25.3028   19.8604 C   0  0  0  0  0  0
  -31.4646  -12.3471   19.1668 H   0  0  0  0  0  0
  -30.2643  -11.2828   19.8646 H   0  0  0  0  0  0
  -29.7634  -11.7536   17.4421 H   0  0  0  0  0  0
  -29.7183  -13.4647   17.7640 H   0  0  0  0  0  0
  -27.7959  -11.3155   18.7506 H   0  0  0  0  0  0
  -27.4042  -12.6804   17.7339 H   0  0  0  0  0  0
  -27.5981  -14.2202   19.4634 H   0  0  0  0  0  0
  -28.6582  -12.0629   21.4037 H   0  0  0  0  0  0
  -28.4722  -13.7558   21.7822 H   0  0  0  0  0  0
  -25.2762   -9.5677   22.4748 H   0  0  0  0  0  0
  -24.0056   -7.4614   22.7400 H   0  0  0  0  0  0
  -21.0840   -8.8798   19.8988 H   0  0  0  0  0  0
  -22.3676  -10.9694   19.6211 H   0  0  0  0  0  0
  -21.1948   -7.6129   23.9741 H   0  0  0  0  0  0
  -21.1510   -6.0481   25.9095 H   0  0  0  0  0  0
  -22.0582   -2.7600   23.2847 H   0  0  0  0  0  0
  -22.3949  -11.9968   22.5058 H   0  0  0  0  0  0
  -21.1031  -13.1306   22.2536 H   0  0  0  0  0  0
  -24.6569  -15.8372   20.5367 H   0  0  0  0  0  0
  -26.2840  -15.6325   20.1355 H   0  0  0  0  0  0
  -26.7145  -32.5499   23.1160 H   0  0  0  0  0  0
  -24.9879  -33.9677   25.0319 H   0  0  0  0  0  0
  -22.6848  -31.3254   21.4173 H   0  0  0  0  0  0
  -23.3684  -35.9721   23.3268 H   0  0  0  0  0  0
  -24.3574  -36.9026   22.2081 H   0  0  0  0  0  0
  -23.7195  -37.6543   23.6699 H   0  0  0  0  0  0
  -26.0406  -31.6156   20.5977 H   0  0  0  0  0  0
  -26.8179  -30.8887   21.9782 H   0  0  0  0  0  0
  -28.0865  -29.1345   21.1538 H   0  0  0  0  0  0
  -25.9919  -26.0425   18.9436 H   0  0  0  0  0  0
  -23.9616  -27.3314   19.0151 H   0  0  0  0  0  0
  -23.7256  -30.6362   19.4143 H   0  0  0  0  0  0
  -22.7201  -29.2876   19.8480 H   0  0  0  0  0  0
  -25.1227  -36.1948   25.0821 H   0  0  0  0  0  0
  -20.9925  -28.3271   24.1406 H   0  0  0  0  0  0
  -20.5536  -26.2361   23.3671 H   0  0  0  0  0  0
  -21.6607  -26.7393   22.1292 H   0  0  0  0  0  0
  -19.6884  -25.6254   21.1264 H   0  0  0  0  0  0
  -19.6617  -27.3145   20.6724 H   0  0  0  0  0  0
  -17.4166  -26.6600   21.4035 H   0  0  0  0  0  0
  -18.0326  -26.0033   22.9032 H   0  0  0  0  0  0
  -19.7948  -30.7183   24.2281 H   0  0  0  0  0  0
  -17.5077  -31.6271   24.5181 H   0  0  0  0  0  0
  -15.5365  -30.3093   23.7567 H   0  0  0  0  0  0
  -15.8631  -28.0876   22.7034 H   0  0  0  0  0  0
  -24.5839  -30.7118   25.7936 H   0  0  0  0  0  0
  -24.9050  -32.2937   26.4995 H   0  0  0  0  0  0
  -25.8134  -30.8905   27.0248 H   0  0  0  0  0  0
  -26.2889  -29.6778   24.1052 H   0  0  0  0  0  0
  -27.3881  -29.7137   25.4649 H   0  0  0  0  0  0
  -27.8803  -30.4265   23.9428 H   0  0  0  0  0  0
  -27.2461  -33.3570   26.2166 H   0  0  0  0  0  0
  -28.3835  -32.6945   25.0461 H   0  0  0  0  0  0
  -28.0581  -31.8422   26.5529 H   0  0  0  0  0  0
  -28.2531  -38.0155   24.7539 H   0  0  0  0  0  0
  -28.1059  -36.2696   24.6159 H   0  0  0  0  0  0
  -27.2335  -37.1383   25.8860 H   0  0  0  0  0  0
  -20.9267  -29.8874   21.6967 H   0  0  0  0  0  0
  -26.0090  -38.2882   24.1477 H   0  0  0  0  0  0
  -27.1019  -18.9888   17.9882 H   0  0  0  0  0  0
  -27.4369  -21.1625   19.0986 H   0  0  0  0  0  0
  -28.5099  -17.0748   18.6022 H   0  0  0  0  0  0
  -30.7137  -23.9071   21.8871 H   0  0  0  0  0  0
  -30.1409  -25.6610   21.8585 H   0  0  0  0  0  0
  -29.4820  -22.0084   21.9100 H   0  0  0  0  0  0
  -31.4105  -17.0212   20.8542 H   0  0  0  0  0  0
  -28.8808  -22.8006   19.0166 H   0  0  0  0  0  0
  -28.8428  -15.5896   20.1528 H   0  0  0  0  0  0
  -32.6867  -19.7483   22.7921 H   0  0  0  0  0  0
  -32.4276  -20.4645   21.2019 H   0  0  0  0  0  0
  -32.6228  -18.7205   21.3840 H   0  0  0  0  0  0
  -30.4899  -18.5872   22.6980 H   0  0  0  0  0  0
  -30.3547  -20.2923   22.7184 H   0  0  0  0  0  0
  -27.2428  -24.9300   20.2069 H   0  0  0  0  0  0
  -28.2457  -25.1992   18.7772 H   0  0  0  0  0  0
  1 25  1  0  0  0
  1 30  2  0  0  0
  1 81  1  0  0  0
  2  3  1  0  0  0
  2 25  1  0  0  0
  2 86  1  0  0  0
  2 87  1  0  0  0
  3  4  1  0  0  0
  3 88  1  0  0  0
  3 89  1  0  0  0
  4  5  1  0  0  0
  4 90  1  0  0  0
  4 91  1  0  0  0
  5  6  1  0  0  0
  5 26  1  0  0  0
  5 92  1  0  0  0
  6 25  1  0  0  0
  6 93  1  0  0  0
  6 94  1  0  0  0
  7  8  2  0  0  0
  7 26  1  0  0  0
  7 29  1  0  0  0
  8  9  1  0  0  0
  8 22  1  0  0  0
  9 10  1  0  0  0
  9 27  2  0  0  0
 10 11  2  0  0  0
 10 15  1  0  0  0
 11 12  1  0  0  0
 11 95  1  0  0  0
 12 13  2  0  0  0
 12 96  1  0  0  0
 13 14  1  0  0  0
 13 31  1  0  0  0
 14 15  2  0  0  0
 14 97  1  0  0  0
 15 98  1  0  0  0
 16 17  2  0  0  0
 16 21  1  0  0  0
 16 31  1  0  0  0
 17 18  1  0  0  0
 17 99  1  0  0  0
 18 19  2  0  0  0
 18100  1  0  0  0
 19 20  1  0  0  0
 19 24  1  0  0  0
 20 21  2  0  0  0
 20101  1  0  0  0
 21 23  1  0  0  0
 22 28  1  0  0  0
 22 32  2  0  0  0
 26 27  1  0  0  0
 28102  1  0  0  0
 28103  1  0  0  0
 29104  1  0  0  0
 29105  1  0  0  0
 33 34  1  0  0  0
 33 66  1  0  0  0
 33 70  2  0  0  0
 34 36  1  0  0  0
 34 59  1  0  0  0
 34106  1  0  0  0
 35 44  2  0  0  0
 35 45  1  0  0  0
 35 68  1  0  0  0
 36 56  1  0  0  0
 36107  1  0  0  0
 37 39  1  0  0  0
 37 47  1  0  0  0
 37 66  1  0  0  0
 37108  1  0  0  0
 38 43  2  0  0  0
 38 46  1  0  0  0
 38 47  1  0  0  0
 39 64  1  0  0  0
 39 67  2  0  0  0
 40 52  1  0  0  0
 40 53  2  0  0  0
 40 58  1  0  0  0
 41109  1  0  0  0
 41110  1  0  0  0
 41111  1  0  0  0
 41 48  1  0  0  0
 42 43  1  0  0  0
 42 66  1  0  0  0
 42112  1  0  0  0
 42113  1  0  0  0
 43 44  1  0  0  0
 44114  1  0  0  0
 45 46  2  0  0  0
 45115  1  0  0  0
 46116  1  0  0  0
 47117  1  0  0  0
 47118  1  0  0  0
 48 56  1  0  0  0
 48 65  1  0  0  0
 48119  1  0  0  0
 49 50  1  0  0  0
 49 53  1  0  0  0
 49 64  1  0  0  0
 49120  1  0  0  0
 50 51  1  0  0  0
 50121  1  0  0  0
 50122  1  0  0  0
 51 52  1  0  0  0
 51123  1  0  0  0
 51124  1  0  0  0
 52125  1  0  0  0
 52126  1  0  0  0
 53 54  1  0  0  0
 54 55  2  0  0  0
 54127  1  0  0  0
 55 57  1  0  0  0
 55128  1  0  0  0
 56 69  2  0  0  0
 57 58  2  0  0  0
 57129  1  0  0  0
 58130  1  0  0  0
 59 60  1  0  0  0
 59 61  1  0  0  0
 59 62  1  0  0  0
 60131  1  0  0  0
 60132  1  0  0  0
 60133  1  0  0  0
 61134  1  0  0  0
 61135  1  0  0  0
 61136  1  0  0  0
 62137  1  0  0  0
 62138  1  0  0  0
 62139  1  0  0  0
 63 65  1  0  0  0
 63140  1  0  0  0
 63141  1  0  0  0
 63142  1  0  0  0
 64143  1  0  0  0
 65144  1  0  0  0
 68 85  1  0  0  0
 71 72  2  0  0  0
 71 73  1  0  0  0
 71145  1  0  0  0
 72 74  1  0  0  0
 72146  1  0  0  0
 73 75  2  0  0  0
 73147  1  0  0  0
 74 76  2  0  0  0
 74 78  1  0  0  0
 75 76  1  0  0  0
 75 79  1  0  0  0
 76 84  1  0  0  0
 77 82  2  0  0  0
 77148  1  0  0  0
 77149  1  0  0  0
 78 80  2  0  0  0
 78150  1  0  0  0
 79 81  2  0  0  0
 79151  1  0  0  0
 80 82  1  0  0  0
 80152  1  0  0  0
 81153  1  0  0  0
 82 85  1  0  0  0
 83 84  1  0  0  0
 83154  1  0  0  0
 83155  1  0  0  0
 83156  1  0  0  0
 84157  1  0  0  0
 84158  1  0  0  0
 85159  1  0  0  0
 85160  1  0  0  0
M  ISO  4   1 100  68 101  81 100  85 101
M  END
> <chiral flag>
0

> <version>
0

> <s_m_source_file>
/data/baiqing/PycharmProjects/Reinvent-master-3.2/result/LINK_invent/BTK/process_docking_weight1_custom_product_contain_oxygen_bond_distance_aromatic_linkinvent_7_9_3/rearranged_h_0126.sdf

> <i_m_source_file_index>
59

> <r_mmod_Potential_Energy-OPLS-2005>
78.1492233276367

> <r_mmod_Stretch_Energy-OPLS-2005>
36.5107879638672

> <r_mmod_Bend_Energy-OPLS-2005>
108.156059265137

> <r_mmod_Torsional_Energy-OPLS-2005>
228.79914855957

> <r_mmod_Improper_Torsional_Energy-OPLS-2005>
13.2686252593994

> <r_mmod_Van_der_Waal_Energy-OPLS-2005>
188.764175415039

> <r_mmod_Electrostatic_Energy-OPLS-2005>
-336.06494140625

> <r_mmod_Solvation_Energy-OPLS-2005>
-186.898040771484

> <b_mmod_Minimization_Converged-OPLS-2005>
0

> <r_mmod_RMS_Derivative-OPLS-2005>
8.14645671844482

$$$$
59
                    3D
 Structure written by MMmdl.
155163  0  0  1  0            999 V2000
  -30.5514  -14.7920   20.6528 C   0  0  0  0  0  0
  -30.4792  -12.5408   19.4765 C   0  0  0  0  0  0
  -29.5210  -12.5675   18.2539 C   0  0  0  0  0  0
  -28.0459  -12.3624   18.6636 C   0  0  0  0  0  0
  -27.6624  -13.2138   19.8997 C   0  0  2  0  0  0
  -28.7121  -12.9941   21.0064 C   0  0  0  0  0  0
  -25.2549  -13.8144   20.5744 C   0  0  0  0  0  0
  -24.1818  -13.0427   20.9198 C   0  0  0  0  0  0
  -24.6390  -11.6898   20.8772 C   0  0  0  0  0  0
  -23.9072  -10.4283   21.0414 C   0  0  0  0  0  0
  -24.3605   -9.4184   21.9193 C   0  0  0  0  0  0
  -23.6275   -8.2230   22.0753 C   0  0  0  0  0  0
  -22.4277   -8.0258   21.3524 C   0  0  0  0  0  0
  -21.9907   -9.0250   20.4646 C   0  0  0  0  0  0
  -22.7247  -10.2122   20.3058 C   0  0  0  0  0  0
  -21.6830   -6.0729   22.5278 C   0  0  0  0  0  0
  -21.4001   -6.5628   23.8220 C   0  0  0  0  0  0
  -21.3666   -5.6781   24.9177 C   0  0  0  0  0  0
  -21.6051   -4.3050   24.7229 C   0  0  0  0  0  0
  -21.8817   -3.8136   23.4355 C   0  0  0  0  0  0
  -21.9196   -4.6951   22.3410 C   0  0  0  0  0  0
  -22.7839  -13.5188   21.1877 C   0  0  0  0  0  0
  -22.1662   -4.2136   21.0989 F   0  0  0  0  0  0
  -21.5640   -3.4536   25.7748 F   0  0  0  0  0  0
  -29.9936  -13.5187   20.4967 N   0  0  0  0  0  0
  -26.3033  -12.9339   20.3519 N   0  0  0  0  0  0
  -25.9339  -11.6486   20.5855 N   0  0  0  0  0  0
  -22.0490  -12.8188   22.0422 N   0  0  0  0  0  0
  -25.4192  -15.1874   20.4080 N   0  0  0  0  0  0
  -31.6758  -14.9933   20.1710 O   0  0  0  0  0  0
  -21.6613   -6.8870   21.4249 O   0  0  0  0  0  0
  -22.3522  -14.5513   20.6755 O   0  0  0  0  0  0
  -24.6264  -31.8490   23.2041 C   0  0  0  0  0  0
  -25.9059  -32.4739   23.8395 C   0  0  1  0  0  0
  -27.2178  -27.2553   20.1851 C   0  0  0  0  0  0
  -25.5862  -33.8543   24.2325 N   0  0  0  0  0  0
  -23.4262  -30.4728   21.5381 C   0  0  2  0  0  0
  -24.8799  -28.9156   20.1120 C   0  0  0  0  0  0
  -22.7471  -29.4545   22.4879 C   0  0  0  0  0  0
  -18.0266  -28.1273   22.8459 C   0  0  0  0  0  0
  -24.1431  -36.7345   23.2625 C   0  0  0  0  0  0
  -25.9650  -30.7715   21.3786 C   0  0  0  0  0  0
  -26.0408  -29.3915   20.7305 C   0  0  0  0  0  0
  -27.2104  -28.5713   20.7522 C   0  0  0  0  0  0
  -26.0419  -26.8420   19.5277 C   0  0  0  0  0  0
  -24.8828  -27.6545   19.4940 C   0  0  0  0  0  0
  -23.6507  -29.8069   20.1555 C   0  0  0  0  0  0
  -25.4052  -36.3092   24.0310 C   0  0  1  0  0  0
  -20.5875  -28.3605   23.1235 C   0  0  2  0  0  0
  -20.6728  -26.9310   22.5378 C   0  0  0  0  0  0
  -19.5736  -26.6314   21.5137 C   0  0  0  0  0  0
  -18.1918  -26.7828   22.1569 C   0  0  0  0  0  0
  -19.1509  -28.8741   23.2847 C   0  0  0  0  0  0
  -18.9443  -30.1345   23.8857 C   0  0  0  0  0  0
  -17.6457  -30.6500   24.0494 C   0  0  0  0  0  0
  -25.8991  -34.9425   23.5143 C   0  0  0  0  0  0
  -16.5349  -29.9014   23.6281 C   0  0  0  0  0  0
  -16.7259  -28.6415   23.0333 C   0  0  0  0  0  0
  -26.4432  -31.6552   25.0787 C   0  0  0  0  0  0
  -25.3726  -31.3609   26.1583 C   0  0  0  0  0  0
  -27.0333  -30.2965   24.6269 C   0  0  0  0  0  0
  -27.6039  -32.4283   25.7513 C   0  0  0  0  0  0
  -27.5558  -37.1807   24.8437 C   0  0  0  0  0  0
  -21.4159  -29.3003   22.3648 N   0  0  0  0  0  0
  -26.4258  -37.3792   23.9391 N   0  0  0  0  0  0
  -24.6912  -31.0471   22.1020 N   0  0  0  0  0  0
  -23.4156  -28.8083   23.2972 O   0  0  0  0  0  0
  -28.3358  -26.4060   20.3306 O   0  0  0  0  0  0
  -26.5574  -34.8861   22.4727 O   0  0  0  0  0  0
  -23.5436  -32.1343   23.7361 O   0  0  0  0  0  0
  -29.1914  -18.5875   20.9204 C   0  0  0  0  0  0
  -29.3633  -19.9099   21.5631 C   0  0  0  0  0  0
  -29.9976  -17.5166   21.3660 C   0  0  0  0  0  0
  -30.3099  -19.7987   22.5779 C   0  0  0  0  0  0
  -29.7044  -16.0010   21.3865 C   0  0  0  0  0  0
  -31.9472  -21.0084   24.2861 C   0  0  0  0  0  0
  -30.5119  -20.7486   23.7593 C   0  0  0  0  0  0
  -28.0726  -23.6753   20.9074 C   0  0  0  0  0  0
  -28.4093  -24.9516   19.9549 C   0  0  0  0  0  0
  -28.9007  -22.2777   20.7091 C   0  0  0  0  0  0
  -28.6887  -15.7454   22.0993 N   0  0  0  0  0  0
  -28.5137  -21.0250   21.4260 O   0  0  0  0  0  0
  -31.1065  -18.2048   22.5455 S   0  0  0  0  0  0
  -31.4953  -12.7600   19.1436 H   0  0  0  0  0  0
  -30.5319  -11.5379   19.9022 H   0  0  0  0  0  0
  -29.8098  -11.8074   17.5290 H   0  0  0  0  0  0
  -29.6186  -13.5245   17.7419 H   0  0  0  0  0  0
  -27.9060  -11.3068   18.8922 H   0  0  0  0  0  0
  -27.3782  -12.5765   17.8288 H   0  0  0  0  0  0
  -27.6957  -14.2625   19.6062 H   0  0  0  0  0  0
  -28.7969  -11.9251   21.2063 H   0  0  0  0  0  0
  -28.4126  -13.3806   21.9757 H   0  0  0  0  0  0
  -25.2752   -9.5648   22.4763 H   0  0  0  0  0  0
  -23.9990   -7.4599   22.7450 H   0  0  0  0  0  0
  -21.0843   -8.8784   19.8932 H   0  0  0  0  0  0
  -22.3727  -10.9665   19.6159 H   0  0  0  0  0  0
  -21.1971   -7.6131   23.9720 H   0  0  0  0  0  0
  -21.1498   -6.0503   25.9078 H   0  0  0  0  0  0
  -22.0594   -2.7594   23.2862 H   0  0  0  0  0  0
  -22.4116  -11.9822   22.4796 H   0  0  0  0  0  0
  -21.1105  -13.1226   22.2681 H   0  0  0  0  0  0
  -24.6561  -15.8434   20.5240 H   0  0  0  0  0  0
  -26.2957  -15.6348   20.1730 H   0  0  0  0  0  0
  -26.7145  -32.5377   23.1164 H   0  0  0  0  0  0
  -24.9944  -33.9635   25.0440 H   0  0  0  0  0  0
  -22.7228  -31.2946   21.3905 H   0  0  0  0  0  0
  -23.3677  -35.9703   23.3297 H   0  0  0  0  0  0
  -24.3537  -36.9026   22.2063 H   0  0  0  0  0  0
  -23.7299  -37.6555   23.6705 H   0  0  0  0  0  0
  -26.0796  -31.5274   20.6011 H   0  0  0  0  0  0
  -26.8530  -30.8404   21.9995 H   0  0  0  0  0  0
  -28.0990  -28.9260   21.2548 H   0  0  0  0  0  0
  -25.9906  -25.8695   19.0663 H   0  0  0  0  0  0
  -23.9920  -27.2851   19.0068 H   0  0  0  0  0  0
  -23.7850  -30.5806   19.4012 H   0  0  0  0  0  0
  -22.7715  -29.2439   19.8433 H   0  0  0  0  0  0
  -25.1254  -36.1950   25.0823 H   0  0  0  0  0  0
  -20.9899  -28.3180   24.1384 H   0  0  0  0  0  0
  -20.5464  -26.2222   23.3588 H   0  0  0  0  0  0
  -21.6603  -26.7237   22.1270 H   0  0  0  0  0  0
  -19.6846  -25.6225   21.1169 H   0  0  0  0  0  0
  -19.6663  -27.3052   20.6626 H   0  0  0  0  0  0
  -17.4178  -26.6507   21.3992 H   0  0  0  0  0  0
  -18.0349  -25.9914   22.8915 H   0  0  0  0  0  0
  -19.7925  -30.7098   24.2247 H   0  0  0  0  0  0
  -17.5051  -31.6159   24.5085 H   0  0  0  0  0  0
  -15.5347  -30.2904   23.7623 H   0  0  0  0  0  0
  -15.8669  -28.0721   22.7109 H   0  0  0  0  0  0
  -24.5958  -30.6822   25.8017 H   0  0  0  0  0  0
  -24.8785  -32.2698   26.5025 H   0  0  0  0  0  0
  -25.8182  -30.8894   27.0372 H   0  0  0  0  0  0
  -26.2901  -29.6659   24.1371 H   0  0  0  0  0  0
  -27.4088  -29.7284   25.4786 H   0  0  0  0  0  0
  -27.8749  -30.4264   23.9483 H   0  0  0  0  0  0
  -27.2729  -33.3677   26.1945 H   0  0  0  0  0  0
  -28.3913  -32.6696   25.0365 H   0  0  0  0  0  0
  -28.0594  -31.8492   26.5536 H   0  0  0  0  0  0
  -28.2561  -38.0118   24.7528 H   0  0  0  0  0  0
  -28.1094  -36.2669   24.6239 H   0  0  0  0  0  0
  -27.2253  -37.1458   25.8827 H   0  0  0  0  0  0
  -20.9302  -29.8938   21.7065 H   0  0  0  0  0  0
  -26.0117  -38.2851   24.1458 H   0  0  0  0  0  0
  -28.3520  -18.4300   20.2546 H   0  0  0  0  0  0
  -31.9167  -21.6777   25.1560 H   0  0  0  0  0  0
  -32.5730  -21.4983   23.5428 H   0  0  0  0  0  0
  -32.4519  -20.0984   24.6202 H   0  0  0  0  0  0
  -29.9227  -20.3769   24.6017 H   0  0  0  0  0  0
  -30.0664  -21.7174   23.5372 H   0  0  0  0  0  0
  -27.0147  -23.4553   20.7609 H   0  0  0  0  0  0
  -28.1468  -23.9814   21.9496 H   0  0  0  0  0  0
  -27.9287  -24.8090   18.9861 H   0  0  0  0  0  0
  -29.4673  -24.8280   19.7279 H   0  0  0  0  0  0
  -29.9491  -22.4753   20.9219 H   0  0  0  0  0  0
  -28.8568  -22.0293   19.6459 H   0  0  0  0  0  0
  -28.3185  -16.5938   22.5180 H   0  0  0  0  0  0
  1 25  1  0  0  0
  1 30  2  0  0  0
  1 75  1  0  0  0
  2  3  1  0  0  0
  2 25  1  0  0  0
  2 84  1  0  0  0
  2 85  1  0  0  0
  3  4  1  0  0  0
  3 86  1  0  0  0
  3 87  1  0  0  0
  4  5  1  0  0  0
  4 88  1  0  0  0
  4 89  1  0  0  0
  5  6  1  0  0  0
  5 26  1  0  0  0
  5 90  1  0  0  0
  6 25  1  0  0  0
  6 91  1  0  0  0
  6 92  1  0  0  0
  7  8  2  0  0  0
  7 26  1  0  0  0
  7 29  1  0  0  0
  8  9  1  0  0  0
  8 22  1  0  0  0
  9 10  1  0  0  0
  9 27  2  0  0  0
 10 11  2  0  0  0
 10 15  1  0  0  0
 11 12  1  0  0  0
 11 93  1  0  0  0
 12 13  2  0  0  0
 12 94  1  0  0  0
 13 14  1  0  0  0
 13 31  1  0  0  0
 14 15  2  0  0  0
 14 95  1  0  0  0
 15 96  1  0  0  0
 16 17  2  0  0  0
 16 21  1  0  0  0
 16 31  1  0  0  0
 17 18  1  0  0  0
 17 97  1  0  0  0
 18 19  2  0  0  0
 18 98  1  0  0  0
 19 20  1  0  0  0
 19 24  1  0  0  0
 20 21  2  0  0  0
 20 99  1  0  0  0
 21 23  1  0  0  0
 22 28  1  0  0  0
 22 32  2  0  0  0
 26 27  1  0  0  0
 28100  1  0  0  0
 28101  1  0  0  0
 29102  1  0  0  0
 29103  1  0  0  0
 33 34  1  0  0  0
 33 66  1  0  0  0
 33 70  2  0  0  0
 34 36  1  0  0  0
 34 59  1  0  0  0
 34104  1  0  0  0
 35 44  2  0  0  0
 35 45  1  0  0  0
 35 68  1  0  0  0
 36 56  1  0  0  0
 36105  1  0  0  0
 37 39  1  0  0  0
 37 47  1  0  0  0
 37 66  1  0  0  0
 37106  1  0  0  0
 38 43  2  0  0  0
 38 46  1  0  0  0
 38 47  1  0  0  0
 39 64  1  0  0  0
 39 67  2  0  0  0
 40 52  1  0  0  0
 40 53  2  0  0  0
 40 58  1  0  0  0
 41107  1  0  0  0
 41108  1  0  0  0
 41109  1  0  0  0
 41 48  1  0  0  0
 42 43  1  0  0  0
 42 66  1  0  0  0
 42110  1  0  0  0
 42111  1  0  0  0
 43 44  1  0  0  0
 44112  1  0  0  0
 45 46  2  0  0  0
 45113  1  0  0  0
 46114  1  0  0  0
 47115  1  0  0  0
 47116  1  0  0  0
 48 56  1  0  0  0
 48 65  1  0  0  0
 48117  1  0  0  0
 49 50  1  0  0  0
 49 53  1  0  0  0
 49 64  1  0  0  0
 49118  1  0  0  0
 50 51  1  0  0  0
 50119  1  0  0  0
 50120  1  0  0  0
 51 52  1  0  0  0
 51121  1  0  0  0
 51122  1  0  0  0
 52123  1  0  0  0
 52124  1  0  0  0
 53 54  1  0  0  0
 54 55  2  0  0  0
 54125  1  0  0  0
 55 57  1  0  0  0
 55126  1  0  0  0
 56 69  2  0  0  0
 57 58  2  0  0  0
 57127  1  0  0  0
 58128  1  0  0  0
 59 60  1  0  0  0
 59 61  1  0  0  0
 59 62  1  0  0  0
 60129  1  0  0  0
 60130  1  0  0  0
 60131  1  0  0  0
 61132  1  0  0  0
 61133  1  0  0  0
 61134  1  0  0  0
 62135  1  0  0  0
 62136  1  0  0  0
 62137  1  0  0  0
 63 65  1  0  0  0
 63138  1  0  0  0
 63139  1  0  0  0
 63140  1  0  0  0
 64141  1  0  0  0
 65142  1  0  0  0
 68 79  1  0  0  0
 71 72  1  0  0  0
 71 73  2  0  0  0
 71143  1  0  0  0
 72 74  2  0  0  0
 72 82  1  0  0  0
 73 75  1  0  0  0
 73 83  1  0  0  0
 74 77  1  0  0  0
 74 83  1  0  0  0
 75 81  2  0  0  0
 76 77  1  0  0  0
 76144  1  0  0  0
 76145  1  0  0  0
 76146  1  0  0  0
 77147  1  0  0  0
 77148  1  0  0  0
 78 79  1  0  0  0
 78 80  1  0  0  0
 78149  1  0  0  0
 78150  1  0  0  0
 79151  1  0  0  0
 79152  1  0  0  0
 80 82  1  0  0  0
 80153  1  0  0  0
 80154  1  0  0  0
 81155  1  0  0  0
M  ISO  4   1 100  68 101  75 100  79 101
M  END
> <chiral flag>
0

> <version>
0

> <s_m_source_file>
/data/baiqing/PycharmProjects/Reinvent-master-3.2/result/LINK_invent/BTK/process_docking_weight1_custom_product_contain_oxygen_bond_distance_aromatic_linkinvent_7_9_3/rearranged_h_0126.sdf

> <i_m_source_file_index>
60

> <r_mmod_Potential_Energy-OPLS-2005>
403.311462402344

> <r_mmod_Stretch_Energy-OPLS-2005>
160.369552612305

> <r_mmod_Bend_Energy-OPLS-2005>
242.148956298828

> <r_mmod_Torsional_Energy-OPLS-2005>
226.914581298828

> <r_mmod_Improper_Torsional_Energy-OPLS-2005>
10.7102956771851

> <r_mmod_Van_der_Waal_Energy-OPLS-2005>
116.682647705078

> <r_mmod_Electrostatic_Energy-OPLS-2005>
-260.376434326172

> <r_mmod_Solvation_Energy-OPLS-2005>
-194.735015869141

> <b_mmod_Minimization_Converged-OPLS-2005>
0

> <r_mmod_RMS_Derivative-OPLS-2005>
7.32733917236328

$$$$
60
                    3D
 Structure written by MMmdl.
164172  0  0  1  0            999 V2000
  -30.6908  -14.5069   20.5342 C   0  0  0  0  0  0
  -30.4266  -12.3130   19.4380 C   0  0  0  0  0  0
  -29.5012  -12.4932   18.2163 C   0  0  0  0  0  0
  -28.0238  -12.3472   18.6303 C   0  0  0  0  0  0
  -27.6630  -13.2005   19.8750 C   0  0  2  0  0  0
  -28.7052  -13.0092   21.0008 C   0  0  0  0  0  0
  -25.2624  -13.8132   20.5684 C   0  0  0  0  0  0
  -24.1849  -13.0425   20.9137 C   0  0  0  0  0  0
  -24.6391  -11.6888   20.8719 C   0  0  0  0  0  0
  -23.9063  -10.4284   21.0428 C   0  0  0  0  0  0
  -24.3616   -9.4197   21.9192 C   0  0  0  0  0  0
  -23.6258   -8.2253   22.0784 C   0  0  0  0  0  0
  -22.4252   -8.0299   21.3577 C   0  0  0  0  0  0
  -21.9892   -9.0280   20.4678 C   0  0  0  0  0  0
  -22.7238  -10.2140   20.3084 C   0  0  0  0  0  0
  -21.6839   -6.0718   22.5256 C   0  0  0  0  0  0
  -21.3981   -6.5610   23.8182 C   0  0  0  0  0  0
  -21.3648   -5.6774   24.9150 C   0  0  0  0  0  0
  -21.6052   -4.3047   24.7214 C   0  0  0  0  0  0
  -21.8831   -3.8125   23.4330 C   0  0  0  0  0  0
  -21.9208   -4.6942   22.3379 C   0  0  0  0  0  0
  -22.7912  -13.5275   21.1793 C   0  0  0  0  0  0
  -22.1700   -4.2133   21.0967 F   0  0  0  0  0  0
  -21.5638   -3.4538   25.7726 F   0  0  0  0  0  0
  -30.0398  -13.3122   20.4480 N   0  0  0  0  0  0
  -26.3038  -12.9276   20.3377 N   0  0  0  0  0  0
  -25.9310  -11.6449   20.5742 N   0  0  0  0  0  0
  -22.0511  -12.8335   22.0342 N   0  0  0  0  0  0
  -25.4387  -15.1856   20.4160 N   0  0  0  0  0  0
  -31.8052  -14.7014   20.0386 O   0  0  0  0  0  0
  -21.6639   -6.8882   21.4234 O   0  0  0  0  0  0
  -22.3630  -14.5615   20.6644 O   0  0  0  0  0  0
  -24.6165  -31.8649   23.2112 C   0  0  0  0  0  0
  -25.9040  -32.4810   23.8414 C   0  0  1  0  0  0
  -27.2304  -27.4087   20.1024 C   0  0  0  0  0  0
  -25.5865  -33.8598   24.2327 N   0  0  0  0  0  0
  -23.4051  -30.4900   21.5528 C   0  0  2  0  0  0
  -24.8503  -28.9564   20.1156 C   0  0  0  0  0  0
  -22.7435  -29.4626   22.5006 C   0  0  0  0  0  0
  -18.0273  -28.1363   22.8493 C   0  0  0  0  0  0
  -24.1450  -36.7279   23.2649 C   0  0  0  0  0  0
  -25.9387  -30.8216   21.3715 C   0  0  0  0  0  0
  -26.0128  -29.4575   20.7148 C   0  0  0  0  0  0
  -27.2029  -28.6913   20.7048 C   0  0  0  0  0  0
  -26.0476  -26.9404   19.4801 C   0  0  0  0  0  0
  -24.8631  -27.6973   19.4973 C   0  0  0  0  0  0
  -23.6128  -29.8227   20.1676 C   0  0  0  0  0  0
  -25.4071  -36.3088   24.0350 C   0  0  1  0  0  0
  -20.5860  -28.3631   23.1302 C   0  0  2  0  0  0
  -20.6715  -26.9354   22.5440 C   0  0  0  0  0  0
  -19.5713  -26.6365   21.5207 C   0  0  0  0  0  0
  -18.1886  -26.7927   22.1598 C   0  0  0  0  0  0
  -19.1523  -28.8827   23.2886 C   0  0  0  0  0  0
  -18.9454  -30.1419   23.8908 C   0  0  0  0  0  0
  -17.6462  -30.6564   24.0570 C   0  0  0  0  0  0
  -25.9028  -34.9467   23.5145 C   0  0  0  0  0  0
  -16.5353  -29.9067   23.6346 C   0  0  0  0  0  0
  -16.7251  -28.6475   23.0377 C   0  0  0  0  0  0
  -26.4455  -31.6603   25.0755 C   0  0  0  0  0  0
  -25.3748  -31.3738   26.1549 C   0  0  0  0  0  0
  -27.0279  -30.3037   24.6165 C   0  0  0  0  0  0
  -27.6061  -32.4324   25.7452 C   0  0  0  0  0  0
  -27.5557  -37.1762   24.8454 C   0  0  0  0  0  0
  -21.4176  -29.2978   22.3710 N   0  0  0  0  0  0
  -26.4237  -37.3794   23.9455 N   0  0  0  0  0  0
  -24.6713  -31.0751   22.1025 N   0  0  0  0  0  0
  -23.4213  -28.8189   23.3059 O   0  0  0  0  0  0
  -28.3969  -26.6578   20.1512 O   0  0  0  0  0  0
  -26.5629  -34.8919   22.4732 O   0  0  0  0  0  0
  -23.5346  -32.1419   23.7495 O   0  0  0  0  0  0
  -29.0162  -16.9077   19.3662 C   0  0  0  0  0  0
  -30.0889  -17.9897   21.2570 C   0  0  0  0  0  0
  -28.5141  -18.1518   18.9233 C   0  0  0  0  0  0
  -28.8249  -19.3422   19.6377 C   0  0  0  0  0  0
  -29.7612  -16.8017   20.5572 C   0  0  0  0  0  0
  -29.6468  -19.2595   20.7950 C   0  0  0  0  0  0
  -30.1166  -23.4988   20.4837 C   0  0  0  0  0  0
  -29.2099  -24.4227   20.8696 C   0  0  0  0  0  0
  -27.6086  -18.1366   17.6987 C   0  0  0  0  0  0
  -28.8897  -21.2798   17.9484 C   0  0  0  0  0  0
  -28.2522  -20.7015   19.2188 C   0  0  0  0  0  0
  -30.9814  -22.6596   21.4217 C   0  0  0  0  0  0
  -28.3102  -25.2309   19.9376 C   0  0  0  0  0  0
  -31.0602  -21.1448   21.0820 C   0  0  0  0  0  0
  -30.0055  -15.5072   21.1229 N   0  0  0  0  0  0
  -29.9224  -20.4008   21.5227 O   0  0  0  0  0  0
  -31.4722  -12.3983   19.1402 H   0  0  0  0  0  0
  -30.3261  -11.3081   19.8529 H   0  0  0  0  0  0
  -29.7487  -11.7555   17.4520 H   0  0  0  0  0  0
  -29.6638  -13.4702   17.7574 H   0  0  0  0  0  0
  -27.8495  -11.2925   18.8488 H   0  0  0  0  0  0
  -27.3706  -12.5983   17.7943 H   0  0  0  0  0  0
  -27.6929  -14.2422   19.5617 H   0  0  0  0  0  0
  -28.6847  -11.9767   21.3530 H   0  0  0  0  0  0
  -28.4567  -13.6162   21.8726 H   0  0  0  0  0  0
  -25.2760   -9.5629   22.4773 H   0  0  0  0  0  0
  -23.9945   -7.4640   22.7504 H   0  0  0  0  0  0
  -21.0827   -8.8785   19.8982 H   0  0  0  0  0  0
  -22.3681  -10.9687   19.6210 H   0  0  0  0  0  0
  -21.1918   -7.6108   23.9653 H   0  0  0  0  0  0
  -21.1478   -6.0522   25.9053 H   0  0  0  0  0  0
  -22.0623   -2.7593   23.2842 H   0  0  0  0  0  0
  -22.4075  -12.0005   22.4791 H   0  0  0  0  0  0
  -21.1160  -13.1461   22.2497 H   0  0  0  0  0  0
  -24.6849  -15.8515   20.5438 H   0  0  0  0  0  0
  -26.3083  -15.6263   20.1424 H   0  0  0  0  0  0
  -26.7120  -32.5503   23.1178 H   0  0  0  0  0  0
  -24.9937  -33.9752   25.0417 H   0  0  0  0  0  0
  -22.6933  -31.3061   21.4143 H   0  0  0  0  0  0
  -23.3723  -35.9596   23.3312 H   0  0  0  0  0  0
  -24.3544  -36.8911   22.2065 H   0  0  0  0  0  0
  -23.7194  -37.6474   23.6677 H   0  0  0  0  0  0
  -26.0606  -31.5836   20.6014 H   0  0  0  0  0  0
  -26.8251  -30.8722   21.9925 H   0  0  0  0  0  0
  -28.0987  -29.0655   21.1801 H   0  0  0  0  0  0
  -26.0061  -25.9868   18.9763 H   0  0  0  0  0  0
  -23.9694  -27.3050   19.0319 H   0  0  0  0  0  0
  -23.7177  -30.5959   19.4064 H   0  0  0  0  0  0
  -22.7382  -29.2386   19.8752 H   0  0  0  0  0  0
  -25.1230  -36.1946   25.0839 H   0  0  0  0  0  0
  -20.9930  -28.3201   24.1425 H   0  0  0  0  0  0
  -20.5519  -26.2254   23.3639 H   0  0  0  0  0  0
  -21.6601  -26.7310   22.1314 H   0  0  0  0  0  0
  -19.6852  -25.6288   21.1200 H   0  0  0  0  0  0
  -19.6669  -27.3189   20.6756 H   0  0  0  0  0  0
  -17.4177  -26.6730   21.3975 H   0  0  0  0  0  0
  -18.0222  -26.0026   22.8932 H   0  0  0  0  0  0
  -19.7937  -30.7217   24.2295 H   0  0  0  0  0  0
  -17.5027  -31.6258   24.5159 H   0  0  0  0  0  0
  -15.5357  -30.2972   23.7666 H   0  0  0  0  0  0
  -15.8649  -28.0788   22.7120 H   0  0  0  0  0  0
  -24.5916  -30.7045   25.7965 H   0  0  0  0  0  0
  -24.8929  -32.2894   26.4985 H   0  0  0  0  0  0
  -25.8138  -30.8983   27.0331 H   0  0  0  0  0  0
  -26.2815  -29.6789   24.1253 H   0  0  0  0  0  0
  -27.4061  -29.7289   25.4629 H   0  0  0  0  0  0
  -27.8648  -30.4337   23.9303 H   0  0  0  0  0  0
  -27.2697  -33.3578   26.2127 H   0  0  0  0  0  0
  -28.3762  -32.6975   25.0198 H   0  0  0  0  0  0
  -28.0860  -31.8428   26.5273 H   0  0  0  0  0  0
  -28.2597  -38.0039   24.7516 H   0  0  0  0  0  0
  -28.1020  -36.2593   24.6206 H   0  0  0  0  0  0
  -27.2316  -37.1356   25.8866 H   0  0  0  0  0  0
  -20.9343  -29.8719   21.6947 H   0  0  0  0  0  0
  -26.0120  -38.2844   24.1560 H   0  0  0  0  0  0
  -28.7726  -16.0200   18.7989 H   0  0  0  0  0  0
  -30.6528  -17.9293   22.1781 H   0  0  0  0  0  0
  -30.2689  -23.3227   19.4282 H   0  0  0  0  0  0
  -29.0607  -24.6077   21.9230 H   0  0  0  0  0  0
  -26.9511  -17.2656   17.7231 H   0  0  0  0  0  0
  -28.2003  -18.0787   16.7858 H   0  0  0  0  0  0
  -26.9608  -19.0065   17.6286 H   0  0  0  0  0  0
  -28.4796  -22.2660   17.7261 H   0  0  0  0  0  0
  -28.7058  -20.6474   17.0807 H   0  0  0  0  0  0
  -29.9660  -21.3942   18.0619 H   0  0  0  0  0  0
  -28.3686  -21.4270   20.0212 H   0  0  0  0  0  0
  -27.1738  -20.6307   19.0932 H   0  0  0  0  0  0
  -30.6810  -22.8065   22.4603 H   0  0  0  0  0  0
  -31.9906  -23.0672   21.3379 H   0  0  0  0  0  0
  -27.3179  -24.8353   20.1517 H   0  0  0  0  0  0
  -28.5337  -24.9999   18.8944 H   0  0  0  0  0  0
  -31.9196  -20.7199   21.6013 H   0  0  0  0  0  0
  -31.2511  -21.0062   20.0176 H   0  0  0  0  0  0
  -29.2325  -15.1623   21.6742 H   0  0  0  0  0  0
  1 25  1  0  0  0
  1 30  2  0  0  0
  1 85  1  0  0  0
  2  3  1  0  0  0
  2 25  1  0  0  0
  2 87  1  0  0  0
  2 88  1  0  0  0
  3  4  1  0  0  0
  3 89  1  0  0  0
  3 90  1  0  0  0
  4  5  1  0  0  0
  4 91  1  0  0  0
  4 92  1  0  0  0
  5  6  1  0  0  0
  5 26  1  0  0  0
  5 93  1  0  0  0
  6 25  1  0  0  0
  6 94  1  0  0  0
  6 95  1  0  0  0
  7  8  2  0  0  0
  7 26  1  0  0  0
  7 29  1  0  0  0
  8  9  1  0  0  0
  8 22  1  0  0  0
  9 10  1  0  0  0
  9 27  2  0  0  0
 10 11  2  0  0  0
 10 15  1  0  0  0
 11 12  1  0  0  0
 11 96  1  0  0  0
 12 13  2  0  0  0
 12 97  1  0  0  0
 13 14  1  0  0  0
 13 31  1  0  0  0
 14 15  2  0  0  0
 14 98  1  0  0  0
 15 99  1  0  0  0
 16 17  2  0  0  0
 16 21  1  0  0  0
 16 31  1  0  0  0
 17 18  1  0  0  0
 17100  1  0  0  0
 18 19  2  0  0  0
 18101  1  0  0  0
 19 20  1  0  0  0
 19 24  1  0  0  0
 20 21  2  0  0  0
 20102  1  0  0  0
 21 23  1  0  0  0
 22 28  1  0  0  0
 22 32  2  0  0  0
 26 27  1  0  0  0
 28103  1  0  0  0
 28104  1  0  0  0
 29105  1  0  0  0
 29106  1  0  0  0
 33 34  1  0  0  0
 33 66  1  0  0  0
 33 70  2  0  0  0
 34 36  1  0  0  0
 34 59  1  0  0  0
 34107  1  0  0  0
 35 44  2  0  0  0
 35 45  1  0  0  0
 35 68  1  0  0  0
 36 56  1  0  0  0
 36108  1  0  0  0
 37 39  1  0  0  0
 37 47  1  0  0  0
 37 66  1  0  0  0
 37109  1  0  0  0
 38 43  2  0  0  0
 38 46  1  0  0  0
 38 47  1  0  0  0
 39 64  1  0  0  0
 39 67  2  0  0  0
 40 52  1  0  0  0
 40 53  2  0  0  0
 40 58  1  0  0  0
 41110  1  0  0  0
 41111  1  0  0  0
 41112  1  0  0  0
 41 48  1  0  0  0
 42 43  1  0  0  0
 42 66  1  0  0  0
 42113  1  0  0  0
 42114  1  0  0  0
 43 44  1  0  0  0
 44115  1  0  0  0
 45 46  2  0  0  0
 45116  1  0  0  0
 46117  1  0  0  0
 47118  1  0  0  0
 47119  1  0  0  0
 48 56  1  0  0  0
 48 65  1  0  0  0
 48120  1  0  0  0
 49 50  1  0  0  0
 49 53  1  0  0  0
 49 64  1  0  0  0
 49121  1  0  0  0
 50 51  1  0  0  0
 50122  1  0  0  0
 50123  1  0  0  0
 51 52  1  0  0  0
 51124  1  0  0  0
 51125  1  0  0  0
 52126  1  0  0  0
 52127  1  0  0  0
 53 54  1  0  0  0
 54 55  2  0  0  0
 54128  1  0  0  0
 55 57  1  0  0  0
 55129  1  0  0  0
 56 69  2  0  0  0
 57 58  2  0  0  0
 57130  1  0  0  0
 58131  1  0  0  0
 59 60  1  0  0  0
 59 61  1  0  0  0
 59 62  1  0  0  0
 60132  1  0  0  0
 60133  1  0  0  0
 60134  1  0  0  0
 61135  1  0  0  0
 61136  1  0  0  0
 61137  1  0  0  0
 62138  1  0  0  0
 62139  1  0  0  0
 62140  1  0  0  0
 63 65  1  0  0  0
 63141  1  0  0  0
 63142  1  0  0  0
 63143  1  0  0  0
 64144  1  0  0  0
 65145  1  0  0  0
 68 83  1  0  0  0
 71 73  2  0  0  0
 71 75  1  0  0  0
 71146  1  0  0  0
 72 75  2  0  0  0
 72 76  1  0  0  0
 72147  1  0  0  0
 73 74  1  0  0  0
 73 79  1  0  0  0
 74 76  2  0  0  0
 74 81  1  0  0  0
 75 85  1  0  0  0
 76 86  1  0  0  0
 77 78  2  0  0  0
 77 82  1  0  0  0
 77148  1  0  0  0
 78 83  1  0  0  0
 78149  1  0  0  0
 79150  1  0  0  0
 79151  1  0  0  0
 79152  1  0  0  0
 80 81  1  0  0  0
 80153  1  0  0  0
 80154  1  0  0  0
 80155  1  0  0  0
 81156  1  0  0  0
 81157  1  0  0  0
 82 84  1  0  0  0
 82158  1  0  0  0
 82159  1  0  0  0
 83160  1  0  0  0
 83161  1  0  0  0
 84 86  1  0  0  0
 84162  1  0  0  0
 84163  1  0  0  0
 85164  1  0  0  0
M  ISO  4   1 100  68 101  83 101  85 100
M  END
> <chiral flag>
0

> <version>
0

> <s_m_source_file>
/data/baiqing/PycharmProjects/Reinvent-master-3.2/result/LINK_invent/BTK/process_docking_weight1_custom_product_contain_oxygen_bond_distance_aromatic_linkinvent_7_9_3/rearranged_h_0126.sdf

> <i_m_source_file_index>
61

> <r_mmod_Potential_Energy-OPLS-2005>
26.3225803375244

> <r_mmod_Stretch_Energy-OPLS-2005>
42.1308326721191

> <r_mmod_Bend_Energy-OPLS-2005>
105.524017333984

> <r_mmod_Torsional_Energy-OPLS-2005>
274.482238769531

> <r_mmod_Improper_Torsional_Energy-OPLS-2005>
6.61651182174683

> <r_mmod_Van_der_Waal_Energy-OPLS-2005>
143.803268432617

> <r_mmod_Electrostatic_Energy-OPLS-2005>
-356.190826416016

> <r_mmod_Solvation_Energy-OPLS-2005>
-208.383407592773

> <b_mmod_Minimization_Converged-OPLS-2005>
0

> <r_mmod_RMS_Derivative-OPLS-2005>
4.34966611862183

$$$$
61
                    3D
 Structure written by MMmdl.
155163  0  0  1  0            999 V2000
  -30.6646  -14.5670   20.5861 C   0  0  0  0  0  0
  -30.4377  -12.3720   19.4311 C   0  0  0  0  0  0
  -29.5028  -12.5269   18.2106 C   0  0  0  0  0  0
  -28.0238  -12.3667   18.6171 C   0  0  0  0  0  0
  -27.6624  -13.2048   19.8719 C   0  0  2  0  0  0
  -28.7031  -12.9880   20.9887 C   0  0  0  0  0  0
  -25.2615  -13.8137   20.5658 C   0  0  0  0  0  0
  -24.1857  -13.0433   20.9136 C   0  0  0  0  0  0
  -24.6404  -11.6897   20.8707 C   0  0  0  0  0  0
  -23.9063  -10.4296   21.0394 C   0  0  0  0  0  0
  -24.3621   -9.4213   21.9173 C   0  0  0  0  0  0
  -23.6289   -8.2254   22.0761 C   0  0  0  0  0  0
  -22.4268   -8.0294   21.3549 C   0  0  0  0  0  0
  -21.9901   -9.0265   20.4647 C   0  0  0  0  0  0
  -22.7231  -10.2141   20.3048 C   0  0  0  0  0  0
  -21.6862   -6.0735   22.5279 C   0  0  0  0  0  0
  -21.4014   -6.5638   23.8210 C   0  0  0  0  0  0
  -21.3662   -5.6791   24.9176 C   0  0  0  0  0  0
  -21.6044   -4.3054   24.7225 C   0  0  0  0  0  0
  -21.8821   -3.8143   23.4349 C   0  0  0  0  0  0
  -21.9195   -4.6961   22.3402 C   0  0  0  0  0  0
  -22.7887  -13.5263   21.1807 C   0  0  0  0  0  0
  -22.1666   -4.2144   21.0981 F   0  0  0  0  0  0
  -21.5629   -3.4542   25.7741 F   0  0  0  0  0  0
  -30.0253  -13.3596   20.4493 N   0  0  0  0  0  0
  -26.3042  -12.9297   20.3332 N   0  0  0  0  0  0
  -25.9333  -11.6462   20.5728 N   0  0  0  0  0  0
  -22.0528  -12.8274   22.0369 N   0  0  0  0  0  0
  -25.4358  -15.1860   20.4106 N   0  0  0  0  0  0
  -31.7816  -14.7449   20.0900 O   0  0  0  0  0  0
  -21.6643   -6.8886   21.4243 O   0  0  0  0  0  0
  -22.3589  -14.5576   20.6662 O   0  0  0  0  0  0
  -24.6215  -31.8617   23.2069 C   0  0  0  0  0  0
  -25.9079  -32.4786   23.8383 C   0  0  1  0  0  0
  -27.2325  -27.3626   20.1149 C   0  0  0  0  0  0
  -25.5924  -33.8594   24.2309 N   0  0  0  0  0  0
  -23.4144  -30.4855   21.5450 C   0  0  2  0  0  0
  -24.8630  -28.9452   20.1155 C   0  0  0  0  0  0
  -22.7440  -29.4625   22.4929 C   0  0  0  0  0  0
  -18.0279  -28.1397   22.8461 C   0  0  0  0  0  0
  -24.1491  -36.7304   23.2637 C   0  0  0  0  0  0
  -25.9511  -30.8074   21.3720 C   0  0  0  0  0  0
  -26.0285  -29.4366   20.7182 C   0  0  0  0  0  0
  -27.2166  -28.6550   20.7101 C   0  0  0  0  0  0
  -26.0463  -26.9135   19.4902 C   0  0  0  0  0  0
  -24.8718  -27.6877   19.4932 C   0  0  0  0  0  0
  -23.6299  -29.8212   20.1597 C   0  0  0  0  0  0
  -25.4111  -36.3090   24.0334 C   0  0  1  0  0  0
  -20.5873  -28.3690   23.1282 C   0  0  2  0  0  0
  -20.6777  -26.9418   22.5406 C   0  0  0  0  0  0
  -19.5760  -26.6390   21.5200 C   0  0  0  0  0  0
  -18.1933  -26.7938   22.1605 C   0  0  0  0  0  0
  -19.1530  -28.8857   23.2867 C   0  0  0  0  0  0
  -18.9459  -30.1462   23.8877 C   0  0  0  0  0  0
  -17.6462  -30.6593   24.0563 C   0  0  0  0  0  0
  -25.9042  -34.9456   23.5114 C   0  0  0  0  0  0
  -16.5350  -29.9093   23.6334 C   0  0  0  0  0  0
  -16.7265  -28.6523   23.0324 C   0  0  0  0  0  0
  -26.4502  -31.6582   25.0722 C   0  0  0  0  0  0
  -25.3784  -31.3693   26.1480 C   0  0  0  0  0  0
  -27.0342  -30.3012   24.6144 C   0  0  0  0  0  0
  -27.6060  -32.4314   25.7494 C   0  0  0  0  0  0
  -27.5575  -37.1811   24.8463 C   0  0  0  0  0  0
  -21.4154  -29.3050   22.3676 N   0  0  0  0  0  0
  -26.4289  -37.3775   23.9406 N   0  0  0  0  0  0
  -24.6803  -31.0673   22.0987 N   0  0  0  0  0  0
  -23.4175  -28.8159   23.2996 O   0  0  0  0  0  0
  -28.3716  -26.5604   20.1306 O   0  0  0  0  0  0
  -26.5583  -34.8908   22.4661 O   0  0  0  0  0  0
  -23.5385  -32.1395   23.7418 O   0  0  0  0  0  0
  -29.9720  -19.4026   20.4108 C   0  0  0  0  0  0
  -31.1848  -20.0263   18.4081 C   0  0  0  0  0  0
  -30.9935  -17.6733   19.0266 C   0  0  0  0  0  0
  -30.4455  -20.4342   19.5382 C   0  0  0  0  0  0
  -30.2635  -18.0092   20.1859 C   0  0  0  0  0  0
  -31.4566  -18.6702   18.1480 C   0  0  0  0  0  0
  -30.2588  -21.9271   19.6422 C   0  0  0  0  0  0
  -29.8093  -16.9643   21.1709 C   0  0  0  0  0  0
  -29.3148  -22.7300   20.2103 C   0  0  0  0  0  0
  -29.9385  -15.6070   21.3509 C   0  0  0  0  0  0
  -29.4130  -24.2381   20.1134 C   0  0  0  0  0  0
  -32.2576  -18.2787   16.9221 C   0  0  0  0  0  0
  -28.1674  -25.1308   20.3985 C   0  0  0  0  0  0
  -30.4692  -24.8003   19.8001 O   0  0  0  0  0  0
  -31.4774  -12.4947   19.1236 H   0  0  0  0  0  0
  -30.3702  -11.3607   19.8353 H   0  0  0  0  0  0
  -29.7598  -11.7964   17.4420 H   0  0  0  0  0  0
  -29.6520  -13.5094   17.7583 H   0  0  0  0  0  0
  -27.8465  -11.3082   18.8138 H   0  0  0  0  0  0
  -27.3753  -12.6343   17.7823 H   0  0  0  0  0  0
  -27.7087  -14.2548   19.5835 H   0  0  0  0  0  0
  -28.7130  -11.9404   21.2928 H   0  0  0  0  0  0
  -28.4160  -13.5251   21.8890 H   0  0  0  0  0  0
  -25.2786   -9.5689   22.4735 H   0  0  0  0  0  0
  -24.0001   -7.4653   22.7495 H   0  0  0  0  0  0
  -21.0828   -8.8774   19.8965 H   0  0  0  0  0  0
  -22.3687  -10.9673   19.6149 H   0  0  0  0  0  0
  -21.2007   -7.6149   23.9709 H   0  0  0  0  0  0
  -21.1480   -6.0526   25.9074 H   0  0  0  0  0  0
  -22.0598   -2.7608   23.2850 H   0  0  0  0  0  0
  -22.4159  -11.9947   22.4759 H   0  0  0  0  0  0
  -21.1146  -13.1300   22.2581 H   0  0  0  0  0  0
  -24.6744  -15.8453   20.5313 H   0  0  0  0  0  0
  -26.3028  -15.6257   20.1259 H   0  0  0  0  0  0
  -26.7143  -32.5486   23.1139 H   0  0  0  0  0  0
  -25.0130  -33.9766   25.0491 H   0  0  0  0  0  0
  -22.7074  -31.3051   21.4019 H   0  0  0  0  0  0
  -23.3740  -35.9651   23.3305 H   0  0  0  0  0  0
  -24.3584  -36.8910   22.2050 H   0  0  0  0  0  0
  -23.7273  -37.6519   23.6653 H   0  0  0  0  0  0
  -26.0772  -31.5715   20.6040 H   0  0  0  0  0  0
  -26.8342  -30.8587   21.9969 H   0  0  0  0  0  0
  -28.1146  -29.0238   21.1864 H   0  0  0  0  0  0
  -26.0084  -25.9637   18.9799 H   0  0  0  0  0  0
  -23.9817  -27.3101   19.0082 H   0  0  0  0  0  0
  -23.7508  -30.5988   19.4043 H   0  0  0  0  0  0
  -22.7530  -29.2482   19.8516 H   0  0  0  0  0  0
  -25.1299  -36.1939   25.0829 H   0  0  0  0  0  0
  -20.9973  -28.3280   24.1397 H   0  0  0  0  0  0
  -20.5681  -26.2299   23.3601 H   0  0  0  0  0  0
  -21.6651  -26.7455   22.1201 H   0  0  0  0  0  0
  -19.6931  -25.6297   21.1236 H   0  0  0  0  0  0
  -19.6721  -27.3193   20.6724 H   0  0  0  0  0  0
  -17.4206  -26.6651   21.4011 H   0  0  0  0  0  0
  -18.0345  -26.0099   22.9021 H   0  0  0  0  0  0
  -19.7939  -30.7280   24.2231 H   0  0  0  0  0  0
  -17.5022  -31.6269   24.5179 H   0  0  0  0  0  0
  -15.5354  -30.2991   23.7693 H   0  0  0  0  0  0
  -15.8655  -28.0865   22.7019 H   0  0  0  0  0  0
  -24.5955  -30.7032   25.7835 H   0  0  0  0  0  0
  -24.8991  -32.2848   26.4954 H   0  0  0  0  0  0
  -25.8172  -30.8857   27.0218 H   0  0  0  0  0  0
  -26.2894  -29.6747   24.1217 H   0  0  0  0  0  0
  -27.4100  -29.7281   25.4631 H   0  0  0  0  0  0
  -27.8741  -30.4294   23.9312 H   0  0  0  0  0  0
  -27.2657  -33.3596   26.2096 H   0  0  0  0  0  0
  -28.3865  -32.6902   25.0328 H   0  0  0  0  0  0
  -28.0732  -31.8427   26.5396 H   0  0  0  0  0  0
  -28.2595  -38.0102   24.7485 H   0  0  0  0  0  0
  -28.1071  -36.2633   24.6320 H   0  0  0  0  0  0
  -27.2290  -37.1494   25.8864 H   0  0  0  0  0  0
  -20.9316  -29.8790   21.6911 H   0  0  0  0  0  0
  -26.0167  -38.2844   24.1412 H   0  0  0  0  0  0
  -29.4016  -19.6874   21.2831 H   0  0  0  0  0  0
  -31.5514  -20.7737   17.7171 H   0  0  0  0  0  0
  -31.2075  -16.6455   18.7865 H   0  0  0  0  0  0
  -31.0641  -22.4609   19.1537 H   0  0  0  0  0  0
  -29.2079  -17.4090   21.9506 H   0  0  0  0  0  0
  -28.4660  -22.3090   20.7294 H   0  0  0  0  0  0
  -29.4373  -15.2601   22.2401 H   0  0  0  0  0  0
  -32.7020  -19.1497   16.4389 H   0  0  0  0  0  0
  -31.6224  -17.7728   16.1946 H   0  0  0  0  0  0
  -33.0669  -17.6018   17.1973 H   0  0  0  0  0  0
  -27.8993  -25.0133   21.4489 H   0  0  0  0  0  0
  -27.3569  -24.7125   19.8064 H   0  0  0  0  0  0
  1 25  1  0  0  0
  1 30  2  0  0  0
  1 80  1  0  0  0
  2  3  1  0  0  0
  2 25  1  0  0  0
  2 85  1  0  0  0
  2 86  1  0  0  0
  3  4  1  0  0  0
  3 87  1  0  0  0
  3 88  1  0  0  0
  4  5  1  0  0  0
  4 89  1  0  0  0
  4 90  1  0  0  0
  5  6  1  0  0  0
  5 26  1  0  0  0
  5 91  1  0  0  0
  6 25  1  0  0  0
  6 92  1  0  0  0
  6 93  1  0  0  0
  7  8  2  0  0  0
  7 26  1  0  0  0
  7 29  1  0  0  0
  8  9  1  0  0  0
  8 22  1  0  0  0
  9 10  1  0  0  0
  9 27  2  0  0  0
 10 11  2  0  0  0
 10 15  1  0  0  0
 11 12  1  0  0  0
 11 94  1  0  0  0
 12 13  2  0  0  0
 12 95  1  0  0  0
 13 14  1  0  0  0
 13 31  1  0  0  0
 14 15  2  0  0  0
 14 96  1  0  0  0
 15 97  1  0  0  0
 16 17  2  0  0  0
 16 21  1  0  0  0
 16 31  1  0  0  0
 17 18  1  0  0  0
 17 98  1  0  0  0
 18 19  2  0  0  0
 18 99  1  0  0  0
 19 20  1  0  0  0
 19 24  1  0  0  0
 20 21  2  0  0  0
 20100  1  0  0  0
 21 23  1  0  0  0
 22 28  1  0  0  0
 22 32  2  0  0  0
 26 27  1  0  0  0
 28101  1  0  0  0
 28102  1  0  0  0
 29103  1  0  0  0
 29104  1  0  0  0
 33 34  1  0  0  0
 33 66  1  0  0  0
 33 70  2  0  0  0
 34 36  1  0  0  0
 34 59  1  0  0  0
 34105  1  0  0  0
 35 44  2  0  0  0
 35 45  1  0  0  0
 35 68  1  0  0  0
 36 56  1  0  0  0
 36106  1  0  0  0
 37 39  1  0  0  0
 37 47  1  0  0  0
 37 66  1  0  0  0
 37107  1  0  0  0
 38 43  2  0  0  0
 38 46  1  0  0  0
 38 47  1  0  0  0
 39 64  1  0  0  0
 39 67  2  0  0  0
 40 52  1  0  0  0
 40 53  2  0  0  0
 40 58  1  0  0  0
 41108  1  0  0  0
 41109  1  0  0  0
 41110  1  0  0  0
 41 48  1  0  0  0
 42 43  1  0  0  0
 42 66  1  0  0  0
 42111  1  0  0  0
 42112  1  0  0  0
 43 44  1  0  0  0
 44113  1  0  0  0
 45 46  2  0  0  0
 45114  1  0  0  0
 46115  1  0  0  0
 47116  1  0  0  0
 47117  1  0  0  0
 48 56  1  0  0  0
 48 65  1  0  0  0
 48118  1  0  0  0
 49 50  1  0  0  0
 49 53  1  0  0  0
 49 64  1  0  0  0
 49119  1  0  0  0
 50 51  1  0  0  0
 50120  1  0  0  0
 50121  1  0  0  0
 51 52  1  0  0  0
 51122  1  0  0  0
 51123  1  0  0  0
 52124  1  0  0  0
 52125  1  0  0  0
 53 54  1  0  0  0
 54 55  2  0  0  0
 54126  1  0  0  0
 55 57  1  0  0  0
 55127  1  0  0  0
 56 69  2  0  0  0
 57 58  2  0  0  0
 57128  1  0  0  0
 58129  1  0  0  0
 59 60  1  0  0  0
 59 61  1  0  0  0
 59 62  1  0  0  0
 60130  1  0  0  0
 60131  1  0  0  0
 60132  1  0  0  0
 61133  1  0  0  0
 61134  1  0  0  0
 61135  1  0  0  0
 62136  1  0  0  0
 62137  1  0  0  0
 62138  1  0  0  0
 63 65  1  0  0  0
 63139  1  0  0  0
 63140  1  0  0  0
 63141  1  0  0  0
 64142  1  0  0  0
 65143  1  0  0  0
 68 83  1  0  0  0
 71 74  2  0  0  0
 71 75  1  0  0  0
 71144  1  0  0  0
 72 74  1  0  0  0
 72 76  2  0  0  0
 72145  1  0  0  0
 73 75  2  0  0  0
 73 76  1  0  0  0
 73146  1  0  0  0
 74 77  1  0  0  0
 75 78  1  0  0  0
 76 82  1  0  0  0
 77 79  2  0  0  0
 77147  1  0  0  0
 78 80  2  0  0  0
 78148  1  0  0  0
 79 81  1  0  0  0
 79149  1  0  0  0
 80150  1  0  0  0
 81 83  1  0  0  0
 81 84  2  0  0  0
 82151  1  0  0  0
 82152  1  0  0  0
 82153  1  0  0  0
 83154  1  0  0  0
 83155  1  0  0  0
M  ISO  4   1 100  68 101  80 100  83 101
M  END
> <chiral flag>
0

> <version>
0

> <s_m_source_file>
/data/baiqing/PycharmProjects/Reinvent-master-3.2/result/LINK_invent/BTK/process_docking_weight1_custom_product_contain_oxygen_bond_distance_aromatic_linkinvent_7_9_3/rearranged_h_0126.sdf

> <i_m_source_file_index>
62

> <r_mmod_Potential_Energy-OPLS-2005>
69.2755584716797

> <r_mmod_Stretch_Energy-OPLS-2005>
63.7347793579102

> <r_mmod_Bend_Energy-OPLS-2005>
157.100204467773

> <r_mmod_Torsional_Energy-OPLS-2005>
195.385620117188

> <r_mmod_Improper_Torsional_Energy-OPLS-2005>
1.95292520523071

> <r_mmod_Van_der_Waal_Energy-OPLS-2005>
154.194686889648

> <r_mmod_Electrostatic_Energy-OPLS-2005>
-311.874450683594

> <r_mmod_Solvation_Energy-OPLS-2005>
-218.05094909668

> <b_mmod_Minimization_Converged-OPLS-2005>
0

> <r_mmod_RMS_Derivative-OPLS-2005>
2.09699583053589

$$$$
62
                    3D
 Structure written by MMmdl.
155163  0  0  1  0            999 V2000
  -30.7866  -14.5163   20.6274 C   0  0  0  0  0  0
  -30.4044  -12.3372   19.4866 C   0  0  0  0  0  0
  -29.5117  -12.5135   18.2413 C   0  0  0  0  0  0
  -28.0299  -12.3684   18.6315 C   0  0  0  0  0  0
  -27.6599  -13.2335   19.8701 C   0  0  2  0  0  0
  -28.6935  -13.1012   21.0152 C   0  0  0  0  0  0
  -25.2518  -13.8231   20.5636 C   0  0  0  0  0  0
  -24.1779  -13.0500   20.9147 C   0  0  0  0  0  0
  -24.6378  -11.6974   20.8747 C   0  0  0  0  0  0
  -23.9047  -10.4335   21.0402 C   0  0  0  0  0  0
  -24.3603   -9.4272   21.9198 C   0  0  0  0  0  0
  -23.6268   -8.2306   22.0794 C   0  0  0  0  0  0
  -22.4262   -8.0296   21.3549 C   0  0  0  0  0  0
  -21.9891   -9.0274   20.4643 C   0  0  0  0  0  0
  -22.7222  -10.2170   20.3040 C   0  0  0  0  0  0
  -21.6861   -6.0732   22.5268 C   0  0  0  0  0  0
  -21.4046   -6.5664   23.8208 C   0  0  0  0  0  0
  -21.3663   -5.6795   24.9173 C   0  0  0  0  0  0
  -21.6022   -4.3046   24.7221 C   0  0  0  0  0  0
  -21.8810   -3.8148   23.4329 C   0  0  0  0  0  0
  -21.9180   -4.6953   22.3384 C   0  0  0  0  0  0
  -22.7777  -13.5305   21.1736 C   0  0  0  0  0  0
  -22.1620   -4.2145   21.0969 F   0  0  0  0  0  0
  -21.5632   -3.4540   25.7739 F   0  0  0  0  0  0
  -30.0374  -13.3749   20.4791 N   0  0  0  0  0  0
  -26.2980  -12.9460   20.3304 N   0  0  0  0  0  0
  -25.9319  -11.6611   20.5801 N   0  0  0  0  0  0
  -22.0322  -12.8415   22.0298 N   0  0  0  0  0  0
  -25.4272  -15.1931   20.4055 N   0  0  0  0  0  0
  -31.8536  -14.6311   20.0156 O   0  0  0  0  0  0
  -21.6649   -6.8881   21.4234 O   0  0  0  0  0  0
  -22.3503  -14.5591   20.6515 O   0  0  0  0  0  0
  -24.6183  -31.8642   23.2041 C   0  0  0  0  0  0
  -25.9042  -32.4810   23.8413 C   0  0  1  0  0  0
  -27.2614  -27.3967   20.1508 C   0  0  0  0  0  0
  -25.5850  -33.8613   24.2326 N   0  0  0  0  0  0
  -23.4138  -30.4789   21.5436 C   0  0  2  0  0  0
  -24.8734  -28.9282   20.1284 C   0  0  0  0  0  0
  -22.7447  -29.4650   22.5004 C   0  0  0  0  0  0
  -18.0281  -28.1408   22.8492 C   0  0  0  0  0  0
  -24.1466  -36.7348   23.2619 C   0  0  0  0  0  0
  -25.9415  -30.8252   21.3568 C   0  0  0  0  0  0
  -26.0322  -29.4488   20.7203 C   0  0  0  0  0  0
  -27.2301  -28.6907   20.7265 C   0  0  0  0  0  0
  -26.0867  -26.8974   19.5469 C   0  0  0  0  0  0
  -24.8955  -27.6524   19.5370 C   0  0  0  0  0  0
  -23.6302  -29.7906   20.1669 C   0  0  0  0  0  0
  -25.4086  -36.3125   24.0334 C   0  0  1  0  0  0
  -20.5865  -28.3696   23.1325 C   0  0  2  0  0  0
  -20.6787  -26.9434   22.5417 C   0  0  0  0  0  0
  -19.5757  -26.6405   21.5230 C   0  0  0  0  0  0
  -18.1934  -26.7951   22.1627 C   0  0  0  0  0  0
  -19.1520  -28.8880   23.2895 C   0  0  0  0  0  0
  -18.9440  -30.1473   23.8924 C   0  0  0  0  0  0
  -17.6426  -30.6581   24.0575 C   0  0  0  0  0  0
  -25.9026  -34.9476   23.5134 C   0  0  0  0  0  0
  -16.5327  -29.9091   23.6300 C   0  0  0  0  0  0
  -16.7270  -28.6516   23.0322 C   0  0  0  0  0  0
  -26.4399  -31.6572   25.0758 C   0  0  0  0  0  0
  -25.3590  -31.3737   26.1439 C   0  0  0  0  0  0
  -27.0184  -30.3000   24.6160 C   0  0  0  0  0  0
  -27.5995  -32.4231   25.7539 C   0  0  0  0  0  0
  -27.5578  -37.1817   24.8442 C   0  0  0  0  0  0
  -21.4167  -29.3043   22.3723 N   0  0  0  0  0  0
  -26.4295  -37.3796   23.9376 N   0  0  0  0  0  0
  -24.6765  -31.0711   22.0954 N   0  0  0  0  0  0
  -23.4192  -28.8231   23.3110 O   0  0  0  0  0  0
  -28.4143  -26.6286   20.1619 O   0  0  0  0  0  0
  -26.5616  -34.8931   22.4708 O   0  0  0  0  0  0
  -23.5365  -32.1388   23.7416 O   0  0  0  0  0  0
  -30.5964  -18.2029   23.3795 C   0  0  0  0  0  0
  -30.6373  -19.4347   24.0704 C   0  0  0  0  0  0
  -30.2691  -19.4272   21.3135 C   0  0  0  0  0  0
  -30.4821  -18.1809   21.9759 C   0  0  0  0  0  0
  -30.2600  -20.6905   21.9885 C   0  0  0  0  0  0
  -30.5223  -20.6697   23.3908 C   0  0  0  0  0  0
  -30.6619  -16.9052   21.2049 C   0  0  0  0  0  0
  -29.9838  -21.9342   21.1792 C   0  0  0  0  0  0
  -30.3290  -15.6135   21.5092 C   0  0  0  0  0  0
  -29.5591  -23.1702   21.5818 C   0  0  0  0  0  0
  -29.3624  -24.3290   20.6458 C   0  0  0  0  0  0
  -30.7897  -21.9333   24.2019 C   0  0  0  0  0  0
  -28.3922  -25.4823   21.0605 C   0  0  0  0  0  0
  -29.9436  -24.4011   19.5575 O   0  0  0  0  0  0
  -31.4614  -12.3612   19.2109 H   0  0  0  0  0  0
  -30.2501  -11.3477   19.9211 H   0  0  0  0  0  0
  -29.7700  -11.7693   17.4862 H   0  0  0  0  0  0
  -29.6877  -13.4908   17.7887 H   0  0  0  0  0  0
  -27.8313  -11.3175   18.8378 H   0  0  0  0  0  0
  -27.3976  -12.6302   17.7834 H   0  0  0  0  0  0
  -27.6850  -14.2729   19.5424 H   0  0  0  0  0  0
  -28.6612  -12.0967   21.4417 H   0  0  0  0  0  0
  -28.4283  -13.7857   21.8196 H   0  0  0  0  0  0
  -25.2698   -9.5805   22.4830 H   0  0  0  0  0  0
  -23.9960   -7.4734   22.7546 H   0  0  0  0  0  0
  -21.0835   -8.8782   19.8951 H   0  0  0  0  0  0
  -22.3638  -10.9707   19.6169 H   0  0  0  0  0  0
  -21.2069   -7.6167   23.9733 H   0  0  0  0  0  0
  -21.1477   -6.0519   25.9087 H   0  0  0  0  0  0
  -22.0571   -2.7599   23.2841 H   0  0  0  0  0  0
  -22.3840  -12.0166   22.4925 H   0  0  0  0  0  0
  -21.0906  -13.1515   22.2289 H   0  0  0  0  0  0
  -24.6895  -15.8722   20.5511 H   0  0  0  0  0  0
  -26.3069  -15.6163   20.1287 H   0  0  0  0  0  0
  -26.7168  -32.5503   23.1247 H   0  0  0  0  0  0
  -24.9877  -33.9758   25.0397 H   0  0  0  0  0  0
  -22.7048  -31.2934   21.3908 H   0  0  0  0  0  0
  -23.3734  -35.9667   23.3269 H   0  0  0  0  0  0
  -24.3587  -36.8980   22.2034 H   0  0  0  0  0  0
  -23.7221  -37.6561   23.6649 H   0  0  0  0  0  0
  -26.0316  -31.5737   20.5679 H   0  0  0  0  0  0
  -26.8366  -30.9066   21.9636 H   0  0  0  0  0  0
  -28.1237  -29.0870   21.1901 H   0  0  0  0  0  0
  -26.0903  -25.9146   19.1003 H   0  0  0  0  0  0
  -24.0028  -27.2431   19.0842 H   0  0  0  0  0  0
  -23.7350  -30.5472   19.3902 H   0  0  0  0  0  0
  -22.7577  -29.1974   19.8853 H   0  0  0  0  0  0
  -25.1257  -36.2012   25.0839 H   0  0  0  0  0  0
  -20.9961  -28.3271   24.1439 H   0  0  0  0  0  0
  -20.5756  -26.2298   23.3599 H   0  0  0  0  0  0
  -21.6646  -26.7517   22.1140 H   0  0  0  0  0  0
  -19.6906  -25.6322   21.1239 H   0  0  0  0  0  0
  -19.6691  -27.3240   20.6779 H   0  0  0  0  0  0
  -17.4208  -26.6713   21.4029 H   0  0  0  0  0  0
  -18.0317  -26.0102   22.9026 H   0  0  0  0  0  0
  -19.7903  -30.7280   24.2327 H   0  0  0  0  0  0
  -17.4968  -31.6263   24.5150 H   0  0  0  0  0  0
  -15.5330  -30.2990   23.7598 H   0  0  0  0  0  0
  -15.8679  -28.0835   22.7022 H   0  0  0  0  0  0
  -24.5783  -30.7095   25.7745 H   0  0  0  0  0  0
  -24.8748  -32.2897   26.4809 H   0  0  0  0  0  0
  -25.7805  -30.8929   27.0259 H   0  0  0  0  0  0
  -26.2798  -29.6899   24.0970 H   0  0  0  0  0  0
  -27.3647  -29.7104   25.4654 H   0  0  0  0  0  0
  -27.8732  -30.4307   23.9535 H   0  0  0  0  0  0
  -27.2688  -33.3544   26.2139 H   0  0  0  0  0  0
  -28.3810  -32.6728   25.0361 H   0  0  0  0  0  0
  -28.0636  -31.8308   26.5430 H   0  0  0  0  0  0
  -28.2576  -38.0132   24.7485 H   0  0  0  0  0  0
  -28.1085  -36.2656   24.6252 H   0  0  0  0  0  0
  -27.2282  -37.1441   25.8844 H   0  0  0  0  0  0
  -20.9389  -29.8720   21.6848 H   0  0  0  0  0  0
  -26.0194  -38.2879   24.1381 H   0  0  0  0  0  0
  -30.7492  -17.2813   23.9247 H   0  0  0  0  0  0
  -30.8196  -19.4276   25.1383 H   0  0  0  0  0  0
  -30.1306  -19.4219   20.2421 H   0  0  0  0  0  0
  -31.2102  -17.0600   20.2867 H   0  0  0  0  0  0
  -30.1634  -21.8181   20.1180 H   0  0  0  0  0  0
  -29.7833  -15.3944   22.4146 H   0  0  0  0  0  0
  -29.3451  -23.3623   22.6221 H   0  0  0  0  0  0
  -31.4450  -21.7063   25.0465 H   0  0  0  0  0  0
  -29.8723  -22.3602   24.6065 H   0  0  0  0  0  0
  -31.3154  -22.6829   23.6071 H   0  0  0  0  0  0
  -28.6676  -25.8092   22.0640 H   0  0  0  0  0  0
  -27.3854  -25.0670   21.1273 H   0  0  0  0  0  0
  1 25  1  0  0  0
  1 30  2  0  0  0
  1 79  1  0  0  0
  2  3  1  0  0  0
  2 25  1  0  0  0
  2 85  1  0  0  0
  2 86  1  0  0  0
  3  4  1  0  0  0
  3 87  1  0  0  0
  3 88  1  0  0  0
  4  5  1  0  0  0
  4 89  1  0  0  0
  4 90  1  0  0  0
  5  6  1  0  0  0
  5 26  1  0  0  0
  5 91  1  0  0  0
  6 25  1  0  0  0
  6 92  1  0  0  0
  6 93  1  0  0  0
  7  8  2  0  0  0
  7 26  1  0  0  0
  7 29  1  0  0  0
  8  9  1  0  0  0
  8 22  1  0  0  0
  9 10  1  0  0  0
  9 27  2  0  0  0
 10 11  2  0  0  0
 10 15  1  0  0  0
 11 12  1  0  0  0
 11 94  1  0  0  0
 12 13  2  0  0  0
 12 95  1  0  0  0
 13 14  1  0  0  0
 13 31  1  0  0  0
 14 15  2  0  0  0
 14 96  1  0  0  0
 15 97  1  0  0  0
 16 17  2  0  0  0
 16 21  1  0  0  0
 16 31  1  0  0  0
 17 18  1  0  0  0
 17 98  1  0  0  0
 18 19  2  0  0  0
 18 99  1  0  0  0
 19 20  1  0  0  0
 19 24  1  0  0  0
 20 21  2  0  0  0
 20100  1  0  0  0
 21 23  1  0  0  0
 22 28  1  0  0  0
 22 32  2  0  0  0
 26 27  1  0  0  0
 28101  1  0  0  0
 28102  1  0  0  0
 29103  1  0  0  0
 29104  1  0  0  0
 33 34  1  0  0  0
 33 66  1  0  0  0
 33 70  2  0  0  0
 34 36  1  0  0  0
 34 59  1  0  0  0
 34105  1  0  0  0
 35 44  2  0  0  0
 35 45  1  0  0  0
 35 68  1  0  0  0
 36 56  1  0  0  0
 36106  1  0  0  0
 37 39  1  0  0  0
 37 47  1  0  0  0
 37 66  1  0  0  0
 37107  1  0  0  0
 38 43  2  0  0  0
 38 46  1  0  0  0
 38 47  1  0  0  0
 39 64  1  0  0  0
 39 67  2  0  0  0
 40 52  1  0  0  0
 40 53  2  0  0  0
 40 58  1  0  0  0
 41108  1  0  0  0
 41109  1  0  0  0
 41110  1  0  0  0
 41 48  1  0  0  0
 42 43  1  0  0  0
 42 66  1  0  0  0
 42111  1  0  0  0
 42112  1  0  0  0
 43 44  1  0  0  0
 44113  1  0  0  0
 45 46  2  0  0  0
 45114  1  0  0  0
 46115  1  0  0  0
 47116  1  0  0  0
 47117  1  0  0  0
 48 56  1  0  0  0
 48 65  1  0  0  0
 48118  1  0  0  0
 49 50  1  0  0  0
 49 53  1  0  0  0
 49 64  1  0  0  0
 49119  1  0  0  0
 50 51  1  0  0  0
 50120  1  0  0  0
 50121  1  0  0  0
 51 52  1  0  0  0
 51122  1  0  0  0
 51123  1  0  0  0
 52124  1  0  0  0
 52125  1  0  0  0
 53 54  1  0  0  0
 54 55  2  0  0  0
 54126  1  0  0  0
 55 57  1  0  0  0
 55127  1  0  0  0
 56 69  2  0  0  0
 57 58  2  0  0  0
 57128  1  0  0  0
 58129  1  0  0  0
 59 60  1  0  0  0
 59 61  1  0  0  0
 59 62  1  0  0  0
 60130  1  0  0  0
 60131  1  0  0  0
 60132  1  0  0  0
 61133  1  0  0  0
 61134  1  0  0  0
 61135  1  0  0  0
 62136  1  0  0  0
 62137  1  0  0  0
 62138  1  0  0  0
 63 65  1  0  0  0
 63139  1  0  0  0
 63140  1  0  0  0
 63141  1  0  0  0
 64142  1  0  0  0
 65143  1  0  0  0
 68 83  1  0  0  0
 71 72  2  0  0  0
 71 74  1  0  0  0
 71144  1  0  0  0
 72 76  1  0  0  0
 72145  1  0  0  0
 73 74  2  0  0  0
 73 75  1  0  0  0
 73146  1  0  0  0
 74 77  1  0  0  0
 75 76  2  0  0  0
 75 78  1  0  0  0
 76 82  1  0  0  0
 77 79  2  0  0  0
 77147  1  0  0  0
 78 80  2  0  0  0
 78148  1  0  0  0
 79149  1  0  0  0
 80 81  1  0  0  0
 80150  1  0  0  0
 81 83  1  0  0  0
 81 84  2  0  0  0
 82151  1  0  0  0
 82152  1  0  0  0
 82153  1  0  0  0
 83154  1  0  0  0
 83155  1  0  0  0
M  ISO  4   1 100  68 101  79 100  83 101
M  END
> <chiral flag>
0

> <version>
0

> <s_m_source_file>
/data/baiqing/PycharmProjects/Reinvent-master-3.2/result/LINK_invent/BTK/process_docking_weight1_custom_product_contain_oxygen_bond_distance_aromatic_linkinvent_7_9_3/rearranged_h_0126.sdf

> <i_m_source_file_index>
63

> <r_mmod_Potential_Energy-OPLS-2005>
33.7148895263672

> <r_mmod_Stretch_Energy-OPLS-2005>
60.0505867004395

> <r_mmod_Bend_Energy-OPLS-2005>
116.957221984863

> <r_mmod_Torsional_Energy-OPLS-2005>
224.802230834961

> <r_mmod_Improper_Torsional_Energy-OPLS-2005>
3.08727145195007

> <r_mmod_Van_der_Waal_Energy-OPLS-2005>
149.40153503418

> <r_mmod_Electrostatic_Energy-OPLS-2005>
-328.760620117188

> <r_mmod_Solvation_Energy-OPLS-2005>
-215.988052368164

> <b_mmod_Minimization_Converged-OPLS-2005>
0

> <r_mmod_RMS_Derivative-OPLS-2005>
6.092942237854

$$$$
63
                    3D
 Structure written by MMmdl.
154162  0  0  1  0            999 V2000
  -30.6594  -14.6171   20.5821 C   0  0  0  0  0  0
  -30.4346  -12.4021   19.4562 C   0  0  0  0  0  0
  -29.5077  -12.5331   18.2272 C   0  0  0  0  0  0
  -28.0293  -12.3659   18.6282 C   0  0  0  0  0  0
  -27.6560  -13.2165   19.8693 C   0  0  2  0  0  0
  -28.6919  -13.0301   20.9976 C   0  0  0  0  0  0
  -25.2561  -13.8173   20.5660 C   0  0  0  0  0  0
  -24.1826  -13.0436   20.9178 C   0  0  0  0  0  0
  -24.6405  -11.6908   20.8728 C   0  0  0  0  0  0
  -23.9072  -10.4294   21.0406 C   0  0  0  0  0  0
  -24.3625   -9.4208   21.9184 C   0  0  0  0  0  0
  -23.6297   -8.2246   22.0761 C   0  0  0  0  0  0
  -22.4278   -8.0284   21.3552 C   0  0  0  0  0  0
  -21.9913   -9.0256   20.4650 C   0  0  0  0  0  0
  -22.7245  -10.2135   20.3055 C   0  0  0  0  0  0
  -21.6852   -6.0735   22.5281 C   0  0  0  0  0  0
  -21.4013   -6.5636   23.8213 C   0  0  0  0  0  0
  -21.3662   -5.6790   24.9176 C   0  0  0  0  0  0
  -21.6046   -4.3052   24.7224 C   0  0  0  0  0  0
  -21.8820   -3.8142   23.4344 C   0  0  0  0  0  0
  -21.9192   -4.6961   22.3401 C   0  0  0  0  0  0
  -22.7848  -13.5229   21.1843 C   0  0  0  0  0  0
  -22.1655   -4.2145   21.0975 F   0  0  0  0  0  0
  -21.5639   -3.4536   25.7736 F   0  0  0  0  0  0
  -30.0156  -13.4030   20.4647 N   0  0  0  0  0  0
  -26.2993  -12.9357   20.3308 N   0  0  0  0  0  0
  -25.9329  -11.6509   20.5724 N   0  0  0  0  0  0
  -22.0491  -12.8219   22.0402 N   0  0  0  0  0  0
  -25.4270  -15.1887   20.4048 N   0  0  0  0  0  0
  -31.7336  -14.8213   20.0060 O   0  0  0  0  0  0
  -21.6640   -6.8882   21.4247 O   0  0  0  0  0  0
  -22.3523  -14.5528   20.6684 O   0  0  0  0  0  0
  -24.6247  -31.8596   23.2025 C   0  0  0  0  0  0
  -25.9106  -32.4773   23.8346 C   0  0  1  0  0  0
  -27.2278  -27.3274   20.1123 C   0  0  0  0  0  0
  -25.5937  -33.8572   24.2277 N   0  0  0  0  0  0
  -23.4173  -30.4825   21.5451 C   0  0  2  0  0  0
  -24.8627  -28.9328   20.1114 C   0  0  0  0  0  0
  -22.7460  -29.4629   22.4951 C   0  0  0  0  0  0
  -18.0285  -28.1387   22.8503 C   0  0  0  0  0  0
  -24.1487  -36.7278   23.2644 C   0  0  0  0  0  0
  -25.9557  -30.7917   21.3716 C   0  0  0  0  0  0
  -26.0288  -29.4192   20.7136 C   0  0  0  0  0  0
  -27.2104  -28.6260   20.7059 C   0  0  0  0  0  0
  -26.0358  -26.8803   19.4996 C   0  0  0  0  0  0
  -24.8669  -27.6684   19.4991 C   0  0  0  0  0  0
  -23.6308  -29.8128   20.1612 C   0  0  0  0  0  0
  -25.4115  -36.3074   24.0333 C   0  0  1  0  0  0
  -20.5886  -28.3685   23.1294 C   0  0  2  0  0  0
  -20.6776  -26.9412   22.5408 C   0  0  0  0  0  0
  -19.5746  -26.6387   21.5217 C   0  0  0  0  0  0
  -18.1924  -26.7938   22.1623 C   0  0  0  0  0  0
  -19.1540  -28.8854   23.2894 C   0  0  0  0  0  0
  -18.9458  -30.1464   23.8901 C   0  0  0  0  0  0
  -17.6457  -30.6596   24.0564 C   0  0  0  0  0  0
  -25.9046  -34.9445   23.5097 C   0  0  0  0  0  0
  -16.5347  -29.9085   23.6346 C   0  0  0  0  0  0
  -16.7271  -28.6499   23.0371 C   0  0  0  0  0  0
  -26.4504  -31.6592   25.0718 C   0  0  0  0  0  0
  -25.3749  -31.3706   26.1455 C   0  0  0  0  0  0
  -27.0371  -30.3023   24.6173 C   0  0  0  0  0  0
  -27.6052  -32.4345   25.7485 C   0  0  0  0  0  0
  -27.5585  -37.1791   24.8468 C   0  0  0  0  0  0
  -21.4179  -29.3034   22.3682 N   0  0  0  0  0  0
  -26.4294  -37.3768   23.9420 N   0  0  0  0  0  0
  -24.6846  -31.0616   22.0963 N   0  0  0  0  0  0
  -23.4186  -28.8188   23.3042 O   0  0  0  0  0  0
  -28.3764  -26.5304   20.1787 O   0  0  0  0  0  0
  -26.5600  -34.8911   22.4656 O   0  0  0  0  0  0
  -23.5414  -32.1394   23.7358 O   0  0  0  0  0  0
  -27.9509  -18.9310   21.0673 C   0  0  0  0  0  0
  -28.3615  -17.5770   21.2009 C   0  0  0  0  0  0
  -30.1915  -19.5616   20.5172 C   0  0  0  0  0  0
  -28.8556  -19.9789   20.7643 C   0  0  0  0  0  0
  -29.7090  -17.1547   21.0517 C   0  0  0  0  0  0
  -30.6222  -18.1991   20.6815 C   0  0  0  0  0  0
  -28.3426  -21.4156   20.7721 C   0  0  0  0  0  0
  -28.8342  -22.5931   20.2641 C   0  0  0  0  0  0
  -30.0551  -15.7228   21.5234 C   0  0  0  0  0  0
  -28.1638  -23.9487   20.4862 C   0  0  0  0  0  0
  -32.1066  -17.9152   20.5283 C   0  0  0  0  0  0
  -28.4779  -25.1885   19.5625 C   0  0  0  0  0  0
  -29.8401  -15.4580   22.7459 N   0  0  0  0  0  0
  -27.3413  -24.1070   21.3953 O   0  0  0  0  0  0
  -31.4756  -12.5261   19.1535 H   0  0  0  0  0  0
  -30.3723  -11.3966   19.8751 H   0  0  0  0  0  0
  -29.7758  -11.7944   17.4712 H   0  0  0  0  0  0
  -29.6536  -13.5103   17.7649 H   0  0  0  0  0  0
  -27.8578  -11.3093   18.8385 H   0  0  0  0  0  0
  -27.3796  -12.6170   17.7890 H   0  0  0  0  0  0
  -27.6885  -14.2610   19.5581 H   0  0  0  0  0  0
  -28.7063  -11.9909   21.3295 H   0  0  0  0  0  0
  -28.3914  -13.5981   21.8743 H   0  0  0  0  0  0
  -25.2777   -9.5675   22.4751 H   0  0  0  0  0  0
  -24.0005   -7.4635   22.7479 H   0  0  0  0  0  0
  -21.0850   -8.8770   19.8946 H   0  0  0  0  0  0
  -22.3707  -10.9673   19.6158 H   0  0  0  0  0  0
  -21.2001   -7.6145   23.9714 H   0  0  0  0  0  0
  -21.1490   -6.0520   25.9080 H   0  0  0  0  0  0
  -22.0599   -2.7602   23.2843 H   0  0  0  0  0  0
  -22.4110  -11.9881   22.4788 H   0  0  0  0  0  0
  -21.1109  -13.1243   22.2612 H   0  0  0  0  0  0
  -24.6606  -15.8445   20.5123 H   0  0  0  0  0  0
  -26.2694  -15.6196   20.0465 H   0  0  0  0  0  0
  -26.7163  -32.5440   23.1087 H   0  0  0  0  0  0
  -25.0147  -33.9710   25.0465 H   0  0  0  0  0  0
  -22.7106  -31.3029   21.4012 H   0  0  0  0  0  0
  -23.3760  -35.9598   23.3297 H   0  0  0  0  0  0
  -24.3576  -36.8912   22.2056 H   0  0  0  0  0  0
  -23.7218  -37.6467   23.6672 H   0  0  0  0  0  0
  -26.0875  -31.5574   20.6062 H   0  0  0  0  0  0
  -26.8344  -30.8374   22.0032 H   0  0  0  0  0  0
  -28.1085  -28.9961   21.1813 H   0  0  0  0  0  0
  -25.9736  -25.9052   19.0407 H   0  0  0  0  0  0
  -23.9670  -27.2869   19.0361 H   0  0  0  0  0  0
  -23.7473  -30.5874   19.4022 H   0  0  0  0  0  0
  -22.7501  -29.2416   19.8623 H   0  0  0  0  0  0
  -25.1288  -36.1924   25.0820 H   0  0  0  0  0  0
  -20.9975  -28.3264   24.1419 H   0  0  0  0  0  0
  -20.5704  -26.2285   23.3601 H   0  0  0  0  0  0
  -21.6642  -26.7463   22.1188 H   0  0  0  0  0  0
  -19.6899  -25.6296   21.1255 H   0  0  0  0  0  0
  -19.6692  -27.3196   20.6747 H   0  0  0  0  0  0
  -17.4201  -26.6725   21.4012 H   0  0  0  0  0  0
  -18.0301  -26.0066   22.8998 H   0  0  0  0  0  0
  -19.7928  -30.7290   24.2270 H   0  0  0  0  0  0
  -17.5002  -31.6278   24.5159 H   0  0  0  0  0  0
  -15.5345  -30.2974   23.7672 H   0  0  0  0  0  0
  -15.8674  -28.0806   22.7094 H   0  0  0  0  0  0
  -24.5931  -30.7044   25.7781 H   0  0  0  0  0  0
  -24.8933  -32.2860   26.4888 H   0  0  0  0  0  0
  -25.8092  -30.8881   27.0216 H   0  0  0  0  0  0
  -26.2942  -29.6738   24.1243 H   0  0  0  0  0  0
  -27.4133  -29.7310   25.4665 H   0  0  0  0  0  0
  -27.8774  -30.4322   23.9354 H   0  0  0  0  0  0
  -27.2661  -33.3661   26.2025 H   0  0  0  0  0  0
  -28.3874  -32.6886   25.0321 H   0  0  0  0  0  0
  -28.0709  -31.8505   26.5434 H   0  0  0  0  0  0
  -28.2578  -38.0110   24.7555 H   0  0  0  0  0  0
  -28.1111  -36.2646   24.6259 H   0  0  0  0  0  0
  -27.2312  -37.1394   25.8871 H   0  0  0  0  0  0
  -20.9358  -29.8717   21.6862 H   0  0  0  0  0  0
  -26.0179  -38.2841   24.1438 H   0  0  0  0  0  0
  -26.9115  -19.1668   21.2524 H   0  0  0  0  0  0
  -27.6187  -16.8505   21.5013 H   0  0  0  0  0  0
  -30.9228  -20.3190   20.2707 H   0  0  0  0  0  0
  -27.4157  -21.5144   21.3222 H   0  0  0  0  0  0
  -29.7465  -22.5861   19.6863 H   0  0  0  0  0  0
  -32.6944  -18.8289   20.6288 H   0  0  0  0  0  0
  -32.3117  -17.4927   19.5446 H   0  0  0  0  0  0
  -32.4618  -17.2199   21.2890 H   0  0  0  0  0  0
  -27.8772  -25.1267   18.6564 H   0  0  0  0  0  0
  -29.5092  -25.0754   19.2291 H   0  0  0  0  0  0
  -29.4638  -16.2678   23.2252 H   0  0  0  0  0  0
  1 25  1  0  0  0
  1 30  2  0  0  0
  1 79  1  0  0  0
  2  3  1  0  0  0
  2 25  1  0  0  0
  2 85  1  0  0  0
  2 86  1  0  0  0
  3  4  1  0  0  0
  3 87  1  0  0  0
  3 88  1  0  0  0
  4  5  1  0  0  0
  4 89  1  0  0  0
  4 90  1  0  0  0
  5  6  1  0  0  0
  5 26  1  0  0  0
  5 91  1  0  0  0
  6 25  1  0  0  0
  6 92  1  0  0  0
  6 93  1  0  0  0
  7  8  2  0  0  0
  7 26  1  0  0  0
  7 29  1  0  0  0
  8  9  1  0  0  0
  8 22  1  0  0  0
  9 10  1  0  0  0
  9 27  2  0  0  0
 10 11  2  0  0  0
 10 15  1  0  0  0
 11 12  1  0  0  0
 11 94  1  0  0  0
 12 13  2  0  0  0
 12 95  1  0  0  0
 13 14  1  0  0  0
 13 31  1  0  0  0
 14 15  2  0  0  0
 14 96  1  0  0  0
 15 97  1  0  0  0
 16 17  2  0  0  0
 16 21  1  0  0  0
 16 31  1  0  0  0
 17 18  1  0  0  0
 17 98  1  0  0  0
 18 19  2  0  0  0
 18 99  1  0  0  0
 19 20  1  0  0  0
 19 24  1  0  0  0
 20 21  2  0  0  0
 20100  1  0  0  0
 21 23  1  0  0  0
 22 28  1  0  0  0
 22 32  2  0  0  0
 26 27  1  0  0  0
 28101  1  0  0  0
 28102  1  0  0  0
 29103  1  0  0  0
 29104  1  0  0  0
 33 34  1  0  0  0
 33 66  1  0  0  0
 33 70  2  0  0  0
 34 36  1  0  0  0
 34 59  1  0  0  0
 34105  1  0  0  0
 35 44  2  0  0  0
 35 45  1  0  0  0
 35 68  1  0  0  0
 36 56  1  0  0  0
 36106  1  0  0  0
 37 39  1  0  0  0
 37 47  1  0  0  0
 37 66  1  0  0  0
 37107  1  0  0  0
 38 43  2  0  0  0
 38 46  1  0  0  0
 38 47  1  0  0  0
 39 64  1  0  0  0
 39 67  2  0  0  0
 40 52  1  0  0  0
 40 53  2  0  0  0
 40 58  1  0  0  0
 41108  1  0  0  0
 41109  1  0  0  0
 41110  1  0  0  0
 41 48  1  0  0  0
 42 43  1  0  0  0
 42 66  1  0  0  0
 42111  1  0  0  0
 42112  1  0  0  0
 43 44  1  0  0  0
 44113  1  0  0  0
 45 46  2  0  0  0
 45114  1  0  0  0
 46115  1  0  0  0
 47116  1  0  0  0
 47117  1  0  0  0
 48 56  1  0  0  0
 48 65  1  0  0  0
 48118  1  0  0  0
 49 50  1  0  0  0
 49 53  1  0  0  0
 49 64  1  0  0  0
 49119  1  0  0  0
 50 51  1  0  0  0
 50120  1  0  0  0
 50121  1  0  0  0
 51 52  1  0  0  0
 51122  1  0  0  0
 51123  1  0  0  0
 52124  1  0  0  0
 52125  1  0  0  0
 53 54  1  0  0  0
 54 55  2  0  0  0
 54126  1  0  0  0
 55 57  1  0  0  0
 55127  1  0  0  0
 56 69  2  0  0  0
 57 58  2  0  0  0
 57128  1  0  0  0
 58129  1  0  0  0
 59 60  1  0  0  0
 59 61  1  0  0  0
 59 62  1  0  0  0
 60130  1  0  0  0
 60131  1  0  0  0
 60132  1  0  0  0
 61133  1  0  0  0
 61134  1  0  0  0
 61135  1  0  0  0
 62136  1  0  0  0
 62137  1  0  0  0
 62138  1  0  0  0
 63 65  1  0  0  0
 63139  1  0  0  0
 63140  1  0  0  0
 63141  1  0  0  0
 64142  1  0  0  0
 65143  1  0  0  0
 68 82  1  0  0  0
 71 72  2  0  0  0
 71 74  1  0  0  0
 71144  1  0  0  0
 72 75  1  0  0  0
 72145  1  0  0  0
 73 74  2  0  0  0
 73 76  1  0  0  0
 73146  1  0  0  0
 74 77  1  0  0  0
 75 76  2  0  0  0
 75 79  1  0  0  0
 76 81  1  0  0  0
 77 78  2  0  0  0
 77147  1  0  0  0
 78 80  1  0  0  0
 78148  1  0  0  0
 79 83  2  0  0  0
 80 82  1  0  0  0
 80 84  2  0  0  0
 81149  1  0  0  0
 81150  1  0  0  0
 81151  1  0  0  0
 82152  1  0  0  0
 82153  1  0  0  0
 83154  1  0  0  0
M  ISO  4   1 100  68 101  79 100  82 101
M  END
> <chiral flag>
0

> <version>
0

> <s_m_source_file>
/data/baiqing/PycharmProjects/Reinvent-master-3.2/result/LINK_invent/BTK/process_docking_weight1_custom_product_contain_oxygen_bond_distance_aromatic_linkinvent_7_9_3/rearranged_h_0126.sdf

> <i_m_source_file_index>
64

> <r_mmod_Potential_Energy-OPLS-2005>
243.675201416016

> <r_mmod_Stretch_Energy-OPLS-2005>
88.7925415039062

> <r_mmod_Bend_Energy-OPLS-2005>
157.844680786133

> <r_mmod_Torsional_Energy-OPLS-2005>
220.357421875

> <r_mmod_Improper_Torsional_Energy-OPLS-2005>
4.07490634918213

> <r_mmod_Van_der_Waal_Energy-OPLS-2005>
141.343353271484

> <r_mmod_Electrostatic_Energy-OPLS-2005>
-194.583938598633

> <r_mmod_Solvation_Energy-OPLS-2005>
-214.733551025391

> <b_mmod_Minimization_Converged-OPLS-2005>
0

> <r_mmod_RMS_Derivative-OPLS-2005>
1.43714356422424

$$$$
64
                    3D
 Structure written by MMmdl.
156164  0  0  1  0            999 V2000
  -30.6153  -14.7142   20.4197 C   0  0  0  0  0  0
  -30.4113  -12.4278   19.4771 C   0  0  0  0  0  0
  -29.5020  -12.5119   18.2340 C   0  0  0  0  0  0
  -28.0216  -12.3542   18.6381 C   0  0  0  0  0  0
  -27.6326  -13.2387   19.8551 C   0  0  2  0  0  0
  -28.6752  -13.1659   20.9891 C   0  0  0  0  0  0
  -25.2450  -13.8255   20.5708 C   0  0  0  0  0  0
  -24.1734  -13.0466   20.9214 C   0  0  0  0  0  0
  -24.6365  -11.6965   20.8762 C   0  0  0  0  0  0
  -23.9052  -10.4315   21.0418 C   0  0  0  0  0  0
  -24.3614   -9.4234   21.9190 C   0  0  0  0  0  0
  -23.6291   -8.2269   22.0757 C   0  0  0  0  0  0
  -22.4282   -8.0292   21.3544 C   0  0  0  0  0  0
  -21.9912   -9.0275   20.4655 C   0  0  0  0  0  0
  -22.7230  -10.2154   20.3069 C   0  0  0  0  0  0
  -21.6857   -6.0757   22.5266 C   0  0  0  0  0  0
  -21.4016   -6.5641   23.8206 C   0  0  0  0  0  0
  -21.3656   -5.6789   24.9161 C   0  0  0  0  0  0
  -21.6035   -4.3059   24.7204 C   0  0  0  0  0  0
  -21.8823   -3.8152   23.4333 C   0  0  0  0  0  0
  -21.9196   -4.6981   22.3394 C   0  0  0  0  0  0
  -22.7762  -13.5244   21.1872 C   0  0  0  0  0  0
  -22.1658   -4.2180   21.0965 F   0  0  0  0  0  0
  -21.5638   -3.4529   25.7716 F   0  0  0  0  0  0
  -29.9713  -13.5007   20.3957 N   0  0  0  0  0  0
  -26.2857  -12.9443   20.3306 N   0  0  0  0  0  0
  -25.9289  -11.6588   20.5775 N   0  0  0  0  0  0
  -22.0426  -12.8218   22.0441 N   0  0  0  0  0  0
  -25.4186  -15.1958   20.4088 N   0  0  0  0  0  0
  -31.8078  -14.7297   20.1175 O   0  0  0  0  0  0
  -21.6637   -6.8897   21.4244 O   0  0  0  0  0  0
  -22.3448  -14.5550   20.6745 O   0  0  0  0  0  0
  -24.6303  -31.8496   23.1929 C   0  0  0  0  0  0
  -25.9126  -32.4732   23.8264 C   0  0  1  0  0  0
  -27.2350  -27.2543   20.1136 C   0  0  0  0  0  0
  -25.5929  -33.8545   24.2189 N   0  0  0  0  0  0
  -23.4249  -30.4637   21.5386 C   0  0  2  0  0  0
  -24.8738  -28.9086   20.0949 C   0  0  0  0  0  0
  -22.7474  -29.4506   22.4914 C   0  0  0  0  0  0
  -18.0249  -28.1384   22.8442 C   0  0  0  0  0  0
  -24.1487  -36.7304   23.2632 C   0  0  0  0  0  0
  -25.9657  -30.7574   21.3651 C   0  0  0  0  0  0
  -26.0391  -29.3764   20.7164 C   0  0  0  0  0  0
  -27.2083  -28.5542   20.7279 C   0  0  0  0  0  0
  -26.0503  -26.8479   19.4636 C   0  0  0  0  0  0
  -24.8888  -27.6554   19.4572 C   0  0  0  0  0  0
  -23.6366  -29.7905   20.1538 C   0  0  0  0  0  0
  -25.4114  -36.3068   24.0307 C   0  0  1  0  0  0
  -20.5852  -28.3666   23.1317 C   0  0  2  0  0  0
  -20.6755  -26.9380   22.5466 C   0  0  0  0  0  0
  -19.5765  -26.6348   21.5251 C   0  0  0  0  0  0
  -18.1912  -26.7921   22.1583 C   0  0  0  0  0  0
  -19.1512  -28.8839   23.2860 C   0  0  0  0  0  0
  -18.9456  -30.1431   23.8889 C   0  0  0  0  0  0
  -17.6476  -30.6590   24.0538 C   0  0  0  0  0  0
  -25.9064  -34.9436   23.5052 C   0  0  0  0  0  0
  -16.5350  -29.9092   23.6343 C   0  0  0  0  0  0
  -16.7248  -28.6514   23.0345 C   0  0  0  0  0  0
  -26.4491  -31.6592   25.0676 C   0  0  0  0  0  0
  -25.3714  -31.3901   26.1432 C   0  0  0  0  0  0
  -27.0238  -30.2968   24.6157 C   0  0  0  0  0  0
  -27.6087  -32.4283   25.7437 C   0  0  0  0  0  0
  -27.5571  -37.1766   24.8443 C   0  0  0  0  0  0
  -21.4177  -29.2994   22.3703 N   0  0  0  0  0  0
  -26.4275  -37.3784   23.9429 N   0  0  0  0  0  0
  -24.6938  -31.0394   22.0932 N   0  0  0  0  0  0
  -23.4193  -28.8045   23.2999 O   0  0  0  0  0  0
  -28.3624  -26.4068   20.2268 O   0  0  0  0  0  0
  -26.5629  -34.8902   22.4616 O   0  0  0  0  0  0
  -23.5435  -32.1362   23.7173 O   0  0  0  0  0  0
  -29.4383  -18.5046   20.4927 C   0  0  0  0  0  0
  -31.6837  -17.6106   20.5247 C   0  0  0  0  0  0
  -29.9198  -19.8874   20.5903 C   0  0  0  0  0  0
  -32.1922  -18.9089   20.6125 C   0  0  0  0  0  0
  -31.3314  -20.0157   20.7696 C   0  0  0  0  0  0
  -30.3027  -17.3253   20.5165 C   0  0  0  0  0  0
  -29.0177  -21.1618   20.5363 C   0  0  0  0  0  0
  -29.2627  -22.4561   20.0727 C   0  0  0  0  0  0
  -28.3255  -23.6960   20.2050 C   0  0  0  0  0  0
  -33.7059  -19.0694   20.5256 C   0  0  0  0  0  0
  -31.9801  -21.2960   21.2777 C   0  0  0  0  0  0
  -28.5933  -25.1142   19.4868 C   0  0  0  0  0  0
  -29.8680  -15.8923   20.5349 N   0  0  0  0  0  0
  -27.2808  -23.5960   20.8515 O   0  0  0  0  0  0
  -31.4578  -12.5275   19.1830 H   0  0  0  0  0  0
  -30.3329  -11.4529   19.9609 H   0  0  0  0  0  0
  -29.7803  -11.7500   17.5055 H   0  0  0  0  0  0
  -29.6401  -13.4747   17.7376 H   0  0  0  0  0  0
  -27.8533  -11.3019   18.8712 H   0  0  0  0  0  0
  -27.3740  -12.5885   17.7911 H   0  0  0  0  0  0
  -27.6276  -14.2633   19.4850 H   0  0  0  0  0  0
  -28.6973  -12.1686   21.4316 H   0  0  0  0  0  0
  -28.4190  -13.8567   21.7960 H   0  0  0  0  0  0
  -25.2777   -9.5710   22.4751 H   0  0  0  0  0  0
  -24.0015   -7.4653   22.7445 H   0  0  0  0  0  0
  -21.0867   -8.8786   19.8937 H   0  0  0  0  0  0
  -22.3696  -10.9706   19.6173 H   0  0  0  0  0  0
  -21.1997   -7.6155   23.9724 H   0  0  0  0  0  0
  -21.1469   -6.0511   25.9067 H   0  0  0  0  0  0
  -22.0609   -2.7627   23.2802 H   0  0  0  0  0  0
  -22.4015  -11.9847   22.4786 H   0  0  0  0  0  0
  -21.1052  -13.1266   22.2699 H   0  0  0  0  0  0
  -24.6584  -15.8589   20.4994 H   0  0  0  0  0  0
  -26.2623  -15.6197   20.0468 H   0  0  0  0  0  0
  -26.7164  -32.5347   23.0962 H   0  0  0  0  0  0
  -25.0136  -33.9718   25.0362 H   0  0  0  0  0  0
  -22.7179  -31.2863   21.3917 H   0  0  0  0  0  0
  -23.3758  -35.9628   23.3283 H   0  0  0  0  0  0
  -24.3582  -36.8986   22.2066 H   0  0  0  0  0  0
  -23.7254  -37.6488   23.6681 H   0  0  0  0  0  0
  -26.0750  -31.5030   20.5761 H   0  0  0  0  0  0
  -26.8570  -30.8347   21.9777 H   0  0  0  0  0  0
  -28.0885  -28.8980   21.2491 H   0  0  0  0  0  0
  -25.9938  -25.8772   18.9875 H   0  0  0  0  0  0
  -24.0012  -27.2941   18.9575 H   0  0  0  0  0  0
  -23.7282  -30.5694   19.3964 H   0  0  0  0  0  0
  -22.7563  -29.2161   19.8599 H   0  0  0  0  0  0
  -25.1293  -36.1892   25.0800 H   0  0  0  0  0  0
  -20.9891  -28.3245   24.1472 H   0  0  0  0  0  0
  -20.5704  -26.2260   23.3665 H   0  0  0  0  0  0
  -21.6623  -26.7440   22.1250 H   0  0  0  0  0  0
  -19.7006  -25.6286   21.1267 H   0  0  0  0  0  0
  -19.6795  -27.3163   20.6803 H   0  0  0  0  0  0
  -17.4234  -26.6679   21.3937 H   0  0  0  0  0  0
  -18.0244  -26.0079   22.8978 H   0  0  0  0  0  0
  -19.7963  -30.7193   24.2266 H   0  0  0  0  0  0
  -17.5064  -31.6280   24.5128 H   0  0  0  0  0  0
  -15.5365  -30.3015   23.7704 H   0  0  0  0  0  0
  -15.8617  -28.0832   22.7112 H   0  0  0  0  0  0
  -24.5892  -30.7165   25.7897 H   0  0  0  0  0  0
  -24.8856  -32.3130   26.4619 H   0  0  0  0  0  0
  -25.8020  -30.9331   27.0349 H   0  0  0  0  0  0
  -26.2743  -29.6789   24.1165 H   0  0  0  0  0  0
  -27.3921  -29.7174   25.4641 H   0  0  0  0  0  0
  -27.8656  -30.4236   23.9339 H   0  0  0  0  0  0
  -27.2799  -33.3730   26.1772 H   0  0  0  0  0  0
  -28.4031  -32.6576   25.0322 H   0  0  0  0  0  0
  -28.0533  -31.8506   26.5546 H   0  0  0  0  0  0
  -28.2551  -38.0074   24.7445 H   0  0  0  0  0  0
  -28.1072  -36.2603   24.6270 H   0  0  0  0  0  0
  -27.2269  -37.1434   25.8826 H   0  0  0  0  0  0
  -20.9345  -29.8736   21.6944 H   0  0  0  0  0  0
  -26.0152  -38.2842   24.1488 H   0  0  0  0  0  0
  -28.3712  -18.3571   20.4189 H   0  0  0  0  0  0
  -32.4312  -16.8389   20.5038 H   0  0  0  0  0  0
  -28.0528  -21.0130   20.9943 H   0  0  0  0  0  0
  -30.2115  -22.6381   19.5829 H   0  0  0  0  0  0
  -34.2091  -18.1104   20.3877 H   0  0  0  0  0  0
  -34.1319  -19.5296   21.4135 H   0  0  0  0  0  0
  -33.9516  -19.6855   19.6600 H   0  0  0  0  0  0
  -32.5931  -21.0536   22.1504 H   0  0  0  0  0  0
  -31.2686  -22.0304   21.6451 H   0  0  0  0  0  0
  -32.6324  -21.7335   20.5210 H   0  0  0  0  0  0
  -28.0619  -25.1422   18.5348 H   0  0  0  0  0  0
  -29.6529  -25.1211   19.2264 H   0  0  0  0  0  0
  -28.8763  -15.7481   20.6472 H   0  0  0  0  0  0
  1 25  1  0  0  0
  1 30  2  0  0  0
  1 83  1  0  0  0
  2  3  1  0  0  0
  2 25  1  0  0  0
  2 85  1  0  0  0
  2 86  1  0  0  0
  3  4  1  0  0  0
  3 87  1  0  0  0
  3 88  1  0  0  0
  4  5  1  0  0  0
  4 89  1  0  0  0
  4 90  1  0  0  0
  5  6  1  0  0  0
  5 26  1  0  0  0
  5 91  1  0  0  0
  6 25  1  0  0  0
  6 92  1  0  0  0
  6 93  1  0  0  0
  7  8  2  0  0  0
  7 26  1  0  0  0
  7 29  1  0  0  0
  8  9  1  0  0  0
  8 22  1  0  0  0
  9 10  1  0  0  0
  9 27  2  0  0  0
 10 11  2  0  0  0
 10 15  1  0  0  0
 11 12  1  0  0  0
 11 94  1  0  0  0
 12 13  2  0  0  0
 12 95  1  0  0  0
 13 14  1  0  0  0
 13 31  1  0  0  0
 14 15  2  0  0  0
 14 96  1  0  0  0
 15 97  1  0  0  0
 16 17  2  0  0  0
 16 21  1  0  0  0
 16 31  1  0  0  0
 17 18  1  0  0  0
 17 98  1  0  0  0
 18 19  2  0  0  0
 18 99  1  0  0  0
 19 20  1  0  0  0
 19 24  1  0  0  0
 20 21  2  0  0  0
 20100  1  0  0  0
 21 23  1  0  0  0
 22 28  1  0  0  0
 22 32  2  0  0  0
 26 27  1  0  0  0
 28101  1  0  0  0
 28102  1  0  0  0
 29103  1  0  0  0
 29104  1  0  0  0
 33 34  1  0  0  0
 33 66  1  0  0  0
 33 70  2  0  0  0
 34 36  1  0  0  0
 34 59  1  0  0  0
 34105  1  0  0  0
 35 44  2  0  0  0
 35 45  1  0  0  0
 35 68  1  0  0  0
 36 56  1  0  0  0
 36106  1  0  0  0
 37 39  1  0  0  0
 37 47  1  0  0  0
 37 66  1  0  0  0
 37107  1  0  0  0
 38 43  2  0  0  0
 38 46  1  0  0  0
 38 47  1  0  0  0
 39 64  1  0  0  0
 39 67  2  0  0  0
 40 52  1  0  0  0
 40 53  2  0  0  0
 40 58  1  0  0  0
 41108  1  0  0  0
 41109  1  0  0  0
 41110  1  0  0  0
 41 48  1  0  0  0
 42 43  1  0  0  0
 42 66  1  0  0  0
 42111  1  0  0  0
 42112  1  0  0  0
 43 44  1  0  0  0
 44113  1  0  0  0
 45 46  2  0  0  0
 45114  1  0  0  0
 46115  1  0  0  0
 47116  1  0  0  0
 47117  1  0  0  0
 48 56  1  0  0  0
 48 65  1  0  0  0
 48118  1  0  0  0
 49 50  1  0  0  0
 49 53  1  0  0  0
 49 64  1  0  0  0
 49119  1  0  0  0
 50 51  1  0  0  0
 50120  1  0  0  0
 50121  1  0  0  0
 51 52  1  0  0  0
 51122  1  0  0  0
 51123  1  0  0  0
 52124  1  0  0  0
 52125  1  0  0  0
 53 54  1  0  0  0
 54 55  2  0  0  0
 54126  1  0  0  0
 55 57  1  0  0  0
 55127  1  0  0  0
 56 69  2  0  0  0
 57 58  2  0  0  0
 57128  1  0  0  0
 58129  1  0  0  0
 59 60  1  0  0  0
 59 61  1  0  0  0
 59 62  1  0  0  0
 60130  1  0  0  0
 60131  1  0  0  0
 60132  1  0  0  0
 61133  1  0  0  0
 61134  1  0  0  0
 61135  1  0  0  0
 62136  1  0  0  0
 62137  1  0  0  0
 62138  1  0  0  0
 63 65  1  0  0  0
 63139  1  0  0  0
 63140  1  0  0  0
 63141  1  0  0  0
 64142  1  0  0  0
 65143  1  0  0  0
 68 82  1  0  0  0
 71 73  2  0  0  0
 71 76  1  0  0  0
 71144  1  0  0  0
 72 74  1  0  0  0
 72 76  2  0  0  0
 72145  1  0  0  0
 73 75  1  0  0  0
 73 77  1  0  0  0
 74 75  2  0  0  0
 74 80  1  0  0  0
 75 81  1  0  0  0
 76 83  1  0  0  0
 77 78  2  0  0  0
 77146  1  0  0  0
 78 79  1  0  0  0
 78147  1  0  0  0
 79 82  1  0  0  0
 79 84  2  0  0  0
 80148  1  0  0  0
 80149  1  0  0  0
 80150  1  0  0  0
 81151  1  0  0  0
 81152  1  0  0  0
 81153  1  0  0  0
 82154  1  0  0  0
 82155  1  0  0  0
 83156  1  0  0  0
M  ISO  4   1 100  68 101  82 101  83 100
M  END
> <chiral flag>
0

> <version>
0

> <s_m_source_file>
/data/baiqing/PycharmProjects/Reinvent-master-3.2/result/LINK_invent/BTK/process_docking_weight1_custom_product_contain_oxygen_bond_distance_aromatic_linkinvent_7_9_3/rearranged_h_0126.sdf

> <i_m_source_file_index>
65

> <r_mmod_Potential_Energy-OPLS-2005>
218.256011962891

> <r_mmod_Stretch_Energy-OPLS-2005>
140.987899780273

> <r_mmod_Bend_Energy-OPLS-2005>
182.038467407227

> <r_mmod_Torsional_Energy-OPLS-2005>
237.894058227539

> <r_mmod_Improper_Torsional_Energy-OPLS-2005>
7.09622049331665

> <r_mmod_Van_der_Waal_Energy-OPLS-2005>
157.086669921875

> <r_mmod_Electrostatic_Energy-OPLS-2005>
-361.886260986328

> <r_mmod_Solvation_Energy-OPLS-2005>
-225.698257446289

> <b_mmod_Minimization_Converged-OPLS-2005>
0

> <r_mmod_RMS_Derivative-OPLS-2005>
6.35843992233276

$$$$
65
                    3D
 Structure written by MMmdl.
156164  0  0  1  0            999 V2000
  -30.7413  -14.4430   20.6274 C   0  0  0  0  0  0
  -30.4193  -12.3143   19.4118 C   0  0  0  0  0  0
  -29.4912  -12.5197   18.1995 C   0  0  0  0  0  0
  -28.0131  -12.3766   18.6129 C   0  0  0  0  0  0
  -27.6615  -13.2108   19.8745 C   0  0  2  0  0  0
  -28.7036  -12.9880   20.9925 C   0  0  0  0  0  0
  -25.2575  -13.8174   20.5673 C   0  0  0  0  0  0
  -24.1834  -13.0443   20.9170 C   0  0  0  0  0  0
  -24.6395  -11.6913   20.8722 C   0  0  0  0  0  0
  -23.9062  -10.4289   21.0393 C   0  0  0  0  0  0
  -24.3609   -9.4208   21.9172 C   0  0  0  0  0  0
  -23.6292   -8.2242   22.0750 C   0  0  0  0  0  0
  -22.4273   -8.0275   21.3546 C   0  0  0  0  0  0
  -21.9906   -9.0242   20.4641 C   0  0  0  0  0  0
  -22.7235  -10.2122   20.3041 C   0  0  0  0  0  0
  -21.6852   -6.0730   22.5281 C   0  0  0  0  0  0
  -21.4010   -6.5638   23.8212 C   0  0  0  0  0  0
  -21.3656   -5.6787   24.9174 C   0  0  0  0  0  0
  -21.6047   -4.3049   24.7220 C   0  0  0  0  0  0
  -21.8822   -3.8139   23.4344 C   0  0  0  0  0  0
  -21.9195   -4.6957   22.3406 C   0  0  0  0  0  0
  -22.7855  -13.5233   21.1845 C   0  0  0  0  0  0
  -22.1660   -4.2144   21.0976 F   0  0  0  0  0  0
  -21.5628   -3.4529   25.7732 F   0  0  0  0  0  0
  -30.0372  -13.2916   20.4431 N   0  0  0  0  0  0
  -26.3022  -12.9354   20.3363 N   0  0  0  0  0  0
  -25.9327  -11.6505   20.5764 N   0  0  0  0  0  0
  -22.0489  -12.8213   22.0388 N   0  0  0  0  0  0
  -25.4296  -15.1892   20.4100 N   0  0  0  0  0  0
  -31.8268  -14.6577   20.0821 O   0  0  0  0  0  0
  -21.6643   -6.8868   21.4238 O   0  0  0  0  0  0
  -22.3542  -14.5548   20.6713 O   0  0  0  0  0  0
  -24.6150  -31.8666   23.2080 C   0  0  0  0  0  0
  -25.9046  -32.4810   23.8378 C   0  0  1  0  0  0
  -27.2376  -27.4328   20.1018 C   0  0  0  0  0  0
  -25.5916  -33.8609   24.2314 N   0  0  0  0  0  0
  -23.4029  -30.4897   21.5480 C   0  0  2  0  0  0
  -24.8505  -28.9505   20.1155 C   0  0  0  0  0  0
  -22.7411  -29.4661   22.4982 C   0  0  0  0  0  0
  -18.0269  -28.1385   22.8482 C   0  0  0  0  0  0
  -24.1482  -36.7288   23.2642 C   0  0  0  0  0  0
  -25.9313  -30.8330   21.3587 C   0  0  0  0  0  0
  -26.0101  -29.4663   20.7082 C   0  0  0  0  0  0
  -27.2091  -28.7163   20.6934 C   0  0  0  0  0  0
  -26.0619  -26.9302   19.5032 C   0  0  0  0  0  0
  -24.8713  -27.6817   19.5083 C   0  0  0  0  0  0
  -23.6112  -29.8162   20.1645 C   0  0  0  0  0  0
  -25.4104  -36.3096   24.0346 C   0  0  1  0  0  0
  -20.5859  -28.3672   23.1328 C   0  0  2  0  0  0
  -20.6752  -26.9401   22.5449 C   0  0  0  0  0  0
  -19.5758  -26.6383   21.5218 C   0  0  0  0  0  0
  -18.1916  -26.7951   22.1581 C   0  0  0  0  0  0
  -19.1516  -28.8842   23.2902 C   0  0  0  0  0  0
  -18.9445  -30.1444   23.8915 C   0  0  0  0  0  0
  -17.6448  -30.6592   24.0565 C   0  0  0  0  0  0
  -25.9044  -34.9470   23.5123 C   0  0  0  0  0  0
  -16.5335  -29.9100   23.6330 C   0  0  0  0  0  0
  -16.7258  -28.6516   23.0344 C   0  0  0  0  0  0
  -26.4473  -31.6594   25.0708 C   0  0  0  0  0  0
  -25.3743  -31.3736   26.1470 C   0  0  0  0  0  0
  -27.0273  -30.3026   24.6079 C   0  0  0  0  0  0
  -27.6052  -32.4316   25.7468 C   0  0  0  0  0  0
  -27.5586  -37.1787   24.8448 C   0  0  0  0  0  0
  -21.4137  -29.3034   22.3724 N   0  0  0  0  0  0
  -26.4275  -37.3792   23.9434 N   0  0  0  0  0  0
  -24.6681  -31.0781   22.0965 N   0  0  0  0  0  0
  -23.4188  -28.8209   23.3025 O   0  0  0  0  0  0
  -28.4004  -26.6935   20.0861 O   0  0  0  0  0  0
  -26.5590  -34.8931   22.4675 O   0  0  0  0  0  0
  -23.5349  -32.1408   23.7492 O   0  0  0  0  0  0
  -29.3673  -20.0873   21.5173 C   0  0  0  0  0  0
  -29.6127  -18.7953   22.0313 C   0  0  0  0  0  0
  -31.0041  -18.2955   20.1120 C   0  0  0  0  0  0
  -29.9471  -20.5203   20.2998 C   0  0  0  0  0  0
  -30.4485  -17.8919   21.3426 C   0  0  0  0  0  0
  -30.7711  -19.5950   19.5958 C   0  0  0  0  0  0
  -29.7373  -21.9118   19.7980 C   0  0  0  0  0  0
  -29.1371  -22.9419   20.4441 C   0  0  0  0  0  0
  -28.9890  -24.2922   19.8402 C   0  0  0  0  0  0
  -31.4533  -19.9789   18.2920 C   0  0  0  0  0  0
  -30.8312  -16.5517   21.9774 C   0  0  0  0  0  0
  -28.3055  -25.3860   20.6887 C   0  0  0  0  0  0
  -30.1751  -15.3565   21.4330 N   0  0  0  0  0  0
  -29.3845  -24.5624   18.6998 O   0  0  0  0  0  0
  -31.4641  -12.4107   19.1101 H   0  0  0  0  0  0
  -30.3175  -11.3008   19.8043 H   0  0  0  0  0  0
  -29.7331  -11.8028   17.4136 H   0  0  0  0  0  0
  -29.6574  -13.5099   17.7721 H   0  0  0  0  0  0
  -27.8214  -11.3198   18.8017 H   0  0  0  0  0  0
  -27.3626  -12.6574   17.7831 H   0  0  0  0  0  0
  -27.7064  -14.2610   19.5852 H   0  0  0  0  0  0
  -28.6797  -11.9516   21.3310 H   0  0  0  0  0  0
  -28.4551  -13.5818   21.8722 H   0  0  0  0  0  0
  -25.2762   -9.5693   22.4742 H   0  0  0  0  0  0
  -24.0014   -7.4629   22.7463 H   0  0  0  0  0  0
  -21.0845   -8.8747   19.8941 H   0  0  0  0  0  0
  -22.3697  -10.9645   19.6134 H   0  0  0  0  0  0
  -21.1988   -7.6146   23.9715 H   0  0  0  0  0  0
  -21.1473   -6.0512   25.9078 H   0  0  0  0  0  0
  -22.0596   -2.7603   23.2835 H   0  0  0  0  0  0
  -22.4087  -11.9848   22.4738 H   0  0  0  0  0  0
  -21.1107  -13.1240   22.2582 H   0  0  0  0  0  0
  -24.6657  -15.8472   20.5193 H   0  0  0  0  0  0
  -26.2913  -15.6295   20.1109 H   0  0  0  0  0  0
  -26.7118  -32.5518   23.1147 H   0  0  0  0  0  0
  -25.0130  -33.9773   25.0504 H   0  0  0  0  0  0
  -22.6926  -31.3070   21.4066 H   0  0  0  0  0  0
  -23.3765  -35.9594   23.3280 H   0  0  0  0  0  0
  -24.3586  -36.8915   22.2059 H   0  0  0  0  0  0
  -23.7199  -37.6479   23.6654 H   0  0  0  0  0  0
  -26.0447  -31.5986   20.5894 H   0  0  0  0  0  0
  -26.8196  -30.8865   21.9760 H   0  0  0  0  0  0
  -28.1063  -29.1128   21.1476 H   0  0  0  0  0  0
  -26.0689  -25.9611   19.0243 H   0  0  0  0  0  0
  -23.9813  -27.2807   19.0428 H   0  0  0  0  0  0
  -23.7164  -30.5877   19.4009 H   0  0  0  0  0  0
  -22.7365  -29.2316   19.8730 H   0  0  0  0  0  0
  -25.1290  -36.1935   25.0841 H   0  0  0  0  0  0
  -20.9961  -28.3233   24.1443 H   0  0  0  0  0  0
  -20.5619  -26.2290   23.3644 H   0  0  0  0  0  0
  -21.6626  -26.7425   22.1262 H   0  0  0  0  0  0
  -19.6923  -25.6301   21.1236 H   0  0  0  0  0  0
  -19.6744  -27.3200   20.6761 H   0  0  0  0  0  0
  -17.4234  -26.6773   21.3919 H   0  0  0  0  0  0
  -18.0239  -26.0060   22.8927 H   0  0  0  0  0  0
  -19.7929  -30.7240   24.2293 H   0  0  0  0  0  0
  -17.5021  -31.6275   24.5169 H   0  0  0  0  0  0
  -15.5340  -30.3004   23.7664 H   0  0  0  0  0  0
  -15.8653  -28.0849   22.7039 H   0  0  0  0  0  0
  -24.6000  -30.6946   25.7889 H   0  0  0  0  0  0
  -24.8825  -32.2885   26.4787 H   0  0  0  0  0  0
  -25.8137  -30.9087   27.0305 H   0  0  0  0  0  0
  -26.2796  -29.6810   24.1137 H   0  0  0  0  0  0
  -27.4036  -29.7247   25.4531 H   0  0  0  0  0  0
  -27.8646  -30.4329   23.9216 H   0  0  0  0  0  0
  -27.2676  -33.3631   26.2033 H   0  0  0  0  0  0
  -28.3876  -32.6849   25.0297 H   0  0  0  0  0  0
  -28.0699  -31.8440   26.5397 H   0  0  0  0  0  0
  -28.2581  -38.0108   24.7527 H   0  0  0  0  0  0
  -28.1096  -36.2645   24.6192 H   0  0  0  0  0  0
  -27.2337  -37.1338   25.8858 H   0  0  0  0  0  0
  -20.9290  -29.8766   21.6961 H   0  0  0  0  0  0
  -26.0156  -38.2857   24.1478 H   0  0  0  0  0  0
  -28.7353  -20.7475   22.0924 H   0  0  0  0  0  0
  -29.1800  -18.5138   22.9815 H   0  0  0  0  0  0
  -31.6536  -17.6105   19.5836 H   0  0  0  0  0  0
  -30.1053  -22.1115   18.8015 H   0  0  0  0  0  0
  -28.7425  -22.8176   21.4403 H   0  0  0  0  0  0
  -32.0721  -19.1688   17.9040 H   0  0  0  0  0  0
  -32.1013  -20.8440   18.4381 H   0  0  0  0  0  0
  -30.7126  -20.2202   17.5296 H   0  0  0  0  0  0
  -30.6019  -16.5914   23.0431 H   0  0  0  0  0  0
  -31.9174  -16.4476   21.9314 H   0  0  0  0  0  0
  -28.7962  -25.4240   21.6613 H   0  0  0  0  0  0
  -27.2723  -25.0899   20.8718 H   0  0  0  0  0  0
  -29.2731  -15.1199   21.8170 H   0  0  0  0  0  0
  1 25  1  0  0  0
  1 30  2  0  0  0
  1 83  1  0  0  0
  2  3  1  0  0  0
  2 25  1  0  0  0
  2 85  1  0  0  0
  2 86  1  0  0  0
  3  4  1  0  0  0
  3 87  1  0  0  0
  3 88  1  0  0  0
  4  5  1  0  0  0
  4 89  1  0  0  0
  4 90  1  0  0  0
  5  6  1  0  0  0
  5 26  1  0  0  0
  5 91  1  0  0  0
  6 25  1  0  0  0
  6 92  1  0  0  0
  6 93  1  0  0  0
  7  8  2  0  0  0
  7 26  1  0  0  0
  7 29  1  0  0  0
  8  9  1  0  0  0
  8 22  1  0  0  0
  9 10  1  0  0  0
  9 27  2  0  0  0
 10 11  2  0  0  0
 10 15  1  0  0  0
 11 12  1  0  0  0
 11 94  1  0  0  0
 12 13  2  0  0  0
 12 95  1  0  0  0
 13 14  1  0  0  0
 13 31  1  0  0  0
 14 15  2  0  0  0
 14 96  1  0  0  0
 15 97  1  0  0  0
 16 17  2  0  0  0
 16 21  1  0  0  0
 16 31  1  0  0  0
 17 18  1  0  0  0
 17 98  1  0  0  0
 18 19  2  0  0  0
 18 99  1  0  0  0
 19 20  1  0  0  0
 19 24  1  0  0  0
 20 21  2  0  0  0
 20100  1  0  0  0
 21 23  1  0  0  0
 22 28  1  0  0  0
 22 32  2  0  0  0
 26 27  1  0  0  0
 28101  1  0  0  0
 28102  1  0  0  0
 29103  1  0  0  0
 29104  1  0  0  0
 33 34  1  0  0  0
 33 66  1  0  0  0
 33 70  2  0  0  0
 34 36  1  0  0  0
 34 59  1  0  0  0
 34105  1  0  0  0
 35 44  2  0  0  0
 35 45  1  0  0  0
 35 68  1  0  0  0
 36 56  1  0  0  0
 36106  1  0  0  0
 37 39  1  0  0  0
 37 47  1  0  0  0
 37 66  1  0  0  0
 37107  1  0  0  0
 38 43  2  0  0  0
 38 46  1  0  0  0
 38 47  1  0  0  0
 39 64  1  0  0  0
 39 67  2  0  0  0
 40 52  1  0  0  0
 40 53  2  0  0  0
 40 58  1  0  0  0
 41108  1  0  0  0
 41109  1  0  0  0
 41110  1  0  0  0
 41 48  1  0  0  0
 42 43  1  0  0  0
 42 66  1  0  0  0
 42111  1  0  0  0
 42112  1  0  0  0
 43 44  1  0  0  0
 44113  1  0  0  0
 45 46  2  0  0  0
 45114  1  0  0  0
 46115  1  0  0  0
 47116  1  0  0  0
 47117  1  0  0  0
 48 56  1  0  0  0
 48 65  1  0  0  0
 48118  1  0  0  0
 49 50  1  0  0  0
 49 53  1  0  0  0
 49 64  1  0  0  0
 49119  1  0  0  0
 50 51  1  0  0  0
 50120  1  0  0  0
 50121  1  0  0  0
 51 52  1  0  0  0
 51122  1  0  0  0
 51123  1  0  0  0
 52124  1  0  0  0
 52125  1  0  0  0
 53 54  1  0  0  0
 54 55  2  0  0  0
 54126  1  0  0  0
 55 57  1  0  0  0
 55127  1  0  0  0
 56 69  2  0  0  0
 57 58  2  0  0  0
 57128  1  0  0  0
 58129  1  0  0  0
 59 60  1  0  0  0
 59 61  1  0  0  0
 59 62  1  0  0  0
 60130  1  0  0  0
 60131  1  0  0  0
 60132  1  0  0  0
 61133  1  0  0  0
 61134  1  0  0  0
 61135  1  0  0  0
 62136  1  0  0  0
 62137  1  0  0  0
 62138  1  0  0  0
 63 65  1  0  0  0
 63139  1  0  0  0
 63140  1  0  0  0
 63141  1  0  0  0
 64142  1  0  0  0
 65143  1  0  0  0
 68 82  1  0  0  0
 71 72  2  0  0  0
 71 74  1  0  0  0
 71144  1  0  0  0
 72 75  1  0  0  0
 72145  1  0  0  0
 73 75  2  0  0  0
 73 76  1  0  0  0
 73146  1  0  0  0
 74 76  2  0  0  0
 74 77  1  0  0  0
 75 81  1  0  0  0
 76 80  1  0  0  0
 77 78  2  0  0  0
 77147  1  0  0  0
 78 79  1  0  0  0
 78148  1  0  0  0
 79 82  1  0  0  0
 79 84  2  0  0  0
 80149  1  0  0  0
 80150  1  0  0  0
 80151  1  0  0  0
 81 83  1  0  0  0
 81152  1  0  0  0
 81153  1  0  0  0
 82154  1  0  0  0
 82155  1  0  0  0
 83156  1  0  0  0
M  ISO  4   1 100  68 101  82 101  83 100
M  END
> <chiral flag>
0

> <version>
0

> <s_m_source_file>
/data/baiqing/PycharmProjects/Reinvent-master-3.2/result/LINK_invent/BTK/process_docking_weight1_custom_product_contain_oxygen_bond_distance_aromatic_linkinvent_7_9_3/rearranged_h_0126.sdf

> <i_m_source_file_index>
66

> <r_mmod_Potential_Energy-OPLS-2005>
-120.657936096191

> <r_mmod_Stretch_Energy-OPLS-2005>
39.5041732788086

> <r_mmod_Bend_Energy-OPLS-2005>
91.0377578735352

> <r_mmod_Torsional_Energy-OPLS-2005>
214.878082275391

> <r_mmod_Improper_Torsional_Energy-OPLS-2005>
2.28369569778442

> <r_mmod_Van_der_Waal_Energy-OPLS-2005>
154.777618408203

> <r_mmod_Electrostatic_Energy-OPLS-2005>
-405.120544433594

> <r_mmod_Solvation_Energy-OPLS-2005>
-228.407089233398

> <b_mmod_Minimization_Converged-OPLS-2005>
0

> <r_mmod_RMS_Derivative-OPLS-2005>
1.55592584609985

$$$$
66
                    3D
 Structure written by MMmdl.
159167  0  0  1  0            999 V2000
  -30.7155  -14.5794   20.5149 C   0  0  0  0  0  0
  -30.4193  -12.3537   19.4662 C   0  0  0  0  0  0
  -29.5126  -12.5075   18.2259 C   0  0  0  0  0  0
  -28.0300  -12.3678   18.6265 C   0  0  0  0  0  0
  -27.6577  -13.2264   19.8662 C   0  0  2  0  0  0
  -28.7010  -13.0897   20.9976 C   0  0  0  0  0  0
  -25.2586  -13.8190   20.5706 C   0  0  0  0  0  0
  -24.1847  -13.0477   20.9200 C   0  0  0  0  0  0
  -24.6419  -11.6931   20.8739 C   0  0  0  0  0  0
  -23.9094  -10.4311   21.0401 C   0  0  0  0  0  0
  -24.3636   -9.4237   21.9201 C   0  0  0  0  0  0
  -23.6303   -8.2273   22.0778 C   0  0  0  0  0  0
  -22.4291   -8.0291   21.3564 C   0  0  0  0  0  0
  -21.9941   -9.0262   20.4649 C   0  0  0  0  0  0
  -22.7266  -10.2139   20.3048 C   0  0  0  0  0  0
  -21.6851   -6.0742   22.5287 C   0  0  0  0  0  0
  -21.4013   -6.5644   23.8231 C   0  0  0  0  0  0
  -21.3669   -5.6799   24.9191 C   0  0  0  0  0  0
  -21.6041   -4.3057   24.7229 C   0  0  0  0  0  0
  -21.8810   -3.8155   23.4353 C   0  0  0  0  0  0
  -21.9186   -4.6976   22.3409 C   0  0  0  0  0  0
  -22.7855  -13.5261   21.1827 C   0  0  0  0  0  0
  -22.1646   -4.2165   21.0982 F   0  0  0  0  0  0
  -21.5645   -3.4539   25.7746 F   0  0  0  0  0  0
  -30.0240  -13.3961   20.4381 N   0  0  0  0  0  0
  -26.3031  -12.9405   20.3350 N   0  0  0  0  0  0
  -25.9361  -11.6551   20.5776 N   0  0  0  0  0  0
  -22.0431  -12.8278   22.0326 N   0  0  0  0  0  0
  -25.4349  -15.1918   20.4113 N   0  0  0  0  0  0
  -31.8936  -14.6191   20.1532 O   0  0  0  0  0  0
  -21.6660   -6.8885   21.4252 O   0  0  0  0  0  0
  -22.3579  -14.5585   20.6650 O   0  0  0  0  0  0
  -24.6316  -31.8653   23.2104 C   0  0  0  0  0  0
  -25.9173  -32.4806   23.8452 C   0  0  1  0  0  0
  -27.2141  -27.3305   20.1120 C   0  0  0  0  0  0
  -25.6018  -33.8604   24.2398 N   0  0  0  0  0  0
  -23.4200  -30.4996   21.5488 C   0  0  2  0  0  0
  -24.8638  -28.9612   20.1128 C   0  0  0  0  0  0
  -22.7476  -29.4716   22.4918 C   0  0  0  0  0  0
  -18.0269  -28.1409   22.8507 C   0  0  0  0  0  0
  -24.1487  -36.7271   23.2620 C   0  0  0  0  0  0
  -25.9641  -30.8027   21.3771 C   0  0  0  0  0  0
  -26.0375  -29.4317   20.7184 C   0  0  0  0  0  0
  -27.2154  -28.6265   20.7137 C   0  0  0  0  0  0
  -26.0137  -26.9254   19.4761 C   0  0  0  0  0  0
  -24.8525  -27.7109   19.4868 C   0  0  0  0  0  0
  -23.6324  -29.8384   20.1634 C   0  0  0  0  0  0
  -25.4105  -36.3083   24.0332 C   0  0  1  0  0  0
  -20.5874  -28.3752   23.1248 C   0  0  2  0  0  0
  -20.6753  -26.9478   22.5355 C   0  0  0  0  0  0
  -19.5696  -26.6391   21.5203 C   0  0  0  0  0  0
  -18.1875  -26.7978   22.1599 C   0  0  0  0  0  0
  -19.1523  -28.8888   23.2873 C   0  0  0  0  0  0
  -18.9446  -30.1493   23.8878 C   0  0  0  0  0  0
  -17.6449  -30.6640   24.0519 C   0  0  0  0  0  0
  -25.9043  -34.9455   23.5142 C   0  0  0  0  0  0
  -16.5341  -29.9113   23.6333 C   0  0  0  0  0  0
  -16.7255  -28.6508   23.0416 C   0  0  0  0  0  0
  -26.4564  -31.6572   25.0796 C   0  0  0  0  0  0
  -25.3802  -31.3607   26.1501 C   0  0  0  0  0  0
  -27.0461  -30.3035   24.6187 C   0  0  0  0  0  0
  -27.6116  -32.4276   25.7623 C   0  0  0  0  0  0
  -27.5585  -37.1787   24.8443 C   0  0  0  0  0  0
  -21.4179  -29.3195   22.3732 N   0  0  0  0  0  0
  -26.4273  -37.3785   23.9416 N   0  0  0  0  0  0
  -24.6910  -31.0713   22.1023 N   0  0  0  0  0  0
  -23.4223  -28.8158   23.2895 O   0  0  0  0  0  0
  -28.3079  -26.4469   20.1770 O   0  0  0  0  0  0
  -26.5538  -34.8892   22.4660 O   0  0  0  0  0  0
  -23.5478  -32.1452   23.7434 O   0  0  0  0  0  0
  -30.9269  -19.5663   20.4687 C   0  0  0  0  0  0
  -28.7179  -18.7648   20.9550 C   0  0  0  0  0  0
  -30.0786  -18.4639   20.7631 C   0  0  0  0  0  0
  -29.0577  -21.1952   20.4747 C   0  0  0  0  0  0
  -30.4416  -20.9011   20.3137 C   0  0  0  0  0  0
  -28.2114  -20.0835   20.7996 C   0  0  0  0  0  0
  -30.6116  -17.0520   20.7249 C   0  0  0  0  0  0
  -28.4540  -22.5722   20.2813 C   0  0  0  0  0  0
  -29.9710  -15.8393   20.7851 C   0  0  0  0  0  0
  -28.8979  -23.8625   20.4100 C   0  0  0  0  0  0
  -31.4094  -21.9821   19.8512 C   0  0  0  0  0  0
  -26.0158  -19.8578   19.5868 C   0  0  0  0  0  0
  -26.6982  -20.2163   20.9138 C   0  0  0  0  0  0
  -27.9224  -25.0253   20.1172 C   0  0  0  0  0  0
  -31.4706  -12.4095   19.1805 H   0  0  0  0  0  0
  -30.2925  -11.3598   19.9006 H   0  0  0  0  0  0
  -29.7703  -11.7546   17.4805 H   0  0  0  0  0  0
  -29.6826  -13.4766   17.7527 H   0  0  0  0  0  0
  -27.8489  -11.3130   18.8385 H   0  0  0  0  0  0
  -27.3827  -12.6220   17.7853 H   0  0  0  0  0  0
  -27.6766  -14.2650   19.5355 H   0  0  0  0  0  0
  -28.6946  -12.0750   21.4003 H   0  0  0  0  0  0
  -28.4628  -13.7415   21.8388 H   0  0  0  0  0  0
  -25.2770   -9.5738   22.4795 H   0  0  0  0  0  0
  -24.0009   -7.4691   22.7522 H   0  0  0  0  0  0
  -21.0878   -8.8762   19.8946 H   0  0  0  0  0  0
  -22.3726  -10.9674   19.6143 H   0  0  0  0  0  0
  -21.1998   -7.6154   23.9750 H   0  0  0  0  0  0
  -21.1497   -6.0519   25.9101 H   0  0  0  0  0  0
  -22.0574   -2.7615   23.2845 H   0  0  0  0  0  0
  -22.3925  -11.9908   22.4746 H   0  0  0  0  0  0
  -21.1031  -13.1359   22.2426 H   0  0  0  0  0  0
  -24.6772  -15.8549   20.5264 H   0  0  0  0  0  0
  -26.2940  -15.6219   20.0952 H   0  0  0  0  0  0
  -26.7277  -32.5501   23.1243 H   0  0  0  0  0  0
  -25.0371  -33.9805   25.0680 H   0  0  0  0  0  0
  -22.7163  -31.3226   21.4058 H   0  0  0  0  0  0
  -23.3788  -35.9556   23.3207 H   0  0  0  0  0  0
  -24.3621  -36.8971   22.2057 H   0  0  0  0  0  0
  -23.7177  -37.6417   23.6687 H   0  0  0  0  0  0
  -26.0865  -31.5649   20.6062 H   0  0  0  0  0  0
  -26.8518  -30.8624   21.9965 H   0  0  0  0  0  0
  -28.1093  -28.9717   21.2139 H   0  0  0  0  0  0
  -25.9185  -25.9762   18.9734 H   0  0  0  0  0  0
  -23.9518  -27.3446   19.0144 H   0  0  0  0  0  0
  -23.7435  -30.6135   19.4036 H   0  0  0  0  0  0
  -22.7545  -29.2611   19.8665 H   0  0  0  0  0  0
  -25.1274  -36.1939   25.0818 H   0  0  0  0  0  0
  -20.9968  -28.3296   24.1364 H   0  0  0  0  0  0
  -20.5658  -26.2384   23.3575 H   0  0  0  0  0  0
  -21.6610  -26.7508   22.1118 H   0  0  0  0  0  0
  -19.6818  -25.6270   21.1306 H   0  0  0  0  0  0
  -19.6612  -27.3132   20.6678 H   0  0  0  0  0  0
  -17.4166  -26.6849   21.3959 H   0  0  0  0  0  0
  -18.0163  -26.0082   22.8929 H   0  0  0  0  0  0
  -19.7921  -30.7329   24.2224 H   0  0  0  0  0  0
  -17.5006  -31.6360   24.5042 H   0  0  0  0  0  0
  -15.5341  -30.3032   23.7636 H   0  0  0  0  0  0
  -15.8643  -28.0803   22.7199 H   0  0  0  0  0  0
  -24.6010  -30.6946   25.7791 H   0  0  0  0  0  0
  -24.8961  -32.2717   26.5016 H   0  0  0  0  0  0
  -25.8146  -30.8717   27.0229 H   0  0  0  0  0  0
  -26.3081  -29.6755   24.1180 H   0  0  0  0  0  0
  -27.4216  -29.7296   25.4673 H   0  0  0  0  0  0
  -27.8905  -30.4430   23.9428 H   0  0  0  0  0  0
  -27.2769  -33.3604   26.2175 H   0  0  0  0  0  0
  -28.3999  -32.6759   25.0503 H   0  0  0  0  0  0
  -28.0690  -31.8374   26.5580 H   0  0  0  0  0  0
  -28.2472  -38.0206   24.7646 H   0  0  0  0  0  0
  -28.1213  -36.2744   24.6080 H   0  0  0  0  0  0
  -27.2312  -37.1179   25.8835 H   0  0  0  0  0  0
  -20.9295  -29.9253   21.7282 H   0  0  0  0  0  0
  -26.0144  -38.2846   24.1436 H   0  0  0  0  0  0
  -31.9779  -19.3819   20.2964 H   0  0  0  0  0  0
  -28.0272  -17.9629   21.1794 H   0  0  0  0  0  0
  -31.6841  -17.0226   20.5888 H   0  0  0  0  0  0
  -27.4334  -22.5198   19.9276 H   0  0  0  0  0  0
  -28.9095  -15.8071   20.9698 H   0  0  0  0  0  0
  -29.9025  -24.1054   20.7262 H   0  0  0  0  0  0
  -32.2891  -21.5565   19.3695 H   0  0  0  0  0  0
  -31.7411  -22.6044   20.6823 H   0  0  0  0  0  0
  -30.9443  -22.6287   19.1053 H   0  0  0  0  0  0
  -24.9310  -19.9452   19.6540 H   0  0  0  0  0  0
  -26.2433  -18.8304   19.2965 H   0  0  0  0  0  0
  -26.3531  -20.5116   18.7821 H   0  0  0  0  0  0
  -26.3982  -21.2071   21.2494 H   0  0  0  0  0  0
  -26.3448  -19.5333   21.6877 H   0  0  0  0  0  0
  -27.1143  -24.8698   20.8353 H   0  0  0  0  0  0
  -27.5532  -24.7850   19.1216 H   0  0  0  0  0  0
  1 25  1  0  0  0
  1 30  2  0  0  0
  1 79  1  0  0  0
  2  3  1  0  0  0
  2 25  1  0  0  0
  2 85  1  0  0  0
  2 86  1  0  0  0
  3  4  1  0  0  0
  3 87  1  0  0  0
  3 88  1  0  0  0
  4  5  1  0  0  0
  4 89  1  0  0  0
  4 90  1  0  0  0
  5  6  1  0  0  0
  5 26  1  0  0  0
  5 91  1  0  0  0
  6 25  1  0  0  0
  6 92  1  0  0  0
  6 93  1  0  0  0
  7  8  2  0  0  0
  7 26  1  0  0  0
  7 29  1  0  0  0
  8  9  1  0  0  0
  8 22  1  0  0  0
  9 10  1  0  0  0
  9 27  2  0  0  0
 10 11  2  0  0  0
 10 15  1  0  0  0
 11 12  1  0  0  0
 11 94  1  0  0  0
 12 13  2  0  0  0
 12 95  1  0  0  0
 13 14  1  0  0  0
 13 31  1  0  0  0
 14 15  2  0  0  0
 14 96  1  0  0  0
 15 97  1  0  0  0
 16 17  2  0  0  0
 16 21  1  0  0  0
 16 31  1  0  0  0
 17 18  1  0  0  0
 17 98  1  0  0  0
 18 19  2  0  0  0
 18 99  1  0  0  0
 19 20  1  0  0  0
 19 24  1  0  0  0
 20 21  2  0  0  0
 20100  1  0  0  0
 21 23  1  0  0  0
 22 28  1  0  0  0
 22 32  2  0  0  0
 26 27  1  0  0  0
 28101  1  0  0  0
 28102  1  0  0  0
 29103  1  0  0  0
 29104  1  0  0  0
 33 34  1  0  0  0
 33 66  1  0  0  0
 33 70  2  0  0  0
 34 36  1  0  0  0
 34 59  1  0  0  0
 34105  1  0  0  0
 35 44  2  0  0  0
 35 45  1  0  0  0
 35 68  1  0  0  0
 36 56  1  0  0  0
 36106  1  0  0  0
 37 39  1  0  0  0
 37 47  1  0  0  0
 37 66  1  0  0  0
 37107  1  0  0  0
 38 43  2  0  0  0
 38 46  1  0  0  0
 38 47  1  0  0  0
 39 64  1  0  0  0
 39 67  2  0  0  0
 40 52  1  0  0  0
 40 53  2  0  0  0
 40 58  1  0  0  0
 41108  1  0  0  0
 41109  1  0  0  0
 41110  1  0  0  0
 41 48  1  0  0  0
 42 43  1  0  0  0
 42 66  1  0  0  0
 42111  1  0  0  0
 42112  1  0  0  0
 43 44  1  0  0  0
 44113  1  0  0  0
 45 46  2  0  0  0
 45114  1  0  0  0
 46115  1  0  0  0
 47116  1  0  0  0
 47117  1  0  0  0
 48 56  1  0  0  0
 48 65  1  0  0  0
 48118  1  0  0  0
 49 50  1  0  0  0
 49 53  1  0  0  0
 49 64  1  0  0  0
 49119  1  0  0  0
 50 51  1  0  0  0
 50120  1  0  0  0
 50121  1  0  0  0
 51 52  1  0  0  0
 51122  1  0  0  0
 51123  1  0  0  0
 52124  1  0  0  0
 52125  1  0  0  0
 53 54  1  0  0  0
 54 55  2  0  0  0
 54126  1  0  0  0
 55 57  1  0  0  0
 55127  1  0  0  0
 56 69  2  0  0  0
 57 58  2  0  0  0
 57128  1  0  0  0
 58129  1  0  0  0
 59 60  1  0  0  0
 59 61  1  0  0  0
 59 62  1  0  0  0
 60130  1  0  0  0
 60131  1  0  0  0
 60132  1  0  0  0
 61133  1  0  0  0
 61134  1  0  0  0
 61135  1  0  0  0
 62136  1  0  0  0
 62137  1  0  0  0
 62138  1  0  0  0
 63 65  1  0  0  0
 63139  1  0  0  0
 63140  1  0  0  0
 63141  1  0  0  0
 64142  1  0  0  0
 65143  1  0  0  0
 68 84  1  0  0  0
 71 73  2  0  0  0
 71 75  1  0  0  0
 71144  1  0  0  0
 72 73  1  0  0  0
 72 76  2  0  0  0
 72145  1  0  0  0
 73 77  1  0  0  0
 74 75  2  0  0  0
 74 76  1  0  0  0
 74 78  1  0  0  0
 75 81  1  0  0  0
 76 83  1  0  0  0
 77 79  2  0  0  0
 77146  1  0  0  0
 78 80  2  0  0  0
 78147  1  0  0  0
 79148  1  0  0  0
 80 84  1  0  0  0
 80149  1  0  0  0
 81150  1  0  0  0
 81151  1  0  0  0
 81152  1  0  0  0
 82 83  1  0  0  0
 82153  1  0  0  0
 82154  1  0  0  0
 82155  1  0  0  0
 83156  1  0  0  0
 83157  1  0  0  0
 84158  1  0  0  0
 84159  1  0  0  0
M  ISO  4   1 100  68 101  79 100  84 101
M  END
> <chiral flag>
0

> <version>
0

> <s_m_source_file>
/data/baiqing/PycharmProjects/Reinvent-master-3.2/result/LINK_invent/BTK/process_docking_weight1_custom_product_contain_oxygen_bond_distance_aromatic_linkinvent_7_9_3/rearranged_h_0126.sdf

> <i_m_source_file_index>
67

> <r_mmod_Potential_Energy-OPLS-2005>
94.4013061523438

> <r_mmod_Stretch_Energy-OPLS-2005>
68.8879089355469

> <r_mmod_Bend_Energy-OPLS-2005>
148.377868652344

> <r_mmod_Torsional_Energy-OPLS-2005>
199.737503051758

> <r_mmod_Improper_Torsional_Energy-OPLS-2005>
7.20294332504272

> <r_mmod_Van_der_Waal_Energy-OPLS-2005>
166.885391235352

> <r_mmod_Electrostatic_Energy-OPLS-2005>
-350.034240722656

> <r_mmod_Solvation_Energy-OPLS-2005>
-190.19792175293

> <b_mmod_Minimization_Converged-OPLS-2005>
0

> <r_mmod_RMS_Derivative-OPLS-2005>
4.3337230682373

$$$$
67
                    3D
 Structure written by MMmdl.
154162  0  0  1  0            999 V2000
  -30.7013  -14.4813   20.4985 C   0  0  0  0  0  0
  -30.4168  -12.2893   19.4412 C   0  0  0  0  0  0
  -29.4991  -12.4835   18.2149 C   0  0  0  0  0  0
  -28.0175  -12.3596   18.6201 C   0  0  0  0  0  0
  -27.6586  -13.2131   19.8667 C   0  0  2  0  0  0
  -28.6996  -13.0278   20.9943 C   0  0  0  0  0  0
  -25.2581  -13.8187   20.5687 C   0  0  0  0  0  0
  -24.1838  -13.0463   20.9195 C   0  0  0  0  0  0
  -24.6399  -11.6933   20.8760 C   0  0  0  0  0  0
  -23.9066  -10.4319   21.0422 C   0  0  0  0  0  0
  -24.3623   -9.4227   21.9186 C   0  0  0  0  0  0
  -23.6300   -8.2260   22.0752 C   0  0  0  0  0  0
  -22.4279   -8.0297   21.3549 C   0  0  0  0  0  0
  -21.9918   -9.0276   20.4655 C   0  0  0  0  0  0
  -22.7247  -10.2156   20.3065 C   0  0  0  0  0  0
  -21.6862   -6.0738   22.5280 C   0  0  0  0  0  0
  -21.4017   -6.5642   23.8212 C   0  0  0  0  0  0
  -21.3660   -5.6791   24.9171 C   0  0  0  0  0  0
  -21.6050   -4.3053   24.7219 C   0  0  0  0  0  0
  -21.8820   -3.8148   23.4336 C   0  0  0  0  0  0
  -21.9195   -4.6965   22.3397 C   0  0  0  0  0  0
  -22.7855  -13.5252   21.1837 C   0  0  0  0  0  0
  -22.1663   -4.2154   21.0969 F   0  0  0  0  0  0
  -21.5628   -3.4534   25.7731 F   0  0  0  0  0  0
  -30.0316  -13.3013   20.4364 N   0  0  0  0  0  0
  -26.3018  -12.9370   20.3344 N   0  0  0  0  0  0
  -25.9328  -11.6530   20.5787 N   0  0  0  0  0  0
  -22.0477  -12.8261   22.0397 N   0  0  0  0  0  0
  -25.4300  -15.1903   20.4078 N   0  0  0  0  0  0
  -31.8848  -14.5849   20.1658 O   0  0  0  0  0  0
  -21.6649   -6.8886   21.4245 O   0  0  0  0  0  0
  -22.3541  -14.5543   20.6657 O   0  0  0  0  0  0
  -24.6131  -31.8690   23.2110 C   0  0  0  0  0  0
  -25.9025  -32.4833   23.8400 C   0  0  1  0  0  0
  -27.2294  -27.4437   20.1042 C   0  0  0  0  0  0
  -25.5870  -33.8630   24.2324 N   0  0  0  0  0  0
  -23.4009  -30.4918   21.5514 C   0  0  2  0  0  0
  -24.8487  -28.9594   20.1130 C   0  0  0  0  0  0
  -22.7404  -29.4660   22.5001 C   0  0  0  0  0  0
  -18.0268  -28.1376   22.8495 C   0  0  0  0  0  0
  -24.1478  -36.7327   23.2641 C   0  0  0  0  0  0
  -25.9288  -30.8388   21.3626 C   0  0  0  0  0  0
  -26.0082  -29.4748   20.7080 C   0  0  0  0  0  0
  -27.2065  -28.7258   20.6965 C   0  0  0  0  0  0
  -26.0586  -26.9379   19.5047 C   0  0  0  0  0  0
  -24.8690  -27.6909   19.5050 C   0  0  0  0  0  0
  -23.6096  -29.8245   20.1650 C   0  0  0  0  0  0
  -25.4100  -36.3118   24.0338 C   0  0  1  0  0  0
  -20.5861  -28.3660   23.1324 C   0  0  2  0  0  0
  -20.6766  -26.9400   22.5423 C   0  0  0  0  0  0
  -19.5744  -26.6385   21.5219 C   0  0  0  0  0  0
  -18.1919  -26.7928   22.1625 C   0  0  0  0  0  0
  -19.1520  -28.8833   23.2912 C   0  0  0  0  0  0
  -18.9452  -30.1443   23.8917 C   0  0  0  0  0  0
  -17.6455  -30.6590   24.0562 C   0  0  0  0  0  0
  -25.9025  -34.9484   23.5137 C   0  0  0  0  0  0
  -16.5344  -29.9091   23.6323 C   0  0  0  0  0  0
  -16.7260  -28.6506   23.0346 C   0  0  0  0  0  0
  -26.4456  -31.6618   25.0730 C   0  0  0  0  0  0
  -25.3721  -31.3733   26.1480 C   0  0  0  0  0  0
  -27.0303  -30.3064   24.6110 C   0  0  0  0  0  0
  -27.6023  -32.4354   25.7489 C   0  0  0  0  0  0
  -27.5583  -37.1817   24.8466 C   0  0  0  0  0  0
  -21.4135  -29.3032   22.3740 N   0  0  0  0  0  0
  -26.4292  -37.3796   23.9408 N   0  0  0  0  0  0
  -24.6655  -31.0796   22.1007 N   0  0  0  0  0  0
  -23.4185  -28.8209   23.3040 O   0  0  0  0  0  0
  -28.3730  -26.6819   20.1122 O   0  0  0  0  0  0
  -26.5598  -34.8935   22.4705 O   0  0  0  0  0  0
  -23.5329  -32.1441   23.7506 O   0  0  0  0  0  0
  -31.0253  -18.3384   18.4022 C   0  0  0  0  0  0
  -30.4402  -19.4574   19.0141 C   0  0  0  0  0  0
  -30.8649  -17.0630   18.9648 C   0  0  0  0  0  0
  -29.5171  -18.0215   20.7533 C   0  0  0  0  0  0
  -29.6697  -19.3189   20.1893 C   0  0  0  0  0  0
  -30.1265  -16.8808   20.1622 C   0  0  0  0  0  0
  -29.0835  -20.5191   20.8367 C   0  0  0  0  0  0
  -29.4852  -21.7937   20.6297 C   0  0  0  0  0  0
  -28.8856  -23.0401   21.2692 C   0  0  0  0  0  0
  -28.7895  -24.2453   20.2990 C   0  0  0  0  0  0
  -28.3083  -25.5427   20.9843 C   0  0  0  0  0  0
  -29.9463  -15.5754   20.7418 N   0  0  0  0  0  0
  -31.4653  -12.3655   19.1465 H   0  0  0  0  0  0
  -30.2971  -11.2889   19.8592 H   0  0  0  0  0  0
  -29.7352  -11.7457   17.4471 H   0  0  0  0  0  0
  -29.6798  -13.4603   17.7644 H   0  0  0  0  0  0
  -27.8222  -11.3068   18.8254 H   0  0  0  0  0  0
  -27.3741  -12.6275   17.7804 H   0  0  0  0  0  0
  -27.6924  -14.2555   19.5491 H   0  0  0  0  0  0
  -28.6687  -12.0090   21.3817 H   0  0  0  0  0  0
  -28.4756  -13.6768   21.8424 H   0  0  0  0  0  0
  -25.2775   -9.5695   22.4745 H   0  0  0  0  0  0
  -24.0021   -7.4648   22.7456 H   0  0  0  0  0  0
  -21.0849   -8.8799   19.8958 H   0  0  0  0  0  0
  -22.3718  -10.9689   19.6162 H   0  0  0  0  0  0
  -21.2010   -7.6152   23.9721 H   0  0  0  0  0  0
  -21.1481   -6.0515   25.9075 H   0  0  0  0  0  0
  -22.0596   -2.7614   23.2833 H   0  0  0  0  0  0
  -22.4095  -11.9955   22.4842 H   0  0  0  0  0  0
  -21.1082  -13.1289   22.2553 H   0  0  0  0  0  0
  -24.6634  -15.8462   20.5146 H   0  0  0  0  0  0
  -26.2794  -15.6283   20.0738 H   0  0  0  0  0  0
  -26.7100  -32.5548   23.1173 H   0  0  0  0  0  0
  -24.9994  -33.9797   25.0445 H   0  0  0  0  0  0
  -22.6891  -31.3084   21.4135 H   0  0  0  0  0  0
  -23.3731  -35.9672   23.3318 H   0  0  0  0  0  0
  -24.3565  -36.8918   22.2053 H   0  0  0  0  0  0
  -23.7247  -37.6543   23.6643 H   0  0  0  0  0  0
  -26.0412  -31.6059   20.5951 H   0  0  0  0  0  0
  -26.8170  -30.8902   21.9815 H   0  0  0  0  0  0
  -28.1029  -29.1190   21.1562 H   0  0  0  0  0  0
  -26.0679  -25.9602   19.0444 H   0  0  0  0  0  0
  -23.9788  -27.2892   19.0415 H   0  0  0  0  0  0
  -23.7173  -30.6008   19.4058 H   0  0  0  0  0  0
  -22.7343  -29.2436   19.8705 H   0  0  0  0  0  0
  -25.1281  -36.1985   25.0831 H   0  0  0  0  0  0
  -20.9950  -28.3219   24.1445 H   0  0  0  0  0  0
  -20.5665  -26.2266   23.3604 H   0  0  0  0  0  0
  -21.6637  -26.7451   22.1214 H   0  0  0  0  0  0
  -19.6898  -25.6298   21.1241 H   0  0  0  0  0  0
  -19.6683  -27.3203   20.6753 H   0  0  0  0  0  0
  -17.4196  -26.6673   21.4025 H   0  0  0  0  0  0
  -18.0320  -26.0069   22.9020 H   0  0  0  0  0  0
  -19.7931  -30.7252   24.2293 H   0  0  0  0  0  0
  -17.5014  -31.6270   24.5168 H   0  0  0  0  0  0
  -15.5348  -30.3000   23.7637 H   0  0  0  0  0  0
  -15.8659  -28.0835   22.7043 H   0  0  0  0  0  0
  -24.5867  -30.7112   25.7817 H   0  0  0  0  0  0
  -24.8950  -32.2903   26.4954 H   0  0  0  0  0  0
  -25.8063  -30.8875   27.0224 H   0  0  0  0  0  0
  -26.2862  -29.6819   24.1153 H   0  0  0  0  0  0
  -27.4068  -29.7305   25.4574 H   0  0  0  0  0  0
  -27.8688  -30.4396   23.9267 H   0  0  0  0  0  0
  -27.2623  -33.3629   26.2110 H   0  0  0  0  0  0
  -28.3795  -32.6967   25.0298 H   0  0  0  0  0  0
  -28.0733  -31.8466   26.5369 H   0  0  0  0  0  0
  -28.2614  -38.0105   24.7497 H   0  0  0  0  0  0
  -28.1062  -36.2633   24.6299 H   0  0  0  0  0  0
  -27.2300  -37.1481   25.8870 H   0  0  0  0  0  0
  -20.9289  -29.8755   21.6970 H   0  0  0  0  0  0
  -26.0185  -38.2875   24.1397 H   0  0  0  0  0  0
  -31.5998  -18.4595   17.4939 H   0  0  0  0  0  0
  -30.5765  -20.4217   18.5460 H   0  0  0  0  0  0
  -31.3228  -16.2319   18.4473 H   0  0  0  0  0  0
  -28.9362  -17.9064   21.6581 H   0  0  0  0  0  0
  -28.2592  -20.3405   21.5141 H   0  0  0  0  0  0
  -30.3203  -21.9904   19.9741 H   0  0  0  0  0  0
  -29.5285  -23.3113   22.1080 H   0  0  0  0  0  0
  -27.9069  -22.8085   21.6908 H   0  0  0  0  0  0
  -28.1195  -24.0017   19.4735 H   0  0  0  0  0  0
  -29.7693  -24.4282   19.8561 H   0  0  0  0  0  0
  -28.9462  -25.7575   21.8418 H   0  0  0  0  0  0
  -27.3060  -25.3822   21.3886 H   0  0  0  0  0  0
  -29.0597  -15.4039   21.1915 H   0  0  0  0  0  0
  1 25  1  0  0  0
  1 30  2  0  0  0
  1 82  1  0  0  0
  2  3  1  0  0  0
  2 25  1  0  0  0
  2 83  1  0  0  0
  2 84  1  0  0  0
  3  4  1  0  0  0
  3 85  1  0  0  0
  3 86  1  0  0  0
  4  5  1  0  0  0
  4 87  1  0  0  0
  4 88  1  0  0  0
  5  6  1  0  0  0
  5 26  1  0  0  0
  5 89  1  0  0  0
  6 25  1  0  0  0
  6 90  1  0  0  0
  6 91  1  0  0  0
  7  8  2  0  0  0
  7 26  1  0  0  0
  7 29  1  0  0  0
  8  9  1  0  0  0
  8 22  1  0  0  0
  9 10  1  0  0  0
  9 27  2  0  0  0
 10 11  2  0  0  0
 10 15  1  0  0  0
 11 12  1  0  0  0
 11 92  1  0  0  0
 12 13  2  0  0  0
 12 93  1  0  0  0
 13 14  1  0  0  0
 13 31  1  0  0  0
 14 15  2  0  0  0
 14 94  1  0  0  0
 15 95  1  0  0  0
 16 17  2  0  0  0
 16 21  1  0  0  0
 16 31  1  0  0  0
 17 18  1  0  0  0
 17 96  1  0  0  0
 18 19  2  0  0  0
 18 97  1  0  0  0
 19 20  1  0  0  0
 19 24  1  0  0  0
 20 21  2  0  0  0
 20 98  1  0  0  0
 21 23  1  0  0  0
 22 28  1  0  0  0
 22 32  2  0  0  0
 26 27  1  0  0  0
 28 99  1  0  0  0
 28100  1  0  0  0
 29101  1  0  0  0
 29102  1  0  0  0
 33 34  1  0  0  0
 33 66  1  0  0  0
 33 70  2  0  0  0
 34 36  1  0  0  0
 34 59  1  0  0  0
 34103  1  0  0  0
 35 44  2  0  0  0
 35 45  1  0  0  0
 35 68  1  0  0  0
 36 56  1  0  0  0
 36104  1  0  0  0
 37 39  1  0  0  0
 37 47  1  0  0  0
 37 66  1  0  0  0
 37105  1  0  0  0
 38 43  2  0  0  0
 38 46  1  0  0  0
 38 47  1  0  0  0
 39 64  1  0  0  0
 39 67  2  0  0  0
 40 52  1  0  0  0
 40 53  2  0  0  0
 40 58  1  0  0  0
 41106  1  0  0  0
 41107  1  0  0  0
 41108  1  0  0  0
 41 48  1  0  0  0
 42 43  1  0  0  0
 42 66  1  0  0  0
 42109  1  0  0  0
 42110  1  0  0  0
 43 44  1  0  0  0
 44111  1  0  0  0
 45 46  2  0  0  0
 45112  1  0  0  0
 46113  1  0  0  0
 47114  1  0  0  0
 47115  1  0  0  0
 48 56  1  0  0  0
 48 65  1  0  0  0
 48116  1  0  0  0
 49 50  1  0  0  0
 49 53  1  0  0  0
 49 64  1  0  0  0
 49117  1  0  0  0
 50 51  1  0  0  0
 50118  1  0  0  0
 50119  1  0  0  0
 51 52  1  0  0  0
 51120  1  0  0  0
 51121  1  0  0  0
 52122  1  0  0  0
 52123  1  0  0  0
 53 54  1  0  0  0
 54 55  2  0  0  0
 54124  1  0  0  0
 55 57  1  0  0  0
 55125  1  0  0  0
 56 69  2  0  0  0
 57 58  2  0  0  0
 57126  1  0  0  0
 58127  1  0  0  0
 59 60  1  0  0  0
 59 61  1  0  0  0
 59 62  1  0  0  0
 60128  1  0  0  0
 60129  1  0  0  0
 60130  1  0  0  0
 61131  1  0  0  0
 61132  1  0  0  0
 61133  1  0  0  0
 62134  1  0  0  0
 62135  1  0  0  0
 62136  1  0  0  0
 63 65  1  0  0  0
 63137  1  0  0  0
 63138  1  0  0  0
 63139  1  0  0  0
 64140  1  0  0  0
 65141  1  0  0  0
 68 81  1  0  0  0
 71 72  2  0  0  0
 71 73  1  0  0  0
 71142  1  0  0  0
 72 75  1  0  0  0
 72143  1  0  0  0
 73 76  2  0  0  0
 73144  1  0  0  0
 74 75  2  0  0  0
 74 76  1  0  0  0
 74145  1  0  0  0
 75 77  1  0  0  0
 76 82  1  0  0  0
 77 78  2  0  0  0
 77146  1  0  0  0
 78 79  1  0  0  0
 78147  1  0  0  0
 79 80  1  0  0  0
 79148  1  0  0  0
 79149  1  0  0  0
 80 81  1  0  0  0
 80150  1  0  0  0
 80151  1  0  0  0
 81152  1  0  0  0
 81153  1  0  0  0
 82154  1  0  0  0
M  ISO  4   1 100  68 101  81 101  82 100
M  END
> <chiral flag>
0

> <version>
0

> <s_m_source_file>
/data/baiqing/PycharmProjects/Reinvent-master-3.2/result/LINK_invent/BTK/process_docking_weight1_custom_product_contain_oxygen_bond_distance_aromatic_linkinvent_7_9_3/rearranged_h_0126.sdf

> <i_m_source_file_index>
68

> <r_mmod_Potential_Energy-OPLS-2005>
1.20440018177032

> <r_mmod_Stretch_Energy-OPLS-2005>
37.0945930480957

> <r_mmod_Bend_Energy-OPLS-2005>
86.0794296264648

> <r_mmod_Torsional_Energy-OPLS-2005>
251.899276733398

> <r_mmod_Improper_Torsional_Energy-OPLS-2005>
5.58195686340332

> <r_mmod_Van_der_Waal_Energy-OPLS-2005>
155.396347045898

> <r_mmod_Electrostatic_Energy-OPLS-2005>
-351.722045898438

> <r_mmod_Solvation_Energy-OPLS-2005>
-201.168502807617

> <b_mmod_Minimization_Converged-OPLS-2005>
0

> <r_mmod_RMS_Derivative-OPLS-2005>
1.77470088005066

$$$$
68
                    3D
 Structure written by MMmdl.
157165  0  0  1  0            999 V2000
  -30.6902  -14.5452   20.5563 C   0  0  0  0  0  0
  -30.4419  -12.3267   19.5025 C   0  0  0  0  0  0
  -29.5559  -12.4706   18.2481 C   0  0  0  0  0  0
  -28.0517  -12.4090   18.6033 C   0  0  0  0  0  0
  -27.6660  -13.2323   19.8660 C   0  0  2  0  0  0
  -28.6920  -13.0517   21.0077 C   0  0  0  0  0  0
  -25.2588  -13.8211   20.5585 C   0  0  0  0  0  0
  -24.1846  -13.0469   20.9075 C   0  0  0  0  0  0
  -24.6433  -11.6926   20.8597 C   0  0  0  0  0  0
  -23.9101  -10.4320   21.0325 C   0  0  0  0  0  0
  -24.3657   -9.4242   21.9117 C   0  0  0  0  0  0
  -23.6340   -8.2268   22.0704 C   0  0  0  0  0  0
  -22.4298   -8.0314   21.3522 C   0  0  0  0  0  0
  -21.9924   -9.0285   20.4640 C   0  0  0  0  0  0
  -22.7251  -10.2163   20.3015 C   0  0  0  0  0  0
  -21.6867   -6.0763   22.5259 C   0  0  0  0  0  0
  -21.4024   -6.5651   23.8211 C   0  0  0  0  0  0
  -21.3650   -5.6799   24.9144 C   0  0  0  0  0  0
  -21.6035   -4.3052   24.7205 C   0  0  0  0  0  0
  -21.8831   -3.8165   23.4317 C   0  0  0  0  0  0
  -21.9213   -4.6974   22.3386 C   0  0  0  0  0  0
  -22.7896  -13.5239   21.1873 C   0  0  0  0  0  0
  -22.1682   -4.2165   21.0954 F   0  0  0  0  0  0
  -21.5650   -3.4543   25.7721 F   0  0  0  0  0  0
  -30.0211  -13.3595   20.4651 N   0  0  0  0  0  0
  -26.3028  -12.9426   20.3174 N   0  0  0  0  0  0
  -25.9354  -11.6557   20.5512 N   0  0  0  0  0  0
  -22.0566  -12.8195   22.0426 N   0  0  0  0  0  0
  -25.4382  -15.1949   20.4141 N   0  0  0  0  0  0
  -31.8814  -14.6390   20.2645 O   0  0  0  0  0  0
  -21.6660   -6.8909   21.4237 O   0  0  0  0  0  0
  -22.3562  -14.5587   20.6805 O   0  0  0  0  0  0
  -24.6228  -31.8608   23.1990 C   0  0  0  0  0  0
  -25.9142  -32.4737   23.8289 C   0  0  1  0  0  0
  -27.2319  -27.3821   20.0924 C   0  0  0  0  0  0
  -25.6007  -33.8535   24.2240 N   0  0  0  0  0  0
  -23.4084  -30.4845   21.5407 C   0  0  2  0  0  0
  -24.8533  -28.9406   20.1046 C   0  0  0  0  0  0
  -22.7455  -29.4651   22.4953 C   0  0  0  0  0  0
  -18.0285  -28.1408   22.8457 C   0  0  0  0  0  0
  -24.1508  -36.7280   23.2620 C   0  0  0  0  0  0
  -25.9410  -30.8042   21.3639 C   0  0  0  0  0  0
  -26.0129  -29.4379   20.7094 C   0  0  0  0  0  0
  -27.1998  -28.6617   20.7058 C   0  0  0  0  0  0
  -26.0539  -26.9204   19.4611 C   0  0  0  0  0  0
  -24.8707  -27.6825   19.4782 C   0  0  0  0  0  0
  -23.6148  -29.8063   20.1577 C   0  0  0  0  0  0
  -25.4115  -36.3042   24.0326 C   0  0  1  0  0  0
  -20.5881  -28.3701   23.1314 C   0  0  2  0  0  0
  -20.6776  -26.9437   22.5433 C   0  0  0  0  0  0
  -19.5785  -26.6412   21.5209 C   0  0  0  0  0  0
  -18.1939  -26.7976   22.1553 C   0  0  0  0  0  0
  -19.1537  -28.8871   23.2869 C   0  0  0  0  0  0
  -18.9448  -30.1465   23.8886 C   0  0  0  0  0  0
  -17.6465  -30.6592   24.0571 C   0  0  0  0  0  0
  -25.9066  -34.9425   23.5066 C   0  0  0  0  0  0
  -16.5347  -29.9089   23.6346 C   0  0  0  0  0  0
  -16.7280  -28.6511   23.0340 C   0  0  0  0  0  0
  -26.4538  -31.6529   25.0649 C   0  0  0  0  0  0
  -25.3798  -31.3727   26.1405 C   0  0  0  0  0  0
  -27.0355  -30.2940   24.6099 C   0  0  0  0  0  0
  -27.6102  -32.4259   25.7420 C   0  0  0  0  0  0
  -27.5616  -37.1738   24.8416 C   0  0  0  0  0  0
  -21.4182  -29.3043   22.3714 N   0  0  0  0  0  0
  -26.4273  -37.3763   23.9444 N   0  0  0  0  0  0
  -24.6746  -31.0696   22.0891 N   0  0  0  0  0  0
  -23.4216  -28.8242   23.3052 O   0  0  0  0  0  0
  -28.3922  -26.6217   20.1648 O   0  0  0  0  0  0
  -26.5592  -34.8918   22.4594 O   0  0  0  0  0  0
  -23.5439  -32.1393   23.7408 O   0  0  0  0  0  0
  -30.5462  -19.6586   19.3316 C   0  0  0  0  0  0
  -30.8464  -18.5640   18.5207 C   0  0  0  0  0  0
  -29.8432  -18.1523   21.1055 C   0  0  0  0  0  0
  -29.9676  -19.4901   20.6011 C   0  0  0  0  0  0
  -30.6076  -17.2515   18.9593 C   0  0  0  0  0  0
  -30.1742  -17.0067   20.2981 C   0  0  0  0  0  0
  -29.4449  -20.7489   21.2347 C   0  0  0  0  0  0
  -29.0051  -21.8005   20.4789 C   0  0  0  0  0  0
  -30.7273  -16.1722   17.8948 C   0  0  0  0  0  0
  -28.5383  -23.1974   20.9224 C   0  0  0  0  0  0
  -27.8912  -24.0755   19.7911 C   0  0  0  0  0  0
  -28.5734  -25.4270   19.3669 C   0  0  0  0  0  0
  -29.9353  -15.6568   20.7845 N   0  0  0  0  0  0
  -31.4983  -12.4108   19.2370 H   0  0  0  0  0  0
  -30.3283  -11.3378   19.9467 H   0  0  0  0  0  0
  -29.8054  -11.6833   17.5361 H   0  0  0  0  0  0
  -29.7964  -13.4061   17.7470 H   0  0  0  0  0  0
  -27.7836  -11.3601   18.7321 H   0  0  0  0  0  0
  -27.4753  -12.7652   17.7498 H   0  0  0  0  0  0
  -27.7031  -14.2828   19.5723 H   0  0  0  0  0  0
  -28.6710  -12.0248   21.3799 H   0  0  0  0  0  0
  -28.4441  -13.6887   21.8591 H   0  0  0  0  0  0
  -25.2819   -9.5735   22.4661 H   0  0  0  0  0  0
  -24.0080   -7.4644   22.7397 H   0  0  0  0  0  0
  -21.0841   -8.8818   19.8967 H   0  0  0  0  0  0
  -22.3697  -10.9697   19.6130 H   0  0  0  0  0  0
  -21.2005   -7.6161   23.9704 H   0  0  0  0  0  0
  -21.1479   -6.0513   25.9055 H   0  0  0  0  0  0
  -22.0625   -2.7618   23.2783 H   0  0  0  0  0  0
  -22.4238  -11.9828   22.4714 H   0  0  0  0  0  0
  -21.1230  -13.1246   22.2813 H   0  0  0  0  0  0
  -24.6822  -15.8607   20.5296 H   0  0  0  0  0  0
  -26.3093  -15.6264   20.1315 H   0  0  0  0  0  0
  -26.7201  -32.5405   23.1024 H   0  0  0  0  0  0
  -25.0264  -33.9638   25.0472 H   0  0  0  0  0  0
  -22.6983  -31.3015   21.3955 H   0  0  0  0  0  0
  -23.3790  -35.9578   23.3151 H   0  0  0  0  0  0
  -24.3657  -36.9018   22.2058 H   0  0  0  0  0  0
  -23.7222  -37.6434   23.6716 H   0  0  0  0  0  0
  -26.0742  -31.5650   20.5949 H   0  0  0  0  0  0
  -26.8225  -30.8450   21.9918 H   0  0  0  0  0  0
  -28.0943  -29.0373   21.1812 H   0  0  0  0  0  0
  -26.0204  -25.9635   18.9625 H   0  0  0  0  0  0
  -23.9793  -27.2973   19.0000 H   0  0  0  0  0  0
  -23.7140  -30.5660   19.3834 H   0  0  0  0  0  0
  -22.7397  -29.2196   19.8766 H   0  0  0  0  0  0
  -25.1281  -36.1814   25.0820 H   0  0  0  0  0  0
  -20.9961  -28.3269   24.1438 H   0  0  0  0  0  0
  -20.5667  -26.2320   23.3627 H   0  0  0  0  0  0
  -21.6651  -26.7480   22.1238 H   0  0  0  0  0  0
  -19.6943  -25.6314   21.1252 H   0  0  0  0  0  0
  -19.6781  -27.3218   20.6733 H   0  0  0  0  0  0
  -17.4268  -26.6793   21.3881 H   0  0  0  0  0  0
  -18.0269  -26.0095   22.8916 H   0  0  0  0  0  0
  -19.7933  -30.7271   24.2263 H   0  0  0  0  0  0
  -17.5020  -31.6267   24.5194 H   0  0  0  0  0  0
  -15.5349  -30.2962   23.7715 H   0  0  0  0  0  0
  -15.8684  -28.0840   22.7047 H   0  0  0  0  0  0
  -24.5997  -30.7022   25.7779 H   0  0  0  0  0  0
  -24.8999  -32.2944   26.4720 H   0  0  0  0  0  0
  -25.8175  -30.9006   27.0215 H   0  0  0  0  0  0
  -26.2876  -29.6665   24.1246 H   0  0  0  0  0  0
  -27.4166  -29.7225   25.4568 H   0  0  0  0  0  0
  -27.8715  -30.4183   23.9217 H   0  0  0  0  0  0
  -27.2682  -33.3518   26.2057 H   0  0  0  0  0  0
  -28.3894  -32.6870   25.0244 H   0  0  0  0  0  0
  -28.0817  -31.8360   26.5292 H   0  0  0  0  0  0
  -28.2485  -38.0180   24.7645 H   0  0  0  0  0  0
  -28.1261  -36.2721   24.5958 H   0  0  0  0  0  0
  -27.2408  -37.1049   25.8832 H   0  0  0  0  0  0
  -20.9406  -29.8709   21.6849 H   0  0  0  0  0  0
  -26.0126  -38.2805   24.1548 H   0  0  0  0  0  0
  -30.7029  -20.6476   18.9265 H   0  0  0  0  0  0
  -31.1881  -18.7635   17.5167 H   0  0  0  0  0  0
  -29.4544  -17.9967   22.1035 H   0  0  0  0  0  0
  -29.4670  -20.8277   22.3150 H   0  0  0  0  0  0
  -28.9798  -21.6555   19.4087 H   0  0  0  0  0  0
  -30.8319  -16.6091   16.9010 H   0  0  0  0  0  0
  -29.8127  -15.5839   17.8820 H   0  0  0  0  0  0
  -31.5931  -15.5288   18.0373 H   0  0  0  0  0  0
  -29.3742  -23.7243   21.3824 H   0  0  0  0  0  0
  -27.7930  -23.0490   21.7034 H   0  0  0  0  0  0
  -26.8534  -24.2611   20.0569 H   0  0  0  0  0  0
  -27.8243  -23.4751   18.8810 H   0  0  0  0  0  0
  -28.2671  -25.6656   18.3475 H   0  0  0  0  0  0
  -29.6471  -25.2589   19.2917 H   0  0  0  0  0  0
  -29.0271  -15.4925   21.1896 H   0  0  0  0  0  0
  1 25  1  0  0  0
  1 30  2  0  0  0
  1 83  1  0  0  0
  2  3  1  0  0  0
  2 25  1  0  0  0
  2 84  1  0  0  0
  2 85  1  0  0  0
  3  4  1  0  0  0
  3 86  1  0  0  0
  3 87  1  0  0  0
  4  5  1  0  0  0
  4 88  1  0  0  0
  4 89  1  0  0  0
  5  6  1  0  0  0
  5 26  1  0  0  0
  5 90  1  0  0  0
  6 25  1  0  0  0
  6 91  1  0  0  0
  6 92  1  0  0  0
  7  8  2  0  0  0
  7 26  1  0  0  0
  7 29  1  0  0  0
  8  9  1  0  0  0
  8 22  1  0  0  0
  9 10  1  0  0  0
  9 27  2  0  0  0
 10 11  2  0  0  0
 10 15  1  0  0  0
 11 12  1  0  0  0
 11 93  1  0  0  0
 12 13  2  0  0  0
 12 94  1  0  0  0
 13 14  1  0  0  0
 13 31  1  0  0  0
 14 15  2  0  0  0
 14 95  1  0  0  0
 15 96  1  0  0  0
 16 17  2  0  0  0
 16 21  1  0  0  0
 16 31  1  0  0  0
 17 18  1  0  0  0
 17 97  1  0  0  0
 18 19  2  0  0  0
 18 98  1  0  0  0
 19 20  1  0  0  0
 19 24  1  0  0  0
 20 21  2  0  0  0
 20 99  1  0  0  0
 21 23  1  0  0  0
 22 28  1  0  0  0
 22 32  2  0  0  0
 26 27  1  0  0  0
 28100  1  0  0  0
 28101  1  0  0  0
 29102  1  0  0  0
 29103  1  0  0  0
 33 34  1  0  0  0
 33 66  1  0  0  0
 33 70  2  0  0  0
 34 36  1  0  0  0
 34 59  1  0  0  0
 34104  1  0  0  0
 35 44  2  0  0  0
 35 45  1  0  0  0
 35 68  1  0  0  0
 36 56  1  0  0  0
 36105  1  0  0  0
 37 39  1  0  0  0
 37 47  1  0  0  0
 37 66  1  0  0  0
 37106  1  0  0  0
 38 43  2  0  0  0
 38 46  1  0  0  0
 38 47  1  0  0  0
 39 64  1  0  0  0
 39 67  2  0  0  0
 40 52  1  0  0  0
 40 53  2  0  0  0
 40 58  1  0  0  0
 41107  1  0  0  0
 41108  1  0  0  0
 41109  1  0  0  0
 41 48  1  0  0  0
 42 43  1  0  0  0
 42 66  1  0  0  0
 42110  1  0  0  0
 42111  1  0  0  0
 43 44  1  0  0  0
 44112  1  0  0  0
 45 46  2  0  0  0
 45113  1  0  0  0
 46114  1  0  0  0
 47115  1  0  0  0
 47116  1  0  0  0
 48 56  1  0  0  0
 48 65  1  0  0  0
 48117  1  0  0  0
 49 50  1  0  0  0
 49 53  1  0  0  0
 49 64  1  0  0  0
 49118  1  0  0  0
 50 51  1  0  0  0
 50119  1  0  0  0
 50120  1  0  0  0
 51 52  1  0  0  0
 51121  1  0  0  0
 51122  1  0  0  0
 52123  1  0  0  0
 52124  1  0  0  0
 53 54  1  0  0  0
 54 55  2  0  0  0
 54125  1  0  0  0
 55 57  1  0  0  0
 55126  1  0  0  0
 56 69  2  0  0  0
 57 58  2  0  0  0
 57127  1  0  0  0
 58128  1  0  0  0
 59 60  1  0  0  0
 59 61  1  0  0  0
 59 62  1  0  0  0
 60129  1  0  0  0
 60130  1  0  0  0
 60131  1  0  0  0
 61132  1  0  0  0
 61133  1  0  0  0
 61134  1  0  0  0
 62135  1  0  0  0
 62136  1  0  0  0
 62137  1  0  0  0
 63 65  1  0  0  0
 63138  1  0  0  0
 63139  1  0  0  0
 63140  1  0  0  0
 64141  1  0  0  0
 65142  1  0  0  0
 68 82  1  0  0  0
 71 72  2  0  0  0
 71 74  1  0  0  0
 71143  1  0  0  0
 72 75  1  0  0  0
 72144  1  0  0  0
 73 74  2  0  0  0
 73 76  1  0  0  0
 73145  1  0  0  0
 74 77  1  0  0  0
 75 76  2  0  0  0
 75 79  1  0  0  0
 76 83  1  0  0  0
 77 78  2  0  0  0
 77146  1  0  0  0
 78 80  1  0  0  0
 78147  1  0  0  0
 79148  1  0  0  0
 79149  1  0  0  0
 79150  1  0  0  0
 80 81  1  0  0  0
 80151  1  0  0  0
 80152  1  0  0  0
 81 82  1  0  0  0
 81153  1  0  0  0
 81154  1  0  0  0
 82155  1  0  0  0
 82156  1  0  0  0
 83157  1  0  0  0
M  ISO  4   1 100  68 101  82 101  83 100
M  END
> <chiral flag>
0

> <version>
0

> <s_m_source_file>
/data/baiqing/PycharmProjects/Reinvent-master-3.2/result/LINK_invent/BTK/process_docking_weight1_custom_product_contain_oxygen_bond_distance_aromatic_linkinvent_7_9_3/rearranged_h_0126.sdf

> <i_m_source_file_index>
69

> <r_mmod_Potential_Energy-OPLS-2005>
76.4987487792969

> <r_mmod_Stretch_Energy-OPLS-2005>
56.9033203125

> <r_mmod_Bend_Energy-OPLS-2005>
128.943862915039

> <r_mmod_Torsional_Energy-OPLS-2005>
263.209381103516

> <r_mmod_Improper_Torsional_Energy-OPLS-2005>
5.98338317871094

> <r_mmod_Van_der_Waal_Energy-OPLS-2005>
162.838973999023

> <r_mmod_Electrostatic_Energy-OPLS-2005>
-369.270050048828

> <r_mmod_Solvation_Energy-OPLS-2005>
-204.405242919922

> <b_mmod_Minimization_Converged-OPLS-2005>
0

> <r_mmod_RMS_Derivative-OPLS-2005>
6.75812959671021

$$$$
69
                    3D
 Structure written by MMmdl.
161169  0  0  1  0            999 V2000
  -30.7107  -14.4626   20.5696 C   0  0  0  0  0  0
  -30.4176  -12.2947   19.4308 C   0  0  0  0  0  0
  -29.4992  -12.5107   18.2101 C   0  0  0  0  0  0
  -28.0165  -12.3736   18.6104 C   0  0  0  0  0  0
  -27.6587  -13.2062   19.8721 C   0  0  2  0  0  0
  -28.7001  -12.9775   20.9934 C   0  0  0  0  0  0
  -25.2553  -13.8149   20.5627 C   0  0  0  0  0  0
  -24.1821  -13.0453   20.9196 C   0  0  0  0  0  0
  -24.6379  -11.6912   20.8763 C   0  0  0  0  0  0
  -23.9044  -10.4302   21.0413 C   0  0  0  0  0  0
  -24.3604   -9.4214   21.9181 C   0  0  0  0  0  0
  -23.6273   -8.2258   22.0748 C   0  0  0  0  0  0
  -22.4251   -8.0294   21.3547 C   0  0  0  0  0  0
  -21.9904   -9.0275   20.4650 C   0  0  0  0  0  0
  -22.7230  -10.2148   20.3052 C   0  0  0  0  0  0
  -21.6852   -6.0735   22.5285 C   0  0  0  0  0  0
  -21.4003   -6.5633   23.8222 C   0  0  0  0  0  0
  -21.3655   -5.6785   24.9184 C   0  0  0  0  0  0
  -21.6041   -4.3047   24.7241 C   0  0  0  0  0  0
  -21.8817   -3.8138   23.4358 C   0  0  0  0  0  0
  -21.9182   -4.6959   22.3405 C   0  0  0  0  0  0
  -22.7825  -13.5249   21.1852 C   0  0  0  0  0  0
  -22.1649   -4.2128   21.0984 F   0  0  0  0  0  0
  -21.5634   -3.4537   25.7757 F   0  0  0  0  0  0
  -30.0326  -13.2866   20.4498 N   0  0  0  0  0  0
  -26.3000  -12.9337   20.3335 N   0  0  0  0  0  0
  -25.9298  -11.6506   20.5759 N   0  0  0  0  0  0
  -22.0462  -12.8247   22.0421 N   0  0  0  0  0  0
  -25.4258  -15.1868   20.3942 N   0  0  0  0  0  0
  -31.8629  -14.5837   20.1399 O   0  0  0  0  0  0
  -21.6632   -6.8870   21.4243 O   0  0  0  0  0  0
  -22.3497  -14.5579   20.6711 O   0  0  0  0  0  0
  -24.6141  -31.8668   23.2085 C   0  0  0  0  0  0
  -25.9038  -32.4818   23.8372 C   0  0  1  0  0  0
  -27.2420  -27.4325   20.0887 C   0  0  0  0  0  0
  -25.5932  -33.8622   24.2328 N   0  0  0  0  0  0
  -23.3997  -30.4882   21.5511 C   0  0  2  0  0  0
  -24.8454  -28.9516   20.1184 C   0  0  0  0  0  0
  -22.7389  -29.4624   22.4981 C   0  0  0  0  0  0
  -18.0270  -28.1382   22.8443 C   0  0  0  0  0  0
  -24.1517  -36.7295   23.2616 C   0  0  0  0  0  0
  -25.9299  -30.8284   21.3647 C   0  0  0  0  0  0
  -26.0058  -29.4653   20.7050 C   0  0  0  0  0  0
  -27.2029  -28.7148   20.6826 C   0  0  0  0  0  0
  -26.0531  -26.9216   19.5176 C   0  0  0  0  0  0
  -24.8642  -27.6772   19.5268 C   0  0  0  0  0  0
  -23.6081  -29.8213   20.1683 C   0  0  0  0  0  0
  -25.4143  -36.3106   24.0326 C   0  0  1  0  0  0
  -20.5848  -28.3659   23.1329 C   0  0  2  0  0  0
  -20.6758  -26.9369   22.5518 C   0  0  0  0  0  0
  -19.5841  -26.6398   21.5193 C   0  0  0  0  0  0
  -18.1951  -26.7960   22.1475 C   0  0  0  0  0  0
  -19.1501  -28.8844   23.2875 C   0  0  0  0  0  0
  -18.9427  -30.1440   23.8902 C   0  0  0  0  0  0
  -17.6427  -30.6561   24.0589 C   0  0  0  0  0  0
  -25.9071  -34.9470   23.5113 C   0  0  0  0  0  0
  -16.5331  -29.9049   23.6336 C   0  0  0  0  0  0
  -16.7246  -28.6471   23.0328 C   0  0  0  0  0  0
  -26.4484  -31.6576   25.0680 C   0  0  0  0  0  0
  -25.3756  -31.3671   26.1418 C   0  0  0  0  0  0
  -27.0316  -30.3022   24.6083 C   0  0  0  0  0  0
  -27.6086  -32.4287   25.7413 C   0  0  0  0  0  0
  -27.5597  -37.1811   24.8456 C   0  0  0  0  0  0
  -21.4122  -29.2994   22.3698 N   0  0  0  0  0  0
  -26.4327  -37.3798   23.9386 N   0  0  0  0  0  0
  -24.6653  -31.0739   22.1000 N   0  0  0  0  0  0
  -23.4161  -28.8166   23.3007 O   0  0  0  0  0  0
  -28.4598  -26.7775   20.0832 O   0  0  0  0  0  0
  -26.5625  -34.8905   22.4669 O   0  0  0  0  0  0
  -23.5346  -32.1425   23.7497 O   0  0  0  0  0  0
  -28.5172  -18.3480   21.1878 C   0  0  0  0  0  0
  -27.9627  -19.6423   21.3004 C   0  0  0  0  0  0
  -30.6797  -19.2274   21.8463 C   0  0  0  0  0  0
  -29.8933  -18.1331   21.4215 C   0  0  0  0  0  0
  -28.7637  -20.7485   21.6661 C   0  0  0  0  0  0
  -30.1337  -20.5290   21.9779 C   0  0  0  0  0  0
  -30.5422  -16.8238   21.1788 C   0  0  0  0  0  0
  -29.9359  -15.6259   21.0111 C   0  0  0  0  0  0
  -28.1209  -22.0754   21.7324 C   0  0  0  0  0  0
  -31.0332  -21.6463   22.4924 C   0  0  0  0  0  0
  -28.4199  -24.9438   18.3794 C   0  0  0  0  0  0
  -27.9352  -24.4617   20.8900 C   0  0  0  0  0  0
  -28.6303  -25.3681   19.8459 C   0  0  2  0  0  0
  -27.0856  -22.2437   22.5521 N   0  0  0  0  0  0
  -28.5380  -23.1081   20.9751 N   0  3  0  0  0  0
  -31.4647  -12.3733   19.1369 H   0  0  0  0  0  0
  -30.3023  -11.2828   19.8222 H   0  0  0  0  0  0
  -29.7437  -11.8040   17.4175 H   0  0  0  0  0  0
  -29.6730  -13.5043   17.7959 H   0  0  0  0  0  0
  -27.8136  -11.3167   18.7912 H   0  0  0  0  0  0
  -27.3775  -12.6588   17.7753 H   0  0  0  0  0  0
  -27.7057  -14.2541   19.5726 H   0  0  0  0  0  0
  -28.6743  -11.9386   21.3229 H   0  0  0  0  0  0
  -28.4657  -13.5569   21.8876 H   0  0  0  0  0  0
  -25.2765   -9.5683   22.4755 H   0  0  0  0  0  0
  -23.9985   -7.4640   22.7471 H   0  0  0  0  0  0
  -21.0836   -8.8801   19.8950 H   0  0  0  0  0  0
  -22.3712  -10.9683   19.6149 H   0  0  0  0  0  0
  -21.1996   -7.6146   23.9724 H   0  0  0  0  0  0
  -21.1468   -6.0513   25.9081 H   0  0  0  0  0  0
  -22.0594   -2.7601   23.2876 H   0  0  0  0  0  0
  -22.4047  -11.9910   22.4829 H   0  0  0  0  0  0
  -21.1073  -13.1241   22.2616 H   0  0  0  0  0  0
  -24.6537  -15.8372   20.4866 H   0  0  0  0  0  0
  -26.2595  -15.6158   20.0156 H   0  0  0  0  0  0
  -26.7074  -32.5513   23.1092 H   0  0  0  0  0  0
  -25.0166  -33.9809   25.0539 H   0  0  0  0  0  0
  -22.6885  -31.3053   21.4181 H   0  0  0  0  0  0
  -23.3804  -35.9610   23.3312 H   0  0  0  0  0  0
  -24.3603  -36.8883   22.2018 H   0  0  0  0  0  0
  -23.7252  -37.6499   23.6626 H   0  0  0  0  0  0
  -26.0535  -31.6013   20.6055 H   0  0  0  0  0  0
  -26.8120  -30.8687   21.9929 H   0  0  0  0  0  0
  -28.1047  -29.1222   21.1196 H   0  0  0  0  0  0
  -26.0134  -25.9508   19.0581 H   0  0  0  0  0  0
  -23.9682  -27.2706   19.0810 H   0  0  0  0  0  0
  -23.7127  -30.6026   19.4137 H   0  0  0  0  0  0
  -22.7317  -29.2440   19.8722 H   0  0  0  0  0  0
  -25.1319  -36.1984   25.0832 H   0  0  0  0  0  0
  -20.9911  -28.3312   24.1468 H   0  0  0  0  0  0
  -20.5503  -26.2307   23.3732 H   0  0  0  0  0  0
  -21.6681  -26.7343   22.1468 H   0  0  0  0  0  0
  -19.7077  -25.6330   21.1208 H   0  0  0  0  0  0
  -19.6952  -27.3236   20.6766 H   0  0  0  0  0  0
  -17.4331  -26.6813   21.3738 H   0  0  0  0  0  0
  -18.0241  -26.0018   22.8743 H   0  0  0  0  0  0
  -19.7895  -30.7264   24.2271 H   0  0  0  0  0  0
  -17.4973  -31.6237   24.5218 H   0  0  0  0  0  0
  -15.5327  -30.2925   23.7698 H   0  0  0  0  0  0
  -15.8642  -28.0793   22.7055 H   0  0  0  0  0  0
  -24.5942  -30.7018   25.7724 H   0  0  0  0  0  0
  -24.8911  -32.2820   26.4853 H   0  0  0  0  0  0
  -25.8068  -30.8830   27.0185 H   0  0  0  0  0  0
  -26.2868  -29.6760   24.1170 H   0  0  0  0  0  0
  -27.4116  -29.7265   25.4522 H   0  0  0  0  0  0
  -27.8685  -30.4318   23.9216 H   0  0  0  0  0  0
  -27.2760  -33.3595   26.2028 H   0  0  0  0  0  0
  -28.3854  -32.6854   25.0187 H   0  0  0  0  0  0
  -28.0828  -31.8384   26.5275 H   0  0  0  0  0  0
  -28.2612  -38.0117   24.7520 H   0  0  0  0  0  0
  -28.1110  -36.2641   24.6297 H   0  0  0  0  0  0
  -27.2297  -37.1446   25.8856 H   0  0  0  0  0  0
  -20.9309  -29.8646   21.6843 H   0  0  0  0  0  0
  -26.0236  -38.2897   24.1382 H   0  0  0  0  0  0
  -27.8850  -17.5347   20.8672 H   0  0  0  0  0  0
  -26.9137  -19.7884   21.0764 H   0  0  0  0  0  0
  -31.7283  -19.0659   22.0586 H   0  0  0  0  0  0
  -31.6191  -16.8730   21.0675 H   0  0  0  0  0  0
  -28.8701  -15.5565   21.1507 H   0  0  0  0  0  0
  -31.9380  -21.2506   22.9559 H   0  0  0  0  0  0
  -30.5316  -22.2425   23.2567 H   0  0  0  0  0  0
  -31.3375  -22.3134   21.6877 H   0  0  0  0  0  0
  -29.0037  -24.0524   18.1519 H   0  0  0  0  0  0
  -28.7394  -25.7224   17.6868 H   0  0  0  0  0  0
  -27.3892  -24.6876   18.1490 H   0  0  0  0  0  0
  -26.8741  -24.3765   20.6549 H   0  0  0  0  0  0
  -27.9994  -24.9343   21.8717 H   0  0  0  0  0  0
  -29.7022  -25.2544   20.0125 H   0  0  0  0  0  0
  -26.8438  -21.4856   23.1724 H   0  0  0  0  0  0
  -26.6388  -23.1341   22.6943 H   0  0  0  0  0  0
  -29.3384  -22.9307   20.3785 H   0  0  0  0  0  0
  1 25  1  0  0  0
  1 30  2  0  0  0
  1 78  1  0  0  0
  2  3  1  0  0  0
  2 25  1  0  0  0
  2 86  1  0  0  0
  2 87  1  0  0  0
  3  4  1  0  0  0
  3 88  1  0  0  0
  3 89  1  0  0  0
  4  5  1  0  0  0
  4 90  1  0  0  0
  4 91  1  0  0  0
  5  6  1  0  0  0
  5 26  1  0  0  0
  5 92  1  0  0  0
  6 25  1  0  0  0
  6 93  1  0  0  0
  6 94  1  0  0  0
  7  8  2  0  0  0
  7 26  1  0  0  0
  7 29  1  0  0  0
  8  9  1  0  0  0
  8 22  1  0  0  0
  9 10  1  0  0  0
  9 27  2  0  0  0
 10 11  2  0  0  0
 10 15  1  0  0  0
 11 12  1  0  0  0
 11 95  1  0  0  0
 12 13  2  0  0  0
 12 96  1  0  0  0
 13 14  1  0  0  0
 13 31  1  0  0  0
 14 15  2  0  0  0
 14 97  1  0  0  0
 15 98  1  0  0  0
 16 17  2  0  0  0
 16 21  1  0  0  0
 16 31  1  0  0  0
 17 18  1  0  0  0
 17 99  1  0  0  0
 18 19  2  0  0  0
 18100  1  0  0  0
 19 20  1  0  0  0
 19 24  1  0  0  0
 20 21  2  0  0  0
 20101  1  0  0  0
 21 23  1  0  0  0
 22 28  1  0  0  0
 22 32  2  0  0  0
 26 27  1  0  0  0
 28102  1  0  0  0
 28103  1  0  0  0
 29104  1  0  0  0
 29105  1  0  0  0
 33 34  1  0  0  0
 33 66  1  0  0  0
 33 70  2  0  0  0
 34 36  1  0  0  0
 34 59  1  0  0  0
 34106  1  0  0  0
 35 44  2  0  0  0
 35 45  1  0  0  0
 35 68  1  0  0  0
 36 56  1  0  0  0
 36107  1  0  0  0
 37 39  1  0  0  0
 37 47  1  0  0  0
 37 66  1  0  0  0
 37108  1  0  0  0
 38 43  2  0  0  0
 38 46  1  0  0  0
 38 47  1  0  0  0
 39 64  1  0  0  0
 39 67  2  0  0  0
 40 52  1  0  0  0
 40 53  2  0  0  0
 40 58  1  0  0  0
 41109  1  0  0  0
 41110  1  0  0  0
 41111  1  0  0  0
 41 48  1  0  0  0
 42 43  1  0  0  0
 42 66  1  0  0  0
 42112  1  0  0  0
 42113  1  0  0  0
 43 44  1  0  0  0
 44114  1  0  0  0
 45 46  2  0  0  0
 45115  1  0  0  0
 46116  1  0  0  0
 47117  1  0  0  0
 47118  1  0  0  0
 48 56  1  0  0  0
 48 65  1  0  0  0
 48119  1  0  0  0
 49 50  1  0  0  0
 49 53  1  0  0  0
 49 64  1  0  0  0
 49120  1  0  0  0
 50 51  1  0  0  0
 50121  1  0  0  0
 50122  1  0  0  0
 51 52  1  0  0  0
 51123  1  0  0  0
 51124  1  0  0  0
 52125  1  0  0  0
 52126  1  0  0  0
 53 54  1  0  0  0
 54 55  2  0  0  0
 54127  1  0  0  0
 55 57  1  0  0  0
 55128  1  0  0  0
 56 69  2  0  0  0
 57 58  2  0  0  0
 57129  1  0  0  0
 58130  1  0  0  0
 59 60  1  0  0  0
 59 61  1  0  0  0
 59 62  1  0  0  0
 60131  1  0  0  0
 60132  1  0  0  0
 60133  1  0  0  0
 61134  1  0  0  0
 61135  1  0  0  0
 61136  1  0  0  0
 62137  1  0  0  0
 62138  1  0  0  0
 62139  1  0  0  0
 63 65  1  0  0  0
 63140  1  0  0  0
 63141  1  0  0  0
 63142  1  0  0  0
 64143  1  0  0  0
 65144  1  0  0  0
 68 83  1  0  0  0
 71 72  2  0  0  0
 71 74  1  0  0  0
 71145  1  0  0  0
 72 75  1  0  0  0
 72146  1  0  0  0
 73 74  2  0  0  0
 73 76  1  0  0  0
 73147  1  0  0  0
 74 77  1  0  0  0
 75 76  2  0  0  0
 75 79  1  0  0  0
 76 80  1  0  0  0
 77 78  2  0  0  0
 77148  1  0  0  0
 78149  1  0  0  0
 79 84  1  0  0  0
 79 85  2  0  0  0
 80150  1  0  0  0
 80151  1  0  0  0
 80152  1  0  0  0
 81153  1  0  0  0
 81154  1  0  0  0
 81155  1  0  0  0
 81 83  1  0  0  0
 82 83  1  0  0  0
 82 85  1  0  0  0
 82156  1  0  0  0
 82157  1  0  0  0
 83158  1  0  0  0
 84159  1  0  0  0
 84160  1  0  0  0
 85161  1  0  0  0
M  CHG  1  85   1
M  ISO  4   1 100  68 101  78 100  83 101
M  END
> <chiral flag>
0

> <version>
0

> <s_m_source_file>
/data/baiqing/PycharmProjects/Reinvent-master-3.2/result/LINK_invent/BTK/process_docking_weight1_custom_product_contain_oxygen_bond_distance_aromatic_linkinvent_7_9_3/rearranged_h_0126.sdf

> <i_m_source_file_index>
70

> <r_mmod_Potential_Energy-OPLS-2005>
-220.976623535156

> <r_mmod_Stretch_Energy-OPLS-2005>
38.8138732910156

> <r_mmod_Bend_Energy-OPLS-2005>
121.137817382812

> <r_mmod_Torsional_Energy-OPLS-2005>
188.311965942383

> <r_mmod_Improper_Torsional_Energy-OPLS-2005>
6.6075553894043

> <r_mmod_Van_der_Waal_Energy-OPLS-2005>
158.482238769531

> <r_mmod_Electrostatic_Energy-OPLS-2005>
-362.096893310547

> <r_mmod_Solvation_Energy-OPLS-2005>
-386.560241699219

> <b_mmod_Minimization_Converged-OPLS-2005>
0

> <r_mmod_RMS_Derivative-OPLS-2005>
4.23968982696533

$$$$
70
                    3D
 Structure written by MMmdl.
153161  0  0  1  0            999 V2000
  -30.6143  -14.6569   20.4974 C   0  0  0  0  0  0
  -30.4400  -12.4015   19.4559 C   0  0  0  0  0  0
  -29.5091  -12.5082   18.2267 C   0  0  0  0  0  0
  -28.0324  -12.3429   18.6386 C   0  0  0  0  0  0
  -27.6530  -13.2167   19.8634 C   0  0  2  0  0  0
  -28.6976  -13.0766   20.9940 C   0  0  0  0  0  0
  -25.2544  -13.8145   20.5646 C   0  0  0  0  0  0
  -24.1826  -13.0421   20.9200 C   0  0  0  0  0  0
  -24.6400  -11.6896   20.8753 C   0  0  0  0  0  0
  -23.9067  -10.4285   21.0415 C   0  0  0  0  0  0
  -24.3617   -9.4200   21.9192 C   0  0  0  0  0  0
  -23.6293   -8.2236   22.0756 C   0  0  0  0  0  0
  -22.4276   -8.0277   21.3545 C   0  0  0  0  0  0
  -21.9911   -9.0252   20.4649 C   0  0  0  0  0  0
  -22.7239  -10.2131   20.3062 C   0  0  0  0  0  0
  -21.6851   -6.0736   22.5280 C   0  0  0  0  0  0
  -21.4012   -6.5640   23.8214 C   0  0  0  0  0  0
  -21.3658   -5.6793   24.9176 C   0  0  0  0  0  0
  -21.6045   -4.3056   24.7227 C   0  0  0  0  0  0
  -21.8819   -3.8147   23.4348 C   0  0  0  0  0  0
  -21.9193   -4.6964   22.3403 C   0  0  0  0  0  0
  -22.7850  -13.5222   21.1859 C   0  0  0  0  0  0
  -22.1661   -4.2150   21.0981 F   0  0  0  0  0  0
  -21.5630   -3.4538   25.7740 F   0  0  0  0  0  0
  -30.0126  -13.4250   20.4320 N   0  0  0  0  0  0
  -26.2988  -12.9340   20.3313 N   0  0  0  0  0  0
  -25.9332  -11.6497   20.5774 N   0  0  0  0  0  0
  -22.0490  -12.8220   22.0418 N   0  0  0  0  0  0
  -25.4208  -15.1845   20.3944 N   0  0  0  0  0  0
  -31.7749  -14.8180   20.1082 O   0  0  0  0  0  0
  -21.6637   -6.8876   21.4242 O   0  0  0  0  0  0
  -22.3538  -14.5529   20.6705 O   0  0  0  0  0  0
  -24.6270  -31.8594   23.2022 C   0  0  0  0  0  0
  -25.9114  -32.4778   23.8356 C   0  0  1  0  0  0
  -27.2255  -27.3149   20.1154 C   0  0  0  0  0  0
  -25.5928  -33.8579   24.2284 N   0  0  0  0  0  0
  -23.4209  -30.4836   21.5453 C   0  0  2  0  0  0
  -24.8670  -28.9387   20.1112 C   0  0  0  0  0  0
  -22.7480  -29.4624   22.4934 C   0  0  0  0  0  0
  -18.0288  -28.1383   22.8491 C   0  0  0  0  0  0
  -24.1488  -36.7290   23.2640 C   0  0  0  0  0  0
  -25.9627  -30.7899   21.3730 C   0  0  0  0  0  0
  -26.0371  -29.4171   20.7142 C   0  0  0  0  0  0
  -27.2197  -28.6181   20.7041 C   0  0  0  0  0  0
  -26.0290  -26.8905   19.4911 C   0  0  0  0  0  0
  -24.8651  -27.6810   19.4909 C   0  0  0  0  0  0
  -23.6355  -29.8193   20.1605 C   0  0  0  0  0  0
  -25.4114  -36.3082   24.0330 C   0  0  1  0  0  0
  -20.5891  -28.3683   23.1284 C   0  0  2  0  0  0
  -20.6779  -26.9407   22.5408 C   0  0  0  0  0  0
  -19.5753  -26.6384   21.5211 C   0  0  0  0  0  0
  -18.1932  -26.7929   22.1623 C   0  0  0  0  0  0
  -19.1542  -28.8851   23.2884 C   0  0  0  0  0  0
  -18.9464  -30.1454   23.8899 C   0  0  0  0  0  0
  -17.6464  -30.6588   24.0563 C   0  0  0  0  0  0
  -25.9051  -34.9451   23.5107 C   0  0  0  0  0  0
  -16.5354  -29.9086   23.6332 C   0  0  0  0  0  0
  -16.7275  -28.6502   23.0358 C   0  0  0  0  0  0
  -26.4499  -31.6588   25.0725 C   0  0  0  0  0  0
  -25.3734  -31.3728   26.1453 C   0  0  0  0  0  0
  -27.0344  -30.3016   24.6174 C   0  0  0  0  0  0
  -27.6059  -32.4321   25.7496 C   0  0  0  0  0  0
  -27.5578  -37.1803   24.8468 C   0  0  0  0  0  0
  -21.4192  -29.3042   22.3679 N   0  0  0  0  0  0
  -26.4292  -37.3776   23.9409 N   0  0  0  0  0  0
  -24.6892  -31.0609   22.0971 N   0  0  0  0  0  0
  -23.4202  -28.8162   23.3013 O   0  0  0  0  0  0
  -28.3450  -26.4652   20.1629 O   0  0  0  0  0  0
  -26.5613  -34.8918   22.4669 O   0  0  0  0  0  0
  -23.5434  -32.1387   23.7354 O   0  0  0  0  0  0
  -30.9021  -19.2833   19.9368 C   0  0  0  0  0  0
  -30.9119  -17.8621   20.0712 C   0  0  0  0  0  0
  -28.8026  -19.4074   21.0777 C   0  0  0  0  0  0
  -28.8056  -17.9832   21.2306 C   0  0  0  0  0  0
  -29.8532  -20.1077   20.4287 C   0  0  0  0  0  0
  -29.8641  -17.1606   20.7246 C   0  0  0  0  0  0
  -29.0479  -22.4470   20.4355 C   0  0  0  0  0  0
  -27.6223  -17.3770   21.9697 C   0  0  0  0  0  0
  -29.3190  -24.0068   20.3993 C   0  0  0  0  0  0
  -28.1232  -24.9990   20.0570 C   0  0  0  0  0  0
  -29.9732  -21.5393   20.3009 N   0  0  0  0  0  0
  -29.8016  -15.6983   20.8750 N   0  0  0  0  0  0
  -31.4808  -12.5291   19.1534 H   0  0  0  0  0  0
  -30.3789  -11.4068   19.9002 H   0  0  0  0  0  0
  -29.7757  -11.7537   17.4852 H   0  0  0  0  0  0
  -29.6483  -13.4757   17.7419 H   0  0  0  0  0  0
  -27.8733  -11.2900   18.8745 H   0  0  0  0  0  0
  -27.3767  -12.5664   17.7962 H   0  0  0  0  0  0
  -27.6693  -14.2512   19.5198 H   0  0  0  0  0  0
  -28.7127  -12.0553   21.3771 H   0  0  0  0  0  0
  -28.4389  -13.7073   21.8458 H   0  0  0  0  0  0
  -25.2762   -9.5675   22.4768 H   0  0  0  0  0  0
  -24.0002   -7.4625   22.7471 H   0  0  0  0  0  0
  -21.0844   -8.8773   19.8951 H   0  0  0  0  0  0
  -22.3702  -10.9674   19.6173 H   0  0  0  0  0  0
  -21.2001   -7.6149   23.9718 H   0  0  0  0  0  0
  -21.1480   -6.0523   25.9079 H   0  0  0  0  0  0
  -22.0598   -2.7610   23.2847 H   0  0  0  0  0  0
  -22.4103  -11.9880   22.4807 H   0  0  0  0  0  0
  -21.1110  -13.1250   22.2624 H   0  0  0  0  0  0
  -24.6400  -15.8270   20.4712 H   0  0  0  0  0  0
  -26.2494  -15.6127   20.0028 H   0  0  0  0  0  0
  -26.7179  -32.5448   23.1104 H   0  0  0  0  0  0
  -25.0094  -33.9725   25.0441 H   0  0  0  0  0  0
  -22.7152  -31.3047   21.4029 H   0  0  0  0  0  0
  -23.3751  -35.9622   23.3306 H   0  0  0  0  0  0
  -24.3582  -36.8905   22.2054 H   0  0  0  0  0  0
  -23.7240  -37.6494   23.6656 H   0  0  0  0  0  0
  -26.0955  -31.5542   20.6059 H   0  0  0  0  0  0
  -26.8428  -30.8377   22.0027 H   0  0  0  0  0  0
  -28.1180  -28.9829   21.1826 H   0  0  0  0  0  0
  -25.9617  -25.9307   19.0023 H   0  0  0  0  0  0
  -23.9680  -27.3090   19.0150 H   0  0  0  0  0  0
  -23.7544  -30.5960   19.4040 H   0  0  0  0  0  0
  -22.7554  -29.2485   19.8588 H   0  0  0  0  0  0
  -25.1296  -36.1935   25.0823 H   0  0  0  0  0  0
  -20.9986  -28.3253   24.1403 H   0  0  0  0  0  0
  -20.5681  -26.2291   23.3608 H   0  0  0  0  0  0
  -21.6647  -26.7440   22.1198 H   0  0  0  0  0  0
  -19.6913  -25.6294   21.1241 H   0  0  0  0  0  0
  -19.6691  -27.3197   20.6743 H   0  0  0  0  0  0
  -17.4203  -26.6680   21.4023 H   0  0  0  0  0  0
  -18.0330  -26.0072   22.9021 H   0  0  0  0  0  0
  -19.7939  -30.7273   24.2266 H   0  0  0  0  0  0
  -17.5018  -31.6271   24.5161 H   0  0  0  0  0  0
  -15.5354  -30.2990   23.7657 H   0  0  0  0  0  0
  -15.8676  -28.0822   22.7072 H   0  0  0  0  0  0
  -24.5911  -30.7072   25.7786 H   0  0  0  0  0  0
  -24.8922  -32.2895   26.4873 H   0  0  0  0  0  0
  -25.8062  -30.8914   27.0231 H   0  0  0  0  0  0
  -26.2917  -29.6766   24.1202 H   0  0  0  0  0  0
  -27.4058  -29.7273   25.4672 H   0  0  0  0  0  0
  -27.8779  -30.4317   23.9389 H   0  0  0  0  0  0
  -27.2674  -33.3626   26.2070 H   0  0  0  0  0  0
  -28.3873  -32.6873   25.0324 H   0  0  0  0  0  0
  -28.0721  -31.8445   26.5417 H   0  0  0  0  0  0
  -28.2601  -38.0095   24.7509 H   0  0  0  0  0  0
  -28.1068  -36.2626   24.6301 H   0  0  0  0  0  0
  -27.2297  -37.1461   25.8871 H   0  0  0  0  0  0
  -20.9367  -29.8768   21.6896 H   0  0  0  0  0  0
  -26.0174  -38.2851   24.1407 H   0  0  0  0  0  0
  -31.7412  -19.7508   19.4407 H   0  0  0  0  0  0
  -31.7506  -17.3201   19.6592 H   0  0  0  0  0  0
  -27.9761  -19.9650   21.4954 H   0  0  0  0  0  0
  -28.0025  -22.1807   20.6119 H   0  0  0  0  0  0
  -27.4441  -17.9190   22.8989 H   0  0  0  0  0  0
  -27.7546  -16.3289   22.2330 H   0  0  0  0  0  0
  -26.7228  -17.4636   21.3611 H   0  0  0  0  0  0
  -30.1301  -24.1914   19.6953 H   0  0  0  0  0  0
  -29.7125  -24.2816   21.3774 H   0  0  0  0  0  0
  -27.2840  -24.7390   20.7045 H   0  0  0  0  0  0
  -27.8096  -24.7752   19.0369 H   0  0  0  0  0  0
  -28.9210  -15.3669   21.2356 H   0  0  0  0  0  0
  1 25  1  0  0  0
  1 30  2  0  0  0
  1 82  1  0  0  0
  2  3  1  0  0  0
  2 25  1  0  0  0
  2 83  1  0  0  0
  2 84  1  0  0  0
  3  4  1  0  0  0
  3 85  1  0  0  0
  3 86  1  0  0  0
  4  5  1  0  0  0
  4 87  1  0  0  0
  4 88  1  0  0  0
  5  6  1  0  0  0
  5 26  1  0  0  0
  5 89  1  0  0  0
  6 25  1  0  0  0
  6 90  1  0  0  0
  6 91  1  0  0  0
  7  8  2  0  0  0
  7 26  1  0  0  0
  7 29  1  0  0  0
  8  9  1  0  0  0
  8 22  1  0  0  0
  9 10  1  0  0  0
  9 27  2  0  0  0
 10 11  2  0  0  0
 10 15  1  0  0  0
 11 12  1  0  0  0
 11 92  1  0  0  0
 12 13  2  0  0  0
 12 93  1  0  0  0
 13 14  1  0  0  0
 13 31  1  0  0  0
 14 15  2  0  0  0
 14 94  1  0  0  0
 15 95  1  0  0  0
 16 17  2  0  0  0
 16 21  1  0  0  0
 16 31  1  0  0  0
 17 18  1  0  0  0
 17 96  1  0  0  0
 18 19  2  0  0  0
 18 97  1  0  0  0
 19 20  1  0  0  0
 19 24  1  0  0  0
 20 21  2  0  0  0
 20 98  1  0  0  0
 21 23  1  0  0  0
 22 28  1  0  0  0
 22 32  2  0  0  0
 26 27  1  0  0  0
 28 99  1  0  0  0
 28100  1  0  0  0
 29101  1  0  0  0
 29102  1  0  0  0
 33 34  1  0  0  0
 33 66  1  0  0  0
 33 70  2  0  0  0
 34 36  1  0  0  0
 34 59  1  0  0  0
 34103  1  0  0  0
 35 44  2  0  0  0
 35 45  1  0  0  0
 35 68  1  0  0  0
 36 56  1  0  0  0
 36104  1  0  0  0
 37 39  1  0  0  0
 37 47  1  0  0  0
 37 66  1  0  0  0
 37105  1  0  0  0
 38 43  2  0  0  0
 38 46  1  0  0  0
 38 47  1  0  0  0
 39 64  1  0  0  0
 39 67  2  0  0  0
 40 52  1  0  0  0
 40 53  2  0  0  0
 40 58  1  0  0  0
 41106  1  0  0  0
 41107  1  0  0  0
 41108  1  0  0  0
 41 48  1  0  0  0
 42 43  1  0  0  0
 42 66  1  0  0  0
 42109  1  0  0  0
 42110  1  0  0  0
 43 44  1  0  0  0
 44111  1  0  0  0
 45 46  2  0  0  0
 45112  1  0  0  0
 46113  1  0  0  0
 47114  1  0  0  0
 47115  1  0  0  0
 48 56  1  0  0  0
 48 65  1  0  0  0
 48116  1  0  0  0
 49 50  1  0  0  0
 49 53  1  0  0  0
 49 64  1  0  0  0
 49117  1  0  0  0
 50 51  1  0  0  0
 50118  1  0  0  0
 50119  1  0  0  0
 51 52  1  0  0  0
 51120  1  0  0  0
 51121  1  0  0  0
 52122  1  0  0  0
 52123  1  0  0  0
 53 54  1  0  0  0
 54 55  2  0  0  0
 54124  1  0  0  0
 55 57  1  0  0  0
 55125  1  0  0  0
 56 69  2  0  0  0
 57 58  2  0  0  0
 57126  1  0  0  0
 58127  1  0  0  0
 59 60  1  0  0  0
 59 61  1  0  0  0
 59 62  1  0  0  0
 60128  1  0  0  0
 60129  1  0  0  0
 60130  1  0  0  0
 61131  1  0  0  0
 61132  1  0  0  0
 61133  1  0  0  0
 62134  1  0  0  0
 62135  1  0  0  0
 62136  1  0  0  0
 63 65  1  0  0  0
 63137  1  0  0  0
 63138  1  0  0  0
 63139  1  0  0  0
 64140  1  0  0  0
 65141  1  0  0  0
 68 80  1  0  0  0
 71 72  2  0  0  0
 71 75  1  0  0  0
 71142  1  0  0  0
 72 76  1  0  0  0
 72143  1  0  0  0
 73 74  1  0  0  0
 73 75  2  0  0  0
 73144  1  0  0  0
 74 76  2  0  0  0
 74 78  1  0  0  0
 75 81  1  0  0  0
 76 82  1  0  0  0
 77 79  1  0  0  0
 77 81  2  0  0  0
 77145  1  0  0  0
 78146  1  0  0  0
 78147  1  0  0  0
 78148  1  0  0  0
 79 80  1  0  0  0
 79149  1  0  0  0
 79150  1  0  0  0
 80151  1  0  0  0
 80152  1  0  0  0
 82153  1  0  0  0
M  ISO  4   1 100  68 101  80 101  82 100
M  END
> <chiral flag>
0

> <version>
0

> <s_m_source_file>
/data/baiqing/PycharmProjects/Reinvent-master-3.2/result/LINK_invent/BTK/process_docking_weight1_custom_product_contain_oxygen_bond_distance_aromatic_linkinvent_7_9_3/rearranged_h_0126.sdf

> <i_m_source_file_index>
71

> <r_mmod_Potential_Energy-OPLS-2005>
15.7927408218384

> <r_mmod_Stretch_Energy-OPLS-2005>
84.4126586914062

> <r_mmod_Bend_Energy-OPLS-2005>
150.109741210938

> <r_mmod_Torsional_Energy-OPLS-2005>
209.56037902832

> <r_mmod_Improper_Torsional_Energy-OPLS-2005>
4.14524221420288

> <r_mmod_Van_der_Waal_Energy-OPLS-2005>
145.722717285156

> <r_mmod_Electrostatic_Energy-OPLS-2005>
-414.987640380859

> <r_mmod_Solvation_Energy-OPLS-2005>
-215.020568847656

> <b_mmod_Minimization_Converged-OPLS-2005>
0

> <r_mmod_RMS_Derivative-OPLS-2005>
0.491229653358459

$$$$
71
                    3D
 Structure written by MMmdl.
160168  0  0  1  0            999 V2000
  -30.7132  -14.5195   20.5521 C   0  0  0  0  0  0
  -30.4260  -12.3332   19.4378 C   0  0  0  0  0  0
  -29.4935  -12.4938   18.2185 C   0  0  0  0  0  0
  -28.0203  -12.3413   18.6392 C   0  0  0  0  0  0
  -27.6557  -13.2105   19.8714 C   0  0  2  0  0  0
  -28.7029  -13.0428   20.9993 C   0  0  0  0  0  0
  -25.2457  -13.8035   20.5678 C   0  0  0  0  0  0
  -24.1774  -13.0316   20.9245 C   0  0  0  0  0  0
  -24.6394  -11.6823   20.8805 C   0  0  0  0  0  0
  -23.9072  -10.4216   21.0445 C   0  0  0  0  0  0
  -24.3621   -9.4136   21.9224 C   0  0  0  0  0  0
  -23.6283   -8.2185   22.0775 C   0  0  0  0  0  0
  -22.4267   -8.0236   21.3555 C   0  0  0  0  0  0
  -21.9912   -9.0223   20.4661 C   0  0  0  0  0  0
  -22.7255  -10.2092   20.3081 C   0  0  0  0  0  0
  -21.6831   -6.0714   22.5283 C   0  0  0  0  0  0
  -21.3991   -6.5626   23.8211 C   0  0  0  0  0  0
  -21.3668   -5.6793   24.9189 C   0  0  0  0  0  0
  -21.6055   -4.3053   24.7246 C   0  0  0  0  0  0
  -21.8813   -3.8126   23.4364 C   0  0  0  0  0  0
  -21.9182   -4.6937   22.3418 C   0  0  0  0  0  0
  -22.7797  -13.5129   21.1886 C   0  0  0  0  0  0
  -22.1645   -4.2117   21.0984 F   0  0  0  0  0  0
  -21.5659   -3.4544   25.7767 F   0  0  0  0  0  0
  -30.0346  -13.3396   20.4403 N   0  0  0  0  0  0
  -26.2980  -12.9301   20.3387 N   0  0  0  0  0  0
  -25.9333  -11.6461   20.5851 N   0  0  0  0  0  0
  -22.0443  -12.8145   22.0465 N   0  0  0  0  0  0
  -25.3893  -15.1698   20.3940 N   0  0  0  0  0  0
  -31.8507  -14.6683   20.0992 O   0  0  0  0  0  0
  -21.6616   -6.8849   21.4242 O   0  0  0  0  0  0
  -22.3506  -14.5465   20.6765 O   0  0  0  0  0  0
  -24.6129  -31.8669   23.2091 C   0  0  0  0  0  0
  -25.9016  -32.4819   23.8395 C   0  0  1  0  0  0
  -27.2479  -27.4393   20.1019 C   0  0  0  0  0  0
  -25.5875  -33.8627   24.2342 N   0  0  0  0  0  0
  -23.4022  -30.4886   21.5477 C   0  0  2  0  0  0
  -24.8497  -28.9557   20.1111 C   0  0  0  0  0  0
  -22.7420  -29.4642   22.4967 C   0  0  0  0  0  0
  -18.0258  -28.1380   22.8504 C   0  0  0  0  0  0
  -24.1482  -36.7316   23.2652 C   0  0  0  0  0  0
  -25.9297  -30.8362   21.3597 C   0  0  0  0  0  0
  -26.0078  -29.4707   20.7079 C   0  0  0  0  0  0
  -27.2026  -28.7206   20.6962 C   0  0  0  0  0  0
  -26.0709  -26.9343   19.5008 C   0  0  0  0  0  0
  -24.8784  -27.6871   19.5040 C   0  0  0  0  0  0
  -23.6100  -29.8204   20.1609 C   0  0  0  0  0  0
  -25.4095  -36.3126   24.0361 C   0  0  1  0  0  0
  -20.5856  -28.3656   23.1321 C   0  0  2  0  0  0
  -20.6751  -26.9390   22.5412 C   0  0  0  0  0  0
  -19.5731  -26.6379   21.5233 C   0  0  0  0  0  0
  -18.1909  -26.7931   22.1633 C   0  0  0  0  0  0
  -19.1512  -28.8835   23.2917 C   0  0  0  0  0  0
  -18.9456  -30.1447   23.8916 C   0  0  0  0  0  0
  -17.6458  -30.6586   24.0582 C   0  0  0  0  0  0
  -25.9016  -34.9488   23.5160 C   0  0  0  0  0  0
  -16.5344  -29.9097   23.6333 C   0  0  0  0  0  0
  -16.7253  -28.6523   23.0342 C   0  0  0  0  0  0
  -26.4431  -31.6601   25.0735 C   0  0  0  0  0  0
  -25.3696  -31.3713   26.1501 C   0  0  0  0  0  0
  -27.0256  -30.3059   24.6061 C   0  0  0  0  0  0
  -27.6020  -32.4323   25.7476 C   0  0  0  0  0  0
  -27.5581  -37.1810   24.8469 C   0  0  0  0  0  0
  -21.4139  -29.3037   22.3761 N   0  0  0  0  0  0
  -26.4291  -37.3802   23.9418 N   0  0  0  0  0  0
  -24.6665  -31.0793   22.0970 N   0  0  0  0  0  0
  -23.4196  -28.8165   23.2984 O   0  0  0  0  0  0
  -28.4444  -26.7491   20.1372 O   0  0  0  0  0  0
  -26.5604  -34.8953   22.4745 O   0  0  0  0  0  0
  -23.5330  -32.1390   23.7502 O   0  0  0  0  0  0
  -29.3924  -19.2272   20.3776 C   0  0  0  0  0  0
  -31.5395  -17.5490   21.0190 C   0  0  0  0  0  0
  -30.6837  -19.7854   20.4336 C   0  0  0  0  0  0
  -29.1730  -17.8459   20.5791 C   0  0  0  0  0  0
  -30.2524  -16.9692   20.8802 C   0  0  0  0  0  0
  -31.7541  -18.9308   20.7919 C   0  0  0  0  0  0
  -30.9264  -21.2054   20.0642 C   0  0  0  0  0  0
  -30.0103  -22.1823   19.8561 C   0  0  0  0  0  0
  -27.3614  -17.3256   18.9055 C   0  0  0  0  0  0
  -27.7505  -17.3583   20.3919 C   0  0  0  0  0  0
  -30.3547  -23.5630   19.2993 C   0  0  0  0  0  0
  -29.8935  -24.8064   20.1040 C   0  0  0  0  0  0
  -28.4909  -25.3674   19.7591 C   0  0  0  0  0  0
  -30.0115  -15.5582   21.0611 N   0  0  0  0  0  0
  -33.0106  -19.4313   20.9019 F   0  0  0  0  0  0
  -31.4680  -12.4320   19.1285 H   0  0  0  0  0  0
  -30.3396  -11.3312   19.8624 H   0  0  0  0  0  0
  -29.7415  -11.7532   17.4577 H   0  0  0  0  0  0
  -29.6451  -13.4701   17.7577 H   0  0  0  0  0  0
  -27.8548  -11.2876   18.8728 H   0  0  0  0  0  0
  -27.3590  -12.5712   17.8025 H   0  0  0  0  0  0
  -27.6812  -14.2494   19.5418 H   0  0  0  0  0  0
  -28.6840  -12.0235   21.3873 H   0  0  0  0  0  0
  -28.4588  -13.6823   21.8485 H   0  0  0  0  0  0
  -25.2765   -9.5606   22.4817 H   0  0  0  0  0  0
  -23.9985   -7.4553   22.7486 H   0  0  0  0  0  0
  -21.0855   -8.8746   19.8956 H   0  0  0  0  0  0
  -22.3731  -10.9646   19.6195 H   0  0  0  0  0  0
  -21.1952   -7.6137   23.9709 H   0  0  0  0  0  0
  -21.1518   -6.0532   25.9095 H   0  0  0  0  0  0
  -22.0587   -2.7594   23.2884 H   0  0  0  0  0  0
  -22.4038  -11.9784   22.4821 H   0  0  0  0  0  0
  -21.1076  -13.1199   22.2696 H   0  0  0  0  0  0
  -24.5900  -15.7912   20.4492 H   0  0  0  0  0  0
  -26.1958  -15.5992   19.9617 H   0  0  0  0  0  0
  -26.7101  -32.5498   23.1170 H   0  0  0  0  0  0
  -25.0000  -33.9798   25.0472 H   0  0  0  0  0  0
  -22.6917  -31.3041   21.4078 H   0  0  0  0  0  0
  -23.3762  -35.9630   23.3296 H   0  0  0  0  0  0
  -24.3571  -36.8939   22.2066 H   0  0  0  0  0  0
  -23.7214  -37.6521   23.6649 H   0  0  0  0  0  0
  -26.0400  -31.6034   20.5912 H   0  0  0  0  0  0
  -26.8197  -30.8879   21.9755 H   0  0  0  0  0  0
  -28.0981  -29.1221   21.1510 H   0  0  0  0  0  0
  -26.0588  -25.9644   19.0255 H   0  0  0  0  0  0
  -23.9912  -27.2811   19.0397 H   0  0  0  0  0  0
  -23.7121  -30.5975   19.4022 H   0  0  0  0  0  0
  -22.7351  -29.2373   19.8667 H   0  0  0  0  0  0
  -25.1258  -36.2002   25.0849 H   0  0  0  0  0  0
  -20.9941  -28.3204   24.1449 H   0  0  0  0  0  0
  -20.5675  -26.2261   23.3593 H   0  0  0  0  0  0
  -21.6614  -26.7424   22.1177 H   0  0  0  0  0  0
  -19.6890  -25.6296   21.1239 H   0  0  0  0  0  0
  -19.6681  -27.3229   20.6805 H   0  0  0  0  0  0
  -17.4173  -26.6717   21.4022 H   0  0  0  0  0  0
  -18.0254  -26.0049   22.9001 H   0  0  0  0  0  0
  -19.7938  -30.7265   24.2264 H   0  0  0  0  0  0
  -17.5023  -31.6269   24.5178 H   0  0  0  0  0  0
  -15.5352  -30.3029   23.7648 H   0  0  0  0  0  0
  -15.8642  -28.0882   22.7014 H   0  0  0  0  0  0
  -24.5846  -30.7083   25.7850 H   0  0  0  0  0  0
  -24.8923  -32.2889   26.4968 H   0  0  0  0  0  0
  -25.8053  -30.8863   27.0261 H   0  0  0  0  0  0
  -26.2798  -29.6843   24.1103 H   0  0  0  0  0  0
  -27.4074  -29.7237   25.4470 H   0  0  0  0  0  0
  -27.8600  -30.4420   23.9173 H   0  0  0  0  0  0
  -27.2636  -33.3634   26.2030 H   0  0  0  0  0  0
  -28.3808  -32.6861   25.0274 H   0  0  0  0  0  0
  -28.0693  -31.8461   26.5399 H   0  0  0  0  0  0
  -28.2586  -38.0121   24.7519 H   0  0  0  0  0  0
  -28.1091  -36.2651   24.6264 H   0  0  0  0  0  0
  -27.2313  -37.1424   25.8882 H   0  0  0  0  0  0
  -20.9283  -29.8825   21.7056 H   0  0  0  0  0  0
  -26.0194  -38.2890   24.1425 H   0  0  0  0  0  0
  -28.5508  -19.8514   20.1138 H   0  0  0  0  0  0
  -32.3909  -16.9380   21.2832 H   0  0  0  0  0  0
  -31.9659  -21.4498   19.8925 H   0  0  0  0  0  0
  -28.9601  -22.0006   20.0358 H   0  0  0  0  0  0
  -26.3082  -17.0824   18.7686 H   0  0  0  0  0  0
  -27.9498  -16.5912   18.3571 H   0  0  0  0  0  0
  -27.5179  -18.2941   18.4322 H   0  0  0  0  0  0
  -27.0812  -18.0291   20.9312 H   0  0  0  0  0  0
  -27.6223  -16.3834   20.8536 H   0  0  0  0  0  0
  -29.9564  -23.6229   18.2862 H   0  0  0  0  0  0
  -31.4391  -23.6136   19.1837 H   0  0  0  0  0  0
  -30.6061  -25.5948   19.8627 H   0  0  0  0  0  0
  -29.9955  -24.6485   21.1780 H   0  0  0  0  0  0
  -27.7244  -24.7866   20.2753 H   0  0  0  0  0  0
  -28.3067  -25.2962   18.6871 H   0  0  0  0  0  0
  -29.0820  -15.3073   21.3591 H   0  0  0  0  0  0
  1 25  1  0  0  0
  1 30  2  0  0  0
  1 84  1  0  0  0
  2  3  1  0  0  0
  2 25  1  0  0  0
  2 86  1  0  0  0
  2 87  1  0  0  0
  3  4  1  0  0  0
  3 88  1  0  0  0
  3 89  1  0  0  0
  4  5  1  0  0  0
  4 90  1  0  0  0
  4 91  1  0  0  0
  5  6  1  0  0  0
  5 26  1  0  0  0
  5 92  1  0  0  0
  6 25  1  0  0  0
  6 93  1  0  0  0
  6 94  1  0  0  0
  7  8  2  0  0  0
  7 26  1  0  0  0
  7 29  1  0  0  0
  8  9  1  0  0  0
  8 22  1  0  0  0
  9 10  1  0  0  0
  9 27  2  0  0  0
 10 11  2  0  0  0
 10 15  1  0  0  0
 11 12  1  0  0  0
 11 95  1  0  0  0
 12 13  2  0  0  0
 12 96  1  0  0  0
 13 14  1  0  0  0
 13 31  1  0  0  0
 14 15  2  0  0  0
 14 97  1  0  0  0
 15 98  1  0  0  0
 16 17  2  0  0  0
 16 21  1  0  0  0
 16 31  1  0  0  0
 17 18  1  0  0  0
 17 99  1  0  0  0
 18 19  2  0  0  0
 18100  1  0  0  0
 19 20  1  0  0  0
 19 24  1  0  0  0
 20 21  2  0  0  0
 20101  1  0  0  0
 21 23  1  0  0  0
 22 28  1  0  0  0
 22 32  2  0  0  0
 26 27  1  0  0  0
 28102  1  0  0  0
 28103  1  0  0  0
 29104  1  0  0  0
 29105  1  0  0  0
 33 34  1  0  0  0
 33 66  1  0  0  0
 33 70  2  0  0  0
 34 36  1  0  0  0
 34 59  1  0  0  0
 34106  1  0  0  0
 35 44  2  0  0  0
 35 45  1  0  0  0
 35 68  1  0  0  0
 36 56  1  0  0  0
 36107  1  0  0  0
 37 39  1  0  0  0
 37 47  1  0  0  0
 37 66  1  0  0  0
 37108  1  0  0  0
 38 43  2  0  0  0
 38 46  1  0  0  0
 38 47  1  0  0  0
 39 64  1  0  0  0
 39 67  2  0  0  0
 40 52  1  0  0  0
 40 53  2  0  0  0
 40 58  1  0  0  0
 41109  1  0  0  0
 41110  1  0  0  0
 41111  1  0  0  0
 41 48  1  0  0  0
 42 43  1  0  0  0
 42 66  1  0  0  0
 42112  1  0  0  0
 42113  1  0  0  0
 43 44  1  0  0  0
 44114  1  0  0  0
 45 46  2  0  0  0
 45115  1  0  0  0
 46116  1  0  0  0
 47117  1  0  0  0
 47118  1  0  0  0
 48 56  1  0  0  0
 48 65  1  0  0  0
 48119  1  0  0  0
 49 50  1  0  0  0
 49 53  1  0  0  0
 49 64  1  0  0  0
 49120  1  0  0  0
 50 51  1  0  0  0
 50121  1  0  0  0
 50122  1  0  0  0
 51 52  1  0  0  0
 51123  1  0  0  0
 51124  1  0  0  0
 52125  1  0  0  0
 52126  1  0  0  0
 53 54  1  0  0  0
 54 55  2  0  0  0
 54127  1  0  0  0
 55 57  1  0  0  0
 55128  1  0  0  0
 56 69  2  0  0  0
 57 58  2  0  0  0
 57129  1  0  0  0
 58130  1  0  0  0
 59 60  1  0  0  0
 59 61  1  0  0  0
 59 62  1  0  0  0
 60131  1  0  0  0
 60132  1  0  0  0
 60133  1  0  0  0
 61134  1  0  0  0
 61135  1  0  0  0
 61136  1  0  0  0
 62137  1  0  0  0
 62138  1  0  0  0
 62139  1  0  0  0
 63 65  1  0  0  0
 63140  1  0  0  0
 63141  1  0  0  0
 63142  1  0  0  0
 64143  1  0  0  0
 65144  1  0  0  0
 68 83  1  0  0  0
 71 73  2  0  0  0
 71 74  1  0  0  0
 71145  1  0  0  0
 72 75  1  0  0  0
 72 76  2  0  0  0
 72146  1  0  0  0
 73 76  1  0  0  0
 73 77  1  0  0  0
 74 75  2  0  0  0
 74 80  1  0  0  0
 75 84  1  0  0  0
 76 85  1  0  0  0
 77 78  2  0  0  0
 77147  1  0  0  0
 78 81  1  0  0  0
 78148  1  0  0  0
 79 80  1  0  0  0
 79149  1  0  0  0
 79150  1  0  0  0
 79151  1  0  0  0
 80152  1  0  0  0
 80153  1  0  0  0
 81 82  1  0  0  0
 81154  1  0  0  0
 81155  1  0  0  0
 82 83  1  0  0  0
 82156  1  0  0  0
 82157  1  0  0  0
 83158  1  0  0  0
 83159  1  0  0  0
 84160  1  0  0  0
M  ISO  4   1 100  68 101  83 101  84 100
M  END
> <chiral flag>
0

> <version>
0

> <s_m_source_file>
/data/baiqing/PycharmProjects/Reinvent-master-3.2/result/LINK_invent/BTK/process_docking_weight1_custom_product_contain_oxygen_bond_distance_aromatic_linkinvent_7_9_3/rearranged_h_0126.sdf

> <i_m_source_file_index>
72

> <r_mmod_Potential_Energy-OPLS-2005>
-2.12851119041443

> <r_mmod_Stretch_Energy-OPLS-2005>
40.7741966247559

> <r_mmod_Bend_Energy-OPLS-2005>
106.785423278809

> <r_mmod_Torsional_Energy-OPLS-2005>
224.100875854492

> <r_mmod_Improper_Torsional_Energy-OPLS-2005>
5.77058839797974

> <r_mmod_Van_der_Waal_Energy-OPLS-2005>
152.032989501953

> <r_mmod_Electrostatic_Energy-OPLS-2005>
-353.994049072266

> <r_mmod_Solvation_Energy-OPLS-2005>
-195.274337768555

> <b_mmod_Minimization_Converged-OPLS-2005>
0

> <r_mmod_RMS_Derivative-OPLS-2005>
3.19547414779663

$$$$
72
                    3D
 Structure written by MMmdl.
154162  0  0  1  0            999 V2000
  -30.6435  -14.5377   20.4585 C   0  0  0  0  0  0
  -30.4312  -12.3095   19.4430 C   0  0  0  0  0  0
  -29.5056  -12.4830   18.2177 C   0  0  0  0  0  0
  -28.0226  -12.3432   18.6220 C   0  0  0  0  0  0
  -27.6571  -13.1951   19.8662 C   0  0  2  0  0  0
  -28.7020  -13.0226   20.9886 C   0  0  0  0  0  0
  -25.2610  -13.8123   20.5726 C   0  0  0  0  0  0
  -24.1834  -13.0416   20.9171 C   0  0  0  0  0  0
  -24.6371  -11.6880   20.8729 C   0  0  0  0  0  0
  -23.9036  -10.4281   21.0406 C   0  0  0  0  0  0
  -24.3594   -9.4201   21.9183 C   0  0  0  0  0  0
  -23.6273   -8.2238   22.0754 C   0  0  0  0  0  0
  -22.4258   -8.0273   21.3543 C   0  0  0  0  0  0
  -21.9889   -9.0245   20.4647 C   0  0  0  0  0  0
  -22.7213  -10.2125   20.3054 C   0  0  0  0  0  0
  -21.6848   -6.0732   22.5285 C   0  0  0  0  0  0
  -21.4010   -6.5637   23.8218 C   0  0  0  0  0  0
  -21.3656   -5.6790   24.9178 C   0  0  0  0  0  0
  -21.6045   -4.3052   24.7229 C   0  0  0  0  0  0
  -21.8824   -3.8143   23.4350 C   0  0  0  0  0  0
  -21.9192   -4.6960   22.3407 C   0  0  0  0  0  0
  -22.7867  -13.5239   21.1840 C   0  0  0  0  0  0
  -22.1659   -4.2144   21.0984 F   0  0  0  0  0  0
  -21.5626   -3.4539   25.7743 F   0  0  0  0  0  0
  -30.0342  -13.3184   20.4369 N   0  0  0  0  0  0
  -26.3010  -12.9257   20.3347 N   0  0  0  0  0  0
  -25.9287  -11.6430   20.5743 N   0  0  0  0  0  0
  -22.0496  -12.8240   22.0392 N   0  0  0  0  0  0
  -25.4384  -15.1844   20.4277 N   0  0  0  0  0  0
  -31.8392  -14.6447   20.1703 O   0  0  0  0  0  0
  -21.6625   -6.8870   21.4243 O   0  0  0  0  0  0
  -22.3563  -14.5553   20.6697 O   0  0  0  0  0  0
  -24.6161  -31.8668   23.2089 C   0  0  0  0  0  0
  -25.9051  -32.4814   23.8385 C   0  0  1  0  0  0
  -27.2377  -27.4144   20.0899 C   0  0  0  0  0  0
  -25.5909  -33.8617   24.2320 N   0  0  0  0  0  0
  -23.4038  -30.4904   21.5503 C   0  0  2  0  0  0
  -24.8485  -28.9533   20.1152 C   0  0  0  0  0  0
  -22.7411  -29.4658   22.4990 C   0  0  0  0  0  0
  -18.0271  -28.1376   22.8500 C   0  0  0  0  0  0
  -24.1484  -36.7305   23.2638 C   0  0  0  0  0  0
  -25.9343  -30.8256   21.3642 C   0  0  0  0  0  0
  -26.0092  -29.4579   20.7116 C   0  0  0  0  0  0
  -27.2012  -28.6951   20.6973 C   0  0  0  0  0  0
  -26.0460  -26.9223   19.5046 C   0  0  0  0  0  0
  -24.8629  -27.6851   19.5117 C   0  0  0  0  0  0
  -23.6118  -29.8223   20.1651 C   0  0  0  0  0  0
  -25.4107  -36.3107   24.0336 C   0  0  1  0  0  0
  -20.5863  -28.3663   23.1322 C   0  0  2  0  0  0
  -20.6765  -26.9400   22.5422 C   0  0  0  0  0  0
  -19.5741  -26.6386   21.5221 C   0  0  0  0  0  0
  -18.1917  -26.7925   22.1629 C   0  0  0  0  0  0
  -19.1521  -28.8837   23.2907 C   0  0  0  0  0  0
  -18.9450  -30.1448   23.8910 C   0  0  0  0  0  0
  -17.6452  -30.6585   24.0567 C   0  0  0  0  0  0
  -25.9038  -34.9474   23.5122 C   0  0  0  0  0  0
  -16.5343  -29.9087   23.6329 C   0  0  0  0  0  0
  -16.7261  -28.6503   23.0350 C   0  0  0  0  0  0
  -26.4477  -31.6599   25.0717 C   0  0  0  0  0  0
  -25.3744  -31.3710   26.1466 C   0  0  0  0  0  0
  -27.0308  -30.3039   24.6101 C   0  0  0  0  0  0
  -27.6048  -32.4323   25.7478 C   0  0  0  0  0  0
  -27.5575  -37.1806   24.8467 C   0  0  0  0  0  0
  -21.4138  -29.3030   22.3726 N   0  0  0  0  0  0
  -26.4288  -37.3796   23.9410 N   0  0  0  0  0  0
  -24.6698  -31.0755   22.0996 N   0  0  0  0  0  0
  -23.4179  -28.8198   23.3035 O   0  0  0  0  0  0
  -28.4323  -26.7104   20.1075 O   0  0  0  0  0  0
  -26.5594  -34.8928   22.4681 O   0  0  0  0  0  0
  -23.5354  -32.1430   23.7476 O   0  0  0  0  0  0
  -27.7196  -20.1500   18.8916 C   0  0  0  0  0  0
  -27.5197  -18.8804   18.3323 C   0  0  0  0  0  0
  -29.4581  -19.2309   20.3170 C   0  0  0  0  0  0
  -28.6968  -20.3558   19.8866 C   0  0  0  0  0  0
  -29.2655  -17.9263   19.7718 C   0  0  0  0  0  0
  -28.2927  -17.7761   18.7380 C   0  0  0  0  0  0
  -28.9317  -21.7306   20.4151 C   0  0  0  0  0  0
  -30.1395  -16.7847   20.2135 C   0  0  0  0  0  0
  -28.5510  -22.8829   19.8022 C   0  0  0  0  0  0
  -28.7373  -24.2424   20.3722 C   0  0  0  0  0  0
  -28.0586  -16.4832   17.9667 C   0  0  0  0  0  0
  -28.5731  -25.4489   19.4136 C   0  0  0  0  0  0
  -29.7356  -15.6053   20.5397 N   0  0  0  0  0  0
  -29.0270  -24.4347   21.5585 O   0  0  0  0  0  0
  -31.4766  -12.4028   19.1442 H   0  0  0  0  0  0
  -30.3287  -11.3075   19.8631 H   0  0  0  0  0  0
  -29.7529  -11.7444   17.4540 H   0  0  0  0  0  0
  -29.6730  -13.4595   17.7619 H   0  0  0  0  0  0
  -27.8364  -11.2891   18.8302 H   0  0  0  0  0  0
  -27.3760  -12.6044   17.7838 H   0  0  0  0  0  0
  -27.6849  -14.2326   19.5505 H   0  0  0  0  0  0
  -28.6814  -12.0040   21.3787 H   0  0  0  0  0  0
  -28.4716  -13.6737   21.8338 H   0  0  0  0  0  0
  -25.2744   -9.5678   22.4747 H   0  0  0  0  0  0
  -23.9986   -7.4629   22.7473 H   0  0  0  0  0  0
  -21.0820   -8.8762   19.8954 H   0  0  0  0  0  0
  -22.3676  -10.9660   19.6157 H   0  0  0  0  0  0
  -21.2000   -7.6145   23.9719 H   0  0  0  0  0  0
  -21.1471   -6.0519   25.9082 H   0  0  0  0  0  0
  -22.0605   -2.7606   23.2855 H   0  0  0  0  0  0
  -22.4097  -11.9896   22.4780 H   0  0  0  0  0  0
  -21.1125  -13.1293   22.2604 H   0  0  0  0  0  0
  -24.6908  -15.8518   20.5805 H   0  0  0  0  0  0
  -26.3284  -15.6215   20.2209 H   0  0  0  0  0  0
  -26.7121  -32.5515   23.1146 H   0  0  0  0  0  0
  -25.0082  -33.9784   25.0479 H   0  0  0  0  0  0
  -22.6935  -31.3080   21.4117 H   0  0  0  0  0  0
  -23.3746  -35.9638   23.3313 H   0  0  0  0  0  0
  -24.3576  -36.8905   22.2050 H   0  0  0  0  0  0
  -23.7239  -37.6514   23.6644 H   0  0  0  0  0  0
  -26.0491  -31.5911   20.5953 H   0  0  0  0  0  0
  -26.8216  -30.8783   21.9837 H   0  0  0  0  0  0
  -28.0981  -29.0870   21.1567 H   0  0  0  0  0  0
  -25.9849  -25.9486   19.0462 H   0  0  0  0  0  0
  -23.9669  -27.2863   19.0564 H   0  0  0  0  0  0
  -23.7211  -30.5970   19.4052 H   0  0  0  0  0  0
  -22.7349  -29.2437   19.8697 H   0  0  0  0  0  0
  -25.1288  -36.1966   25.0829 H   0  0  0  0  0  0
  -20.9959  -28.3229   24.1442 H   0  0  0  0  0  0
  -20.5678  -26.2269   23.3607 H   0  0  0  0  0  0
  -21.6632  -26.7450   22.1205 H   0  0  0  0  0  0
  -19.6897  -25.6302   21.1236 H   0  0  0  0  0  0
  -19.6675  -27.3210   20.6761 H   0  0  0  0  0  0
  -17.4191  -26.6685   21.4026 H   0  0  0  0  0  0
  -18.0305  -26.0062   22.9020 H   0  0  0  0  0  0
  -19.7928  -30.7265   24.2274 H   0  0  0  0  0  0
  -17.5009  -31.6268   24.5166 H   0  0  0  0  0  0
  -15.5344  -30.2993   23.7648 H   0  0  0  0  0  0
  -15.8662  -28.0831   22.7052 H   0  0  0  0  0  0
  -24.5914  -30.7058   25.7805 H   0  0  0  0  0  0
  -24.8940  -32.2872   26.4913 H   0  0  0  0  0  0
  -25.8099  -30.8881   27.0223 H   0  0  0  0  0  0
  -26.2856  -29.6802   24.1149 H   0  0  0  0  0  0
  -27.4072  -29.7272   25.4561 H   0  0  0  0  0  0
  -27.8696  -30.4352   23.9260 H   0  0  0  0  0  0
  -27.2659  -33.3611   26.2081 H   0  0  0  0  0  0
  -28.3844  -32.6903   25.0297 H   0  0  0  0  0  0
  -28.0735  -31.8437   26.5376 H   0  0  0  0  0  0
  -28.2606  -38.0091   24.7511 H   0  0  0  0  0  0
  -28.1058  -36.2624   24.6299 H   0  0  0  0  0  0
  -27.2292  -37.1468   25.8870 H   0  0  0  0  0  0
  -20.9291  -29.8750   21.6951 H   0  0  0  0  0  0
  -26.0173  -38.2872   24.1416 H   0  0  0  0  0  0
  -27.1027  -20.9617   18.5344 H   0  0  0  0  0  0
  -26.7751  -18.7632   17.5562 H   0  0  0  0  0  0
  -30.2189  -19.3726   21.0719 H   0  0  0  0  0  0
  -29.4245  -21.7899   21.3764 H   0  0  0  0  0  0
  -31.2072  -17.0260   20.1963 H   0  0  0  0  0  0
  -28.0763  -22.8516   18.8339 H   0  0  0  0  0  0
  -27.1435  -16.0015   18.3064 H   0  0  0  0  0  0
  -28.8812  -15.7739   18.0301 H   0  0  0  0  0  0
  -27.9270  -16.7034   16.9068 H   0  0  0  0  0  0
  -27.7965  -25.2490   18.6807 H   0  0  0  0  0  0
  -29.4930  -25.5135   18.8329 H   0  0  0  0  0  0
  1 25  1  0  0  0
  1 30  2  0  0  0
  1 83  1  0  0  0
  2  3  1  0  0  0
  2 25  1  0  0  0
  2 85  1  0  0  0
  2 86  1  0  0  0
  3  4  1  0  0  0
  3 87  1  0  0  0
  3 88  1  0  0  0
  4  5  1  0  0  0
  4 89  1  0  0  0
  4 90  1  0  0  0
  5  6  1  0  0  0
  5 26  1  0  0  0
  5 91  1  0  0  0
  6 25  1  0  0  0
  6 92  1  0  0  0
  6 93  1  0  0  0
  7  8  2  0  0  0
  7 26  1  0  0  0
  7 29  1  0  0  0
  8  9  1  0  0  0
  8 22  1  0  0  0
  9 10  1  0  0  0
  9 27  2  0  0  0
 10 11  2  0  0  0
 10 15  1  0  0  0
 11 12  1  0  0  0
 11 94  1  0  0  0
 12 13  2  0  0  0
 12 95  1  0  0  0
 13 14  1  0  0  0
 13 31  1  0  0  0
 14 15  2  0  0  0
 14 96  1  0  0  0
 15 97  1  0  0  0
 16 17  2  0  0  0
 16 21  1  0  0  0
 16 31  1  0  0  0
 17 18  1  0  0  0
 17 98  1  0  0  0
 18 19  2  0  0  0
 18 99  1  0  0  0
 19 20  1  0  0  0
 19 24  1  0  0  0
 20 21  2  0  0  0
 20100  1  0  0  0
 21 23  1  0  0  0
 22 28  1  0  0  0
 22 32  2  0  0  0
 26 27  1  0  0  0
 28101  1  0  0  0
 28102  1  0  0  0
 29103  1  0  0  0
 29104  1  0  0  0
 33 34  1  0  0  0
 33 66  1  0  0  0
 33 70  2  0  0  0
 34 36  1  0  0  0
 34 59  1  0  0  0
 34105  1  0  0  0
 35 44  2  0  0  0
 35 45  1  0  0  0
 35 68  1  0  0  0
 36 56  1  0  0  0
 36106  1  0  0  0
 37 39  1  0  0  0
 37 47  1  0  0  0
 37 66  1  0  0  0
 37107  1  0  0  0
 38 43  2  0  0  0
 38 46  1  0  0  0
 38 47  1  0  0  0
 39 64  1  0  0  0
 39 67  2  0  0  0
 40 52  1  0  0  0
 40 53  2  0  0  0
 40 58  1  0  0  0
 41108  1  0  0  0
 41109  1  0  0  0
 41110  1  0  0  0
 41 48  1  0  0  0
 42 43  1  0  0  0
 42 66  1  0  0  0
 42111  1  0  0  0
 42112  1  0  0  0
 43 44  1  0  0  0
 44113  1  0  0  0
 45 46  2  0  0  0
 45114  1  0  0  0
 46115  1  0  0  0
 47116  1  0  0  0
 47117  1  0  0  0
 48 56  1  0  0  0
 48 65  1  0  0  0
 48118  1  0  0  0
 49 50  1  0  0  0
 49 53  1  0  0  0
 49 64  1  0  0  0
 49119  1  0  0  0
 50 51  1  0  0  0
 50120  1  0  0  0
 50121  1  0  0  0
 51 52  1  0  0  0
 51122  1  0  0  0
 51123  1  0  0  0
 52124  1  0  0  0
 52125  1  0  0  0
 53 54  1  0  0  0
 54 55  2  0  0  0
 54126  1  0  0  0
 55 57  1  0  0  0
 55127  1  0  0  0
 56 69  2  0  0  0
 57 58  2  0  0  0
 57128  1  0  0  0
 58129  1  0  0  0
 59 60  1  0  0  0
 59 61  1  0  0  0
 59 62  1  0  0  0
 60130  1  0  0  0
 60131  1  0  0  0
 60132  1  0  0  0
 61133  1  0  0  0
 61134  1  0  0  0
 61135  1  0  0  0
 62136  1  0  0  0
 62137  1  0  0  0
 62138  1  0  0  0
 63 65  1  0  0  0
 63139  1  0  0  0
 63140  1  0  0  0
 63141  1  0  0  0
 64142  1  0  0  0
 65143  1  0  0  0
 68 82  1  0  0  0
 71 72  2  0  0  0
 71 74  1  0  0  0
 71144  1  0  0  0
 72 76  1  0  0  0
 72145  1  0  0  0
 73 74  2  0  0  0
 73 75  1  0  0  0
 73146  1  0  0  0
 74 77  1  0  0  0
 75 76  2  0  0  0
 75 78  1  0  0  0
 76 81  1  0  0  0
 77 79  2  0  0  0
 77147  1  0  0  0
 78 83  2  0  0  0
 78148  1  0  0  0
 79 80  1  0  0  0
 79149  1  0  0  0
 80 82  1  0  0  0
 80 84  2  0  0  0
 81150  1  0  0  0
 81151  1  0  0  0
 81152  1  0  0  0
 82153  1  0  0  0
 82154  1  0  0  0
M  ISO  4   1 100  68 101  82 101  83 100
M  END
> <chiral flag>
0

> <version>
0

> <s_m_source_file>
/data/baiqing/PycharmProjects/Reinvent-master-3.2/result/LINK_invent/BTK/process_docking_weight1_custom_product_contain_oxygen_bond_distance_aromatic_linkinvent_7_9_3/rearranged_h_0126.sdf

> <i_m_source_file_index>
73

> <r_mmod_Potential_Energy-OPLS-2005>
26.0255260467529

> <r_mmod_Stretch_Energy-OPLS-2005>
47.0792236328125

> <r_mmod_Bend_Energy-OPLS-2005>
109.34741973877

> <r_mmod_Torsional_Energy-OPLS-2005>
200.313140869141

> <r_mmod_Improper_Torsional_Energy-OPLS-2005>
7.89529085159302

> <r_mmod_Van_der_Waal_Energy-OPLS-2005>
163.360443115234

> <r_mmod_Electrostatic_Energy-OPLS-2005>
-318.82861328125

> <r_mmod_Solvation_Energy-OPLS-2005>
-206.240158081055

> <b_mmod_Minimization_Converged-OPLS-2005>
0

> <r_mmod_RMS_Derivative-OPLS-2005>
0.680523216724396

$$$$
73
                    3D
 Structure written by MMmdl.
161169  0  0  1  0            999 V2000
  -30.6707  -14.4975   20.5781 C   0  0  0  0  0  0
  -30.4362  -12.3238   19.4175 C   0  0  0  0  0  0
  -29.4977  -12.5167   18.2061 C   0  0  0  0  0  0
  -28.0190  -12.3723   18.6195 C   0  0  0  0  0  0
  -27.6672  -13.2040   19.8819 C   0  0  2  0  0  0
  -28.7101  -12.9622   20.9965 C   0  0  0  0  0  0
  -25.2617  -13.8151   20.5684 C   0  0  0  0  0  0
  -24.1853  -13.0433   20.9152 C   0  0  0  0  0  0
  -24.6399  -11.6897   20.8726 C   0  0  0  0  0  0
  -23.9064  -10.4281   21.0400 C   0  0  0  0  0  0
  -24.3613   -9.4196   21.9180 C   0  0  0  0  0  0
  -23.6280   -8.2240   22.0759 C   0  0  0  0  0  0
  -22.4268   -8.0278   21.3545 C   0  0  0  0  0  0
  -21.9901   -9.0253   20.4653 C   0  0  0  0  0  0
  -22.7235  -10.2126   20.3053 C   0  0  0  0  0  0
  -21.6852   -6.0726   22.5273 C   0  0  0  0  0  0
  -21.4016   -6.5632   23.8204 C   0  0  0  0  0  0
  -21.3661   -5.6790   24.9168 C   0  0  0  0  0  0
  -21.6042   -4.3050   24.7222 C   0  0  0  0  0  0
  -21.8821   -3.8137   23.4344 C   0  0  0  0  0  0
  -21.9192   -4.6953   22.3399 C   0  0  0  0  0  0
  -22.7874  -13.5233   21.1819 C   0  0  0  0  0  0
  -22.1658   -4.2135   21.0975 F   0  0  0  0  0  0
  -21.5633   -3.4536   25.7741 F   0  0  0  0  0  0
  -30.0429  -13.2926   20.4543 N   0  0  0  0  0  0
  -26.3058  -12.9315   20.3401 N   0  0  0  0  0  0
  -25.9330  -11.6478   20.5778 N   0  0  0  0  0  0
  -22.0523  -12.8234   22.0387 N   0  0  0  0  0  0
  -25.4352  -15.1870   20.4107 N   0  0  0  0  0  0
  -31.7668  -14.7381   20.0609 O   0  0  0  0  0  0
  -21.6637   -6.8870   21.4234 O   0  0  0  0  0  0
  -22.3555  -14.5538   20.6669 O   0  0  0  0  0  0
  -24.6168  -31.8649   23.2072 C   0  0  0  0  0  0
  -25.9048  -32.4803   23.8370 C   0  0  1  0  0  0
  -27.2403  -27.4092   20.0857 C   0  0  0  0  0  0
  -25.5889  -33.8600   24.2292 N   0  0  0  0  0  0
  -23.4075  -30.4897   21.5475 C   0  0  2  0  0  0
  -24.8539  -28.9517   20.1128 C   0  0  0  0  0  0
  -22.7427  -29.4648   22.4950 C   0  0  0  0  0  0
  -18.0286  -28.1380   22.8499 C   0  0  0  0  0  0
  -24.1488  -36.7309   23.2643 C   0  0  0  0  0  0
  -25.9393  -30.8204   21.3655 C   0  0  0  0  0  0
  -26.0155  -29.4533   20.7113 C   0  0  0  0  0  0
  -27.2070  -28.6859   20.7021 C   0  0  0  0  0  0
  -26.0487  -26.9191   19.5035 C   0  0  0  0  0  0
  -24.8654  -27.6826   19.5095 C   0  0  0  0  0  0
  -23.6184  -29.8242   20.1617 C   0  0  0  0  0  0
  -25.4105  -36.3091   24.0341 C   0  0  1  0  0  0
  -20.5879  -28.3671   23.1302 C   0  0  2  0  0  0
  -20.6768  -26.9403   22.5409 C   0  0  0  0  0  0
  -19.5748  -26.6382   21.5208 C   0  0  0  0  0  0
  -18.1931  -26.7930   22.1625 C   0  0  0  0  0  0
  -19.1536  -28.8843   23.2906 C   0  0  0  0  0  0
  -18.9469  -30.1451   23.8912 C   0  0  0  0  0  0
  -17.6468  -30.6588   24.0580 C   0  0  0  0  0  0
  -25.9032  -34.9464   23.5114 C   0  0  0  0  0  0
  -16.5359  -29.9096   23.6329 C   0  0  0  0  0  0
  -16.7271  -28.6518   23.0337 C   0  0  0  0  0  0
  -26.4461  -31.6604   25.0716 C   0  0  0  0  0  0
  -25.3724  -31.3747   26.1473 C   0  0  0  0  0  0
  -27.0279  -30.3045   24.6101 C   0  0  0  0  0  0
  -27.6027  -32.4334   25.7472 C   0  0  0  0  0  0
  -27.5586  -37.1793   24.8461 C   0  0  0  0  0  0
  -21.4150  -29.3045   22.3707 N   0  0  0  0  0  0
  -26.4284  -37.3784   23.9430 N   0  0  0  0  0  0
  -24.6730  -31.0734   22.0981 N   0  0  0  0  0  0
  -23.4194  -28.8181   23.2991 O   0  0  0  0  0  0
  -28.4020  -26.6491   20.1270 O   0  0  0  0  0  0
  -26.5603  -34.8928   22.4679 O   0  0  0  0  0  0
  -23.5353  -32.1402   23.7460 O   0  0  0  0  0  0
  -30.2605  -19.0393   20.1223 C   0  0  0  0  0  0
  -30.4172  -17.6262   20.1383 C   0  0  0  0  0  0
  -29.2687  -18.9488   22.3233 C   0  0  0  0  0  0
  -29.6893  -19.7278   21.2219 C   0  0  0  0  0  0
  -29.3934  -17.5389   22.3388 C   0  0  0  0  0  0
  -29.9748  -16.8544   21.2435 C   0  0  0  0  0  0
  -29.4559  -21.2045   21.2753 C   0  0  0  0  0  0
  -29.4065  -22.1052   20.2606 C   0  0  0  0  0  0
  -28.9994  -24.2993   19.2778 C   0  0  0  0  0  0
  -29.1790  -23.5607   20.4059 C   0  0  0  0  0  0
  -28.8811  -16.7647   23.5440 C   0  0  0  0  0  0
  -29.1710  -24.1974   21.7874 C   0  0  0  0  0  0
  -29.9851  -26.4485   18.3733 C   0  0  0  0  0  0
  -28.7484  -25.8054   19.0094 C   0  0  2  0  0  0
  -29.9758  -15.4171   21.2793 N   0  0  0  0  0  0
  -31.4772  -12.4446   19.1126 H   0  0  0  0  0  0
  -30.3574  -11.3068   19.8048 H   0  0  0  0  0  0
  -29.7381  -11.7946   17.4249 H   0  0  0  0  0  0
  -29.6596  -13.5033   17.7690 H   0  0  0  0  0  0
  -27.8294  -11.3150   18.8094 H   0  0  0  0  0  0
  -27.3667  -12.6523   17.7918 H   0  0  0  0  0  0
  -27.7172  -14.2555   19.5986 H   0  0  0  0  0  0
  -28.6926  -11.9156   21.3052 H   0  0  0  0  0  0
  -28.4577  -13.5244   21.8963 H   0  0  0  0  0  0
  -25.2764   -9.5667   22.4749 H   0  0  0  0  0  0
  -23.9984   -7.4635   22.7482 H   0  0  0  0  0  0
  -21.0831   -8.8770   19.8964 H   0  0  0  0  0  0
  -22.3693  -10.9663   19.6159 H   0  0  0  0  0  0
  -21.2008   -7.6145   23.9701 H   0  0  0  0  0  0
  -21.1484   -6.0523   25.9069 H   0  0  0  0  0  0
  -22.0601   -2.7600   23.2850 H   0  0  0  0  0  0
  -22.4142  -11.9885   22.4759 H   0  0  0  0  0  0
  -21.1150  -13.1273   22.2619 H   0  0  0  0  0  0
  -24.6738  -15.8472   20.5251 H   0  0  0  0  0  0
  -26.2980  -15.6263   20.1146 H   0  0  0  0  0  0
  -26.7118  -32.5493   23.1128 H   0  0  0  0  0  0
  -25.0045  -33.9750   25.0442 H   0  0  0  0  0  0
  -22.6988  -31.3089   21.4063 H   0  0  0  0  0  0
  -23.3749  -35.9640   23.3284 H   0  0  0  0  0  0
  -24.3603  -36.8928   22.2063 H   0  0  0  0  0  0
  -23.7229  -37.6507   23.6662 H   0  0  0  0  0  0
  -26.0564  -31.5867   20.5972 H   0  0  0  0  0  0
  -26.8253  -30.8714   21.9865 H   0  0  0  0  0  0
  -28.1025  -29.0694   21.1714 H   0  0  0  0  0  0
  -26.0075  -25.9310   19.0686 H   0  0  0  0  0  0
  -23.9681  -27.2806   19.0606 H   0  0  0  0  0  0
  -23.7352  -30.6013   19.4052 H   0  0  0  0  0  0
  -22.7398  -29.2522   19.8580 H   0  0  0  0  0  0
  -25.1273  -36.1944   25.0832 H   0  0  0  0  0  0
  -20.9995  -28.3227   24.1409 H   0  0  0  0  0  0
  -20.5664  -26.2275   23.3596 H   0  0  0  0  0  0
  -21.6634  -26.7424   22.1199 H   0  0  0  0  0  0
  -19.6919  -25.6295   21.1226 H   0  0  0  0  0  0
  -19.6696  -27.3198   20.6752 H   0  0  0  0  0  0
  -17.4198  -26.6687   21.4027 H   0  0  0  0  0  0
  -18.0339  -26.0055   22.9010 H   0  0  0  0  0  0
  -19.7946  -30.7272   24.2269 H   0  0  0  0  0  0
  -17.5032  -31.6270   24.5174 H   0  0  0  0  0  0
  -15.5366  -30.3016   23.7644 H   0  0  0  0  0  0
  -15.8668  -28.0860   22.7020 H   0  0  0  0  0  0
  -24.5885  -30.7094   25.7833 H   0  0  0  0  0  0
  -24.8943  -32.2925   26.4912 H   0  0  0  0  0  0
  -25.8081  -30.8932   27.0241 H   0  0  0  0  0  0
  -26.2822  -29.6825   24.1136 H   0  0  0  0  0  0
  -27.4029  -29.7255   25.4550 H   0  0  0  0  0  0
  -27.8665  -30.4356   23.9255 H   0  0  0  0  0  0
  -27.2632  -33.3626   26.2066 H   0  0  0  0  0  0
  -28.3828  -32.6912   25.0291 H   0  0  0  0  0  0
  -28.0713  -31.8459   26.5376 H   0  0  0  0  0  0
  -28.2558  -38.0134   24.7547 H   0  0  0  0  0  0
  -28.1115  -36.2666   24.6205 H   0  0  0  0  0  0
  -27.2329  -37.1343   25.8867 H   0  0  0  0  0  0
  -20.9300  -29.8790   21.6952 H   0  0  0  0  0  0
  -26.0164  -38.2848   24.1469 H   0  0  0  0  0  0
  -30.5909  -19.5924   19.2549 H   0  0  0  0  0  0
  -30.8493  -17.1425   19.2734 H   0  0  0  0  0  0
  -28.8172  -19.4435   23.1727 H   0  0  0  0  0  0
  -29.3150  -21.5821   22.2782 H   0  0  0  0  0  0
  -29.5445  -21.7173   19.2606 H   0  0  0  0  0  0
  -29.0372  -23.7503   18.3461 H   0  0  0  0  0  0
  -28.5008  -17.4289   24.3196 H   0  0  0  0  0  0
  -29.6809  -16.1665   23.9823 H   0  0  0  0  0  0
  -28.0709  -16.0950   23.2536 H   0  0  0  0  0  0
  -29.8969  -23.7162   22.4443 H   0  0  0  0  0  0
  -28.1829  -24.1112   22.2403 H   0  0  0  0  0  0
  -29.4481  -25.2488   21.7578 H   0  0  0  0  0  0
  -30.3020  -25.9030   17.4849 H   0  0  0  0  0  0
  -30.8235  -26.4699   19.0698 H   0  0  0  0  0  0
  -29.7767  -27.4757   18.0713 H   0  0  0  0  0  0
  -27.9762  -25.8316   18.2418 H   0  0  0  0  0  0
  -29.2210  -15.0135   21.8117 H   0  0  0  0  0  0
  1 25  1  0  0  0
  1 30  2  0  0  0
  1 85  1  0  0  0
  2  3  1  0  0  0
  2 25  1  0  0  0
  2 86  1  0  0  0
  2 87  1  0  0  0
  3  4  1  0  0  0
  3 88  1  0  0  0
  3 89  1  0  0  0
  4  5  1  0  0  0
  4 90  1  0  0  0
  4 91  1  0  0  0
  5  6  1  0  0  0
  5 26  1  0  0  0
  5 92  1  0  0  0
  6 25  1  0  0  0
  6 93  1  0  0  0
  6 94  1  0  0  0
  7  8  2  0  0  0
  7 26  1  0  0  0
  7 29  1  0  0  0
  8  9  1  0  0  0
  8 22  1  0  0  0
  9 10  1  0  0  0
  9 27  2  0  0  0
 10 11  2  0  0  0
 10 15  1  0  0  0
 11 12  1  0  0  0
 11 95  1  0  0  0
 12 13  2  0  0  0
 12 96  1  0  0  0
 13 14  1  0  0  0
 13 31  1  0  0  0
 14 15  2  0  0  0
 14 97  1  0  0  0
 15 98  1  0  0  0
 16 17  2  0  0  0
 16 21  1  0  0  0
 16 31  1  0  0  0
 17 18  1  0  0  0
 17 99  1  0  0  0
 18 19  2  0  0  0
 18100  1  0  0  0
 19 20  1  0  0  0
 19 24  1  0  0  0
 20 21  2  0  0  0
 20101  1  0  0  0
 21 23  1  0  0  0
 22 28  1  0  0  0
 22 32  2  0  0  0
 26 27  1  0  0  0
 28102  1  0  0  0
 28103  1  0  0  0
 29104  1  0  0  0
 29105  1  0  0  0
 33 34  1  0  0  0
 33 66  1  0  0  0
 33 70  2  0  0  0
 34 36  1  0  0  0
 34 59  1  0  0  0
 34106  1  0  0  0
 35 44  2  0  0  0
 35 45  1  0  0  0
 35 68  1  0  0  0
 36 56  1  0  0  0
 36107  1  0  0  0
 37 39  1  0  0  0
 37 47  1  0  0  0
 37 66  1  0  0  0
 37108  1  0  0  0
 38 43  2  0  0  0
 38 46  1  0  0  0
 38 47  1  0  0  0
 39 64  1  0  0  0
 39 67  2  0  0  0
 40 52  1  0  0  0
 40 53  2  0  0  0
 40 58  1  0  0  0
 41109  1  0  0  0
 41110  1  0  0  0
 41111  1  0  0  0
 41 48  1  0  0  0
 42 43  1  0  0  0
 42 66  1  0  0  0
 42112  1  0  0  0
 42113  1  0  0  0
 43 44  1  0  0  0
 44114  1  0  0  0
 45 46  2  0  0  0
 45115  1  0  0  0
 46116  1  0  0  0
 47117  1  0  0  0
 47118  1  0  0  0
 48 56  1  0  0  0
 48 65  1  0  0  0
 48119  1  0  0  0
 49 50  1  0  0  0
 49 53  1  0  0  0
 49 64  1  0  0  0
 49120  1  0  0  0
 50 51  1  0  0  0
 50121  1  0  0  0
 50122  1  0  0  0
 51 52  1  0  0  0
 51123  1  0  0  0
 51124  1  0  0  0
 52125  1  0  0  0
 52126  1  0  0  0
 53 54  1  0  0  0
 54 55  2  0  0  0
 54127  1  0  0  0
 55 57  1  0  0  0
 55128  1  0  0  0
 56 69  2  0  0  0
 57 58  2  0  0  0
 57129  1  0  0  0
 58130  1  0  0  0
 59 60  1  0  0  0
 59 61  1  0  0  0
 59 62  1  0  0  0
 60131  1  0  0  0
 60132  1  0  0  0
 60133  1  0  0  0
 61134  1  0  0  0
 61135  1  0  0  0
 61136  1  0  0  0
 62137  1  0  0  0
 62138  1  0  0  0
 62139  1  0  0  0
 63 65  1  0  0  0
 63140  1  0  0  0
 63141  1  0  0  0
 63142  1  0  0  0
 64143  1  0  0  0
 65144  1  0  0  0
 68 84  1  0  0  0
 71 72  2  0  0  0
 71 74  1  0  0  0
 71145  1  0  0  0
 72 76  1  0  0  0
 72146  1  0  0  0
 73 74  2  0  0  0
 73 75  1  0  0  0
 73147  1  0  0  0
 74 77  1  0  0  0
 75 76  2  0  0  0
 75 81  1  0  0  0
 76 85  1  0  0  0
 77 78  2  0  0  0
 77148  1  0  0  0
 78 80  1  0  0  0
 78149  1  0  0  0
 79 80  2  0  0  0
 79 84  1  0  0  0
 79150  1  0  0  0
 80 82  1  0  0  0
 81151  1  0  0  0
 81152  1  0  0  0
 81153  1  0  0  0
 82154  1  0  0  0
 82155  1  0  0  0
 82156  1  0  0  0
 83157  1  0  0  0
 83158  1  0  0  0
 83159  1  0  0  0
 83 84  1  0  0  0
 84160  1  0  0  0
 85161  1  0  0  0
M  ISO  4   1 100  68 101  84 101  85 100
M  END
> <chiral flag>
0

> <version>
0

> <s_m_source_file>
/data/baiqing/PycharmProjects/Reinvent-master-3.2/result/LINK_invent/BTK/process_docking_weight1_custom_product_contain_oxygen_bond_distance_aromatic_linkinvent_7_9_3/rearranged_h_0126.sdf

> <i_m_source_file_index>
74

> <r_mmod_Potential_Energy-OPLS-2005>
-29.8525485992432

> <r_mmod_Stretch_Energy-OPLS-2005>
47.0120315551758

> <r_mmod_Bend_Energy-OPLS-2005>
132.082305908203

> <r_mmod_Torsional_Energy-OPLS-2005>
215.332870483398

> <r_mmod_Improper_Torsional_Energy-OPLS-2005>
2.98402667045593

> <r_mmod_Van_der_Waal_Energy-OPLS-2005>
154.693054199219

> <r_mmod_Electrostatic_Energy-OPLS-2005>
-403.382385253906

> <r_mmod_Solvation_Energy-OPLS-2005>
-194.889129638672

> <b_mmod_Minimization_Converged-OPLS-2005>
0

> <r_mmod_RMS_Derivative-OPLS-2005>
1.45756506919861

$$$$
74
                    3D
 Structure written by MMmdl.
155163  0  0  1  0            999 V2000
  -30.6500  -14.6842   20.5376 C   0  0  0  0  0  0
  -30.4356  -12.4283   19.4903 C   0  0  0  0  0  0
  -29.5235  -12.5318   18.2476 C   0  0  0  0  0  0
  -28.0448  -12.3593   18.6419 C   0  0  0  0  0  0
  -27.6528  -13.2338   19.8642 C   0  0  2  0  0  0
  -28.6883  -13.1140   21.0037 C   0  0  0  0  0  0
  -25.2555  -13.8214   20.5678 C   0  0  0  0  0  0
  -24.1825  -13.0466   20.9179 C   0  0  0  0  0  0
  -24.6413  -11.6937   20.8743 C   0  0  0  0  0  0
  -23.9096  -10.4311   21.0412 C   0  0  0  0  0  0
  -24.3642   -9.4228   21.9189 C   0  0  0  0  0  0
  -23.6296   -8.2278   22.0761 C   0  0  0  0  0  0
  -22.4276   -8.0324   21.3560 C   0  0  0  0  0  0
  -21.9930   -9.0311   20.4670 C   0  0  0  0  0  0
  -22.7271  -10.2179   20.3064 C   0  0  0  0  0  0
  -21.6854   -6.0763   22.5278 C   0  0  0  0  0  0
  -21.4024   -6.5635   23.8223 C   0  0  0  0  0  0
  -21.3655   -5.6768   24.9167 C   0  0  0  0  0  0
  -21.6051   -4.3036   24.7208 C   0  0  0  0  0  0
  -21.8811   -3.8148   23.4320 C   0  0  0  0  0  0
  -21.9197   -4.6990   22.3392 C   0  0  0  0  0  0
  -22.7828  -13.5265   21.1792 C   0  0  0  0  0  0
  -22.1653   -4.2181   21.0961 F   0  0  0  0  0  0
  -21.5660   -3.4508   25.7714 F   0  0  0  0  0  0
  -30.0073  -13.4668   20.4602 N   0  0  0  0  0  0
  -26.2993  -12.9413   20.3302 N   0  0  0  0  0  0
  -25.9349  -11.6552   20.5748 N   0  0  0  0  0  0
  -22.0413  -12.8354   22.0355 N   0  0  0  0  0  0
  -25.4268  -15.1950   20.4160 N   0  0  0  0  0  0
  -31.7771  -14.7969   20.0417 O   0  0  0  0  0  0
  -21.6649   -6.8914   21.4239 O   0  0  0  0  0  0
  -22.3505  -14.5518   20.6551 O   0  0  0  0  0  0
  -24.6299  -31.8569   23.2024 C   0  0  0  0  0  0
  -25.9147  -32.4741   23.8370 C   0  0  1  0  0  0
  -27.2251  -27.2857   20.1454 C   0  0  0  0  0  0
  -25.5954  -33.8547   24.2284 N   0  0  0  0  0  0
  -23.4241  -30.4804   21.5447 C   0  0  2  0  0  0
  -24.8754  -28.9328   20.1139 C   0  0  0  0  0  0
  -22.7484  -29.4620   22.4924 C   0  0  0  0  0  0
  -18.0299  -28.1401   22.8498 C   0  0  0  0  0  0
  -24.1495  -36.7285   23.2632 C   0  0  0  0  0  0
  -25.9674  -30.7775   21.3806 C   0  0  0  0  0  0
  -26.0431  -29.4018   20.7279 C   0  0  0  0  0  0
  -27.2183  -28.5895   20.7409 C   0  0  0  0  0  0
  -26.0424  -26.8924   19.4727 C   0  0  0  0  0  0
  -24.8795  -27.6838   19.4763 C   0  0  0  0  0  0
  -23.6436  -29.8127   20.1616 C   0  0  0  0  0  0
  -25.4106  -36.3051   24.0319 C   0  0  1  0  0  0
  -20.5910  -28.3715   23.1271 C   0  0  2  0  0  0
  -20.6811  -26.9434   22.5414 C   0  0  0  0  0  0
  -19.5765  -26.6400   21.5232 C   0  0  0  0  0  0
  -18.1945  -26.7948   22.1637 C   0  0  0  0  0  0
  -19.1562  -28.8880   23.2881 C   0  0  0  0  0  0
  -18.9460  -30.1492   23.8881 C   0  0  0  0  0  0
  -17.6453  -30.6604   24.0567 C   0  0  0  0  0  0
  -25.9057  -34.9424   23.5103 C   0  0  0  0  0  0
  -16.5350  -29.9088   23.6329 C   0  0  0  0  0  0
  -16.7285  -28.6510   23.0348 C   0  0  0  0  0  0
  -26.4536  -31.6556   25.0743 C   0  0  0  0  0  0
  -25.3734  -31.3704   26.1434 C   0  0  0  0  0  0
  -27.0386  -30.2987   24.6208 C   0  0  0  0  0  0
  -27.6119  -32.4261   25.7510 C   0  0  0  0  0  0
  -27.5569  -37.1780   24.8442 C   0  0  0  0  0  0
  -21.4204  -29.3045   22.3645 N   0  0  0  0  0  0
  -26.4267  -37.3747   23.9404 N   0  0  0  0  0  0
  -24.6930  -31.0558   22.0999 N   0  0  0  0  0  0
  -23.4191  -28.8178   23.3025 O   0  0  0  0  0  0
  -28.3189  -26.3999   20.2543 O   0  0  0  0  0  0
  -26.5613  -34.8880   22.4660 O   0  0  0  0  0  0
  -23.5463  -32.1383   23.7326 O   0  0  0  0  0  0
  -29.5062  -18.6166   22.6927 C   0  0  0  0  0  0
  -29.4069  -19.7148   20.5314 C   0  0  0  0  0  0
  -28.9748  -21.0149   22.5394 C   0  0  0  0  0  0
  -29.6536  -18.5061   21.2910 C   0  0  0  0  0  0
  -29.2049  -19.8532   23.3116 C   0  0  0  0  0  0
  -29.0523  -20.9868   21.1309 C   0  0  0  0  0  0
  -30.0905  -17.1628   20.6873 C   0  0  0  0  0  0
  -29.9712  -15.8695   21.1668 C   0  0  0  0  0  0
  -29.1414  -19.9452   24.8291 C   0  0  0  0  0  0
  -28.6311  -22.2699   20.3013 C   0  0  0  0  0  0
  -28.9449  -23.7845   20.7648 C   0  0  0  0  0  0
  -28.0959  -24.9381   20.0363 C   0  0  0  0  0  0
  -31.4814  -12.5324   19.2009 H   0  0  0  0  0  0
  -30.3592  -11.4345   19.9379 H   0  0  0  0  0  0
  -29.8126  -11.7833   17.5088 H   0  0  0  0  0  0
  -29.6653  -13.5018   17.7686 H   0  0  0  0  0  0
  -27.8881  -11.3047   18.8735 H   0  0  0  0  0  0
  -27.4032  -12.5854   17.7885 H   0  0  0  0  0  0
  -27.6678  -14.2694   19.5217 H   0  0  0  0  0  0
  -28.7045  -12.0930   21.3855 H   0  0  0  0  0  0
  -28.4085  -13.7366   21.8534 H   0  0  0  0  0  0
  -25.2804   -9.5722   22.4741 H   0  0  0  0  0  0
  -24.0051   -7.4659   22.7451 H   0  0  0  0  0  0
  -21.0882   -8.8811   19.8942 H   0  0  0  0  0  0
  -22.3731  -10.9724   19.6174 H   0  0  0  0  0  0
  -21.1982   -7.6138   23.9742 H   0  0  0  0  0  0
  -21.1496   -6.0486   25.9085 H   0  0  0  0  0  0
  -22.0593   -2.7619   23.2785 H   0  0  0  0  0  0
  -22.3983  -12.0130   22.4977 H   0  0  0  0  0  0
  -21.1003  -13.1418   22.2367 H   0  0  0  0  0  0
  -24.6687  -15.8547   20.5555 H   0  0  0  0  0  0
  -26.2959  -15.6410   20.1466 H   0  0  0  0  0  0
  -26.7204  -32.5405   23.1120 H   0  0  0  0  0  0
  -25.0080  -33.9695   25.0416 H   0  0  0  0  0  0
  -22.7183  -31.3012   21.3967 H   0  0  0  0  0  0
  -23.3750  -35.9625   23.3263 H   0  0  0  0  0  0
  -24.3619  -36.8950   22.2057 H   0  0  0  0  0  0
  -23.7278  -37.6483   23.6696 H   0  0  0  0  0  0
  -26.0968  -31.5324   20.6039 H   0  0  0  0  0  0
  -26.8497  -30.8356   22.0055 H   0  0  0  0  0  0
  -28.1022  -28.9359   21.2624 H   0  0  0  0  0  0
  -25.9852  -25.9473   18.9521 H   0  0  0  0  0  0
  -23.9846  -27.3164   18.9918 H   0  0  0  0  0  0
  -23.7650  -30.5868   19.4027 H   0  0  0  0  0  0
  -22.7627  -29.2412   19.8611 H   0  0  0  0  0  0
  -25.1306  -36.1873   25.0810 H   0  0  0  0  0  0
  -21.0004  -28.3298   24.1390 H   0  0  0  0  0  0
  -20.5784  -26.2294   23.3609 H   0  0  0  0  0  0
  -21.6656  -26.7498   22.1140 H   0  0  0  0  0  0
  -19.6927  -25.6310   21.1263 H   0  0  0  0  0  0
  -19.6726  -27.3214   20.6770 H   0  0  0  0  0  0
  -17.4227  -26.6735   21.4021 H   0  0  0  0  0  0
  -18.0307  -26.0095   22.9027 H   0  0  0  0  0  0
  -19.7930  -30.7358   24.2205 H   0  0  0  0  0  0
  -17.4988  -31.6278   24.5184 H   0  0  0  0  0  0
  -15.5346  -30.2985   23.7677 H   0  0  0  0  0  0
  -15.8677  -28.0847   22.7034 H   0  0  0  0  0  0
  -24.5912  -30.7073   25.7723 H   0  0  0  0  0  0
  -24.8911  -32.2865   26.4850 H   0  0  0  0  0  0
  -25.8002  -30.8861   27.0220 H   0  0  0  0  0  0
  -26.2984  -29.6710   24.1237 H   0  0  0  0  0  0
  -27.4101  -29.7278   25.4725 H   0  0  0  0  0  0
  -27.8836  -30.4307   23.9451 H   0  0  0  0  0  0
  -27.2800  -33.3559   26.2126 H   0  0  0  0  0  0
  -28.3922  -32.6792   25.0329 H   0  0  0  0  0  0
  -28.0790  -31.8337   26.5381 H   0  0  0  0  0  0
  -28.2546  -38.0114   24.7510 H   0  0  0  0  0  0
  -28.1118  -36.2647   24.6244 H   0  0  0  0  0  0
  -27.2285  -37.1354   25.8841 H   0  0  0  0  0  0
  -20.9384  -29.8697   21.6791 H   0  0  0  0  0  0
  -26.0144  -38.2814   24.1425 H   0  0  0  0  0  0
  -29.6753  -17.7508   23.3165 H   0  0  0  0  0  0
  -29.4774  -19.6639   19.4542 H   0  0  0  0  0  0
  -28.7129  -21.9342   23.0455 H   0  0  0  0  0  0
  -30.6397  -17.2788   19.7600 H   0  0  0  0  0  0
  -29.4074  -15.7121   22.0745 H   0  0  0  0  0  0
  -29.3332  -18.9843   25.3113 H   0  0  0  0  0  0
  -28.1616  -20.2908   25.1621 H   0  0  0  0  0  0
  -29.8911  -20.6464   25.2003 H   0  0  0  0  0  0
  -27.5457  -22.1917   20.2164 H   0  0  0  0  0  0
  -28.9977  -22.1448   19.2819 H   0  0  0  0  0  0
  -30.0095  -23.9802   20.6342 H   0  0  0  0  0  0
  -28.7598  -23.8828   21.8344 H   0  0  0  0  0  0
  -27.0657  -24.7012   20.3017 H   0  0  0  0  0  0
  -28.1739  -24.7742   18.9612 H   0  0  0  0  0  0
  1 25  1  0  0  0
  1 30  2  0  0  0
  1 78  1  0  0  0
  2  3  1  0  0  0
  2 25  1  0  0  0
  2 83  1  0  0  0
  2 84  1  0  0  0
  3  4  1  0  0  0
  3 85  1  0  0  0
  3 86  1  0  0  0
  4  5  1  0  0  0
  4 87  1  0  0  0
  4 88  1  0  0  0
  5  6  1  0  0  0
  5 26  1  0  0  0
  5 89  1  0  0  0
  6 25  1  0  0  0
  6 90  1  0  0  0
  6 91  1  0  0  0
  7  8  2  0  0  0
  7 26  1  0  0  0
  7 29  1  0  0  0
  8  9  1  0  0  0
  8 22  1  0  0  0
  9 10  1  0  0  0
  9 27  2  0  0  0
 10 11  2  0  0  0
 10 15  1  0  0  0
 11 12  1  0  0  0
 11 92  1  0  0  0
 12 13  2  0  0  0
 12 93  1  0  0  0
 13 14  1  0  0  0
 13 31  1  0  0  0
 14 15  2  0  0  0
 14 94  1  0  0  0
 15 95  1  0  0  0
 16 17  2  0  0  0
 16 21  1  0  0  0
 16 31  1  0  0  0
 17 18  1  0  0  0
 17 96  1  0  0  0
 18 19  2  0  0  0
 18 97  1  0  0  0
 19 20  1  0  0  0
 19 24  1  0  0  0
 20 21  2  0  0  0
 20 98  1  0  0  0
 21 23  1  0  0  0
 22 28  1  0  0  0
 22 32  2  0  0  0
 26 27  1  0  0  0
 28 99  1  0  0  0
 28100  1  0  0  0
 29101  1  0  0  0
 29102  1  0  0  0
 33 34  1  0  0  0
 33 66  1  0  0  0
 33 70  2  0  0  0
 34 36  1  0  0  0
 34 59  1  0  0  0
 34103  1  0  0  0
 35 44  2  0  0  0
 35 45  1  0  0  0
 35 68  1  0  0  0
 36 56  1  0  0  0
 36104  1  0  0  0
 37 39  1  0  0  0
 37 47  1  0  0  0
 37 66  1  0  0  0
 37105  1  0  0  0
 38 43  2  0  0  0
 38 46  1  0  0  0
 38 47  1  0  0  0
 39 64  1  0  0  0
 39 67  2  0  0  0
 40 52  1  0  0  0
 40 53  2  0  0  0
 40 58  1  0  0  0
 41106  1  0  0  0
 41107  1  0  0  0
 41108  1  0  0  0
 41 48  1  0  0  0
 42 43  1  0  0  0
 42 66  1  0  0  0
 42109  1  0  0  0
 42110  1  0  0  0
 43 44  1  0  0  0
 44111  1  0  0  0
 45 46  2  0  0  0
 45112  1  0  0  0
 46113  1  0  0  0
 47114  1  0  0  0
 47115  1  0  0  0
 48 56  1  0  0  0
 48 65  1  0  0  0
 48116  1  0  0  0
 49 50  1  0  0  0
 49 53  1  0  0  0
 49 64  1  0  0  0
 49117  1  0  0  0
 50 51  1  0  0  0
 50118  1  0  0  0
 50119  1  0  0  0
 51 52  1  0  0  0
 51120  1  0  0  0
 51121  1  0  0  0
 52122  1  0  0  0
 52123  1  0  0  0
 53 54  1  0  0  0
 54 55  2  0  0  0
 54124  1  0  0  0
 55 57  1  0  0  0
 55125  1  0  0  0
 56 69  2  0  0  0
 57 58  2  0  0  0
 57126  1  0  0  0
 58127  1  0  0  0
 59 60  1  0  0  0
 59 61  1  0  0  0
 59 62  1  0  0  0
 60128  1  0  0  0
 60129  1  0  0  0
 60130  1  0  0  0
 61131  1  0  0  0
 61132  1  0  0  0
 61133  1  0  0  0
 62134  1  0  0  0
 62135  1  0  0  0
 62136  1  0  0  0
 63 65  1  0  0  0
 63137  1  0  0  0
 63138  1  0  0  0
 63139  1  0  0  0
 64140  1  0  0  0
 65141  1  0  0  0
 68 82  1  0  0  0
 71 74  2  0  0  0
 71 75  1  0  0  0
 71142  1  0  0  0
 72 74  1  0  0  0
 72 76  2  0  0  0
 72143  1  0  0  0
 73 75  2  0  0  0
 73 76  1  0  0  0
 73144  1  0  0  0
 74 77  1  0  0  0
 75 79  1  0  0  0
 76 80  1  0  0  0
 77 78  2  0  0  0
 77145  1  0  0  0
 78146  1  0  0  0
 79147  1  0  0  0
 79148  1  0  0  0
 79149  1  0  0  0
 80 81  1  0  0  0
 80150  1  0  0  0
 80151  1  0  0  0
 81 82  1  0  0  0
 81152  1  0  0  0
 81153  1  0  0  0
 82154  1  0  0  0
 82155  1  0  0  0
M  ISO  4   1 100  68 101  78 100  82 101
M  END
> <chiral flag>
0

> <version>
0

> <s_m_source_file>
/data/baiqing/PycharmProjects/Reinvent-master-3.2/result/LINK_invent/BTK/process_docking_weight1_custom_product_contain_oxygen_bond_distance_aromatic_linkinvent_7_9_3/rearranged_h_0126.sdf

> <i_m_source_file_index>
75

> <r_mmod_Potential_Energy-OPLS-2005>
128.596740722656

> <r_mmod_Stretch_Energy-OPLS-2005>
103.473365783691

> <r_mmod_Bend_Energy-OPLS-2005>
149.711090087891

> <r_mmod_Torsional_Energy-OPLS-2005>
190.077835083008

> <r_mmod_Improper_Torsional_Energy-OPLS-2005>
3.44052672386169

> <r_mmod_Van_der_Waal_Energy-OPLS-2005>
143.842575073242

> <r_mmod_Electrostatic_Energy-OPLS-2005>
-336.85693359375

> <r_mmod_Solvation_Energy-OPLS-2005>
-191.578277587891

> <b_mmod_Minimization_Converged-OPLS-2005>
0

> <r_mmod_RMS_Derivative-OPLS-2005>
4.28816509246826

$$$$
75
                    3D
 Structure written by MMmdl.
156164  0  0  1  0            999 V2000
  -30.6319  -14.6595   20.4792 C   0  0  0  0  0  0
  -30.4450  -12.4026   19.4509 C   0  0  0  0  0  0
  -29.5100  -12.5000   18.2250 C   0  0  0  0  0  0
  -28.0344  -12.3299   18.6408 C   0  0  0  0  0  0
  -27.6515  -13.2092   19.8601 C   0  0  2  0  0  0
  -28.7041  -13.0945   20.9875 C   0  0  0  0  0  0
  -25.2507  -13.8046   20.5677 C   0  0  0  0  0  0
  -24.1796  -13.0338   20.9219 C   0  0  0  0  0  0
  -24.6390  -11.6829   20.8765 C   0  0  0  0  0  0
  -23.9060  -10.4235   21.0414 C   0  0  0  0  0  0
  -24.3608   -9.4157   21.9193 C   0  0  0  0  0  0
  -23.6271   -8.2205   22.0758 C   0  0  0  0  0  0
  -22.4254   -8.0257   21.3547 C   0  0  0  0  0  0
  -21.9889   -9.0233   20.4653 C   0  0  0  0  0  0
  -22.7230  -10.2101   20.3061 C   0  0  0  0  0  0
  -21.6840   -6.0716   22.5276 C   0  0  0  0  0  0
  -21.4010   -6.5626   23.8209 C   0  0  0  0  0  0
  -21.3651   -5.6778   24.9172 C   0  0  0  0  0  0
  -21.6037   -4.3042   24.7227 C   0  0  0  0  0  0
  -21.8825   -3.8132   23.4350 C   0  0  0  0  0  0
  -21.9193   -4.6945   22.3401 C   0  0  0  0  0  0
  -22.7824  -13.5162   21.1857 C   0  0  0  0  0  0
  -22.1660   -4.2133   21.0979 F   0  0  0  0  0  0
  -21.5624   -3.4530   25.7744 F   0  0  0  0  0  0
  -30.0167  -13.4353   20.4136 N   0  0  0  0  0  0
  -26.2979  -12.9263   20.3330 N   0  0  0  0  0  0
  -25.9324  -11.6431   20.5786 N   0  0  0  0  0  0
  -22.0458  -12.8199   22.0433 N   0  0  0  0  0  0
  -25.4060  -15.1733   20.4011 N   0  0  0  0  0  0
  -31.8129  -14.8047   20.1533 O   0  0  0  0  0  0
  -21.6616   -6.8858   21.4239 O   0  0  0  0  0  0
  -22.3529  -14.5472   20.6688 O   0  0  0  0  0  0
  -24.6257  -31.8606   23.2039 C   0  0  0  0  0  0
  -25.9115  -32.4778   23.8359 C   0  0  1  0  0  0
  -27.2364  -27.3353   20.1115 C   0  0  0  0  0  0
  -25.5942  -33.8577   24.2286 N   0  0  0  0  0  0
  -23.4191  -30.4821   21.5472 C   0  0  2  0  0  0
  -24.8675  -28.9400   20.1122 C   0  0  0  0  0  0
  -22.7478  -29.4613   22.4964 C   0  0  0  0  0  0
  -18.0291  -28.1390   22.8482 C   0  0  0  0  0  0
  -24.1485  -36.7273   23.2629 C   0  0  0  0  0  0
  -25.9588  -30.7949   21.3750 C   0  0  0  0  0  0
  -26.0350  -29.4239   20.7160 C   0  0  0  0  0  0
  -27.2206  -28.6324   20.7075 C   0  0  0  0  0  0
  -26.0432  -26.9014   19.4847 C   0  0  0  0  0  0
  -24.8732  -27.6833   19.4890 C   0  0  0  0  0  0
  -23.6330  -29.8162   20.1630 C   0  0  0  0  0  0
  -25.4105  -36.3066   24.0326 C   0  0  1  0  0  0
  -20.5886  -28.3683   23.1296 C   0  0  2  0  0  0
  -20.6782  -26.9408   22.5423 C   0  0  0  0  0  0
  -19.5761  -26.6384   21.5219 C   0  0  0  0  0  0
  -18.1934  -26.7938   22.1613 C   0  0  0  0  0  0
  -19.1541  -28.8860   23.2879 C   0  0  0  0  0  0
  -18.9458  -30.1462   23.8890 C   0  0  0  0  0  0
  -17.6458  -30.6587   24.0571 C   0  0  0  0  0  0
  -25.9055  -34.9445   23.5102 C   0  0  0  0  0  0
  -16.5350  -29.9083   23.6334 C   0  0  0  0  0  0
  -16.7275  -28.6504   23.0345 C   0  0  0  0  0  0
  -26.4496  -31.6582   25.0727 C   0  0  0  0  0  0
  -25.3730  -31.3746   26.1461 C   0  0  0  0  0  0
  -27.0318  -30.2995   24.6186 C   0  0  0  0  0  0
  -27.6070  -32.4307   25.7479 C   0  0  0  0  0  0
  -27.5589  -37.1762   24.8439 C   0  0  0  0  0  0
  -21.4194  -29.3026   22.3692 N   0  0  0  0  0  0
  -26.4269  -37.3777   23.9433 N   0  0  0  0  0  0
  -24.6859  -31.0624   22.0985 N   0  0  0  0  0  0
  -23.4199  -28.8162   23.3051 O   0  0  0  0  0  0
  -28.3663  -26.5038   20.1603 O   0  0  0  0  0  0
  -26.5616  -34.8913   22.4661 O   0  0  0  0  0  0
  -23.5425  -32.1405   23.7374 O   0  0  0  0  0  0
  -28.9872  -19.4053   20.0268 C   0  0  0  0  0  0
  -31.0742  -17.8896   21.1047 C   0  0  0  0  0  0
  -30.0622  -20.1282   20.5957 C   0  0  0  0  0  0
  -28.9348  -17.9821   20.0131 C   0  0  0  0  0  0
  -31.1239  -19.3218   21.1192 C   0  0  0  0  0  0
  -29.9697  -17.1760   20.5750 C   0  0  0  0  0  0
  -30.0738  -21.6556   20.6588 C   0  0  0  0  0  0
  -29.1563  -22.5824   20.2275 C   0  0  0  0  0  0
  -29.3151  -24.0901   20.3767 C   0  0  0  0  0  0
  -27.7107  -17.3480   19.3903 C   0  0  0  0  0  0
  -32.3446  -19.9774   21.7439 C   0  0  0  0  0  0
  -28.1612  -25.0588   19.9188 C   0  0  0  0  0  0
  -29.7982  -15.7249   20.7001 N   0  0  0  0  0  0
  -30.3398  -24.5872   20.8570 O   0  0  0  0  0  0
  -31.4839  -12.5325   19.1434 H   0  0  0  0  0  0
  -30.3880  -11.4132   19.9083 H   0  0  0  0  0  0
  -29.7791  -11.7437   17.4865 H   0  0  0  0  0  0
  -29.6438  -13.4656   17.7352 H   0  0  0  0  0  0
  -27.8811  -11.2777   18.8845 H   0  0  0  0  0  0
  -27.3775  -12.5457   17.7975 H   0  0  0  0  0  0
  -27.6553  -14.2355   19.5012 H   0  0  0  0  0  0
  -28.7250  -12.0816   21.3935 H   0  0  0  0  0  0
  -28.4525  -13.7473   21.8248 H   0  0  0  0  0  0
  -25.2754   -9.5617   22.4769 H   0  0  0  0  0  0
  -23.9973   -7.4588   22.7468 H   0  0  0  0  0  0
  -21.0820   -8.8759   19.8959 H   0  0  0  0  0  0
  -22.3699  -10.9645   19.6171 H   0  0  0  0  0  0
  -21.2007   -7.6134   23.9708 H   0  0  0  0  0  0
  -21.1458   -6.0509   25.9072 H   0  0  0  0  0  0
  -22.0616   -2.7594   23.2860 H   0  0  0  0  0  0
  -22.4049  -11.9868   22.4853 H   0  0  0  0  0  0
  -21.1080  -13.1254   22.2613 H   0  0  0  0  0  0
  -24.6204  -15.8095   20.4835 H   0  0  0  0  0  0
  -26.2250  -15.6054   19.9993 H   0  0  0  0  0  0
  -26.7181  -32.5454   23.1104 H   0  0  0  0  0  0
  -25.0112  -33.9728   25.0447 H   0  0  0  0  0  0
  -22.7112  -31.3011   21.4052 H   0  0  0  0  0  0
  -23.3772  -35.9576   23.3238 H   0  0  0  0  0  0
  -24.3594  -36.8952   22.2054 H   0  0  0  0  0  0
  -23.7204  -37.6440   23.6691 H   0  0  0  0  0  0
  -26.0929  -31.5614   20.6105 H   0  0  0  0  0  0
  -26.8376  -30.8401   22.0067 H   0  0  0  0  0  0
  -28.1155  -29.0009   21.1900 H   0  0  0  0  0  0
  -25.9848  -25.9445   18.9883 H   0  0  0  0  0  0
  -23.9795  -27.3072   19.0104 H   0  0  0  0  0  0
  -23.7469  -30.5915   19.4042 H   0  0  0  0  0  0
  -22.7542  -29.2414   19.8642 H   0  0  0  0  0  0
  -25.1274  -36.1901   25.0814 H   0  0  0  0  0  0
  -20.9967  -28.3264   24.1420 H   0  0  0  0  0  0
  -20.5687  -26.2286   23.3617 H   0  0  0  0  0  0
  -21.6655  -26.7453   22.1214 H   0  0  0  0  0  0
  -19.6920  -25.6298   21.1242 H   0  0  0  0  0  0
  -19.6702  -27.3199   20.6754 H   0  0  0  0  0  0
  -17.4213  -26.6702   21.4004 H   0  0  0  0  0  0
  -18.0307  -26.0079   22.8998 H   0  0  0  0  0  0
  -19.7938  -30.7290   24.2242 H   0  0  0  0  0  0
  -17.5009  -31.6262   24.5188 H   0  0  0  0  0  0
  -15.5345  -30.2971   23.7671 H   0  0  0  0  0  0
  -15.8678  -28.0824   22.7053 H   0  0  0  0  0  0
  -24.5902  -30.7084   25.7812 H   0  0  0  0  0  0
  -24.8921  -32.2924   26.4853 H   0  0  0  0  0  0
  -25.8056  -30.8954   27.0251 H   0  0  0  0  0  0
  -26.2881  -29.6754   24.1212 H   0  0  0  0  0  0
  -27.4004  -29.7245   25.4692 H   0  0  0  0  0  0
  -27.8759  -30.4261   23.9405 H   0  0  0  0  0  0
  -27.2703  -33.3612   26.2061 H   0  0  0  0  0  0
  -28.3862  -32.6862   25.0284 H   0  0  0  0  0  0
  -28.0751  -31.8429   26.5385 H   0  0  0  0  0  0
  -28.2535  -38.0132   24.7611 H   0  0  0  0  0  0
  -28.1157  -36.2677   24.6088 H   0  0  0  0  0  0
  -27.2343  -37.1206   25.8847 H   0  0  0  0  0  0
  -20.9388  -29.8699   21.6852 H   0  0  0  0  0  0
  -26.0140  -38.2824   24.1537 H   0  0  0  0  0  0
  -28.1596  -19.9548   19.6012 H   0  0  0  0  0  0
  -31.8858  -17.3307   21.5495 H   0  0  0  0  0  0
  -30.9500  -22.0745   21.1302 H   0  0  0  0  0  0
  -28.2493  -22.2480   19.7478 H   0  0  0  0  0  0
  -27.2756  -17.9949   18.6283 H   0  0  0  0  0  0
  -26.9656  -17.2032   20.1681 H   0  0  0  0  0  0
  -27.9431  -16.3998   18.9088 H   0  0  0  0  0  0
  -33.1233  -19.2482   21.9693 H   0  0  0  0  0  0
  -32.0736  -20.4738   22.6763 H   0  0  0  0  0  0
  -32.7796  -20.7156   21.0697 H   0  0  0  0  0  0
  -27.2578  -24.7311   20.4340 H   0  0  0  0  0  0
  -27.9955  -24.9024   18.8526 H   0  0  0  0  0  0
  -28.8448  -15.4315   20.8400 H   0  0  0  0  0  0
  1 25  1  0  0  0
  1 30  2  0  0  0
  1 83  1  0  0  0
  2  3  1  0  0  0
  2 25  1  0  0  0
  2 85  1  0  0  0
  2 86  1  0  0  0
  3  4  1  0  0  0
  3 87  1  0  0  0
  3 88  1  0  0  0
  4  5  1  0  0  0
  4 89  1  0  0  0
  4 90  1  0  0  0
  5  6  1  0  0  0
  5 26  1  0  0  0
  5 91  1  0  0  0
  6 25  1  0  0  0
  6 92  1  0  0  0
  6 93  1  0  0  0
  7  8  2  0  0  0
  7 26  1  0  0  0
  7 29  1  0  0  0
  8  9  1  0  0  0
  8 22  1  0  0  0
  9 10  1  0  0  0
  9 27  2  0  0  0
 10 11  2  0  0  0
 10 15  1  0  0  0
 11 12  1  0  0  0
 11 94  1  0  0  0
 12 13  2  0  0  0
 12 95  1  0  0  0
 13 14  1  0  0  0
 13 31  1  0  0  0
 14 15  2  0  0  0
 14 96  1  0  0  0
 15 97  1  0  0  0
 16 17  2  0  0  0
 16 21  1  0  0  0
 16 31  1  0  0  0
 17 18  1  0  0  0
 17 98  1  0  0  0
 18 19  2  0  0  0
 18 99  1  0  0  0
 19 20  1  0  0  0
 19 24  1  0  0  0
 20 21  2  0  0  0
 20100  1  0  0  0
 21 23  1  0  0  0
 22 28  1  0  0  0
 22 32  2  0  0  0
 26 27  1  0  0  0
 28101  1  0  0  0
 28102  1  0  0  0
 29103  1  0  0  0
 29104  1  0  0  0
 33 34  1  0  0  0
 33 66  1  0  0  0
 33 70  2  0  0  0
 34 36  1  0  0  0
 34 59  1  0  0  0
 34105  1  0  0  0
 35 44  2  0  0  0
 35 45  1  0  0  0
 35 68  1  0  0  0
 36 56  1  0  0  0
 36106  1  0  0  0
 37 39  1  0  0  0
 37 47  1  0  0  0
 37 66  1  0  0  0
 37107  1  0  0  0
 38 43  2  0  0  0
 38 46  1  0  0  0
 38 47  1  0  0  0
 39 64  1  0  0  0
 39 67  2  0  0  0
 40 52  1  0  0  0
 40 53  2  0  0  0
 40 58  1  0  0  0
 41108  1  0  0  0
 41109  1  0  0  0
 41110  1  0  0  0
 41 48  1  0  0  0
 42 43  1  0  0  0
 42 66  1  0  0  0
 42111  1  0  0  0
 42112  1  0  0  0
 43 44  1  0  0  0
 44113  1  0  0  0
 45 46  2  0  0  0
 45114  1  0  0  0
 46115  1  0  0  0
 47116  1  0  0  0
 47117  1  0  0  0
 48 56  1  0  0  0
 48 65  1  0  0  0
 48118  1  0  0  0
 49 50  1  0  0  0
 49 53  1  0  0  0
 49 64  1  0  0  0
 49119  1  0  0  0
 50 51  1  0  0  0
 50120  1  0  0  0
 50121  1  0  0  0
 51 52  1  0  0  0
 51122  1  0  0  0
 51123  1  0  0  0
 52124  1  0  0  0
 52125  1  0  0  0
 53 54  1  0  0  0
 54 55  2  0  0  0
 54126  1  0  0  0
 55 57  1  0  0  0
 55127  1  0  0  0
 56 69  2  0  0  0
 57 58  2  0  0  0
 57128  1  0  0  0
 58129  1  0  0  0
 59 60  1  0  0  0
 59 61  1  0  0  0
 59 62  1  0  0  0
 60130  1  0  0  0
 60131  1  0  0  0
 60132  1  0  0  0
 61133  1  0  0  0
 61134  1  0  0  0
 61135  1  0  0  0
 62136  1  0  0  0
 62137  1  0  0  0
 62138  1  0  0  0
 63 65  1  0  0  0
 63139  1  0  0  0
 63140  1  0  0  0
 63141  1  0  0  0
 64142  1  0  0  0
 65143  1  0  0  0
 68 82  1  0  0  0
 71 73  2  0  0  0
 71 74  1  0  0  0
 71144  1  0  0  0
 72 75  2  0  0  0
 72 76  1  0  0  0
 72145  1  0  0  0
 73 75  1  0  0  0
 73 77  1  0  0  0
 74 76  2  0  0  0
 74 80  1  0  0  0
 75 81  1  0  0  0
 76 83  1  0  0  0
 77 78  2  0  0  0
 77146  1  0  0  0
 78 79  1  0  0  0
 78147  1  0  0  0
 79 82  1  0  0  0
 79 84  2  0  0  0
 80148  1  0  0  0
 80149  1  0  0  0
 80150  1  0  0  0
 81151  1  0  0  0
 81152  1  0  0  0
 81153  1  0  0  0
 82154  1  0  0  0
 82155  1  0  0  0
 83156  1  0  0  0
M  ISO  4   1 100  68 101  82 101  83 100
M  END
> <chiral flag>
0

> <version>
0

> <s_m_source_file>
/data/baiqing/PycharmProjects/Reinvent-master-3.2/result/LINK_invent/BTK/process_docking_weight1_custom_product_contain_oxygen_bond_distance_aromatic_linkinvent_7_9_3/rearranged_h_0126.sdf

> <i_m_source_file_index>
76

> <r_mmod_Potential_Energy-OPLS-2005>
24.522798538208

> <r_mmod_Stretch_Energy-OPLS-2005>
77.4946975708008

> <r_mmod_Bend_Energy-OPLS-2005>
125.806518554688

> <r_mmod_Torsional_Energy-OPLS-2005>
221.377655029297

> <r_mmod_Improper_Torsional_Energy-OPLS-2005>
6.28826427459717

> <r_mmod_Van_der_Waal_Energy-OPLS-2005>
148.627822875977

> <r_mmod_Electrostatic_Energy-OPLS-2005>
-373.253875732422

> <r_mmod_Solvation_Energy-OPLS-2005>
-231.828826904297

> <b_mmod_Minimization_Converged-OPLS-2005>
0

> <r_mmod_RMS_Derivative-OPLS-2005>
1.32577395439148

$$$$
76
                    3D
 Structure written by MMmdl.
158166  0  0  1  0            999 V2000
  -30.7742  -14.4338   20.5611 C   0  0  0  0  0  0
  -30.4018  -12.2801   19.4348 C   0  0  0  0  0  0
  -29.4998  -12.5279   18.2108 C   0  0  0  0  0  0
  -28.0141  -12.4024   18.6021 C   0  0  0  0  0  0
  -27.6639  -13.2158   19.8781 C   0  0  2  0  0  0
  -28.7007  -12.9632   20.9948 C   0  0  0  0  0  0
  -25.2574  -13.8167   20.5651 C   0  0  0  0  0  0
  -24.1849  -13.0456   20.9182 C   0  0  0  0  0  0
  -24.6407  -11.6919   20.8729 C   0  0  0  0  0  0
  -23.9070  -10.4307   21.0403 C   0  0  0  0  0  0
  -24.3617   -9.4213   21.9176 C   0  0  0  0  0  0
  -23.6305   -8.2235   22.0750 C   0  0  0  0  0  0
  -22.4294   -8.0265   21.3542 C   0  0  0  0  0  0
  -21.9924   -9.0236   20.4643 C   0  0  0  0  0  0
  -22.7237  -10.2123   20.3060 C   0  0  0  0  0  0
  -21.6856   -6.0723   22.5279 C   0  0  0  0  0  0
  -21.4004   -6.5622   23.8214 C   0  0  0  0  0  0
  -21.3685   -5.6783   24.9176 C   0  0  0  0  0  0
  -21.6062   -4.3041   24.7225 C   0  0  0  0  0  0
  -21.8821   -3.8136   23.4347 C   0  0  0  0  0  0
  -21.9189   -4.6960   22.3401 C   0  0  0  0  0  0
  -22.7862  -13.5248   21.1840 C   0  0  0  0  0  0
  -22.1666   -4.2139   21.0979 F   0  0  0  0  0  0
  -21.5630   -3.4531   25.7741 F   0  0  0  0  0  0
  -30.0421  -13.2778   20.4662 N   0  0  0  0  0  0
  -26.3028  -12.9369   20.3337 N   0  0  0  0  0  0
  -25.9329  -11.6515   20.5730 N   0  0  0  0  0  0
  -22.0476  -12.8275   22.0382 N   0  0  0  0  0  0
  -25.4286  -15.1896   20.4024 N   0  0  0  0  0  0
  -31.8406  -14.5460   19.9525 O   0  0  0  0  0  0
  -21.6651   -6.8870   21.4244 O   0  0  0  0  0  0
  -22.3560  -14.5551   20.6668 O   0  0  0  0  0  0
  -24.6115  -31.8701   23.2141 C   0  0  0  0  0  0
  -25.9030  -32.4834   23.8400 C   0  0  1  0  0  0
  -27.2294  -27.4626   20.0862 C   0  0  0  0  0  0
  -25.5895  -33.8632   24.2341 N   0  0  0  0  0  0
  -23.3994  -30.4981   21.5504 C   0  0  2  0  0  0
  -24.8451  -28.9741   20.1051 C   0  0  0  0  0  0
  -22.7408  -29.4672   22.4965 C   0  0  0  0  0  0
  -18.0276  -28.1379   22.8487 C   0  0  0  0  0  0
  -24.1478  -36.7328   23.2638 C   0  0  0  0  0  0
  -25.9258  -30.8426   21.3651 C   0  0  0  0  0  0
  -26.0036  -29.4806   20.7096 C   0  0  0  0  0  0
  -27.1998  -28.7305   20.7036 C   0  0  0  0  0  0
  -26.0630  -26.9742   19.4606 C   0  0  0  0  0  0
  -24.8699  -27.7175   19.4765 C   0  0  0  0  0  0
  -23.6080  -29.8401   20.1603 C   0  0  0  0  0  0
  -25.4091  -36.3124   24.0350 C   0  0  1  0  0  0
  -20.5861  -28.3671   23.1306 C   0  0  2  0  0  0
  -20.6777  -26.9411   22.5414 C   0  0  0  0  0  0
  -19.5769  -26.6387   21.5200 C   0  0  0  0  0  0
  -18.1936  -26.7927   22.1609 C   0  0  0  0  0  0
  -19.1523  -28.8838   23.2899 C   0  0  0  0  0  0
  -18.9447  -30.1425   23.8932 C   0  0  0  0  0  0
  -17.6462  -30.6589   24.0561 C   0  0  0  0  0  0
  -25.9020  -34.9491   23.5140 C   0  0  0  0  0  0
  -16.5350  -29.9108   23.6300 C   0  0  0  0  0  0
  -16.7260  -28.6515   23.0336 C   0  0  0  0  0  0
  -26.4471  -31.6601   25.0710 C   0  0  0  0  0  0
  -25.3744  -31.3718   26.1469 C   0  0  0  0  0  0
  -27.0278  -30.3040   24.6043 C   0  0  0  0  0  0
  -27.6053  -32.4304   25.7477 C   0  0  0  0  0  0
  -27.5574  -37.1825   24.8465 C   0  0  0  0  0  0
  -21.4132  -29.3062   22.3736 N   0  0  0  0  0  0
  -26.4283  -37.3806   23.9417 N   0  0  0  0  0  0
  -24.6637  -31.0829   22.1027 N   0  0  0  0  0  0
  -23.4199  -28.8194   23.2987 O   0  0  0  0  0  0
  -28.3687  -26.6949   20.1095 O   0  0  0  0  0  0
  -26.5578  -34.8942   22.4694 O   0  0  0  0  0  0
  -23.5307  -32.1443   23.7540 O   0  0  0  0  0  0
  -31.4961  -19.6461   20.1804 C   0  0  0  0  0  0
  -31.9979  -17.3131   20.5741 C   0  0  0  0  0  0
  -30.1499  -19.4404   20.5467 C   0  0  0  0  0  0
  -30.6468  -17.0225   20.8942 C   0  0  0  0  0  0
  -29.7040  -18.1057   20.8244 C   0  0  0  0  0  0
  -32.4064  -18.5876   20.1680 C   0  0  0  0  0  0
  -29.2981  -20.6420   20.7621 C   0  0  0  0  0  0
  -29.7435  -21.9047   20.9588 C   0  0  0  0  0  0
  -30.2755  -15.6371   21.3939 C   0  0  0  0  0  0
  -28.2155  -17.8343   21.0651 C   0  0  0  0  0  0
  -28.8489  -23.0906   21.2709 C   0  0  0  0  0  0
  -29.2303  -24.4058   20.5598 C   0  0  0  0  0  0
  -28.1832  -25.4884   20.8583 C   0  0  0  0  0  0
  -29.6137  -15.5283   22.4696 N   0  0  0  0  0  0
  -33.6947  -18.8099   19.8171 F   0  0  0  0  0  0
  -31.4556  -12.3058   19.1513 H   0  0  0  0  0  0
  -30.2440  -11.2680   19.8107 H   0  0  0  0  0  0
  -29.7364  -11.8251   17.4114 H   0  0  0  0  0  0
  -29.6905  -13.5256   17.8095 H   0  0  0  0  0  0
  -27.7981  -11.3438   18.7586 H   0  0  0  0  0  0
  -27.3785  -12.7170   17.7725 H   0  0  0  0  0  0
  -27.7185  -14.2737   19.6134 H   0  0  0  0  0  0
  -28.6689  -11.9115   21.2832 H   0  0  0  0  0  0
  -28.4318  -13.4937   21.9016 H   0  0  0  0  0  0
  -25.2767   -9.5694   22.4755 H   0  0  0  0  0  0
  -24.0029   -7.4640   22.7485 H   0  0  0  0  0  0
  -21.0845   -8.8744   19.8953 H   0  0  0  0  0  0
  -22.3683  -10.9659   19.6169 H   0  0  0  0  0  0
  -21.1978   -7.6134   23.9717 H   0  0  0  0  0  0
  -21.1536   -6.0506   25.9087 H   0  0  0  0  0  0
  -22.0593   -2.7595   23.2844 H   0  0  0  0  0  0
  -22.4053  -11.9945   22.4830 H   0  0  0  0  0  0
  -21.1072  -13.1292   22.2489 H   0  0  0  0  0  0
  -24.6700  -15.8513   20.5252 H   0  0  0  0  0  0
  -26.2871  -15.6204   20.0845 H   0  0  0  0  0  0
  -26.7112  -32.5576   23.1174 H   0  0  0  0  0  0
  -25.0069  -33.9789   25.0500 H   0  0  0  0  0  0
  -22.6867  -31.3134   21.4148 H   0  0  0  0  0  0
  -23.3737  -35.9670   23.3329 H   0  0  0  0  0  0
  -24.3578  -36.8909   22.2049 H   0  0  0  0  0  0
  -23.7238  -37.6548   23.6631 H   0  0  0  0  0  0
  -26.0301  -31.6089   20.5954 H   0  0  0  0  0  0
  -26.8174  -30.8977   21.9797 H   0  0  0  0  0  0
  -28.0881  -29.1105   21.1881 H   0  0  0  0  0  0
  -26.0734  -26.0124   18.9660 H   0  0  0  0  0  0
  -23.9848  -27.3247   18.9930 H   0  0  0  0  0  0
  -23.7239  -30.6235   19.4096 H   0  0  0  0  0  0
  -22.7305  -29.2706   19.8512 H   0  0  0  0  0  0
  -25.1252  -36.2004   25.0844 H   0  0  0  0  0  0
  -20.9929  -28.3247   24.1430 H   0  0  0  0  0  0
  -20.5667  -26.2289   23.3614 H   0  0  0  0  0  0
  -21.6647  -26.7468   22.1206 H   0  0  0  0  0  0
  -19.6947  -25.6295   21.1248 H   0  0  0  0  0  0
  -19.6713  -27.3179   20.6719 H   0  0  0  0  0  0
  -17.4200  -26.6649   21.4020 H   0  0  0  0  0  0
  -18.0354  -26.0063   22.9000 H   0  0  0  0  0  0
  -19.7924  -30.7217   24.2356 H   0  0  0  0  0  0
  -17.5019  -31.6277   24.5153 H   0  0  0  0  0  0
  -15.5357  -30.3034   23.7595 H   0  0  0  0  0  0
  -15.8656  -28.0853   22.7036 H   0  0  0  0  0  0
  -24.5846  -30.7139   25.7819 H   0  0  0  0  0  0
  -24.9009  -32.2903   26.4975 H   0  0  0  0  0  0
  -25.8092  -30.8832   27.0202 H   0  0  0  0  0  0
  -26.2794  -29.6849   24.1074 H   0  0  0  0  0  0
  -27.4021  -29.7224   25.4471 H   0  0  0  0  0  0
  -27.8661  -30.4383   23.9201 H   0  0  0  0  0  0
  -27.2636  -33.3577   26.2103 H   0  0  0  0  0  0
  -28.3847  -32.6909   25.0312 H   0  0  0  0  0  0
  -28.0732  -31.8401   26.5366 H   0  0  0  0  0  0
  -28.2596  -38.0112   24.7470 H   0  0  0  0  0  0
  -28.1051  -36.2634   24.6316 H   0  0  0  0  0  0
  -27.2294  -37.1516   25.8869 H   0  0  0  0  0  0
  -20.9282  -29.8838   21.7013 H   0  0  0  0  0  0
  -26.0182  -38.2890   24.1419 H   0  0  0  0  0  0
  -31.8698  -20.6259   19.9249 H   0  0  0  0  0  0
  -32.7714  -16.5648   20.6360 H   0  0  0  0  0  0
  -28.2311  -20.4958   20.7815 H   0  0  0  0  0  0
  -30.8006  -22.1314   20.9469 H   0  0  0  0  0  0
  -27.5642  -18.5303   20.5399 H   0  0  0  0  0  0
  -27.9756  -17.8616   22.1293 H   0  0  0  0  0  0
  -27.9261  -16.8544   20.6834 H   0  0  0  0  0  0
  -28.8869  -23.2539   22.3489 H   0  0  0  0  0  0
  -27.8185  -22.8204   21.0368 H   0  0  0  0  0  0
  -29.2993  -24.2455   19.4837 H   0  0  0  0  0  0
  -30.2102  -24.7469   20.8933 H   0  0  0  0  0  0
  -28.2041  -25.7387   21.9212 H   0  0  0  0  0  0
  -27.2033  -25.0494   20.6697 H   0  0  0  0  0  0
  -29.4040  -16.4438   22.8449 H   0  0  0  0  0  0
  1 25  1  0  0  0
  1 30  2  0  0  0
  1 79  1  0  0  0
  2  3  1  0  0  0
  2 25  1  0  0  0
  2 86  1  0  0  0
  2 87  1  0  0  0
  3  4  1  0  0  0
  3 88  1  0  0  0
  3 89  1  0  0  0
  4  5  1  0  0  0
  4 90  1  0  0  0
  4 91  1  0  0  0
  5  6  1  0  0  0
  5 26  1  0  0  0
  5 92  1  0  0  0
  6 25  1  0  0  0
  6 93  1  0  0  0
  6 94  1  0  0  0
  7  8  2  0  0  0
  7 26  1  0  0  0
  7 29  1  0  0  0
  8  9  1  0  0  0
  8 22  1  0  0  0
  9 10  1  0  0  0
  9 27  2  0  0  0
 10 11  2  0  0  0
 10 15  1  0  0  0
 11 12  1  0  0  0
 11 95  1  0  0  0
 12 13  2  0  0  0
 12 96  1  0  0  0
 13 14  1  0  0  0
 13 31  1  0  0  0
 14 15  2  0  0  0
 14 97  1  0  0  0
 15 98  1  0  0  0
 16 17  2  0  0  0
 16 21  1  0  0  0
 16 31  1  0  0  0
 17 18  1  0  0  0
 17 99  1  0  0  0
 18 19  2  0  0  0
 18100  1  0  0  0
 19 20  1  0  0  0
 19 24  1  0  0  0
 20 21  2  0  0  0
 20101  1  0  0  0
 21 23  1  0  0  0
 22 28  1  0  0  0
 22 32  2  0  0  0
 26 27  1  0  0  0
 28102  1  0  0  0
 28103  1  0  0  0
 29104  1  0  0  0
 29105  1  0  0  0
 33 34  1  0  0  0
 33 66  1  0  0  0
 33 70  2  0  0  0
 34 36  1  0  0  0
 34 59  1  0  0  0
 34106  1  0  0  0
 35 44  2  0  0  0
 35 45  1  0  0  0
 35 68  1  0  0  0
 36 56  1  0  0  0
 36107  1  0  0  0
 37 39  1  0  0  0
 37 47  1  0  0  0
 37 66  1  0  0  0
 37108  1  0  0  0
 38 43  2  0  0  0
 38 46  1  0  0  0
 38 47  1  0  0  0
 39 64  1  0  0  0
 39 67  2  0  0  0
 40 52  1  0  0  0
 40 53  2  0  0  0
 40 58  1  0  0  0
 41109  1  0  0  0
 41110  1  0  0  0
 41111  1  0  0  0
 41 48  1  0  0  0
 42 43  1  0  0  0
 42 66  1  0  0  0
 42112  1  0  0  0
 42113  1  0  0  0
 43 44  1  0  0  0
 44114  1  0  0  0
 45 46  2  0  0  0
 45115  1  0  0  0
 46116  1  0  0  0
 47117  1  0  0  0
 47118  1  0  0  0
 48 56  1  0  0  0
 48 65  1  0  0  0
 48119  1  0  0  0
 49 50  1  0  0  0
 49 53  1  0  0  0
 49 64  1  0  0  0
 49120  1  0  0  0
 50 51  1  0  0  0
 50121  1  0  0  0
 50122  1  0  0  0
 51 52  1  0  0  0
 51123  1  0  0  0
 51124  1  0  0  0
 52125  1  0  0  0
 52126  1  0  0  0
 53 54  1  0  0  0
 54 55  2  0  0  0
 54127  1  0  0  0
 55 57  1  0  0  0
 55128  1  0  0  0
 56 69  2  0  0  0
 57 58  2  0  0  0
 57129  1  0  0  0
 58130  1  0  0  0
 59 60  1  0  0  0
 59 61  1  0  0  0
 59 62  1  0  0  0
 60131  1  0  0  0
 60132  1  0  0  0
 60133  1  0  0  0
 61134  1  0  0  0
 61135  1  0  0  0
 61136  1  0  0  0
 62137  1  0  0  0
 62138  1  0  0  0
 62139  1  0  0  0
 63 65  1  0  0  0
 63140  1  0  0  0
 63141  1  0  0  0
 63142  1  0  0  0
 64143  1  0  0  0
 65144  1  0  0  0
 68 83  1  0  0  0
 71 73  2  0  0  0
 71 76  1  0  0  0
 71145  1  0  0  0
 72 74  1  0  0  0
 72 76  2  0  0  0
 72146  1  0  0  0
 73 75  1  0  0  0
 73 77  1  0  0  0
 74 75  2  0  0  0
 74 79  1  0  0  0
 75 80  1  0  0  0
 76 85  1  0  0  0
 77 78  2  0  0  0
 77147  1  0  0  0
 78 81  1  0  0  0
 78148  1  0  0  0
 79 84  2  0  0  0
 80149  1  0  0  0
 80150  1  0  0  0
 80151  1  0  0  0
 81 82  1  0  0  0
 81152  1  0  0  0
 81153  1  0  0  0
 82 83  1  0  0  0
 82154  1  0  0  0
 82155  1  0  0  0
 83156  1  0  0  0
 83157  1  0  0  0
 84158  1  0  0  0
M  ISO  4   1 100  68 101  79 100  83 101
M  END
> <chiral flag>
0

> <version>
0

> <s_m_source_file>
/data/baiqing/PycharmProjects/Reinvent-master-3.2/result/LINK_invent/BTK/process_docking_weight1_custom_product_contain_oxygen_bond_distance_aromatic_linkinvent_7_9_3/rearranged_h_0126.sdf

> <i_m_source_file_index>
77

> <r_mmod_Potential_Energy-OPLS-2005>
153.760971069336

> <r_mmod_Stretch_Energy-OPLS-2005>
47.9189643859863

> <r_mmod_Bend_Energy-OPLS-2005>
110.471824645996

> <r_mmod_Torsional_Energy-OPLS-2005>
223.425277709961

> <r_mmod_Improper_Torsional_Energy-OPLS-2005>
3.19467616081238

> <r_mmod_Van_der_Waal_Energy-OPLS-2005>
182.894958496094

> <r_mmod_Electrostatic_Energy-OPLS-2005>
-243.715393066406

> <r_mmod_Solvation_Energy-OPLS-2005>
-184.063873291016

> <b_mmod_Minimization_Converged-OPLS-2005>
0

> <r_mmod_RMS_Derivative-OPLS-2005>
3.80270504951477

$$$$
77
                    3D
 Structure written by MMmdl.
153161  0  0  1  0            999 V2000
  -30.6125  -14.7184   20.4556 C   0  0  0  0  0  0
  -30.4219  -12.4298   19.4832 C   0  0  0  0  0  0
  -29.5099  -12.5252   18.2400 C   0  0  0  0  0  0
  -28.0308  -12.3595   18.6381 C   0  0  0  0  0  0
  -27.6451  -13.2353   19.8609 C   0  0  2  0  0  0
  -28.6858  -13.1423   21.0009 C   0  0  0  0  0  0
  -25.2488  -13.8200   20.5609 C   0  0  0  0  0  0
  -24.1789  -13.0444   20.9184 C   0  0  0  0  0  0
  -24.6378  -11.6922   20.8732 C   0  0  0  0  0  0
  -23.9050  -10.4301   21.0390 C   0  0  0  0  0  0
  -24.3598   -9.4224   21.9176 C   0  0  0  0  0  0
  -23.6271   -8.2262   22.0745 C   0  0  0  0  0  0
  -22.4250   -8.0294   21.3544 C   0  0  0  0  0  0
  -21.9887   -9.0260   20.4639 C   0  0  0  0  0  0
  -22.7217  -10.2143   20.3048 C   0  0  0  0  0  0
  -21.6859   -6.0730   22.5269 C   0  0  0  0  0  0
  -21.4033   -6.5631   23.8207 C   0  0  0  0  0  0
  -21.3668   -5.6782   24.9167 C   0  0  0  0  0  0
  -21.6053   -4.3045   24.7222 C   0  0  0  0  0  0
  -21.8815   -3.8136   23.4344 C   0  0  0  0  0  0
  -21.9192   -4.6955   22.3397 C   0  0  0  0  0  0
  -22.7819  -13.5227   21.1854 C   0  0  0  0  0  0
  -22.1638   -4.2136   21.0969 F   0  0  0  0  0  0
  -21.5637   -3.4530   25.7735 F   0  0  0  0  0  0
  -29.9979  -13.4848   20.4350 N   0  0  0  0  0  0
  -26.2943  -12.9416   20.3303 N   0  0  0  0  0  0
  -25.9322  -11.6553   20.5764 N   0  0  0  0  0  0
  -22.0473  -12.8220   22.0424 N   0  0  0  0  0  0
  -25.4166  -15.1903   20.3873 N   0  0  0  0  0  0
  -31.7703  -14.8342   20.0444 O   0  0  0  0  0  0
  -21.6638   -6.8875   21.4230 O   0  0  0  0  0  0
  -22.3505  -14.5537   20.6706 O   0  0  0  0  0  0
  -24.6323  -31.8556   23.1993 C   0  0  0  0  0  0
  -25.9148  -32.4757   23.8327 C   0  0  1  0  0  0
  -27.2150  -27.2561   20.1207 C   0  0  0  0  0  0
  -25.5948  -33.8563   24.2254 N   0  0  0  0  0  0
  -23.4288  -30.4816   21.5429 C   0  0  2  0  0  0
  -24.8753  -28.9341   20.1040 C   0  0  0  0  0  0
  -22.7500  -29.4623   22.4906 C   0  0  0  0  0  0
  -18.0292  -28.1391   22.8476 C   0  0  0  0  0  0
  -24.1503  -36.7291   23.2643 C   0  0  0  0  0  0
  -25.9774  -30.7639   21.3849 C   0  0  0  0  0  0
  -26.0471  -29.3882   20.7235 C   0  0  0  0  0  0
  -27.2163  -28.5593   20.7269 C   0  0  0  0  0  0
  -26.0233  -26.8891   19.4493 C   0  0  0  0  0  0
  -24.8700  -27.6925   19.4570 C   0  0  0  0  0  0
  -23.6475  -29.8213   20.1569 C   0  0  0  0  0  0
  -25.4129  -36.3079   24.0332 C   0  0  1  0  0  0
  -20.5896  -28.3713   23.1255 C   0  0  2  0  0  0
  -20.6797  -26.9426   22.5406 C   0  0  0  0  0  0
  -19.5777  -26.6378   21.5210 C   0  0  0  0  0  0
  -18.1947  -26.7924   22.1611 C   0  0  0  0  0  0
  -19.1544  -28.8860   23.2863 C   0  0  0  0  0  0
  -18.9471  -30.1446   23.8905 C   0  0  0  0  0  0
  -17.6474  -30.6591   24.0554 C   0  0  0  0  0  0
  -25.9064  -34.9447   23.5095 C   0  0  0  0  0  0
  -16.5365  -29.9093   23.6327 C   0  0  0  0  0  0
  -16.7281  -28.6513   23.0351 C   0  0  0  0  0  0
  -26.4506  -31.6578   25.0711 C   0  0  0  0  0  0
  -25.3724  -31.3743   26.1424 C   0  0  0  0  0  0
  -27.0324  -30.2988   24.6202 C   0  0  0  0  0  0
  -27.6091  -32.4293   25.7453 C   0  0  0  0  0  0
  -27.5588  -37.1799   24.8457 C   0  0  0  0  0  0
  -21.4207  -29.3061   22.3639 N   0  0  0  0  0  0
  -26.4306  -37.3770   23.9399 N   0  0  0  0  0  0
  -24.6986  -31.0511   22.0982 N   0  0  0  0  0  0
  -23.4191  -28.8161   23.3008 O   0  0  0  0  0  0
  -28.2886  -26.3306   20.2038 O   0  0  0  0  0  0
  -26.5632  -34.8917   22.4662 O   0  0  0  0  0  0
  -23.5478  -32.1391   23.7291 O   0  0  0  0  0  0
  -29.3367  -19.6082   18.7041 C   0  0  0  0  0  0
  -29.7059  -18.4497   20.8115 C   0  0  0  0  0  0
  -29.6458  -17.1660   18.7474 C   0  0  0  0  0  0
  -29.4969  -19.7092   20.1031 C   0  0  0  0  0  0
  -29.4190  -18.3656   18.0370 C   0  0  0  0  0  0
  -29.7897  -17.1537   20.1532 C   0  0  0  0  0  0
  -28.7633  -22.3460   20.1285 C   0  0  0  0  0  0
  -28.8490  -23.6827   20.5070 C   0  0  0  0  0  0
  -29.4703  -21.1273   20.7625 C   0  0  0  0  0  0
  -29.2595  -18.3284   16.5291 C   0  0  0  0  0  0
  -27.9950  -24.8803   19.9138 C   0  0  0  0  0  0
  -29.8800  -15.8359   20.8251 N   0  0  0  0  0  0
  -30.0243  -21.2708   21.8554 O   0  0  0  0  0  0
  -31.4687  -12.5287   19.1936 H   0  0  0  0  0  0
  -30.3349  -11.4456   19.9458 H   0  0  0  0  0  0
  -29.7847  -11.7681   17.5052 H   0  0  0  0  0  0
  -29.6523  -13.4900   17.7512 H   0  0  0  0  0  0
  -27.8635  -11.3055   18.8642 H   0  0  0  0  0  0
  -27.3821  -12.5947   17.7932 H   0  0  0  0  0  0
  -27.6486  -14.2662   19.5059 H   0  0  0  0  0  0
  -28.7050  -12.1382   21.4271 H   0  0  0  0  0  0
  -28.4216  -13.8150   21.8189 H   0  0  0  0  0  0
  -25.2750   -9.5711   22.4747 H   0  0  0  0  0  0
  -23.9996   -7.4648   22.7450 H   0  0  0  0  0  0
  -21.0830   -8.8775   19.8929 H   0  0  0  0  0  0
  -22.3670  -10.9677   19.6148 H   0  0  0  0  0  0
  -21.2029   -7.6136   23.9721 H   0  0  0  0  0  0
  -21.1493   -6.0501   25.9073 H   0  0  0  0  0  0
  -22.0587   -2.7596   23.2847 H   0  0  0  0  0  0
  -22.4068  -11.9854   22.4782 H   0  0  0  0  0  0
  -21.1122  -13.1288   22.2696 H   0  0  0  0  0  0
  -24.6358  -15.8370   20.4284 H   0  0  0  0  0  0
  -26.2497  -15.6036   19.9874 H   0  0  0  0  0  0
  -26.7199  -32.5407   23.1053 H   0  0  0  0  0  0
  -25.0102  -33.9694   25.0402 H   0  0  0  0  0  0
  -22.7273  -31.3058   21.3972 H   0  0  0  0  0  0
  -23.3774  -35.9610   23.3285 H   0  0  0  0  0  0
  -24.3595  -36.8941   22.2061 H   0  0  0  0  0  0
  -23.7243  -37.6487   23.6673 H   0  0  0  0  0  0
  -26.1200  -31.5254   20.6177 H   0  0  0  0  0  0
  -26.8554  -30.8100   22.0174 H   0  0  0  0  0  0
  -28.1058  -28.8941   21.2425 H   0  0  0  0  0  0
  -25.9416  -25.9539   18.9179 H   0  0  0  0  0  0
  -23.9775  -27.3454   18.9536 H   0  0  0  0  0  0
  -23.7688  -30.6008   19.4037 H   0  0  0  0  0  0
  -22.7667  -29.2549   19.8513 H   0  0  0  0  0  0
  -25.1314  -36.1937   25.0828 H   0  0  0  0  0  0
  -20.9976  -28.3304   24.1378 H   0  0  0  0  0  0
  -20.5703  -26.2328   23.3617 H   0  0  0  0  0  0
  -21.6667  -26.7467   22.1184 H   0  0  0  0  0  0
  -19.6953  -25.6283   21.1254 H   0  0  0  0  0  0
  -19.6723  -27.3183   20.6730 H   0  0  0  0  0  0
  -17.4215  -26.6655   21.4015 H   0  0  0  0  0  0
  -18.0358  -26.0067   22.9013 H   0  0  0  0  0  0
  -19.7948  -30.7243   24.2298 H   0  0  0  0  0  0
  -17.5034  -31.6275   24.5148 H   0  0  0  0  0  0
  -15.5363  -30.3007   23.7644 H   0  0  0  0  0  0
  -15.8671  -28.0827   22.7079 H   0  0  0  0  0  0
  -24.5849  -30.7171   25.7709 H   0  0  0  0  0  0
  -24.8976  -32.2933   26.4887 H   0  0  0  0  0  0
  -25.8010  -30.8836   27.0171 H   0  0  0  0  0  0
  -26.2883  -29.6737   24.1247 H   0  0  0  0  0  0
  -27.4016  -29.7259   25.4717 H   0  0  0  0  0  0
  -27.8772  -30.4238   23.9419 H   0  0  0  0  0  0
  -27.2748  -33.3626   26.1986 H   0  0  0  0  0  0
  -28.3908  -32.6791   25.0265 H   0  0  0  0  0  0
  -28.0727  -31.8422   26.5391 H   0  0  0  0  0  0
  -28.2600  -38.0096   24.7505 H   0  0  0  0  0  0
  -28.1092  -36.2636   24.6285 H   0  0  0  0  0  0
  -27.2298  -37.1450   25.8852 H   0  0  0  0  0  0
  -20.9388  -29.8788   21.6852 H   0  0  0  0  0  0
  -26.0201  -38.2854   24.1383 H   0  0  0  0  0  0
  -29.1783  -20.4994   18.1136 H   0  0  0  0  0  0
  -29.8059  -18.4886   21.8879 H   0  0  0  0  0  0
  -29.6742  -16.2342   18.1987 H   0  0  0  0  0  0
  -28.0930  -22.1106   19.3163 H   0  0  0  0  0  0
  -29.5166  -23.9515   21.3137 H   0  0  0  0  0  0
  -30.0734  -18.8699   16.0466 H   0  0  0  0  0  0
  -28.3191  -18.7926   16.2314 H   0  0  0  0  0  0
  -29.2631  -17.3067   16.1472 H   0  0  0  0  0  0
  -27.0000  -24.6549   20.2997 H   0  0  0  0  0  0
  -27.9419  -24.7472   18.8324 H   0  0  0  0  0  0
  -29.0948  -15.6260   21.4243 H   0  0  0  0  0  0
  1 25  1  0  0  0
  1 30  2  0  0  0
  1 82  1  0  0  0
  2  3  1  0  0  0
  2 25  1  0  0  0
  2 84  1  0  0  0
  2 85  1  0  0  0
  3  4  1  0  0  0
  3 86  1  0  0  0
  3 87  1  0  0  0
  4  5  1  0  0  0
  4 88  1  0  0  0
  4 89  1  0  0  0
  5  6  1  0  0  0
  5 26  1  0  0  0
  5 90  1  0  0  0
  6 25  1  0  0  0
  6 91  1  0  0  0
  6 92  1  0  0  0
  7  8  2  0  0  0
  7 26  1  0  0  0
  7 29  1  0  0  0
  8  9  1  0  0  0
  8 22  1  0  0  0
  9 10  1  0  0  0
  9 27  2  0  0  0
 10 11  2  0  0  0
 10 15  1  0  0  0
 11 12  1  0  0  0
 11 93  1  0  0  0
 12 13  2  0  0  0
 12 94  1  0  0  0
 13 14  1  0  0  0
 13 31  1  0  0  0
 14 15  2  0  0  0
 14 95  1  0  0  0
 15 96  1  0  0  0
 16 17  2  0  0  0
 16 21  1  0  0  0
 16 31  1  0  0  0
 17 18  1  0  0  0
 17 97  1  0  0  0
 18 19  2  0  0  0
 18 98  1  0  0  0
 19 20  1  0  0  0
 19 24  1  0  0  0
 20 21  2  0  0  0
 20 99  1  0  0  0
 21 23  1  0  0  0
 22 28  1  0  0  0
 22 32  2  0  0  0
 26 27  1  0  0  0
 28100  1  0  0  0
 28101  1  0  0  0
 29102  1  0  0  0
 29103  1  0  0  0
 33 34  1  0  0  0
 33 66  1  0  0  0
 33 70  2  0  0  0
 34 36  1  0  0  0
 34 59  1  0  0  0
 34104  1  0  0  0
 35 44  2  0  0  0
 35 45  1  0  0  0
 35 68  1  0  0  0
 36 56  1  0  0  0
 36105  1  0  0  0
 37 39  1  0  0  0
 37 47  1  0  0  0
 37 66  1  0  0  0
 37106  1  0  0  0
 38 43  2  0  0  0
 38 46  1  0  0  0
 38 47  1  0  0  0
 39 64  1  0  0  0
 39 67  2  0  0  0
 40 52  1  0  0  0
 40 53  2  0  0  0
 40 58  1  0  0  0
 41107  1  0  0  0
 41108  1  0  0  0
 41109  1  0  0  0
 41 48  1  0  0  0
 42 43  1  0  0  0
 42 66  1  0  0  0
 42110  1  0  0  0
 42111  1  0  0  0
 43 44  1  0  0  0
 44112  1  0  0  0
 45 46  2  0  0  0
 45113  1  0  0  0
 46114  1  0  0  0
 47115  1  0  0  0
 47116  1  0  0  0
 48 56  1  0  0  0
 48 65  1  0  0  0
 48117  1  0  0  0
 49 50  1  0  0  0
 49 53  1  0  0  0
 49 64  1  0  0  0
 49118  1  0  0  0
 50 51  1  0  0  0
 50119  1  0  0  0
 50120  1  0  0  0
 51 52  1  0  0  0
 51121  1  0  0  0
 51122  1  0  0  0
 52123  1  0  0  0
 52124  1  0  0  0
 53 54  1  0  0  0
 54 55  2  0  0  0
 54125  1  0  0  0
 55 57  1  0  0  0
 55126  1  0  0  0
 56 69  2  0  0  0
 57 58  2  0  0  0
 57127  1  0  0  0
 58128  1  0  0  0
 59 60  1  0  0  0
 59 61  1  0  0  0
 59 62  1  0  0  0
 60129  1  0  0  0
 60130  1  0  0  0
 60131  1  0  0  0
 61132  1  0  0  0
 61133  1  0  0  0
 61134  1  0  0  0
 62135  1  0  0  0
 62136  1  0  0  0
 62137  1  0  0  0
 63 65  1  0  0  0
 63138  1  0  0  0
 63139  1  0  0  0
 63140  1  0  0  0
 64141  1  0  0  0
 65142  1  0  0  0
 68 81  1  0  0  0
 71 74  2  0  0  0
 71 75  1  0  0  0
 71143  1  0  0  0
 72 74  1  0  0  0
 72 76  2  0  0  0
 72144  1  0  0  0
 73 75  2  0  0  0
 73 76  1  0  0  0
 73145  1  0  0  0
 74 79  1  0  0  0
 75 80  1  0  0  0
 76 82  1  0  0  0
 77 78  2  0  0  0
 77 79  1  0  0  0
 77146  1  0  0  0
 78 81  1  0  0  0
 78147  1  0  0  0
 79 83  2  0  0  0
 80148  1  0  0  0
 80149  1  0  0  0
 80150  1  0  0  0
 81151  1  0  0  0
 81152  1  0  0  0
 82153  1  0  0  0
M  ISO  4   1 100  68 101  81 101  82 100
M  END
> <chiral flag>
0

> <version>
0

> <s_m_source_file>
/data/baiqing/PycharmProjects/Reinvent-master-3.2/result/LINK_invent/BTK/process_docking_weight1_custom_product_contain_oxygen_bond_distance_aromatic_linkinvent_7_9_3/rearranged_h_0126.sdf

> <i_m_source_file_index>
78

> <r_mmod_Potential_Energy-OPLS-2005>
152.065704345703

> <r_mmod_Stretch_Energy-OPLS-2005>
120.813484191895

> <r_mmod_Bend_Energy-OPLS-2005>
149.956558227539

> <r_mmod_Torsional_Energy-OPLS-2005>
246.07878112793

> <r_mmod_Improper_Torsional_Energy-OPLS-2005>
5.85801935195923

> <r_mmod_Van_der_Waal_Energy-OPLS-2005>
142.726303100586

> <r_mmod_Electrostatic_Energy-OPLS-2005>
-373.029815673828

> <r_mmod_Solvation_Energy-OPLS-2005>
-223.612045288086

> <b_mmod_Minimization_Converged-OPLS-2005>
0

> <r_mmod_RMS_Derivative-OPLS-2005>
2.30954313278198

$$$$
78
                    3D
 Structure written by MMmdl.
155163  0  0  1  0            999 V2000
  -30.6371  -14.6687   20.5317 C   0  0  0  0  0  0
  -30.4361  -12.4189   19.4753 C   0  0  0  0  0  0
  -29.5147  -12.5257   18.2380 C   0  0  0  0  0  0
  -28.0353  -12.3551   18.6369 C   0  0  0  0  0  0
  -27.6527  -13.2196   19.8666 C   0  0  2  0  0  0
  -28.6898  -13.0627   20.9981 C   0  0  0  0  0  0
  -25.2554  -13.8171   20.5675 C   0  0  0  0  0  0
  -24.1823  -13.0433   20.9166 C   0  0  0  0  0  0
  -24.6396  -11.6904   20.8720 C   0  0  0  0  0  0
  -23.9067  -10.4287   21.0393 C   0  0  0  0  0  0
  -24.3619   -9.4209   21.9176 C   0  0  0  0  0  0
  -23.6290   -8.2248   22.0755 C   0  0  0  0  0  0
  -22.4274   -8.0280   21.3544 C   0  0  0  0  0  0
  -21.9908   -9.0253   20.4648 C   0  0  0  0  0  0
  -22.7238  -10.2129   20.3049 C   0  0  0  0  0  0
  -21.6855   -6.0732   22.5279 C   0  0  0  0  0  0
  -21.4017   -6.5638   23.8211 C   0  0  0  0  0  0
  -21.3656   -5.6792   24.9173 C   0  0  0  0  0  0
  -21.6046   -4.3055   24.7228 C   0  0  0  0  0  0
  -21.8820   -3.8146   23.4348 C   0  0  0  0  0  0
  -21.9193   -4.6959   22.3403 C   0  0  0  0  0  0
  -22.7849  -13.5227   21.1839 C   0  0  0  0  0  0
  -22.1661   -4.2144   21.0980 F   0  0  0  0  0  0
  -21.5628   -3.4540   25.7741 F   0  0  0  0  0  0
  -30.0070  -13.4417   20.4595 N   0  0  0  0  0  0
  -26.2982  -12.9356   20.3307 N   0  0  0  0  0  0
  -25.9324  -11.6507   20.5730 N   0  0  0  0  0  0
  -22.0503  -12.8214   22.0401 N   0  0  0  0  0  0
  -25.4273  -15.1892   20.4113 N   0  0  0  0  0  0
  -31.7619  -14.8217   20.0422 O   0  0  0  0  0  0
  -21.6641   -6.8877   21.4240 O   0  0  0  0  0  0
  -22.3528  -14.5533   20.6689 O   0  0  0  0  0  0
  -24.6283  -31.8578   23.2023 C   0  0  0  0  0  0
  -25.9128  -32.4767   23.8345 C   0  0  1  0  0  0
  -27.2203  -27.3002   20.1175 C   0  0  0  0  0  0
  -25.5941  -33.8566   24.2274 N   0  0  0  0  0  0
  -23.4217  -30.4820   21.5455 C   0  0  2  0  0  0
  -24.8674  -28.9379   20.1092 C   0  0  0  0  0  0
  -22.7489  -29.4606   22.4936 C   0  0  0  0  0  0
  -18.0287  -28.1375   22.8468 C   0  0  0  0  0  0
  -24.1494  -36.7285   23.2636 C   0  0  0  0  0  0
  -25.9650  -30.7832   21.3763 C   0  0  0  0  0  0
  -26.0381  -29.4106   20.7151 C   0  0  0  0  0  0
  -27.2167  -28.6041   20.7096 C   0  0  0  0  0  0
  -26.0260  -26.8897   19.4800 C   0  0  0  0  0  0
  -24.8643  -27.6835   19.4822 C   0  0  0  0  0  0
  -23.6364  -29.8200   20.1597 C   0  0  0  0  0  0
  -25.4119  -36.3071   24.0324 C   0  0  1  0  0  0
  -20.5887  -28.3681   23.1274 C   0  0  2  0  0  0
  -20.6775  -26.9402   22.5407 C   0  0  0  0  0  0
  -19.5753  -26.6374   21.5206 C   0  0  0  0  0  0
  -18.1930  -26.7912   22.1614 C   0  0  0  0  0  0
  -19.1540  -28.8846   23.2857 C   0  0  0  0  0  0
  -18.9463  -30.1444   23.8881 C   0  0  0  0  0  0
  -17.6466  -30.6576   24.0554 C   0  0  0  0  0  0
  -25.9062  -34.9444   23.5099 C   0  0  0  0  0  0
  -16.5354  -29.9070   23.6329 C   0  0  0  0  0  0
  -16.7275  -28.6489   23.0341 C   0  0  0  0  0  0
  -26.4513  -31.6580   25.0719 C   0  0  0  0  0  0
  -25.3744  -31.3714   26.1443 C   0  0  0  0  0  0
  -27.0363  -30.3003   24.6187 C   0  0  0  0  0  0
  -27.6066  -32.4325   25.7497 C   0  0  0  0  0  0
  -27.5578  -37.1797   24.8461 C   0  0  0  0  0  0
  -21.4205  -29.3032   22.3681 N   0  0  0  0  0  0
  -26.4294  -37.3770   23.9406 N   0  0  0  0  0  0
  -24.6907  -31.0576   22.0981 N   0  0  0  0  0  0
  -23.4208  -28.8139   23.3015 O   0  0  0  0  0  0
  -28.3277  -26.4318   20.1854 O   0  0  0  0  0  0
  -26.5622  -34.8908   22.4658 O   0  0  0  0  0  0
  -23.5445  -32.1387   23.7344 O   0  0  0  0  0  0
  -29.0430  -18.2516   18.2501 C   0  0  0  0  0  0
  -29.0643  -19.5486   18.7925 C   0  0  0  0  0  0
  -29.3653  -17.1291   19.0330 C   0  0  0  0  0  0
  -29.4360  -19.7892   20.1334 C   0  0  0  0  0  0
  -29.7365  -17.2490   20.3909 C   0  0  0  0  0  0
  -29.7922  -18.6147   20.9222 C   0  0  0  0  0  0
  -29.4412  -21.2527   20.6236 C   0  0  0  0  0  0
  -29.0839  -22.4135   19.9642 C   0  0  0  0  0  0
  -29.8988  -15.9181   21.1826 C   0  0  0  0  0  0
  -30.2536  -18.8477   22.3581 C   0  0  0  0  0  0
  -29.1952  -23.9092   20.4563 C   0  0  0  0  0  0
  -28.1158  -24.9750   19.9518 C   0  0  0  0  0  0
  -29.4399  -15.8497   22.3628 N   0  0  0  0  0  0
  -31.4799  -12.5351   19.1799 H   0  0  0  0  0  0
  -30.3705  -11.4226   19.9150 H   0  0  0  0  0  0
  -29.7910  -11.7731   17.4980 H   0  0  0  0  0  0
  -29.6558  -13.4947   17.7570 H   0  0  0  0  0  0
  -27.8757  -11.3002   18.8645 H   0  0  0  0  0  0
  -27.3847  -12.5854   17.7927 H   0  0  0  0  0  0
  -27.6747  -14.2584   19.5374 H   0  0  0  0  0  0
  -28.7153  -12.0288   21.3465 H   0  0  0  0  0  0
  -28.3965  -13.6397   21.8711 H   0  0  0  0  0  0
  -25.2767   -9.5685   22.4746 H   0  0  0  0  0  0
  -23.9999   -7.4644   22.7480 H   0  0  0  0  0  0
  -21.0838   -8.8770   19.8956 H   0  0  0  0  0  0
  -22.3697  -10.9663   19.6155 H   0  0  0  0  0  0
  -21.2013   -7.6147   23.9710 H   0  0  0  0  0  0
  -21.1477   -6.0526   25.9073 H   0  0  0  0  0  0
  -22.0601   -2.7608   23.2853 H   0  0  0  0  0  0
  -22.4124  -11.9874   22.4777 H   0  0  0  0  0  0
  -21.1128  -13.1236   22.2626 H   0  0  0  0  0  0
  -24.6663  -15.8482   20.5327 H   0  0  0  0  0  0
  -26.2928  -15.6320   20.1296 H   0  0  0  0  0  0
  -26.7193  -32.5440   23.1086 H   0  0  0  0  0  0
  -25.0104  -33.9713   25.0430 H   0  0  0  0  0  0
  -22.7157  -31.3035   21.4046 H   0  0  0  0  0  0
  -23.3760  -35.9614   23.3301 H   0  0  0  0  0  0
  -24.3590  -36.8909   22.2050 H   0  0  0  0  0  0
  -23.7246  -37.6485   23.6671 H   0  0  0  0  0  0
  -26.1008  -31.5489   20.6110 H   0  0  0  0  0  0
  -26.8435  -30.8283   22.0086 H   0  0  0  0  0  0
  -28.1130  -28.9601   21.1972 H   0  0  0  0  0  0
  -25.9566  -25.9334   18.9831 H   0  0  0  0  0  0
  -23.9684  -27.3179   18.9994 H   0  0  0  0  0  0
  -23.7555  -30.5991   19.4059 H   0  0  0  0  0  0
  -22.7556  -29.2511   19.8559 H   0  0  0  0  0  0
  -25.1300  -36.1922   25.0818 H   0  0  0  0  0  0
  -20.9967  -28.3255   24.1397 H   0  0  0  0  0  0
  -20.5676  -26.2288   23.3606 H   0  0  0  0  0  0
  -21.6641  -26.7422   22.1202 H   0  0  0  0  0  0
  -19.6915  -25.6285   21.1231 H   0  0  0  0  0  0
  -19.6693  -27.3186   20.6739 H   0  0  0  0  0  0
  -17.4197  -26.6653   21.4014 H   0  0  0  0  0  0
  -18.0322  -26.0054   22.9013 H   0  0  0  0  0  0
  -19.7944  -30.7248   24.2256 H   0  0  0  0  0  0
  -17.5023  -31.6262   24.5140 H   0  0  0  0  0  0
  -15.5352  -30.2959   23.7674 H   0  0  0  0  0  0
  -15.8673  -28.0812   22.7056 H   0  0  0  0  0  0
  -24.5931  -30.7048   25.7775 H   0  0  0  0  0  0
  -24.8916  -32.2874   26.4861 H   0  0  0  0  0  0
  -25.8056  -30.8903   27.0228 H   0  0  0  0  0  0
  -26.2934  -29.6747   24.1225 H   0  0  0  0  0  0
  -27.4073  -29.7267   25.4693 H   0  0  0  0  0  0
  -27.8804  -30.4286   23.9403 H   0  0  0  0  0  0
  -27.2674  -33.3638   26.2048 H   0  0  0  0  0  0
  -28.3893  -32.6866   25.0335 H   0  0  0  0  0  0
  -28.0723  -31.8469   26.5437 H   0  0  0  0  0  0
  -28.2586  -38.0102   24.7522 H   0  0  0  0  0  0
  -28.1081  -36.2632   24.6282 H   0  0  0  0  0  0
  -27.2293  -37.1438   25.8862 H   0  0  0  0  0  0
  -20.9390  -29.8768   21.6900 H   0  0  0  0  0  0
  -26.0172  -38.2840   24.1421 H   0  0  0  0  0  0
  -28.7524  -18.1140   17.2173 H   0  0  0  0  0  0
  -28.7923  -20.3649   18.1409 H   0  0  0  0  0  0
  -29.2885  -16.1536   18.5738 H   0  0  0  0  0  0
  -29.8007  -21.3986   21.6311 H   0  0  0  0  0  0
  -28.7110  -22.3331   18.9547 H   0  0  0  0  0  0
  -30.9024  -19.7202   22.4282 H   0  0  0  0  0  0
  -30.8460  -18.0229   22.7496 H   0  0  0  0  0  0
  -29.3979  -19.0018   23.0161 H   0  0  0  0  0  0
  -30.1718  -24.2595   20.1204 H   0  0  0  0  0  0
  -29.2361  -23.9190   21.5457 H   0  0  0  0  0  0
  -27.1689  -24.6776   20.4055 H   0  0  0  0  0  0
  -27.9956  -24.8421   18.8760 H   0  0  0  0  0  0
  -29.0021  -16.7243   22.6247 H   0  0  0  0  0  0
  1 25  1  0  0  0
  1 30  2  0  0  0
  1 79  1  0  0  0
  2  3  1  0  0  0
  2 25  1  0  0  0
  2 84  1  0  0  0
  2 85  1  0  0  0
  3  4  1  0  0  0
  3 86  1  0  0  0
  3 87  1  0  0  0
  4  5  1  0  0  0
  4 88  1  0  0  0
  4 89  1  0  0  0
  5  6  1  0  0  0
  5 26  1  0  0  0
  5 90  1  0  0  0
  6 25  1  0  0  0
  6 91  1  0  0  0
  6 92  1  0  0  0
  7  8  2  0  0  0
  7 26  1  0  0  0
  7 29  1  0  0  0
  8  9  1  0  0  0
  8 22  1  0  0  0
  9 10  1  0  0  0
  9 27  2  0  0  0
 10 11  2  0  0  0
 10 15  1  0  0  0
 11 12  1  0  0  0
 11 93  1  0  0  0
 12 13  2  0  0  0
 12 94  1  0  0  0
 13 14  1  0  0  0
 13 31  1  0  0  0
 14 15  2  0  0  0
 14 95  1  0  0  0
 15 96  1  0  0  0
 16 17  2  0  0  0
 16 21  1  0  0  0
 16 31  1  0  0  0
 17 18  1  0  0  0
 17 97  1  0  0  0
 18 19  2  0  0  0
 18 98  1  0  0  0
 19 20  1  0  0  0
 19 24  1  0  0  0
 20 21  2  0  0  0
 20 99  1  0  0  0
 21 23  1  0  0  0
 22 28  1  0  0  0
 22 32  2  0  0  0
 26 27  1  0  0  0
 28100  1  0  0  0
 28101  1  0  0  0
 29102  1  0  0  0
 29103  1  0  0  0
 33 34  1  0  0  0
 33 66  1  0  0  0
 33 70  2  0  0  0
 34 36  1  0  0  0
 34 59  1  0  0  0
 34104  1  0  0  0
 35 44  2  0  0  0
 35 45  1  0  0  0
 35 68  1  0  0  0
 36 56  1  0  0  0
 36105  1  0  0  0
 37 39  1  0  0  0
 37 47  1  0  0  0
 37 66  1  0  0  0
 37106  1  0  0  0
 38 43  2  0  0  0
 38 46  1  0  0  0
 38 47  1  0  0  0
 39 64  1  0  0  0
 39 67  2  0  0  0
 40 52  1  0  0  0
 40 53  2  0  0  0
 40 58  1  0  0  0
 41107  1  0  0  0
 41108  1  0  0  0
 41109  1  0  0  0
 41 48  1  0  0  0
 42 43  1  0  0  0
 42 66  1  0  0  0
 42110  1  0  0  0
 42111  1  0  0  0
 43 44  1  0  0  0
 44112  1  0  0  0
 45 46  2  0  0  0
 45113  1  0  0  0
 46114  1  0  0  0
 47115  1  0  0  0
 47116  1  0  0  0
 48 56  1  0  0  0
 48 65  1  0  0  0
 48117  1  0  0  0
 49 50  1  0  0  0
 49 53  1  0  0  0
 49 64  1  0  0  0
 49118  1  0  0  0
 50 51  1  0  0  0
 50119  1  0  0  0
 50120  1  0  0  0
 51 52  1  0  0  0
 51121  1  0  0  0
 51122  1  0  0  0
 52123  1  0  0  0
 52124  1  0  0  0
 53 54  1  0  0  0
 54 55  2  0  0  0
 54125  1  0  0  0
 55 57  1  0  0  0
 55126  1  0  0  0
 56 69  2  0  0  0
 57 58  2  0  0  0
 57127  1  0  0  0
 58128  1  0  0  0
 59 60  1  0  0  0
 59 61  1  0  0  0
 59 62  1  0  0  0
 60129  1  0  0  0
 60130  1  0  0  0
 60131  1  0  0  0
 61132  1  0  0  0
 61133  1  0  0  0
 61134  1  0  0  0
 62135  1  0  0  0
 62136  1  0  0  0
 62137  1  0  0  0
 63 65  1  0  0  0
 63138  1  0  0  0
 63139  1  0  0  0
 63140  1  0  0  0
 64141  1  0  0  0
 65142  1  0  0  0
 68 82  1  0  0  0
 71 72  2  0  0  0
 71 73  1  0  0  0
 71143  1  0  0  0
 72 74  1  0  0  0
 72144  1  0  0  0
 73 75  2  0  0  0
 73145  1  0  0  0
 74 76  2  0  0  0
 74 77  1  0  0  0
 75 76  1  0  0  0
 75 79  1  0  0  0
 76 80  1  0  0  0
 77 78  2  0  0  0
 77146  1  0  0  0
 78 81  1  0  0  0
 78147  1  0  0  0
 79 83  2  0  0  0
 80148  1  0  0  0
 80149  1  0  0  0
 80150  1  0  0  0
 81 82  1  0  0  0
 81151  1  0  0  0
 81152  1  0  0  0
 82153  1  0  0  0
 82154  1  0  0  0
 83155  1  0  0  0
M  ISO  4   1 100  68 101  79 100  82 101
M  END
> <chiral flag>
0

> <version>
0

> <s_m_source_file>
/data/baiqing/PycharmProjects/Reinvent-master-3.2/result/LINK_invent/BTK/process_docking_weight1_custom_product_contain_oxygen_bond_distance_aromatic_linkinvent_7_9_3/rearranged_h_0126.sdf

> <i_m_source_file_index>
79

> <r_mmod_Potential_Energy-OPLS-2005>
274.978332519531

> <r_mmod_Stretch_Energy-OPLS-2005>
114.428680419922

> <r_mmod_Bend_Energy-OPLS-2005>
144.741607666016

> <r_mmod_Torsional_Energy-OPLS-2005>
206.739151000977

> <r_mmod_Improper_Torsional_Energy-OPLS-2005>
2.88564562797546

> <r_mmod_Van_der_Waal_Energy-OPLS-2005>
153.234298706055

> <r_mmod_Electrostatic_Energy-OPLS-2005>
-209.671432495117

> <r_mmod_Solvation_Energy-OPLS-2005>
-193.836151123047

> <b_mmod_Minimization_Converged-OPLS-2005>
0

> <r_mmod_RMS_Derivative-OPLS-2005>
1.05967879295349

$$$$
79
                    3D
 Structure written by MMmdl.
159167  0  0  1  0            999 V2000
  -30.6576  -14.6575   20.4661 C   0  0  0  0  0  0
  -30.4136  -12.3914   19.4787 C   0  0  0  0  0  0
  -29.5098  -12.5040   18.2349 C   0  0  0  0  0  0
  -28.0336  -12.3374   18.6389 C   0  0  0  0  0  0
  -27.6499  -13.2187   19.8559 C   0  0  2  0  0  0
  -28.6849  -13.1332   20.9974 C   0  0  0  0  0  0
  -25.2564  -13.8174   20.5690 C   0  0  0  0  0  0
  -24.1854  -13.0447   20.9132 C   0  0  0  0  0  0
  -24.6435  -11.6910   20.8652 C   0  0  0  0  0  0
  -23.9078  -10.4292   21.0339 C   0  0  0  0  0  0
  -24.3638   -9.4229   21.9138 C   0  0  0  0  0  0
  -23.6330   -8.2272   22.0732 C   0  0  0  0  0  0
  -22.4302   -8.0303   21.3542 C   0  0  0  0  0  0
  -21.9921   -9.0239   20.4614 C   0  0  0  0  0  0
  -22.7226  -10.2124   20.3005 C   0  0  0  0  0  0
  -21.6884   -6.0742   22.5256 C   0  0  0  0  0  0
  -21.4040   -6.5650   23.8175 C   0  0  0  0  0  0
  -21.3660   -5.6790   24.9136 C   0  0  0  0  0  0
  -21.6026   -4.3041   24.7203 C   0  0  0  0  0  0
  -21.8838   -3.8159   23.4325 C   0  0  0  0  0  0
  -21.9206   -4.6975   22.3387 C   0  0  0  0  0  0
  -22.7872  -13.5208   21.1838 C   0  0  0  0  0  0
  -22.1665   -4.2176   21.0966 F   0  0  0  0  0  0
  -21.5641   -3.4537   25.7722 F   0  0  0  0  0  0
  -30.0027  -13.4492   20.4340 N   0  0  0  0  0  0
  -26.2986  -12.9350   20.3259 N   0  0  0  0  0  0
  -25.9355  -11.6494   20.5663 N   0  0  0  0  0  0
  -22.0596  -12.8138   22.0404 N   0  0  0  0  0  0
  -25.4278  -15.1912   20.4195 N   0  0  0  0  0  0
  -31.8199  -14.7202   20.0541 O   0  0  0  0  0  0
  -21.6675   -6.8900   21.4227 O   0  0  0  0  0  0
  -22.3488  -14.5529   20.6702 O   0  0  0  0  0  0
  -24.6206  -31.8629   23.2052 C   0  0  0  0  0  0
  -25.9055  -32.4835   23.8382 C   0  0  1  0  0  0
  -27.2143  -27.2896   20.1206 C   0  0  0  0  0  0
  -25.5848  -33.8632   24.2298 N   0  0  0  0  0  0
  -23.4166  -30.4817   21.5518 C   0  0  2  0  0  0
  -24.8602  -28.9322   20.1197 C   0  0  0  0  0  0
  -22.7416  -29.4601   22.4980 C   0  0  0  0  0  0
  -18.0298  -28.1386   22.8481 C   0  0  0  0  0  0
  -24.1471  -36.7281   23.2649 C   0  0  0  0  0  0
  -25.9583  -30.7749   21.3859 C   0  0  0  0  0  0
  -26.0277  -29.4025   20.7268 C   0  0  0  0  0  0
  -27.2040  -28.5921   20.7200 C   0  0  0  0  0  0
  -26.0166  -26.8831   19.4852 C   0  0  0  0  0  0
  -24.8571  -27.6768   19.4962 C   0  0  0  0  0  0
  -23.6315  -29.8213   20.1642 C   0  0  0  0  0  0
  -25.4098  -36.3139   24.0355 C   0  0  1  0  0  0
  -20.5858  -28.3674   23.1301 C   0  0  2  0  0  0
  -20.6707  -26.9373   22.5453 C   0  0  0  0  0  0
  -19.5685  -26.6269   21.5262 C   0  0  0  0  0  0
  -18.1913  -26.7842   22.1757 C   0  0  0  0  0  0
  -19.1549  -28.8885   23.2874 C   0  0  0  0  0  0
  -18.9455  -30.1524   23.8799 C   0  0  0  0  0  0
  -17.6405  -30.6560   24.0524 C   0  0  0  0  0  0
  -25.9015  -34.9500   23.5136 C   0  0  0  0  0  0
  -16.5305  -29.9058   23.6329 C   0  0  0  0  0  0
  -16.7263  -28.6476   23.0320 C   0  0  0  0  0  0
  -26.4441  -31.6663   25.0755 C   0  0  0  0  0  0
  -25.3663  -31.3730   26.1458 C   0  0  0  0  0  0
  -27.0284  -30.3097   24.6206 C   0  0  0  0  0  0
  -27.6036  -32.4376   25.7498 C   0  0  0  0  0  0
  -27.5573  -37.1812   24.8486 C   0  0  0  0  0  0
  -21.4133  -29.3031   22.3736 N   0  0  0  0  0  0
  -26.4317  -37.3808   23.9398 N   0  0  0  0  0  0
  -24.6835  -31.0622   22.1026 N   0  0  0  0  0  0
  -23.4183  -28.8106   23.3041 O   0  0  0  0  0  0
  -28.3587  -26.4680   20.2000 O   0  0  0  0  0  0
  -26.5650  -34.8962   22.4748 O   0  0  0  0  0  0
  -23.5368  -32.1425   23.7378 O   0  0  0  0  0  0
  -29.2704  -19.3947   19.3927 C   0  0  0  0  0  0
  -29.2241  -20.5042   21.9193 C   0  0  0  0  0  0
  -29.6632  -18.5387   20.4636 C   0  0  0  0  0  0
  -28.7536  -21.3350   20.8666 C   0  0  0  0  0  0
  -29.6799  -19.1608   21.7407 C   0  0  0  0  0  0
  -28.8477  -20.7606   19.5692 C   0  0  0  0  0  0
  -30.1095  -17.0923   20.1930 C   0  0  0  0  0  0
  -27.9851  -22.5893   21.2884 C   0  0  0  0  0  0
  -29.9372  -15.9040   20.8770 C   0  0  0  0  0  0
  -27.7679  -23.9369   21.0317 C   0  0  0  0  0  0
  -30.2332  -18.4269   22.9471 C   0  0  0  0  0  0
  -28.4577  -21.5772   18.3544 C   0  0  0  0  0  0
  -26.6504  -24.5740   21.8671 C   0  0  0  0  0  0
  -28.4381  -24.9739   20.0464 C   0  0  0  0  0  0
  -31.4638  -12.4735   19.1872 H   0  0  0  0  0  0
  -30.3095  -11.4065   19.9379 H   0  0  0  0  0  0
  -29.7867  -11.7511   17.4895 H   0  0  0  0  0  0
  -29.6559  -13.4757   17.7592 H   0  0  0  0  0  0
  -27.8607  -11.2829   18.8646 H   0  0  0  0  0  0
  -27.3865  -12.5737   17.7915 H   0  0  0  0  0  0
  -27.6595  -14.2484   19.5003 H   0  0  0  0  0  0
  -28.7031  -12.1396   21.4418 H   0  0  0  0  0  0
  -28.4175  -13.8094   21.8081 H   0  0  0  0  0  0
  -25.2787   -9.5743   22.4669 H   0  0  0  0  0  0
  -24.0049   -7.4670   22.7447 H   0  0  0  0  0  0
  -21.0853   -8.8721   19.8912 H   0  0  0  0  0  0
  -22.3654  -10.9653   19.6102 H   0  0  0  0  0  0
  -21.2037   -7.6171   23.9692 H   0  0  0  0  0  0
  -21.1444   -6.0533   25.9039 H   0  0  0  0  0  0
  -22.0618   -2.7640   23.2819 H   0  0  0  0  0  0
  -22.4288  -11.9800   22.4715 H   0  0  0  0  0  0
  -21.1171  -13.1002   22.2664 H   0  0  0  0  0  0
  -24.6535  -15.8330   20.5347 H   0  0  0  0  0  0
  -26.2902  -15.6459   20.1506 H   0  0  0  0  0  0
  -26.7070  -32.5456   23.1091 H   0  0  0  0  0  0
  -25.0026  -33.9824   25.0449 H   0  0  0  0  0  0
  -22.7074  -31.3025   21.4146 H   0  0  0  0  0  0
  -23.3784  -35.9565   23.3372 H   0  0  0  0  0  0
  -24.3550  -36.8851   22.2049 H   0  0  0  0  0  0
  -23.7188  -37.6475   23.6625 H   0  0  0  0  0  0
  -26.1046  -31.5287   20.6154 H   0  0  0  0  0  0
  -26.8309  -30.8196   22.0238 H   0  0  0  0  0  0
  -28.0980  -28.9448   21.2161 H   0  0  0  0  0  0
  -25.9249  -25.9372   18.9804 H   0  0  0  0  0  0
  -23.9599  -27.3057   19.0250 H   0  0  0  0  0  0
  -23.7672  -30.6061   19.4218 H   0  0  0  0  0  0
  -22.7451  -29.2652   19.8540 H   0  0  0  0  0  0
  -25.1281  -36.2047   25.0860 H   0  0  0  0  0  0
  -20.9963  -28.3215   24.1407 H   0  0  0  0  0  0
  -20.5625  -26.2327   23.3700 H   0  0  0  0  0  0
  -21.6593  -26.7414   22.1244 H   0  0  0  0  0  0
  -19.6713  -25.6146   21.1445 H   0  0  0  0  0  0
  -19.6622  -27.2996   20.6714 H   0  0  0  0  0  0
  -17.4002  -26.6426   21.4386 H   0  0  0  0  0  0
  -18.0533  -25.9988   22.9222 H   0  0  0  0  0  0
  -19.7912  -30.7418   24.2149 H   0  0  0  0  0  0
  -17.4990  -31.6220   24.5118 H   0  0  0  0  0  0
  -15.5258  -30.2901   23.7695 H   0  0  0  0  0  0
  -15.8715  -28.0678   22.7145 H   0  0  0  0  0  0
  -24.5840  -30.7126   25.7706 H   0  0  0  0  0  0
  -24.8854  -32.2858   26.4961 H   0  0  0  0  0  0
  -25.7979  -30.8811   27.0192 H   0  0  0  0  0  0
  -26.2819  -29.6891   24.1238 H   0  0  0  0  0  0
  -27.3975  -29.7328   25.4706 H   0  0  0  0  0  0
  -27.8719  -30.4390   23.9417 H   0  0  0  0  0  0
  -27.2672  -33.3657   26.2114 H   0  0  0  0  0  0
  -28.3807  -32.6993   25.0309 H   0  0  0  0  0  0
  -28.0739  -31.8510   26.5395 H   0  0  0  0  0  0
  -28.2645  -38.0057   24.7495 H   0  0  0  0  0  0
  -28.1047  -36.2613   24.6380 H   0  0  0  0  0  0
  -27.2318  -37.1509   25.8906 H   0  0  0  0  0  0
  -20.9217  -29.8707   21.6968 H   0  0  0  0  0  0
  -26.0248  -38.2919   24.1397 H   0  0  0  0  0  0
  -29.2991  -18.9831   18.3957 H   0  0  0  0  0  0
  -29.1982  -20.9014   22.9255 H   0  0  0  0  0  0
  -30.7167  -17.0192   19.3042 H   0  0  0  0  0  0
  -27.3205  -22.2359   22.0670 H   0  0  0  0  0  0
  -29.3069  -15.8860   21.7545 H   0  0  0  0  0  0
  -29.4418  -17.8940   23.4681 H   0  0  0  0  0  0
  -30.7014  -19.1239   23.6404 H   0  0  0  0  0  0
  -31.0112  -17.7226   22.6527 H   0  0  0  0  0  0
  -28.8958  -21.1628   17.4455 H   0  0  0  0  0  0
  -28.8260  -22.5947   18.4539 H   0  0  0  0  0  0
  -27.3761  -21.6164   18.2345 H   0  0  0  0  0  0
  -26.2835  -23.9247   22.6674 H   0  0  0  0  0  0
  -25.7921  -24.7750   21.2264 H   0  0  0  0  0  0
  -26.9631  -25.5137   22.3227 H   0  0  0  0  0  0
  -28.9354  -25.0195   21.0208 H   0  0  0  0  0  0
  -27.4689  -24.7969   19.5998 H   0  0  0  0  0  0
  1 25  1  0  0  0
  1 30  2  0  0  0
  1 79  1  0  0  0
  2  3  1  0  0  0
  2 25  1  0  0  0
  2 85  1  0  0  0
  2 86  1  0  0  0
  3  4  1  0  0  0
  3 87  1  0  0  0
  3 88  1  0  0  0
  4  5  1  0  0  0
  4 89  1  0  0  0
  4 90  1  0  0  0
  5  6  1  0  0  0
  5 26  1  0  0  0
  5 91  1  0  0  0
  6 25  1  0  0  0
  6 92  1  0  0  0
  6 93  1  0  0  0
  7  8  2  0  0  0
  7 26  1  0  0  0
  7 29  1  0  0  0
  8  9  1  0  0  0
  8 22  1  0  0  0
  9 10  1  0  0  0
  9 27  2  0  0  0
 10 11  2  0  0  0
 10 15  1  0  0  0
 11 12  1  0  0  0
 11 94  1  0  0  0
 12 13  2  0  0  0
 12 95  1  0  0  0
 13 14  1  0  0  0
 13 31  1  0  0  0
 14 15  2  0  0  0
 14 96  1  0  0  0
 15 97  1  0  0  0
 16 17  2  0  0  0
 16 21  1  0  0  0
 16 31  1  0  0  0
 17 18  1  0  0  0
 17 98  1  0  0  0
 18 19  2  0  0  0
 18 99  1  0  0  0
 19 20  1  0  0  0
 19 24  1  0  0  0
 20 21  2  0  0  0
 20100  1  0  0  0
 21 23  1  0  0  0
 22 28  1  0  0  0
 22 32  2  0  0  0
 26 27  1  0  0  0
 28101  1  0  0  0
 28102  1  0  0  0
 29103  1  0  0  0
 29104  1  0  0  0
 33 34  1  0  0  0
 33 66  1  0  0  0
 33 70  2  0  0  0
 34 36  1  0  0  0
 34 59  1  0  0  0
 34105  1  0  0  0
 35 44  2  0  0  0
 35 45  1  0  0  0
 35 68  1  0  0  0
 36 56  1  0  0  0
 36106  1  0  0  0
 37 39  1  0  0  0
 37 47  1  0  0  0
 37 66  1  0  0  0
 37107  1  0  0  0
 38 43  2  0  0  0
 38 46  1  0  0  0
 38 47  1  0  0  0
 39 64  1  0  0  0
 39 67  2  0  0  0
 40 52  1  0  0  0
 40 53  2  0  0  0
 40 58  1  0  0  0
 41108  1  0  0  0
 41109  1  0  0  0
 41110  1  0  0  0
 41 48  1  0  0  0
 42 43  1  0  0  0
 42 66  1  0  0  0
 42111  1  0  0  0
 42112  1  0  0  0
 43 44  1  0  0  0
 44113  1  0  0  0
 45 46  2  0  0  0
 45114  1  0  0  0
 46115  1  0  0  0
 47116  1  0  0  0
 47117  1  0  0  0
 48 56  1  0  0  0
 48 65  1  0  0  0
 48118  1  0  0  0
 49 50  1  0  0  0
 49 53  1  0  0  0
 49 64  1  0  0  0
 49119  1  0  0  0
 50 51  1  0  0  0
 50120  1  0  0  0
 50121  1  0  0  0
 51 52  1  0  0  0
 51122  1  0  0  0
 51123  1  0  0  0
 52124  1  0  0  0
 52125  1  0  0  0
 53 54  1  0  0  0
 54 55  2  0  0  0
 54126  1  0  0  0
 55 57  1  0  0  0
 55127  1  0  0  0
 56 69  2  0  0  0
 57 58  2  0  0  0
 57128  1  0  0  0
 58129  1  0  0  0
 59 60  1  0  0  0
 59 61  1  0  0  0
 59 62  1  0  0  0
 60130  1  0  0  0
 60131  1  0  0  0
 60132  1  0  0  0
 61133  1  0  0  0
 61134  1  0  0  0
 61135  1  0  0  0
 62136  1  0  0  0
 62137  1  0  0  0
 62138  1  0  0  0
 63 65  1  0  0  0
 63139  1  0  0  0
 63140  1  0  0  0
 63141  1  0  0  0
 64142  1  0  0  0
 65143  1  0  0  0
 68 84  1  0  0  0
 71 73  2  0  0  0
 71 76  1  0  0  0
 71144  1  0  0  0
 72 74  1  0  0  0
 72 75  2  0  0  0
 72145  1  0  0  0
 73 75  1  0  0  0
 73 77  1  0  0  0
 74 76  2  0  0  0
 74 78  1  0  0  0
 75 81  1  0  0  0
 76 82  1  0  0  0
 77 79  2  0  0  0
 77146  1  0  0  0
 78 80  2  0  0  0
 78147  1  0  0  0
 79148  1  0  0  0
 80 83  1  0  0  0
 80 84  1  0  0  0
 81149  1  0  0  0
 81150  1  0  0  0
 81151  1  0  0  0
 82152  1  0  0  0
 82153  1  0  0  0
 82154  1  0  0  0
 83155  1  0  0  0
 83156  1  0  0  0
 83157  1  0  0  0
 84158  1  0  0  0
 84159  1  0  0  0
M  ISO  4   1 100  68 101  79 100  84 101
M  END
> <chiral flag>
0

> <version>
0

> <s_m_source_file>
/data/baiqing/PycharmProjects/Reinvent-master-3.2/result/LINK_invent/BTK/process_docking_weight1_custom_product_contain_oxygen_bond_distance_aromatic_linkinvent_7_9_3/rearranged_h_0126.sdf

> <i_m_source_file_index>
80

> <r_mmod_Potential_Energy-OPLS-2005>
445.950744628906

> <r_mmod_Stretch_Energy-OPLS-2005>
97.8708877563477

> <r_mmod_Bend_Energy-OPLS-2005>
436.194030761719

> <r_mmod_Torsional_Energy-OPLS-2005>
224.324920654297

> <r_mmod_Improper_Torsional_Energy-OPLS-2005>
5.38046073913574

> <r_mmod_Van_der_Waal_Energy-OPLS-2005>
156.493118286133

> <r_mmod_Electrostatic_Energy-OPLS-2005>
-346.573120117188

> <r_mmod_Solvation_Energy-OPLS-2005>
-184.437606811523

> <b_mmod_Minimization_Converged-OPLS-2005>
0

> <r_mmod_RMS_Derivative-OPLS-2005>
7.04093933105469

$$$$
80
                    3D
 Structure written by MMmdl.
157165  0  0  1  0            999 V2000
  -30.6757  -14.6813   20.3684 C   0  0  0  0  0  0
  -30.4307  -12.3966   19.4512 C   0  0  0  0  0  0
  -29.4985  -12.4415   18.2222 C   0  0  0  0  0  0
  -28.0280  -12.2543   18.6493 C   0  0  0  0  0  0
  -27.6225  -13.1729   19.8284 C   0  0  2  0  0  0
  -28.6888  -13.1943   20.9476 C   0  0  0  0  0  0
  -25.2558  -13.8022   20.5747 C   0  0  0  0  0  0
  -24.1787  -13.0364   20.9251 C   0  0  0  0  0  0
  -24.6299  -11.6817   20.8801 C   0  0  0  0  0  0
  -23.8968  -10.4240   21.0449 C   0  0  0  0  0  0
  -24.3553   -9.4166   21.9211 C   0  0  0  0  0  0
  -23.6254   -8.2194   22.0756 C   0  0  0  0  0  0
  -22.4240   -8.0237   21.3536 C   0  0  0  0  0  0
  -21.9854   -9.0210   20.4650 C   0  0  0  0  0  0
  -22.7158  -10.2098   20.3080 C   0  0  0  0  0  0
  -21.6835   -6.0706   22.5274 C   0  0  0  0  0  0
  -21.3996   -6.5619   23.8202 C   0  0  0  0  0  0
  -21.3656   -5.6780   24.9170 C   0  0  0  0  0  0
  -21.6049   -4.3045   24.7227 C   0  0  0  0  0  0
  -21.8824   -3.8129   23.4352 C   0  0  0  0  0  0
  -21.9192   -4.6939   22.3403 C   0  0  0  0  0  0
  -22.7834  -13.5226   21.1881 C   0  0  0  0  0  0
  -22.1668   -4.2127   21.0982 F   0  0  0  0  0  0
  -21.5640   -3.4532   25.7740 F   0  0  0  0  0  0
  -30.0040  -13.4810   20.3510 N   0  0  0  0  0  0
  -26.2861  -12.9059   20.3297 N   0  0  0  0  0  0
  -25.9197  -11.6286   20.5821 N   0  0  0  0  0  0
  -22.0441  -12.8250   22.0432 N   0  0  0  0  0  0
  -25.4397  -15.1734   20.4154 N   0  0  0  0  0  0
  -31.9053  -14.7156   20.3295 O   0  0  0  0  0  0
  -21.6617   -6.8832   21.4228 O   0  0  0  0  0  0
  -22.3565  -14.5540   20.6710 O   0  0  0  0  0  0
  -24.6211  -31.8636   23.2063 C   0  0  0  0  0  0
  -25.9078  -32.4799   23.8379 C   0  0  1  0  0  0
  -27.2319  -27.3651   20.1120 C   0  0  0  0  0  0
  -25.5908  -33.8599   24.2299 N   0  0  0  0  0  0
  -23.4129  -30.4873   21.5489 C   0  0  2  0  0  0
  -24.8601  -28.9488   20.1134 C   0  0  0  0  0  0
  -22.7449  -29.4643   22.4971 C   0  0  0  0  0  0
  -18.0276  -28.1384   22.8491 C   0  0  0  0  0  0
  -24.1481  -36.7302   23.2642 C   0  0  0  0  0  0
  -25.9503  -30.8083   21.3714 C   0  0  0  0  0  0
  -26.0263  -29.4399   20.7137 C   0  0  0  0  0  0
  -27.2150  -28.6595   20.7037 C   0  0  0  0  0  0
  -26.0410  -26.9147   19.4924 C   0  0  0  0  0  0
  -24.8668  -27.6889   19.4961 C   0  0  0  0  0  0
  -23.6247  -29.8216   20.1638 C   0  0  0  0  0  0
  -25.4107  -36.3100   24.0336 C   0  0  1  0  0  0
  -20.5873  -28.3675   23.1306 C   0  0  2  0  0  0
  -20.6762  -26.9401   22.5431 C   0  0  0  0  0  0
  -19.5750  -26.6382   21.5222 C   0  0  0  0  0  0
  -18.1921  -26.7935   22.1613 C   0  0  0  0  0  0
  -19.1527  -28.8846   23.2895 C   0  0  0  0  0  0
  -18.9452  -30.1449   23.8909 C   0  0  0  0  0  0
  -17.6453  -30.6586   24.0568 C   0  0  0  0  0  0
  -25.9045  -34.9467   23.5119 C   0  0  0  0  0  0
  -16.5343  -29.9087   23.6335 C   0  0  0  0  0  0
  -16.7264  -28.6506   23.0353 C   0  0  0  0  0  0
  -26.4472  -31.6600   25.0736 C   0  0  0  0  0  0
  -25.3713  -31.3737   26.1470 C   0  0  0  0  0  0
  -27.0305  -30.3025   24.6174 C   0  0  0  0  0  0
  -27.6047  -32.4326   25.7493 C   0  0  0  0  0  0
  -27.5583  -37.1803   24.8459 C   0  0  0  0  0  0
  -21.4170  -29.3029   22.3703 N   0  0  0  0  0  0
  -26.4288  -37.3791   23.9414 N   0  0  0  0  0  0
  -24.6801  -31.0683   22.0996 N   0  0  0  0  0  0
  -23.4191  -28.8189   23.3040 O   0  0  0  0  0  0
  -28.3696  -26.5567   20.1586 O   0  0  0  0  0  0
  -26.5616  -34.8929   22.4686 O   0  0  0  0  0  0
  -23.5387  -32.1414   23.7420 O   0  0  0  0  0  0
  -29.1707  -19.5418   21.0477 C   0  0  0  0  0  0
  -29.1812  -18.1226   20.9479 C   0  0  0  0  0  0
  -31.2876  -19.6071   19.9223 C   0  0  0  0  0  0
  -30.2252  -20.3216   20.5239 C   0  0  0  0  0  0
  -30.2055  -17.3992   20.2702 C   0  0  0  0  0  0
  -31.2771  -18.1914   19.7449 C   0  0  0  0  0  0
  -30.2400  -21.8293   20.4853 C   0  0  0  0  0  0
  -29.1978  -22.7106   20.4519 C   0  0  0  0  0  0
  -29.8915  -15.9604   19.8602 C   0  0  0  0  0  0
  -29.3730  -24.2093   20.4023 C   0  0  0  0  0  0
  -32.4575  -18.2187   17.4761 C   0  0  0  0  0  0
  -32.3953  -17.6051   18.8838 C   0  0  0  0  0  0
  -28.1470  -25.1109   20.0503 C   0  0  0  0  0  0
  -29.0022  -15.8908   18.9651 N   0  0  0  0  0  0
  -30.4647  -24.7480   20.6177 O   0  0  0  0  0  0
  -31.4709  -12.5063   19.1391 H   0  0  0  0  0  0
  -30.3646  -11.4340   19.9596 H   0  0  0  0  0  0
  -29.7795  -11.6611   17.5141 H   0  0  0  0  0  0
  -29.6166  -13.3895   17.6944 H   0  0  0  0  0  0
  -27.9018  -11.2109   18.9389 H   0  0  0  0  0  0
  -27.3637  -12.4145   17.7989 H   0  0  0  0  0  0
  -27.5296  -14.1461   19.3838 H   0  0  0  0  0  0
  -28.7169  -12.2391   21.4731 H   0  0  0  0  0  0
  -28.4359  -13.9509   21.6917 H   0  0  0  0  0  0
  -25.2696   -9.5657   22.4788 H   0  0  0  0  0  0
  -23.9971   -7.4582   22.7468 H   0  0  0  0  0  0
  -21.0785   -8.8725   19.8955 H   0  0  0  0  0  0
  -22.3619  -10.9650   19.6203 H   0  0  0  0  0  0
  -21.1967   -7.6125   23.9698 H   0  0  0  0  0  0
  -21.1482   -6.0511   25.9072 H   0  0  0  0  0  0
  -22.0608   -2.7593   23.2859 H   0  0  0  0  0  0
  -22.4042  -11.9920   22.4843 H   0  0  0  0  0  0
  -21.1068  -13.1312   22.2619 H   0  0  0  0  0  0
  -24.6875  -15.8453   20.5202 H   0  0  0  0  0  0
  -26.3025  -15.5862   20.0792 H   0  0  0  0  0  0
  -26.7150  -32.5481   23.1141 H   0  0  0  0  0  0
  -25.0047  -33.9747   25.0436 H   0  0  0  0  0  0
  -22.7048  -31.3066   21.4078 H   0  0  0  0  0  0
  -23.3754  -35.9623   23.3297 H   0  0  0  0  0  0
  -24.3577  -36.8928   22.2059 H   0  0  0  0  0  0
  -23.7212  -37.6495   23.6665 H   0  0  0  0  0  0
  -26.0762  -31.5736   20.6045 H   0  0  0  0  0  0
  -26.8329  -30.8561   21.9982 H   0  0  0  0  0  0
  -28.1106  -29.0332   21.1804 H   0  0  0  0  0  0
  -25.9882  -25.9541   19.0023 H   0  0  0  0  0  0
  -23.9724  -27.3056   19.0237 H   0  0  0  0  0  0
  -23.7362  -30.5974   19.4054 H   0  0  0  0  0  0
  -22.7469  -29.2448   19.8669 H   0  0  0  0  0  0
  -25.1286  -36.1964   25.0829 H   0  0  0  0  0  0
  -20.9957  -28.3244   24.1429 H   0  0  0  0  0  0
  -20.5648  -26.2288   23.3627 H   0  0  0  0  0  0
  -21.6635  -26.7431   22.1232 H   0  0  0  0  0  0
  -19.6911  -25.6292   21.1250 H   0  0  0  0  0  0
  -19.6706  -27.3197   20.6758 H   0  0  0  0  0  0
  -17.4204  -26.6704   21.3999 H   0  0  0  0  0  0
  -18.0297  -26.0066   22.8990 H   0  0  0  0  0  0
  -19.7925  -30.7263   24.2284 H   0  0  0  0  0  0
  -17.5008  -31.6269   24.5161 H   0  0  0  0  0  0
  -15.5346  -30.2993   23.7659 H   0  0  0  0  0  0
  -15.8660  -28.0834   22.7063 H   0  0  0  0  0  0
  -24.5905  -30.7060   25.7810 H   0  0  0  0  0  0
  -24.8879  -32.2900   26.4875 H   0  0  0  0  0  0
  -25.8043  -30.8945   27.0260 H   0  0  0  0  0  0
  -26.2873  -29.6792   24.1188 H   0  0  0  0  0  0
  -27.3993  -29.7267   25.4673 H   0  0  0  0  0  0
  -27.8749  -30.4313   23.9397 H   0  0  0  0  0  0
  -27.2669  -33.3623   26.2090 H   0  0  0  0  0  0
  -28.3844  -32.6894   25.0308 H   0  0  0  0  0  0
  -28.0737  -31.8442   26.5391 H   0  0  0  0  0  0
  -28.2601  -38.0100   24.7514 H   0  0  0  0  0  0
  -28.1075  -36.2635   24.6264 H   0  0  0  0  0  0
  -27.2313  -37.1426   25.8864 H   0  0  0  0  0  0
  -20.9339  -29.8745   21.6912 H   0  0  0  0  0  0
  -26.0178  -38.2869   24.1425 H   0  0  0  0  0  0
  -28.3260  -20.0303   21.5137 H   0  0  0  0  0  0
  -28.3187  -17.5855   21.3186 H   0  0  0  0  0  0
  -32.1049  -20.1775   19.5040 H   0  0  0  0  0  0
  -31.2337  -22.2561   20.4887 H   0  0  0  0  0  0
  -28.1835  -22.3401   20.4450 H   0  0  0  0  0  0
  -33.2454  -17.7482   16.8874 H   0  0  0  0  0  0
  -32.6697  -19.2878   17.4983 H   0  0  0  0  0  0
  -31.5169  -18.0746   16.9434 H   0  0  0  0  0  0
  -32.2966  -16.5325   18.7590 H   0  0  0  0  0  0
  -33.3460  -17.7605   19.3956 H   0  0  0  0  0  0
  -27.3234  -24.8212   20.7040 H   0  0  0  0  0  0
  -27.8525  -24.8699   19.0285 H   0  0  0  0  0  0
  -28.6617  -16.8163   18.7348 H   0  0  0  0  0  0
  1 25  1  0  0  0
  1 30  2  0  0  0
  1 79  1  0  0  0
  2  3  1  0  0  0
  2 25  1  0  0  0
  2 86  1  0  0  0
  2 87  1  0  0  0
  3  4  1  0  0  0
  3 88  1  0  0  0
  3 89  1  0  0  0
  4  5  1  0  0  0
  4 90  1  0  0  0
  4 91  1  0  0  0
  5  6  1  0  0  0
  5 26  1  0  0  0
  5 92  1  0  0  0
  6 25  1  0  0  0
  6 93  1  0  0  0
  6 94  1  0  0  0
  7  8  2  0  0  0
  7 26  1  0  0  0
  7 29  1  0  0  0
  8  9  1  0  0  0
  8 22  1  0  0  0
  9 10  1  0  0  0
  9 27  2  0  0  0
 10 11  2  0  0  0
 10 15  1  0  0  0
 11 12  1  0  0  0
 11 95  1  0  0  0
 12 13  2  0  0  0
 12 96  1  0  0  0
 13 14  1  0  0  0
 13 31  1  0  0  0
 14 15  2  0  0  0
 14 97  1  0  0  0
 15 98  1  0  0  0
 16 17  2  0  0  0
 16 21  1  0  0  0
 16 31  1  0  0  0
 17 18  1  0  0  0
 17 99  1  0  0  0
 18 19  2  0  0  0
 18100  1  0  0  0
 19 20  1  0  0  0
 19 24  1  0  0  0
 20 21  2  0  0  0
 20101  1  0  0  0
 21 23  1  0  0  0
 22 28  1  0  0  0
 22 32  2  0  0  0
 26 27  1  0  0  0
 28102  1  0  0  0
 28103  1  0  0  0
 29104  1  0  0  0
 29105  1  0  0  0
 33 34  1  0  0  0
 33 66  1  0  0  0
 33 70  2  0  0  0
 34 36  1  0  0  0
 34 59  1  0  0  0
 34106  1  0  0  0
 35 44  2  0  0  0
 35 45  1  0  0  0
 35 68  1  0  0  0
 36 56  1  0  0  0
 36107  1  0  0  0
 37 39  1  0  0  0
 37 47  1  0  0  0
 37 66  1  0  0  0
 37108  1  0  0  0
 38 43  2  0  0  0
 38 46  1  0  0  0
 38 47  1  0  0  0
 39 64  1  0  0  0
 39 67  2  0  0  0
 40 52  1  0  0  0
 40 53  2  0  0  0
 40 58  1  0  0  0
 41109  1  0  0  0
 41110  1  0  0  0
 41111  1  0  0  0
 41 48  1  0  0  0
 42 43  1  0  0  0
 42 66  1  0  0  0
 42112  1  0  0  0
 42113  1  0  0  0
 43 44  1  0  0  0
 44114  1  0  0  0
 45 46  2  0  0  0
 45115  1  0  0  0
 46116  1  0  0  0
 47117  1  0  0  0
 47118  1  0  0  0
 48 56  1  0  0  0
 48 65  1  0  0  0
 48119  1  0  0  0
 49 50  1  0  0  0
 49 53  1  0  0  0
 49 64  1  0  0  0
 49120  1  0  0  0
 50 51  1  0  0  0
 50121  1  0  0  0
 50122  1  0  0  0
 51 52  1  0  0  0
 51123  1  0  0  0
 51124  1  0  0  0
 52125  1  0  0  0
 52126  1  0  0  0
 53 54  1  0  0  0
 54 55  2  0  0  0
 54127  1  0  0  0
 55 57  1  0  0  0
 55128  1  0  0  0
 56 69  2  0  0  0
 57 58  2  0  0  0
 57129  1  0  0  0
 58130  1  0  0  0
 59 60  1  0  0  0
 59 61  1  0  0  0
 59 62  1  0  0  0
 60131  1  0  0  0
 60132  1  0  0  0
 60133  1  0  0  0
 61134  1  0  0  0
 61135  1  0  0  0
 61136  1  0  0  0
 62137  1  0  0  0
 62138  1  0  0  0
 62139  1  0  0  0
 63 65  1  0  0  0
 63140  1  0  0  0
 63141  1  0  0  0
 63142  1  0  0  0
 64143  1  0  0  0
 65144  1  0  0  0
 68 83  1  0  0  0
 71 72  2  0  0  0
 71 74  1  0  0  0
 71145  1  0  0  0
 72 75  1  0  0  0
 72146  1  0  0  0
 73 74  2  0  0  0
 73 76  1  0  0  0
 73147  1  0  0  0
 74 77  1  0  0  0
 75 76  2  0  0  0
 75 79  1  0  0  0
 76 82  1  0  0  0
 77 78  2  0  0  0
 77148  1  0  0  0
 78 80  1  0  0  0
 78149  1  0  0  0
 79 84  2  0  0  0
 80 83  1  0  0  0
 80 85  2  0  0  0
 81 82  1  0  0  0
 81150  1  0  0  0
 81151  1  0  0  0
 81152  1  0  0  0
 82153  1  0  0  0
 82154  1  0  0  0
 83155  1  0  0  0
 83156  1  0  0  0
 84157  1  0  0  0
M  ISO  4   1 100  68 101  79 100  83 101
M  END
> <chiral flag>
0

> <version>
0

> <s_m_source_file>
/data/baiqing/PycharmProjects/Reinvent-master-3.2/result/LINK_invent/BTK/process_docking_weight1_custom_product_contain_oxygen_bond_distance_aromatic_linkinvent_7_9_3/rearranged_h_0126.sdf

> <i_m_source_file_index>
81

> <r_mmod_Potential_Energy-OPLS-2005>
291.164703369141

> <r_mmod_Stretch_Energy-OPLS-2005>
71.7950897216797

> <r_mmod_Bend_Energy-OPLS-2005>
135.307342529297

> <r_mmod_Torsional_Energy-OPLS-2005>
258.86767578125

> <r_mmod_Improper_Torsional_Energy-OPLS-2005>
20.0227203369141

> <r_mmod_Van_der_Waal_Energy-OPLS-2005>
157.161880493164

> <r_mmod_Electrostatic_Energy-OPLS-2005>
-207.488082885742

> <r_mmod_Solvation_Energy-OPLS-2005>
-212.012313842773

> <b_mmod_Minimization_Converged-OPLS-2005>
0

> <r_mmod_RMS_Derivative-OPLS-2005>
1.14993917942047

$$$$
81
                    3D
 Structure written by MMmdl.
162170  0  0  1  0            999 V2000
  -30.6375  -14.6575   20.4394 C   0  0  0  0  0  0
  -30.4196  -12.3918   19.4614 C   0  0  0  0  0  0
  -29.5036  -12.4936   18.2230 C   0  0  0  0  0  0
  -28.0255  -12.3302   18.6265 C   0  0  0  0  0  0
  -27.6371  -13.2171   19.8377 C   0  0  2  0  0  0
  -28.6796  -13.1342   20.9730 C   0  0  0  0  0  0
  -25.2518  -13.8164   20.5686 C   0  0  0  0  0  0
  -24.1802  -13.0424   20.9211 C   0  0  0  0  0  0
  -24.6378  -11.6900   20.8736 C   0  0  0  0  0  0
  -23.9057  -10.4289   21.0409 C   0  0  0  0  0  0
  -24.3625   -9.4209   21.9170 C   0  0  0  0  0  0
  -23.6317   -8.2238   22.0738 C   0  0  0  0  0  0
  -22.4287   -8.0279   21.3547 C   0  0  0  0  0  0
  -21.9926   -9.0231   20.4633 C   0  0  0  0  0  0
  -22.7239  -10.2114   20.3051 C   0  0  0  0  0  0
  -21.6863   -6.0744   22.5295 C   0  0  0  0  0  0
  -21.4011   -6.5652   23.8224 C   0  0  0  0  0  0
  -21.3657   -5.6804   24.9184 C   0  0  0  0  0  0
  -21.6048   -4.3068   24.7238 C   0  0  0  0  0  0
  -21.8820   -3.8160   23.4362 C   0  0  0  0  0  0
  -21.9198   -4.6973   22.3413 C   0  0  0  0  0  0
  -22.7832  -13.5203   21.1901 C   0  0  0  0  0  0
  -22.1667   -4.2165   21.0993 F   0  0  0  0  0  0
  -21.5624   -3.4548   25.7744 F   0  0  0  0  0  0
  -29.9965  -13.4449   20.4063 N   0  0  0  0  0  0
  -26.2907  -12.9330   20.3211 N   0  0  0  0  0  0
  -25.9289  -11.6490   20.5697 N   0  0  0  0  0  0
  -22.0506  -12.8156   22.0447 N   0  0  0  0  0  0
  -25.4248  -15.1886   20.4136 N   0  0  0  0  0  0
  -31.8419  -14.7164   20.1785 O   0  0  0  0  0  0
  -21.6657   -6.8873   21.4250 O   0  0  0  0  0  0
  -22.3507  -14.5526   20.6782 O   0  0  0  0  0  0
  -24.6254  -31.8587   23.1985 C   0  0  0  0  0  0
  -25.9092  -32.4767   23.8349 C   0  0  1  0  0  0
  -27.2375  -27.3307   20.1002 C   0  0  0  0  0  0
  -25.5908  -33.8575   24.2272 N   0  0  0  0  0  0
  -23.4186  -30.4788   21.5419 C   0  0  2  0  0  0
  -24.8634  -28.9286   20.1097 C   0  0  0  0  0  0
  -22.7463  -29.4614   22.4937 C   0  0  0  0  0  0
  -18.0283  -28.1370   22.8481 C   0  0  0  0  0  0
  -24.1492  -36.7298   23.2642 C   0  0  0  0  0  0
  -25.9576  -30.7922   21.3647 C   0  0  0  0  0  0
  -26.0303  -29.4206   20.7060 C   0  0  0  0  0  0
  -27.2136  -28.6296   20.6929 C   0  0  0  0  0  0
  -26.0320  -26.8667   19.5314 C   0  0  0  0  0  0
  -24.8646  -27.6549   19.5181 C   0  0  0  0  0  0
  -23.6311  -29.8071   20.1585 C   0  0  0  0  0  0
  -25.4107  -36.3077   24.0340 C   0  0  1  0  0  0
  -20.5884  -28.3672   23.1283 C   0  0  2  0  0  0
  -20.6762  -26.9401   22.5399 C   0  0  0  0  0  0
  -19.5737  -26.6375   21.5200 C   0  0  0  0  0  0
  -18.1923  -26.7917   22.1621 C   0  0  0  0  0  0
  -19.1538  -28.8836   23.2883 C   0  0  0  0  0  0
  -18.9458  -30.1435   23.8905 C   0  0  0  0  0  0
  -17.6458  -30.6577   24.0550 C   0  0  0  0  0  0
  -25.9041  -34.9448   23.5106 C   0  0  0  0  0  0
  -16.5349  -29.9072   23.6322 C   0  0  0  0  0  0
  -16.7272  -28.6488   23.0353 C   0  0  0  0  0  0
  -26.4464  -31.6579   25.0729 C   0  0  0  0  0  0
  -25.3698  -31.3712   26.1455 C   0  0  0  0  0  0
  -27.0298  -30.3001   24.6182 C   0  0  0  0  0  0
  -27.6014  -32.4318   25.7505 C   0  0  0  0  0  0
  -27.5577  -37.1805   24.8461 C   0  0  0  0  0  0
  -21.4176  -29.3033   22.3687 N   0  0  0  0  0  0
  -26.4278  -37.3775   23.9418 N   0  0  0  0  0  0
  -24.6865  -31.0610   22.0922 N   0  0  0  0  0  0
  -23.4191  -28.8167   23.3022 O   0  0  0  0  0  0
  -28.4011  -26.5514   20.1797 O   0  0  0  0  0  0
  -26.5631  -34.8917   22.4683 O   0  0  0  0  0  0
  -23.5415  -32.1392   23.7302 O   0  0  0  0  0  0
  -28.9903  -18.8890   19.2158 C   0  0  0  0  0  0
  -29.5807  -20.9547   20.9980 C   0  0  0  0  0  0
  -29.7132  -18.5378   20.3809 C   0  0  0  0  0  0
  -28.9569  -21.3231   19.7786 C   0  0  0  0  0  0
  -29.9652  -19.6062   21.2919 C   0  0  0  0  0  0
  -28.6279  -20.2357   18.9096 C   0  0  0  0  0  0
  -30.3371  -17.1564   20.5315 C   0  0  0  0  0  0
  -28.7342  -22.7735   19.3506 C   0  0  0  0  0  0
  -29.7958  -15.8947   20.4925 C   0  0  0  0  0  0
  -28.8380  -23.9780   20.0030 C   0  0  0  0  0  0
  -30.7053  -19.3282   22.5886 C   0  0  0  0  0  0
  -27.9241  -20.4947   17.5848 C   0  0  0  0  0  0
  -28.1910  -25.3955   17.9081 C   0  0  0  0  0  0
  -30.2793  -25.7889   19.1499 C   0  0  0  0  0  0
  -28.7987  -25.4056   19.3326 C   0  0  0  0  0  0
  -31.4643  -12.4910   19.1648 H   0  0  0  0  0  0
  -30.3324  -11.4078   19.9234 H   0  0  0  0  0  0
  -29.7737  -11.7363   17.4861 H   0  0  0  0  0  0
  -29.6487  -13.4595   17.7353 H   0  0  0  0  0  0
  -27.8644  -11.2788   18.8668 H   0  0  0  0  0  0
  -27.3798  -12.5485   17.7754 H   0  0  0  0  0  0
  -27.6277  -14.2338   19.4511 H   0  0  0  0  0  0
  -28.6869  -12.1389   21.4187 H   0  0  0  0  0  0
  -28.4301  -13.8261   21.7790 H   0  0  0  0  0  0
  -25.2765   -9.5700   22.4747 H   0  0  0  0  0  0
  -24.0047   -7.4632   22.7440 H   0  0  0  0  0  0
  -21.0871   -8.8725   19.8931 H   0  0  0  0  0  0
  -22.3685  -10.9645   19.6170 H   0  0  0  0  0  0
  -21.1993   -7.6153   23.9728 H   0  0  0  0  0  0
  -21.1479   -6.0537   25.9086 H   0  0  0  0  0  0
  -22.0599   -2.7623   23.2870 H   0  0  0  0  0  0
  -22.4152  -11.9825   22.4837 H   0  0  0  0  0  0
  -21.1104  -13.1108   22.2633 H   0  0  0  0  0  0
  -24.6660  -15.8507   20.5310 H   0  0  0  0  0  0
  -26.2825  -15.6244   20.1014 H   0  0  0  0  0  0
  -26.7171  -32.5425   23.1111 H   0  0  0  0  0  0
  -25.0040  -33.9735   25.0405 H   0  0  0  0  0  0
  -22.7122  -31.2985   21.3952 H   0  0  0  0  0  0
  -23.3759  -35.9624   23.3273 H   0  0  0  0  0  0
  -24.3593  -36.8951   22.2062 H   0  0  0  0  0  0
  -23.7238  -37.6492   23.6678 H   0  0  0  0  0  0
  -26.0904  -31.5554   20.5966 H   0  0  0  0  0  0
  -26.8374  -30.8385   21.9955 H   0  0  0  0  0  0
  -28.1119  -29.0039   21.1635 H   0  0  0  0  0  0
  -25.9522  -25.8678   19.1408 H   0  0  0  0  0  0
  -23.9602  -27.2571   19.0790 H   0  0  0  0  0  0
  -23.7495  -30.5814   19.4000 H   0  0  0  0  0  0
  -22.7517  -29.2343   19.8575 H   0  0  0  0  0  0
  -25.1287  -36.1926   25.0835 H   0  0  0  0  0  0
  -20.9984  -28.3242   24.1401 H   0  0  0  0  0  0
  -20.5638  -26.2299   23.3602 H   0  0  0  0  0  0
  -21.6638  -26.7406   22.1217 H   0  0  0  0  0  0
  -19.6900  -25.6282   21.1241 H   0  0  0  0  0  0
  -19.6671  -27.3181   20.6725 H   0  0  0  0  0  0
  -17.4188  -26.6661   21.4031 H   0  0  0  0  0  0
  -18.0327  -26.0057   22.9014 H   0  0  0  0  0  0
  -19.7927  -30.7242   24.2309 H   0  0  0  0  0  0
  -17.5005  -31.6265   24.5127 H   0  0  0  0  0  0
  -15.5350  -30.2970   23.7626 H   0  0  0  0  0  0
  -15.8677  -28.0791   22.7079 H   0  0  0  0  0  0
  -24.5886  -30.7048   25.7791 H   0  0  0  0  0  0
  -24.8880  -32.2870   26.4886 H   0  0  0  0  0  0
  -25.8031  -30.8899   27.0231 H   0  0  0  0  0  0
  -26.2878  -29.6777   24.1172 H   0  0  0  0  0  0
  -27.3947  -29.7229   25.4688 H   0  0  0  0  0  0
  -27.8762  -30.4289   23.9434 H   0  0  0  0  0  0
  -27.2624  -33.3622   26.2069 H   0  0  0  0  0  0
  -28.3830  -32.6871   25.0340 H   0  0  0  0  0  0
  -28.0673  -31.8460   26.5438 H   0  0  0  0  0  0
  -28.2565  -38.0128   24.7529 H   0  0  0  0  0  0
  -28.1105  -36.2664   24.6246 H   0  0  0  0  0  0
  -27.2317  -37.1407   25.8869 H   0  0  0  0  0  0
  -20.9350  -29.8788   21.6929 H   0  0  0  0  0  0
  -26.0159  -38.2851   24.1415 H   0  0  0  0  0  0
  -28.7776  -18.1123   18.4931 H   0  0  0  0  0  0
  -29.8329  -21.7383   21.6982 H   0  0  0  0  0  0
  -31.4151  -17.2020   20.6081 H   0  0  0  0  0  0
  -28.5229  -22.8677   18.2984 H   0  0  0  0  0  0
  -28.7227  -15.8158   20.4438 H   0  0  0  0  0  0
  -29.0288  -23.9757   21.0672 H   0  0  0  0  0  0
  -30.5801  -20.1470   23.2979 H   0  0  0  0  0  0
  -31.7725  -19.1983   22.4027 H   0  0  0  0  0  0
  -30.3248  -18.4212   23.0611 H   0  0  0  0  0  0
  -27.7239  -19.5691   17.0468 H   0  0  0  0  0  0
  -28.5395  -21.1169   16.9339 H   0  0  0  0  0  0
  -26.9687  -20.9947   17.7509 H   0  0  0  0  0  0
  -28.8331  -24.8604   17.2069 H   0  0  0  0  0  0
  -28.0747  -26.4055   17.5127 H   0  0  0  0  0  0
  -27.2289  -24.8893   17.8631 H   0  0  0  0  0  0
  -30.8134  -25.7996   20.1008 H   0  0  0  0  0  0
  -30.3873  -26.7802   18.7084 H   0  0  0  0  0  0
  -30.8005  -25.0839   18.5018 H   0  0  0  0  0  0
  1 25  1  0  0  0
  1 30  2  0  0  0
  1 79  1  0  0  0
  2  3  1  0  0  0
  2 25  1  0  0  0
  2 86  1  0  0  0
  2 87  1  0  0  0
  3  4  1  0  0  0
  3 88  1  0  0  0
  3 89  1  0  0  0
  4  5  1  0  0  0
  4 90  1  0  0  0
  4 91  1  0  0  0
  5  6  1  0  0  0
  5 26  1  0  0  0
  5 92  1  0  0  0
  6 25  1  0  0  0
  6 93  1  0  0  0
  6 94  1  0  0  0
  7  8  2  0  0  0
  7 26  1  0  0  0
  7 29  1  0  0  0
  8  9  1  0  0  0
  8 22  1  0  0  0
  9 10  1  0  0  0
  9 27  2  0  0  0
 10 11  2  0  0  0
 10 15  1  0  0  0
 11 12  1  0  0  0
 11 95  1  0  0  0
 12 13  2  0  0  0
 12 96  1  0  0  0
 13 14  1  0  0  0
 13 31  1  0  0  0
 14 15  2  0  0  0
 14 97  1  0  0  0
 15 98  1  0  0  0
 16 17  2  0  0  0
 16 21  1  0  0  0
 16 31  1  0  0  0
 17 18  1  0  0  0
 17 99  1  0  0  0
 18 19  2  0  0  0
 18100  1  0  0  0
 19 20  1  0  0  0
 19 24  1  0  0  0
 20 21  2  0  0  0
 20101  1  0  0  0
 21 23  1  0  0  0
 22 28  1  0  0  0
 22 32  2  0  0  0
 26 27  1  0  0  0
 28102  1  0  0  0
 28103  1  0  0  0
 29104  1  0  0  0
 29105  1  0  0  0
 33 34  1  0  0  0
 33 66  1  0  0  0
 33 70  2  0  0  0
 34 36  1  0  0  0
 34 59  1  0  0  0
 34106  1  0  0  0
 35 44  2  0  0  0
 35 45  1  0  0  0
 35 68  1  0  0  0
 36 56  1  0  0  0
 36107  1  0  0  0
 37 39  1  0  0  0
 37 47  1  0  0  0
 37 66  1  0  0  0
 37108  1  0  0  0
 38 43  2  0  0  0
 38 46  1  0  0  0
 38 47  1  0  0  0
 39 64  1  0  0  0
 39 67  2  0  0  0
 40 52  1  0  0  0
 40 53  2  0  0  0
 40 58  1  0  0  0
 41109  1  0  0  0
 41110  1  0  0  0
 41111  1  0  0  0
 41 48  1  0  0  0
 42 43  1  0  0  0
 42 66  1  0  0  0
 42112  1  0  0  0
 42113  1  0  0  0
 43 44  1  0  0  0
 44114  1  0  0  0
 45 46  2  0  0  0
 45115  1  0  0  0
 46116  1  0  0  0
 47117  1  0  0  0
 47118  1  0  0  0
 48 56  1  0  0  0
 48 65  1  0  0  0
 48119  1  0  0  0
 49 50  1  0  0  0
 49 53  1  0  0  0
 49 64  1  0  0  0
 49120  1  0  0  0
 50 51  1  0  0  0
 50121  1  0  0  0
 50122  1  0  0  0
 51 52  1  0  0  0
 51123  1  0  0  0
 51124  1  0  0  0
 52125  1  0  0  0
 52126  1  0  0  0
 53 54  1  0  0  0
 54 55  2  0  0  0
 54127  1  0  0  0
 55 57  1  0  0  0
 55128  1  0  0  0
 56 69  2  0  0  0
 57 58  2  0  0  0
 57129  1  0  0  0
 58130  1  0  0  0
 59 60  1  0  0  0
 59 61  1  0  0  0
 59 62  1  0  0  0
 60131  1  0  0  0
 60132  1  0  0  0
 60133  1  0  0  0
 61134  1  0  0  0
 61135  1  0  0  0
 61136  1  0  0  0
 62137  1  0  0  0
 62138  1  0  0  0
 62139  1  0  0  0
 63 65  1  0  0  0
 63140  1  0  0  0
 63141  1  0  0  0
 63142  1  0  0  0
 64143  1  0  0  0
 65144  1  0  0  0
 68 85  1  0  0  0
 71 73  2  0  0  0
 71 76  1  0  0  0
 71145  1  0  0  0
 72 74  1  0  0  0
 72 75  2  0  0  0
 72146  1  0  0  0
 73 75  1  0  0  0
 73 77  1  0  0  0
 74 76  2  0  0  0
 74 78  1  0  0  0
 75 81  1  0  0  0
 76 82  1  0  0  0
 77 79  2  0  0  0
 77147  1  0  0  0
 78 80  2  0  0  0
 78148  1  0  0  0
 79149  1  0  0  0
 80 85  1  0  0  0
 80150  1  0  0  0
 81151  1  0  0  0
 81152  1  0  0  0
 81153  1  0  0  0
 82154  1  0  0  0
 82155  1  0  0  0
 82156  1  0  0  0
 83157  1  0  0  0
 83158  1  0  0  0
 83159  1  0  0  0
 83 85  1  0  0  0
 84 85  1  0  0  0
 84160  1  0  0  0
 84161  1  0  0  0
 84162  1  0  0  0
M  ISO  4   1 100  68 101  79 100  85 101
M  END
> <chiral flag>
0

> <version>
0

> <s_m_source_file>
/data/baiqing/PycharmProjects/Reinvent-master-3.2/result/LINK_invent/BTK/process_docking_weight1_custom_product_contain_oxygen_bond_distance_aromatic_linkinvent_7_9_3/rearranged_h_0126.sdf

> <i_m_source_file_index>
82

> <r_mmod_Potential_Energy-OPLS-2005>
107.998718261719

> <r_mmod_Stretch_Energy-OPLS-2005>
79.3432769775391

> <r_mmod_Bend_Energy-OPLS-2005>
168.905059814453

> <r_mmod_Torsional_Energy-OPLS-2005>
216.737396240234

> <r_mmod_Improper_Torsional_Energy-OPLS-2005>
10.6118574142456

> <r_mmod_Van_der_Waal_Energy-OPLS-2005>
153.810195922852

> <r_mmod_Electrostatic_Energy-OPLS-2005>
-388.952789306641

> <r_mmod_Solvation_Energy-OPLS-2005>
-184.509262084961

> <b_mmod_Minimization_Converged-OPLS-2005>
0

> <r_mmod_RMS_Derivative-OPLS-2005>
2.14561438560486

$$$$
82
                    3D
 Structure written by MMmdl.
153161  0  0  1  0            999 V2000
  -30.6272  -14.6959   20.4495 C   0  0  0  0  0  0
  -30.4284  -12.4221   19.4498 C   0  0  0  0  0  0
  -29.5043  -12.5032   18.2164 C   0  0  0  0  0  0
  -28.0256  -12.3451   18.6276 C   0  0  0  0  0  0
  -27.6407  -13.2306   19.8444 C   0  0  2  0  0  0
  -28.6912  -13.1443   20.9727 C   0  0  0  0  0  0
  -25.2501  -13.8199   20.5676 C   0  0  0  0  0  0
  -24.1794  -13.0444   20.9209 C   0  0  0  0  0  0
  -24.6396  -11.6917   20.8728 C   0  0  0  0  0  0
  -23.9070  -10.4293   21.0397 C   0  0  0  0  0  0
  -24.3622   -9.4209   21.9173 C   0  0  0  0  0  0
  -23.6295   -8.2238   22.0745 C   0  0  0  0  0  0
  -22.4276   -8.0274   21.3542 C   0  0  0  0  0  0
  -21.9914   -9.0253   20.4657 C   0  0  0  0  0  0
  -22.7238  -10.2136   20.3055 C   0  0  0  0  0  0
  -21.6849   -6.0733   22.5274 C   0  0  0  0  0  0
  -21.4020   -6.5635   23.8212 C   0  0  0  0  0  0
  -21.3660   -5.6788   24.9172 C   0  0  0  0  0  0
  -21.6040   -4.3051   24.7221 C   0  0  0  0  0  0
  -21.8815   -3.8147   23.4341 C   0  0  0  0  0  0
  -21.9193   -4.6962   22.3397 C   0  0  0  0  0  0
  -22.7808  -13.5222   21.1865 C   0  0  0  0  0  0
  -22.1656   -4.2151   21.0970 F   0  0  0  0  0  0
  -21.5629   -3.4529   25.7735 F   0  0  0  0  0  0
  -29.9931  -13.4808   20.3845 N   0  0  0  0  0  0
  -26.2930  -12.9408   20.3249 N   0  0  0  0  0  0
  -25.9325  -11.6554   20.5730 N   0  0  0  0  0  0
  -22.0456  -12.8229   22.0430 N   0  0  0  0  0  0
  -25.4131  -15.1928   20.4069 N   0  0  0  0  0  0
  -31.8252  -14.7819   20.1677 O   0  0  0  0  0  0
  -21.6641   -6.8874   21.4235 O   0  0  0  0  0  0
  -22.3470  -14.5510   20.6688 O   0  0  0  0  0  0
  -24.6276  -31.8587   23.1999 C   0  0  0  0  0  0
  -25.9120  -32.4774   23.8334 C   0  0  1  0  0  0
  -27.2239  -27.3053   20.1309 C   0  0  0  0  0  0
  -25.5937  -33.8572   24.2278 N   0  0  0  0  0  0
  -23.4219  -30.4806   21.5428 C   0  0  2  0  0  0
  -24.8690  -28.9236   20.1187 C   0  0  0  0  0  0
  -22.7481  -29.4627   22.4934 C   0  0  0  0  0  0
  -18.0296  -28.1394   22.8498 C   0  0  0  0  0  0
  -24.1497  -36.7293   23.2637 C   0  0  0  0  0  0
  -25.9617  -30.7887   21.3677 C   0  0  0  0  0  0
  -26.0383  -29.4100   20.7183 C   0  0  0  0  0  0
  -27.2224  -28.6137   20.7086 C   0  0  0  0  0  0
  -26.0327  -26.8602   19.5252 C   0  0  0  0  0  0
  -24.8670  -27.6543   19.5146 C   0  0  0  0  0  0
  -23.6382  -29.8080   20.1609 C   0  0  0  0  0  0
  -25.4119  -36.3081   24.0329 C   0  0  1  0  0  0
  -20.5896  -28.3700   23.1298 C   0  0  2  0  0  0
  -20.6791  -26.9419   22.5425 C   0  0  0  0  0  0
  -19.5759  -26.6384   21.5240 C   0  0  0  0  0  0
  -18.1938  -26.7940   22.1640 C   0  0  0  0  0  0
  -19.1546  -28.8862   23.2900 C   0  0  0  0  0  0
  -18.9462  -30.1469   23.8909 C   0  0  0  0  0  0
  -17.6458  -30.6592   24.0568 C   0  0  0  0  0  0
  -25.9049  -34.9448   23.5094 C   0  0  0  0  0  0
  -16.5353  -29.9092   23.6321 C   0  0  0  0  0  0
  -16.7283  -28.6512   23.0346 C   0  0  0  0  0  0
  -26.4495  -31.6586   25.0706 C   0  0  0  0  0  0
  -25.3724  -31.3736   26.1432 C   0  0  0  0  0  0
  -27.0335  -30.3015   24.6146 C   0  0  0  0  0  0
  -27.6051  -32.4317   25.7483 C   0  0  0  0  0  0
  -27.5584  -37.1794   24.8455 C   0  0  0  0  0  0
  -21.4191  -29.3048   22.3676 N   0  0  0  0  0  0
  -26.4292  -37.3777   23.9403 N   0  0  0  0  0  0
  -24.6898  -31.0589   22.0953 N   0  0  0  0  0  0
  -23.4203  -28.8170   23.3020 O   0  0  0  0  0  0
  -28.3483  -26.4712   20.0983 O   0  0  0  0  0  0
  -26.5606  -34.8913   22.4656 O   0  0  0  0  0  0
  -23.5432  -32.1393   23.7317 O   0  0  0  0  0  0
  -29.3019  -18.3539   20.3189 C   0  0  0  0  0  0
  -30.9358  -20.0211   21.0001 C   0  0  0  0  0  0
  -31.4504  -17.6298   21.1954 C   0  0  0  0  0  0
  -29.6569  -19.7556   20.4678 C   0  0  0  0  0  0
  -30.1903  -17.2584   20.6693 C   0  0  0  0  0  0
  -31.8135  -18.9812   21.3606 C   0  0  0  0  0  0
  -28.7488  -20.9765   20.0102 C   0  0  0  0  0  0
  -28.9408  -22.4484   20.6446 C   0  0  0  0  0  0
  -28.3701  -23.7577   19.9016 C   0  0  0  0  0  0
  -28.2920  -25.1290   20.7323 C   0  0  0  0  0  0
  -29.8326  -15.8261   20.5629 N   0  0  0  0  0  0
  -33.3606  -19.3748   22.0157 Cl  0  0  0  0  0  0
  -31.4717  -12.5350   19.1478 H   0  0  0  0  0  0
  -30.3556  -11.4414   19.9239 H   0  0  0  0  0  0
  -29.7769  -11.7353   17.4901 H   0  0  0  0  0  0
  -29.6436  -13.4623   17.7140 H   0  0  0  0  0  0
  -27.8592  -11.2940   18.8655 H   0  0  0  0  0  0
  -27.3747  -12.5673   17.7806 H   0  0  0  0  0  0
  -27.6389  -14.2566   19.4766 H   0  0  0  0  0  0
  -28.7166  -12.1426   21.4036 H   0  0  0  0  0  0
  -28.4421  -13.8240   21.7909 H   0  0  0  0  0  0
  -25.2772   -9.5683   22.4742 H   0  0  0  0  0  0
  -24.0007   -7.4632   22.7461 H   0  0  0  0  0  0
  -21.0838   -8.8773   19.8974 H   0  0  0  0  0  0
  -22.3684  -10.9667   19.6163 H   0  0  0  0  0  0
  -21.2017   -7.6149   23.9717 H   0  0  0  0  0  0
  -21.1481   -6.0520   25.9078 H   0  0  0  0  0  0
  -22.0600   -2.7611   23.2837 H   0  0  0  0  0  0
  -22.4075  -11.9918   22.4872 H   0  0  0  0  0  0
  -21.1063  -13.1245   22.2608 H   0  0  0  0  0  0
  -24.6371  -15.8363   20.5191 H   0  0  0  0  0  0
  -26.2462  -15.6386   20.0445 H   0  0  0  0  0  0
  -26.7188  -32.5453   23.1081 H   0  0  0  0  0  0
  -25.0112  -33.9715   25.0444 H   0  0  0  0  0  0
  -22.7161  -31.3014   21.3965 H   0  0  0  0  0  0
  -23.3759  -35.9620   23.3283 H   0  0  0  0  0  0
  -24.3599  -36.8929   22.2054 H   0  0  0  0  0  0
  -23.7237  -37.6484   23.6670 H   0  0  0  0  0  0
  -26.0842  -31.5464   20.5922 H   0  0  0  0  0  0
  -26.8453  -30.8488   21.9917 H   0  0  0  0  0  0
  -28.1262  -28.9854   21.1708 H   0  0  0  0  0  0
  -26.0030  -25.8833   19.0632 H   0  0  0  0  0  0
  -23.9679  -27.2758   19.0485 H   0  0  0  0  0  0
  -23.7599  -30.5818   19.4020 H   0  0  0  0  0  0
  -22.7571  -29.2388   19.8589 H   0  0  0  0  0  0
  -25.1295  -36.1928   25.0817 H   0  0  0  0  0  0
  -21.0012  -28.3288   24.1414 H   0  0  0  0  0  0
  -20.5750  -26.2294   23.3625 H   0  0  0  0  0  0
  -21.6650  -26.7478   22.1183 H   0  0  0  0  0  0
  -19.6920  -25.6299   21.1264 H   0  0  0  0  0  0
  -19.6705  -27.3199   20.6779 H   0  0  0  0  0  0
  -17.4219  -26.6720   21.4026 H   0  0  0  0  0  0
  -18.0313  -26.0085   22.9034 H   0  0  0  0  0  0
  -19.7935  -30.7293   24.2281 H   0  0  0  0  0  0
  -17.5004  -31.6269   24.5174 H   0  0  0  0  0  0
  -15.5351  -30.2990   23.7631 H   0  0  0  0  0  0
  -15.8694  -28.0831   22.7042 H   0  0  0  0  0  0
  -24.5887  -30.7106   25.7749 H   0  0  0  0  0  0
  -24.8938  -32.2919   26.4846 H   0  0  0  0  0  0
  -25.8039  -30.8906   27.0211 H   0  0  0  0  0  0
  -26.2909  -29.6764   24.1178 H   0  0  0  0  0  0
  -27.4054  -29.7259   25.4631 H   0  0  0  0  0  0
  -27.8762  -30.4300   23.9350 H   0  0  0  0  0  0
  -27.2664  -33.3617   26.2056 H   0  0  0  0  0  0
  -28.3871  -32.6878   25.0326 H   0  0  0  0  0  0
  -28.0715  -31.8452   26.5407 H   0  0  0  0  0  0
  -28.2571  -38.0120   24.7525 H   0  0  0  0  0  0
  -28.1108  -36.2642   24.6251 H   0  0  0  0  0  0
  -27.2302  -37.1407   25.8859 H   0  0  0  0  0  0
  -20.9370  -29.8754   21.6870 H   0  0  0  0  0  0
  -26.0172  -38.2842   24.1426 H   0  0  0  0  0  0
  -28.3294  -18.1195   19.9062 H   0  0  0  0  0  0
  -31.2816  -21.0326   21.1360 H   0  0  0  0  0  0
  -32.1638  -16.8802   21.5013 H   0  0  0  0  0  0
  -27.7068  -20.6844   20.1509 H   0  0  0  0  0  0
  -28.8727  -21.0630   18.9304 H   0  0  0  0  0  0
  -30.0047  -22.6498   20.7452 H   0  0  0  0  0  0
  -28.5577  -22.4265   21.6662 H   0  0  0  0  0  0
  -27.3767  -23.5377   19.5107 H   0  0  0  0  0  0
  -28.9908  -23.9291   19.0215 H   0  0  0  0  0  0
  -29.1520  -25.1216   21.4022 H   0  0  0  0  0  0
  -27.4300  -25.0803   21.3996 H   0  0  0  0  0  0
  -28.8451  -15.6283   20.5583 H   0  0  0  0  0  0
  1 25  1  0  0  0
  1 30  2  0  0  0
  1 81  1  0  0  0
  2  3  1  0  0  0
  2 25  1  0  0  0
  2 83  1  0  0  0
  2 84  1  0  0  0
  3  4  1  0  0  0
  3 85  1  0  0  0
  3 86  1  0  0  0
  4  5  1  0  0  0
  4 87  1  0  0  0
  4 88  1  0  0  0
  5  6  1  0  0  0
  5 26  1  0  0  0
  5 89  1  0  0  0
  6 25  1  0  0  0
  6 90  1  0  0  0
  6 91  1  0  0  0
  7  8  2  0  0  0
  7 26  1  0  0  0
  7 29  1  0  0  0
  8  9  1  0  0  0
  8 22  1  0  0  0
  9 10  1  0  0  0
  9 27  2  0  0  0
 10 11  2  0  0  0
 10 15  1  0  0  0
 11 12  1  0  0  0
 11 92  1  0  0  0
 12 13  2  0  0  0
 12 93  1  0  0  0
 13 14  1  0  0  0
 13 31  1  0  0  0
 14 15  2  0  0  0
 14 94  1  0  0  0
 15 95  1  0  0  0
 16 17  2  0  0  0
 16 21  1  0  0  0
 16 31  1  0  0  0
 17 18  1  0  0  0
 17 96  1  0  0  0
 18 19  2  0  0  0
 18 97  1  0  0  0
 19 20  1  0  0  0
 19 24  1  0  0  0
 20 21  2  0  0  0
 20 98  1  0  0  0
 21 23  1  0  0  0
 22 28  1  0  0  0
 22 32  2  0  0  0
 26 27  1  0  0  0
 28 99  1  0  0  0
 28100  1  0  0  0
 29101  1  0  0  0
 29102  1  0  0  0
 33 34  1  0  0  0
 33 66  1  0  0  0
 33 70  2  0  0  0
 34 36  1  0  0  0
 34 59  1  0  0  0
 34103  1  0  0  0
 35 44  2  0  0  0
 35 45  1  0  0  0
 35 68  1  0  0  0
 36 56  1  0  0  0
 36104  1  0  0  0
 37 39  1  0  0  0
 37 47  1  0  0  0
 37 66  1  0  0  0
 37105  1  0  0  0
 38 43  2  0  0  0
 38 46  1  0  0  0
 38 47  1  0  0  0
 39 64  1  0  0  0
 39 67  2  0  0  0
 40 52  1  0  0  0
 40 53  2  0  0  0
 40 58  1  0  0  0
 41106  1  0  0  0
 41107  1  0  0  0
 41108  1  0  0  0
 41 48  1  0  0  0
 42 43  1  0  0  0
 42 66  1  0  0  0
 42109  1  0  0  0
 42110  1  0  0  0
 43 44  1  0  0  0
 44111  1  0  0  0
 45 46  2  0  0  0
 45112  1  0  0  0
 46113  1  0  0  0
 47114  1  0  0  0
 47115  1  0  0  0
 48 56  1  0  0  0
 48 65  1  0  0  0
 48116  1  0  0  0
 49 50  1  0  0  0
 49 53  1  0  0  0
 49 64  1  0  0  0
 49117  1  0  0  0
 50 51  1  0  0  0
 50118  1  0  0  0
 50119  1  0  0  0
 51 52  1  0  0  0
 51120  1  0  0  0
 51121  1  0  0  0
 52122  1  0  0  0
 52123  1  0  0  0
 53 54  1  0  0  0
 54 55  2  0  0  0
 54124  1  0  0  0
 55 57  1  0  0  0
 55125  1  0  0  0
 56 69  2  0  0  0
 57 58  2  0  0  0
 57126  1  0  0  0
 58127  1  0  0  0
 59 60  1  0  0  0
 59 61  1  0  0  0
 59 62  1  0  0  0
 60128  1  0  0  0
 60129  1  0  0  0
 60130  1  0  0  0
 61131  1  0  0  0
 61132  1  0  0  0
 61133  1  0  0  0
 62134  1  0  0  0
 62135  1  0  0  0
 62136  1  0  0  0
 63 65  1  0  0  0
 63137  1  0  0  0
 63138  1  0  0  0
 63139  1  0  0  0
 64140  1  0  0  0
 65141  1  0  0  0
 68 80  1  0  0  0
 71 74  2  0  0  0
 71 75  1  0  0  0
 71142  1  0  0  0
 72 74  1  0  0  0
 72 76  2  0  0  0
 72143  1  0  0  0
 73 75  2  0  0  0
 73 76  1  0  0  0
 73144  1  0  0  0
 74 77  1  0  0  0
 75 81  1  0  0  0
 76 82  1  0  0  0
 77 78  1  0  0  0
 77145  1  0  0  0
 77146  1  0  0  0
 78 79  1  0  0  0
 78147  1  0  0  0
 78148  1  0  0  0
 79 80  1  0  0  0
 79149  1  0  0  0
 79150  1  0  0  0
 80151  1  0  0  0
 80152  1  0  0  0
 81153  1  0  0  0
M  ISO  4   1 100  68 101  80 101  81 100
M  END
> <chiral flag>
0

> <version>
0

> <s_m_source_file>
/data/baiqing/PycharmProjects/Reinvent-master-3.2/result/LINK_invent/BTK/process_docking_weight1_custom_product_contain_oxygen_bond_distance_aromatic_linkinvent_7_9_3/rearranged_h_0126.sdf

> <i_m_source_file_index>
83

> <r_mmod_Potential_Energy-OPLS-2005>
145.615859985352

> <r_mmod_Stretch_Energy-OPLS-2005>
101.526268005371

> <r_mmod_Bend_Energy-OPLS-2005>
146.076950073242

> <r_mmod_Torsional_Energy-OPLS-2005>
240.517913818359

> <r_mmod_Improper_Torsional_Energy-OPLS-2005>
6.64880132675171

> <r_mmod_Van_der_Waal_Energy-OPLS-2005>
135.733612060547

> <r_mmod_Electrostatic_Energy-OPLS-2005>
-342.466217041016

> <r_mmod_Solvation_Energy-OPLS-2005>
-204.175674438477

> <b_mmod_Minimization_Converged-OPLS-2005>
0

> <r_mmod_RMS_Derivative-OPLS-2005>
2.25843811035156

$$$$
83
                    3D
 Structure written by MMmdl.
152160  0  0  1  0            999 V2000
  -30.5678  -14.6570   20.5702 C   0  0  0  0  0  0
  -30.4570  -12.4234   19.4381 C   0  0  0  0  0  0
  -29.5129  -12.5182   18.2167 C   0  0  0  0  0  0
  -28.0335  -12.3521   18.6258 C   0  0  0  0  0  0
  -27.6572  -13.2018   19.8681 C   0  0  2  0  0  0
  -28.7013  -13.0053   20.9890 C   0  0  0  0  0  0
  -25.2608  -13.8111   20.5710 C   0  0  0  0  0  0
  -24.1853  -13.0417   20.9179 C   0  0  0  0  0  0
  -24.6376  -11.6879   20.8697 C   0  0  0  0  0  0
  -23.9012  -10.4296   21.0391 C   0  0  0  0  0  0
  -24.3580   -9.4233   21.9171 C   0  0  0  0  0  0
  -23.6260   -8.2265   22.0757 C   0  0  0  0  0  0
  -22.4251   -8.0294   21.3547 C   0  0  0  0  0  0
  -21.9874   -9.0254   20.4656 C   0  0  0  0  0  0
  -22.7193  -10.2124   20.3057 C   0  0  0  0  0  0
  -21.6838   -6.0718   22.5277 C   0  0  0  0  0  0
  -21.4013   -6.5622   23.8210 C   0  0  0  0  0  0
  -21.3668   -5.6785   24.9169 C   0  0  0  0  0  0
  -21.6046   -4.3043   24.7232 C   0  0  0  0  0  0
  -21.8814   -3.8137   23.4352 C   0  0  0  0  0  0
  -21.9197   -4.6945   22.3411 C   0  0  0  0  0  0
  -22.7881  -13.5264   21.1800 C   0  0  0  0  0  0
  -22.1661   -4.2136   21.0976 F   0  0  0  0  0  0
  -21.5628   -3.4539   25.7737 F   0  0  0  0  0  0
  -30.0065  -13.4069   20.4417 N   0  0  0  0  0  0
  -26.3000  -12.9258   20.3302 N   0  0  0  0  0  0
  -25.9297  -11.6419   20.5715 N   0  0  0  0  0  0
  -22.0485  -12.8334   22.0363 N   0  0  0  0  0  0
  -25.4319  -15.1830   20.4194 N   0  0  0  0  0  0
  -31.7080  -14.8959   20.1596 O   0  0  0  0  0  0
  -21.6641   -6.8872   21.4236 O   0  0  0  0  0  0
  -22.3609  -14.5577   20.6637 O   0  0  0  0  0  0
  -24.6260  -31.8621   23.2067 C   0  0  0  0  0  0
  -25.9127  -32.4791   23.8371 C   0  0  1  0  0  0
  -27.2270  -27.3604   20.0752 C   0  0  0  0  0  0
  -25.5952  -33.8592   24.2298 N   0  0  0  0  0  0
  -23.4191  -30.4898   21.5499 C   0  0  2  0  0  0
  -24.8607  -28.9517   20.1159 C   0  0  0  0  0  0
  -22.7487  -29.4646   22.4969 C   0  0  0  0  0  0
  -18.0299  -28.1414   22.8510 C   0  0  0  0  0  0
  -24.1468  -36.7294   23.2640 C   0  0  0  0  0  0
  -25.9575  -30.8047   21.3718 C   0  0  0  0  0  0
  -26.0301  -29.4343   20.7149 C   0  0  0  0  0  0
  -27.2168  -28.6488   20.6856 C   0  0  0  0  0  0
  -26.0223  -26.9240   19.4683 C   0  0  0  0  0  0
  -24.8551  -27.6989   19.4905 C   0  0  0  0  0  0
  -23.6300  -29.8281   20.1645 C   0  0  0  0  0  0
  -25.4110  -36.3112   24.0331 C   0  0  1  0  0  0
  -20.5899  -28.3720   23.1283 C   0  0  2  0  0  0
  -20.6786  -26.9442   22.5407 C   0  0  0  0  0  0
  -19.5753  -26.6424   21.5213 C   0  0  0  0  0  0
  -18.1945  -26.7962   22.1640 C   0  0  0  0  0  0
  -19.1545  -28.8892   23.2897 C   0  0  0  0  0  0
  -18.9463  -30.1493   23.8908 C   0  0  0  0  0  0
  -17.6457  -30.6609   24.0592 C   0  0  0  0  0  0
  -25.9056  -34.9463   23.5124 C   0  0  0  0  0  0
  -16.5357  -29.9122   23.6327 C   0  0  0  0  0  0
  -16.7273  -28.6542   23.0347 C   0  0  0  0  0  0
  -26.4509  -31.6608   25.0725 C   0  0  0  0  0  0
  -25.3729  -31.3720   26.1442 C   0  0  0  0  0  0
  -27.0381  -30.3059   24.6147 C   0  0  0  0  0  0
  -27.6081  -32.4333   25.7472 C   0  0  0  0  0  0
  -27.5583  -37.1825   24.8484 C   0  0  0  0  0  0
  -21.4213  -29.3072   22.3676 N   0  0  0  0  0  0
  -26.4298  -37.3810   23.9414 N   0  0  0  0  0  0
  -24.6857  -31.0678   22.0997 N   0  0  0  0  0  0
  -23.4216  -28.8181   23.3034 O   0  0  0  0  0  0
  -28.3633  -26.5446   20.0801 O   0  0  0  0  0  0
  -26.5610  -34.8935   22.4676 O   0  0  0  0  0  0
  -23.5434  -32.1407   23.7422 O   0  0  0  0  0  0
  -29.4867  -23.2465   20.9098 C   0  0  0  0  0  0
  -29.2353  -18.8076   23.0031 C   0  0  0  0  0  0
  -29.3248  -17.4414   22.6372 C   0  0  0  0  0  0
  -30.0618  -18.0941   20.4473 C   0  0  0  0  0  0
  -29.5797  -19.8840   22.1318 C   0  0  0  0  0  0
  -29.7767  -17.0365   21.3614 C   0  0  0  0  0  0
  -29.9628  -19.4807   20.8203 C   0  0  0  0  0  0
  -29.6609  -22.7146   22.1134 C   0  0  0  0  0  0
  -29.3704  -24.1801   19.9734 C   0  0  0  0  0  0
  -29.5953  -21.3176   22.7093 C   0  0  0  0  0  0
  -28.1616  -25.1240   19.7700 C   0  0  0  0  0  0
  -29.6045  -21.4250   23.9813 N   0  0  0  0  0  0
  -29.7009  -15.6111   21.0483 N   0  0  0  0  0  0
  -30.2681  -20.4255   19.8975 F   0  0  0  0  0  0
  -31.4908  -12.5986   19.1333 H   0  0  0  0  0  0
  -30.4338  -11.4215   19.8660 H   0  0  0  0  0  0
  -29.7856  -11.7649   17.4752 H   0  0  0  0  0  0
  -29.6469  -13.4852   17.7316 H   0  0  0  0  0  0
  -27.8682  -11.2963   18.8440 H   0  0  0  0  0  0
  -27.3794  -12.5996   17.7899 H   0  0  0  0  0  0
  -27.6909  -14.2444   19.5498 H   0  0  0  0  0  0
  -28.7371  -11.9582   21.2982 H   0  0  0  0  0  0
  -28.4326  -13.5556   21.8935 H   0  0  0  0  0  0
  -25.2722   -9.5705   22.4754 H   0  0  0  0  0  0
  -23.9955   -7.4668   22.7508 H   0  0  0  0  0  0
  -21.0791   -8.8804   19.8972 H   0  0  0  0  0  0
  -22.3667  -10.9673   19.6190 H   0  0  0  0  0  0
  -21.2008   -7.6142   23.9700 H   0  0  0  0  0  0
  -21.1473   -6.0520   25.9066 H   0  0  0  0  0  0
  -22.0571   -2.7613   23.2868 H   0  0  0  0  0  0
  -22.4079  -12.0035   22.4860 H   0  0  0  0  0  0
  -21.1101  -13.1398   22.2495 H   0  0  0  0  0  0
  -24.6604  -15.8293   20.5489 H   0  0  0  0  0  0
  -26.2755  -15.6355   20.0879 H   0  0  0  0  0  0
  -26.7186  -32.5453   23.1118 H   0  0  0  0  0  0
  -25.0103  -33.9716   25.0453 H   0  0  0  0  0  0
  -22.7144  -31.3132   21.4097 H   0  0  0  0  0  0
  -23.3714  -35.9646   23.3344 H   0  0  0  0  0  0
  -24.3566  -36.8885   22.2056 H   0  0  0  0  0  0
  -23.7237  -37.6514   23.6619 H   0  0  0  0  0  0
  -26.0877  -31.5701   20.6046 H   0  0  0  0  0  0
  -26.8397  -30.8506   21.9998 H   0  0  0  0  0  0
  -28.1222  -29.0125   21.1510 H   0  0  0  0  0  0
  -25.9428  -25.9753   18.9617 H   0  0  0  0  0  0
  -23.9559  -27.3228   19.0206 H   0  0  0  0  0  0
  -23.7580  -30.6036   19.4065 H   0  0  0  0  0  0
  -22.7502  -29.2587   19.8582 H   0  0  0  0  0  0
  -25.1295  -36.1988   25.0826 H   0  0  0  0  0  0
  -20.9989  -28.3300   24.1402 H   0  0  0  0  0  0
  -20.5705  -26.2329   23.3608 H   0  0  0  0  0  0
  -21.6664  -26.7511   22.1195 H   0  0  0  0  0  0
  -19.6914  -25.6335   21.1260 H   0  0  0  0  0  0
  -19.6681  -27.3211   20.6713 H   0  0  0  0  0  0
  -17.4216  -26.6712   21.4036 H   0  0  0  0  0  0
  -18.0348  -26.0082   22.9003 H   0  0  0  0  0  0
  -19.7932  -30.7324   24.2261 H   0  0  0  0  0  0
  -17.5008  -31.6268   24.5236 H   0  0  0  0  0  0
  -15.5359  -30.3029   23.7640 H   0  0  0  0  0  0
  -15.8678  -28.0874   22.7031 H   0  0  0  0  0  0
  -24.5904  -30.7075   25.7740 H   0  0  0  0  0  0
  -24.8868  -32.2853   26.4865 H   0  0  0  0  0  0
  -25.8044  -30.8891   27.0214 H   0  0  0  0  0  0
  -26.2945  -29.6771   24.1214 H   0  0  0  0  0  0
  -27.4169  -29.7381   25.4655 H   0  0  0  0  0  0
  -27.8774  -30.4390   23.9317 H   0  0  0  0  0  0
  -27.2725  -33.3638   26.2058 H   0  0  0  0  0  0
  -28.3868  -32.6894   25.0270 H   0  0  0  0  0  0
  -28.0749  -31.8430   26.5373 H   0  0  0  0  0  0
  -28.2658  -38.0066   24.7517 H   0  0  0  0  0  0
  -28.1027  -36.2623   24.6325 H   0  0  0  0  0  0
  -27.2306  -37.1521   25.8889 H   0  0  0  0  0  0
  -20.9390  -29.8789   21.6881 H   0  0  0  0  0  0
  -26.0185  -38.2897   24.1370 H   0  0  0  0  0  0
  -28.8889  -19.0096   24.0080 H   0  0  0  0  0  0
  -29.0340  -16.6930   23.3636 H   0  0  0  0  0  0
  -30.3296  -17.8645   19.4282 H   0  0  0  0  0  0
  -29.9919  -23.4317   22.8528 H   0  0  0  0  0  0
  -30.1642  -24.3266   19.2559 H   0  0  0  0  0  0
  -27.3293  -24.7329   20.3560 H   0  0  0  0  0  0
  -27.8899  -25.0388   18.7171 H   0  0  0  0  0  0
  -29.5766  -20.5475   24.4930 H   0  0  0  0  0  0
  -28.8336  -15.1874   21.3483 H   0  0  0  0  0  0
  1 25  1  0  0  0
  1 30  2  0  0  0
  1 83  1  0  0  0
  2  3  1  0  0  0
  2 25  1  0  0  0
  2 85  1  0  0  0
  2 86  1  0  0  0
  3  4  1  0  0  0
  3 87  1  0  0  0
  3 88  1  0  0  0
  4  5  1  0  0  0
  4 89  1  0  0  0
  4 90  1  0  0  0
  5  6  1  0  0  0
  5 26  1  0  0  0
  5 91  1  0  0  0
  6 25  1  0  0  0
  6 92  1  0  0  0
  6 93  1  0  0  0
  7  8  2  0  0  0
  7 26  1  0  0  0
  7 29  1  0  0  0
  8  9  1  0  0  0
  8 22  1  0  0  0
  9 10  1  0  0  0
  9 27  2  0  0  0
 10 11  2  0  0  0
 10 15  1  0  0  0
 11 12  1  0  0  0
 11 94  1  0  0  0
 12 13  2  0  0  0
 12 95  1  0  0  0
 13 14  1  0  0  0
 13 31  1  0  0  0
 14 15  2  0  0  0
 14 96  1  0  0  0
 15 97  1  0  0  0
 16 17  2  0  0  0
 16 21  1  0  0  0
 16 31  1  0  0  0
 17 18  1  0  0  0
 17 98  1  0  0  0
 18 19  2  0  0  0
 18 99  1  0  0  0
 19 20  1  0  0  0
 19 24  1  0  0  0
 20 21  2  0  0  0
 20100  1  0  0  0
 21 23  1  0  0  0
 22 28  1  0  0  0
 22 32  2  0  0  0
 26 27  1  0  0  0
 28101  1  0  0  0
 28102  1  0  0  0
 29103  1  0  0  0
 29104  1  0  0  0
 33 34  1  0  0  0
 33 66  1  0  0  0
 33 70  2  0  0  0
 34 36  1  0  0  0
 34 59  1  0  0  0
 34105  1  0  0  0
 35 44  2  0  0  0
 35 45  1  0  0  0
 35 68  1  0  0  0
 36 56  1  0  0  0
 36106  1  0  0  0
 37 39  1  0  0  0
 37 47  1  0  0  0
 37 66  1  0  0  0
 37107  1  0  0  0
 38 43  2  0  0  0
 38 46  1  0  0  0
 38 47  1  0  0  0
 39 64  1  0  0  0
 39 67  2  0  0  0
 40 52  1  0  0  0
 40 53  2  0  0  0
 40 58  1  0  0  0
 41108  1  0  0  0
 41109  1  0  0  0
 41110  1  0  0  0
 41 48  1  0  0  0
 42 43  1  0  0  0
 42 66  1  0  0  0
 42111  1  0  0  0
 42112  1  0  0  0
 43 44  1  0  0  0
 44113  1  0  0  0
 45 46  2  0  0  0
 45114  1  0  0  0
 46115  1  0  0  0
 47116  1  0  0  0
 47117  1  0  0  0
 48 56  1  0  0  0
 48 65  1  0  0  0
 48118  1  0  0  0
 49 50  1  0  0  0
 49 53  1  0  0  0
 49 64  1  0  0  0
 49119  1  0  0  0
 50 51  1  0  0  0
 50120  1  0  0  0
 50121  1  0  0  0
 51 52  1  0  0  0
 51122  1  0  0  0
 51123  1  0  0  0
 52124  1  0  0  0
 52125  1  0  0  0
 53 54  1  0  0  0
 54 55  2  0  0  0
 54126  1  0  0  0
 55 57  1  0  0  0
 55127  1  0  0  0
 56 69  2  0  0  0
 57 58  2  0  0  0
 57128  1  0  0  0
 58129  1  0  0  0
 59 60  1  0  0  0
 59 61  1  0  0  0
 59 62  1  0  0  0
 60130  1  0  0  0
 60131  1  0  0  0
 60132  1  0  0  0
 61133  1  0  0  0
 61134  1  0  0  0
 61135  1  0  0  0
 62136  1  0  0  0
 62137  1  0  0  0
 62138  1  0  0  0
 63 65  1  0  0  0
 63139  1  0  0  0
 63140  1  0  0  0
 63141  1  0  0  0
 64142  1  0  0  0
 65143  1  0  0  0
 68 81  1  0  0  0
 71 78  2  0  0  0
 71 79  2  0  0  0
 72 73  2  0  0  0
 72 75  1  0  0  0
 72144  1  0  0  0
 73 76  1  0  0  0
 73145  1  0  0  0
 74 76  2  0  0  0
 74 77  1  0  0  0
 74146  1  0  0  0
 75 77  2  0  0  0
 75 80  1  0  0  0
 76 83  1  0  0  0
 77 84  1  0  0  0
 78 80  1  0  0  0
 78147  1  0  0  0
 79 81  1  0  0  0
 79148  1  0  0  0
 80 82  2  0  0  0
 81149  1  0  0  0
 81150  1  0  0  0
 82151  1  0  0  0
 83152  1  0  0  0
M  ISO  4   1 100  68 101  81 101  83 100
M  END
> <chiral flag>
0

> <version>
0

> <s_m_source_file>
/data/baiqing/PycharmProjects/Reinvent-master-3.2/result/LINK_invent/BTK/process_docking_weight1_custom_product_contain_oxygen_bond_distance_aromatic_linkinvent_7_9_3/rearranged_h_0126.sdf

> <i_m_source_file_index>
84

> <r_mmod_Potential_Energy-OPLS-2005>
89.7392349243164

> <r_mmod_Stretch_Energy-OPLS-2005>
72.9589385986328

> <r_mmod_Bend_Energy-OPLS-2005>
209.922897338867

> <r_mmod_Torsional_Energy-OPLS-2005>
146.09814453125

> <r_mmod_Improper_Torsional_Energy-OPLS-2005>
5.51472759246826

> <r_mmod_Van_der_Waal_Energy-OPLS-2005>
157.390029907227

> <r_mmod_Electrostatic_Energy-OPLS-2005>
-328.205871582031

> <r_mmod_Solvation_Energy-OPLS-2005>
-219.544525146484

> <b_mmod_Minimization_Converged-OPLS-2005>
0

> <r_mmod_RMS_Derivative-OPLS-2005>
6.5260763168335

$$$$
84
                    3D
 Structure written by MMmdl.
153161  0  0  1  0            999 V2000
  -30.6020  -14.7578   20.4102 C   0  0  0  0  0  0
  -30.4386  -12.4419   19.4907 C   0  0  0  0  0  0
  -29.5215  -12.4540   18.2469 C   0  0  0  0  0  0
  -28.0410  -12.3140   18.6539 C   0  0  0  0  0  0
  -27.6437  -13.2309   19.8417 C   0  0  2  0  0  0
  -28.6855  -13.1801   20.9804 C   0  0  0  0  0  0
  -25.2525  -13.8199   20.5671 C   0  0  0  0  0  0
  -24.1814  -13.0447   20.9199 C   0  0  0  0  0  0
  -24.6405  -11.6926   20.8740 C   0  0  0  0  0  0
  -23.9080  -10.4302   21.0402 C   0  0  0  0  0  0
  -24.3631   -9.4208   21.9180 C   0  0  0  0  0  0
  -23.6307   -8.2238   22.0745 C   0  0  0  0  0  0
  -22.4282   -8.0282   21.3538 C   0  0  0  0  0  0
  -21.9924   -9.0256   20.4638 C   0  0  0  0  0  0
  -22.7255  -10.2134   20.3053 C   0  0  0  0  0  0
  -21.6849   -6.0740   22.5282 C   0  0  0  0  0  0
  -21.4011   -6.5643   23.8216 C   0  0  0  0  0  0
  -21.3660   -5.6790   24.9175 C   0  0  0  0  0  0
  -21.6049   -4.3055   24.7223 C   0  0  0  0  0  0
  -21.8818   -3.8148   23.4341 C   0  0  0  0  0  0
  -21.9189   -4.6967   22.3396 C   0  0  0  0  0  0
  -22.7834  -13.5223   21.1868 C   0  0  0  0  0  0
  -22.1659   -4.2154   21.0974 F   0  0  0  0  0  0
  -21.5632   -3.4539   25.7738 F   0  0  0  0  0  0
  -29.9879  -13.5242   20.3982 N   0  0  0  0  0  0
  -26.2948  -12.9409   20.3225 N   0  0  0  0  0  0
  -25.9334  -11.6554   20.5734 N   0  0  0  0  0  0
  -22.0483  -12.8200   22.0420 N   0  0  0  0  0  0
  -25.4231  -15.1924   20.4090 N   0  0  0  0  0  0
  -31.8031  -14.8385   20.1397 O   0  0  0  0  0  0
  -21.6635   -6.8885   21.4246 O   0  0  0  0  0  0
  -22.3511  -14.5519   20.6715 O   0  0  0  0  0  0
  -24.6306  -31.8560   23.1976 C   0  0  0  0  0  0
  -25.9131  -32.4760   23.8328 C   0  0  1  0  0  0
  -27.2273  -27.2775   20.1188 C   0  0  0  0  0  0
  -25.5926  -33.8560   24.2257 N   0  0  0  0  0  0
  -23.4257  -30.4785   21.5404 C   0  0  2  0  0  0
  -24.8726  -28.9255   20.1094 C   0  0  0  0  0  0
  -22.7496  -29.4613   22.4913 C   0  0  0  0  0  0
  -18.0294  -28.1392   22.8487 C   0  0  0  0  0  0
  -24.1487  -36.7289   23.2640 C   0  0  0  0  0  0
  -25.9686  -30.7767   21.3709 C   0  0  0  0  0  0
  -26.0423  -29.3988   20.7154 C   0  0  0  0  0  0
  -27.2180  -28.5852   20.7115 C   0  0  0  0  0  0
  -26.0274  -26.8639   19.4940 C   0  0  0  0  0  0
  -24.8698  -27.6668   19.4905 C   0  0  0  0  0  0
  -23.6417  -29.8088   20.1573 C   0  0  0  0  0  0
  -25.4113  -36.3071   24.0328 C   0  0  1  0  0  0
  -20.5894  -28.3702   23.1270 C   0  0  2  0  0  0
  -20.6775  -26.9417   22.5406 C   0  0  0  0  0  0
  -19.5747  -26.6386   21.5216 C   0  0  0  0  0  0
  -18.1933  -26.7933   22.1627 C   0  0  0  0  0  0
  -19.1544  -28.8862   23.2873 C   0  0  0  0  0  0
  -18.9467  -30.1461   23.8889 C   0  0  0  0  0  0
  -17.6465  -30.6586   24.0562 C   0  0  0  0  0  0
  -25.9056  -34.9444   23.5098 C   0  0  0  0  0  0
  -16.5359  -29.9085   23.6323 C   0  0  0  0  0  0
  -16.7282  -28.6505   23.0347 C   0  0  0  0  0  0
  -26.4495  -31.6583   25.0717 C   0  0  0  0  0  0
  -25.3713  -31.3755   26.1439 C   0  0  0  0  0  0
  -27.0321  -30.2996   24.6184 C   0  0  0  0  0  0
  -27.6062  -32.4303   25.7486 C   0  0  0  0  0  0
  -27.5575  -37.1798   24.8459 C   0  0  0  0  0  0
  -21.4204  -29.3054   22.3658 N   0  0  0  0  0  0
  -26.4282  -37.3774   23.9410 N   0  0  0  0  0  0
  -24.6941  -31.0547   22.0935 N   0  0  0  0  0  0
  -23.4204  -28.8158   23.3006 O   0  0  0  0  0  0
  -28.3525  -26.4279   20.1999 O   0  0  0  0  0  0
  -26.5621  -34.8917   22.4664 O   0  0  0  0  0  0
  -23.5458  -32.1365   23.7290 O   0  0  0  0  0  0
  -29.8832  -19.8121   18.5498 C   0  0  0  0  0  0
  -30.2153  -18.6283   17.8771 C   0  0  0  0  0  0
  -29.5393  -18.5064   20.5637 C   0  0  0  0  0  0
  -29.5194  -19.8149   19.9101 C   0  0  0  0  0  0
  -30.2026  -17.3700   18.5116 C   0  0  0  0  0  0
  -29.9010  -17.2502   19.9019 C   0  0  0  0  0  0
  -29.1356  -21.1863   20.5242 C   0  0  0  0  0  0
  -28.9628  -22.4113   19.8851 C   0  0  0  0  0  0
  -28.6351  -23.7868   20.4976 C   0  0  0  0  0  0
  -30.4225  -16.1755   17.6014 C   0  0  0  0  0  0
  -28.4221  -25.0699   19.5653 C   0  0  0  0  0  0
  -29.8139  -15.9000   20.5447 N   0  0  0  0  0  0
  -28.5380  -23.9322   21.7200 O   0  0  0  0  0  0
  -31.4816  -12.5604   19.1906 H   0  0  0  0  0  0
  -30.3810  -11.4764   19.9965 H   0  0  0  0  0  0
  -29.7975  -11.6414   17.5736 H   0  0  0  0  0  0
  -29.6717  -13.3660   17.6768 H   0  0  0  0  0  0
  -27.8859  -11.2714   18.9310 H   0  0  0  0  0  0
  -27.3923  -12.4981   17.7971 H   0  0  0  0  0  0
  -27.6371  -14.2479   19.4478 H   0  0  0  0  0  0
  -28.7180  -12.1872   21.4321 H   0  0  0  0  0  0
  -28.4184  -13.8732   21.7796 H   0  0  0  0  0  0
  -25.2781   -9.5673   22.4751 H   0  0  0  0  0  0
  -24.0015   -7.4623   22.7460 H   0  0  0  0  0  0
  -21.0850   -8.8779   19.8951 H   0  0  0  0  0  0
  -22.3718  -10.9670   19.6155 H   0  0  0  0  0  0
  -21.2003   -7.6153   23.9721 H   0  0  0  0  0  0
  -21.1487   -6.0518   25.9078 H   0  0  0  0  0  0
  -22.0597   -2.7613   23.2831 H   0  0  0  0  0  0
  -22.4101  -11.9863   22.4801 H   0  0  0  0  0  0
  -21.1101  -13.1218   22.2639 H   0  0  0  0  0  0
  -24.6554  -15.8469   20.5150 H   0  0  0  0  0  0
  -26.2698  -15.6301   20.0682 H   0  0  0  0  0  0
  -26.7203  -32.5414   23.1080 H   0  0  0  0  0  0
  -25.0072  -33.9699   25.0397 H   0  0  0  0  0  0
  -22.7218  -31.3002   21.3940 H   0  0  0  0  0  0
  -23.3747  -35.9619   23.3290 H   0  0  0  0  0  0
  -24.3585  -36.8921   22.2055 H   0  0  0  0  0  0
  -23.7233  -37.6488   23.6668 H   0  0  0  0  0  0
  -26.0983  -31.5369   20.5990 H   0  0  0  0  0  0
  -26.8491  -30.8319   21.9996 H   0  0  0  0  0  0
  -28.1140  -28.9467   21.1973 H   0  0  0  0  0  0
  -25.9285  -25.8983   19.0269 H   0  0  0  0  0  0
  -23.9702  -27.2972   19.0180 H   0  0  0  0  0  0
  -23.7628  -30.5811   19.3968 H   0  0  0  0  0  0
  -22.7608  -29.2377   19.8571 H   0  0  0  0  0  0
  -25.1295  -36.1919   25.0819 H   0  0  0  0  0  0
  -20.9999  -28.3279   24.1385 H   0  0  0  0  0  0
  -20.5670  -26.2320   23.3619 H   0  0  0  0  0  0
  -21.6641  -26.7433   22.1207 H   0  0  0  0  0  0
  -19.6907  -25.6293   21.1252 H   0  0  0  0  0  0
  -19.6681  -27.3184   20.6735 H   0  0  0  0  0  0
  -17.4204  -26.6678   21.4033 H   0  0  0  0  0  0
  -18.0333  -26.0078   22.9029 H   0  0  0  0  0  0
  -19.7945  -30.7279   24.2253 H   0  0  0  0  0  0
  -17.5024  -31.6266   24.5168 H   0  0  0  0  0  0
  -15.5359  -30.2987   23.7651 H   0  0  0  0  0  0
  -15.8688  -28.0827   22.7056 H   0  0  0  0  0  0
  -24.5861  -30.7142   25.7763 H   0  0  0  0  0  0
  -24.8941  -32.2944   26.4859 H   0  0  0  0  0  0
  -25.8016  -30.8918   27.0219 H   0  0  0  0  0  0
  -26.2894  -29.6762   24.1196 H   0  0  0  0  0  0
  -27.3991  -29.7248   25.4698 H   0  0  0  0  0  0
  -27.8783  -30.4271   23.9427 H   0  0  0  0  0  0
  -27.2697  -33.3625   26.2038 H   0  0  0  0  0  0
  -28.3892  -32.6820   25.0321 H   0  0  0  0  0  0
  -28.0703  -31.8432   26.5421 H   0  0  0  0  0  0
  -28.2588  -38.0099   24.7507 H   0  0  0  0  0  0
  -28.1075  -36.2632   24.6277 H   0  0  0  0  0  0
  -27.2302  -37.1437   25.8864 H   0  0  0  0  0  0
  -20.9391  -29.8798   21.6882 H   0  0  0  0  0  0
  -26.0163  -38.2850   24.1400 H   0  0  0  0  0  0
  -29.9055  -20.7241   17.9737 H   0  0  0  0  0  0
  -30.4490  -18.6988   16.8231 H   0  0  0  0  0  0
  -29.2566  -18.4683   21.6057 H   0  0  0  0  0  0
  -29.0081  -21.1800   21.5982 H   0  0  0  0  0  0
  -29.0713  -22.4493   18.8131 H   0  0  0  0  0  0
  -30.4532  -16.4697   16.5519 H   0  0  0  0  0  0
  -29.5851  -15.4914   17.7069 H   0  0  0  0  0  0
  -31.3593  -15.6632   17.8117 H   0  0  0  0  0  0
  -27.5930  -24.8675   18.8940 H   0  0  0  0  0  0
  -29.2928  -25.1026   18.9095 H   0  0  0  0  0  0
  -28.9301  -15.7205   20.9952 H   0  0  0  0  0  0
  1 25  1  0  0  0
  1 30  2  0  0  0
  1 82  1  0  0  0
  2  3  1  0  0  0
  2 25  1  0  0  0
  2 84  1  0  0  0
  2 85  1  0  0  0
  3  4  1  0  0  0
  3 86  1  0  0  0
  3 87  1  0  0  0
  4  5  1  0  0  0
  4 88  1  0  0  0
  4 89  1  0  0  0
  5  6  1  0  0  0
  5 26  1  0  0  0
  5 90  1  0  0  0
  6 25  1  0  0  0
  6 91  1  0  0  0
  6 92  1  0  0  0
  7  8  2  0  0  0
  7 26  1  0  0  0
  7 29  1  0  0  0
  8  9  1  0  0  0
  8 22  1  0  0  0
  9 10  1  0  0  0
  9 27  2  0  0  0
 10 11  2  0  0  0
 10 15  1  0  0  0
 11 12  1  0  0  0
 11 93  1  0  0  0
 12 13  2  0  0  0
 12 94  1  0  0  0
 13 14  1  0  0  0
 13 31  1  0  0  0
 14 15  2  0  0  0
 14 95  1  0  0  0
 15 96  1  0  0  0
 16 17  2  0  0  0
 16 21  1  0  0  0
 16 31  1  0  0  0
 17 18  1  0  0  0
 17 97  1  0  0  0
 18 19  2  0  0  0
 18 98  1  0  0  0
 19 20  1  0  0  0
 19 24  1  0  0  0
 20 21  2  0  0  0
 20 99  1  0  0  0
 21 23  1  0  0  0
 22 28  1  0  0  0
 22 32  2  0  0  0
 26 27  1  0  0  0
 28100  1  0  0  0
 28101  1  0  0  0
 29102  1  0  0  0
 29103  1  0  0  0
 33 34  1  0  0  0
 33 66  1  0  0  0
 33 70  2  0  0  0
 34 36  1  0  0  0
 34 59  1  0  0  0
 34104  1  0  0  0
 35 44  2  0  0  0
 35 45  1  0  0  0
 35 68  1  0  0  0
 36 56  1  0  0  0
 36105  1  0  0  0
 37 39  1  0  0  0
 37 47  1  0  0  0
 37 66  1  0  0  0
 37106  1  0  0  0
 38 43  2  0  0  0
 38 46  1  0  0  0
 38 47  1  0  0  0
 39 64  1  0  0  0
 39 67  2  0  0  0
 40 52  1  0  0  0
 40 53  2  0  0  0
 40 58  1  0  0  0
 41107  1  0  0  0
 41108  1  0  0  0
 41109  1  0  0  0
 41 48  1  0  0  0
 42 43  1  0  0  0
 42 66  1  0  0  0
 42110  1  0  0  0
 42111  1  0  0  0
 43 44  1  0  0  0
 44112  1  0  0  0
 45 46  2  0  0  0
 45113  1  0  0  0
 46114  1  0  0  0
 47115  1  0  0  0
 47116  1  0  0  0
 48 56  1  0  0  0
 48 65  1  0  0  0
 48117  1  0  0  0
 49 50  1  0  0  0
 49 53  1  0  0  0
 49 64  1  0  0  0
 49118  1  0  0  0
 50 51  1  0  0  0
 50119  1  0  0  0
 50120  1  0  0  0
 51 52  1  0  0  0
 51121  1  0  0  0
 51122  1  0  0  0
 52123  1  0  0  0
 52124  1  0  0  0
 53 54  1  0  0  0
 54 55  2  0  0  0
 54125  1  0  0  0
 55 57  1  0  0  0
 55126  1  0  0  0
 56 69  2  0  0  0
 57 58  2  0  0  0
 57127  1  0  0  0
 58128  1  0  0  0
 59 60  1  0  0  0
 59 61  1  0  0  0
 59 62  1  0  0  0
 60129  1  0  0  0
 60130  1  0  0  0
 60131  1  0  0  0
 61132  1  0  0  0
 61133  1  0  0  0
 61134  1  0  0  0
 62135  1  0  0  0
 62136  1  0  0  0
 62137  1  0  0  0
 63 65  1  0  0  0
 63138  1  0  0  0
 63139  1  0  0  0
 63140  1  0  0  0
 64141  1  0  0  0
 65142  1  0  0  0
 68 81  1  0  0  0
 71 72  2  0  0  0
 71 74  1  0  0  0
 71143  1  0  0  0
 72 75  1  0  0  0
 72144  1  0  0  0
 73 74  2  0  0  0
 73 76  1  0  0  0
 73145  1  0  0  0
 74 77  1  0  0  0
 75 76  2  0  0  0
 75 80  1  0  0  0
 76 82  1  0  0  0
 77 78  2  0  0  0
 77146  1  0  0  0
 78 79  1  0  0  0
 78147  1  0  0  0
 79 81  1  0  0  0
 79 83  2  0  0  0
 80148  1  0  0  0
 80149  1  0  0  0
 80150  1  0  0  0
 81151  1  0  0  0
 81152  1  0  0  0
 82153  1  0  0  0
M  ISO  4   1 100  68 101  81 101  82 100
M  END
> <chiral flag>
0

> <version>
0

> <s_m_source_file>
/data/baiqing/PycharmProjects/Reinvent-master-3.2/result/LINK_invent/BTK/process_docking_weight1_custom_product_contain_oxygen_bond_distance_aromatic_linkinvent_7_9_3/rearranged_h_0126.sdf

> <i_m_source_file_index>
85

> <r_mmod_Potential_Energy-OPLS-2005>
165.492034912109

> <r_mmod_Stretch_Energy-OPLS-2005>
125.623550415039

> <r_mmod_Bend_Energy-OPLS-2005>
162.685928344727

> <r_mmod_Torsional_Energy-OPLS-2005>
235.893569946289

> <r_mmod_Improper_Torsional_Energy-OPLS-2005>
5.52134895324707

> <r_mmod_Van_der_Waal_Energy-OPLS-2005>
145.038269042969

> <r_mmod_Electrostatic_Energy-OPLS-2005>
-358.529541015625

> <r_mmod_Solvation_Energy-OPLS-2005>
-235.611251831055

> <b_mmod_Minimization_Converged-OPLS-2005>
0

> <r_mmod_RMS_Derivative-OPLS-2005>
1.64242672920227

$$$$
85
                    3D
 Structure written by MMmdl.
156164  0  0  1  0            999 V2000
  -30.6085  -14.6594   20.5181 C   0  0  0  0  0  0
  -30.4380  -12.4073   19.4628 C   0  0  0  0  0  0
  -29.5094  -12.5244   18.2326 C   0  0  0  0  0  0
  -28.0332  -12.3520   18.6395 C   0  0  0  0  0  0
  -27.6532  -13.2176   19.8698 C   0  0  2  0  0  0
  -28.6963  -13.0679   21.0016 C   0  0  0  0  0  0
  -25.2554  -13.8166   20.5674 C   0  0  0  0  0  0
  -24.1805  -13.0434   20.9158 C   0  0  0  0  0  0
  -24.6374  -11.6899   20.8714 C   0  0  0  0  0  0
  -23.9052  -10.4288   21.0402 C   0  0  0  0  0  0
  -24.3601   -9.4212   21.9183 C   0  0  0  0  0  0
  -23.6273   -8.2255   22.0753 C   0  0  0  0  0  0
  -22.4265   -8.0284   21.3536 C   0  0  0  0  0  0
  -21.9880   -9.0260   20.4644 C   0  0  0  0  0  0
  -22.7216  -10.2136   20.3056 C   0  0  0  0  0  0
  -21.6851   -6.0733   22.5267 C   0  0  0  0  0  0
  -21.4022   -6.5630   23.8208 C   0  0  0  0  0  0
  -21.3655   -5.6783   24.9161 C   0  0  0  0  0  0
  -21.6040   -4.3050   24.7217 C   0  0  0  0  0  0
  -21.8818   -3.8140   23.4337 C   0  0  0  0  0  0
  -21.9191   -4.6956   22.3392 C   0  0  0  0  0  0
  -22.7841  -13.5255   21.1828 C   0  0  0  0  0  0
  -22.1661   -4.2138   21.0965 F   0  0  0  0  0  0
  -21.5615   -3.4535   25.7737 F   0  0  0  0  0  0
  -30.0132  -13.4237   20.4479 N   0  0  0  0  0  0
  -26.2979  -12.9345   20.3337 N   0  0  0  0  0  0
  -25.9309  -11.6500   20.5761 N   0  0  0  0  0  0
  -22.0467  -12.8284   22.0393 N   0  0  0  0  0  0
  -25.4277  -15.1899   20.4114 N   0  0  0  0  0  0
  -31.7463  -14.8454   20.0764 O   0  0  0  0  0  0
  -21.6630   -6.8883   21.4236 O   0  0  0  0  0  0
  -22.3541  -14.5565   20.6678 O   0  0  0  0  0  0
  -24.6265  -31.8581   23.2004 C   0  0  0  0  0  0
  -25.9121  -32.4760   23.8330 C   0  0  1  0  0  0
  -27.2320  -27.3093   20.1257 C   0  0  0  0  0  0
  -25.5945  -33.8555   24.2264 N   0  0  0  0  0  0
  -23.4218  -30.4811   21.5427 C   0  0  2  0  0  0
  -24.8727  -28.9366   20.1114 C   0  0  0  0  0  0
  -22.7475  -29.4609   22.4906 C   0  0  0  0  0  0
  -18.0291  -28.1396   22.8456 C   0  0  0  0  0  0
  -24.1493  -36.7284   23.2630 C   0  0  0  0  0  0
  -25.9632  -30.7884   21.3744 C   0  0  0  0  0  0
  -26.0405  -29.4141   20.7186 C   0  0  0  0  0  0
  -27.2217  -28.6105   20.7210 C   0  0  0  0  0  0
  -26.0423  -26.8974   19.4781 C   0  0  0  0  0  0
  -24.8750  -27.6834   19.4834 C   0  0  0  0  0  0
  -23.6395  -29.8140   20.1580 C   0  0  0  0  0  0
  -25.4107  -36.3055   24.0319 C   0  0  1  0  0  0
  -20.5886  -28.3695   23.1260 C   0  0  2  0  0  0
  -20.6776  -26.9413   22.5404 C   0  0  0  0  0  0
  -19.5760  -26.6375   21.5200 C   0  0  0  0  0  0
  -18.1935  -26.7928   22.1609 C   0  0  0  0  0  0
  -19.1542  -28.8862   23.2852 C   0  0  0  0  0  0
  -18.9467  -30.1458   23.8876 C   0  0  0  0  0  0
  -17.6466  -30.6582   24.0564 C   0  0  0  0  0  0
  -25.9052  -34.9432   23.5088 C   0  0  0  0  0  0
  -16.5358  -29.9077   23.6336 C   0  0  0  0  0  0
  -16.7276  -28.6506   23.0330 C   0  0  0  0  0  0
  -26.4502  -31.6561   25.0704 C   0  0  0  0  0  0
  -25.3739  -31.3749   26.1443 C   0  0  0  0  0  0
  -27.0332  -30.2965   24.6182 C   0  0  0  0  0  0
  -27.6064  -32.4287   25.7472 C   0  0  0  0  0  0
  -27.5572  -37.1781   24.8440 C   0  0  0  0  0  0
  -21.4185  -29.3041   22.3645 N   0  0  0  0  0  0
  -26.4278  -37.3753   23.9404 N   0  0  0  0  0  0
  -24.6886  -31.0587   22.0966 N   0  0  0  0  0  0
  -23.4187  -28.8145   23.2990 O   0  0  0  0  0  0
  -28.3390  -26.4413   20.1995 O   0  0  0  0  0  0
  -26.5607  -34.8903   22.4646 O   0  0  0  0  0  0
  -23.5428  -32.1388   23.7336 O   0  0  0  0  0  0
  -30.1888  -17.8724   19.7316 C   0  0  0  0  0  0
  -29.4905  -17.9169   22.0283 C   0  0  0  0  0  0
  -30.1152  -19.3070   19.6773 C   0  0  0  0  0  0
  -29.4439  -19.3431   21.9970 C   0  0  0  0  0  0
  -29.8879  -17.1365   20.9114 C   0  0  0  0  0  0
  -29.7438  -20.0852   20.8207 C   0  0  0  0  0  0
  -29.1227  -23.9410   20.4969 C   0  0  0  0  0  0
  -30.4733  -19.9903   18.3688 C   0  0  0  0  0  0
  -29.0732  -20.0919   23.2667 C   0  0  0  0  0  0
  -28.1053  -24.9983   19.9088 C   0  0  0  0  0  0
  -28.9369  -22.3989   20.1519 C   0  0  0  0  0  0
  -29.8284  -15.6743   21.0114 N   0  0  0  0  0  0
  -30.0507  -24.3116   21.2259 O   0  0  0  0  0  0
  -29.8176  -21.4954   20.9061 O   0  0  0  0  0  0
  -31.4810  -12.5307   19.1649 H   0  0  0  0  0  0
  -30.3702  -11.4111   19.9019 H   0  0  0  0  0  0
  -29.7790  -11.7835   17.4793 H   0  0  0  0  0  0
  -29.6438  -13.5017   17.7657 H   0  0  0  0  0  0
  -27.8750  -11.2972   18.8685 H   0  0  0  0  0  0
  -27.3797  -12.5820   17.7973 H   0  0  0  0  0  0
  -27.6754  -14.2536   19.5312 H   0  0  0  0  0  0
  -28.7107  -12.0411   21.3715 H   0  0  0  0  0  0
  -28.4301  -13.6846   21.8614 H   0  0  0  0  0  0
  -25.2746   -9.5681   22.4769 H   0  0  0  0  0  0
  -23.9957   -7.4654   22.7484 H   0  0  0  0  0  0
  -21.0796   -8.8795   19.8980 H   0  0  0  0  0  0
  -22.3666  -10.9675   19.6175 H   0  0  0  0  0  0
  -21.2028   -7.6140   23.9708 H   0  0  0  0  0  0
  -21.1470   -6.0514   25.9067 H   0  0  0  0  0  0
  -22.0599   -2.7600   23.2851 H   0  0  0  0  0  0
  -22.4063  -11.9944   22.4798 H   0  0  0  0  0  0
  -21.1104  -13.1370   22.2624 H   0  0  0  0  0  0
  -24.6630  -15.8461   20.5265 H   0  0  0  0  0  0
  -26.2851  -15.6298   20.1014 H   0  0  0  0  0  0
  -26.7199  -32.5446   23.1085 H   0  0  0  0  0  0
  -25.0117  -33.9692   25.0435 H   0  0  0  0  0  0
  -22.7165  -31.3006   21.3955 H   0  0  0  0  0  0
  -23.3732  -35.9639   23.3293 H   0  0  0  0  0  0
  -24.3595  -36.8905   22.2044 H   0  0  0  0  0  0
  -23.7273  -37.6501   23.6655 H   0  0  0  0  0  0
  -26.0951  -31.5517   20.6059 H   0  0  0  0  0  0
  -26.8426  -30.8396   22.0034 H   0  0  0  0  0  0
  -28.1129  -28.9671   21.2190 H   0  0  0  0  0  0
  -25.9786  -25.9480   18.9683 H   0  0  0  0  0  0
  -23.9815  -27.3136   18.9998 H   0  0  0  0  0  0
  -23.7581  -30.5888   19.3999 H   0  0  0  0  0  0
  -22.7618  -29.2403   19.8560 H   0  0  0  0  0  0
  -25.1283  -36.1889   25.0807 H   0  0  0  0  0  0
  -20.9985  -28.3295   24.1378 H   0  0  0  0  0  0
  -20.5673  -26.2306   23.3607 H   0  0  0  0  0  0
  -21.6650  -26.7434   22.1202 H   0  0  0  0  0  0
  -19.6922  -25.6280   21.1236 H   0  0  0  0  0  0
  -19.6695  -27.3176   20.6727 H   0  0  0  0  0  0
  -17.4200  -26.6647   21.4025 H   0  0  0  0  0  0
  -18.0352  -26.0080   22.9014 H   0  0  0  0  0  0
  -19.7948  -30.7274   24.2227 H   0  0  0  0  0  0
  -17.5030  -31.6257   24.5161 H   0  0  0  0  0  0
  -15.5365  -30.2973   23.7672 H   0  0  0  0  0  0
  -15.8673  -28.0828   22.7041 H   0  0  0  0  0  0
  -24.5883  -30.7127   25.7790 H   0  0  0  0  0  0
  -24.8998  -32.2964   26.4842 H   0  0  0  0  0  0
  -25.8072  -30.8936   27.0222 H   0  0  0  0  0  0
  -26.2916  -29.6711   24.1212 H   0  0  0  0  0  0
  -27.4007  -29.7218   25.4691 H   0  0  0  0  0  0
  -27.8790  -30.4200   23.9418 H   0  0  0  0  0  0
  -27.2668  -33.3568   26.2068 H   0  0  0  0  0  0
  -28.3875  -32.6867   25.0314 H   0  0  0  0  0  0
  -28.0733  -31.8408   26.5384 H   0  0  0  0  0  0
  -28.2560  -38.0105   24.7519 H   0  0  0  0  0  0
  -28.1105  -36.2646   24.6216 H   0  0  0  0  0  0
  -27.2310  -37.1360   25.8848 H   0  0  0  0  0  0
  -20.9367  -29.8773   21.6863 H   0  0  0  0  0  0
  -26.0150  -38.2816   24.1445 H   0  0  0  0  0  0
  -30.4647  -17.3304   18.8375 H   0  0  0  0  0  0
  -29.2304  -17.4089   22.9468 H   0  0  0  0  0  0
  -31.2110  -19.4106   17.8132 H   0  0  0  0  0  0
  -30.8968  -20.9809   18.5319 H   0  0  0  0  0  0
  -29.5874  -20.0905   17.7405 H   0  0  0  0  0  0
  -28.9693  -19.4224   24.1213 H   0  0  0  0  0  0
  -28.1275  -20.6178   23.1352 H   0  0  0  0  0  0
  -29.8391  -20.8280   23.5134 H   0  0  0  0  0  0
  -27.1310  -24.7006   20.2960 H   0  0  0  0  0  0
  -28.0700  -24.8652   18.8277 H   0  0  0  0  0  0
  -29.1049  -22.2698   19.0835 H   0  0  0  0  0  0
  -27.9005  -22.1249   20.3466 H   0  0  0  0  0  0
  -29.0179  -15.3254   21.4986 H   0  0  0  0  0  0
  1 25  1  0  0  0
  1 30  2  0  0  0
  1 82  1  0  0  0
  2  3  1  0  0  0
  2 25  1  0  0  0
  2 85  1  0  0  0
  2 86  1  0  0  0
  3  4  1  0  0  0
  3 87  1  0  0  0
  3 88  1  0  0  0
  4  5  1  0  0  0
  4 89  1  0  0  0
  4 90  1  0  0  0
  5  6  1  0  0  0
  5 26  1  0  0  0
  5 91  1  0  0  0
  6 25  1  0  0  0
  6 92  1  0  0  0
  6 93  1  0  0  0
  7  8  2  0  0  0
  7 26  1  0  0  0
  7 29  1  0  0  0
  8  9  1  0  0  0
  8 22  1  0  0  0
  9 10  1  0  0  0
  9 27  2  0  0  0
 10 11  2  0  0  0
 10 15  1  0  0  0
 11 12  1  0  0  0
 11 94  1  0  0  0
 12 13  2  0  0  0
 12 95  1  0  0  0
 13 14  1  0  0  0
 13 31  1  0  0  0
 14 15  2  0  0  0
 14 96  1  0  0  0
 15 97  1  0  0  0
 16 17  2  0  0  0
 16 21  1  0  0  0
 16 31  1  0  0  0
 17 18  1  0  0  0
 17 98  1  0  0  0
 18 19  2  0  0  0
 18 99  1  0  0  0
 19 20  1  0  0  0
 19 24  1  0  0  0
 20 21  2  0  0  0
 20100  1  0  0  0
 21 23  1  0  0  0
 22 28  1  0  0  0
 22 32  2  0  0  0
 26 27  1  0  0  0
 28101  1  0  0  0
 28102  1  0  0  0
 29103  1  0  0  0
 29104  1  0  0  0
 33 34  1  0  0  0
 33 66  1  0  0  0
 33 70  2  0  0  0
 34 36  1  0  0  0
 34 59  1  0  0  0
 34105  1  0  0  0
 35 44  2  0  0  0
 35 45  1  0  0  0
 35 68  1  0  0  0
 36 56  1  0  0  0
 36106  1  0  0  0
 37 39  1  0  0  0
 37 47  1  0  0  0
 37 66  1  0  0  0
 37107  1  0  0  0
 38 43  2  0  0  0
 38 46  1  0  0  0
 38 47  1  0  0  0
 39 64  1  0  0  0
 39 67  2  0  0  0
 40 52  1  0  0  0
 40 53  2  0  0  0
 40 58  1  0  0  0
 41108  1  0  0  0
 41109  1  0  0  0
 41110  1  0  0  0
 41 48  1  0  0  0
 42 43  1  0  0  0
 42 66  1  0  0  0
 42111  1  0  0  0
 42112  1  0  0  0
 43 44  1  0  0  0
 44113  1  0  0  0
 45 46  2  0  0  0
 45114  1  0  0  0
 46115  1  0  0  0
 47116  1  0  0  0
 47117  1  0  0  0
 48 56  1  0  0  0
 48 65  1  0  0  0
 48118  1  0  0  0
 49 50  1  0  0  0
 49 53  1  0  0  0
 49 64  1  0  0  0
 49119  1  0  0  0
 50 51  1  0  0  0
 50120  1  0  0  0
 50121  1  0  0  0
 51 52  1  0  0  0
 51122  1  0  0  0
 51123  1  0  0  0
 52124  1  0  0  0
 52125  1  0  0  0
 53 54  1  0  0  0
 54 55  2  0  0  0
 54126  1  0  0  0
 55 57  1  0  0  0
 55127  1  0  0  0
 56 69  2  0  0  0
 57 58  2  0  0  0
 57128  1  0  0  0
 58129  1  0  0  0
 59 60  1  0  0  0
 59 61  1  0  0  0
 59 62  1  0  0  0
 60130  1  0  0  0
 60131  1  0  0  0
 60132  1  0  0  0
 61133  1  0  0  0
 61134  1  0  0  0
 61135  1  0  0  0
 62136  1  0  0  0
 62137  1  0  0  0
 62138  1  0  0  0
 63 65  1  0  0  0
 63139  1  0  0  0
 63140  1  0  0  0
 63141  1  0  0  0
 64142  1  0  0  0
 65143  1  0  0  0
 68 80  1  0  0  0
 71 73  2  0  0  0
 71 75  1  0  0  0
 71144  1  0  0  0
 72 74  1  0  0  0
 72 75  2  0  0  0
 72145  1  0  0  0
 73 76  1  0  0  0
 73 78  1  0  0  0
 74 76  2  0  0  0
 74 79  1  0  0  0
 75 82  1  0  0  0
 76 84  1  0  0  0
 77 80  1  0  0  0
 77 81  1  0  0  0
 77 83  2  0  0  0
 78146  1  0  0  0
 78147  1  0  0  0
 78148  1  0  0  0
 79149  1  0  0  0
 79150  1  0  0  0
 79151  1  0  0  0
 80152  1  0  0  0
 80153  1  0  0  0
 81 84  1  0  0  0
 81154  1  0  0  0
 81155  1  0  0  0
 82156  1  0  0  0
M  ISO  4   1 100  68 101  80 101  82 100
M  END
> <chiral flag>
0

> <version>
0

> <s_m_source_file>
/data/baiqing/PycharmProjects/Reinvent-master-3.2/result/LINK_invent/BTK/process_docking_weight1_custom_product_contain_oxygen_bond_distance_aromatic_linkinvent_7_9_3/rearranged_h_0126.sdf

> <i_m_source_file_index>
86

> <r_mmod_Potential_Energy-OPLS-2005>
82.5627593994141

> <r_mmod_Stretch_Energy-OPLS-2005>
86.4820098876953

> <r_mmod_Bend_Energy-OPLS-2005>
143.941650390625

> <r_mmod_Torsional_Energy-OPLS-2005>
246.349533081055

> <r_mmod_Improper_Torsional_Energy-OPLS-2005>
3.88976120948792

> <r_mmod_Van_der_Waal_Energy-OPLS-2005>
140.239028930664

> <r_mmod_Electrostatic_Energy-OPLS-2005>
-348.325714111328

> <r_mmod_Solvation_Energy-OPLS-2005>
-245.361221313477

> <b_mmod_Minimization_Converged-OPLS-2005>
0

> <r_mmod_RMS_Derivative-OPLS-2005>
2.94504928588867

$$$$
86
                    3D
 Structure written by MMmdl.
160168  0  0  1  0            999 V2000
  -30.6615  -14.5020   20.4227 C   0  0  0  0  0  0
  -30.4348  -12.2530   19.4647 C   0  0  0  0  0  0
  -29.5165  -12.3366   18.2279 C   0  0  0  0  0  0
  -28.0167  -12.3292   18.6193 C   0  0  0  0  0  0
  -27.6559  -13.1824   19.8716 C   0  0  2  0  0  0
  -28.7062  -13.0162   20.9909 C   0  0  0  0  0  0
  -25.2577  -13.8092   20.5694 C   0  0  0  0  0  0
  -24.1811  -13.0405   20.9201 C   0  0  0  0  0  0
  -24.6340  -11.6869   20.8769 C   0  0  0  0  0  0
  -23.9008  -10.4274   21.0423 C   0  0  0  0  0  0
  -24.3579   -9.4194   21.9193 C   0  0  0  0  0  0
  -23.6268   -8.2225   22.0745 C   0  0  0  0  0  0
  -22.4249   -8.0263   21.3537 C   0  0  0  0  0  0
  -21.9878   -9.0231   20.4633 C   0  0  0  0  0  0
  -22.7194  -10.2116   20.3055 C   0  0  0  0  0  0
  -21.6844   -6.0721   22.5282 C   0  0  0  0  0  0
  -21.4006   -6.5627   23.8214 C   0  0  0  0  0  0
  -21.3663   -5.6778   24.9178 C   0  0  0  0  0  0
  -21.6044   -4.3042   24.7229 C   0  0  0  0  0  0
  -21.8818   -3.8135   23.4352 C   0  0  0  0  0  0
  -21.9187   -4.6951   22.3404 C   0  0  0  0  0  0
  -22.7841  -13.5230   21.1857 C   0  0  0  0  0  0
  -22.1660   -4.2143   21.0984 F   0  0  0  0  0  0
  -21.5639   -3.4525   25.7741 F   0  0  0  0  0  0
  -30.0279  -13.2995   20.4100 N   0  0  0  0  0  0
  -26.2987  -12.9198   20.3388 N   0  0  0  0  0  0
  -25.9263  -11.6400   20.5839 N   0  0  0  0  0  0
  -22.0462  -12.8241   22.0421 N   0  0  0  0  0  0
  -25.4295  -15.1816   20.4114 N   0  0  0  0  0  0
  -31.8509  -14.6444   20.1279 O   0  0  0  0  0  0
  -21.6622   -6.8860   21.4237 O   0  0  0  0  0  0
  -22.3549  -14.5546   20.6698 O   0  0  0  0  0  0
  -24.6081  -31.8696   23.2117 C   0  0  0  0  0  0
  -25.8998  -32.4831   23.8397 C   0  0  1  0  0  0
  -27.2540  -27.4814   20.0882 C   0  0  0  0  0  0
  -25.5865  -33.8629   24.2330 N   0  0  0  0  0  0
  -23.3952  -30.4899   21.5494 C   0  0  2  0  0  0
  -24.8460  -28.9555   20.1136 C   0  0  0  0  0  0
  -22.7373  -29.4660   22.5006 C   0  0  0  0  0  0
  -18.0262  -28.1378   22.8494 C   0  0  0  0  0  0
  -24.1476  -36.7318   23.2642 C   0  0  0  0  0  0
  -25.9164  -30.8447   21.3607 C   0  0  0  0  0  0
  -25.9957  -29.4783   20.7173 C   0  0  0  0  0  0
  -27.1924  -28.7385   20.7189 C   0  0  0  0  0  0
  -26.0906  -26.9561   19.4803 C   0  0  0  0  0  0
  -24.8848  -27.6886   19.4992 C   0  0  0  0  0  0
  -23.6024  -29.8146   20.1645 C   0  0  0  0  0  0
  -25.4099  -36.3120   24.0342 C   0  0  1  0  0  0
  -20.5847  -28.3653   23.1337 C   0  0  2  0  0  0
  -20.6746  -26.9396   22.5424 C   0  0  0  0  0  0
  -19.5734  -26.6391   21.5209 C   0  0  0  0  0  0
  -18.1912  -26.7922   22.1624 C   0  0  0  0  0  0
  -19.1512  -28.8831   23.2911 C   0  0  0  0  0  0
  -18.9449  -30.1432   23.8928 C   0  0  0  0  0  0
  -17.6458  -30.6586   24.0572 C   0  0  0  0  0  0
  -25.9027  -34.9484   23.5143 C   0  0  0  0  0  0
  -16.5347  -29.9098   23.6325 C   0  0  0  0  0  0
  -16.7254  -28.6510   23.0351 C   0  0  0  0  0  0
  -26.4454  -31.6603   25.0707 C   0  0  0  0  0  0
  -25.3743  -31.3693   26.1473 C   0  0  0  0  0  0
  -27.0278  -30.3057   24.6047 C   0  0  0  0  0  0
  -27.6040  -32.4322   25.7456 C   0  0  0  0  0  0
  -27.5575  -37.1806   24.8467 C   0  0  0  0  0  0
  -21.4107  -29.3021   22.3741 N   0  0  0  0  0  0
  -26.4287  -37.3802   23.9419 N   0  0  0  0  0  0
  -24.6577  -31.0827   22.0996 N   0  0  0  0  0  0
  -23.4159  -28.8218   23.3051 O   0  0  0  0  0  0
  -28.4561  -26.8188   20.1224 O   0  0  0  0  0  0
  -26.5604  -34.8936   22.4710 O   0  0  0  0  0  0
  -23.5289  -32.1435   23.7538 O   0  0  0  0  0  0
  -30.2606  -19.2504   18.4431 C   0  0  0  0  0  0
  -29.5704  -18.1960   17.8446 C   0  0  0  0  0  0
  -30.6802  -17.8769   20.4133 C   0  0  0  0  0  0
  -30.7836  -19.1240   19.7478 C   0  0  0  0  0  0
  -29.4004  -16.9843   18.5296 C   0  0  0  0  0  0
  -29.9977  -16.7888   19.8089 C   0  0  0  0  0  0
  -31.3106  -20.3328   20.4075 C   0  0  0  0  0  0
  -30.8227  -21.5522   20.1004 C   0  0  0  0  0  0
  -31.3166  -22.8275   20.6182 C   0  0  0  0  0  0
  -28.5490  -15.9511   17.8335 C   0  0  0  0  0  0
  -30.3637  -25.9478   19.0009 C   0  0  0  0  0  0
  -28.8250  -26.0158   19.0134 C   0  0  0  0  0  0
  -30.9741  -25.1796   20.1878 C   0  0  0  0  0  0
  -29.8346  -15.5613   20.5251 N   0  0  0  0  0  0
  -32.2438  -22.9704   21.4189 O   0  0  0  0  0  0
  -30.6168  -23.8177   20.0454 O   0  0  0  0  0  0
  -31.4816  -12.3392   19.1682 H   0  0  0  0  0  0
  -30.3411  -11.2741   19.9378 H   0  0  0  0  0  0
  -29.7110  -11.4777   17.5841 H   0  0  0  0  0  0
  -29.7915  -13.1849   17.6102 H   0  0  0  0  0  0
  -27.7581  -11.2882   18.8147 H   0  0  0  0  0  0
  -27.4027  -12.6291   17.7694 H   0  0  0  0  0  0
  -27.6654  -14.2213   19.5745 H   0  0  0  0  0  0
  -28.6843  -11.9990   21.3853 H   0  0  0  0  0  0
  -28.4899  -13.6712   21.8367 H   0  0  0  0  0  0
  -25.2724   -9.5682   22.4768 H   0  0  0  0  0  0
  -23.9987   -7.4606   22.7447 H   0  0  0  0  0  0
  -21.0820   -8.8738   19.8922 H   0  0  0  0  0  0
  -22.3655  -10.9654   19.6166 H   0  0  0  0  0  0
  -21.1993   -7.6129   23.9718 H   0  0  0  0  0  0
  -21.1491   -6.0508   25.9083 H   0  0  0  0  0  0
  -22.0595   -2.7596   23.2848 H   0  0  0  0  0  0
  -22.4050  -11.9913   22.4842 H   0  0  0  0  0  0
  -21.1058  -13.1248   22.2570 H   0  0  0  0  0  0
  -24.6636  -15.8335   20.5446 H   0  0  0  0  0  0
  -26.2771  -15.6317   20.0943 H   0  0  0  0  0  0
  -26.7065  -32.5564   23.1166 H   0  0  0  0  0  0
  -24.9968  -33.9788   25.0441 H   0  0  0  0  0  0
  -22.6813  -31.3042   21.4080 H   0  0  0  0  0  0
  -23.3732  -35.9657   23.3321 H   0  0  0  0  0  0
  -24.3561  -36.8916   22.2052 H   0  0  0  0  0  0
  -23.7235  -37.6531   23.6643 H   0  0  0  0  0  0
  -26.0194  -31.6064   20.5867 H   0  0  0  0  0  0
  -26.8085  -30.9061   21.9720 H   0  0  0  0  0  0
  -28.0798  -29.1374   21.1903 H   0  0  0  0  0  0
  -26.1074  -25.9858   19.0042 H   0  0  0  0  0  0
  -23.9991  -27.2765   19.0349 H   0  0  0  0  0  0
  -23.7003  -30.5841   19.3978 H   0  0  0  0  0  0
  -22.7307  -29.2232   19.8776 H   0  0  0  0  0  0
  -25.1271  -36.1986   25.0833 H   0  0  0  0  0  0
  -20.9936  -28.3219   24.1461 H   0  0  0  0  0  0
  -20.5636  -26.2264   23.3604 H   0  0  0  0  0  0
  -21.6624  -26.7433   22.1239 H   0  0  0  0  0  0
  -19.6895  -25.6308   21.1225 H   0  0  0  0  0  0
  -19.6679  -27.3213   20.6748 H   0  0  0  0  0  0
  -17.4179  -26.6666   21.4029 H   0  0  0  0  0  0
  -18.0323  -26.0059   22.9017 H   0  0  0  0  0  0
  -19.7929  -30.7226   24.2327 H   0  0  0  0  0  0
  -17.5023  -31.6277   24.5153 H   0  0  0  0  0  0
  -15.5352  -30.3022   23.7623 H   0  0  0  0  0  0
  -15.8647  -28.0836   22.7067 H   0  0  0  0  0  0
  -24.5904  -30.7052   25.7816 H   0  0  0  0  0  0
  -24.8946  -32.2842   26.4962 H   0  0  0  0  0  0
  -25.8119  -30.8833   27.0203 H   0  0  0  0  0  0
  -26.2794  -29.6820   24.1144 H   0  0  0  0  0  0
  -27.4110  -29.7294   25.4476 H   0  0  0  0  0  0
  -27.8601  -30.4392   23.9136 H   0  0  0  0  0  0
  -27.2659  -33.3605   26.2079 H   0  0  0  0  0  0
  -28.3816  -32.6918   25.0258 H   0  0  0  0  0  0
  -28.0746  -31.8421   26.5331 H   0  0  0  0  0  0
  -28.2613  -38.0087   24.7513 H   0  0  0  0  0  0
  -28.1053  -36.2622   24.6289 H   0  0  0  0  0  0
  -27.2294  -37.1460   25.8872 H   0  0  0  0  0  0
  -20.9259  -29.8731   21.6957 H   0  0  0  0  0  0
  -26.0177  -38.2882   24.1428 H   0  0  0  0  0  0
  -30.3498  -20.1718   17.8858 H   0  0  0  0  0  0
  -29.1419  -18.3392   16.8619 H   0  0  0  0  0  0
  -31.0841  -17.7704   21.4103 H   0  0  0  0  0  0
  -32.1183  -20.2184   21.1175 H   0  0  0  0  0  0
  -29.9985  -21.6359   19.4080 H   0  0  0  0  0  0
  -28.5439  -16.0944   16.7525 H   0  0  0  0  0  0
  -27.5180  -16.0029   18.1815 H   0  0  0  0  0  0
  -28.9443  -14.9699   18.0169 H   0  0  0  0  0  0
  -30.7626  -26.9627   18.9922 H   0  0  0  0  0  0
  -30.6960  -25.4889   18.0693 H   0  0  0  0  0  0
  -28.3823  -25.0220   19.0919 H   0  0  0  0  0  0
  -28.4760  -26.4628   18.0809 H   0  0  0  0  0  0
  -30.6106  -25.5658   21.1407 H   0  0  0  0  0  0
  -32.0598  -25.2900   20.1784 H   0  0  0  0  0  0
  -28.8855  -15.3110   20.7519 H   0  0  0  0  0  0
  1 25  1  0  0  0
  1 30  2  0  0  0
  1 84  1  0  0  0
  2  3  1  0  0  0
  2 25  1  0  0  0
  2 87  1  0  0  0
  2 88  1  0  0  0
  3  4  1  0  0  0
  3 89  1  0  0  0
  3 90  1  0  0  0
  4  5  1  0  0  0
  4 91  1  0  0  0
  4 92  1  0  0  0
  5  6  1  0  0  0
  5 26  1  0  0  0
  5 93  1  0  0  0
  6 25  1  0  0  0
  6 94  1  0  0  0
  6 95  1  0  0  0
  7  8  2  0  0  0
  7 26  1  0  0  0
  7 29  1  0  0  0
  8  9  1  0  0  0
  8 22  1  0  0  0
  9 10  1  0  0  0
  9 27  2  0  0  0
 10 11  2  0  0  0
 10 15  1  0  0  0
 11 12  1  0  0  0
 11 96  1  0  0  0
 12 13  2  0  0  0
 12 97  1  0  0  0
 13 14  1  0  0  0
 13 31  1  0  0  0
 14 15  2  0  0  0
 14 98  1  0  0  0
 15 99  1  0  0  0
 16 17  2  0  0  0
 16 21  1  0  0  0
 16 31  1  0  0  0
 17 18  1  0  0  0
 17100  1  0  0  0
 18 19  2  0  0  0
 18101  1  0  0  0
 19 20  1  0  0  0
 19 24  1  0  0  0
 20 21  2  0  0  0
 20102  1  0  0  0
 21 23  1  0  0  0
 22 28  1  0  0  0
 22 32  2  0  0  0
 26 27  1  0  0  0
 28103  1  0  0  0
 28104  1  0  0  0
 29105  1  0  0  0
 29106  1  0  0  0
 33 34  1  0  0  0
 33 66  1  0  0  0
 33 70  2  0  0  0
 34 36  1  0  0  0
 34 59  1  0  0  0
 34107  1  0  0  0
 35 44  2  0  0  0
 35 45  1  0  0  0
 35 68  1  0  0  0
 36 56  1  0  0  0
 36108  1  0  0  0
 37 39  1  0  0  0
 37 47  1  0  0  0
 37 66  1  0  0  0
 37109  1  0  0  0
 38 43  2  0  0  0
 38 46  1  0  0  0
 38 47  1  0  0  0
 39 64  1  0  0  0
 39 67  2  0  0  0
 40 52  1  0  0  0
 40 53  2  0  0  0
 40 58  1  0  0  0
 41110  1  0  0  0
 41111  1  0  0  0
 41112  1  0  0  0
 41 48  1  0  0  0
 42 43  1  0  0  0
 42 66  1  0  0  0
 42113  1  0  0  0
 42114  1  0  0  0
 43 44  1  0  0  0
 44115  1  0  0  0
 45 46  2  0  0  0
 45116  1  0  0  0
 46117  1  0  0  0
 47118  1  0  0  0
 47119  1  0  0  0
 48 56  1  0  0  0
 48 65  1  0  0  0
 48120  1  0  0  0
 49 50  1  0  0  0
 49 53  1  0  0  0
 49 64  1  0  0  0
 49121  1  0  0  0
 50 51  1  0  0  0
 50122  1  0  0  0
 50123  1  0  0  0
 51 52  1  0  0  0
 51124  1  0  0  0
 51125  1  0  0  0
 52126  1  0  0  0
 52127  1  0  0  0
 53 54  1  0  0  0
 54 55  2  0  0  0
 54128  1  0  0  0
 55 57  1  0  0  0
 55129  1  0  0  0
 56 69  2  0  0  0
 57 58  2  0  0  0
 57130  1  0  0  0
 58131  1  0  0  0
 59 60  1  0  0  0
 59 61  1  0  0  0
 59 62  1  0  0  0
 60132  1  0  0  0
 60133  1  0  0  0
 60134  1  0  0  0
 61135  1  0  0  0
 61136  1  0  0  0
 61137  1  0  0  0
 62138  1  0  0  0
 62139  1  0  0  0
 62140  1  0  0  0
 63 65  1  0  0  0
 63141  1  0  0  0
 63142  1  0  0  0
 63143  1  0  0  0
 64144  1  0  0  0
 65145  1  0  0  0
 68 82  1  0  0  0
 71 72  2  0  0  0
 71 74  1  0  0  0
 71146  1  0  0  0
 72 75  1  0  0  0
 72147  1  0  0  0
 73 74  2  0  0  0
 73 76  1  0  0  0
 73148  1  0  0  0
 74 77  1  0  0  0
 75 76  2  0  0  0
 75 80  1  0  0  0
 76 84  1  0  0  0
 77 78  2  0  0  0
 77149  1  0  0  0
 78 79  1  0  0  0
 78150  1  0  0  0
 79 85  2  0  0  0
 79 86  1  0  0  0
 80151  1  0  0  0
 80152  1  0  0  0
 80153  1  0  0  0
 81 82  1  0  0  0
 81 83  1  0  0  0
 81154  1  0  0  0
 81155  1  0  0  0
 82156  1  0  0  0
 82157  1  0  0  0
 83 86  1  0  0  0
 83158  1  0  0  0
 83159  1  0  0  0
 84160  1  0  0  0
M  ISO  4   1 100  68 101  82 101  84 100
M  END
> <chiral flag>
0

> <version>
0

> <s_m_source_file>
/data/baiqing/PycharmProjects/Reinvent-master-3.2/result/LINK_invent/BTK/process_docking_weight1_custom_product_contain_oxygen_bond_distance_aromatic_linkinvent_7_9_3/rearranged_h_0126.sdf

> <i_m_source_file_index>
87

> <r_mmod_Potential_Energy-OPLS-2005>
-38.6292877197266

> <r_mmod_Stretch_Energy-OPLS-2005>
34.4571762084961

> <r_mmod_Bend_Energy-OPLS-2005>
105.055221557617

> <r_mmod_Torsional_Energy-OPLS-2005>
269.152252197266

> <r_mmod_Improper_Torsional_Energy-OPLS-2005>
8.72177696228027

> <r_mmod_Van_der_Waal_Energy-OPLS-2005>
160.894348144531

> <r_mmod_Electrostatic_Energy-OPLS-2005>
-418.500762939453

> <r_mmod_Solvation_Energy-OPLS-2005>
-223.198822021484

> <b_mmod_Minimization_Converged-OPLS-2005>
0

> <r_mmod_RMS_Derivative-OPLS-2005>
1.33372688293457

$$$$
87
                    3D
 Structure written by MMmdl.
156164  0  0  1  0            999 V2000
  -30.6707  -14.5578   20.4892 C   0  0  0  0  0  0
  -30.4182  -12.3393   19.4470 C   0  0  0  0  0  0
  -29.4964  -12.4975   18.2195 C   0  0  0  0  0  0
  -28.0181  -12.3586   18.6290 C   0  0  0  0  0  0
  -27.6556  -13.2178   19.8688 C   0  0  2  0  0  0
  -28.6973  -13.0614   20.9991 C   0  0  0  0  0  0
  -25.2588  -13.8171   20.5741 C   0  0  0  0  0  0
  -24.1844  -13.0436   20.9182 C   0  0  0  0  0  0
  -24.6393  -11.6912   20.8743 C   0  0  0  0  0  0
  -23.9065  -10.4291   21.0410 C   0  0  0  0  0  0
  -24.3614   -9.4193   21.9188 C   0  0  0  0  0  0
  -23.6282   -8.2243   22.0768 C   0  0  0  0  0  0
  -22.4270   -8.0281   21.3566 C   0  0  0  0  0  0
  -21.9899   -9.0250   20.4661 C   0  0  0  0  0  0
  -22.7235  -10.2127   20.3063 C   0  0  0  0  0  0
  -21.6859   -6.0724   22.5269 C   0  0  0  0  0  0
  -21.4017   -6.5632   23.8199 C   0  0  0  0  0  0
  -21.3669   -5.6798   24.9175 C   0  0  0  0  0  0
  -21.6050   -4.3059   24.7229 C   0  0  0  0  0  0
  -21.8827   -3.8145   23.4348 C   0  0  0  0  0  0
  -21.9200   -4.6955   22.3402 C   0  0  0  0  0  0
  -22.7873  -13.5235   21.1850 C   0  0  0  0  0  0
  -22.1681   -4.2136   21.0984 F   0  0  0  0  0  0
  -21.5625   -3.4540   25.7737 F   0  0  0  0  0  0
  -30.0199  -13.3615   20.4324 N   0  0  0  0  0  0
  -26.3010  -12.9366   20.3380 N   0  0  0  0  0  0
  -25.9317  -11.6511   20.5764 N   0  0  0  0  0  0
  -22.0532  -12.8197   22.0409 N   0  0  0  0  0  0
  -25.4344  -15.1886   20.4188 N   0  0  0  0  0  0
  -31.8456  -14.6632   20.1295 O   0  0  0  0  0  0
  -21.6655   -6.8868   21.4237 O   0  0  0  0  0  0
  -22.3543  -14.5544   20.6723 O   0  0  0  0  0  0
  -24.6152  -31.8649   23.2059 C   0  0  0  0  0  0
  -25.9027  -32.4817   23.8382 C   0  0  1  0  0  0
  -27.2422  -27.4027   20.1149 C   0  0  0  0  0  0
  -25.5865  -33.8615   24.2327 N   0  0  0  0  0  0
  -23.4064  -30.4837   21.5454 C   0  0  2  0  0  0
  -24.8570  -28.9464   20.1075 C   0  0  0  0  0  0
  -22.7416  -29.4628   22.4968 C   0  0  0  0  0  0
  -18.0268  -28.1360   22.8499 C   0  0  0  0  0  0
  -24.1481  -36.7318   23.2638 C   0  0  0  0  0  0
  -25.9326  -30.8248   21.3596 C   0  0  0  0  0  0
  -26.0123  -29.4529   20.7131 C   0  0  0  0  0  0
  -27.2032  -28.6864   20.7141 C   0  0  0  0  0  0
  -26.0757  -26.9283   19.4773 C   0  0  0  0  0  0
  -24.8862  -27.6872   19.4796 C   0  0  0  0  0  0
  -23.6160  -29.8118   20.1601 C   0  0  0  0  0  0
  -25.4099  -36.3109   24.0344 C   0  0  1  0  0  0
  -20.5857  -28.3666   23.1310 C   0  0  2  0  0  0
  -20.6747  -26.9390   22.5415 C   0  0  0  0  0  0
  -19.5727  -26.6381   21.5204 C   0  0  0  0  0  0
  -18.1919  -26.7915   22.1618 C   0  0  0  0  0  0
  -19.1515  -28.8834   23.2910 C   0  0  0  0  0  0
  -18.9441  -30.1433   23.8930 C   0  0  0  0  0  0
  -17.6450  -30.6582   24.0556 C   0  0  0  0  0  0
  -25.9037  -34.9471   23.5147 C   0  0  0  0  0  0
  -16.5342  -29.9083   23.6301 C   0  0  0  0  0  0
  -16.7263  -28.6480   23.0358 C   0  0  0  0  0  0
  -26.4455  -31.6579   25.0713 C   0  0  0  0  0  0
  -25.3720  -31.3650   26.1466 C   0  0  0  0  0  0
  -27.0278  -30.3022   24.6064 C   0  0  0  0  0  0
  -27.6068  -32.4258   25.7473 C   0  0  0  0  0  0
  -27.5580  -37.1806   24.8458 C   0  0  0  0  0  0
  -21.4140  -29.3031   22.3723 N   0  0  0  0  0  0
  -26.4286  -37.3793   23.9416 N   0  0  0  0  0  0
  -24.6697  -31.0727   22.0964 N   0  0  0  0  0  0
  -23.4169  -28.8171   23.3032 O   0  0  0  0  0  0
  -28.4184  -26.6733   20.1924 O   0  0  0  0  0  0
  -26.5608  -34.8921   22.4715 O   0  0  0  0  0  0
  -23.5339  -32.1402   23.7444 O   0  0  0  0  0  0
  -30.3567  -19.7793   19.6533 C   0  0  0  0  0  0
  -29.3039  -18.0613   21.0278 C   0  0  0  0  0  0
  -31.0346  -17.4407   19.4385 C   0  0  0  0  0  0
  -29.4232  -19.4367   20.6513 C   0  0  0  0  0  0
  -31.1714  -18.7939   19.0660 C   0  0  0  0  0  0
  -30.1029  -17.0379   20.4325 C   0  0  0  0  0  0
  -28.2501  -21.7667   20.5604 C   0  0  0  0  0  0
  -28.0862  -22.9714   21.1731 C   0  0  0  0  0  0
  -28.6187  -20.5254   21.3183 C   0  0  0  0  0  0
  -32.2092  -19.1988   18.0395 C   0  0  0  0  0  0
  -27.5240  -24.2803   20.5800 C   0  0  0  0  0  0
  -28.5078  -25.2608   19.8716 C   0  0  0  0  0  0
  -29.9145  -15.6466   20.8030 N   0  0  0  0  0  0
  -28.2328  -20.3742   22.4812 O   0  0  0  0  0  0
  -31.4639  -12.4314   19.1447 H   0  0  0  0  0  0
  -30.3185  -11.3425   19.8785 H   0  0  0  0  0  0
  -29.7395  -11.7550   17.4589 H   0  0  0  0  0  0
  -29.6605  -13.4718   17.7566 H   0  0  0  0  0  0
  -27.8351  -11.3043   18.8429 H   0  0  0  0  0  0
  -27.3680  -12.6207   17.7947 H   0  0  0  0  0  0
  -27.6783  -14.2554   19.5354 H   0  0  0  0  0  0
  -28.6885  -12.0448   21.3943 H   0  0  0  0  0  0
  -28.4601  -13.7093   21.8445 H   0  0  0  0  0  0
  -25.2753   -9.5665   22.4748 H   0  0  0  0  0  0
  -24.0001   -7.4636   22.7460 H   0  0  0  0  0  0
  -21.0860   -8.8756   19.8936 H   0  0  0  0  0  0
  -22.3700  -10.9672   19.6165 H   0  0  0  0  0  0
  -21.2015   -7.6145   23.9683 H   0  0  0  0  0  0
  -21.1485   -6.0548   25.9079 H   0  0  0  0  0  0
  -22.0598   -2.7599   23.2853 H   0  0  0  0  0  0
  -22.4209  -11.9849   22.4711 H   0  0  0  0  0  0
  -21.1145  -13.1183   22.2651 H   0  0  0  0  0  0
  -24.6721  -15.8465   20.5354 H   0  0  0  0  0  0
  -26.2854  -15.6246   20.0878 H   0  0  0  0  0  0
  -26.7117  -32.5535   23.1167 H   0  0  0  0  0  0
  -24.9971  -33.9757   25.0443 H   0  0  0  0  0  0
  -22.6967  -31.3009   21.4020 H   0  0  0  0  0  0
  -23.3743  -35.9645   23.3277 H   0  0  0  0  0  0
  -24.3586  -36.8956   22.2054 H   0  0  0  0  0  0
  -23.7228  -37.6516   23.6670 H   0  0  0  0  0  0
  -26.0377  -31.5859   20.5843 H   0  0  0  0  0  0
  -26.8225  -30.8910   21.9730 H   0  0  0  0  0  0
  -28.0896  -29.0684   21.2006 H   0  0  0  0  0  0
  -26.0692  -25.9730   18.9750 H   0  0  0  0  0  0
  -24.0035  -27.2986   18.9905 H   0  0  0  0  0  0
  -23.7166  -30.5824   19.3949 H   0  0  0  0  0  0
  -22.7425  -29.2229   19.8735 H   0  0  0  0  0  0
  -25.1270  -36.1975   25.0839 H   0  0  0  0  0  0
  -20.9955  -28.3227   24.1423 H   0  0  0  0  0  0
  -20.5610  -26.2277   23.3608 H   0  0  0  0  0  0
  -21.6631  -26.7403   22.1240 H   0  0  0  0  0  0
  -19.6892  -25.6294   21.1227 H   0  0  0  0  0  0
  -19.6665  -27.3199   20.6737 H   0  0  0  0  0  0
  -17.4172  -26.6664   21.4020 H   0  0  0  0  0  0
  -18.0313  -26.0050   22.9009 H   0  0  0  0  0  0
  -19.7917  -30.7224   24.2335 H   0  0  0  0  0  0
  -17.5001  -31.6263   24.5147 H   0  0  0  0  0  0
  -15.5343  -30.2998   23.7597 H   0  0  0  0  0  0
  -15.8656  -28.0798   22.7084 H   0  0  0  0  0  0
  -24.5927  -30.6963   25.7780 H   0  0  0  0  0  0
  -24.8868  -32.2784   26.4926 H   0  0  0  0  0  0
  -25.8090  -30.8809   27.0221 H   0  0  0  0  0  0
  -26.2805  -29.6791   24.1132 H   0  0  0  0  0  0
  -27.4071  -29.7249   25.4518 H   0  0  0  0  0  0
  -27.8637  -30.4351   23.9188 H   0  0  0  0  0  0
  -27.2742  -33.3566   26.2084 H   0  0  0  0  0  0
  -28.3867  -32.6786   25.0271 H   0  0  0  0  0  0
  -28.0744  -31.8330   26.5350 H   0  0  0  0  0  0
  -28.2588  -38.0112   24.7536 H   0  0  0  0  0  0
  -28.1087  -36.2654   24.6247 H   0  0  0  0  0  0
  -27.2308  -37.1412   25.8861 H   0  0  0  0  0  0
  -20.9293  -29.8776   21.6972 H   0  0  0  0  0  0
  -26.0175  -38.2868   24.1428 H   0  0  0  0  0  0
  -30.4856  -20.8142   19.3630 H   0  0  0  0  0  0
  -28.5849  -17.7932   21.7894 H   0  0  0  0  0  0
  -31.6642  -16.7257   18.9304 H   0  0  0  0  0  0
  -28.0846  -21.6659   19.4977 H   0  0  0  0  0  0
  -28.3246  -23.0342   22.2263 H   0  0  0  0  0  0
  -31.9484  -20.1503   17.5741 H   0  0  0  0  0  0
  -32.2890  -18.4493   17.2535 H   0  0  0  0  0  0
  -33.1844  -19.3084   18.5136 H   0  0  0  0  0  0
  -27.0399  -24.8006   21.4078 H   0  0  0  0  0  0
  -26.7199  -24.0233   19.8889 H   0  0  0  0  0  0
  -28.4586  -25.1282   18.7892 H   0  0  0  0  0  0
  -29.5210  -24.9727   20.1503 H   0  0  0  0  0  0
  -29.0278  -15.4305   21.2316 H   0  0  0  0  0  0
  1 25  1  0  0  0
  1 30  2  0  0  0
  1 83  1  0  0  0
  2  3  1  0  0  0
  2 25  1  0  0  0
  2 85  1  0  0  0
  2 86  1  0  0  0
  3  4  1  0  0  0
  3 87  1  0  0  0
  3 88  1  0  0  0
  4  5  1  0  0  0
  4 89  1  0  0  0
  4 90  1  0  0  0
  5  6  1  0  0  0
  5 26  1  0  0  0
  5 91  1  0  0  0
  6 25  1  0  0  0
  6 92  1  0  0  0
  6 93  1  0  0  0
  7  8  2  0  0  0
  7 26  1  0  0  0
  7 29  1  0  0  0
  8  9  1  0  0  0
  8 22  1  0  0  0
  9 10  1  0  0  0
  9 27  2  0  0  0
 10 11  2  0  0  0
 10 15  1  0  0  0
 11 12  1  0  0  0
 11 94  1  0  0  0
 12 13  2  0  0  0
 12 95  1  0  0  0
 13 14  1  0  0  0
 13 31  1  0  0  0
 14 15  2  0  0  0
 14 96  1  0  0  0
 15 97  1  0  0  0
 16 17  2  0  0  0
 16 21  1  0  0  0
 16 31  1  0  0  0
 17 18  1  0  0  0
 17 98  1  0  0  0
 18 19  2  0  0  0
 18 99  1  0  0  0
 19 20  1  0  0  0
 19 24  1  0  0  0
 20 21  2  0  0  0
 20100  1  0  0  0
 21 23  1  0  0  0
 22 28  1  0  0  0
 22 32  2  0  0  0
 26 27  1  0  0  0
 28101  1  0  0  0
 28102  1  0  0  0
 29103  1  0  0  0
 29104  1  0  0  0
 33 34  1  0  0  0
 33 66  1  0  0  0
 33 70  2  0  0  0
 34 36  1  0  0  0
 34 59  1  0  0  0
 34105  1  0  0  0
 35 44  2  0  0  0
 35 45  1  0  0  0
 35 68  1  0  0  0
 36 56  1  0  0  0
 36106  1  0  0  0
 37 39  1  0  0  0
 37 47  1  0  0  0
 37 66  1  0  0  0
 37107  1  0  0  0
 38 43  2  0  0  0
 38 46  1  0  0  0
 38 47  1  0  0  0
 39 64  1  0  0  0
 39 67  2  0  0  0
 40 52  1  0  0  0
 40 53  2  0  0  0
 40 58  1  0  0  0
 41108  1  0  0  0
 41109  1  0  0  0
 41110  1  0  0  0
 41 48  1  0  0  0
 42 43  1  0  0  0
 42 66  1  0  0  0
 42111  1  0  0  0
 42112  1  0  0  0
 43 44  1  0  0  0
 44113  1  0  0  0
 45 46  2  0  0  0
 45114  1  0  0  0
 46115  1  0  0  0
 47116  1  0  0  0
 47117  1  0  0  0
 48 56  1  0  0  0
 48 65  1  0  0  0
 48118  1  0  0  0
 49 50  1  0  0  0
 49 53  1  0  0  0
 49 64  1  0  0  0
 49119  1  0  0  0
 50 51  1  0  0  0
 50120  1  0  0  0
 50121  1  0  0  0
 51 52  1  0  0  0
 51122  1  0  0  0
 51123  1  0  0  0
 52124  1  0  0  0
 52125  1  0  0  0
 53 54  1  0  0  0
 54 55  2  0  0  0
 54126  1  0  0  0
 55 57  1  0  0  0
 55127  1  0  0  0
 56 69  2  0  0  0
 57 58  2  0  0  0
 57128  1  0  0  0
 58129  1  0  0  0
 59 60  1  0  0  0
 59 61  1  0  0  0
 59 62  1  0  0  0
 60130  1  0  0  0
 60131  1  0  0  0
 60132  1  0  0  0
 61133  1  0  0  0
 61134  1  0  0  0
 61135  1  0  0  0
 62136  1  0  0  0
 62137  1  0  0  0
 62138  1  0  0  0
 63 65  1  0  0  0
 63139  1  0  0  0
 63140  1  0  0  0
 63141  1  0  0  0
 64142  1  0  0  0
 65143  1  0  0  0
 68 82  1  0  0  0
 71 74  2  0  0  0
 71 75  1  0  0  0
 71144  1  0  0  0
 72 74  1  0  0  0
 72 76  2  0  0  0
 72145  1  0  0  0
 73 75  2  0  0  0
 73 76  1  0  0  0
 73146  1  0  0  0
 74 79  1  0  0  0
 75 80  1  0  0  0
 76 83  1  0  0  0
 77 78  2  0  0  0
 77 79  1  0  0  0
 77147  1  0  0  0
 78 81  1  0  0  0
 78148  1  0  0  0
 79 84  2  0  0  0
 80149  1  0  0  0
 80150  1  0  0  0
 80151  1  0  0  0
 81 82  1  0  0  0
 81152  1  0  0  0
 81153  1  0  0  0
 82154  1  0  0  0
 82155  1  0  0  0
 83156  1  0  0  0
M  ISO  4   1 100  68 101  82 101  83 100
M  END
> <chiral flag>
0

> <version>
0

> <s_m_source_file>
/data/baiqing/PycharmProjects/Reinvent-master-3.2/result/LINK_invent/BTK/process_docking_weight1_custom_product_contain_oxygen_bond_distance_aromatic_linkinvent_7_9_3/rearranged_h_0126.sdf

> <i_m_source_file_index>
88

> <r_mmod_Potential_Energy-OPLS-2005>
19.1172046661377

> <r_mmod_Stretch_Energy-OPLS-2005>
50.8760223388672

> <r_mmod_Bend_Energy-OPLS-2005>
123.494293212891

> <r_mmod_Torsional_Energy-OPLS-2005>
233.389297485352

> <r_mmod_Improper_Torsional_Energy-OPLS-2005>
4.65242481231689

> <r_mmod_Van_der_Waal_Energy-OPLS-2005>
151.718475341797

> <r_mmod_Electrostatic_Energy-OPLS-2005>
-356.851318359375

> <r_mmod_Solvation_Energy-OPLS-2005>
-214.098281860352

> <b_mmod_Minimization_Converged-OPLS-2005>
0

> <r_mmod_RMS_Derivative-OPLS-2005>
3.24159288406372

$$$$
88
                    3D
 Structure written by MMmdl.
157165  0  0  1  0            999 V2000
  -30.5962  -14.6375   20.5030 C   0  0  0  0  0  0
  -30.4337  -12.3982   19.4384 C   0  0  0  0  0  0
  -29.5064  -12.5512   18.2120 C   0  0  0  0  0  0
  -28.0236  -12.3897   18.6100 C   0  0  0  0  0  0
  -27.6518  -13.2207   19.8687 C   0  0  2  0  0  0
  -28.6966  -13.0450   20.9932 C   0  0  0  0  0  0
  -25.2562  -13.8201   20.5695 C   0  0  0  0  0  0
  -24.1820  -13.0454   20.9180 C   0  0  0  0  0  0
  -24.6381  -11.6921   20.8718 C   0  0  0  0  0  0
  -23.9046  -10.4303   21.0390 C   0  0  0  0  0  0
  -24.3603   -9.4228   21.9174 C   0  0  0  0  0  0
  -23.6274   -8.2261   22.0748 C   0  0  0  0  0  0
  -22.4251   -8.0289   21.3556 C   0  0  0  0  0  0
  -21.9876   -9.0265   20.4662 C   0  0  0  0  0  0
  -22.7204  -10.2145   20.3063 C   0  0  0  0  0  0
  -21.6842   -6.0733   22.5282 C   0  0  0  0  0  0
  -21.4011   -6.5632   23.8223 C   0  0  0  0  0  0
  -21.3677   -5.6775   24.9180 C   0  0  0  0  0  0
  -21.6050   -4.3036   24.7224 C   0  0  0  0  0  0
  -21.8822   -3.8145   23.4333 C   0  0  0  0  0  0
  -21.9195   -4.6966   22.3397 C   0  0  0  0  0  0
  -22.7852  -13.5277   21.1834 C   0  0  0  0  0  0
  -22.1665   -4.2168   21.0964 F   0  0  0  0  0  0
  -21.5628   -3.4513   25.7733 F   0  0  0  0  0  0
  -30.0098  -13.4019   20.4336 N   0  0  0  0  0  0
  -26.2975  -12.9364   20.3325 N   0  0  0  0  0  0
  -25.9309  -11.6513   20.5719 N   0  0  0  0  0  0
  -22.0454  -12.8354   22.0415 N   0  0  0  0  0  0
  -25.4320  -15.1923   20.4211 N   0  0  0  0  0  0
  -31.7605  -14.8140   20.1225 O   0  0  0  0  0  0
  -21.6630   -6.8872   21.4243 O   0  0  0  0  0  0
  -22.3576  -14.5581   20.6635 O   0  0  0  0  0  0
  -24.6191  -31.8631   23.2044 C   0  0  0  0  0  0
  -25.9048  -32.4800   23.8372 C   0  0  1  0  0  0
  -27.2295  -27.3436   20.1188 C   0  0  0  0  0  0
  -25.5872  -33.8604   24.2285 N   0  0  0  0  0  0
  -23.4153  -30.4843   21.5451 C   0  0  2  0  0  0
  -24.8662  -28.9490   20.1061 C   0  0  0  0  0  0
  -22.7467  -29.4614   22.4931 C   0  0  0  0  0  0
  -18.0286  -28.1386   22.8477 C   0  0  0  0  0  0
  -24.1499  -36.7319   23.2653 C   0  0  0  0  0  0
  -25.9557  -30.7972   21.3820 C   0  0  0  0  0  0
  -26.0302  -29.4299   20.7181 C   0  0  0  0  0  0
  -27.2137  -28.6377   20.7199 C   0  0  0  0  0  0
  -26.0461  -26.9194   19.4690 C   0  0  0  0  0  0
  -24.8760  -27.6997   19.4688 C   0  0  0  0  0  0
  -23.6312  -29.8230   20.1584 C   0  0  0  0  0  0
  -25.4122  -36.3108   24.0339 C   0  0  1  0  0  0
  -20.5886  -28.3671   23.1296 C   0  0  2  0  0  0
  -20.6770  -26.9393   22.5422 C   0  0  0  0  0  0
  -19.5761  -26.6381   21.5205 C   0  0  0  0  0  0
  -18.1930  -26.7936   22.1600 C   0  0  0  0  0  0
  -19.1538  -28.8845   23.2883 C   0  0  0  0  0  0
  -18.9472  -30.1450   23.8900 C   0  0  0  0  0  0
  -17.6470  -30.6580   24.0570 C   0  0  0  0  0  0
  -25.9048  -34.9466   23.5118 C   0  0  0  0  0  0
  -16.5360  -29.9082   23.6329 C   0  0  0  0  0  0
  -16.7271  -28.6504   23.0336 C   0  0  0  0  0  0
  -26.4433  -31.6607   25.0738 C   0  0  0  0  0  0
  -25.3678  -31.3760   26.1482 C   0  0  0  0  0  0
  -27.0245  -30.3017   24.6204 C   0  0  0  0  0  0
  -27.6017  -32.4334   25.7468 C   0  0  0  0  0  0
  -27.5611  -37.1811   24.8438 C   0  0  0  0  0  0
  -21.4183  -29.3010   22.3682 N   0  0  0  0  0  0
  -26.4308  -37.3795   23.9403 N   0  0  0  0  0  0
  -24.6807  -31.0653   22.0995 N   0  0  0  0  0  0
  -23.4194  -28.8161   23.3013 O   0  0  0  0  0  0
  -28.3475  -26.5033   20.1856 O   0  0  0  0  0  0
  -26.5642  -34.8931   22.4703 O   0  0  0  0  0  0
  -23.5359  -32.1431   23.7371 O   0  0  0  0  0  0
  -28.7882  -19.3406   21.2002 C   0  0  0  0  0  0
  -28.7858  -17.9177   21.2738 C   0  0  0  0  0  0
  -30.8992  -17.8404   20.1371 C   0  0  0  0  0  0
  -29.8644  -20.0644   20.6257 C   0  0  0  0  0  0
  -30.9282  -19.2674   20.0878 C   0  0  0  0  0  0
  -29.8448  -17.1215   20.7547 C   0  0  0  0  0  0
  -29.8961  -21.5842   20.5732 C   0  0  0  0  0  0
  -28.9297  -22.5461   20.6530 C   0  0  0  0  0  0
  -33.4239  -19.6747   20.2925 C   0  0  0  0  0  0
  -32.1628  -19.9011   19.4480 C   0  0  0  0  0  0
  -29.2265  -24.0820   20.6218 C   0  0  0  0  0  0
  -28.1208  -25.0532   20.0516 C   0  0  0  0  0  0
  -29.7606  -15.6651   20.8546 N   0  0  0  0  0  0
  -31.4768  -12.5290   19.1421 H   0  0  0  0  0  0
  -30.3605  -11.3923   19.8510 H   0  0  0  0  0  0
  -29.7731  -11.8321   17.4359 H   0  0  0  0  0  0
  -29.6577  -13.5385   17.7699 H   0  0  0  0  0  0
  -27.8358  -11.3309   18.7829 H   0  0  0  0  0  0
  -27.3831  -12.6812   17.7755 H   0  0  0  0  0  0
  -27.6741  -14.2660   19.5601 H   0  0  0  0  0  0
  -28.7103  -12.0134   21.3461 H   0  0  0  0  0  0
  -28.4443  -13.6550   21.8627 H   0  0  0  0  0  0
  -25.2747   -9.5696   22.4748 H   0  0  0  0  0  0
  -23.9992   -7.4646   22.7441 H   0  0  0  0  0  0
  -21.0810   -8.8765   19.8982 H   0  0  0  0  0  0
  -22.3640  -10.9674   19.6173 H   0  0  0  0  0  0
  -21.1998   -7.6137   23.9746 H   0  0  0  0  0  0
  -21.1498   -6.0485   25.9086 H   0  0  0  0  0  0
  -22.0592   -2.7608   23.2810 H   0  0  0  0  0  0
  -22.3986  -12.0034   22.4896 H   0  0  0  0  0  0
  -21.1112  -13.1522   22.2611 H   0  0  0  0  0  0
  -24.6630  -15.8467   20.5153 H   0  0  0  0  0  0
  -26.3016  -15.6397   20.1606 H   0  0  0  0  0  0
  -26.7113  -32.5472   23.1120 H   0  0  0  0  0  0
  -24.9940  -33.9757   25.0375 H   0  0  0  0  0  0
  -22.7060  -31.3022   21.4026 H   0  0  0  0  0  0
  -23.3772  -35.9643   23.3293 H   0  0  0  0  0  0
  -24.3587  -36.8972   22.2072 H   0  0  0  0  0  0
  -23.7243  -37.6507   23.6701 H   0  0  0  0  0  0
  -26.1018  -31.5696   20.6255 H   0  0  0  0  0  0
  -26.8280  -30.8311   22.0226 H   0  0  0  0  0  0
  -28.1033  -28.9990   21.2174 H   0  0  0  0  0  0
  -26.0011  -25.9707   18.9573 H   0  0  0  0  0  0
  -23.9906  -27.3292   18.9701 H   0  0  0  0  0  0
  -23.7470  -30.6008   19.4033 H   0  0  0  0  0  0
  -22.7555  -29.2472   19.8538 H   0  0  0  0  0  0
  -25.1315  -36.1965   25.0838 H   0  0  0  0  0  0
  -20.9975  -28.3237   24.1424 H   0  0  0  0  0  0
  -20.5636  -26.2278   23.3616 H   0  0  0  0  0  0
  -21.6646  -26.7404   22.1243 H   0  0  0  0  0  0
  -19.6917  -25.6291   21.1230 H   0  0  0  0  0  0
  -19.6721  -27.3196   20.6745 H   0  0  0  0  0  0
  -17.4212  -26.6700   21.3982 H   0  0  0  0  0  0
  -18.0311  -26.0062   22.8980 H   0  0  0  0  0  0
  -19.7951  -30.7263   24.2262 H   0  0  0  0  0  0
  -17.5029  -31.6262   24.5174 H   0  0  0  0  0  0
  -15.5361  -30.2987   23.7660 H   0  0  0  0  0  0
  -15.8670  -28.0831   22.7038 H   0  0  0  0  0  0
  -24.5787  -30.7189   25.7804 H   0  0  0  0  0  0
  -24.8949  -32.2942   26.4980 H   0  0  0  0  0  0
  -25.7990  -30.8852   27.0216 H   0  0  0  0  0  0
  -26.2808  -29.6799   24.1205 H   0  0  0  0  0  0
  -27.3881  -29.7243   25.4712 H   0  0  0  0  0  0
  -27.8722  -30.4268   23.9466 H   0  0  0  0  0  0
  -27.2623  -33.3586   26.2134 H   0  0  0  0  0  0
  -28.3747  -32.6978   25.0242 H   0  0  0  0  0  0
  -28.0784  -31.8425   26.5294 H   0  0  0  0  0  0
  -28.2599  -38.0144   24.7531 H   0  0  0  0  0  0
  -28.1147  -36.2674   24.6189 H   0  0  0  0  0  0
  -27.2353  -37.1379   25.8850 H   0  0  0  0  0  0
  -20.9353  -29.8723   21.6896 H   0  0  0  0  0  0
  -26.0198  -38.2882   24.1399 H   0  0  0  0  0  0
  -27.9592  -19.8877   21.6289 H   0  0  0  0  0  0
  -27.9410  -17.4378   21.7493 H   0  0  0  0  0  0
  -31.7177  -17.3015   19.6837 H   0  0  0  0  0  0
  -30.8815  -22.0106   20.5100 H   0  0  0  0  0  0
  -27.8974  -22.2497   20.7738 H   0  0  0  0  0  0
  -34.2808  -20.2085   19.8764 H   0  0  0  0  0  0
  -33.6785  -18.6165   20.3311 H   0  0  0  0  0  0
  -33.2758  -20.0152   21.3181 H   0  0  0  0  0  0
  -32.0570  -20.9625   19.2448 H   0  0  0  0  0  0
  -32.2958  -19.4706   18.4569 H   0  0  0  0  0  0
  -30.1579  -24.2354   20.0720 H   0  0  0  0  0  0
  -29.4278  -24.3762   21.6529 H   0  0  0  0  0  0
  -27.1918  -24.7968   20.5613 H   0  0  0  0  0  0
  -27.9705  -24.8322   18.9940 H   0  0  0  0  0  0
  -28.8674  -15.3252   21.1748 H   0  0  0  0  0  0
  1 25  1  0  0  0
  1 30  2  0  0  0
  1 83  1  0  0  0
  2  3  1  0  0  0
  2 25  1  0  0  0
  2 84  1  0  0  0
  2 85  1  0  0  0
  3  4  1  0  0  0
  3 86  1  0  0  0
  3 87  1  0  0  0
  4  5  1  0  0  0
  4 88  1  0  0  0
  4 89  1  0  0  0
  5  6  1  0  0  0
  5 26  1  0  0  0
  5 90  1  0  0  0
  6 25  1  0  0  0
  6 91  1  0  0  0
  6 92  1  0  0  0
  7  8  2  0  0  0
  7 26  1  0  0  0
  7 29  1  0  0  0
  8  9  1  0  0  0
  8 22  1  0  0  0
  9 10  1  0  0  0
  9 27  2  0  0  0
 10 11  2  0  0  0
 10 15  1  0  0  0
 11 12  1  0  0  0
 11 93  1  0  0  0
 12 13  2  0  0  0
 12 94  1  0  0  0
 13 14  1  0  0  0
 13 31  1  0  0  0
 14 15  2  0  0  0
 14 95  1  0  0  0
 15 96  1  0  0  0
 16 17  2  0  0  0
 16 21  1  0  0  0
 16 31  1  0  0  0
 17 18  1  0  0  0
 17 97  1  0  0  0
 18 19  2  0  0  0
 18 98  1  0  0  0
 19 20  1  0  0  0
 19 24  1  0  0  0
 20 21  2  0  0  0
 20 99  1  0  0  0
 21 23  1  0  0  0
 22 28  1  0  0  0
 22 32  2  0  0  0
 26 27  1  0  0  0
 28100  1  0  0  0
 28101  1  0  0  0
 29102  1  0  0  0
 29103  1  0  0  0
 33 34  1  0  0  0
 33 66  1  0  0  0
 33 70  2  0  0  0
 34 36  1  0  0  0
 34 59  1  0  0  0
 34104  1  0  0  0
 35 44  2  0  0  0
 35 45  1  0  0  0
 35 68  1  0  0  0
 36 56  1  0  0  0
 36105  1  0  0  0
 37 39  1  0  0  0
 37 47  1  0  0  0
 37 66  1  0  0  0
 37106  1  0  0  0
 38 43  2  0  0  0
 38 46  1  0  0  0
 38 47  1  0  0  0
 39 64  1  0  0  0
 39 67  2  0  0  0
 40 52  1  0  0  0
 40 53  2  0  0  0
 40 58  1  0  0  0
 41107  1  0  0  0
 41108  1  0  0  0
 41109  1  0  0  0
 41 48  1  0  0  0
 42 43  1  0  0  0
 42 66  1  0  0  0
 42110  1  0  0  0
 42111  1  0  0  0
 43 44  1  0  0  0
 44112  1  0  0  0
 45 46  2  0  0  0
 45113  1  0  0  0
 46114  1  0  0  0
 47115  1  0  0  0
 47116  1  0  0  0
 48 56  1  0  0  0
 48 65  1  0  0  0
 48117  1  0  0  0
 49 50  1  0  0  0
 49 53  1  0  0  0
 49 64  1  0  0  0
 49118  1  0  0  0
 50 51  1  0  0  0
 50119  1  0  0  0
 50120  1  0  0  0
 51 52  1  0  0  0
 51121  1  0  0  0
 51122  1  0  0  0
 52123  1  0  0  0
 52124  1  0  0  0
 53 54  1  0  0  0
 54 55  2  0  0  0
 54125  1  0  0  0
 55 57  1  0  0  0
 55126  1  0  0  0
 56 69  2  0  0  0
 57 58  2  0  0  0
 57127  1  0  0  0
 58128  1  0  0  0
 59 60  1  0  0  0
 59 61  1  0  0  0
 59 62  1  0  0  0
 60129  1  0  0  0
 60130  1  0  0  0
 60131  1  0  0  0
 61132  1  0  0  0
 61133  1  0  0  0
 61134  1  0  0  0
 62135  1  0  0  0
 62136  1  0  0  0
 62137  1  0  0  0
 63 65  1  0  0  0
 63138  1  0  0  0
 63139  1  0  0  0
 63140  1  0  0  0
 64141  1  0  0  0
 65142  1  0  0  0
 68 82  1  0  0  0
 71 72  2  0  0  0
 71 74  1  0  0  0
 71143  1  0  0  0
 72 76  1  0  0  0
 72144  1  0  0  0
 73 75  1  0  0  0
 73 76  2  0  0  0
 73145  1  0  0  0
 74 75  2  0  0  0
 74 77  1  0  0  0
 75 80  1  0  0  0
 76 83  1  0  0  0
 77 78  2  0  0  0
 77146  1  0  0  0
 78 81  1  0  0  0
 78147  1  0  0  0
 79 80  1  0  0  0
 79148  1  0  0  0
 79149  1  0  0  0
 79150  1  0  0  0
 80151  1  0  0  0
 80152  1  0  0  0
 81 82  1  0  0  0
 81153  1  0  0  0
 81154  1  0  0  0
 82155  1  0  0  0
 82156  1  0  0  0
 83157  1  0  0  0
M  ISO  4   1 100  68 101  82 101  83 100
M  END
> <chiral flag>
0

> <version>
0

> <s_m_source_file>
/data/baiqing/PycharmProjects/Reinvent-master-3.2/result/LINK_invent/BTK/process_docking_weight1_custom_product_contain_oxygen_bond_distance_aromatic_linkinvent_7_9_3/rearranged_h_0126.sdf

> <i_m_source_file_index>
89

> <r_mmod_Potential_Energy-OPLS-2005>
46.9981079101562

> <r_mmod_Stretch_Energy-OPLS-2005>
70.158073425293

> <r_mmod_Bend_Energy-OPLS-2005>
133.273513793945

> <r_mmod_Torsional_Energy-OPLS-2005>
215.944213867188

> <r_mmod_Improper_Torsional_Energy-OPLS-2005>
4.37974262237549

> <r_mmod_Van_der_Waal_Energy-OPLS-2005>
152.351470947266

> <r_mmod_Electrostatic_Energy-OPLS-2005>
-372.639526367188

> <r_mmod_Solvation_Energy-OPLS-2005>
-201.619598388672

> <b_mmod_Minimization_Converged-OPLS-2005>
0

> <r_mmod_RMS_Derivative-OPLS-2005>
4.24891662597656

$$$$
89
                    3D
 Structure written by MMmdl.
158166  0  0  1  0            999 V2000
  -30.7205  -14.4615   20.5798 C   0  0  0  0  0  0
  -30.4157  -12.3032   19.4228 C   0  0  0  0  0  0
  -29.4913  -12.5051   18.2058 C   0  0  0  0  0  0
  -28.0133  -12.3661   18.6192 C   0  0  0  0  0  0
  -27.6601  -13.2093   19.8740 C   0  0  2  0  0  0
  -28.7018  -12.9989   20.9962 C   0  0  0  0  0  0
  -25.2581  -13.8168   20.5685 C   0  0  0  0  0  0
  -24.1836  -13.0441   20.9183 C   0  0  0  0  0  0
  -24.6390  -11.6908   20.8735 C   0  0  0  0  0  0
  -23.9058  -10.4293   21.0403 C   0  0  0  0  0  0
  -24.3611   -9.4207   21.9180 C   0  0  0  0  0  0
  -23.6289   -8.2242   22.0752 C   0  0  0  0  0  0
  -22.4272   -8.0279   21.3544 C   0  0  0  0  0  0
  -21.9905   -9.0252   20.4646 C   0  0  0  0  0  0
  -22.7231  -10.2132   20.3052 C   0  0  0  0  0  0
  -21.6852   -6.0733   22.5280 C   0  0  0  0  0  0
  -21.4012   -6.5638   23.8213 C   0  0  0  0  0  0
  -21.3658   -5.6791   24.9175 C   0  0  0  0  0  0
  -21.6045   -4.3053   24.7226 C   0  0  0  0  0  0
  -21.8820   -3.8146   23.4346 C   0  0  0  0  0  0
  -21.9193   -4.6963   22.3402 C   0  0  0  0  0  0
  -22.7858  -13.5237   21.1847 C   0  0  0  0  0  0
  -22.1663   -4.2149   21.0981 F   0  0  0  0  0  0
  -21.5628   -3.4537   25.7736 F   0  0  0  0  0  0
  -30.0326  -13.2953   20.4403 N   0  0  0  0  0  0
  -26.3016  -12.9342   20.3366 N   0  0  0  0  0  0
  -25.9317  -11.6498   20.5765 N   0  0  0  0  0  0
  -22.0498  -12.8227   22.0401 N   0  0  0  0  0  0
  -25.4307  -15.1884   20.4087 N   0  0  0  0  0  0
  -31.8418  -14.6226   20.0895 O   0  0  0  0  0  0
  -21.6639   -6.8874   21.4240 O   0  0  0  0  0  0
  -22.3545  -14.5546   20.6699 O   0  0  0  0  0  0
  -24.6149  -31.8680   23.2100 C   0  0  0  0  0  0
  -25.9043  -32.4822   23.8397 C   0  0  1  0  0  0
  -27.2306  -27.4382   20.0993 C   0  0  0  0  0  0
  -25.5903  -33.8619   24.2336 N   0  0  0  0  0  0
  -23.4029  -30.4918   21.5503 C   0  0  2  0  0  0
  -24.8501  -28.9584   20.1129 C   0  0  0  0  0  0
  -22.7415  -29.4661   22.4988 C   0  0  0  0  0  0
  -18.0274  -28.1377   22.8492 C   0  0  0  0  0  0
  -24.1487  -36.7311   23.2639 C   0  0  0  0  0  0
  -25.9314  -30.8362   21.3614 C   0  0  0  0  0  0
  -26.0106  -29.4714   20.7075 C   0  0  0  0  0  0
  -27.2083  -28.7197   20.6946 C   0  0  0  0  0  0
  -26.0580  -26.9401   19.4940 C   0  0  0  0  0  0
  -24.8686  -27.6925   19.5010 C   0  0  0  0  0  0
  -23.6113  -29.8242   20.1643 C   0  0  0  0  0  0
  -25.4105  -36.3111   24.0344 C   0  0  1  0  0  0
  -20.5866  -28.3663   23.1318 C   0  0  2  0  0  0
  -20.6761  -26.9400   22.5417 C   0  0  0  0  0  0
  -19.5743  -26.6386   21.5209 C   0  0  0  0  0  0
  -18.1920  -26.7923   22.1622 C   0  0  0  0  0  0
  -19.1523  -28.8835   23.2901 C   0  0  0  0  0  0
  -18.9451  -30.1443   23.8910 C   0  0  0  0  0  0
  -17.6453  -30.6582   24.0564 C   0  0  0  0  0  0
  -25.9033  -34.9476   23.5136 C   0  0  0  0  0  0
  -16.5343  -29.9084   23.6327 C   0  0  0  0  0  0
  -16.7263  -28.6502   23.0345 C   0  0  0  0  0  0
  -26.4472  -31.6590   25.0719 C   0  0  0  0  0  0
  -25.3746  -31.3682   26.1473 C   0  0  0  0  0  0
  -27.0298  -30.3037   24.6072 C   0  0  0  0  0  0
  -27.6057  -32.4299   25.7477 C   0  0  0  0  0  0
  -27.5583  -37.1807   24.8467 C   0  0  0  0  0  0
  -21.4143  -29.3031   22.3725 N   0  0  0  0  0  0
  -26.4291  -37.3796   23.9416 N   0  0  0  0  0  0
  -24.6680  -31.0792   22.0993 N   0  0  0  0  0  0
  -23.4187  -28.8204   23.3030 O   0  0  0  0  0  0
  -28.3679  -26.6646   20.1175 O   0  0  0  0  0  0
  -26.5588  -34.8928   22.4694 O   0  0  0  0  0  0
  -23.5344  -32.1424   23.7501 O   0  0  0  0  0  0
  -31.3005  -19.5180   21.7381 C   0  0  0  0  0  0
  -31.8264  -17.1373   21.6607 C   0  0  0  0  0  0
  -29.5523  -17.8971   21.2273 C   0  0  0  0  0  0
  -32.2339  -18.4705   21.8576 C   0  0  0  0  0  0
  -29.9529  -19.2466   21.4178 C   0  0  0  0  0  0
  -30.4842  -16.8317   21.3323 C   0  0  0  0  0  0
  -28.8095  -24.2186   20.2405 C   0  0  0  0  0  0
  -33.6784  -18.7737   22.2031 C   0  0  0  0  0  0
  -28.9281  -20.3878   21.3574 C   0  0  0  0  0  0
  -28.3682  -22.8551   20.8107 C   0  0  0  0  0  0
  -28.2157  -25.4722   20.9126 C   0  0  0  0  0  0
  -29.3824  -21.6921   20.6417 C   0  0  0  0  0  0
  -30.0447  -15.4793   21.1558 N   0  0  0  0  0  0
  -29.5971  -24.2969   19.2919 O   0  0  0  0  0  0
  -31.4615  -12.3886   19.1213 H   0  0  0  0  0  0
  -30.3061  -11.2946   19.8238 H   0  0  0  0  0  0
  -29.7305  -11.7808   17.4258 H   0  0  0  0  0  0
  -29.6622  -13.4912   17.7706 H   0  0  0  0  0  0
  -27.8241  -11.3106   18.8180 H   0  0  0  0  0  0
  -27.3619  -12.6382   17.7882 H   0  0  0  0  0  0
  -27.7024  -14.2561   19.5723 H   0  0  0  0  0  0
  -28.6757  -11.9669   21.3491 H   0  0  0  0  0  0
  -28.4649  -13.6101   21.8681 H   0  0  0  0  0  0
  -25.2756   -9.5687   22.4752 H   0  0  0  0  0  0
  -24.0003   -7.4633   22.7469 H   0  0  0  0  0  0
  -21.0836   -8.8767   19.8951 H   0  0  0  0  0  0
  -22.3689  -10.9667   19.6159 H   0  0  0  0  0  0
  -21.2002   -7.6146   23.9715 H   0  0  0  0  0  0
  -21.1479   -6.0521   25.9079 H   0  0  0  0  0  0
  -22.0600   -2.7608   23.2845 H   0  0  0  0  0  0
  -22.4110  -11.9884   22.4783 H   0  0  0  0  0  0
  -21.1118  -13.1259   22.2611 H   0  0  0  0  0  0
  -24.6641  -15.8445   20.5121 H   0  0  0  0  0  0
  -26.2820  -15.6243   20.0766 H   0  0  0  0  0  0
  -26.7117  -32.5541   23.1166 H   0  0  0  0  0  0
  -25.0082  -33.9779   25.0500 H   0  0  0  0  0  0
  -22.6917  -31.3086   21.4119 H   0  0  0  0  0  0
  -23.3749  -35.9646   23.3308 H   0  0  0  0  0  0
  -24.3585  -36.8912   22.2053 H   0  0  0  0  0  0
  -23.7238  -37.6520   23.6641 H   0  0  0  0  0  0
  -26.0420  -31.6029   20.5933 H   0  0  0  0  0  0
  -26.8201  -30.8903   21.9785 H   0  0  0  0  0  0
  -28.1043  -29.1086   21.1583 H   0  0  0  0  0  0
  -26.0626  -25.9668   19.0235 H   0  0  0  0  0  0
  -23.9773  -27.2931   19.0367 H   0  0  0  0  0  0
  -23.7191  -30.5994   19.4047 H   0  0  0  0  0  0
  -22.7355  -29.2436   19.8692 H   0  0  0  0  0  0
  -25.1276  -36.1979   25.0836 H   0  0  0  0  0  0
  -20.9958  -28.3226   24.1438 H   0  0  0  0  0  0
  -20.5665  -26.2269   23.3601 H   0  0  0  0  0  0
  -21.6633  -26.7444   22.1212 H   0  0  0  0  0  0
  -19.6904  -25.6302   21.1229 H   0  0  0  0  0  0
  -19.6685  -27.3204   20.6745 H   0  0  0  0  0  0
  -17.4194  -26.6679   21.4018 H   0  0  0  0  0  0
  -18.0319  -26.0060   22.9013 H   0  0  0  0  0  0
  -19.7927  -30.7253   24.2285 H   0  0  0  0  0  0
  -17.5011  -31.6264   24.5161 H   0  0  0  0  0  0
  -15.5344  -30.2987   23.7647 H   0  0  0  0  0  0
  -15.8665  -28.0828   22.7045 H   0  0  0  0  0  0
  -24.5928  -30.7016   25.7813 H   0  0  0  0  0  0
  -24.8925  -32.2830   26.4932 H   0  0  0  0  0  0
  -25.8116  -30.8853   27.0223 H   0  0  0  0  0  0
  -26.2830  -29.6802   24.1142 H   0  0  0  0  0  0
  -27.4097  -29.7266   25.4513 H   0  0  0  0  0  0
  -27.8654  -30.4365   23.9195 H   0  0  0  0  0  0
  -27.2686  -33.3591   26.2083 H   0  0  0  0  0  0
  -28.3850  -32.6865   25.0288 H   0  0  0  0  0  0
  -28.0741  -31.8400   26.5366 H   0  0  0  0  0  0
  -28.2600  -38.0105   24.7520 H   0  0  0  0  0  0
  -28.1076  -36.2638   24.6277 H   0  0  0  0  0  0
  -27.2308  -37.1444   25.8872 H   0  0  0  0  0  0
  -20.9301  -29.8752   21.6948 H   0  0  0  0  0  0
  -26.0183  -38.2876   24.1411 H   0  0  0  0  0  0
  -31.6282  -20.5320   21.9156 H   0  0  0  0  0  0
  -32.5582  -16.3499   21.7749 H   0  0  0  0  0  0
  -28.5174  -17.6793   21.0014 H   0  0  0  0  0  0
  -33.7821  -19.7634   22.6496 H   0  0  0  0  0  0
  -34.2961  -18.7400   21.3052 H   0  0  0  0  0  0
  -34.0688  -18.0443   22.9136 H   0  0  0  0  0  0
  -28.6559  -20.6222   22.3876 H   0  0  0  0  0  0
  -28.0148  -20.0230   20.8850 H   0  0  0  0  0  0
  -27.4198  -22.5875   20.3445 H   0  0  0  0  0  0
  -28.1587  -22.9965   21.8711 H   0  0  0  0  0  0
  -28.7229  -25.6250   21.8650 H   0  0  0  0  0  0
  -27.1702  -25.2700   21.1496 H   0  0  0  0  0  0
  -29.5502  -21.4890   19.5832 H   0  0  0  0  0  0
  -30.3363  -22.0309   21.0429 H   0  0  0  0  0  0
  -29.0846  -15.2789   21.3913 H   0  0  0  0  0  0
  1 25  1  0  0  0
  1 30  2  0  0  0
  1 83  1  0  0  0
  2  3  1  0  0  0
  2 25  1  0  0  0
  2 85  1  0  0  0
  2 86  1  0  0  0
  3  4  1  0  0  0
  3 87  1  0  0  0
  3 88  1  0  0  0
  4  5  1  0  0  0
  4 89  1  0  0  0
  4 90  1  0  0  0
  5  6  1  0  0  0
  5 26  1  0  0  0
  5 91  1  0  0  0
  6 25  1  0  0  0
  6 92  1  0  0  0
  6 93  1  0  0  0
  7  8  2  0  0  0
  7 26  1  0  0  0
  7 29  1  0  0  0
  8  9  1  0  0  0
  8 22  1  0  0  0
  9 10  1  0  0  0
  9 27  2  0  0  0
 10 11  2  0  0  0
 10 15  1  0  0  0
 11 12  1  0  0  0
 11 94  1  0  0  0
 12 13  2  0  0  0
 12 95  1  0  0  0
 13 14  1  0  0  0
 13 31  1  0  0  0
 14 15  2  0  0  0
 14 96  1  0  0  0
 15 97  1  0  0  0
 16 17  2  0  0  0
 16 21  1  0  0  0
 16 31  1  0  0  0
 17 18  1  0  0  0
 17 98  1  0  0  0
 18 19  2  0  0  0
 18 99  1  0  0  0
 19 20  1  0  0  0
 19 24  1  0  0  0
 20 21  2  0  0  0
 20100  1  0  0  0
 21 23  1  0  0  0
 22 28  1  0  0  0
 22 32  2  0  0  0
 26 27  1  0  0  0
 28101  1  0  0  0
 28102  1  0  0  0
 29103  1  0  0  0
 29104  1  0  0  0
 33 34  1  0  0  0
 33 66  1  0  0  0
 33 70  2  0  0  0
 34 36  1  0  0  0
 34 59  1  0  0  0
 34105  1  0  0  0
 35 44  2  0  0  0
 35 45  1  0  0  0
 35 68  1  0  0  0
 36 56  1  0  0  0
 36106  1  0  0  0
 37 39  1  0  0  0
 37 47  1  0  0  0
 37 66  1  0  0  0
 37107  1  0  0  0
 38 43  2  0  0  0
 38 46  1  0  0  0
 38 47  1  0  0  0
 39 64  1  0  0  0
 39 67  2  0  0  0
 40 52  1  0  0  0
 40 53  2  0  0  0
 40 58  1  0  0  0
 41108  1  0  0  0
 41109  1  0  0  0
 41110  1  0  0  0
 41 48  1  0  0  0
 42 43  1  0  0  0
 42 66  1  0  0  0
 42111  1  0  0  0
 42112  1  0  0  0
 43 44  1  0  0  0
 44113  1  0  0  0
 45 46  2  0  0  0
 45114  1  0  0  0
 46115  1  0  0  0
 47116  1  0  0  0
 47117  1  0  0  0
 48 56  1  0  0  0
 48 65  1  0  0  0
 48118  1  0  0  0
 49 50  1  0  0  0
 49 53  1  0  0  0
 49 64  1  0  0  0
 49119  1  0  0  0
 50 51  1  0  0  0
 50120  1  0  0  0
 50121  1  0  0  0
 51 52  1  0  0  0
 51122  1  0  0  0
 51123  1  0  0  0
 52124  1  0  0  0
 52125  1  0  0  0
 53 54  1  0  0  0
 54 55  2  0  0  0
 54126  1  0  0  0
 55 57  1  0  0  0
 55127  1  0  0  0
 56 69  2  0  0  0
 57 58  2  0  0  0
 57128  1  0  0  0
 58129  1  0  0  0
 59 60  1  0  0  0
 59 61  1  0  0  0
 59 62  1  0  0  0
 60130  1  0  0  0
 60131  1  0  0  0
 60132  1  0  0  0
 61133  1  0  0  0
 61134  1  0  0  0
 61135  1  0  0  0
 62136  1  0  0  0
 62137  1  0  0  0
 62138  1  0  0  0
 63 65  1  0  0  0
 63139  1  0  0  0
 63140  1  0  0  0
 63141  1  0  0  0
 64142  1  0  0  0
 65143  1  0  0  0
 68 81  1  0  0  0
 71 74  2  0  0  0
 71 75  1  0  0  0
 71144  1  0  0  0
 72 74  1  0  0  0
 72 76  2  0  0  0
 72145  1  0  0  0
 73 75  2  0  0  0
 73 76  1  0  0  0
 73146  1  0  0  0
 74 78  1  0  0  0
 75 79  1  0  0  0
 76 83  1  0  0  0
 77 80  1  0  0  0
 77 81  1  0  0  0
 77 84  2  0  0  0
 78147  1  0  0  0
 78148  1  0  0  0
 78149  1  0  0  0
 79 82  1  0  0  0
 79150  1  0  0  0
 79151  1  0  0  0
 80 82  1  0  0  0
 80152  1  0  0  0
 80153  1  0  0  0
 81154  1  0  0  0
 81155  1  0  0  0
 82156  1  0  0  0
 82157  1  0  0  0
 83158  1  0  0  0
M  ISO  4   1 100  68 101  81 101  83 100
M  END
> <chiral flag>
0

> <version>
0

> <s_m_source_file>
/data/baiqing/PycharmProjects/Reinvent-master-3.2/result/LINK_invent/BTK/process_docking_weight1_custom_product_contain_oxygen_bond_distance_aromatic_linkinvent_7_9_3/rearranged_h_0126.sdf

> <i_m_source_file_index>
90

> <r_mmod_Potential_Energy-OPLS-2005>
-34.7729339599609

> <r_mmod_Stretch_Energy-OPLS-2005>
38.3774299621582

> <r_mmod_Bend_Energy-OPLS-2005>
90.6291656494141

> <r_mmod_Torsional_Energy-OPLS-2005>
234.396621704102

> <r_mmod_Improper_Torsional_Energy-OPLS-2005>
3.49843382835388

> <r_mmod_Van_der_Waal_Energy-OPLS-2005>
152.663070678711

> <r_mmod_Electrostatic_Energy-OPLS-2005>
-341.959808349609

> <r_mmod_Solvation_Energy-OPLS-2005>
-225.209579467773

> <b_mmod_Minimization_Converged-OPLS-2005>
0

> <r_mmod_RMS_Derivative-OPLS-2005>
0.530790567398071

$$$$
90
                    3D
 Structure written by MMmdl.
157165  0  0  1  0            999 V2000
  -30.5994  -14.6321   20.4907 C   0  0  0  0  0  0
  -30.4415  -12.3883   19.4411 C   0  0  0  0  0  0
  -29.5086  -12.5064   18.2147 C   0  0  0  0  0  0
  -28.0305  -12.3439   18.6222 C   0  0  0  0  0  0
  -27.6507  -13.2085   19.8544 C   0  0  2  0  0  0
  -28.6942  -13.0503   20.9835 C   0  0  0  0  0  0
  -25.2552  -13.8145   20.5644 C   0  0  0  0  0  0
  -24.1825  -13.0426   20.9197 C   0  0  0  0  0  0
  -24.6366  -11.6888   20.8717 C   0  0  0  0  0  0
  -23.9025  -10.4286   21.0385 C   0  0  0  0  0  0
  -24.3588   -9.4216   21.9175 C   0  0  0  0  0  0
  -23.6269   -8.2253   22.0745 C   0  0  0  0  0  0
  -22.4256   -8.0290   21.3537 C   0  0  0  0  0  0
  -21.9869   -9.0255   20.4630 C   0  0  0  0  0  0
  -22.7187  -10.2133   20.3038 C   0  0  0  0  0  0
  -21.6859   -6.0722   22.5260 C   0  0  0  0  0  0
  -21.4026   -6.5619   23.8200 C   0  0  0  0  0  0
  -21.3653   -5.6769   24.9159 C   0  0  0  0  0  0
  -21.6042   -4.3038   24.7210 C   0  0  0  0  0  0
  -21.8821   -3.8131   23.4328 C   0  0  0  0  0  0
  -21.9196   -4.6948   22.3378 C   0  0  0  0  0  0
  -22.7846  -13.5253   21.1852 C   0  0  0  0  0  0
  -22.1665   -4.2127   21.0952 F   0  0  0  0  0  0
  -21.5613   -3.4525   25.7731 F   0  0  0  0  0  0
  -30.0105  -13.3993   20.4240 N   0  0  0  0  0  0
  -26.2959  -12.9301   20.3225 N   0  0  0  0  0  0
  -25.9299  -11.6464   20.5693 N   0  0  0  0  0  0
  -22.0441  -12.8298   22.0402 N   0  0  0  0  0  0
  -25.4252  -15.1862   20.4020 N   0  0  0  0  0  0
  -31.7718  -14.8101   20.1431 O   0  0  0  0  0  0
  -21.6631   -6.8883   21.4230 O   0  0  0  0  0  0
  -22.3553  -14.5551   20.6677 O   0  0  0  0  0  0
  -24.6265  -31.8605   23.2059 C   0  0  0  0  0  0
  -25.9120  -32.4773   23.8380 C   0  0  1  0  0  0
  -27.2154  -27.3291   20.1057 C   0  0  0  0  0  0
  -25.5946  -33.8577   24.2296 N   0  0  0  0  0  0
  -23.4180  -30.4860   21.5502 C   0  0  2  0  0  0
  -24.8594  -28.9467   20.1120 C   0  0  0  0  0  0
  -22.7473  -29.4626   22.4966 C   0  0  0  0  0  0
  -18.0294  -28.1367   22.8484 C   0  0  0  0  0  0
  -24.1491  -36.7287   23.2629 C   0  0  0  0  0  0
  -25.9600  -30.7933   21.3768 C   0  0  0  0  0  0
  -26.0313  -29.4245   20.7132 C   0  0  0  0  0  0
  -27.2124  -28.6272   20.7015 C   0  0  0  0  0  0
  -26.0171  -26.9040   19.4814 C   0  0  0  0  0  0
  -24.8531  -27.6907   19.4908 C   0  0  0  0  0  0
  -23.6283  -29.8248   20.1641 C   0  0  0  0  0  0
  -25.4107  -36.3071   24.0326 C   0  0  1  0  0  0
  -20.5883  -28.3670   23.1284 C   0  0  2  0  0  0
  -20.6774  -26.9401   22.5400 C   0  0  0  0  0  0
  -19.5753  -26.6372   21.5203 C   0  0  0  0  0  0
  -18.1934  -26.7919   22.1612 C   0  0  0  0  0  0
  -19.1534  -28.8841   23.2875 C   0  0  0  0  0  0
  -18.9459  -30.1433   23.8901 C   0  0  0  0  0  0
  -17.6458  -30.6567   24.0550 C   0  0  0  0  0  0
  -25.9055  -34.9443   23.5107 C   0  0  0  0  0  0
  -16.5356  -29.9064   23.6320 C   0  0  0  0  0  0
  -16.7277  -28.6476   23.0370 C   0  0  0  0  0  0
  -26.4498  -31.6589   25.0753 C   0  0  0  0  0  0
  -25.3723  -31.3758   26.1480 C   0  0  0  0  0  0
  -27.0323  -30.3004   24.6224 C   0  0  0  0  0  0
  -27.6084  -32.4309   25.7497 C   0  0  0  0  0  0
  -27.5590  -37.1769   24.8439 C   0  0  0  0  0  0
  -21.4192  -29.3026   22.3693 N   0  0  0  0  0  0
  -26.4275  -37.3776   23.9425 N   0  0  0  0  0  0
  -24.6872  -31.0629   22.1008 N   0  0  0  0  0  0
  -23.4201  -28.8163   23.3042 O   0  0  0  0  0  0
  -28.3308  -26.4813   20.1551 O   0  0  0  0  0  0
  -26.5619  -34.8907   22.4669 O   0  0  0  0  0  0
  -23.5432  -32.1419   23.7393 O   0  0  0  0  0  0
  -31.0120  -17.8670   20.7118 C   0  0  0  0  0  0
  -28.6190  -17.8622   20.5008 C   0  0  0  0  0  0
  -29.7867  -20.0514   20.6195 C   0  0  0  0  0  0
  -30.9985  -19.2954   20.7012 C   0  0  0  0  0  0
  -29.8184  -17.1122   20.6428 C   0  0  0  0  0  0
  -28.5934  -19.2938   20.4525 C   0  0  0  0  0  0
  -29.8237  -21.5773   20.6973 C   0  0  0  0  0  0
  -28.9993  -22.5441   20.1820 C   0  0  0  0  0  0
  -29.1865  -24.0364   20.4008 C   0  0  0  0  0  0
  -32.3349  -20.0134   20.7831 C   0  0  0  0  0  0
  -26.4928  -19.4436   19.3468 C   0  0  0  0  0  0
  -28.0809  -25.0428   19.9173 C   0  0  0  0  0  0
  -29.7348  -15.6590   20.7655 N   0  0  0  0  0  0
  -30.1891  -24.4907   20.9622 O   0  0  0  0  0  0
  -27.4090  -19.9791   20.2971 O   0  0  0  0  0  0
  -31.4799  -12.5276   19.1350 H   0  0  0  0  0  0
  -30.3863  -11.3917   19.8772 H   0  0  0  0  0  0
  -29.7717  -11.7570   17.4671 H   0  0  0  0  0  0
  -29.6534  -13.4773   17.7365 H   0  0  0  0  0  0
  -27.8641  -11.2898   18.8446 H   0  0  0  0  0  0
  -27.3807  -12.5814   17.7781 H   0  0  0  0  0  0
  -27.6687  -14.2429   19.5149 H   0  0  0  0  0  0
  -28.7059  -12.0245   21.3498 H   0  0  0  0  0  0
  -28.4378  -13.6716   21.8442 H   0  0  0  0  0  0
  -25.2731   -9.5696   22.4765 H   0  0  0  0  0  0
  -23.9964   -7.4645   22.7478 H   0  0  0  0  0  0
  -21.0782   -8.8767   19.8957 H   0  0  0  0  0  0
  -22.3626  -10.9681   19.6158 H   0  0  0  0  0  0
  -21.2038   -7.6129   23.9702 H   0  0  0  0  0  0
  -21.1461   -6.0498   25.9064 H   0  0  0  0  0  0
  -22.0607   -2.7590   23.2838 H   0  0  0  0  0  0
  -22.4022  -11.9972   22.4842 H   0  0  0  0  0  0
  -21.1056  -13.1368   22.2543 H   0  0  0  0  0  0
  -24.6459  -15.8296   20.5019 H   0  0  0  0  0  0
  -26.2364  -15.6083   19.9725 H   0  0  0  0  0  0
  -26.7198  -32.5442   23.1137 H   0  0  0  0  0  0
  -25.0086  -33.9714   25.0440 H   0  0  0  0  0  0
  -22.7113  -31.3066   21.4117 H   0  0  0  0  0  0
  -23.3757  -35.9610   23.3240 H   0  0  0  0  0  0
  -24.3612  -36.8961   22.2059 H   0  0  0  0  0  0
  -23.7234  -37.6467   23.6690 H   0  0  0  0  0  0
  -26.0983  -31.5639   20.6164 H   0  0  0  0  0  0
  -26.8375  -30.8326   22.0109 H   0  0  0  0  0  0
  -28.1114  -28.9861   21.1827 H   0  0  0  0  0  0
  -25.9435  -25.9475   18.9849 H   0  0  0  0  0  0
  -23.9516  -27.3214   19.0200 H   0  0  0  0  0  0
  -23.7432  -30.6026   19.4088 H   0  0  0  0  0  0
  -22.7476  -29.2540   19.8649 H   0  0  0  0  0  0
  -25.1270  -36.1911   25.0814 H   0  0  0  0  0  0
  -20.9959  -28.3234   24.1410 H   0  0  0  0  0  0
  -20.5661  -26.2280   23.3587 H   0  0  0  0  0  0
  -21.6649  -26.7429   22.1200 H   0  0  0  0  0  0
  -19.6912  -25.6282   21.1238 H   0  0  0  0  0  0
  -19.6681  -27.3162   20.6722 H   0  0  0  0  0  0
  -17.4197  -26.6657   21.4024 H   0  0  0  0  0  0
  -18.0341  -26.0051   22.8994 H   0  0  0  0  0  0
  -19.7925  -30.7251   24.2280 H   0  0  0  0  0  0
  -17.5009  -31.6254   24.5133 H   0  0  0  0  0  0
  -15.5354  -30.2972   23.7632 H   0  0  0  0  0  0
  -15.8678  -28.0779   22.7126 H   0  0  0  0  0  0
  -24.5856  -30.7158   25.7803 H   0  0  0  0  0  0
  -24.8968  -32.2947   26.4927 H   0  0  0  0  0  0
  -25.8021  -30.8897   27.0247 H   0  0  0  0  0  0
  -26.2898  -29.6766   24.1236 H   0  0  0  0  0  0
  -27.3990  -29.7258   25.4742 H   0  0  0  0  0  0
  -27.8789  -30.4278   23.9470 H   0  0  0  0  0  0
  -27.2732  -33.3620   26.2076 H   0  0  0  0  0  0
  -28.3879  -32.6845   25.0299 H   0  0  0  0  0  0
  -28.0764  -31.8430   26.5404 H   0  0  0  0  0  0
  -28.2531  -38.0140   24.7590 H   0  0  0  0  0  0
  -28.1163  -36.2682   24.6116 H   0  0  0  0  0  0
  -27.2334  -37.1232   25.8841 H   0  0  0  0  0  0
  -20.9378  -29.8765   21.6908 H   0  0  0  0  0  0
  -26.0146  -38.2829   24.1487 H   0  0  0  0  0  0
  -31.9565  -17.3498   20.8023 H   0  0  0  0  0  0
  -27.6864  -17.3226   20.4510 H   0  0  0  0  0  0
  -30.6326  -21.9533   21.3092 H   0  0  0  0  0  0
  -28.1574  -22.2547   19.5718 H   0  0  0  0  0  0
  -33.1727  -19.3258   20.6710 H   0  0  0  0  0  0
  -32.4407  -20.5156   21.7448 H   0  0  0  0  0  0
  -32.4159  -20.7561   19.9884 H   0  0  0  0  0  0
  -25.7407  -20.1980   19.1187 H   0  0  0  0  0  0
  -25.9694  -18.5642   19.7226 H   0  0  0  0  0  0
  -26.9934  -19.1880   18.4108 H   0  0  0  0  0  0
  -27.1671  -24.7476   20.4355 H   0  0  0  0  0  0
  -27.9106  -24.8815   18.8527 H   0  0  0  0  0  0
  -28.8103  -15.3184   20.9755 H   0  0  0  0  0  0
  1 25  1  0  0  0
  1 30  2  0  0  0
  1 83  1  0  0  0
  2  3  1  0  0  0
  2 25  1  0  0  0
  2 86  1  0  0  0
  2 87  1  0  0  0
  3  4  1  0  0  0
  3 88  1  0  0  0
  3 89  1  0  0  0
  4  5  1  0  0  0
  4 90  1  0  0  0
  4 91  1  0  0  0
  5  6  1  0  0  0
  5 26  1  0  0  0
  5 92  1  0  0  0
  6 25  1  0  0  0
  6 93  1  0  0  0
  6 94  1  0  0  0
  7  8  2  0  0  0
  7 26  1  0  0  0
  7 29  1  0  0  0
  8  9  1  0  0  0
  8 22  1  0  0  0
  9 10  1  0  0  0
  9 27  2  0  0  0
 10 11  2  0  0  0
 10 15  1  0  0  0
 11 12  1  0  0  0
 11 95  1  0  0  0
 12 13  2  0  0  0
 12 96  1  0  0  0
 13 14  1  0  0  0
 13 31  1  0  0  0
 14 15  2  0  0  0
 14 97  1  0  0  0
 15 98  1  0  0  0
 16 17  2  0  0  0
 16 21  1  0  0  0
 16 31  1  0  0  0
 17 18  1  0  0  0
 17 99  1  0  0  0
 18 19  2  0  0  0
 18100  1  0  0  0
 19 20  1  0  0  0
 19 24  1  0  0  0
 20 21  2  0  0  0
 20101  1  0  0  0
 21 23  1  0  0  0
 22 28  1  0  0  0
 22 32  2  0  0  0
 26 27  1  0  0  0
 28102  1  0  0  0
 28103  1  0  0  0
 29104  1  0  0  0
 29105  1  0  0  0
 33 34  1  0  0  0
 33 66  1  0  0  0
 33 70  2  0  0  0
 34 36  1  0  0  0
 34 59  1  0  0  0
 34106  1  0  0  0
 35 44  2  0  0  0
 35 45  1  0  0  0
 35 68  1  0  0  0
 36 56  1  0  0  0
 36107  1  0  0  0
 37 39  1  0  0  0
 37 47  1  0  0  0
 37 66  1  0  0  0
 37108  1  0  0  0
 38 43  2  0  0  0
 38 46  1  0  0  0
 38 47  1  0  0  0
 39 64  1  0  0  0
 39 67  2  0  0  0
 40 52  1  0  0  0
 40 53  2  0  0  0
 40 58  1  0  0  0
 41109  1  0  0  0
 41110  1  0  0  0
 41111  1  0  0  0
 41 48  1  0  0  0
 42 43  1  0  0  0
 42 66  1  0  0  0
 42112  1  0  0  0
 42113  1  0  0  0
 43 44  1  0  0  0
 44114  1  0  0  0
 45 46  2  0  0  0
 45115  1  0  0  0
 46116  1  0  0  0
 47117  1  0  0  0
 47118  1  0  0  0
 48 56  1  0  0  0
 48 65  1  0  0  0
 48119  1  0  0  0
 49 50  1  0  0  0
 49 53  1  0  0  0
 49 64  1  0  0  0
 49120  1  0  0  0
 50 51  1  0  0  0
 50121  1  0  0  0
 50122  1  0  0  0
 51 52  1  0  0  0
 51123  1  0  0  0
 51124  1  0  0  0
 52125  1  0  0  0
 52126  1  0  0  0
 53 54  1  0  0  0
 54 55  2  0  0  0
 54127  1  0  0  0
 55 57  1  0  0  0
 55128  1  0  0  0
 56 69  2  0  0  0
 57 58  2  0  0  0
 57129  1  0  0  0
 58130  1  0  0  0
 59 60  1  0  0  0
 59 61  1  0  0  0
 59 62  1  0  0  0
 60131  1  0  0  0
 60132  1  0  0  0
 60133  1  0  0  0
 61134  1  0  0  0
 61135  1  0  0  0
 61136  1  0  0  0
 62137  1  0  0  0
 62138  1  0  0  0
 62139  1  0  0  0
 63 65  1  0  0  0
 63140  1  0  0  0
 63141  1  0  0  0
 63142  1  0  0  0
 64143  1  0  0  0
 65144  1  0  0  0
 68 82  1  0  0  0
 71 74  2  0  0  0
 71 75  1  0  0  0
 71145  1  0  0  0
 72 75  2  0  0  0
 72 76  1  0  0  0
 72146  1  0  0  0
 73 74  1  0  0  0
 73 76  2  0  0  0
 73 77  1  0  0  0
 74 80  1  0  0  0
 75 83  1  0  0  0
 76 85  1  0  0  0
 77 78  2  0  0  0
 77147  1  0  0  0
 78 79  1  0  0  0
 78148  1  0  0  0
 79 82  1  0  0  0
 79 84  2  0  0  0
 80149  1  0  0  0
 80150  1  0  0  0
 80151  1  0  0  0
 81 85  1  0  0  0
 81152  1  0  0  0
 81153  1  0  0  0
 81154  1  0  0  0
 82155  1  0  0  0
 82156  1  0  0  0
 83157  1  0  0  0
M  ISO  4   1 100  68 101  82 101  83 100
M  END
> <chiral flag>
0

> <version>
0

> <s_m_source_file>
/data/baiqing/PycharmProjects/Reinvent-master-3.2/result/LINK_invent/BTK/process_docking_weight1_custom_product_contain_oxygen_bond_distance_aromatic_linkinvent_7_9_3/rearranged_h_0126.sdf

> <i_m_source_file_index>
91

> <r_mmod_Potential_Energy-OPLS-2005>
69.2899551391602

> <r_mmod_Stretch_Energy-OPLS-2005>
74.8225173950195

> <r_mmod_Bend_Energy-OPLS-2005>
129.499664306641

> <r_mmod_Torsional_Energy-OPLS-2005>
235.035095214844

> <r_mmod_Improper_Torsional_Energy-OPLS-2005>
5.84397745132446

> <r_mmod_Van_der_Waal_Energy-OPLS-2005>
153.701141357422

> <r_mmod_Electrostatic_Energy-OPLS-2005>
-343.297973632812

> <r_mmod_Solvation_Energy-OPLS-2005>
-233.823013305664

> <b_mmod_Minimization_Converged-OPLS-2005>
0

> <r_mmod_RMS_Derivative-OPLS-2005>
3.00966739654541

$$$$
91
                    3D
 Structure written by MMmdl.
157165  0  0  1  0            999 V2000
  -30.5373  -14.9437   20.4041 C   0  0  0  0  0  0
  -30.4526  -12.5844   19.4775 C   0  0  0  0  0  0
  -29.5256  -12.5356   18.2402 C   0  0  0  0  0  0
  -28.0526  -12.3325   18.6539 C   0  0  0  0  0  0
  -27.6281  -13.2509   19.8309 C   0  0  2  0  0  0
  -28.6813  -13.2621   20.9621 C   0  0  0  0  0  0
  -25.2278  -13.7986   20.5676 C   0  0  0  0  0  0
  -24.1685  -13.0225   20.9287 C   0  0  0  0  0  0
  -24.6396  -11.6777   20.8780 C   0  0  0  0  0  0
  -23.9080  -10.4177   21.0413 C   0  0  0  0  0  0
  -24.3610   -9.4109   21.9197 C   0  0  0  0  0  0
  -23.6276   -8.2157   22.0756 C   0  0  0  0  0  0
  -22.4263   -8.0217   21.3524 C   0  0  0  0  0  0
  -21.9893   -9.0192   20.4624 C   0  0  0  0  0  0
  -22.7250  -10.2057   20.3044 C   0  0  0  0  0  0
  -21.6830   -6.0698   22.5279 C   0  0  0  0  0  0
  -21.3997   -6.5613   23.8207 C   0  0  0  0  0  0
  -21.3653   -5.6768   24.9170 C   0  0  0  0  0  0
  -21.6049   -4.3032   24.7221 C   0  0  0  0  0  0
  -21.8828   -3.8115   23.4349 C   0  0  0  0  0  0
  -21.9186   -4.6928   22.3399 C   0  0  0  0  0  0
  -22.7711  -13.5033   21.1922 C   0  0  0  0  0  0
  -22.1664   -4.2119   21.0978 F   0  0  0  0  0  0
  -21.5629   -3.4514   25.7738 F   0  0  0  0  0  0
  -29.9654  -13.6729   20.3690 N   0  0  0  0  0  0
  -26.2849  -12.9379   20.3190 N   0  0  0  0  0  0
  -25.9338  -11.6495   20.5714 N   0  0  0  0  0  0
  -22.0328  -12.8086   22.0488 N   0  0  0  0  0  0
  -25.3422  -15.1639   20.3967 N   0  0  0  0  0  0
  -31.7413  -15.0460   20.1446 O   0  0  0  0  0  0
  -21.6608   -6.8836   21.4238 O   0  0  0  0  0  0
  -22.3429  -14.5341   20.6738 O   0  0  0  0  0  0
  -24.6409  -31.8450   23.1886 C   0  0  0  0  0  0
  -25.9186  -32.4693   23.8288 C   0  0  1  0  0  0
  -27.2384  -27.1664   20.1341 C   0  0  0  0  0  0
  -25.5953  -33.8500   24.2189 N   0  0  0  0  0  0
  -23.4432  -30.4614   21.5340 C   0  0  2  0  0  0
  -24.8956  -28.8900   20.1065 C   0  0  0  0  0  0
  -22.7545  -29.4551   22.4889 C   0  0  0  0  0  0
  -18.0290  -28.1397   22.8470 C   0  0  0  0  0  0
  -24.1490  -36.7235   23.2641 C   0  0  0  0  0  0
  -25.9955  -30.7238   21.3854 C   0  0  0  0  0  0
  -26.0690  -29.3376   20.7260 C   0  0  0  0  0  0
  -27.2330  -28.4868   20.7314 C   0  0  0  0  0  0
  -26.0350  -26.8100   19.4811 C   0  0  0  0  0  0
  -24.8903  -27.6366   19.4729 C   0  0  0  0  0  0
  -23.6664  -29.7835   20.1549 C   0  0  0  0  0  0
  -25.4124  -36.3013   24.0305 C   0  0  1  0  0  0
  -20.5900  -28.3710   23.1250 C   0  0  2  0  0  0
  -20.6766  -26.9422   22.5407 C   0  0  0  0  0  0
  -19.5749  -26.6383   21.5204 C   0  0  0  0  0  0
  -18.1932  -26.7936   22.1617 C   0  0  0  0  0  0
  -19.1546  -28.8874   23.2847 C   0  0  0  0  0  0
  -18.9468  -30.1472   23.8862 C   0  0  0  0  0  0
  -17.6469  -30.6593   24.0553 C   0  0  0  0  0  0
  -25.9082  -34.9399   23.5049 C   0  0  0  0  0  0
  -16.5357  -29.9083   23.6346 C   0  0  0  0  0  0
  -16.7276  -28.6505   23.0357 C   0  0  0  0  0  0
  -26.4536  -31.6555   25.0721 C   0  0  0  0  0  0
  -25.3749  -31.3697   26.1432 C   0  0  0  0  0  0
  -27.0383  -30.2954   24.6271 C   0  0  0  0  0  0
  -27.6078  -32.4310   25.7509 C   0  0  0  0  0  0
  -27.5564  -37.1772   24.8470 C   0  0  0  0  0  0
  -21.4244  -29.3038   22.3630 N   0  0  0  0  0  0
  -26.4275  -37.3734   23.9417 N   0  0  0  0  0  0
  -24.7126  -31.0318   22.0910 N   0  0  0  0  0  0
  -23.4196  -28.8118   23.3046 O   0  0  0  0  0  0
  -28.3208  -26.2257   20.2563 O   0  0  0  0  0  0
  -26.5680  -34.8903   22.4634 O   0  0  0  0  0  0
  -23.5536  -32.1332   23.7110 O   0  0  0  0  0  0
  -28.3528  -19.7525   19.9235 C   0  0  0  0  0  0
  -30.7530  -18.5424   20.5968 C   0  0  0  0  0  0
  -29.4016  -20.6926   20.1312 C   0  0  0  0  0  0
  -28.4764  -18.3140   20.0355 C   0  0  0  0  0  0
  -29.6875  -17.6012   20.3733 C   0  0  0  0  0  0
  -30.6205  -19.9956   20.4773 C   0  0  0  0  0  0
  -28.6688  -23.3869   20.2237 C   0  0  0  0  0  0
  -29.2624  -22.2204   19.6724 C   0  0  0  0  0  0
  -29.8526  -22.3184   18.2718 C   0  0  0  0  0  0
  -27.0414  -17.2830   18.2261 C   0  0  0  0  0  0
  -27.2196  -17.5358   19.7278 C   0  0  0  0  0  0
  -28.4395  -24.8665   19.5393 C   0  0  0  0  0  0
  -29.6809  -16.0667   20.5218 N   0  0  0  0  0  0
  -31.7352  -20.7413   20.6709 F   0  0  0  0  0  0
  -31.4830  -12.7546   19.1590 H   0  0  0  0  0  0
  -30.4529  -11.6266   20.0003 H   0  0  0  0  0  0
  -29.8403  -11.7362   17.5674 H   0  0  0  0  0  0
  -29.6232  -13.4642   17.6747 H   0  0  0  0  0  0
  -27.9345  -11.2882   18.9428 H   0  0  0  0  0  0
  -27.3949  -12.4849   17.7971 H   0  0  0  0  0  0
  -27.5848  -14.2582   19.4153 H   0  0  0  0  0  0
  -28.7645  -12.2792   21.4286 H   0  0  0  0  0  0
  -28.3846  -13.9529   21.7526 H   0  0  0  0  0  0
  -25.2753   -9.5586   22.4779 H   0  0  0  0  0  0
  -23.9959   -7.4547   22.7486 H   0  0  0  0  0  0
  -21.0810   -8.8729   19.8943 H   0  0  0  0  0  0
  -22.3728  -10.9594   19.6143 H   0  0  0  0  0  0
  -21.1997   -7.6128   23.9704 H   0  0  0  0  0  0
  -21.1465   -6.0495   25.9073 H   0  0  0  0  0  0
  -22.0620   -2.7578   23.2852 H   0  0  0  0  0  0
  -22.3913  -11.9788   22.4982 H   0  0  0  0  0  0
  -21.0925  -13.1120   22.2591 H   0  0  0  0  0  0
  -24.5139  -15.7460   20.4526 H   0  0  0  0  0  0
  -26.0871  -15.5867   19.8625 H   0  0  0  0  0  0
  -26.7253  -32.5312   23.1026 H   0  0  0  0  0  0
  -25.0050  -33.9632   25.0302 H   0  0  0  0  0  0
  -22.7442  -31.2854   21.3780 H   0  0  0  0  0  0
  -23.3756  -35.9564   23.3305 H   0  0  0  0  0  0
  -24.3554  -36.8868   22.2051 H   0  0  0  0  0  0
  -23.7258  -37.6430   23.6690 H   0  0  0  0  0  0
  -26.1471  -31.4800   20.6148 H   0  0  0  0  0  0
  -26.8672  -30.7749   22.0255 H   0  0  0  0  0  0
  -28.1237  -28.8169   21.2482 H   0  0  0  0  0  0
  -25.9253  -25.8476   19.0091 H   0  0  0  0  0  0
  -23.9931  -27.2782   18.9855 H   0  0  0  0  0  0
  -23.7898  -30.5534   19.3931 H   0  0  0  0  0  0
  -22.7852  -29.2141   19.8538 H   0  0  0  0  0  0
  -25.1318  -36.1814   25.0794 H   0  0  0  0  0  0
  -20.9977  -28.3284   24.1378 H   0  0  0  0  0  0
  -20.5632  -26.2332   23.3620 H   0  0  0  0  0  0
  -21.6638  -26.7425   22.1228 H   0  0  0  0  0  0
  -19.6914  -25.6284   21.1251 H   0  0  0  0  0  0
  -19.6692  -27.3174   20.6716 H   0  0  0  0  0  0
  -17.4205  -26.6672   21.4019 H   0  0  0  0  0  0
  -18.0342  -26.0086   22.9020 H   0  0  0  0  0  0
  -19.7948  -30.7292   24.2217 H   0  0  0  0  0  0
  -17.5028  -31.6272   24.5155 H   0  0  0  0  0  0
  -15.5356  -30.2972   23.7700 H   0  0  0  0  0  0
  -15.8675  -28.0814   22.7094 H   0  0  0  0  0  0
  -24.5937  -30.7039   25.7751 H   0  0  0  0  0  0
  -24.8945  -32.2852   26.4887 H   0  0  0  0  0  0
  -25.8079  -30.8854   27.0193 H   0  0  0  0  0  0
  -26.2971  -29.6692   24.1293 H   0  0  0  0  0  0
  -27.4010  -29.7237   25.4823 H   0  0  0  0  0  0
  -27.8888  -30.4191   23.9564 H   0  0  0  0  0  0
  -27.2683  -33.3626   26.2050 H   0  0  0  0  0  0
  -28.3924  -32.6831   25.0360 H   0  0  0  0  0  0
  -28.0716  -31.8453   26.5459 H   0  0  0  0  0  0
  -28.2582  -38.0070   24.7494 H   0  0  0  0  0  0
  -28.1054  -36.2589   24.6315 H   0  0  0  0  0  0
  -27.2274  -37.1436   25.8873 H   0  0  0  0  0  0
  -20.9456  -29.8736   21.6799 H   0  0  0  0  0  0
  -26.0122  -38.2792   24.1428 H   0  0  0  0  0  0
  -27.4057  -20.1571   19.5969 H   0  0  0  0  0  0
  -31.7244  -18.1528   20.8655 H   0  0  0  0  0  0
  -28.2432  -23.3014   21.2142 H   0  0  0  0  0  0
  -30.8933  -21.9918   18.2785 H   0  0  0  0  0  0
  -29.8353  -23.3130   17.8329 H   0  0  0  0  0  0
  -29.2996  -21.6641   17.5964 H   0  0  0  0  0  0
  -26.1269  -16.7230   18.0275 H   0  0  0  0  0  0
  -27.8766  -16.7092   17.8225 H   0  0  0  0  0  0
  -26.9775  -18.2213   17.6726 H   0  0  0  0  0  0
  -26.3505  -18.0641   20.1239 H   0  0  0  0  0  0
  -27.2753  -16.6059   20.2768 H   0  0  0  0  0  0
  -27.6336  -24.7396   18.8208 H   0  0  0  0  0  0
  -29.3156  -25.0355   18.9165 H   0  0  0  0  0  0
  -28.7409  -15.7219   20.6355 H   0  0  0  0  0  0
  1 25  1  0  0  0
  1 30  2  0  0  0
  1 83  1  0  0  0
  2  3  1  0  0  0
  2 25  1  0  0  0
  2 85  1  0  0  0
  2 86  1  0  0  0
  3  4  1  0  0  0
  3 87  1  0  0  0
  3 88  1  0  0  0
  4  5  1  0  0  0
  4 89  1  0  0  0
  4 90  1  0  0  0
  5  6  1  0  0  0
  5 26  1  0  0  0
  5 91  1  0  0  0
  6 25  1  0  0  0
  6 92  1  0  0  0
  6 93  1  0  0  0
  7  8  2  0  0  0
  7 26  1  0  0  0
  7 29  1  0  0  0
  8  9  1  0  0  0
  8 22  1  0  0  0
  9 10  1  0  0  0
  9 27  2  0  0  0
 10 11  2  0  0  0
 10 15  1  0  0  0
 11 12  1  0  0  0
 11 94  1  0  0  0
 12 13  2  0  0  0
 12 95  1  0  0  0
 13 14  1  0  0  0
 13 31  1  0  0  0
 14 15  2  0  0  0
 14 96  1  0  0  0
 15 97  1  0  0  0
 16 17  2  0  0  0
 16 21  1  0  0  0
 16 31  1  0  0  0
 17 18  1  0  0  0
 17 98  1  0  0  0
 18 19  2  0  0  0
 18 99  1  0  0  0
 19 20  1  0  0  0
 19 24  1  0  0  0
 20 21  2  0  0  0
 20100  1  0  0  0
 21 23  1  0  0  0
 22 28  1  0  0  0
 22 32  2  0  0  0
 26 27  1  0  0  0
 28101  1  0  0  0
 28102  1  0  0  0
 29103  1  0  0  0
 29104  1  0  0  0
 33 34  1  0  0  0
 33 66  1  0  0  0
 33 70  2  0  0  0
 34 36  1  0  0  0
 34 59  1  0  0  0
 34105  1  0  0  0
 35 44  2  0  0  0
 35 45  1  0  0  0
 35 68  1  0  0  0
 36 56  1  0  0  0
 36106  1  0  0  0
 37 39  1  0  0  0
 37 47  1  0  0  0
 37 66  1  0  0  0
 37107  1  0  0  0
 38 43  2  0  0  0
 38 46  1  0  0  0
 38 47  1  0  0  0
 39 64  1  0  0  0
 39 67  2  0  0  0
 40 52  1  0  0  0
 40 53  2  0  0  0
 40 58  1  0  0  0
 41108  1  0  0  0
 41109  1  0  0  0
 41110  1  0  0  0
 41 48  1  0  0  0
 42 43  1  0  0  0
 42 66  1  0  0  0
 42111  1  0  0  0
 42112  1  0  0  0
 43 44  1  0  0  0
 44113  1  0  0  0
 45 46  2  0  0  0
 45114  1  0  0  0
 46115  1  0  0  0
 47116  1  0  0  0
 47117  1  0  0  0
 48 56  1  0  0  0
 48 65  1  0  0  0
 48118  1  0  0  0
 49 50  1  0  0  0
 49 53  1  0  0  0
 49 64  1  0  0  0
 49119  1  0  0  0
 50 51  1  0  0  0
 50120  1  0  0  0
 50121  1  0  0  0
 51 52  1  0  0  0
 51122  1  0  0  0
 51123  1  0  0  0
 52124  1  0  0  0
 52125  1  0  0  0
 53 54  1  0  0  0
 54 55  2  0  0  0
 54126  1  0  0  0
 55 57  1  0  0  0
 55127  1  0  0  0
 56 69  2  0  0  0
 57 58  2  0  0  0
 57128  1  0  0  0
 58129  1  0  0  0
 59 60  1  0  0  0
 59 61  1  0  0  0
 59 62  1  0  0  0
 60130  1  0  0  0
 60131  1  0  0  0
 60132  1  0  0  0
 61133  1  0  0  0
 61134  1  0  0  0
 61135  1  0  0  0
 62136  1  0  0  0
 62137  1  0  0  0
 62138  1  0  0  0
 63 65  1  0  0  0
 63139  1  0  0  0
 63140  1  0  0  0
 63141  1  0  0  0
 64142  1  0  0  0
 65143  1  0  0  0
 68 82  1  0  0  0
 71 73  2  0  0  0
 71 74  1  0  0  0
 71144  1  0  0  0
 72 75  1  0  0  0
 72 76  2  0  0  0
 72145  1  0  0  0
 73 76  1  0  0  0
 73 78  1  0  0  0
 74 75  2  0  0  0
 74 81  1  0  0  0
 75 83  1  0  0  0
 76 84  1  0  0  0
 77 78  2  0  0  0
 77 82  1  0  0  0
 77146  1  0  0  0
 78 79  1  0  0  0
 79147  1  0  0  0
 79148  1  0  0  0
 79149  1  0  0  0
 80 81  1  0  0  0
 80150  1  0  0  0
 80151  1  0  0  0
 80152  1  0  0  0
 81153  1  0  0  0
 81154  1  0  0  0
 82155  1  0  0  0
 82156  1  0  0  0
 83157  1  0  0  0
M  ISO  4   1 100  68 101  82 101  83 100
M  END
> <chiral flag>
0

> <version>
0

> <s_m_source_file>
/data/baiqing/PycharmProjects/Reinvent-master-3.2/result/LINK_invent/BTK/process_docking_weight1_custom_product_contain_oxygen_bond_distance_aromatic_linkinvent_7_9_3/rearranged_h_0126.sdf

> <i_m_source_file_index>
92

> <r_mmod_Potential_Energy-OPLS-2005>
514.731140136719

> <r_mmod_Stretch_Energy-OPLS-2005>
215.83869934082

> <r_mmod_Bend_Energy-OPLS-2005>
266.041748046875

> <r_mmod_Torsional_Energy-OPLS-2005>
244.493408203125

> <r_mmod_Improper_Torsional_Energy-OPLS-2005>
10.58203125

> <r_mmod_Van_der_Waal_Energy-OPLS-2005>
138.387786865234

> <r_mmod_Electrostatic_Energy-OPLS-2005>
-343.280426025391

> <r_mmod_Solvation_Energy-OPLS-2005>
-197.649337768555

> <b_mmod_Minimization_Converged-OPLS-2005>
0

> <r_mmod_RMS_Derivative-OPLS-2005>
2.49363827705383

$$$$
92
                    3D
 Structure written by MMmdl.
156164  0  0  1  0            999 V2000
  -30.6086  -14.7431   20.4212 C   0  0  0  0  0  0
  -30.4389  -12.4299   19.4969 C   0  0  0  0  0  0
  -29.5205  -12.4237   18.2536 C   0  0  0  0  0  0
  -28.0365  -12.3123   18.6562 C   0  0  0  0  0  0
  -27.6442  -13.2282   19.8477 C   0  0  2  0  0  0
  -28.6862  -13.1720   20.9857 C   0  0  0  0  0  0
  -25.2527  -13.8201   20.5692 C   0  0  0  0  0  0
  -24.1809  -13.0452   20.9204 C   0  0  0  0  0  0
  -24.6391  -11.6928   20.8753 C   0  0  0  0  0  0
  -23.9067  -10.4302   21.0411 C   0  0  0  0  0  0
  -24.3618   -9.4214   21.9185 C   0  0  0  0  0  0
  -23.6293   -8.2248   22.0754 C   0  0  0  0  0  0
  -22.4274   -8.0285   21.3545 C   0  0  0  0  0  0
  -21.9911   -9.0261   20.4649 C   0  0  0  0  0  0
  -22.7240  -10.2141   20.3059 C   0  0  0  0  0  0
  -21.6856   -6.0736   22.5278 C   0  0  0  0  0  0
  -21.4020   -6.5640   23.8212 C   0  0  0  0  0  0
  -21.3659   -5.6792   24.9173 C   0  0  0  0  0  0
  -21.6041   -4.3054   24.7223 C   0  0  0  0  0  0
  -21.8820   -3.8147   23.4346 C   0  0  0  0  0  0
  -21.9195   -4.6964   22.3402 C   0  0  0  0  0  0
  -22.7829  -13.5235   21.1860 C   0  0  0  0  0  0
  -22.1662   -4.2150   21.0979 F   0  0  0  0  0  0
  -21.5625   -3.4537   25.7736 F   0  0  0  0  0  0
  -29.9902  -13.5121   20.4046 N   0  0  0  0  0  0
  -26.2952  -12.9403   20.3279 N   0  0  0  0  0  0
  -25.9322  -11.6552   20.5776 N   0  0  0  0  0  0
  -22.0474  -12.8229   22.0419 N   0  0  0  0  0  0
  -25.4222  -15.1923   20.4110 N   0  0  0  0  0  0
  -31.8011  -14.8313   20.1141 O   0  0  0  0  0  0
  -21.6641   -6.8880   21.4240 O   0  0  0  0  0  0
  -22.3513  -14.5536   20.6702 O   0  0  0  0  0  0
  -24.6308  -31.8566   23.2009 C   0  0  0  0  0  0
  -25.9140  -32.4760   23.8347 C   0  0  1  0  0  0
  -27.2158  -27.2676   20.1266 C   0  0  0  0  0  0
  -25.5940  -33.8562   24.2268 N   0  0  0  0  0  0
  -23.4269  -30.4817   21.5437 C   0  0  2  0  0  0
  -24.8738  -28.9352   20.1076 C   0  0  0  0  0  0
  -22.7502  -29.4611   22.4907 C   0  0  0  0  0  0
  -18.0294  -28.1388   22.8481 C   0  0  0  0  0  0
  -24.1489  -36.7284   23.2636 C   0  0  0  0  0  0
  -25.9737  -30.7703   21.3831 C   0  0  0  0  0  0
  -26.0449  -29.3949   20.7230 C   0  0  0  0  0  0
  -27.2168  -28.5720   20.7264 C   0  0  0  0  0  0
  -26.0250  -26.8879   19.4620 C   0  0  0  0  0  0
  -24.8692  -27.6893   19.4665 C   0  0  0  0  0  0
  -23.6450  -29.8211   20.1578 C   0  0  0  0  0  0
  -25.4113  -36.3071   24.0328 C   0  0  1  0  0  0
  -20.5899  -28.3700   23.1265 C   0  0  2  0  0  0
  -20.6783  -26.9416   22.5406 C   0  0  0  0  0  0
  -19.5757  -26.6383   21.5210 C   0  0  0  0  0  0
  -18.1938  -26.7930   22.1623 C   0  0  0  0  0  0
  -19.1548  -28.8861   23.2869 C   0  0  0  0  0  0
  -18.9468  -30.1461   23.8890 C   0  0  0  0  0  0
  -17.6466  -30.6587   24.0564 C   0  0  0  0  0  0
  -25.9057  -34.9442   23.5099 C   0  0  0  0  0  0
  -16.5358  -29.9084   23.6331 C   0  0  0  0  0  0
  -16.7281  -28.6504   23.0349 C   0  0  0  0  0  0
  -26.4505  -31.6583   25.0736 C   0  0  0  0  0  0
  -25.3726  -31.3738   26.1455 C   0  0  0  0  0  0
  -27.0355  -30.2995   24.6233 C   0  0  0  0  0  0
  -27.6057  -32.4326   25.7508 C   0  0  0  0  0  0
  -27.5584  -37.1790   24.8458 C   0  0  0  0  0  0
  -21.4209  -29.3047   22.3652 N   0  0  0  0  0  0
  -26.4285  -37.3773   23.9418 N   0  0  0  0  0  0
  -24.6960  -31.0539   22.0985 N   0  0  0  0  0  0
  -23.4204  -28.8143   23.2999 O   0  0  0  0  0  0
  -28.2996  -26.3609   20.2150 O   0  0  0  0  0  0
  -26.5627  -34.8915   22.4666 O   0  0  0  0  0  0
  -23.5461  -32.1386   23.7307 O   0  0  0  0  0  0
  -29.6907  -18.5039   20.5348 C   0  0  0  0  0  0
  -30.0310  -18.4574   17.7882 C   0  0  0  0  0  0
  -29.6880  -19.7864   19.8293 C   0  0  0  0  0  0
  -29.9157  -19.7041   18.4260 C   0  0  0  0  0  0
  -29.9847  -17.2353   18.4798 C   0  0  0  0  0  0
  -29.8817  -17.2011   19.8982 C   0  0  0  0  0  0
  -29.5017  -21.1836   20.4820 C   0  0  0  0  0  0
  -28.9307  -22.3411   19.9641 C   0  0  0  0  0  0
  -28.9279  -23.7669   20.5462 C   0  0  0  0  0  0
  -30.0958  -20.9205   17.5266 C   0  0  0  0  0  0
  -29.9733  -15.9864   17.6196 C   0  0  0  0  0  0
  -28.0532  -24.9181   19.8676 C   0  0  0  0  0  0
  -29.8316  -15.8833   20.5985 N   0  0  0  0  0  0
  -29.5952  -24.0504   21.5460 O   0  0  0  0  0  0
  -31.4797  -12.5496   19.1911 H   0  0  0  0  0  0
  -30.3916  -11.4689   20.0112 H   0  0  0  0  0  0
  -29.7840  -11.5846   17.6082 H   0  0  0  0  0  0
  -29.6898  -13.3078   17.6479 H   0  0  0  0  0  0
  -27.8618  -11.2703   18.9265 H   0  0  0  0  0  0
  -27.3942  -12.5109   17.7974 H   0  0  0  0  0  0
  -27.6378  -14.2460   19.4579 H   0  0  0  0  0  0
  -28.7158  -12.1801   21.4387 H   0  0  0  0  0  0
  -28.4223  -13.8653   21.7859 H   0  0  0  0  0  0
  -25.2762   -9.5689   22.4761 H   0  0  0  0  0  0
  -24.0003   -7.4638   22.7471 H   0  0  0  0  0  0
  -21.0843   -8.8780   19.8954 H   0  0  0  0  0  0
  -22.3696  -10.9680   19.6169 H   0  0  0  0  0  0
  -21.2016   -7.6149   23.9717 H   0  0  0  0  0  0
  -21.1478   -6.0521   25.9076 H   0  0  0  0  0  0
  -22.0598   -2.7610   23.2845 H   0  0  0  0  0  0
  -22.4091  -11.9896   22.4819 H   0  0  0  0  0  0
  -21.1091  -13.1254   22.2621 H   0  0  0  0  0  0
  -24.6533  -15.8446   20.5201 H   0  0  0  0  0  0
  -26.2703  -15.6347   20.0806 H   0  0  0  0  0  0
  -26.7205  -32.5410   23.1088 H   0  0  0  0  0  0
  -25.0085  -33.9700   25.0413 H   0  0  0  0  0  0
  -22.7232  -31.3043   21.4006 H   0  0  0  0  0  0
  -23.3758  -35.9609   23.3278 H   0  0  0  0  0  0
  -24.3586  -36.8929   22.2056 H   0  0  0  0  0  0
  -23.7233  -37.6476   23.6673 H   0  0  0  0  0  0
  -26.1160  -31.5328   20.6160 H   0  0  0  0  0  0
  -26.8501  -30.8155   22.0179 H   0  0  0  0  0  0
  -28.1086  -28.9138   21.2329 H   0  0  0  0  0  0
  -25.9444  -25.9476   18.9383 H   0  0  0  0  0  0
  -23.9757  -27.3361   18.9701 H   0  0  0  0  0  0
  -23.7704  -30.6002   19.4051 H   0  0  0  0  0  0
  -22.7629  -29.2567   19.8503 H   0  0  0  0  0  0
  -25.1290  -36.1914   25.0819 H   0  0  0  0  0  0
  -20.9995  -28.3282   24.1384 H   0  0  0  0  0  0
  -20.5679  -26.2311   23.3612 H   0  0  0  0  0  0
  -21.6651  -26.7438   22.1203 H   0  0  0  0  0  0
  -19.6917  -25.6291   21.1245 H   0  0  0  0  0  0
  -19.6692  -27.3188   20.6735 H   0  0  0  0  0  0
  -17.4204  -26.6673   21.4028 H   0  0  0  0  0  0
  -18.0341  -26.0075   22.9025 H   0  0  0  0  0  0
  -19.7943  -30.7280   24.2255 H   0  0  0  0  0  0
  -17.5020  -31.6265   24.5171 H   0  0  0  0  0  0
  -15.5358  -30.2983   23.7659 H   0  0  0  0  0  0
  -15.8682  -28.0822   22.7062 H   0  0  0  0  0  0
  -24.5901  -30.7085   25.7787 H   0  0  0  0  0  0
  -24.8916  -32.2909   26.4865 H   0  0  0  0  0  0
  -25.8041  -30.8927   27.0242 H   0  0  0  0  0  0
  -26.2945  -29.6738   24.1245 H   0  0  0  0  0  0
  -27.4014  -29.7265   25.4764 H   0  0  0  0  0  0
  -27.8834  -30.4262   23.9498 H   0  0  0  0  0  0
  -27.2660  -33.3626   26.2079 H   0  0  0  0  0  0
  -28.3869  -32.6888   25.0339 H   0  0  0  0  0  0
  -28.0724  -31.8458   26.5430 H   0  0  0  0  0  0
  -28.2573  -38.0115   24.7547 H   0  0  0  0  0  0
  -28.1109  -36.2650   24.6225 H   0  0  0  0  0  0
  -27.2312  -37.1369   25.8861 H   0  0  0  0  0  0
  -20.9391  -29.8775   21.6864 H   0  0  0  0  0  0
  -26.0161  -38.2840   24.1444 H   0  0  0  0  0  0
  -29.5440  -18.5243   21.6052 H   0  0  0  0  0  0
  -30.1521  -18.4396   16.7136 H   0  0  0  0  0  0
  -29.9510  -21.2717   21.4615 H   0  0  0  0  0  0
  -28.4340  -22.2725   19.0107 H   0  0  0  0  0  0
  -30.6762  -20.6667   16.6389 H   0  0  0  0  0  0
  -30.6439  -21.7198   18.0244 H   0  0  0  0  0  0
  -29.1328  -21.2953   17.1806 H   0  0  0  0  0  0
  -29.8410  -16.2203   16.5629 H   0  0  0  0  0  0
  -29.1283  -15.3652   17.9088 H   0  0  0  0  0  0
  -30.9033  -15.4272   17.7106 H   0  0  0  0  0  0
  -27.0324  -24.6561   20.1431 H   0  0  0  0  0  0
  -28.1249  -24.8076   18.7854 H   0  0  0  0  0  0
  -28.9667  -15.7086   21.0878 H   0  0  0  0  0  0
  1 25  1  0  0  0
  1 30  2  0  0  0
  1 83  1  0  0  0
  2  3  1  0  0  0
  2 25  1  0  0  0
  2 85  1  0  0  0
  2 86  1  0  0  0
  3  4  1  0  0  0
  3 87  1  0  0  0
  3 88  1  0  0  0
  4  5  1  0  0  0
  4 89  1  0  0  0
  4 90  1  0  0  0
  5  6  1  0  0  0
  5 26  1  0  0  0
  5 91  1  0  0  0
  6 25  1  0  0  0
  6 92  1  0  0  0
  6 93  1  0  0  0
  7  8  2  0  0  0
  7 26  1  0  0  0
  7 29  1  0  0  0
  8  9  1  0  0  0
  8 22  1  0  0  0
  9 10  1  0  0  0
  9 27  2  0  0  0
 10 11  2  0  0  0
 10 15  1  0  0  0
 11 12  1  0  0  0
 11 94  1  0  0  0
 12 13  2  0  0  0
 12 95  1  0  0  0
 13 14  1  0  0  0
 13 31  1  0  0  0
 14 15  2  0  0  0
 14 96  1  0  0  0
 15 97  1  0  0  0
 16 17  2  0  0  0
 16 21  1  0  0  0
 16 31  1  0  0  0
 17 18  1  0  0  0
 17 98  1  0  0  0
 18 19  2  0  0  0
 18 99  1  0  0  0
 19 20  1  0  0  0
 19 24  1  0  0  0
 20 21  2  0  0  0
 20100  1  0  0  0
 21 23  1  0  0  0
 22 28  1  0  0  0
 22 32  2  0  0  0
 26 27  1  0  0  0
 28101  1  0  0  0
 28102  1  0  0  0
 29103  1  0  0  0
 29104  1  0  0  0
 33 34  1  0  0  0
 33 66  1  0  0  0
 33 70  2  0  0  0
 34 36  1  0  0  0
 34 59  1  0  0  0
 34105  1  0  0  0
 35 44  2  0  0  0
 35 45  1  0  0  0
 35 68  1  0  0  0
 36 56  1  0  0  0
 36106  1  0  0  0
 37 39  1  0  0  0
 37 47  1  0  0  0
 37 66  1  0  0  0
 37107  1  0  0  0
 38 43  2  0  0  0
 38 46  1  0  0  0
 38 47  1  0  0  0
 39 64  1  0  0  0
 39 67  2  0  0  0
 40 52  1  0  0  0
 40 53  2  0  0  0
 40 58  1  0  0  0
 41108  1  0  0  0
 41109  1  0  0  0
 41110  1  0  0  0
 41 48  1  0  0  0
 42 43  1  0  0  0
 42 66  1  0  0  0
 42111  1  0  0  0
 42112  1  0  0  0
 43 44  1  0  0  0
 44113  1  0  0  0
 45 46  2  0  0  0
 45114  1  0  0  0
 46115  1  0  0  0
 47116  1  0  0  0
 47117  1  0  0  0
 48 56  1  0  0  0
 48 65  1  0  0  0
 48118  1  0  0  0
 49 50  1  0  0  0
 49 53  1  0  0  0
 49 64  1  0  0  0
 49119  1  0  0  0
 50 51  1  0  0  0
 50120  1  0  0  0
 50121  1  0  0  0
 51 52  1  0  0  0
 51122  1  0  0  0
 51123  1  0  0  0
 52124  1  0  0  0
 52125  1  0  0  0
 53 54  1  0  0  0
 54 55  2  0  0  0
 54126  1  0  0  0
 55 57  1  0  0  0
 55127  1  0  0  0
 56 69  2  0  0  0
 57 58  2  0  0  0
 57128  1  0  0  0
 58129  1  0  0  0
 59 60  1  0  0  0
 59 61  1  0  0  0
 59 62  1  0  0  0
 60130  1  0  0  0
 60131  1  0  0  0
 60132  1  0  0  0
 61133  1  0  0  0
 61134  1  0  0  0
 61135  1  0  0  0
 62136  1  0  0  0
 62137  1  0  0  0
 62138  1  0  0  0
 63 65  1  0  0  0
 63139  1  0  0  0
 63140  1  0  0  0
 63141  1  0  0  0
 64142  1  0  0  0
 65143  1  0  0  0
 68 82  1  0  0  0
 71 73  2  0  0  0
 71 76  1  0  0  0
 71144  1  0  0  0
 72 74  2  0  0  0
 72 75  1  0  0  0
 72145  1  0  0  0
 73 74  1  0  0  0
 73 77  1  0  0  0
 74 80  1  0  0  0
 75 76  2  0  0  0
 75 81  1  0  0  0
 76 83  1  0  0  0
 77 78  2  0  0  0
 77146  1  0  0  0
 78 79  1  0  0  0
 78147  1  0  0  0
 79 82  1  0  0  0
 79 84  2  0  0  0
 80148  1  0  0  0
 80149  1  0  0  0
 80150  1  0  0  0
 81151  1  0  0  0
 81152  1  0  0  0
 81153  1  0  0  0
 82154  1  0  0  0
 82155  1  0  0  0
 83156  1  0  0  0
M  ISO  4   1 100  68 101  82 101  83 100
M  END
> <chiral flag>
0

> <version>
0

> <s_m_source_file>
/data/baiqing/PycharmProjects/Reinvent-master-3.2/result/LINK_invent/BTK/process_docking_weight1_custom_product_contain_oxygen_bond_distance_aromatic_linkinvent_7_9_3/rearranged_h_0126.sdf

> <i_m_source_file_index>
93

> <r_mmod_Potential_Energy-OPLS-2005>
177.981384277344

> <r_mmod_Stretch_Energy-OPLS-2005>
124.69800567627

> <r_mmod_Bend_Energy-OPLS-2005>
153.749801635742

> <r_mmod_Torsional_Energy-OPLS-2005>
256.873443603516

> <r_mmod_Improper_Torsional_Energy-OPLS-2005>
6.29774951934814

> <r_mmod_Van_der_Waal_Energy-OPLS-2005>
154.586029052734

> <r_mmod_Electrostatic_Energy-OPLS-2005>
-371.344482421875

> <r_mmod_Solvation_Energy-OPLS-2005>
-235.501968383789

> <b_mmod_Minimization_Converged-OPLS-2005>
0

> <r_mmod_RMS_Derivative-OPLS-2005>
0.373809516429901

$$$$
93
                    3D
 Structure written by MMmdl.
151159  0  0  1  0            999 V2000
  -30.5785  -14.7526   20.4695 C   0  0  0  0  0  0
  -30.4484  -12.4619   19.4614 C   0  0  0  0  0  0
  -29.5135  -12.5086   18.2314 C   0  0  0  0  0  0
  -28.0407  -12.3226   18.6503 C   0  0  0  0  0  0
  -27.6450  -13.2208   19.8515 C   0  0  2  0  0  0
  -28.6929  -13.1393   20.9833 C   0  0  0  0  0  0
  -25.2530  -13.8168   20.5686 C   0  0  0  0  0  0
  -24.1810  -13.0429   20.9207 C   0  0  0  0  0  0
  -24.6386  -11.6902   20.8751 C   0  0  0  0  0  0
  -23.9060  -10.4287   21.0411 C   0  0  0  0  0  0
  -24.3611   -9.4202   21.9186 C   0  0  0  0  0  0
  -23.6285   -8.2239   22.0755 C   0  0  0  0  0  0
  -22.4270   -8.0277   21.3545 C   0  0  0  0  0  0
  -21.9906   -9.0250   20.4648 C   0  0  0  0  0  0
  -22.7233  -10.2130   20.3057 C   0  0  0  0  0  0
  -21.6852   -6.0730   22.5278 C   0  0  0  0  0  0
  -21.4012   -6.5634   23.8210 C   0  0  0  0  0  0
  -21.3659   -5.6789   24.9172 C   0  0  0  0  0  0
  -21.6049   -4.3051   24.7226 C   0  0  0  0  0  0
  -21.8817   -3.8142   23.4345 C   0  0  0  0  0  0
  -21.9190   -4.6960   22.3400 C   0  0  0  0  0  0
  -22.7832  -13.5222   21.1868 C   0  0  0  0  0  0
  -22.1659   -4.2142   21.0978 F   0  0  0  0  0  0
  -21.5632   -3.4536   25.7738 F   0  0  0  0  0  0
  -29.9925  -13.5078   20.4025 N   0  0  0  0  0  0
  -26.2951  -12.9353   20.3279 N   0  0  0  0  0  0
  -25.9317  -11.6508   20.5753 N   0  0  0  0  0  0
  -22.0474  -12.8215   22.0423 N   0  0  0  0  0  0
  -25.4203  -15.1895   20.4087 N   0  0  0  0  0  0
  -31.7726  -14.8970   20.1880 O   0  0  0  0  0  0
  -21.6637   -6.8873   21.4239 O   0  0  0  0  0  0
  -22.3519  -14.5528   20.6713 O   0  0  0  0  0  0
  -24.6343  -31.8557   23.1999 C   0  0  0  0  0  0
  -25.9161  -32.4763   23.8344 C   0  0  1  0  0  0
  -27.2161  -27.2469   20.1201 C   0  0  0  0  0  0
  -25.5956  -33.8566   24.2274 N   0  0  0  0  0  0
  -23.4314  -30.4829   21.5432 C   0  0  2  0  0  0
  -24.8773  -28.9352   20.1110 C   0  0  0  0  0  0
  -22.7519  -29.4617   22.4887 C   0  0  0  0  0  0
  -18.0305  -28.1393   22.8491 C   0  0  0  0  0  0
  -24.1485  -36.7274   23.2638 C   0  0  0  0  0  0
  -25.9821  -30.7641   21.3840 C   0  0  0  0  0  0
  -26.0538  -29.3875   20.7221 C   0  0  0  0  0  0
  -27.2260  -28.5583   20.7146 C   0  0  0  0  0  0
  -26.0087  -26.8769   19.4778 C   0  0  0  0  0  0
  -24.8620  -27.6883   19.4777 C   0  0  0  0  0  0
  -23.6513  -29.8257   20.1580 C   0  0  0  0  0  0
  -25.4112  -36.3076   24.0333 C   0  0  1  0  0  0
  -20.5910  -28.3712   23.1253 C   0  0  2  0  0  0
  -20.6789  -26.9424   22.5402 C   0  0  0  0  0  0
  -19.5757  -26.6392   21.5211 C   0  0  0  0  0  0
  -18.1942  -26.7938   22.1630 C   0  0  0  0  0  0
  -19.1559  -28.8867   23.2874 C   0  0  0  0  0  0
  -18.9476  -30.1463   23.8900 C   0  0  0  0  0  0
  -17.6476  -30.6594   24.0572 C   0  0  0  0  0  0
  -25.9059  -34.9445   23.5100 C   0  0  0  0  0  0
  -16.5367  -29.9091   23.6343 C   0  0  0  0  0  0
  -16.7290  -28.6510   23.0368 C   0  0  0  0  0  0
  -26.4522  -31.6586   25.0731 C   0  0  0  0  0  0
  -25.3743  -31.3744   26.1450 C   0  0  0  0  0  0
  -27.0377  -30.3002   24.6226 C   0  0  0  0  0  0
  -27.6069  -32.4331   25.7512 C   0  0  0  0  0  0
  -27.5579  -37.1791   24.8468 C   0  0  0  0  0  0
  -21.4224  -29.3062   22.3638 N   0  0  0  0  0  0
  -26.4284  -37.3777   23.9419 N   0  0  0  0  0  0
  -24.7019  -31.0519   22.0986 N   0  0  0  0  0  0
  -23.4212  -28.8144   23.2980 O   0  0  0  0  0  0
  -28.2964  -26.3212   20.1684 O   0  0  0  0  0  0
  -26.5617  -34.8920   22.4663 O   0  0  0  0  0  0
  -23.5487  -32.1384   23.7287 O   0  0  0  0  0  0
  -29.8398  -18.3443   20.0234 C   0  0  0  0  0  0
  -29.7203  -19.6672   20.6802 C   0  0  0  0  0  0
  -29.6021  -19.4676   22.0354 C   0  0  0  0  0  0
  -29.8332  -17.1963   20.8422 C   0  0  0  0  0  0
  -28.8330  -22.3241   20.2719 C   0  0  0  0  0  0
  -29.0383  -23.6863   20.0636 C   0  0  0  0  0  0
  -29.4632  -20.5137   23.0942 C   0  0  0  0  0  0
  -29.8332  -21.1100   20.0229 C   0  0  0  0  0  0
  -27.9547  -24.8491   20.1052 C   0  0  0  0  0  0
  -29.7052  -15.8248   20.5682 N   0  0  0  0  0  0
  -29.6585  -17.7639   22.4860 S   0  0  0  0  0  0
  -31.4837  -12.6156   19.1520 H   0  0  0  0  0  0
  -30.4171  -11.4803   19.9369 H   0  0  0  0  0  0
  -29.7977  -11.7404   17.5111 H   0  0  0  0  0  0
  -29.6296  -13.4648   17.7190 H   0  0  0  0  0  0
  -27.9060  -11.2737   18.9173 H   0  0  0  0  0  0
  -27.3786  -12.5070   17.8036 H   0  0  0  0  0  0
  -27.6404  -14.2420   19.4717 H   0  0  0  0  0  0
  -28.7334  -12.1334   21.4039 H   0  0  0  0  0  0
  -28.4268  -13.8023   21.8083 H   0  0  0  0  0  0
  -25.2757   -9.5679   22.4760 H   0  0  0  0  0  0
  -23.9993   -7.4631   22.7476 H   0  0  0  0  0  0
  -21.0836   -8.8771   19.8957 H   0  0  0  0  0  0
  -22.3690  -10.9669   19.6168 H   0  0  0  0  0  0
  -21.2004   -7.6141   23.9709 H   0  0  0  0  0  0
  -21.1487   -6.0520   25.9074 H   0  0  0  0  0  0
  -22.0597   -2.7604   23.2847 H   0  0  0  0  0  0
  -22.4078  -11.9870   22.4810 H   0  0  0  0  0  0
  -21.1097  -13.1250   22.2638 H   0  0  0  0  0  0
  -24.6467  -15.8366   20.5177 H   0  0  0  0  0  0
  -26.2546  -15.6352   20.0505 H   0  0  0  0  0  0
  -26.7227  -32.5406   23.1083 H   0  0  0  0  0  0
  -25.0133  -33.9707   25.0441 H   0  0  0  0  0  0
  -22.7298  -31.3074   21.4001 H   0  0  0  0  0  0
  -23.3758  -35.9595   23.3302 H   0  0  0  0  0  0
  -24.3579  -36.8903   22.2054 H   0  0  0  0  0  0
  -23.7223  -37.6470   23.6657 H   0  0  0  0  0  0
  -26.1270  -31.5263   20.6167 H   0  0  0  0  0  0
  -26.8574  -30.8083   22.0206 H   0  0  0  0  0  0
  -28.1234  -28.9018   21.2102 H   0  0  0  0  0  0
  -25.8949  -25.9378   18.9634 H   0  0  0  0  0  0
  -23.9641  -27.3398   18.9857 H   0  0  0  0  0  0
  -23.7836  -30.6063   19.4078 H   0  0  0  0  0  0
  -22.7679  -29.2655   19.8472 H   0  0  0  0  0  0
  -25.1293  -36.1923   25.0825 H   0  0  0  0  0  0
  -21.0020  -28.3290   24.1365 H   0  0  0  0  0  0
  -20.5684  -26.2323   23.3614 H   0  0  0  0  0  0
  -21.6655  -26.7443   22.1193 H   0  0  0  0  0  0
  -19.6915  -25.6301   21.1247 H   0  0  0  0  0  0
  -19.6688  -27.3199   20.6733 H   0  0  0  0  0  0
  -17.4211  -26.6696   21.4034 H   0  0  0  0  0  0
  -18.0339  -26.0077   22.9023 H   0  0  0  0  0  0
  -19.7950  -30.7281   24.2270 H   0  0  0  0  0  0
  -17.5033  -31.6276   24.5170 H   0  0  0  0  0  0
  -15.5369  -30.3003   23.7652 H   0  0  0  0  0  0
  -15.8693  -28.0826   22.7085 H   0  0  0  0  0  0
  -24.5923  -30.7086   25.7784 H   0  0  0  0  0  0
  -24.8924  -32.2915   26.4844 H   0  0  0  0  0  0
  -25.8060  -30.8950   27.0244 H   0  0  0  0  0  0
  -26.2969  -29.6737   24.1241 H   0  0  0  0  0  0
  -27.4056  -29.7276   25.4752 H   0  0  0  0  0  0
  -27.8855  -30.4284   23.9490 H   0  0  0  0  0  0
  -27.2674  -33.3644   26.2057 H   0  0  0  0  0  0
  -28.3898  -32.6873   25.0352 H   0  0  0  0  0  0
  -28.0709  -31.8472   26.5457 H   0  0  0  0  0  0
  -28.2590  -38.0094   24.7534 H   0  0  0  0  0  0
  -28.1085  -36.2629   24.6274 H   0  0  0  0  0  0
  -27.2306  -37.1429   25.8873 H   0  0  0  0  0  0
  -20.9394  -29.8814   21.6876 H   0  0  0  0  0  0
  -26.0167  -38.2852   24.1425 H   0  0  0  0  0  0
  -29.9118  -18.2873   18.9467 H   0  0  0  0  0  0
  -27.8404  -22.0144   20.5692 H   0  0  0  0  0  0
  -30.0255  -24.0080   19.7634 H   0  0  0  0  0  0
  -30.1827  -21.3202   22.9488 H   0  0  0  0  0  0
  -29.6304  -20.0976   24.0876 H   0  0  0  0  0  0
  -28.4637  -20.9493   23.0816 H   0  0  0  0  0  0
  -29.8195  -20.9679   18.9420 H   0  0  0  0  0  0
  -30.8322  -21.4988   20.2235 H   0  0  0  0  0  0
  -27.2280  -24.6150   20.8847 H   0  0  0  0  0  0
  -27.4592  -24.6749   19.1532 H   0  0  0  0  0  0
  -28.7598  -15.4923   20.6763 H   0  0  0  0  0  0
  1 25  1  0  0  0
  1 30  2  0  0  0
  1 80  1  0  0  0
  2  3  1  0  0  0
  2 25  1  0  0  0
  2 82  1  0  0  0
  2 83  1  0  0  0
  3  4  1  0  0  0
  3 84  1  0  0  0
  3 85  1  0  0  0
  4  5  1  0  0  0
  4 86  1  0  0  0
  4 87  1  0  0  0
  5  6  1  0  0  0
  5 26  1  0  0  0
  5 88  1  0  0  0
  6 25  1  0  0  0
  6 89  1  0  0  0
  6 90  1  0  0  0
  7  8  2  0  0  0
  7 26  1  0  0  0
  7 29  1  0  0  0
  8  9  1  0  0  0
  8 22  1  0  0  0
  9 10  1  0  0  0
  9 27  2  0  0  0
 10 11  2  0  0  0
 10 15  1  0  0  0
 11 12  1  0  0  0
 11 91  1  0  0  0
 12 13  2  0  0  0
 12 92  1  0  0  0
 13 14  1  0  0  0
 13 31  1  0  0  0
 14 15  2  0  0  0
 14 93  1  0  0  0
 15 94  1  0  0  0
 16 17  2  0  0  0
 16 21  1  0  0  0
 16 31  1  0  0  0
 17 18  1  0  0  0
 17 95  1  0  0  0
 18 19  2  0  0  0
 18 96  1  0  0  0
 19 20  1  0  0  0
 19 24  1  0  0  0
 20 21  2  0  0  0
 20 97  1  0  0  0
 21 23  1  0  0  0
 22 28  1  0  0  0
 22 32  2  0  0  0
 26 27  1  0  0  0
 28 98  1  0  0  0
 28 99  1  0  0  0
 29100  1  0  0  0
 29101  1  0  0  0
 33 34  1  0  0  0
 33 66  1  0  0  0
 33 70  2  0  0  0
 34 36  1  0  0  0
 34 59  1  0  0  0
 34102  1  0  0  0
 35 44  2  0  0  0
 35 45  1  0  0  0
 35 68  1  0  0  0
 36 56  1  0  0  0
 36103  1  0  0  0
 37 39  1  0  0  0
 37 47  1  0  0  0
 37 66  1  0  0  0
 37104  1  0  0  0
 38 43  2  0  0  0
 38 46  1  0  0  0
 38 47  1  0  0  0
 39 64  1  0  0  0
 39 67  2  0  0  0
 40 52  1  0  0  0
 40 53  2  0  0  0
 40 58  1  0  0  0
 41105  1  0  0  0
 41106  1  0  0  0
 41107  1  0  0  0
 41 48  1  0  0  0
 42 43  1  0  0  0
 42 66  1  0  0  0
 42108  1  0  0  0
 42109  1  0  0  0
 43 44  1  0  0  0
 44110  1  0  0  0
 45 46  2  0  0  0
 45111  1  0  0  0
 46112  1  0  0  0
 47113  1  0  0  0
 47114  1  0  0  0
 48 56  1  0  0  0
 48 65  1  0  0  0
 48115  1  0  0  0
 49 50  1  0  0  0
 49 53  1  0  0  0
 49 64  1  0  0  0
 49116  1  0  0  0
 50 51  1  0  0  0
 50117  1  0  0  0
 50118  1  0  0  0
 51 52  1  0  0  0
 51119  1  0  0  0
 51120  1  0  0  0
 52121  1  0  0  0
 52122  1  0  0  0
 53 54  1  0  0  0
 54 55  2  0  0  0
 54123  1  0  0  0
 55 57  1  0  0  0
 55124  1  0  0  0
 56 69  2  0  0  0
 57 58  2  0  0  0
 57125  1  0  0  0
 58126  1  0  0  0
 59 60  1  0  0  0
 59 61  1  0  0  0
 59 62  1  0  0  0
 60127  1  0  0  0
 60128  1  0  0  0
 60129  1  0  0  0
 61130  1  0  0  0
 61131  1  0  0  0
 61132  1  0  0  0
 62133  1  0  0  0
 62134  1  0  0  0
 62135  1  0  0  0
 63 65  1  0  0  0
 63136  1  0  0  0
 63137  1  0  0  0
 63138  1  0  0  0
 64139  1  0  0  0
 65140  1  0  0  0
 68 79  1  0  0  0
 71 72  1  0  0  0
 71 74  2  0  0  0
 71141  1  0  0  0
 72 73  2  0  0  0
 72 78  1  0  0  0
 73 77  1  0  0  0
 73 81  1  0  0  0
 74 80  1  0  0  0
 74 81  1  0  0  0
 75 76  2  0  0  0
 75 78  1  0  0  0
 75142  1  0  0  0
 76 79  1  0  0  0
 76143  1  0  0  0
 77144  1  0  0  0
 77145  1  0  0  0
 77146  1  0  0  0
 78147  1  0  0  0
 78148  1  0  0  0
 79149  1  0  0  0
 79150  1  0  0  0
 80151  1  0  0  0
M  ISO  4   1 100  68 101  79 101  80 100
M  END
> <chiral flag>
0

> <version>
0

> <s_m_source_file>
/data/baiqing/PycharmProjects/Reinvent-master-3.2/result/LINK_invent/BTK/process_docking_weight1_custom_product_contain_oxygen_bond_distance_aromatic_linkinvent_7_9_3/rearranged_h_0126.sdf

> <i_m_source_file_index>
94

> <r_mmod_Potential_Energy-OPLS-2005>
203.063537597656

> <r_mmod_Stretch_Energy-OPLS-2005>
116.942230224609

> <r_mmod_Bend_Energy-OPLS-2005>
176.214691162109

> <r_mmod_Torsional_Energy-OPLS-2005>
251.418197631836

> <r_mmod_Improper_Torsional_Energy-OPLS-2005>
10.9628372192383

> <r_mmod_Van_der_Waal_Energy-OPLS-2005>
118.24870300293

> <r_mmod_Electrostatic_Energy-OPLS-2005>
-359.771545410156

> <r_mmod_Solvation_Energy-OPLS-2005>
-204.797775268555

> <b_mmod_Minimization_Converged-OPLS-2005>
0

> <r_mmod_RMS_Derivative-OPLS-2005>
0.962891638278961

$$$$
94
                    3D
 Structure written by MMmdl.
163171  0  0  1  0            999 V2000
  -30.6287  -14.5715   20.5143 C   0  0  0  0  0  0
  -30.4280  -12.3554   19.4236 C   0  0  0  0  0  0
  -29.4971  -12.4960   18.2031 C   0  0  0  0  0  0
  -28.0212  -12.3353   18.6233 C   0  0  0  0  0  0
  -27.6498  -13.2020   19.8585 C   0  0  2  0  0  0
  -28.6960  -13.0270   20.9817 C   0  0  0  0  0  0
  -25.2555  -13.8139   20.5650 C   0  0  0  0  0  0
  -24.1817  -13.0412   20.9199 C   0  0  0  0  0  0
  -24.6361  -11.6884   20.8715 C   0  0  0  0  0  0
  -23.9008  -10.4280   21.0394 C   0  0  0  0  0  0
  -24.3562   -9.4212   21.9188 C   0  0  0  0  0  0
  -23.6258   -8.2240   22.0759 C   0  0  0  0  0  0
  -22.4248   -8.0246   21.3543 C   0  0  0  0  0  0
  -21.9858   -9.0203   20.4632 C   0  0  0  0  0  0
  -22.7172  -10.2102   20.3050 C   0  0  0  0  0  0
  -21.6851   -6.0696   22.5276 C   0  0  0  0  0  0
  -21.4011   -6.5608   23.8206 C   0  0  0  0  0  0
  -21.3675   -5.6756   24.9176 C   0  0  0  0  0  0
  -21.6053   -4.3021   24.7211 C   0  0  0  0  0  0
  -21.8828   -3.8118   23.4336 C   0  0  0  0  0  0
  -21.9178   -4.6933   22.3398 C   0  0  0  0  0  0
  -22.7860  -13.5236   21.1846 C   0  0  0  0  0  0
  -22.1655   -4.2136   21.0974 F   0  0  0  0  0  0
  -21.5631   -3.4495   25.7721 F   0  0  0  0  0  0
  -30.0061  -13.3645   20.4102 N   0  0  0  0  0  0
  -26.2948  -12.9274   20.3271 N   0  0  0  0  0  0
  -25.9289  -11.6440   20.5746 N   0  0  0  0  0  0
  -22.0439  -12.8269   22.0383 N   0  0  0  0  0  0
  -25.4242  -15.1859   20.4015 N   0  0  0  0  0  0
  -31.8062  -14.7293   20.1812 O   0  0  0  0  0  0
  -21.6637   -6.8836   21.4233 O   0  0  0  0  0  0
  -22.3565  -14.5524   20.6653 O   0  0  0  0  0  0
  -24.6194  -31.8622   23.2068 C   0  0  0  0  0  0
  -25.9044  -32.4794   23.8391 C   0  0  1  0  0  0
  -27.2415  -27.3735   20.1076 C   0  0  0  0  0  0
  -25.5868  -33.8608   24.2323 N   0  0  0  0  0  0
  -23.4097  -30.4848   21.5467 C   0  0  2  0  0  0
  -24.8582  -28.9383   20.1154 C   0  0  0  0  0  0
  -22.7436  -29.4624   22.4969 C   0  0  0  0  0  0
  -18.0319  -28.1373   22.8558 C   0  0  0  0  0  0
  -24.1465  -36.7320   23.2644 C   0  0  0  0  0  0
  -25.9438  -30.8134   21.3619 C   0  0  0  0  0  0
  -26.0205  -29.4408   20.7099 C   0  0  0  0  0  0
  -27.2117  -28.6680   20.6989 C   0  0  0  0  0  0
  -26.0526  -26.9004   19.5016 C   0  0  0  0  0  0
  -24.8695  -27.6690   19.5120 C   0  0  0  0  0  0
  -23.6219  -29.8143   20.1614 C   0  0  0  0  0  0
  -25.4085  -36.3125   24.0356 C   0  0  1  0  0  0
  -20.5913  -28.3670   23.1350 C   0  0  2  0  0  0
  -20.6790  -26.9416   22.5398 C   0  0  0  0  0  0
  -19.5769  -26.6445   21.5162 C   0  0  0  0  0  0
  -18.1967  -26.7937   22.1632 C   0  0  0  0  0  0
  -19.1573  -28.8817   23.2987 C   0  0  0  0  0  0
  -18.9483  -30.1416   23.9024 C   0  0  0  0  0  0
  -17.6487  -30.6561   24.0637 C   0  0  0  0  0  0
  -25.9013  -34.9481   23.5144 C   0  0  0  0  0  0
  -16.5384  -29.9090   23.6364 C   0  0  0  0  0  0
  -16.7313  -28.6510   23.0376 C   0  0  0  0  0  0
  -26.4452  -31.6571   25.0725 C   0  0  0  0  0  0
  -25.3747  -31.3627   26.1482 C   0  0  0  0  0  0
  -27.0220  -30.3016   24.6063 C   0  0  0  0  0  0
  -27.6035  -32.4285   25.7476 C   0  0  0  0  0  0
  -27.5578  -37.1821   24.8480 C   0  0  0  0  0  0
  -21.4146  -29.3094   22.3787 N   0  0  0  0  0  0
  -26.4287  -37.3803   23.9416 N   0  0  0  0  0  0
  -24.6767  -31.0678   22.0970 N   0  0  0  0  0  0
  -23.4187  -28.8131   23.2995 O   0  0  0  0  0  0
  -28.4144  -26.6192   20.1607 O   0  0  0  0  0  0
  -26.5561  -34.8952   22.4706 O   0  0  0  0  0  0
  -23.5388  -32.1376   23.7426 O   0  0  0  0  0  0
  -31.4541  -18.5975   22.3480 C   0  0  0  0  0  0
  -31.2141  -17.2856   21.9045 C   0  0  0  0  0  0
  -29.3609  -18.1286   20.5887 C   0  0  0  0  0  0
  -30.6577  -19.7033   21.9463 C   0  0  0  0  0  0
  -30.1401  -17.0127   21.0404 C   0  0  0  0  0  0
  -29.6070  -19.4910   20.9895 C   0  0  0  0  0  0
  -27.7608  -24.2060   20.5687 C   0  0  0  0  0  0
  -30.8869  -20.9794   22.7017 C   0  0  0  0  0  0
  -27.9352  -22.8619   20.7822 C   0  0  0  0  0  0
  -32.3065  -21.3157   23.1580 C   0  0  0  0  0  0
  -25.7679  -21.5944   20.7872 C   0  0  0  0  0  0
  -28.4847  -25.2360   19.6879 C   0  0  0  0  0  0
  -26.8877  -22.1873   21.6569 C   0  0  0  0  0  0
  -29.0150  -21.8819   20.2147 C   0  0  0  0  0  0
  -29.8054  -15.6378   20.7306 N   0  0  0  0  0  0
  -29.9890  -21.7573   23.0197 O   0  0  0  0  0  0
  -28.7226  -20.4614   20.4697 O   0  0  0  0  0  0
  -31.4670  -12.4791   19.1171 H   0  0  0  0  0  0
  -30.3572  -11.3522   19.8484 H   0  0  0  0  0  0
  -29.7571  -11.7572   17.4428 H   0  0  0  0  0  0
  -29.6413  -13.4720   17.7385 H   0  0  0  0  0  0
  -27.8593  -11.2808   18.8504 H   0  0  0  0  0  0
  -27.3618  -12.5680   17.7862 H   0  0  0  0  0  0
  -27.6725  -14.2432   19.5338 H   0  0  0  0  0  0
  -28.7071  -11.9973   21.3429 H   0  0  0  0  0  0
  -28.4616  -13.6454   21.8480 H   0  0  0  0  0  0
  -25.2706   -9.5707   22.4767 H   0  0  0  0  0  0
  -23.9949   -7.4640   22.7497 H   0  0  0  0  0  0
  -21.0781   -8.8681   19.8953 H   0  0  0  0  0  0
  -22.3593  -10.9607   19.6142 H   0  0  0  0  0  0
  -21.2018   -7.6119   23.9714 H   0  0  0  0  0  0
  -21.1510   -6.0490   25.9083 H   0  0  0  0  0  0
  -22.0611   -2.7581   23.2825 H   0  0  0  0  0  0
  -22.3959  -11.9918   22.4801 H   0  0  0  0  0  0
  -21.1087  -13.1422   22.2552 H   0  0  0  0  0  0
  -24.6438  -15.8250   20.5145 H   0  0  0  0  0  0
  -26.2432  -15.6333   20.0090 H   0  0  0  0  0  0
  -26.7100  -32.5473   23.1141 H   0  0  0  0  0  0
  -25.0041  -33.9770   25.0488 H   0  0  0  0  0  0
  -22.7051  -31.3070   21.3995 H   0  0  0  0  0  0
  -23.3735  -35.9637   23.3309 H   0  0  0  0  0  0
  -24.3612  -36.8931   22.2063 H   0  0  0  0  0  0
  -23.7173  -37.6529   23.6628 H   0  0  0  0  0  0
  -26.0563  -31.5739   20.5872 H   0  0  0  0  0  0
  -26.8325  -30.8753   21.9767 H   0  0  0  0  0  0
  -28.1051  -29.0541   21.1703 H   0  0  0  0  0  0
  -26.0137  -25.9286   19.0298 H   0  0  0  0  0  0
  -23.9719  -27.2722   19.0602 H   0  0  0  0  0  0
  -23.7464  -30.5883   19.4026 H   0  0  0  0  0  0
  -22.7400  -29.2468   19.8559 H   0  0  0  0  0  0
  -25.1257  -36.2020   25.0847 H   0  0  0  0  0  0
  -21.0061  -28.3155   24.1433 H   0  0  0  0  0  0
  -20.5560  -26.2299   23.3581 H   0  0  0  0  0  0
  -21.6690  -26.7390   22.1267 H   0  0  0  0  0  0
  -19.6943  -25.6358   21.1182 H   0  0  0  0  0  0
  -19.6668  -27.3297   20.6705 H   0  0  0  0  0  0
  -17.4215  -26.6669   21.4054 H   0  0  0  0  0  0
  -18.0438  -26.0014   22.8967 H   0  0  0  0  0  0
  -19.7948  -30.7229   24.2448 H   0  0  0  0  0  0
  -17.5052  -31.6257   24.5216 H   0  0  0  0  0  0
  -15.5402  -30.3014   23.7673 H   0  0  0  0  0  0
  -15.8715  -28.0862   22.7014 H   0  0  0  0  0  0
  -24.6025  -30.6816   25.7880 H   0  0  0  0  0  0
  -24.8787  -32.2728   26.4875 H   0  0  0  0  0  0
  -25.8212  -30.8927   27.0259 H   0  0  0  0  0  0
  -26.2713  -29.6852   24.1089 H   0  0  0  0  0  0
  -27.3954  -29.7190   25.4487 H   0  0  0  0  0  0
  -27.8597  -30.4343   23.9211 H   0  0  0  0  0  0
  -27.2676  -33.3614   26.2017 H   0  0  0  0  0  0
  -28.3871  -32.6785   25.0308 H   0  0  0  0  0  0
  -28.0643  -31.8403   26.5414 H   0  0  0  0  0  0
  -28.2612  -38.0109   24.7554 H   0  0  0  0  0  0
  -28.1079  -36.2654   24.6281 H   0  0  0  0  0  0
  -27.2342  -37.1476   25.8906 H   0  0  0  0  0  0
  -20.9224  -29.8953   21.7185 H   0  0  0  0  0  0
  -26.0192  -38.2897   24.1412 H   0  0  0  0  0  0
  -32.2450  -18.7125   23.0742 H   0  0  0  0  0  0
  -31.8290  -16.4865   22.2966 H   0  0  0  0  0  0
  -28.5327  -17.9453   19.9193 H   0  0  0  0  0  0
  -26.9224  -24.6610   21.0747 H   0  0  0  0  0  0
  -32.3482  -21.3032   24.2472 H   0  0  0  0  0  0
  -32.5837  -22.3143   22.8240 H   0  0  0  0  0  0
  -33.0508  -20.6148   22.7755 H   0  0  0  0  0  0
  -25.0062  -21.0999   21.3899 H   0  0  0  0  0  0
  -26.1599  -20.8570   20.0885 H   0  0  0  0  0  0
  -25.2780  -22.3748   20.2008 H   0  0  0  0  0  0
  -28.0825  -25.1760   18.6765 H   0  0  0  0  0  0
  -29.5312  -24.9434   19.6070 H   0  0  0  0  0  0
  -26.4556  -22.9145   22.3459 H   0  0  0  0  0  0
  -27.3453  -21.4337   22.2980 H   0  0  0  0  0  0
  -30.0246  -22.1750   20.4946 H   0  0  0  0  0  0
  -28.9947  -22.0070   19.1312 H   0  0  0  0  0  0
  -28.8218  -15.4159   20.7070 H   0  0  0  0  0  0
  1 25  1  0  0  0
  1 30  2  0  0  0
  1 85  1  0  0  0
  2  3  1  0  0  0
  2 25  1  0  0  0
  2 88  1  0  0  0
  2 89  1  0  0  0
  3  4  1  0  0  0
  3 90  1  0  0  0
  3 91  1  0  0  0
  4  5  1  0  0  0
  4 92  1  0  0  0
  4 93  1  0  0  0
  5  6  1  0  0  0
  5 26  1  0  0  0
  5 94  1  0  0  0
  6 25  1  0  0  0
  6 95  1  0  0  0
  6 96  1  0  0  0
  7  8  2  0  0  0
  7 26  1  0  0  0
  7 29  1  0  0  0
  8  9  1  0  0  0
  8 22  1  0  0  0
  9 10  1  0  0  0
  9 27  2  0  0  0
 10 11  2  0  0  0
 10 15  1  0  0  0
 11 12  1  0  0  0
 11 97  1  0  0  0
 12 13  2  0  0  0
 12 98  1  0  0  0
 13 14  1  0  0  0
 13 31  1  0  0  0
 14 15  2  0  0  0
 14 99  1  0  0  0
 15100  1  0  0  0
 16 17  2  0  0  0
 16 21  1  0  0  0
 16 31  1  0  0  0
 17 18  1  0  0  0
 17101  1  0  0  0
 18 19  2  0  0  0
 18102  1  0  0  0
 19 20  1  0  0  0
 19 24  1  0  0  0
 20 21  2  0  0  0
 20103  1  0  0  0
 21 23  1  0  0  0
 22 28  1  0  0  0
 22 32  2  0  0  0
 26 27  1  0  0  0
 28104  1  0  0  0
 28105  1  0  0  0
 29106  1  0  0  0
 29107  1  0  0  0
 33 34  1  0  0  0
 33 66  1  0  0  0
 33 70  2  0  0  0
 34 36  1  0  0  0
 34 59  1  0  0  0
 34108  1  0  0  0
 35 44  2  0  0  0
 35 45  1  0  0  0
 35 68  1  0  0  0
 36 56  1  0  0  0
 36109  1  0  0  0
 37 39  1  0  0  0
 37 47  1  0  0  0
 37 66  1  0  0  0
 37110  1  0  0  0
 38 43  2  0  0  0
 38 46  1  0  0  0
 38 47  1  0  0  0
 39 64  1  0  0  0
 39 67  2  0  0  0
 40 52  1  0  0  0
 40 53  2  0  0  0
 40 58  1  0  0  0
 41111  1  0  0  0
 41112  1  0  0  0
 41113  1  0  0  0
 41 48  1  0  0  0
 42 43  1  0  0  0
 42 66  1  0  0  0
 42114  1  0  0  0
 42115  1  0  0  0
 43 44  1  0  0  0
 44116  1  0  0  0
 45 46  2  0  0  0
 45117  1  0  0  0
 46118  1  0  0  0
 47119  1  0  0  0
 47120  1  0  0  0
 48 56  1  0  0  0
 48 65  1  0  0  0
 48121  1  0  0  0
 49 50  1  0  0  0
 49 53  1  0  0  0
 49 64  1  0  0  0
 49122  1  0  0  0
 50 51  1  0  0  0
 50123  1  0  0  0
 50124  1  0  0  0
 51 52  1  0  0  0
 51125  1  0  0  0
 51126  1  0  0  0
 52127  1  0  0  0
 52128  1  0  0  0
 53 54  1  0  0  0
 54 55  2  0  0  0
 54129  1  0  0  0
 55 57  1  0  0  0
 55130  1  0  0  0
 56 69  2  0  0  0
 57 58  2  0  0  0
 57131  1  0  0  0
 58132  1  0  0  0
 59 60  1  0  0  0
 59 61  1  0  0  0
 59 62  1  0  0  0
 60133  1  0  0  0
 60134  1  0  0  0
 60135  1  0  0  0
 61136  1  0  0  0
 61137  1  0  0  0
 61138  1  0  0  0
 62139  1  0  0  0
 62140  1  0  0  0
 62141  1  0  0  0
 63 65  1  0  0  0
 63142  1  0  0  0
 63143  1  0  0  0
 63144  1  0  0  0
 64145  1  0  0  0
 65146  1  0  0  0
 68 82  1  0  0  0
 71 72  2  0  0  0
 71 74  1  0  0  0
 71147  1  0  0  0
 72 75  1  0  0  0
 72148  1  0  0  0
 73 75  2  0  0  0
 73 76  1  0  0  0
 73149  1  0  0  0
 74 76  2  0  0  0
 74 78  1  0  0  0
 75 85  1  0  0  0
 76 87  1  0  0  0
 77 79  2  0  0  0
 77 82  1  0  0  0
 77150  1  0  0  0
 78 80  1  0  0  0
 78 86  2  0  0  0
 79 83  1  0  0  0
 79 84  1  0  0  0
 80151  1  0  0  0
 80152  1  0  0  0
 80153  1  0  0  0
 81 83  1  0  0  0
 81154  1  0  0  0
 81155  1  0  0  0
 81156  1  0  0  0
 82157  1  0  0  0
 82158  1  0  0  0
 83159  1  0  0  0
 83160  1  0  0  0
 84 87  1  0  0  0
 84161  1  0  0  0
 84162  1  0  0  0
 85163  1  0  0  0
M  ISO  4   1 100  68 101  82 101  85 100
M  END
> <chiral flag>
0

> <version>
0

> <s_m_source_file>
/data/baiqing/PycharmProjects/Reinvent-master-3.2/result/LINK_invent/BTK/process_docking_weight1_custom_product_contain_oxygen_bond_distance_aromatic_linkinvent_7_9_3/rearranged_h_0126.sdf

> <i_m_source_file_index>
95

> <r_mmod_Potential_Energy-OPLS-2005>
141.906097412109

> <r_mmod_Stretch_Energy-OPLS-2005>
69.6959686279297

> <r_mmod_Bend_Energy-OPLS-2005>
167.55143737793

> <r_mmod_Torsional_Energy-OPLS-2005>
261.729187011719

> <r_mmod_Improper_Torsional_Energy-OPLS-2005>
8.75182437896729

> <r_mmod_Van_der_Waal_Energy-OPLS-2005>
151.924880981445

> <r_mmod_Electrostatic_Energy-OPLS-2005>
-333.096710205078

> <r_mmod_Solvation_Energy-OPLS-2005>
-214.538925170898

> <b_mmod_Minimization_Converged-OPLS-2005>
0

> <r_mmod_RMS_Derivative-OPLS-2005>
5.02410745620728

$$$$
95
                    3D
 Structure written by MMmdl.
156164  0  0  1  0            999 V2000
  -30.6559  -14.8230   20.4428 C   0  0  0  0  0  0
  -30.4278  -12.4911   19.5129 C   0  0  0  0  0  0
  -29.5041  -12.4046   18.2740 C   0  0  0  0  0  0
  -28.0220  -12.3173   18.6766 C   0  0  0  0  0  0
  -27.6228  -13.2588   19.8438 C   0  0  2  0  0  0
  -28.6775  -13.2769   20.9782 C   0  0  0  0  0  0
  -25.2384  -13.8274   20.5738 C   0  0  0  0  0  0
  -24.1730  -13.0490   20.9183 C   0  0  0  0  0  0
  -24.6361  -11.6953   20.8713 C   0  0  0  0  0  0
  -23.9087  -10.4308   21.0399 C   0  0  0  0  0  0
  -24.3626   -9.4236   21.9175 C   0  0  0  0  0  0
  -23.6304   -8.2267   22.0755 C   0  0  0  0  0  0
  -22.4305   -8.0265   21.3542 C   0  0  0  0  0  0
  -21.9882   -9.0275   20.4736 C   0  0  0  0  0  0
  -22.7209  -10.2161   20.3110 C   0  0  0  0  0  0
  -21.6877   -6.0734   22.5252 C   0  0  0  0  0  0
  -21.3984   -6.5662   23.8166 C   0  0  0  0  0  0
  -21.3599   -5.6828   24.9124 C   0  0  0  0  0  0
  -21.6016   -4.3095   24.7187 C   0  0  0  0  0  0
  -21.8851   -3.8175   23.4316 C   0  0  0  0  0  0
  -21.9227   -4.6966   22.3364 C   0  0  0  0  0  0
  -22.7740  -13.5271   21.1899 C   0  0  0  0  0  0
  -22.1727   -4.2142   21.0953 F   0  0  0  0  0  0
  -21.5582   -3.4597   25.7689 F   0  0  0  0  0  0
  -29.9756  -13.6137   20.3866 N   0  0  0  0  0  0
  -26.2854  -12.9548   20.3339 N   0  0  0  0  0  0
  -25.9316  -11.6661   20.5789 N   0  0  0  0  0  0
  -22.0387  -12.8396   22.0544 N   0  0  0  0  0  0
  -25.4045  -15.2025   20.4303 N   0  0  0  0  0  0
  -31.8559  -14.8111   20.1678 O   0  0  0  0  0  0
  -21.6702   -6.8840   21.4199 O   0  0  0  0  0  0
  -22.3414  -14.5580   20.6703 O   0  0  0  0  0  0
  -24.6348  -31.8516   23.1915 C   0  0  0  0  0  0
  -25.9165  -32.4730   23.8294 C   0  0  1  0  0  0
  -27.2327  -27.2179   20.1906 C   0  0  0  0  0  0
  -25.5932  -33.8522   24.2231 N   0  0  0  0  0  0
  -23.4363  -30.4672   21.5345 C   0  0  2  0  0  0
  -24.8901  -28.8998   20.1157 C   0  0  0  0  0  0
  -22.7525  -29.4590   22.4904 C   0  0  0  0  0  0
  -18.0285  -28.1383   22.8473 C   0  0  0  0  0  0
  -24.1495  -36.7268   23.2649 C   0  0  0  0  0  0
  -25.9810  -30.7589   21.3731 C   0  0  0  0  0  0
  -26.0602  -29.3751   20.7236 C   0  0  0  0  0  0
  -27.2356  -28.5510   20.7390 C   0  0  0  0  0  0
  -26.0460  -26.8202   19.5381 C   0  0  0  0  0  0
  -24.8940  -27.6371   19.5010 C   0  0  0  0  0  0
  -23.6585  -29.7895   20.1552 C   0  0  0  0  0  0
  -25.4116  -36.3058   24.0340 C   0  0  1  0  0  0
  -20.5892  -28.3707   23.1256 C   0  0  2  0  0  0
  -20.6776  -26.9414   22.5412 C   0  0  0  0  0  0
  -19.5764  -26.6381   21.5207 C   0  0  0  0  0  0
  -18.1940  -26.7923   22.1614 C   0  0  0  0  0  0
  -19.1532  -28.8860   23.2868 C   0  0  0  0  0  0
  -18.9462  -30.1459   23.8888 C   0  0  0  0  0  0
  -17.6465  -30.6591   24.0553 C   0  0  0  0  0  0
  -25.9052  -34.9423   23.5090 C   0  0  0  0  0  0
  -16.5357  -29.9087   23.6332 C   0  0  0  0  0  0
  -16.7276  -28.6506   23.0355 C   0  0  0  0  0  0
  -26.4522  -31.6541   25.0688 C   0  0  0  0  0  0
  -25.3733  -31.3680   26.1401 C   0  0  0  0  0  0
  -27.0354  -30.2952   24.6171 C   0  0  0  0  0  0
  -27.6076  -32.4285   25.7443 C   0  0  0  0  0  0
  -27.5579  -37.1789   24.8474 C   0  0  0  0  0  0
  -21.4219  -29.3049   22.3627 N   0  0  0  0  0  0
  -26.4295  -37.3758   23.9413 N   0  0  0  0  0  0
  -24.7029  -31.0477   22.0886 N   0  0  0  0  0  0
  -23.4198  -28.8128   23.3028 O   0  0  0  0  0  0
  -28.3173  -26.3013   20.2416 O   0  0  0  0  0  0
  -26.5660  -34.8917   22.4685 O   0  0  0  0  0  0
  -23.5483  -32.1326   23.7212 O   0  0  0  0  0  0
  -30.3995  -17.2336   21.5505 C   0  0  0  0  0  0
  -28.9346  -18.2998   19.4858 C   0  0  0  0  0  0
  -30.0164  -16.2760   20.5376 C   0  0  0  0  0  0
  -29.3094  -16.9134   19.4561 C   0  0  0  0  0  0
  -29.3025  -19.2483   20.4796 C   0  0  0  0  0  0
  -30.0682  -18.6490   21.5353 C   0  0  0  0  0  0
  -28.8023  -23.6106   20.2143 C   0  0  0  0  0  0
  -27.7496  -16.4246   17.4405 C   0  0  0  0  0  0
  -29.1055  -16.2009   18.1208 C   0  0  0  0  0  0
  -28.8712  -20.7841   20.1619 C   0  0  0  0  0  0
  -29.0904  -22.1918   20.9695 C   0  0  0  0  0  0
  -28.1299  -24.9290   20.8871 C   0  0  0  0  0  0
  -29.1409  -23.6966   19.0310 O   0  0  0  0  0  0
  -30.5550  -19.4322   22.5286 F   0  0  0  0  0  0
  -31.4675  -12.5780   19.1956 H   0  0  0  0  0  0
  -30.3675  -11.5418   20.0492 H   0  0  0  0  0  0
  -29.7526  -11.5001   17.7220 H   0  0  0  0  0  0
  -29.6732  -13.2132   17.5701 H   0  0  0  0  0  0
  -27.8643  -11.2881   18.9883 H   0  0  0  0  0  0
  -27.3753  -12.4694   17.8110 H   0  0  0  0  0  0
  -27.5541  -14.2591   19.4170 H   0  0  0  0  0  0
  -28.7383  -12.3055   21.4751 H   0  0  0  0  0  0
  -28.4165  -14.0152   21.7420 H   0  0  0  0  0  0
  -25.2789   -9.5728   22.4722 H   0  0  0  0  0  0
  -24.0070   -7.4688   22.7500 H   0  0  0  0  0  0
  -21.0782   -8.8851   19.9064 H   0  0  0  0  0  0
  -22.3694  -10.9706   19.6231 H   0  0  0  0  0  0
  -21.1964   -7.6184   23.9643 H   0  0  0  0  0  0
  -21.1377   -6.0572   25.9028 H   0  0  0  0  0  0
  -22.0695   -2.7632   23.2846 H   0  0  0  0  0  0
  -22.4107  -12.0224   22.5124 H   0  0  0  0  0  0
  -21.0959  -13.1351   22.2743 H   0  0  0  0  0  0
  -24.6557  -15.8504   20.6374 H   0  0  0  0  0  0
  -26.2806  -15.6731   20.2481 H   0  0  0  0  0  0
  -26.7237  -32.5385   23.1019 H   0  0  0  0  0  0
  -25.0003  -33.9627   25.0338 H   0  0  0  0  0  0
  -22.7365  -31.2898   21.3828 H   0  0  0  0  0  0
  -23.3762  -35.9596   23.3317 H   0  0  0  0  0  0
  -24.3574  -36.8887   22.2059 H   0  0  0  0  0  0
  -23.7247  -37.6473   23.6665 H   0  0  0  0  0  0
  -26.1211  -31.5153   20.6000 H   0  0  0  0  0  0
  -26.8570  -30.8115   22.0069 H   0  0  0  0  0  0
  -28.1338  -28.9190   21.2123 H   0  0  0  0  0  0
  -26.0039  -25.8468   19.0700 H   0  0  0  0  0  0
  -24.0026  -27.2738   19.0080 H   0  0  0  0  0  0
  -23.7855  -30.5613   19.3946 H   0  0  0  0  0  0
  -22.7777  -29.2175   19.8557 H   0  0  0  0  0  0
  -25.1296  -36.1890   25.0835 H   0  0  0  0  0  0
  -20.9974  -28.3295   24.1385 H   0  0  0  0  0  0
  -20.5648  -26.2319   23.3619 H   0  0  0  0  0  0
  -21.6643  -26.7422   22.1218 H   0  0  0  0  0  0
  -19.6927  -25.6293   21.1244 H   0  0  0  0  0  0
  -19.6706  -27.3180   20.6728 H   0  0  0  0  0  0
  -17.4204  -26.6652   21.4031 H   0  0  0  0  0  0
  -18.0361  -26.0068   22.9017 H   0  0  0  0  0  0
  -19.7941  -30.7265   24.2265 H   0  0  0  0  0  0
  -17.5027  -31.6262   24.5150 H   0  0  0  0  0  0
  -15.5358  -30.2990   23.7661 H   0  0  0  0  0  0
  -15.8677  -28.0817   22.7093 H   0  0  0  0  0  0
  -24.5906  -30.7046   25.7707 H   0  0  0  0  0  0
  -24.8931  -32.2836   26.4854 H   0  0  0  0  0  0
  -25.8049  -30.8815   27.0155 H   0  0  0  0  0  0
  -26.2915  -29.6691   24.1227 H   0  0  0  0  0  0
  -27.4062  -29.7217   25.4678 H   0  0  0  0  0  0
  -27.8793  -30.4217   23.9383 H   0  0  0  0  0  0
  -27.2693  -33.3589   26.2000 H   0  0  0  0  0  0
  -28.3870  -32.6832   25.0254 H   0  0  0  0  0  0
  -28.0750  -31.8420   26.5354 H   0  0  0  0  0  0
  -28.2615  -38.0073   24.7511 H   0  0  0  0  0  0
  -28.1060  -36.2603   24.6310 H   0  0  0  0  0  0
  -27.2299  -37.1454   25.8882 H   0  0  0  0  0  0
  -20.9410  -29.8746   21.6799 H   0  0  0  0  0  0
  -26.0172  -38.2840   24.1395 H   0  0  0  0  0  0
  -31.0462  -16.8864   22.3459 H   0  0  0  0  0  0
  -28.4037  -18.7082   18.6400 H   0  0  0  0  0  0
  -27.6692  -17.4023   16.9557 H   0  0  0  0  0  0
  -26.9099  -16.3127   18.1292 H   0  0  0  0  0  0
  -27.6411  -15.6839   16.6479 H   0  0  0  0  0  0
  -29.9027  -16.5218   17.4418 H   0  0  0  0  0  0
  -29.2181  -15.1357   18.2341 H   0  0  0  0  0  0
  -27.7906  -20.7254   20.0151 H   0  0  0  0  0  0
  -29.2617  -20.9576   19.1599 H   0  0  0  0  0  0
  -28.5269  -22.1576   21.8988 H   0  0  0  0  0  0
  -30.1416  -22.2280   21.2550 H   0  0  0  0  0  0
  -28.5228  -24.9929   21.9021 H   0  0  0  0  0  0
  -27.0665  -24.7220   21.0093 H   0  0  0  0  0  0
  1 25  1  0  0  0
  1 30  2  0  0  0
  1 73  1  0  0  0
  2  3  1  0  0  0
  2 25  1  0  0  0
  2 85  1  0  0  0
  2 86  1  0  0  0
  3  4  1  0  0  0
  3 87  1  0  0  0
  3 88  1  0  0  0
  4  5  1  0  0  0
  4 89  1  0  0  0
  4 90  1  0  0  0
  5  6  1  0  0  0
  5 26  1  0  0  0
  5 91  1  0  0  0
  6 25  1  0  0  0
  6 92  1  0  0  0
  6 93  1  0  0  0
  7  8  2  0  0  0
  7 26  1  0  0  0
  7 29  1  0  0  0
  8  9  1  0  0  0
  8 22  1  0  0  0
  9 10  1  0  0  0
  9 27  2  0  0  0
 10 11  2  0  0  0
 10 15  1  0  0  0
 11 12  1  0  0  0
 11 94  1  0  0  0
 12 13  2  0  0  0
 12 95  1  0  0  0
 13 14  1  0  0  0
 13 31  1  0  0  0
 14 15  2  0  0  0
 14 96  1  0  0  0
 15 97  1  0  0  0
 16 17  2  0  0  0
 16 21  1  0  0  0
 16 31  1  0  0  0
 17 18  1  0  0  0
 17 98  1  0  0  0
 18 19  2  0  0  0
 18 99  1  0  0  0
 19 20  1  0  0  0
 19 24  1  0  0  0
 20 21  2  0  0  0
 20100  1  0  0  0
 21 23  1  0  0  0
 22 28  1  0  0  0
 22 32  2  0  0  0
 26 27  1  0  0  0
 28101  1  0  0  0
 28102  1  0  0  0
 29103  1  0  0  0
 29104  1  0  0  0
 33 34  1  0  0  0
 33 66  1  0  0  0
 33 70  2  0  0  0
 34 36  1  0  0  0
 34 59  1  0  0  0
 34105  1  0  0  0
 35 44  2  0  0  0
 35 45  1  0  0  0
 35 68  1  0  0  0
 36 56  1  0  0  0
 36106  1  0  0  0
 37 39  1  0  0  0
 37 47  1  0  0  0
 37 66  1  0  0  0
 37107  1  0  0  0
 38 43  2  0  0  0
 38 46  1  0  0  0
 38 47  1  0  0  0
 39 64  1  0  0  0
 39 67  2  0  0  0
 40 52  1  0  0  0
 40 53  2  0  0  0
 40 58  1  0  0  0
 41108  1  0  0  0
 41109  1  0  0  0
 41110  1  0  0  0
 41 48  1  0  0  0
 42 43  1  0  0  0
 42 66  1  0  0  0
 42111  1  0  0  0
 42112  1  0  0  0
 43 44  1  0  0  0
 44113  1  0  0  0
 45 46  2  0  0  0
 45114  1  0  0  0
 46115  1  0  0  0
 47116  1  0  0  0
 47117  1  0  0  0
 48 56  1  0  0  0
 48 65  1  0  0  0
 48118  1  0  0  0
 49 50  1  0  0  0
 49 53  1  0  0  0
 49 64  1  0  0  0
 49119  1  0  0  0
 50 51  1  0  0  0
 50120  1  0  0  0
 50121  1  0  0  0
 51 52  1  0  0  0
 51122  1  0  0  0
 51123  1  0  0  0
 52124  1  0  0  0
 52125  1  0  0  0
 53 54  1  0  0  0
 54 55  2  0  0  0
 54126  1  0  0  0
 55 57  1  0  0  0
 55127  1  0  0  0
 56 69  2  0  0  0
 57 58  2  0  0  0
 57128  1  0  0  0
 58129  1  0  0  0
 59 60  1  0  0  0
 59 61  1  0  0  0
 59 62  1  0  0  0
 60130  1  0  0  0
 60131  1  0  0  0
 60132  1  0  0  0
 61133  1  0  0  0
 61134  1  0  0  0
 61135  1  0  0  0
 62136  1  0  0  0
 62137  1  0  0  0
 62138  1  0  0  0
 63 65  1  0  0  0
 63139  1  0  0  0
 63140  1  0  0  0
 63141  1  0  0  0
 64142  1  0  0  0
 65143  1  0  0  0
 68 82  1  0  0  0
 71 73  2  0  0  0
 71 76  1  0  0  0
 71144  1  0  0  0
 72 74  2  0  0  0
 72 75  1  0  0  0
 72145  1  0  0  0
 73 74  1  0  0  0
 74 79  1  0  0  0
 75 76  2  0  0  0
 75 80  1  0  0  0
 76 84  1  0  0  0
 77 81  1  0  0  0
 77 82  1  0  0  0
 77 83  2  0  0  0
 78 79  1  0  0  0
 78146  1  0  0  0
 78147  1  0  0  0
 78148  1  0  0  0
 79149  1  0  0  0
 79150  1  0  0  0
 80 81  1  0  0  0
 80151  1  0  0  0
 80152  1  0  0  0
 81153  1  0  0  0
 81154  1  0  0  0
 82155  1  0  0  0
 82156  1  0  0  0
M  ISO  4   1 100  68 101  73 100  82 101
M  END
> <chiral flag>
0

> <version>
0

> <s_m_source_file>
/data/baiqing/PycharmProjects/Reinvent-master-3.2/result/LINK_invent/BTK/process_docking_weight1_custom_product_contain_oxygen_bond_distance_aromatic_linkinvent_7_9_3/rearranged_h_0126.sdf

> <i_m_source_file_index>
96

> <r_mmod_Potential_Energy-OPLS-2005>
406.420684814453

> <r_mmod_Stretch_Energy-OPLS-2005>
167.143081665039

> <r_mmod_Bend_Energy-OPLS-2005>
240.713333129883

> <r_mmod_Torsional_Energy-OPLS-2005>
245.377822875977

> <r_mmod_Improper_Torsional_Energy-OPLS-2005>
9.90939903259277

> <r_mmod_Van_der_Waal_Energy-OPLS-2005>
127.962715148926

> <r_mmod_Electrostatic_Energy-OPLS-2005>
-308.156921386719

> <r_mmod_Solvation_Energy-OPLS-2005>
-201.158386230469

> <b_mmod_Minimization_Converged-OPLS-2005>
0

> <r_mmod_RMS_Derivative-OPLS-2005>
8.763108253479

$$$$
96
                    3D
 Structure written by MMmdl.
157165  0  0  1  0            999 V2000
  -30.6438  -14.6408   20.4919 C   0  0  0  0  0  0
  -30.4363  -12.3915   19.4507 C   0  0  0  0  0  0
  -29.5010  -12.4922   18.2248 C   0  0  0  0  0  0
  -28.0265  -12.3298   18.6428 C   0  0  0  0  0  0
  -27.6505  -13.2154   19.8600 C   0  0  2  0  0  0
  -28.7011  -13.0872   20.9890 C   0  0  0  0  0  0
  -25.2447  -13.8069   20.5561 C   0  0  0  0  0  0
  -24.1779  -13.0353   20.9222 C   0  0  0  0  0  0
  -24.6399  -11.6852   20.8801 C   0  0  0  0  0  0
  -23.9077  -10.4244   21.0435 C   0  0  0  0  0  0
  -24.3619   -9.4160   21.9217 C   0  0  0  0  0  0
  -23.6279   -8.2201   22.0778 C   0  0  0  0  0  0
  -22.4272   -8.0255   21.3541 C   0  0  0  0  0  0
  -21.9912   -9.0237   20.4657 C   0  0  0  0  0  0
  -22.7250  -10.2107   20.3074 C   0  0  0  0  0  0
  -21.6839   -6.0734   22.5275 C   0  0  0  0  0  0
  -21.4002   -6.5641   23.8209 C   0  0  0  0  0  0
  -21.3647   -5.6794   24.9175 C   0  0  0  0  0  0
  -21.6049   -4.3057   24.7219 C   0  0  0  0  0  0
  -21.8817   -3.8149   23.4337 C   0  0  0  0  0  0
  -21.9185   -4.6966   22.3397 C   0  0  0  0  0  0
  -22.7797  -13.5147   21.1857 C   0  0  0  0  0  0
  -22.1658   -4.2155   21.0966 F   0  0  0  0  0  0
  -21.5629   -3.4538   25.7729 F   0  0  0  0  0  0
  -30.0169  -13.4230   20.4200 N   0  0  0  0  0  0
  -26.2965  -12.9325   20.3324 N   0  0  0  0  0  0
  -25.9343  -11.6490   20.5856 N   0  0  0  0  0  0
  -22.0439  -12.8185   22.0452 N   0  0  0  0  0  0
  -25.3919  -15.1722   20.3618 N   0  0  0  0  0  0
  -31.8091  -14.7823   20.1127 O   0  0  0  0  0  0
  -21.6612   -6.8873   21.4240 O   0  0  0  0  0  0
  -22.3486  -14.5448   20.6689 O   0  0  0  0  0  0
  -24.6255  -31.8590   23.2066 C   0  0  0  0  0  0
  -25.9126  -32.4759   23.8367 C   0  0  1  0  0  0
  -27.2325  -27.3349   20.1130 C   0  0  0  0  0  0
  -25.5966  -33.8558   24.2299 N   0  0  0  0  0  0
  -23.4173  -30.4818   21.5470 C   0  0  2  0  0  0
  -24.8640  -28.9410   20.1080 C   0  0  0  0  0  0
  -22.7477  -29.4589   22.4940 C   0  0  0  0  0  0
  -18.0292  -28.1345   22.8416 C   0  0  0  0  0  0
  -24.1514  -36.7257   23.2642 C   0  0  0  0  0  0
  -25.9572  -30.7922   21.3771 C   0  0  0  0  0  0
  -26.0329  -29.4240   20.7106 C   0  0  0  0  0  0
  -27.2173  -28.6348   20.7019 C   0  0  0  0  0  0
  -26.0391  -26.8964   19.4909 C   0  0  0  0  0  0
  -24.8688  -27.6789   19.4904 C   0  0  0  0  0  0
  -23.6297  -29.8171   20.1616 C   0  0  0  0  0  0
  -25.4129  -36.3052   24.0342 C   0  0  1  0  0  0
  -20.5891  -28.3634   23.1262 C   0  0  2  0  0  0
  -20.6784  -26.9362   22.5374 C   0  0  0  0  0  0
  -19.5765  -26.6341   21.5166 C   0  0  0  0  0  0
  -18.1936  -26.7868   22.1575 C   0  0  0  0  0  0
  -19.1550  -28.8810   23.2800 C   0  0  0  0  0  0
  -18.9481  -30.1405   23.8818 C   0  0  0  0  0  0
  -17.6486  -30.6538   24.0523 C   0  0  0  0  0  0
  -25.9059  -34.9427   23.5091 C   0  0  0  0  0  0
  -16.5367  -29.9011   23.6345 C   0  0  0  0  0  0
  -16.7281  -28.6449   23.0315 C   0  0  0  0  0  0
  -26.4525  -31.6584   25.0748 C   0  0  0  0  0  0
  -25.3771  -31.3711   26.1494 C   0  0  0  0  0  0
  -27.0417  -30.3034   24.6203 C   0  0  0  0  0  0
  -27.6082  -32.4336   25.7513 C   0  0  0  0  0  0
  -27.5573  -37.1783   24.8466 C   0  0  0  0  0  0
  -21.4201  -29.2988   22.3678 N   0  0  0  0  0  0
  -26.4298  -37.3752   23.9417 N   0  0  0  0  0  0
  -24.6847  -31.0605   22.1004 N   0  0  0  0  0  0
  -23.4202  -28.8147   23.3019 O   0  0  0  0  0  0
  -28.3682  -26.5130   20.1555 O   0  0  0  0  0  0
  -26.5584  -34.8893   22.4635 O   0  0  0  0  0  0
  -23.5430  -32.1421   23.7398 O   0  0  0  0  0  0
  -28.9037  -19.4072   20.8551 C   0  0  0  0  0  0
  -31.1514  -17.8394   20.3028 C   0  0  0  0  0  0
  -30.0720  -20.0957   20.4547 C   0  0  0  0  0  0
  -28.8508  -17.9887   20.9882 C   0  0  0  0  0  0
  -31.2061  -19.2646   20.1839 C   0  0  0  0  0  0
  -29.9754  -17.1551   20.7099 C   0  0  0  0  0  0
  -30.1292  -21.6155   20.3304 C   0  0  0  0  0  0
  -29.1772  -22.5810   20.5233 C   0  0  0  0  0  0
  -27.5206  -17.3871   21.3975 C   0  0  0  0  0  0
  -32.5226  -19.8893   19.7508 C   0  0  0  0  0  0
  -29.4094  -24.1280   20.4344 C   0  0  0  0  0  0
  -28.1807  -25.0529   20.0583 C   0  0  0  0  0  0
  -29.8490  -15.6992   20.8425 N   0  0  0  0  0  0
  -31.4762  -12.5119   19.1434 H   0  0  0  0  0  0
  -30.3715  -11.4016   19.9059 H   0  0  0  0  0  0
  -29.7626  -11.7291   17.4908 H   0  0  0  0  0  0
  -29.6388  -13.4522   17.7264 H   0  0  0  0  0  0
  -27.8728  -11.2798   18.8953 H   0  0  0  0  0  0
  -27.3656  -12.5379   17.7991 H   0  0  0  0  0  0
  -27.6630  -14.2459   19.5060 H   0  0  0  0  0  0
  -28.7169  -12.0707   21.3853 H   0  0  0  0  0  0
  -28.4492  -13.7296   21.8344 H   0  0  0  0  0  0
  -25.2768   -9.5623   22.4803 H   0  0  0  0  0  0
  -23.9974   -7.4589   22.7506 H   0  0  0  0  0  0
  -21.0846   -8.8761   19.8966 H   0  0  0  0  0  0
  -22.3725  -10.9655   19.6180 H   0  0  0  0  0  0
  -21.2002   -7.6145   23.9712 H   0  0  0  0  0  0
  -21.1470   -6.0524   25.9074 H   0  0  0  0  0  0
  -22.0614   -2.7611   23.2829 H   0  0  0  0  0  0
  -22.4032  -11.9849   22.4868 H   0  0  0  0  0  0
  -21.1072  -13.1258   22.2667 H   0  0  0  0  0  0
  -24.5871  -15.7888   20.3902 H   0  0  0  0  0  0
  -26.1793  -15.5781   19.8743 H   0  0  0  0  0  0
  -26.7184  -32.5448   23.1106 H   0  0  0  0  0  0
  -25.0278  -33.9712   25.0541 H   0  0  0  0  0  0
  -22.7085  -31.2995   21.4054 H   0  0  0  0  0  0
  -23.3776  -35.9589   23.3303 H   0  0  0  0  0  0
  -24.3602  -36.8878   22.2053 H   0  0  0  0  0  0
  -23.7259  -37.6458   23.6667 H   0  0  0  0  0  0
  -26.0971  -31.5656   20.6205 H   0  0  0  0  0  0
  -26.8326  -30.8274   22.0154 H   0  0  0  0  0  0
  -28.1114  -29.0037   21.1844 H   0  0  0  0  0  0
  -25.9845  -25.9354   19.0038 H   0  0  0  0  0  0
  -23.9746  -27.2956   19.0172 H   0  0  0  0  0  0
  -23.7341  -30.5958   19.4045 H   0  0  0  0  0  0
  -22.7542  -29.2374   19.8688 H   0  0  0  0  0  0
  -25.1295  -36.1902   25.0835 H   0  0  0  0  0  0
  -20.9948  -28.3225   24.1392 H   0  0  0  0  0  0
  -20.5696  -26.2249   23.3571 H   0  0  0  0  0  0
  -21.6646  -26.7382   22.1167 H   0  0  0  0  0  0
  -19.6956  -25.6254   21.1185 H   0  0  0  0  0  0
  -19.6741  -27.3160   20.6709 H   0  0  0  0  0  0
  -17.4211  -26.6590   21.3971 H   0  0  0  0  0  0
  -18.0332  -26.0018   22.8995 H   0  0  0  0  0  0
  -19.7981  -30.7206   24.2166 H   0  0  0  0  0  0
  -17.5056  -31.6236   24.5094 H   0  0  0  0  0  0
  -15.5355  -30.2864   23.7747 H   0  0  0  0  0  0
  -15.8684  -28.0766   22.7021 H   0  0  0  0  0  0
  -24.5927  -30.7074   25.7823 H   0  0  0  0  0  0
  -24.8996  -32.2888   26.4946 H   0  0  0  0  0  0
  -25.8109  -30.8863   27.0253 H   0  0  0  0  0  0
  -26.3020  -29.6721   24.1277 H   0  0  0  0  0  0
  -27.4210  -29.7325   25.4692 H   0  0  0  0  0  0
  -27.8841  -30.4344   23.9395 H   0  0  0  0  0  0
  -27.2685  -33.3637   26.2064 H   0  0  0  0  0  0
  -28.3906  -32.6887   25.0345 H   0  0  0  0  0  0
  -28.0761  -31.8489   26.5453 H   0  0  0  0  0  0
  -28.2556  -38.0107   24.7496 H   0  0  0  0  0  0
  -28.1078  -36.2617   24.6296 H   0  0  0  0  0  0
  -27.2266  -37.1424   25.8861 H   0  0  0  0  0  0
  -20.9405  -29.8694   21.6867 H   0  0  0  0  0  0
  -26.0166  -38.2815   24.1437 H   0  0  0  0  0  0
  -28.0114  -19.9788   21.0677 H   0  0  0  0  0  0
  -32.0392  -17.2681   20.0721 H   0  0  0  0  0  0
  -31.0991  -22.0044   20.0621 H   0  0  0  0  0  0
  -28.1772  -22.2803   20.7992 H   0  0  0  0  0  0
  -26.9593  -18.0610   22.0470 H   0  0  0  0  0  0
  -27.6245  -16.4400   21.9283 H   0  0  0  0  0  0
  -26.9316  -17.2302   20.4956 H   0  0  0  0  0  0
  -33.3055  -19.1404   19.6271 H   0  0  0  0  0  0
  -32.8720  -20.6064   20.4956 H   0  0  0  0  0  0
  -32.4035  -20.4092   18.7989 H   0  0  0  0  0  0
  -30.2303  -24.3157   19.7396 H   0  0  0  0  0  0
  -29.7693  -24.4417   21.4147 H   0  0  0  0  0  0
  -27.3516  -24.7757   20.7103 H   0  0  0  0  0  0
  -27.8779  -24.8062   19.0406 H   0  0  0  0  0  0
  -28.9396  -15.3982   21.1539 H   0  0  0  0  0  0
  1 25  1  0  0  0
  1 30  2  0  0  0
  1 83  1  0  0  0
  2  3  1  0  0  0
  2 25  1  0  0  0
  2 84  1  0  0  0
  2 85  1  0  0  0
  3  4  1  0  0  0
  3 86  1  0  0  0
  3 87  1  0  0  0
  4  5  1  0  0  0
  4 88  1  0  0  0
  4 89  1  0  0  0
  5  6  1  0  0  0
  5 26  1  0  0  0
  5 90  1  0  0  0
  6 25  1  0  0  0
  6 91  1  0  0  0
  6 92  1  0  0  0
  7  8  2  0  0  0
  7 26  1  0  0  0
  7 29  1  0  0  0
  8  9  1  0  0  0
  8 22  1  0  0  0
  9 10  1  0  0  0
  9 27  2  0  0  0
 10 11  2  0  0  0
 10 15  1  0  0  0
 11 12  1  0  0  0
 11 93  1  0  0  0
 12 13  2  0  0  0
 12 94  1  0  0  0
 13 14  1  0  0  0
 13 31  1  0  0  0
 14 15  2  0  0  0
 14 95  1  0  0  0
 15 96  1  0  0  0
 16 17  2  0  0  0
 16 21  1  0  0  0
 16 31  1  0  0  0
 17 18  1  0  0  0
 17 97  1  0  0  0
 18 19  2  0  0  0
 18 98  1  0  0  0
 19 20  1  0  0  0
 19 24  1  0  0  0
 20 21  2  0  0  0
 20 99  1  0  0  0
 21 23  1  0  0  0
 22 28  1  0  0  0
 22 32  2  0  0  0
 26 27  1  0  0  0
 28100  1  0  0  0
 28101  1  0  0  0
 29102  1  0  0  0
 29103  1  0  0  0
 33 34  1  0  0  0
 33 66  1  0  0  0
 33 70  2  0  0  0
 34 36  1  0  0  0
 34 59  1  0  0  0
 34104  1  0  0  0
 35 44  2  0  0  0
 35 45  1  0  0  0
 35 68  1  0  0  0
 36 56  1  0  0  0
 36105  1  0  0  0
 37 39  1  0  0  0
 37 47  1  0  0  0
 37 66  1  0  0  0
 37106  1  0  0  0
 38 43  2  0  0  0
 38 46  1  0  0  0
 38 47  1  0  0  0
 39 64  1  0  0  0
 39 67  2  0  0  0
 40 52  1  0  0  0
 40 53  2  0  0  0
 40 58  1  0  0  0
 41107  1  0  0  0
 41108  1  0  0  0
 41109  1  0  0  0
 41 48  1  0  0  0
 42 43  1  0  0  0
 42 66  1  0  0  0
 42110  1  0  0  0
 42111  1  0  0  0
 43 44  1  0  0  0
 44112  1  0  0  0
 45 46  2  0  0  0
 45113  1  0  0  0
 46114  1  0  0  0
 47115  1  0  0  0
 47116  1  0  0  0
 48 56  1  0  0  0
 48 65  1  0  0  0
 48117  1  0  0  0
 49 50  1  0  0  0
 49 53  1  0  0  0
 49 64  1  0  0  0
 49118  1  0  0  0
 50 51  1  0  0  0
 50119  1  0  0  0
 50120  1  0  0  0
 51 52  1  0  0  0
 51121  1  0  0  0
 51122  1  0  0  0
 52123  1  0  0  0
 52124  1  0  0  0
 53 54  1  0  0  0
 54 55  2  0  0  0
 54125  1  0  0  0
 55 57  1  0  0  0
 55126  1  0  0  0
 56 69  2  0  0  0
 57 58  2  0  0  0
 57127  1  0  0  0
 58128  1  0  0  0
 59 60  1  0  0  0
 59 61  1  0  0  0
 59 62  1  0  0  0
 60129  1  0  0  0
 60130  1  0  0  0
 60131  1  0  0  0
 61132  1  0  0  0
 61133  1  0  0  0
 61134  1  0  0  0
 62135  1  0  0  0
 62136  1  0  0  0
 62137  1  0  0  0
 63 65  1  0  0  0
 63138  1  0  0  0
 63139  1  0  0  0
 63140  1  0  0  0
 64141  1  0  0  0
 65142  1  0  0  0
 68 82  1  0  0  0
 71 73  2  0  0  0
 71 74  1  0  0  0
 71143  1  0  0  0
 72 75  2  0  0  0
 72 76  1  0  0  0
 72144  1  0  0  0
 73 75  1  0  0  0
 73 77  1  0  0  0
 74 76  2  0  0  0
 74 79  1  0  0  0
 75 80  1  0  0  0
 76 83  1  0  0  0
 77 78  2  0  0  0
 77145  1  0  0  0
 78 81  1  0  0  0
 78146  1  0  0  0
 79147  1  0  0  0
 79148  1  0  0  0
 79149  1  0  0  0
 80150  1  0  0  0
 80151  1  0  0  0
 80152  1  0  0  0
 81 82  1  0  0  0
 81153  1  0  0  0
 81154  1  0  0  0
 82155  1  0  0  0
 82156  1  0  0  0
 83157  1  0  0  0
M  ISO  4   1 100  68 101  82 101  83 100
M  END
> <chiral flag>
0

> <version>
0

> <s_m_source_file>
/data/baiqing/PycharmProjects/Reinvent-master-3.2/result/LINK_invent/BTK/process_docking_weight1_custom_product_contain_oxygen_bond_distance_aromatic_linkinvent_7_9_3/rearranged_h_0126.sdf

> <i_m_source_file_index>
97

> <r_mmod_Potential_Energy-OPLS-2005>
26.0015239715576

> <r_mmod_Stretch_Energy-OPLS-2005>
74.2763519287109

> <r_mmod_Bend_Energy-OPLS-2005>
128.627258300781

> <r_mmod_Torsional_Energy-OPLS-2005>
211.235977172852

> <r_mmod_Improper_Torsional_Energy-OPLS-2005>
5.41119766235352

> <r_mmod_Van_der_Waal_Energy-OPLS-2005>
150.989349365234

> <r_mmod_Electrostatic_Energy-OPLS-2005>
-390.564575195312

> <r_mmod_Solvation_Energy-OPLS-2005>
-199.563674926758

> <b_mmod_Minimization_Converged-OPLS-2005>
0

> <r_mmod_RMS_Derivative-OPLS-2005>
3.06903076171875

$$$$
